# generated using pymatgen
data_Na4Bi2C4SO16
_symmetry_space_group_name_H-M   'P 1'
_cell_length_a   10.20944100
_cell_length_b   10.28107254
_cell_length_c   10.28996445
_cell_angle_alpha   118.93272341
_cell_angle_beta   118.77426800
_cell_angle_gamma   90.97598009
_symmetry_Int_Tables_number   1
_chemical_formula_structural   Na4Bi2C4SO16
_chemical_formula_sum   'Na8 Bi4 C8 S2 O32'
_cell_volume   783.35203999
_cell_formula_units_Z   2
loop_
 _symmetry_equiv_pos_site_id
 _symmetry_equiv_pos_as_xyz
  1  'x, y, z'
loop_
 _atom_site_type_symbol
 _atom_site_label
 _atom_site_symmetry_multiplicity
 _atom_site_fract_x
 _atom_site_fract_y
 _atom_site_fract_z
 _atom_site_occupancy
  Na  Na0  1  0.83439200  0.08004900  0.76091500  1
  Na  Na1  1  0.83602100  0.08118500  0.15427000  1
  Na  Na2  1  0.42623300  0.07662100  0.75095900  1
  Na  Na3  1  0.56673700  0.32832400  0.25220500  1
  Na  Na4  1  0.82648200  0.67195500  0.75078200  1
  Na  Na5  1  0.41959000  0.66227100  0.73496200  1
  Na  Na6  1  0.56961500  0.92429500  0.25372800  1
  Na  Na7  1  0.18558600  0.92289400  0.25225100  1
  Bi  Bi0  1  0.00401200  0.50289000  0.49908500  1
  Bi  Bi1  1  0.00660600  0.49580500  0.00599700  1
  Bi  Bi2  1  0.49530700  0.49989300  0.99836400  1
  Bi  Bi3  1  0.00411900  0.99995200  0.50618600  1
  C  C0  1  0.83651800  0.27616200  0.55698900  1
  C  C1  1  0.77094600  0.32607100  0.05655100  1
  C  C2  1  0.77123900  0.71635700  0.43867700  1
  C  C3  1  0.78269400  0.73375700  0.06186700  1
  C  C4  1  0.21883000  0.27851600  0.55905800  1
  C  C5  1  0.21886500  0.27249600  0.93483200  1
  C  C6  1  0.22055600  0.66572500  0.93676300  1
  C  C7  1  0.16987000  0.73036200  0.44411100  1
  S  S0  1  0.37718100  0.12337900  0.25168300  1
  S  S1  1  0.62994200  0.87847000  0.75760200  1
  O  O0  1  0.82568200  0.14493500  0.42848900  1
  O  O1  1  0.88902200  0.32202000  0.03947500  1
  O  O2  1  0.85257800  0.28440300  0.69320800  1
  O  O3  1  0.78287400  0.32406000  0.18770600  1
  O  O4  1  0.83238100  0.39848200  0.54667800  1
  O  O5  1  0.43472400  0.05788000  0.36600800  1
  O  O6  1  0.44574100  0.06844600  0.13969500  1
  O  O7  1  0.64003300  0.32772900  0.94135000  1
  O  O8  1  0.88691900  0.71072100  0.56486300  1
  O  O9  1  0.79796000  0.61719900  0.94759900  1
  O  O10  1  0.20158600  0.05972800  0.13518900  1
  O  O11  1  0.43635000  0.29798900  0.36680400  1
  O  O12  1  0.35105500  0.27068400  0.94320800  1
  O  O13  1  0.22158100  0.14635100  0.54912300  1
  O  O14  1  0.89934700  0.86654200  0.18939000  1
  O  O15  1  0.65208500  0.58894600  0.30105500  1
  O  O16  1  0.33908500  0.40481500  0.68737500  1
  O  O17  1  0.09219100  0.15062100  0.80686300  1
  O  O18  1  0.64853500  0.72184200  0.04968300  1
  O  O19  1  0.77576200  0.84869800  0.45000200  1
  O  O20  1  0.57568400  0.70361300  0.64605900  1
  O  O21  1  0.80818900  0.93771500  0.87557400  1
  O  O22  1  0.09077700  0.28006400  0.43969200  1
  O  O23  1  0.21711400  0.39870300  0.05380700  1
  O  O24  1  0.35292500  0.67867200  0.06416600  1
  O  O25  1  0.57547200  0.94416700  0.64690800  1
  O  O26  1  0.56862300  0.93495900  0.87578000  1
  O  O27  1  0.17810600  0.61217800  0.45898000  1
  O  O28  1  0.21168800  0.65131100  0.79988000  1
  O  O29  1  0.14804700  0.71902200  0.30336700  1
  O  O30  1  0.09746200  0.66635600  0.94616700  1
  O  O31  1  0.18263400  0.86372200  0.57156700  1
loop_
_geom_bond_atom_site_label_1
_geom_bond_atom_site_label_2
_geom_bond_distance
_geom_bond_site_symmetry_2
Na0 O21 2.359237 1_545
Na0 O25 2.370357 1_545
Na0 O17 2.466236 1_655
Na0 O1 2.496019 1_556
Na0 O2 2.541948 1_555
Na0 O19 2.645037 1_545
Na1 O21 2.364096 1_544
Na1 O14 2.452279 1_545
Na1 O3 2.458152 1_555
Na1 O26 2.466808 1_544
Na1 O22 2.495138 1_655
Na1 O0 2.627245 1_555
Na2 O25 2.356427 1_545
Na2 O31 2.422628 1_545
Na2 O26 2.443104 1_545
Na2 O7 2.462729 1_555
Na2 O12 2.485606 1_555
Na2 O13 2.550869 1_555
Na3 O11 2.261148 1_555
Na3 O6 2.350059 1_555
Na3 O15 2.527274 1_555
Na3 O3 2.587805 1_555
Na3 O12 2.588759 1_554
Na3 O4 2.639000 1_555
Na4 O20 2.352608 1_555
Na4 O21 2.450054 1_555
Na4 O8 2.462787 1_555
Na4 O9 2.483667 1_555
Na4 O30 2.542018 1_655
Na4 O4 2.594942 1_555
Na5 O20 2.305181 1_555
Na5 O26 2.464964 1_555
Na5 O16 2.491158 1_555
Na5 O27 2.491883 1_555
Na5 O28 2.528617 1_555
Na5 O18 2.659129 1_556
Na6 O5 2.275649 1_565
Na6 O6 2.343178 1_565
Na6 O24 2.442393 1_555
Na6 O0 2.557175 1_565
Na6 O19 2.568060 1_555
Na6 O18 2.616730 1_555
Na7 O5 2.281983 1_565
Na7 O10 2.297382 1_565
Na7 O29 2.459729 1_555
Na7 O30 2.615202 1_554
Na7 O13 2.616274 1_565
Na7 O14 2.655945 1_455
Bi0 O28 2.325099 1_555
Bi0 O22 2.375293 1_555
Bi0 O27 2.383002 1_555
Bi0 O4 2.394407 1_455
Bi0 O8 2.433002 1_455
Bi0 O3 2.436849 1_455
Bi1 O23 2.321203 1_555
Bi1 O29 2.356630 1_555
Bi1 O1 2.381736 1_455
Bi1 O2 2.407990 1_454
Bi1 O30 2.419274 1_554
Bi1 O9 2.457687 1_454
Bi2 O15 2.343671 1_556
Bi2 O7 2.362053 1_555
Bi2 O16 2.397165 1_555
Bi2 O24 2.405066 1_556
Bi2 O12 2.413965 1_555
Bi2 O18 2.418729 1_556
Bi3 O17 2.327587 1_565
Bi3 O31 2.356725 1_555
Bi3 O13 2.384988 1_565
Bi3 O19 2.428346 1_455
Bi3 O14 2.432868 1_455
Bi3 O0 2.454213 1_465
C0 O2 1.289246 1_555
C0 O0 1.307228 1_555
C0 O4 1.311925 1_555
C1 O1 1.297831 1_555
C1 O7 1.298803 1_554
C1 O3 1.305942 1_555
C2 O8 1.297285 1_555
C2 O15 1.301364 1_555
C2 O19 1.306227 1_555
C3 O9 1.289309 1_554
C3 O14 1.307965 1_555
C3 O18 1.311821 1_555
C4 O16 1.289562 1_555
C4 O22 1.300682 1_555
C4 O13 1.314242 1_555
C5 O23 1.291352 1_556
C5 O17 1.298228 1_555
C5 O12 1.311330 1_555
C6 O24 1.296957 1_556
C6 O28 1.299578 1_555
C6 O30 1.305948 1_555
C7 O27 1.295306 1_555
C7 O29 1.298370 1_555
C7 O31 1.306305 1_555
O5 S0 1.515632 1_555
O6 S0 1.515624 1_555
O10 S0 1.487014 1_555
O11 S0 1.485733 1_555
O20 S1 1.487802 1_555
O21 S1 1.508764 1_555
O25 S1 1.486691 1_555
O26 S1 1.506631 1_555
