# generated using pymatgen
data_Na3Fe2P(CO4)4
_symmetry_space_group_name_H-M   'P 1'
_cell_length_a   9.84270639
_cell_length_b   9.92614183
_cell_length_c   9.84270639
_cell_angle_alpha   60.30074236
_cell_angle_beta   89.95957923
_cell_angle_gamma   119.69925764
_symmetry_Int_Tables_number   1
_chemical_formula_structural   Na3Fe2P(CO4)4
_chemical_formula_sum   'Na6 Fe4 P2 C8 O32'
_cell_volume   685.87916511
_cell_formula_units_Z   2
loop_
 _symmetry_equiv_pos_site_id
 _symmetry_equiv_pos_as_xyz
  1  'x, y, z'
loop_
 _atom_site_type_symbol
 _atom_site_label
 _atom_site_symmetry_multiplicity
 _atom_site_fract_x
 _atom_site_fract_y
 _atom_site_fract_z
 _atom_site_occupancy
  Na  Na0  1  0.34848000  0.26382400  0.33199100  1
  Na  Na1  1  0.90418500  0.23617600  0.91534400  1
  Na  Na2  1  0.08465600  0.73617600  0.09581500  1
  Na  Na3  1  0.66800900  0.76382400  0.65152000  1
  Na  Na4  1  0.34002900  0.25000000  0.90997100  1
  Na  Na5  1  0.09002900  0.75000000  0.65997100  1
  Fe  Fe0  1  0.50035800  0.99324800  0.00212400  1
  Fe  Fe1  1  0.50710900  0.00675200  0.49537200  1
  Fe  Fe2  1  0.50462800  0.50675200  0.49289100  1
  Fe  Fe3  1  0.99787600  0.49324800  0.49964200  1
  P  P0  1  0.12522900  0.25000000  0.12477100  1
  P  P1  1  0.87522900  0.75000000  0.87477100  1
  C  C0  1  0.71517600  0.07575800  0.71118000  1
  C  C1  1  0.71306200  0.42424200  0.36058300  1
  C  C2  1  0.35821700  0.07553800  0.71360000  1
  C  C3  1  0.71086200  0.42446200  0.71732200  1
  C  C4  1  0.63941700  0.92424200  0.28693800  1
  C  C5  1  0.28882000  0.57575800  0.28482400  1
  C  C6  1  0.28640000  0.57553800  0.64178300  1
  C  C7  1  0.28267800  0.92446200  0.28913800  1
  O  O0  1  0.64650200  0.04237700  0.14139200  1
  O  O1  1  0.85606300  0.21877400  0.59773300  1
  O  O2  1  0.68349300  0.28122600  0.36271100  1
  O  O3  1  0.39290300  0.04329600  0.31674300  1
  O  O4  1  0.85860800  0.54237700  0.35349800  1
  O  O5  1  0.31645600  0.37380600  0.06453200  1
  O  O6  1  0.06166200  0.12619400  0.05734900  1
  O  O7  1  0.59761700  0.45230200  0.36082900  1
  O  O8  1  0.68686900  0.04769800  0.85468600  1
  O  O9  1  0.35259800  0.04204600  0.60016100  1
  O  O10  1  0.85779200  0.45795400  0.68944800  1
  O  O11  1  0.06499500  0.38015200  0.05735200  1
  O  O12  1  0.06249600  0.11984800  0.31515600  1
  O  O13  1  0.63728900  0.78122600  0.31650700  1
  O  O14  1  0.40226700  0.71877400  0.14393700  1
  O  O15  1  0.68325700  0.54329500  0.60709700  1
  O  O16  1  0.31623000  0.45762300  0.39587500  1
  O  O17  1  0.36557400  0.22210800  0.68255500  1
  O  O18  1  0.59533700  0.27789200  0.85653400  1
  O  O19  1  0.93546800  0.87380600  0.68354400  1
  O  O20  1  0.94265100  0.62619400  0.93833800  1
  O  O21  1  0.14531400  0.54769800  0.31313100  1
  O  O22  1  0.63917100  0.95230200  0.40238300  1
  O  O23  1  0.31055200  0.95795400  0.14220800  1
  O  O24  1  0.39983900  0.54204600  0.64740200  1
  O  O25  1  0.94264800  0.88015200  0.93500500  1
  O  O26  1  0.68484400  0.61984800  0.93750400  1
  O  O27  1  0.13996100  0.45670500  0.65039300  1
  O  O28  1  0.60412500  0.95762300  0.68377000  1
  O  O29  1  0.31744500  0.72210800  0.63442600  1
  O  O30  1  0.14346600  0.77789200  0.40466300  1
  O  O31  1  0.34960700  0.95670500  0.86003900  1
loop_
_geom_bond_atom_site_label_1
_geom_bond_atom_site_label_2
_geom_bond_distance
_geom_bond_site_symmetry_2
Na0 O7 2.361174 1_555
Na0 O5 2.390756 1_555
Na0 O16 2.449497 1_555
Na0 O9 2.479052 1_555
Na0 O12 2.498486 1_555
Na0 O3 2.505842 1_555
Na1 O8 2.361168 1_555
Na1 O6 2.390753 1_656
Na1 O0 2.449491 1_556
Na1 O10 2.479058 1_555
Na1 O11 2.498482 1_656
Na1 O27 2.505841 1_655
Na2 O21 2.361168 1_555
Na2 O20 2.390753 1_454
Na2 O4 2.449491 1_455
Na2 O23 2.479058 1_555
Na2 O25 2.498482 1_454
Na2 O31 2.505841 1_554
Na3 O22 2.361174 1_555
Na3 O19 2.390756 1_555
Na3 O28 2.449497 1_555
Na3 O24 2.479052 1_555
Na3 O26 2.498486 1_555
Na3 O15 2.505851 1_555
Na4 O17 2.415060 1_555
Na4 O18 2.415060 1_555
Na4 O6 2.452135 1_556
Na4 O5 2.452139 1_556
Na4 O24 2.512446 1_555
Na4 O23 2.512449 1_546
Na5 O30 2.415060 1_555
Na5 O29 2.415060 1_555
Na5 O20 2.452135 1_455
Na5 O19 2.452139 1_455
Na5 O9 2.512446 1_565
Na5 O10 2.512449 1_455
Fe0 O14 1.981560 1_555
Fe0 O8 2.001003 1_564
Fe0 O0 2.038641 1_565
Fe0 O31 2.064293 1_554
Fe0 O18 2.068641 1_564
Fe0 O23 2.093613 1_555
Fe1 O2 1.981562 1_555
Fe1 O22 2.001017 1_545
Fe1 O28 2.038655 1_545
Fe1 O3 2.064288 1_555
Fe1 O29 2.068639 1_545
Fe1 O9 2.093599 1_555
Fe2 O13 1.981562 1_555
Fe2 O7 2.001017 1_555
Fe2 O16 2.038655 1_555
Fe2 O15 2.064288 1_555
Fe2 O17 2.068639 1_555
Fe2 O24 2.093599 1_555
Fe3 O1 1.981560 1_555
Fe3 O21 2.001003 1_655
Fe3 O4 2.038641 1_555
Fe3 O27 2.064293 1_655
Fe3 O30 2.068641 1_655
Fe3 O10 2.093613 1_555
C0 O1 1.288998 1_555
C0 O8 1.297320 1_555
C0 O28 1.298620 1_545
C1 O2 1.289004 1_555
C1 O7 1.297310 1_555
C1 O4 1.298623 1_555
C2 O17 1.292415 1_555
C2 O31 1.300821 1_545
C2 O9 1.307645 1_555
C3 O18 1.292411 1_555
C3 O15 1.300822 1_555
C3 O10 1.307637 1_555
C4 O13 1.289004 1_555
C4 O22 1.297310 1_555
C4 O0 1.298623 1_565
C5 O14 1.288998 1_555
C5 O21 1.297320 1_555
C5 O16 1.298620 1_555
C6 O29 1.292415 1_555
C6 O27 1.300821 1_555
C6 O24 1.307645 1_555
C7 O30 1.292411 1_555
C7 O3 1.300828 1_565
C7 O23 1.307637 1_555
O5 P0 1.545590 1_555
O6 P0 1.545598 1_555
O11 P0 1.539767 1_555
O12 P0 1.539759 1_555
O19 P1 1.545590 1_555
O20 P1 1.545598 1_555
O25 P1 1.539767 1_555
O26 P1 1.539759 1_555
