# generated using pymatgen
data_Li7Ti5Mn12O32
_symmetry_space_group_name_H-M   'P 1'
_cell_length_a   5.92131700
_cell_length_b   6.05878104
_cell_length_c   19.85269003
_cell_angle_alpha   96.77493340
_cell_angle_beta   89.51498261
_cell_angle_gamma   118.93777950
_symmetry_Int_Tables_number   1
_chemical_formula_structural   Li7Ti5Mn12O32
_chemical_formula_sum   'Li7 Ti5 Mn12 O32'
_cell_volume   617.98712222
_cell_formula_units_Z   1
loop_
 _symmetry_equiv_pos_site_id
 _symmetry_equiv_pos_as_xyz
  1  'x, y, z'
loop_
 _atom_site_type_symbol
 _atom_site_label
 _atom_site_symmetry_multiplicity
 _atom_site_fract_x
 _atom_site_fract_y
 _atom_site_fract_z
 _atom_site_occupancy
  Li  Li0  1  0.65988200  0.81577100  0.96987800  1
  Li  Li1  1  0.59972000  0.69531600  0.78182700  1
  Li  Li2  1  0.89627000  0.30451600  0.71393800  1
  Li  Li3  1  0.84822700  0.19386500  0.54037000  1
  Li  Li4  1  0.09670700  0.68453900  0.27450700  1
  Li  Li5  1  0.41120000  0.31777900  0.22179000  1
  Li  Li6  1  0.34231900  0.18278300  0.03173400  1
  Ti  Ti0  1  0.14218600  0.26821700  0.87424000  1
  Ti  Ti1  1  0.99250400  0.49046100  0.00242400  1
  Ti  Ti2  1  0.12667900  0.75914400  0.87497200  1
  Ti  Ti3  1  0.14885900  0.80758500  0.46901200  1
  Ti  Ti4  1  0.88193700  0.76222900  0.12615600  1
  Mn  Mn0  1  0.62889500  0.25401500  0.87629000  1
  Mn  Mn1  1  0.24466900  0.99394000  0.74896400  1
  Mn  Mn2  1  0.37581900  0.74710700  0.62870100  1
  Mn  Mn3  1  0.11678700  0.23548800  0.37036700  1
  Mn  Mn4  1  0.86729800  0.74704900  0.62816900  1
  Mn  Mn5  1  0.62275100  0.74998600  0.37096500  1
  Mn  Mn6  1  0.37662500  0.25701800  0.62889800  1
  Mn  Mn7  1  0.62401500  0.24209000  0.37143200  1
  Mn  Mn8  1  0.50083900  0.50335300  0.50522900  1
  Mn  Mn9  1  0.74868200  0.00031000  0.24826300  1
  Mn  Mn10  1  0.37818100  0.75296400  0.12422500  1
  Mn  Mn11  1  0.87518900  0.25237500  0.12562200  1
  O  O0  1  0.27883700  0.59798600  0.93277700  1
  O  O1  1  0.83400100  0.16996600  0.93670500  1
  O  O2  1  0.85326400  0.63092700  0.93803300  1
  O  O3  1  0.07514500  0.09612500  0.68401200  1
  O  O4  1  0.94833300  0.39310800  0.82430600  1
  O  O5  1  0.40380600  0.87775300  0.81453600  1
  O  O6  1  0.30784700  0.11241100  0.92740500  1
  O  O7  1  0.57782500  0.61895200  0.68528000  1
  O  O8  1  0.43015400  0.36279600  0.82198100  1
  O  O9  1  0.97744000  0.91097900  0.82004200  1
  O  O10  1  0.67850300  0.85878900  0.57470000  1
  O  O11  1  0.22735400  0.40305300  0.57038200  1
  O  O12  1  0.06558800  0.63921400  0.67830200  1
  O  O13  1  0.51329500  0.09201200  0.68313800  1
  O  O14  1  0.16961800  0.87141900  0.55998600  1
  O  O15  1  0.32679400  0.62774200  0.44126400  1
  O  O16  1  0.66996900  0.39823400  0.56782700  1
  O  O17  1  0.80294000  0.09725300  0.42161500  1
  O  O18  1  0.93365000  0.32722000  0.30702700  1
  O  O19  1  0.46826000  0.89948400  0.30505900  1
  O  O20  1  0.29616400  0.11919400  0.43436800  1
  O  O21  1  0.80176400  0.60958200  0.44111300  1
  O  O22  1  0.58509200  0.67118400  0.18589200  1
  O  O23  1  0.02869300  0.09823300  0.18099500  1
  O  O24  1  0.68021500  0.85428600  0.07023600  1
  O  O25  1  0.44529000  0.39632900  0.32668300  1
  O  O26  1  0.59880800  0.12758100  0.18660200  1
  O  O27  1  0.90494600  0.87196600  0.30647800  1
  O  O28  1  0.06908700  0.64184300  0.17596400  1
  O  O29  1  0.15194100  0.37222600  0.06056800  1
  O  O30  1  0.72288600  0.40129300  0.06648700  1
  O  O31  1  0.16625500  0.83296600  0.06226500  1
loop_
_geom_bond_atom_site_label_1
_geom_bond_atom_site_label_2
_geom_bond_distance
_geom_bond_site_symmetry_2
Li0 O24 1.976282 1_556
Li0 O2 2.006696 1_555
Li0 O1 2.069496 1_565
Li0 O0 2.071762 1_555
Li1 O7 1.908299 1_555
Li1 O5 2.011964 1_555
Li1 O8 2.027391 1_555
Li1 O9 2.062042 1_555
Li2 O12 1.994223 1_655
Li2 O3 2.043397 1_655
Li2 O13 2.046065 1_555
Li2 O4 2.181259 1_555
Li3 O10 1.984051 1_545
Li3 O16 2.010040 1_555
Li3 O11 2.022900 1_655
Li3 O17 2.346498 1_555
Li4 O28 1.940623 1_555
Li4 O19 1.991931 1_555
Li4 O27 2.011778 1_455
Li4 O18 2.081425 1_455
Li5 O26 2.021332 1_555
Li5 O25 2.069780 1_555
Li5 O22 2.089719 1_555
Li5 O23 2.101577 1_555
Li6 O29 2.000517 1_555
Li6 O31 2.024971 1_545
Li6 O6 2.056198 1_554
Li6 O30 2.056834 1_555
Mn0 O8 1.980265 1_555
Mn0 O1 1.984982 1_555
Mn0 O6 1.993529 1_555
Mn0 O4 1.995646 1_555
Mn0 O5 2.214575 1_545
Mn0 O2 2.216677 1_555
Mn1 O13 1.955585 1_565
Mn1 O3 1.966050 1_565
Mn1 O5 1.989224 1_555
Mn1 O9 2.026699 1_455
Mn1 O12 2.195417 1_555
Mn1 O8 2.278007 1_565
Mn2 O12 1.931489 1_555
Mn2 O10 1.945378 1_555
Mn2 O13 2.008319 1_565
Mn2 O11 2.032993 1_555
Mn2 O7 2.103005 1_555
Mn2 O14 2.253798 1_555
Mn3 O25 1.954971 1_555
Mn3 O18 1.958902 1_455
Mn3 O17 1.962909 1_455
Mn3 O20 2.048738 1_555
Mn3 O27 2.174274 1_445
Mn3 O15 2.357119 1_555
Mn4 O12 1.926552 1_655
Mn4 O7 1.926974 1_555
Mn4 O10 1.938277 1_555
Mn4 O3 2.041527 1_665
Mn4 O16 2.074482 1_555
Mn4 O14 2.121065 1_655
Mn5 O25 1.964846 1_555
Mn5 O17 1.980644 1_565
Mn5 O27 1.992309 1_555
Mn5 O19 2.114460 1_555
Mn5 O15 2.124582 1_555
Mn5 O21 2.227948 1_555
Mn6 O13 1.966109 1_555
Mn6 O3 1.966928 1_555
Mn6 O11 1.982513 1_555
Mn6 O16 1.997508 1_555
Mn6 O7 2.096722 1_555
Mn6 O14 2.309825 1_545
Mn7 O25 1.987796 1_555
Mn7 O17 2.002237 1_555
Mn7 O19 2.101979 1_545
Mn7 O18 2.112625 1_555
Mn7 O20 2.159592 1_555
Mn7 O21 2.238102 1_555
Mn8 O16 1.943717 1_555
Mn8 O11 1.965307 1_555
Mn8 O15 2.059668 1_555
Mn8 O21 2.062666 1_555
Mn8 O10 2.185842 1_555
Mn8 O20 2.322025 1_555
Mn9 O19 1.884388 1_545
Mn9 O27 1.929498 1_545
Mn9 O26 1.945256 1_555
Mn9 O18 1.964892 1_555
Mn9 O22 2.004108 1_545
Mn9 O23 2.020398 1_655
Mn10 O24 1.945383 1_555
Mn10 O28 1.948591 1_555
Mn10 O22 2.000343 1_555
Mn10 O31 2.019452 1_555
Mn10 O26 2.210570 1_565
Mn10 O29 2.250200 1_555
Mn11 O26 1.923674 1_555
Mn11 O29 1.978534 1_655
Mn11 O23 1.996863 1_655
Mn11 O30 2.015167 1_555
Mn11 O28 2.174041 1_655
Mn11 O24 2.249535 1_545
O0 Ti0 1.975053 1_555
O0 Ti2 2.053124 1_555
O0 Ti1 2.077205 1_456
O1 Ti1 2.003265 1_556
O1 Ti0 2.075317 1_655
O2 Ti2 1.941638 1_655
O2 Ti1 1.997939 1_556
O4 Ti0 1.977291 1_655
O4 Ti2 2.066534 1_655
O5 Ti2 1.917721 1_555
O6 Ti2 2.021581 1_545
O6 Ti0 2.028811 1_555
O8 Ti0 1.864678 1_555
O9 Ti2 1.963696 1_655
O9 Ti0 2.054051 1_665
O14 Ti3 1.794312 1_555
O15 Ti3 1.886897 1_555
O20 Ti3 1.871064 1_545
O21 Ti3 1.856483 1_655
O22 Ti4 1.995247 1_555
O23 Ti4 1.966196 1_445
O24 Ti4 1.945131 1_555
O28 Ti4 1.925813 1_455
O29 Ti1 1.898661 1_455
O30 Ti1 1.936820 1_555
O30 Ti4 2.118276 1_555
O31 Ti4 2.005170 1_455
O31 Ti1 2.036936 1_455
