# generated using pymatgen
data_Li3FePCO7
_symmetry_space_group_name_H-M   'P 1'
_cell_length_a   6.44485400
_cell_length_b   8.55555900
_cell_length_c   9.78586535
_cell_angle_alpha   85.04269358
_cell_angle_beta   90.00000000
_cell_angle_gamma   90.00000000
_symmetry_Int_Tables_number   1
_chemical_formula_structural   Li3FePCO7
_chemical_formula_sum   'Li12 Fe4 P4 C4 O28'
_cell_volume   537.56765117
_cell_formula_units_Z   4
loop_
 _symmetry_equiv_pos_site_id
 _symmetry_equiv_pos_as_xyz
  1  'x, y, z'
loop_
 _atom_site_type_symbol
 _atom_site_label
 _atom_site_symmetry_multiplicity
 _atom_site_fract_x
 _atom_site_fract_y
 _atom_site_fract_z
 _atom_site_occupancy
  Li  Li0  1  0.75093000  0.89888100  0.36487700  1
  Li  Li1  1  0.74907000  0.89888100  0.86487700  1
  Li  Li2  1  0.51318700  0.71668700  0.63237700  1
  Li  Li3  1  0.98681300  0.71668700  0.13237600  1
  Li  Li4  1  0.24638700  0.64873700  0.35931800  1
  Li  Li5  1  0.25361300  0.64873700  0.85931800  1
  Li  Li6  1  0.75361300  0.35126300  0.64068200  1
  Li  Li7  1  0.74638700  0.35126300  0.14068200  1
  Li  Li8  1  0.48681300  0.28331300  0.36762300  1
  Li  Li9  1  0.01318700  0.28331300  0.86762300  1
  Li  Li10  1  0.24907000  0.10111900  0.63512300  1
  Li  Li11  1  0.25093000  0.10111900  0.13512300  1
  Fe  Fe0  1  0.00108600  0.73173000  0.62096500  1
  Fe  Fe1  1  0.49891400  0.73173000  0.12096500  1
  Fe  Fe2  1  0.99891400  0.26827000  0.37903500  1
  Fe  Fe3  1  0.50108600  0.26827000  0.87903500  1
  P  P0  1  0.75112900  0.59155800  0.38992000  1
  P  P1  1  0.74887100  0.59155800  0.88992000  1
  P  P2  1  0.24887100  0.40844200  0.61008000  1
  P  P3  1  0.25112900  0.40844200  0.11008000  1
  C  C0  1  0.24380400  0.95898300  0.39898800  1
  C  C1  1  0.25619600  0.95898300  0.89898800  1
  C  C2  1  0.75619600  0.04101700  0.60101200  1
  C  C3  1  0.74380400  0.04101700  0.10101200  1
  O  O0  1  0.25729500  0.92870500  0.27357300  1
  O  O1  1  0.75645100  0.89418900  0.56831800  1
  O  O2  1  0.24270500  0.92870500  0.77357300  1
  O  O3  1  0.23510900  0.84759000  0.49821100  1
  O  O4  1  0.74354900  0.89418900  0.06831800  1
  O  O5  1  0.26489100  0.84759000  0.99821100  1
  O  O6  1  0.94121000  0.69093100  0.33967400  1
  O  O7  1  0.55948100  0.68833900  0.33175100  1
  O  O8  1  0.94051900  0.68833900  0.83175100  1
  O  O9  1  0.55879000  0.69093100  0.83967400  1
  O  O10  1  0.25257800  0.57607300  0.65910100  1
  O  O11  1  0.74806700  0.57846300  0.55021800  1
  O  O12  1  0.24742200  0.57607300  0.15910100  1
  O  O13  1  0.75193300  0.57846300  0.05021800  1
  O  O14  1  0.25193300  0.42153700  0.44978200  1
  O  O15  1  0.74742200  0.42392700  0.34089900  1
  O  O16  1  0.24806700  0.42153700  0.94978200  1
  O  O17  1  0.75257800  0.42392700  0.84089900  1
  O  O18  1  0.05879000  0.30906900  0.66032600  1
  O  O19  1  0.44051900  0.31166100  0.66824900  1
  O  O20  1  0.44121000  0.30906900  0.16032600  1
  O  O21  1  0.05948100  0.31166100  0.16824900  1
  O  O22  1  0.76489100  0.15241000  0.50178900  1
  O  O23  1  0.24354900  0.10581100  0.43168200  1
  O  O24  1  0.73510900  0.15241000  0.00178900  1
  O  O25  1  0.74270500  0.07129500  0.72642700  1
  O  O26  1  0.25645100  0.10581100  0.93168200  1
  O  O27  1  0.75729500  0.07129500  0.22642700  1
loop_
_geom_bond_atom_site_label_1
_geom_bond_atom_site_label_2
_geom_bond_distance
_geom_bond_site_symmetry_2
Li0 O27 1.915156 1_565
Li0 O1 1.988098 1_555
Li0 O6 2.192222 1_555
Li0 O7 2.230048 1_555
Li1 O25 1.915156 1_565
Li1 O4 1.988098 1_556
Li1 O9 2.192222 1_555
Li1 O8 2.230048 1_555
Li2 O9 2.042748 1_555
Li2 O10 2.069375 1_555
Li2 O11 2.121492 1_555
Li2 O1 2.234429 1_555
Li2 O3 2.436355 1_555
Li3 O6 2.042758 1_555
Li3 O12 2.069376 1_655
Li3 O13 2.121488 1_555
Li3 O4 2.234427 1_555
Li3 O5 2.436350 1_654
Li4 O6 2.005907 1_455
Li4 O7 2.059969 1_555
Li4 O14 2.065436 1_555
Li4 O12 2.106155 1_555
Li4 O3 2.268642 1_555
Li4 O0 2.469622 1_555
Li5 O9 2.005907 1_555
Li5 O8 2.059969 1_455
Li5 O16 2.065436 1_555
Li5 O10 2.106155 1_555
Li5 O5 2.268642 1_555
Li5 O2 2.469622 1_555
Li6 O18 2.005907 1_655
Li6 O19 2.059969 1_555
Li6 O11 2.065436 1_555
Li6 O17 2.106155 1_555
Li6 O22 2.268642 1_555
Li6 O25 2.469622 1_555
Li7 O20 2.005907 1_555
Li7 O21 2.059969 1_655
Li7 O13 2.065436 1_555
Li7 O15 2.106155 1_555
Li7 O24 2.268642 1_555
Li7 O27 2.469622 1_555
Li8 O20 2.042748 1_555
Li8 O15 2.069375 1_555
Li8 O14 2.121492 1_555
Li8 O23 2.234429 1_555
Li8 O22 2.436355 1_555
Li9 O18 2.042748 1_555
Li9 O17 2.069375 1_455
Li9 O16 2.121492 1_555
Li9 O26 2.234429 1_555
Li9 O24 2.436355 1_456
Li10 O2 1.915156 1_545
Li10 O23 1.988098 1_555
Li10 O18 2.192222 1_555
Li10 O19 2.230048 1_555
Li11 O0 1.915156 1_545
Li11 O26 1.988098 1_554
Li11 O20 2.192222 1_555
Li11 O21 2.230048 1_555
Fe0 O8 2.100636 1_455
Fe0 O10 2.110445 1_555
Fe0 O3 2.120045 1_555
Fe0 O1 2.135264 1_455
Fe0 O11 2.239366 1_455
Fe1 O7 2.100636 1_555
Fe1 O12 2.110445 1_555
Fe1 O5 2.120045 1_554
Fe1 O4 2.135264 1_555
Fe1 O13 2.239366 1_555
Fe2 O21 2.100636 1_655
Fe2 O15 2.110445 1_555
Fe2 O22 2.120045 1_555
Fe2 O23 2.135264 1_655
Fe2 O14 2.239366 1_655
Fe3 O19 2.100636 1_555
Fe3 O17 2.110445 1_555
Fe3 O24 2.120045 1_556
Fe3 O26 2.135264 1_555
Fe3 O16 2.239366 1_555
C0 O0 1.279008 1_555
C0 O3 1.301646 1_555
C0 O23 1.322819 1_565
C1 O2 1.279008 1_555
C1 O5 1.301646 1_555
C1 O26 1.322819 1_565
C2 O25 1.279008 1_555
C2 O22 1.301646 1_555
C2 O1 1.322819 1_545
C3 O27 1.279008 1_555
C3 O24 1.301646 1_555
C3 O4 1.322819 1_545
O6 P0 1.546958 1_555
O7 P0 1.566447 1_555
O8 P1 1.566447 1_555
O9 P1 1.546958 1_555
O10 P2 1.551278 1_555
O11 P0 1.563088 1_555
O12 P3 1.551278 1_555
O13 P1 1.563088 1_554
O14 P2 1.563088 1_555
O15 P0 1.551278 1_555
O16 P3 1.563088 1_556
O17 P1 1.551278 1_555
O18 P2 1.546958 1_555
O19 P2 1.566447 1_555
O20 P3 1.546958 1_555
O21 P3 1.566447 1_555
