# generated using pymatgen
data_Li2Si2NiO6
_symmetry_space_group_name_H-M   'P 1'
_cell_length_a   5.08886999
_cell_length_b   10.52613472
_cell_length_c   10.17780256
_cell_angle_alpha   103.90337413
_cell_angle_beta   89.61891878
_cell_angle_gamma   76.11412152
_symmetry_Int_Tables_number   1
_chemical_formula_structural   Li2Si2NiO6
_chemical_formula_sum   'Li8 Si8 Ni4 O24'
_cell_volume   512.54892340
_cell_formula_units_Z   4
loop_
 _symmetry_equiv_pos_site_id
 _symmetry_equiv_pos_as_xyz
  1  'x, y, z'
loop_
 _atom_site_type_symbol
 _atom_site_label
 _atom_site_symmetry_multiplicity
 _atom_site_fract_x
 _atom_site_fract_y
 _atom_site_fract_z
 _atom_site_occupancy
  Li  Li0  1  0.53898000  0.83736200  0.45190000  1
  Li  Li1  1  0.53843200  0.83663200  0.95208700  1
  Li  Li2  1  0.12504600  0.66513200  0.40896200  1
  Li  Li3  1  0.12416500  0.66457200  0.90895800  1
  Li  Li4  1  0.81803500  0.33654000  0.06258400  1
  Li  Li5  1  0.81745700  0.33742400  0.56197600  1
  Li  Li6  1  0.90419900  0.16493700  0.26940400  1
  Li  Li7  1  0.90419100  0.16455500  0.76929700  1
  Si  Si0  1  0.17480600  0.83563700  0.19665400  1
  Si  Si1  1  0.17581700  0.83588400  0.69693500  1
  Si  Si2  1  0.75991000  0.66530300  0.15398100  1
  Si  Si3  1  0.76060200  0.66636000  0.65458700  1
  Si  Si4  1  0.30834300  0.33621400  0.38020600  1
  Si  Si5  1  0.30871700  0.33561600  0.88073600  1
  Si  Si6  1  0.39382200  0.16567700  0.08810600  1
  Si  Si7  1  0.39335600  0.16646100  0.58780900  1
  Ni  Ni0  1  0.72741200  0.50010200  0.86361300  1
  Ni  Ni1  1  0.97752800  0.00090200  0.98900500  1
  Ni  Ni2  1  0.72768600  0.50141700  0.36399800  1
  Ni  Ni3  1  0.97801400  0.00112300  0.48886300  1
  O  O0  1  0.04605500  0.98395900  0.29449500  1
  O  O1  1  0.04481200  0.98396200  0.79467600  1
  O  O2  1  0.77959300  0.51704200  0.17777400  1
  O  O3  1  0.77733800  0.51830100  0.67818900  1
  O  O4  1  0.35613600  0.48420800  0.38885800  1
  O  O5  1  0.35519000  0.48404800  0.88994700  1
  O  O6  1  0.58913200  0.01736600  0.02315000  1
  O  O7  1  0.58910400  0.01842900  0.52232300  1
  O  O8  1  0.18206700  0.83057900  0.03486500  1
  O  O9  1  0.18351100  0.83094300  0.53518900  1
  O  O10  1  0.76173500  0.67012600  0.99463600  1
  O  O11  1  0.76350000  0.67164900  0.49542600  1
  O  O12  1  0.98960300  0.33129700  0.38131200  1
  O  O13  1  0.99066600  0.32995000  0.88194700  1
  O  O14  1  0.07020200  0.17098200  0.09191100  1
  O  O15  1  0.06969100  0.17137800  0.59141600  1
  O  O16  1  0.01284000  0.72419500  0.22880500  1
  O  O17  1  0.01537000  0.72383200  0.72897000  1
  O  O18  1  0.48662500  0.77674700  0.24205300  1
  O  O19  1  0.48800200  0.77838100  0.74249400  1
  O  O20  1  0.48460200  0.22383300  0.24419000  1
  O  O21  1  0.48447700  0.22416500  0.74392600  1
  O  O22  1  0.45664900  0.27872800  0.50768500  1
  O  O23  1  0.45840200  0.27737000  0.00749800  1
loop_
_geom_bond_atom_site_label_1
_geom_bond_atom_site_label_2
_geom_bond_distance
_geom_bond_site_symmetry_2
Li0 O7 1.946963 1_565
Li0 O11 1.991437 1_555
Li0 O9 2.015242 1_555
Li0 O18 2.115165 1_555
Li1 O6 1.945700 1_566
Li1 O10 1.991490 1_555
Li1 O8 2.015827 1_556
Li1 O19 2.108691 1_555
Li2 O4 1.945829 1_555
Li2 O9 1.990479 1_555
Li2 O11 2.013228 1_455
Li2 O16 2.113298 1_555
Li3 O5 1.943824 1_555
Li3 O8 1.989585 1_556
Li3 O10 2.016889 1_455
Li3 O17 2.109096 1_555
Li4 O2 1.941848 1_555
Li4 O14 1.988584 1_655
Li4 O13 2.011115 1_554
Li4 O23 2.108212 1_555
Li5 O3 1.947727 1_555
Li5 O15 1.993046 1_655
Li5 O12 2.011740 1_555
Li5 O22 2.110039 1_555
Li6 O0 1.947186 1_645
Li6 O12 1.991478 1_555
Li6 O14 2.010429 1_655
Li6 O20 2.111388 1_555
Li7 O1 1.943684 1_645
Li7 O13 1.988553 1_555
Li7 O15 2.015786 1_655
Li7 O21 2.112883 1_555
Ni0 O3 1.963040 1_555
Ni0 O5 1.963924 1_555
Ni0 O10 2.004499 1_555
Ni0 O13 2.012371 1_555
Ni1 O1 1.962930 1_645
Ni1 O6 1.963379 1_556
Ni1 O8 2.007106 1_646
Ni1 O14 2.008782 1_656
Ni2 O4 1.962625 1_555
Ni2 O2 1.962952 1_555
Ni2 O12 2.005836 1_555
Ni2 O11 2.010343 1_555
Ni3 O7 1.963217 1_555
Ni3 O0 1.963432 1_645
Ni3 O15 2.006903 1_655
Ni3 O9 2.009504 1_645
O0 Si0 1.616053 1_555
O1 Si1 1.615805 1_555
O2 Si2 1.615891 1_555
O3 Si3 1.615649 1_555
O4 Si4 1.615511 1_555
O5 Si5 1.616514 1_555
O6 Si6 1.616355 1_555
O7 Si7 1.616037 1_555
O8 Si0 1.634562 1_555
O9 Si1 1.634409 1_555
O10 Si2 1.634758 1_556
O11 Si3 1.634270 1_555
O12 Si4 1.635270 1_655
O13 Si5 1.633933 1_655
O14 Si6 1.634239 1_555
O15 Si7 1.635327 1_555
O16 Si2 1.670351 1_455
O16 Si0 1.675538 1_555
O17 Si3 1.670146 1_455
O17 Si1 1.675599 1_555
O18 Si0 1.670625 1_555
O18 Si2 1.675926 1_555
O19 Si1 1.669844 1_555
O19 Si3 1.675306 1_555
O20 Si6 1.670310 1_555
O20 Si4 1.675563 1_555
O21 Si7 1.670278 1_555
O21 Si5 1.676272 1_555
O22 Si4 1.670406 1_555
O22 Si7 1.675584 1_555
O23 Si5 1.670234 1_554
O23 Si6 1.675931 1_555
