# generated using pymatgen
data_CaPbI4
_symmetry_space_group_name_H-M   'P 1'
_cell_length_a   14.60372100
_cell_length_b   8.04029900
_cell_length_c   9.45473154
_cell_angle_alpha   89.15322198
_cell_angle_beta   90.00000000
_cell_angle_gamma   90.00000000
_symmetry_Int_Tables_number   1
_chemical_formula_structural   CaPbI4
_chemical_formula_sum   'Ca4 Pb4 I16'
_cell_volume   1110.03710791
_cell_formula_units_Z   4
loop_
 _symmetry_equiv_pos_site_id
 _symmetry_equiv_pos_as_xyz
  1  'x, y, z'
loop_
 _atom_site_type_symbol
 _atom_site_label
 _atom_site_symmetry_multiplicity
 _atom_site_fract_x
 _atom_site_fract_y
 _atom_site_fract_z
 _atom_site_occupancy
  Ca  Ca0  1  0.12711000  0.59694500  0.86426500  1
  Ca  Ca1  1  0.37289000  0.59694500  0.36426500  1
  Ca  Ca2  1  0.62711000  0.40305500  0.63573500  1
  Ca  Ca3  1  0.87289000  0.40305500  0.13573500  1
  Pb  Pb0  1  0.86343000  0.89110100  0.85085900  1
  Pb  Pb1  1  0.63657000  0.89110100  0.35085900  1
  Pb  Pb2  1  0.36343000  0.10889900  0.64914100  1
  Pb  Pb3  1  0.13657000  0.10889900  0.14914100  1
  I  I0  1  0.25338800  0.90652700  0.89276500  1
  I  I1  1  0.50396900  0.73891400  0.60599900  1
  I  I2  1  0.74155800  0.56957500  0.89296600  1
  I  I3  1  0.24661200  0.90652700  0.39276500  1
  I  I4  1  0.99766900  0.73793500  0.63769600  1
  I  I5  1  0.99603100  0.73891400  0.10599900  1
  I  I6  1  0.75844200  0.56957500  0.39296600  1
  I  I7  1  0.50233100  0.73793500  0.13769600  1
  I  I8  1  0.49766900  0.26206500  0.86230400  1
  I  I9  1  0.24155800  0.43042500  0.60703400  1
  I  I10  1  0.00396900  0.26108600  0.89400100  1
  I  I11  1  0.00233100  0.26206500  0.36230400  1
  I  I12  1  0.75338800  0.09347300  0.60723500  1
  I  I13  1  0.25844200  0.43042500  0.10703400  1
  I  I14  1  0.49603100  0.26108600  0.39400100  1
  I  I15  1  0.74661200  0.09347300  0.10723500  1
loop_
_geom_bond_atom_site_label_1
_geom_bond_atom_site_label_2
_geom_bond_distance
_geom_bond_site_symmetry_2
Ca0 I4 3.061926 1_455
Ca0 I0 3.112719 1_555
Ca0 I5 3.204378 1_456
Ca0 I10 3.253113 1_555
Ca0 I9 3.255327 1_555
Ca0 I13 3.263234 1_556
Ca1 I7 3.061926 1_555
Ca1 I3 3.112719 1_555
Ca1 I1 3.204378 1_555
Ca1 I14 3.253113 1_555
Ca1 I13 3.255327 1_555
Ca1 I9 3.263234 1_555
Ca2 I8 3.061926 1_555
Ca2 I12 3.112719 1_555
Ca2 I14 3.204378 1_555
Ca2 I1 3.253113 1_555
Ca2 I2 3.255327 1_555
Ca2 I6 3.263234 1_555
Ca3 I11 3.061926 1_655
Ca3 I15 3.112719 1_555
Ca3 I10 3.204378 1_654
Ca3 I5 3.253113 1_555
Ca3 I6 3.255327 1_555
Ca3 I2 3.263234 1_554
I0 Pb2 3.228769 1_565
I0 Pb3 3.398544 1_566
I1 Pb1 3.313462 1_555
I2 Pb0 3.158921 1_555
I3 Pb3 3.228769 1_565
I3 Pb2 3.398544 1_565
I4 Pb0 3.081381 1_555
I5 Pb0 3.313462 1_554
I6 Pb1 3.158921 1_555
I7 Pb1 3.081381 1_555
I8 Pb2 3.081381 1_555
I9 Pb2 3.158921 1_555
I10 Pb3 3.313462 1_556
I11 Pb3 3.081381 1_555
I12 Pb0 3.228769 1_545
I12 Pb1 3.398544 1_545
I13 Pb3 3.158921 1_555
I14 Pb2 3.313462 1_555
I15 Pb1 3.228769 1_545
I15 Pb0 3.398544 1_544
