# generated using pymatgen
data_Li2Co3SnO8
_symmetry_space_group_name_H-M   'P 1'
_cell_length_a   5.79759250
_cell_length_b   5.79759250
_cell_length_c   5.79759249
_cell_angle_alpha   60.47654981
_cell_angle_beta   60.47654981
_cell_angle_gamma   60.47654318
_symmetry_Int_Tables_number   1
_chemical_formula_structural   Li2Co3SnO8
_chemical_formula_sum   'Li2 Co3 Sn1 O8'
_cell_volume   139.27753753
_cell_formula_units_Z   1
loop_
 _symmetry_equiv_pos_site_id
 _symmetry_equiv_pos_as_xyz
  1  'x, y, z'
loop_
 _atom_site_type_symbol
 _atom_site_label
 _atom_site_symmetry_multiplicity
 _atom_site_fract_x
 _atom_site_fract_y
 _atom_site_fract_z
 _atom_site_occupancy
  Li  Li0  1  0.87961000  0.87961000  0.87961000  1
  Li  Li1  1  0.50474200  0.50474200  0.50474200  1
  Co  Co0  1  0.50269000  0.98550900  0.50269000  1
  Co  Co1  1  0.98550900  0.50269000  0.50269000  1
  Co  Co2  1  0.50269000  0.50269000  0.98550900  1
  Sn  Sn0  1  0.11254000  0.11254000  0.11254000  1
  O  O0  1  0.73473100  0.73473100  0.73473100  1
  O  O1  1  0.75294900  0.75294900  0.28961300  1
  O  O2  1  0.28961300  0.75294900  0.75294900  1
  O  O3  1  0.75294900  0.28961300  0.75294900  1
  O  O4  1  0.26144500  0.70070500  0.26144500  1
  O  O5  1  0.70070500  0.26144500  0.26144500  1
  O  O6  1  0.26144500  0.26144500  0.70070500  1
  O  O7  1  0.25838000  0.25838000  0.25838000  1
loop_
_geom_bond_atom_site_label_1
_geom_bond_atom_site_label_2
_geom_bond_distance
_geom_bond_site_symmetry_2
Li0 O3 1.954372 1_565
Li0 O2 1.954372 1_655
Li0 O1 1.954372 1_556
Li0 O0 2.050006 1_555
Li1 O5 2.017942 1_555
Li1 O4 2.017942 1_555
Li1 O6 2.017942 1_555
Li1 O2 2.049431 1_555
Li1 O3 2.049431 1_555
Li1 O1 2.049431 1_555
Co0 O1 1.842859 1_555
Co0 O2 1.842859 1_555
Co0 O0 1.913559 1_555
Co0 O6 1.963604 1_565
Co0 O5 1.963605 1_565
Co0 O7 2.018811 1_565
Co1 O1 1.842859 1_555
Co1 O3 1.842859 1_555
Co1 O0 1.913559 1_555
Co1 O6 1.963604 1_655
Co1 O4 1.963605 1_655
Co1 O7 2.018811 1_655
Co2 O2 1.842859 1_555
Co2 O3 1.842859 1_555
Co2 O0 1.913559 1_555
Co2 O4 1.963604 1_556
Co2 O5 1.963604 1_556
Co2 O7 2.018811 1_556
O4 Sn0 1.965448 1_565
O5 Sn0 1.965448 1_655
O6 Sn0 1.965448 1_556
O7 Sn0 2.063604 1_555
