# generated using pymatgen
data_CaMgB6H12O17
_symmetry_space_group_name_H-M   'P 1'
_cell_length_a   6.70067800
_cell_length_b   8.33751900
_cell_length_c   11.80535605
_cell_angle_alpha   77.88814540
_cell_angle_beta   90.00000000
_cell_angle_gamma   90.00000000
_symmetry_Int_Tables_number   1
_chemical_formula_structural   CaMgB6H12O17
_chemical_formula_sum   'Ca2 Mg2 B12 H24 O34'
_cell_volume   644.84893846
_cell_formula_units_Z   2
loop_
 _symmetry_equiv_pos_site_id
 _symmetry_equiv_pos_as_xyz
  1  'x, y, z'
loop_
 _atom_site_type_symbol
 _atom_site_label
 _atom_site_symmetry_multiplicity
 _atom_site_fract_x
 _atom_site_fract_y
 _atom_site_fract_z
 _atom_site_occupancy
  Ca  Ca0  1  0.47911000  0.25000000  0.50000000  1
  Ca  Ca1  1  0.52089000  0.75000000  0.50000000  1
  Mg  Mg0  1  0.00000000  0.50000000  0.00000000  1
  Mg  Mg1  1  0.00000000  0.00000000  0.00000000  1
  B  B0  1  0.50622600  0.15506700  0.23139200  1
  B  B1  1  0.28901500  0.40627400  0.22422200  1
  B  B2  1  0.49377400  0.65506700  0.23139200  1
  B  B3  1  0.71098500  0.90627400  0.22422200  1
  B  B4  1  0.76478700  0.04915200  0.38418800  1
  B  B5  1  0.23521300  0.54915200  0.38418800  1
  B  B6  1  0.76478700  0.45084800  0.61581200  1
  B  B7  1  0.23521300  0.95084800  0.61581200  1
  B  B8  1  0.28901500  0.09372600  0.77577800  1
  B  B9  1  0.50622600  0.34493300  0.76860800  1
  B  B10  1  0.71098500  0.59372600  0.77577800  1
  B  B11  1  0.49377400  0.84493300  0.76860800  1
  H  H0  1  0.65098900  0.09067700  0.02645300  1
  H  H1  1  0.21017400  0.23943800  0.06958200  1
  H  H2  1  0.34901100  0.59067700  0.02645300  1
  H  H3  1  0.62933400  0.45178700  0.09914300  1
  H  H4  1  0.78982600  0.73943800  0.06958200  1
  H  H5  1  0.97187400  0.02463000  0.22079600  1
  H  H6  1  0.37066600  0.95178700  0.09914300  1
  H  H7  1  0.02812600  0.52463000  0.22079600  1
  H  H8  1  0.01213300  0.20911900  0.34981500  1
  H  H9  1  0.16334100  0.00385400  0.44034000  1
  H  H10  1  0.98786700  0.70911900  0.34981500  1
  H  H11  1  0.83665900  0.50385400  0.44034000  1
  H  H12  1  0.16334100  0.49614600  0.55966000  1
  H  H13  1  0.01213300  0.29088100  0.65018500  1
  H  H14  1  0.83665900  0.99614600  0.55966000  1
  H  H15  1  0.98786700  0.79088100  0.65018500  1
  H  H16  1  0.97187400  0.47537000  0.77920400  1
  H  H17  1  0.62933400  0.04821300  0.90085700  1
  H  H18  1  0.02812600  0.97537000  0.77920400  1
  H  H19  1  0.21017400  0.26056200  0.93041800  1
  H  H20  1  0.37066600  0.54821300  0.90085700  1
  H  H21  1  0.65098900  0.40932300  0.97354700  1
  H  H22  1  0.78982600  0.76056200  0.93041800  1
  H  H23  1  0.34901100  0.90932300  0.97354700  1
  O  O0  1  0.12000100  0.25000000  0.00000000  1
  O  O1  1  0.72291100  0.40861300  0.04671600  1
  O  O2  1  0.87999900  0.75000000  0.00000000  1
  O  O3  1  0.54830900  0.02862100  0.17551800  1
  O  O4  1  0.27708900  0.90861300  0.04671600  1
  O  O5  1  0.34326600  0.25166600  0.19084800  1
  O  O6  1  0.09563200  0.46385000  0.16772800  1
  O  O7  1  0.45169100  0.52862100  0.17551800  1
  O  O8  1  0.65673400  0.75166600  0.19084800  1
  O  O9  1  0.90436800  0.96385000  0.16772800  1
  O  O10  1  0.61982400  0.17804500  0.32414700  1
  O  O11  1  0.97627200  0.09478100  0.35484800  1
  O  O12  1  0.27169200  0.39206200  0.34904500  1
  O  O13  1  0.38017600  0.67804500  0.32414700  1
  O  O14  1  0.02372800  0.59478100  0.35484800  1
  O  O15  1  0.72830800  0.89206200  0.34904500  1
  O  O16  1  0.71851200  0.03117900  0.50851100  1
  O  O17  1  0.71851200  0.46882100  0.49148900  1
  O  O18  1  0.28148800  0.53117900  0.50851100  1
  O  O19  1  0.28148800  0.96882100  0.49148900  1
  O  O20  1  0.27169200  0.10793800  0.65095500  1
  O  O21  1  0.97627200  0.40521900  0.64515200  1
  O  O22  1  0.61982400  0.32195500  0.67585300  1
  O  O23  1  0.72830800  0.60793800  0.65095500  1
  O  O24  1  0.02372800  0.90521900  0.64515200  1
  O  O25  1  0.38017600  0.82195500  0.67585300  1
  O  O26  1  0.09563200  0.03615000  0.83227200  1
  O  O27  1  0.34326600  0.24833400  0.80915200  1
  O  O28  1  0.54830900  0.47137900  0.82448200  1
  O  O29  1  0.90436800  0.53615000  0.83227200  1
  O  O30  1  0.65673400  0.74833400  0.80915200  1
  O  O31  1  0.72291100  0.09138700  0.95328400  1
  O  O32  1  0.45169100  0.97137900  0.82448200  1
  O  O33  1  0.27708900  0.59138700  0.95328400  1
loop_
_geom_bond_atom_site_label_1
_geom_bond_atom_site_label_2
_geom_bond_distance
_geom_bond_site_symmetry_2
Ca0 O20 2.371624 1_555
Ca0 O12 2.371624 1_555
Ca0 O17 2.415577 1_555
Ca0 O16 2.415577 1_555
Ca0 O10 2.466046 1_555
Ca0 O22 2.466046 1_555
Ca0 O19 2.712629 1_545
Ca0 O18 2.712629 1_555
Ca1 O23 2.371624 1_555
Ca1 O15 2.371624 1_555
Ca1 O19 2.415577 1_555
Ca1 O18 2.415577 1_555
Ca1 O13 2.466046 1_555
Ca1 O25 2.466046 1_555
Ca1 O17 2.712629 1_555
Ca1 O16 2.712629 1_565
Mg0 O33 2.038540 1_554
Mg0 O1 2.038540 1_455
Mg0 O29 2.042492 1_454
Mg0 O6 2.042492 1_555
Mg0 O0 2.234099 1_555
Mg0 O2 2.234099 1_455
Mg1 O4 2.038540 1_545
Mg1 O31 2.038540 1_454
Mg1 O9 2.042492 1_445
Mg1 O26 2.042492 1_554
Mg1 O0 2.234099 1_555
Mg1 O2 2.234099 1_445
B0 O10 1.379556 1_555
B0 O5 1.381422 1_555
B0 O3 1.384866 1_555
B1 O12 1.457971 1_555
B1 O5 1.470423 1_555
B1 O6 1.489959 1_555
B1 O7 1.520919 1_555
B2 O13 1.379556 1_555
B2 O8 1.381422 1_555
B2 O7 1.384866 1_555
B3 O15 1.457971 1_555
B3 O8 1.470423 1_555
B3 O9 1.489959 1_555
B3 O3 1.520919 1_565
B4 O15 1.474895 1_545
B4 O16 1.476613 1_555
B4 O11 1.489146 1_555
B4 O10 1.510347 1_555
B5 O12 1.474895 1_555
B5 O18 1.476613 1_555
B5 O14 1.489146 1_555
B5 O13 1.510347 1_555
B6 O23 1.474895 1_555
B6 O17 1.476613 1_555
B6 O21 1.489146 1_555
B6 O22 1.510347 1_555
B7 O20 1.474895 1_565
B7 O19 1.476613 1_555
B7 O24 1.489146 1_555
B7 O25 1.510347 1_555
B8 O20 1.457971 1_555
B8 O27 1.470423 1_555
B8 O26 1.489959 1_555
B8 O32 1.520919 1_545
B9 O22 1.379556 1_555
B9 O27 1.381422 1_555
B9 O28 1.384866 1_555
B10 O23 1.457971 1_555
B10 O30 1.470423 1_555
B10 O29 1.489959 1_555
B10 O28 1.520919 1_555
B11 O25 1.379556 1_555
B11 O30 1.381422 1_555
B11 O32 1.384866 1_555
H0 O31 0.988063 1_554
H1 O0 1.008586 1_555
H2 O33 0.988063 1_554
H3 O1 0.999646 1_555
H4 O2 1.008586 1_555
H5 O9 0.993539 1_545
H6 O4 0.999646 1_555
H7 O6 0.993539 1_555
H8 O11 0.972766 1_455
H9 O19 1.001324 1_545
H10 O14 0.972766 1_655
H11 O17 1.001324 1_555
H12 O18 1.001324 1_555
H13 O21 0.972766 1_455
H14 O16 1.001324 1_565
H15 O24 0.972766 1_655
H16 O29 0.993539 1_555
H17 O31 0.999646 1_555
H18 O26 0.993539 1_565
H19 O0 1.008586 1_556
H20 O33 0.999646 1_555
H21 O1 0.988063 1_556
H22 O2 1.008586 1_556
H23 O4 0.988063 1_556
