# generated using pymatgen
data_Li14Mn5F24
_symmetry_space_group_name_H-M   'P 1'
_cell_length_a   6.06882500
_cell_length_b   10.15400800
_cell_length_c   15.26753500
_cell_angle_alpha   90.00000000
_cell_angle_beta   90.00000000
_cell_angle_gamma   90.00000000
_symmetry_Int_Tables_number   1
_chemical_formula_structural   Li14Mn5F24
_chemical_formula_sum   'Li28 Mn10 F48'
_cell_volume   940.82974592
_cell_formula_units_Z   2
loop_
 _symmetry_equiv_pos_site_id
 _symmetry_equiv_pos_as_xyz
  1  'x, y, z'
loop_
 _atom_site_type_symbol
 _atom_site_label
 _atom_site_symmetry_multiplicity
 _atom_site_fract_x
 _atom_site_fract_y
 _atom_site_fract_z
 _atom_site_occupancy
  Li  Li0  1  0.50000000  0.00000000  0.00000000  1
  Li  Li1  1  0.50000000  0.50000000  0.00000000  1
  Li  Li2  1  0.74950100  0.74785500  0.01075300  1
  Li  Li3  1  0.25049900  0.74785500  0.01075300  1
  Li  Li4  1  0.74319500  0.91986000  0.16541000  1
  Li  Li5  1  0.25680500  0.91986000  0.16541000  1
  Li  Li6  1  0.50000000  0.64475900  0.16720600  1
  Li  Li7  1  0.00000000  0.17930400  0.17891200  1
  Li  Li8  1  0.00000000  0.67930400  0.32108800  1
  Li  Li9  1  0.50000000  0.14475900  0.33279400  1
  Li  Li10  1  0.74319500  0.41986000  0.33459000  1
  Li  Li11  1  0.25680500  0.41986000  0.33459000  1
  Li  Li12  1  0.74950100  0.24785500  0.48924700  1
  Li  Li13  1  0.25049900  0.24785500  0.48924700  1
  Li  Li14  1  0.50000000  0.00000000  0.50000000  1
  Li  Li15  1  0.50000000  0.50000000  0.50000000  1
  Li  Li16  1  0.74950100  0.75214500  0.51075300  1
  Li  Li17  1  0.25049900  0.75214500  0.51075300  1
  Li  Li18  1  0.74319500  0.58014000  0.66541000  1
  Li  Li19  1  0.25680500  0.58014000  0.66541000  1
  Li  Li20  1  0.50000000  0.85524100  0.66720600  1
  Li  Li21  1  0.00000000  0.32069600  0.67891200  1
  Li  Li22  1  0.00000000  0.82069600  0.82108800  1
  Li  Li23  1  0.50000000  0.35524100  0.83279400  1
  Li  Li24  1  0.74319500  0.08014000  0.83459000  1
  Li  Li25  1  0.25680500  0.08014000  0.83459000  1
  Li  Li26  1  0.74950100  0.25214500  0.98924700  1
  Li  Li27  1  0.25049900  0.25214500  0.98924700  1
  Mn  Mn0  1  0.00000000  0.00000000  0.00000000  1
  Mn  Mn1  1  0.00000000  0.50785100  0.13797200  1
  Mn  Mn2  1  0.50000000  0.30284500  0.17824700  1
  Mn  Mn3  1  0.50000000  0.80284500  0.32175300  1
  Mn  Mn4  1  0.00000000  0.00785100  0.36202800  1
  Mn  Mn5  1  0.00000000  0.50000000  0.50000000  1
  Mn  Mn6  1  0.00000000  0.99214900  0.63797200  1
  Mn  Mn7  1  0.50000000  0.19715500  0.67824700  1
  Mn  Mn8  1  0.50000000  0.69715500  0.82175300  1
  Mn  Mn9  1  0.00000000  0.49214900  0.86202800  1
  F  F0  1  0.50000000  0.32922800  0.05146900  1
  F  F1  1  0.74739600  0.08507800  0.07807100  1
  F  F2  1  0.25260400  0.08507800  0.07807100  1
  F  F3  1  0.00000000  0.83064100  0.07921100  1
  F  F4  1  0.00000000  0.32146500  0.08484100  1
  F  F5  1  0.72609900  0.58439000  0.08401000  1
  F  F6  1  0.27390100  0.58439000  0.08401000  1
  F  F7  1  0.50000000  0.84205900  0.08826100  1
  F  F8  1  0.74994700  0.24497600  0.25596600  1
  F  F9  1  0.25005300  0.24497600  0.25596600  1
  F  F10  1  0.50000000  0.48297900  0.24526000  1
  F  F11  1  0.00000000  0.49986400  0.27102600  1
  F  F12  1  0.00000000  0.99986400  0.22897400  1
  F  F13  1  0.50000000  0.98297900  0.25474000  1
  F  F14  1  0.74994700  0.74497600  0.24403400  1
  F  F15  1  0.25005300  0.74497600  0.24403400  1
  F  F16  1  0.50000000  0.34205900  0.41173900  1
  F  F17  1  0.72609900  0.08439000  0.41599000  1
  F  F18  1  0.27390100  0.08439000  0.41599000  1
  F  F19  1  0.00000000  0.82146500  0.41515900  1
  F  F20  1  0.00000000  0.33064100  0.42078900  1
  F  F21  1  0.74739600  0.58507800  0.42192900  1
  F  F22  1  0.25260400  0.58507800  0.42192900  1
  F  F23  1  0.50000000  0.82922800  0.44853100  1
  F  F24  1  0.50000000  0.17077200  0.55146900  1
  F  F25  1  0.74739600  0.41492200  0.57807100  1
  F  F26  1  0.25260400  0.41492200  0.57807100  1
  F  F27  1  0.00000000  0.66935900  0.57921100  1
  F  F28  1  0.00000000  0.17853500  0.58484100  1
  F  F29  1  0.72609900  0.91561000  0.58401000  1
  F  F30  1  0.27390100  0.91561000  0.58401000  1
  F  F31  1  0.50000000  0.65794100  0.58826100  1
  F  F32  1  0.74994700  0.25502400  0.75596600  1
  F  F33  1  0.25005300  0.25502400  0.75596600  1
  F  F34  1  0.50000000  0.01702100  0.74526000  1
  F  F35  1  0.00000000  0.00013600  0.77102600  1
  F  F36  1  0.00000000  0.50013600  0.72897400  1
  F  F37  1  0.50000000  0.51702100  0.75474000  1
  F  F38  1  0.74994700  0.75502400  0.74403400  1
  F  F39  1  0.25005300  0.75502400  0.74403400  1
  F  F40  1  0.50000000  0.15794100  0.91173900  1
  F  F41  1  0.72609900  0.41561000  0.91599000  1
  F  F42  1  0.27390100  0.41561000  0.91599000  1
  F  F43  1  0.00000000  0.67853500  0.91515900  1
  F  F44  1  0.00000000  0.16935900  0.92078900  1
  F  F45  1  0.74739600  0.91492200  0.92192900  1
  F  F46  1  0.25260400  0.91492200  0.92192900  1
  F  F47  1  0.50000000  0.67077200  0.94853100  1
loop_
_geom_bond_atom_site_label_1
_geom_bond_atom_site_label_2
_geom_bond_distance
_geom_bond_site_symmetry_2
F0 Li1 1.903763 1_555
F0 Li26 1.951361 1_554
F0 Li27 1.951361 1_554
F0 Mn2 1.954038 1_555
F1 Li0 2.102678 1_555
F1 Mn0 2.125361 1_655
F1 Li4 2.143168 1_545
F1 Li26 2.171867 1_554
F1 Li7 2.374000 1_655
F2 Li0 2.102678 1_555
F2 Mn0 2.125361 1_555
F2 Li5 2.143168 1_545
F2 Li27 2.171867 1_554
F2 Li7 2.374000 1_555
F3 Li3 2.027350 1_555
F3 Li2 2.027350 1_455
F3 Mn0 2.102336 1_565
F3 Li5 2.231955 1_555
F3 Li4 2.231955 1_455
F4 Li7 2.036287 1_555
F4 Mn1 2.059081 1_555
F4 Li27 2.221857 1_554
F4 Li26 2.221857 1_454
F5 Li6 1.967731 1_555
F5 Li2 2.006521 1_555
F5 Mn1 2.011432 1_655
F5 Li1 2.064512 1_555
F6 Li6 1.967731 1_555
F6 Li3 2.006521 1_555
F6 Mn1 2.011432 1_555
F6 Li1 2.064512 1_555
F7 Li4 2.046895 1_555
F7 Li5 2.046895 1_555
F7 Li0 2.094706 1_565
F7 Li2 2.146637 1_555
F7 Li3 2.146637 1_555
F7 Li6 2.338010 1_555
F8 Mn2 2.013500 1_555
F8 Li7 2.032617 1_655
F8 Li10 2.143828 1_555
F8 Li9 2.170789 1_555
F9 Mn2 2.013500 1_555
F9 Li7 2.032617 1_555
F9 Li11 2.143828 1_555
F9 Li9 2.170789 1_555
F10 Li6 2.029444 1_555
F10 Mn2 2.095787 1_555
F10 Li10 2.109302 1_555
F10 Li11 2.109302 1_555
F11 Li8 1.975855 1_555
F11 Li11 2.007653 1_555
F11 Li10 2.007653 1_455
F11 Mn1 2.033025 1_555
F12 Li7 1.975855 1_565
F12 Li5 2.007653 1_555
F12 Li4 2.007653 1_455
F12 Mn4 2.033025 1_565
F13 Li9 2.029444 1_565
F13 Mn3 2.095787 1_555
F13 Li4 2.109302 1_555
F13 Li5 2.109302 1_555
F14 Mn3 2.013500 1_555
F14 Li8 2.032617 1_655
F14 Li4 2.143828 1_555
F14 Li6 2.170789 1_555
F15 Mn3 2.013500 1_555
F15 Li8 2.032617 1_555
F15 Li5 2.143828 1_555
F15 Li6 2.170789 1_555
F16 Li10 2.046895 1_555
F16 Li11 2.046895 1_555
F16 Li15 2.094706 1_555
F16 Li12 2.146637 1_555
F16 Li13 2.146637 1_555
F16 Li9 2.338010 1_555
F17 Li9 1.967731 1_555
F17 Li12 2.006521 1_555
F17 Mn4 2.011432 1_655
F17 Li14 2.064512 1_555
F18 Li9 1.967731 1_555
F18 Li13 2.006521 1_555
F18 Mn4 2.011432 1_555
F18 Li14 2.064512 1_555
F19 Li8 2.036287 1_555
F19 Mn4 2.059081 1_565
F19 Li17 2.221857 1_555
F19 Li16 2.221857 1_455
F20 Li13 2.027350 1_555
F20 Li12 2.027350 1_455
F20 Mn5 2.102336 1_555
F20 Li11 2.231955 1_555
F20 Li10 2.231955 1_455
F21 Li15 2.102678 1_555
F21 Mn5 2.125361 1_655
F21 Li10 2.143168 1_555
F21 Li16 2.171867 1_555
F21 Li8 2.374000 1_655
F22 Li15 2.102678 1_555
F22 Mn5 2.125361 1_555
F22 Li11 2.143168 1_555
F22 Li17 2.171867 1_555
F22 Li8 2.374000 1_555
F23 Li14 1.903763 1_565
F23 Li16 1.951361 1_555
F23 Li17 1.951361 1_555
F23 Mn3 1.954038 1_555
F24 Li14 1.903763 1_555
F24 Li12 1.951361 1_555
F24 Li13 1.951361 1_555
F24 Mn7 1.954038 1_555
F25 Li15 2.102678 1_555
F25 Mn5 2.125361 1_655
F25 Li18 2.143168 1_555
F25 Li12 2.171867 1_555
F25 Li21 2.374000 1_655
F26 Li15 2.102678 1_555
F26 Mn5 2.125361 1_555
F26 Li19 2.143168 1_555
F26 Li13 2.171867 1_555
F26 Li21 2.374000 1_555
F27 Li17 2.027350 1_555
F27 Li16 2.027350 1_455
F27 Mn5 2.102336 1_555
F27 Li19 2.231955 1_555
F27 Li18 2.231955 1_455
F28 Li21 2.036287 1_555
F28 Mn6 2.059081 1_545
F28 Li13 2.221857 1_555
F28 Li12 2.221857 1_455
F29 Li20 1.967731 1_555
F29 Li16 2.006521 1_555
F29 Mn6 2.011432 1_655
F29 Li14 2.064512 1_565
F30 Li20 1.967731 1_555
F30 Li17 2.006521 1_555
F30 Mn6 2.011432 1_555
F30 Li14 2.064512 1_565
F31 Li18 2.046895 1_555
F31 Li19 2.046895 1_555
F31 Li15 2.094706 1_555
F31 Li16 2.146637 1_555
F31 Li17 2.146637 1_555
F31 Li20 2.338010 1_555
F32 Mn7 2.013500 1_555
F32 Li21 2.032617 1_655
F32 Li24 2.143828 1_555
F32 Li23 2.170789 1_555
F33 Mn7 2.013500 1_555
F33 Li21 2.032617 1_555
F33 Li25 2.143828 1_555
F33 Li23 2.170789 1_555
F34 Li20 2.029444 1_545
F34 Mn7 2.095787 1_555
F34 Li24 2.109302 1_555
F34 Li25 2.109302 1_555
F35 Li22 1.975855 1_545
F35 Li25 2.007653 1_555
F35 Li24 2.007653 1_455
F35 Mn6 2.033025 1_545
F36 Li21 1.975855 1_555
F36 Li19 2.007653 1_555
F36 Li18 2.007653 1_455
F36 Mn9 2.033025 1_555
F37 Li23 2.029444 1_555
F37 Mn8 2.095787 1_555
F37 Li18 2.109302 1_555
F37 Li19 2.109302 1_555
F38 Mn8 2.013500 1_555
F38 Li22 2.032617 1_655
F38 Li18 2.143828 1_555
F38 Li20 2.170789 1_555
F39 Mn8 2.013500 1_555
F39 Li22 2.032617 1_555
F39 Li19 2.143828 1_555
F39 Li20 2.170789 1_555
F40 Li24 2.046895 1_555
F40 Li25 2.046895 1_555
F40 Li0 2.094706 1_556
F40 Li26 2.146637 1_555
F40 Li27 2.146637 1_555
F40 Li23 2.338010 1_555
F41 Li23 1.967731 1_555
F41 Li26 2.006521 1_555
F41 Mn9 2.011432 1_655
F41 Li1 2.064512 1_556
F42 Li23 1.967731 1_555
F42 Li27 2.006521 1_555
F42 Mn9 2.011432 1_555
F42 Li1 2.064512 1_556
F43 Li22 2.036287 1_555
F43 Mn9 2.059081 1_555
F43 Li3 2.221857 1_556
F43 Li2 2.221857 1_456
F44 Li27 2.027350 1_555
F44 Li26 2.027350 1_455
F44 Mn0 2.102336 1_556
F44 Li25 2.231955 1_555
F44 Li24 2.231955 1_455
F45 Li0 2.102678 1_566
F45 Mn0 2.125361 1_666
F45 Li24 2.143168 1_565
F45 Li2 2.171867 1_556
F45 Li22 2.374000 1_655
F46 Li0 2.102678 1_566
F46 Mn0 2.125361 1_566
F46 Li25 2.143168 1_565
F46 Li3 2.171867 1_556
F46 Li22 2.374000 1_555
F47 Li1 1.903763 1_556
F47 Li2 1.951361 1_556
F47 Li3 1.951361 1_556
F47 Mn8 1.954038 1_555
