# generated using pymatgen
data_Mn3OF5
_symmetry_space_group_name_H-M   'P 1'
_cell_length_a   4.84930400
_cell_length_b   4.86634700
_cell_length_c   9.84773700
_cell_angle_alpha   90.00000000
_cell_angle_beta   90.00000000
_cell_angle_gamma   90.00000000
_symmetry_Int_Tables_number   1
_chemical_formula_structural   Mn3OF5
_chemical_formula_sum   'Mn6 O2 F10'
_cell_volume   232.39079716
_cell_formula_units_Z   2
loop_
 _symmetry_equiv_pos_site_id
 _symmetry_equiv_pos_as_xyz
  1  'x, y, z'
loop_
 _atom_site_type_symbol
 _atom_site_label
 _atom_site_symmetry_multiplicity
 _atom_site_fract_x
 _atom_site_fract_y
 _atom_site_fract_z
 _atom_site_occupancy
  Mn  Mn0  1  0.77704300  0.02194300  0.00000000  1
  Mn  Mn1  1  0.75427000  0.98500500  0.34161300  1
  Mn  Mn2  1  0.75427000  0.98500500  0.65838700  1
  Mn  Mn3  1  0.24573000  0.48500500  0.84161300  1
  Mn  Mn4  1  0.24573000  0.48500500  0.15838700  1
  Mn  Mn5  1  0.22295700  0.52194300  0.50000000  1
  O  O0  1  0.93038300  0.80587600  0.50000000  1
  O  O1  1  0.06961700  0.30587600  0.00000000  1
  F  F0  1  0.95486200  0.80458300  0.16763300  1
  F  F1  1  0.95486200  0.80458300  0.83236700  1
  F  F2  1  0.04513800  0.30458300  0.33236700  1
  F  F3  1  0.04513800  0.30458300  0.66763300  1
  F  F4  1  0.47168200  0.71108200  0.00000000  1
  F  F5  1  0.43535000  0.69081000  0.32358100  1
  F  F6  1  0.43535000  0.69081000  0.67641900  1
  F  F7  1  0.56465000  0.19081000  0.17641900  1
  F  F8  1  0.52831800  0.21108200  0.50000000  1
  F  F9  1  0.56465000  0.19081000  0.82358100  1
loop_
_geom_bond_atom_site_label_1
_geom_bond_atom_site_label_2
_geom_bond_distance
_geom_bond_site_symmetry_2
Mn0 O1 1.980424 1_655
Mn1 O0 1.980419 1_555
Mn2 O0 1.980419 1_555
Mn3 O1 1.980419 1_556
Mn4 O1 1.980419 1_555
Mn5 O0 1.980424 1_455
F0 Mn4 2.101523 1_655
F0 Mn0 2.141857 1_565
F0 Mn1 2.156968 1_555
F1 Mn3 2.101523 1_655
F1 Mn0 2.141857 1_566
F1 Mn2 2.156968 1_555
F2 Mn1 2.101523 1_445
F2 Mn5 2.141857 1_555
F2 Mn4 2.156968 1_555
F3 Mn2 2.101523 1_445
F3 Mn5 2.141857 1_555
F3 Mn3 2.156968 1_555
F4 Mn0 2.116877 1_565
F4 Mn4 2.200860 1_555
F4 Mn3 2.200860 1_554
F5 Mn1 2.114936 1_555
F5 Mn4 2.120142 1_555
F5 Mn5 2.180463 1_555
F6 Mn2 2.114936 1_555
F6 Mn3 2.120142 1_555
F6 Mn5 2.180463 1_555
F7 Mn4 2.114936 1_555
F7 Mn1 2.120142 1_545
F7 Mn0 2.180463 1_555
F8 Mn5 2.116877 1_555
F8 Mn2 2.200860 1_545
F8 Mn1 2.200860 1_545
F9 Mn3 2.114936 1_555
F9 Mn2 2.120142 1_545
F9 Mn0 2.180463 1_556
