# generated using pymatgen
data_SbC4S2Cl3O2
_symmetry_space_group_name_H-M   'P 1'
_cell_length_a   15.05661200
_cell_length_b   9.37799500
_cell_length_c   11.77194185
_cell_angle_alpha   64.77509796
_cell_angle_beta   90.00000000
_cell_angle_gamma   90.00000000
_symmetry_Int_Tables_number   1
_chemical_formula_structural   SbC4S2Cl3O2
_chemical_formula_sum   'Sb4 C16 S8 Cl12 O8'
_cell_volume   1503.70301126
_cell_formula_units_Z   4
loop_
 _symmetry_equiv_pos_site_id
 _symmetry_equiv_pos_as_xyz
  1  'x, y, z'
loop_
 _atom_site_type_symbol
 _atom_site_label
 _atom_site_symmetry_multiplicity
 _atom_site_fract_x
 _atom_site_fract_y
 _atom_site_fract_z
 _atom_site_occupancy
  Sb  Sb0  1  0.74707100  0.21017200  0.08770600  1
  Sb  Sb1  1  0.75292900  0.21017200  0.58770600  1
  Sb  Sb2  1  0.25292900  0.78982800  0.91229400  1
  Sb  Sb3  1  0.24707100  0.78982800  0.41229400  1
  C  C0  1  0.93435000  0.68151800  0.20998900  1
  C  C1  1  0.56565000  0.68151800  0.70998900  1
  C  C2  1  0.06565000  0.31848200  0.79001100  1
  C  C3  1  0.43435000  0.31848200  0.29001100  1
  C  C4  1  0.97259100  0.55332000  0.22948400  1
  C  C5  1  0.52740900  0.55332000  0.72948400  1
  C  C6  1  0.02740900  0.44668000  0.77051600  1
  C  C7  1  0.47259100  0.44668000  0.27051600  1
  C  C8  1  0.55891400  0.70518400  0.20536800  1
  C  C9  1  0.94108600  0.70518400  0.70536800  1
  C  C10  1  0.44108600  0.29481600  0.79463200  1
  C  C11  1  0.05891400  0.29481600  0.29463200  1
  C  C12  1  0.51506200  0.57826900  0.24173900  1
  C  C13  1  0.98493800  0.57826900  0.74173900  1
  C  C14  1  0.48493800  0.42173100  0.75826100  1
  C  C15  1  0.01506200  0.42173100  0.25826100  1
  S  S0  1  0.88592900  0.82597000  0.22524800  1
  S  S1  1  0.61407100  0.82597000  0.72524800  1
  S  S2  1  0.11407100  0.17403000  0.77475200  1
  S  S3  1  0.38592900  0.17403000  0.27475200  1
  S  S4  1  0.60467500  0.87168700  0.11912800  1
  S  S5  1  0.89532500  0.87168700  0.61912800  1
  S  S6  1  0.39532500  0.12831300  0.88087200  1
  S  S7  1  0.10467500  0.12831300  0.38087200  1
  Cl  Cl0  1  0.73748500  0.17741700  0.89543200  1
  Cl  Cl1  1  0.76251500  0.17741700  0.39543200  1
  Cl  Cl2  1  0.26251500  0.82258300  0.10456800  1
  Cl  Cl3  1  0.23748500  0.82258300  0.60456800  1
  Cl  Cl4  1  0.81311000  0.46932100  0.99016200  1
  Cl  Cl5  1  0.68689000  0.46932100  0.49016200  1
  Cl  Cl6  1  0.18689000  0.53067900  0.00983800  1
  Cl  Cl7  1  0.31311000  0.53067900  0.50983800  1
  Cl  Cl8  1  0.59605000  0.29997300  0.07584200  1
  Cl  Cl9  1  0.90395000  0.29997300  0.57584200  1
  Cl  Cl10  1  0.40395000  0.70002700  0.92415800  1
  Cl  Cl11  1  0.09605000  0.70002700  0.42415800  1
  O  O0  1  0.89375600  0.98057500  0.11234300  1
  O  O1  1  0.60624400  0.98057500  0.61234300  1
  O  O2  1  0.10624400  0.01942500  0.88765700  1
  O  O3  1  0.39375600  0.01942500  0.38765700  1
  O  O4  1  0.67461400  0.92084900  0.18747100  1
  O  O5  1  0.82538600  0.92084900  0.68747100  1
  O  O6  1  0.32538600  0.07915100  0.81252900  1
  O  O7  1  0.17461400  0.07915100  0.31252900  1
loop_
_geom_bond_atom_site_label_1
_geom_bond_atom_site_label_2
_geom_bond_distance
_geom_bond_site_symmetry_2
C0 C4 1.262697 1_555
C0 S0 1.614412 1_555
C1 C5 1.262697 1_555
C1 S1 1.614412 1_555
C2 C6 1.262697 1_555
C2 S2 1.614412 1_555
C3 C7 1.262697 1_555
C3 S3 1.614412 1_555
C8 S4 1.610094 1_555
C9 S5 1.610094 1_555
C10 C14 1.265507 1_555
C10 S6 1.610094 1_555
C11 C15 1.265507 1_555
C11 S7 1.610094 1_555
C12 C8 1.265507 1_555
C12 C7 1.300084 1_555
C13 C9 1.265507 1_555
C13 C6 1.300084 1_655
C14 C5 1.300084 1_555
C15 C4 1.300084 1_455
Cl0 Sb0 2.414737 1_556
Cl1 Sb1 2.414737 1_555
Cl2 Sb2 2.414737 1_554
Cl3 Sb3 2.414737 1_555
Cl4 Sb0 2.415568 1_556
Cl5 Sb1 2.415568 1_555
Cl6 Sb2 2.415568 1_554
Cl7 Sb3 2.415568 1_555
Cl8 Sb0 2.408098 1_555
Cl9 Sb1 2.408098 1_555
Cl10 Sb2 2.408098 1_555
Cl11 Sb3 2.408098 1_555
O0 S0 1.496687 1_555
O1 S1 1.496687 1_555
O2 S2 1.496687 1_555
O3 S3 1.496687 1_555
O4 S4 1.511583 1_555
O4 Sb0 2.686125 1_565
O5 S5 1.511583 1_555
O5 Sb1 2.686125 1_565
O6 S6 1.511583 1_555
O6 Sb2 2.686125 1_545
O7 S7 1.511583 1_555
O7 Sb3 2.686125 1_545
