# generated using pymatgen
data_Sr2La6Mn7CuO24
_symmetry_space_group_name_H-M   'P 1'
_cell_length_a   5.50490900
_cell_length_b   5.59488801
_cell_length_c   15.69912479
_cell_angle_alpha   90.01279829
_cell_angle_beta   90.99061722
_cell_angle_gamma   90.00343065
_symmetry_Int_Tables_number   1
_chemical_formula_structural   Sr2La6Mn7CuO24
_chemical_formula_sum   'Sr2 La6 Mn7 Cu1 O24'
_cell_volume   483.45054859
_cell_formula_units_Z   1
loop_
 _symmetry_equiv_pos_site_id
 _symmetry_equiv_pos_as_xyz
  1  'x, y, z'
loop_
 _atom_site_type_symbol
 _atom_site_label
 _atom_site_symmetry_multiplicity
 _atom_site_fract_x
 _atom_site_fract_y
 _atom_site_fract_z
 _atom_site_occupancy
  Sr  Sr0  1  0.99999500  0.49910200  0.37360400  1
  Sr  Sr1  1  0.50001100  0.99850100  0.12641300  1
  La  La0  1  0.50225300  0.00050900  0.62490100  1
  La  La1  1  0.99693600  0.50474000  0.87499000  1
  La  La2  1  0.49673900  0.00153200  0.87401300  1
  La  La3  1  0.99978400  0.49905600  0.12791700  1
  La  La4  1  0.49985700  0.99978100  0.37210700  1
  La  La5  1  0.00272500  0.49757200  0.62591000  1
  Mn  Mn0  1  0.99906900  0.99854500  0.00010700  1
  Mn  Mn1  1  0.50029300  0.49943500  0.25000300  1
  Mn  Mn2  1  0.00067900  0.00130500  0.49989000  1
  Mn  Mn3  1  0.49930000  0.50120300  0.74996500  1
  Mn  Mn4  1  0.50080700  0.49939200  0.49919600  1
  Mn  Mn5  1  0.49928700  0.50058800  0.00085900  1
  Mn  Mn6  1  0.99966600  0.99904000  0.25008900  1
  Cu  Cu0  1  0.00015200  0.00106000  0.74993300  1
  O  O0  1  0.22671300  0.72572200  0.51919900  1
  O  O1  1  0.23077800  0.26869100  0.26216500  1
  O  O2  1  0.49993400  0.56348600  0.37599600  1
  O  O3  1  0.70536600  0.22167300  0.76702300  1
  O  O4  1  0.72375900  0.77656500  0.51721400  1
  O  O5  1  0.00054600  0.93588300  0.87784700  1
  O  O6  1  0.00415600  0.06607600  0.62237600  1
  O  O7  1  0.21484700  0.71440100  0.01393300  1
  O  O8  1  0.21798300  0.29774000  0.76546400  1
  O  O9  1  0.27383300  0.22598500  0.98093300  1
  O  O10  1  0.29471900  0.77964900  0.73319800  1
  O  O11  1  0.50173000  0.45111300  0.12449800  1
  O  O12  1  0.50017400  0.56563300  0.87382500  1
  O  O13  1  0.72356100  0.22320800  0.26480600  1
  O  O14  1  0.72630500  0.77243800  0.01163800  1
  O  O15  1  0.77662300  0.72319600  0.23521800  1
  O  O16  1  0.77594000  0.27642700  0.98270100  1
  O  O17  1  0.99854600  0.95096600  0.37585100  1
  O  O18  1  0.99979800  0.06364700  0.12380200  1
  O  O19  1  0.28551100  0.21475400  0.48608100  1
  O  O20  1  0.26922900  0.76888000  0.23797400  1
  O  O21  1  0.49748600  0.43589000  0.62581000  1
  O  O22  1  0.78190900  0.70379800  0.73426000  1
  O  O23  1  0.77300100  0.27281600  0.48828800  1
loop_
_geom_bond_atom_site_label_1
_geom_bond_atom_site_label_2
_geom_bond_distance
_geom_bond_site_symmetry_2
La0 O10 2.406373 1_545
La0 O21 2.436092 1_555
La0 O4 2.446496 1_545
La0 O0 2.707325 1_545
La0 O19 2.742522 1_555
La0 O6 2.766037 1_555
La0 O3 2.769814 1_555
La0 O6 2.788117 1_655
La0 O22 2.825517 1_545
La1 O5 2.412678 1_655
La1 O8 2.418714 1_655
La1 O16 2.458256 1_555
La1 O22 2.726445 1_555
La1 O9 2.726882 1_655
La1 O7 2.735179 1_656
La1 O12 2.755538 1_555
La1 O12 2.791504 1_655
La1 O3 2.803898 1_555
La2 O3 2.392627 1_555
La2 O12 2.438882 1_545
La2 O9 2.443506 1_555
La2 O16 2.747200 1_555
La2 O10 2.752915 1_545
La2 O5 2.757750 1_545
La2 O14 2.795552 1_546
La2 O5 2.797267 1_645
La2 O8 2.813616 1_555
La3 O18 2.436907 1_555
La3 O15 2.447493 1_555
La3 O7 2.475766 1_655
La3 O20 2.715571 1_655
La3 O11 2.754414 1_555
La3 O1 2.762022 1_655
La3 O11 2.777613 1_655
La3 O14 2.800862 1_555
La3 O16 2.858082 1_554
La3 O13 3.070280 1_555
La3 O18 3.159498 1_565
La3 O9 3.170775 1_654
La4 O2 2.441799 1_555
La4 O13 2.447299 1_565
La4 O19 2.472383 1_565
La4 O1 2.711048 1_565
La4 O17 2.758422 1_555
La4 O20 2.760649 1_555
La4 O17 2.774772 1_455
La4 O23 2.797299 1_565
La4 O4 2.858806 1_555
La4 O15 3.073480 1_555
La4 O2 3.154443 1_565
La4 O0 3.172673 1_555
La5 O22 2.402724 1_455
La5 O6 2.414813 1_555
La5 O0 2.455296 1_555
La5 O8 2.713963 1_555
La5 O21 2.745439 1_555
La5 O4 2.760002 1_455
La5 O23 2.784346 1_455
La5 O10 2.795760 1_555
La5 O21 2.802576 1_455
Mn0 O5 1.951209 1_654
Mn0 O14 1.974083 1_555
Mn0 O18 1.975624 1_565
Mn0 O7 1.994206 1_655
Mn0 O16 1.997340 1_564
Mn0 O9 2.003338 1_664
Mn1 O1 1.978386 1_555
Mn1 O20 1.979460 1_555
Mn1 O13 1.985844 1_555
Mn1 O15 1.986768 1_555
Mn1 O11 1.988872 1_555
Mn1 O2 2.010136 1_555
Mn2 O6 1.956461 1_555
Mn2 O17 1.967337 1_445
Mn2 O23 1.975879 1_455
Mn2 O19 1.985788 1_555
Mn2 O4 1.998280 1_445
Mn2 O0 2.001220 1_545
Mn3 O10 1.937712 1_555
Mn3 O8 1.940678 1_555
Mn3 O22 1.943990 1_555
Mn3 O3 1.947902 1_555
Mn3 O12 1.977470 1_555
Mn3 O21 1.982858 1_555
Mn4 O2 1.967097 1_555
Mn4 O23 1.972440 1_555
Mn4 O19 1.993579 1_555
Mn4 O4 1.994682 1_555
Mn4 O0 1.998802 1_555
Mn4 O21 2.019703 1_555
Mn5 O11 1.960540 1_555
Mn5 O14 1.973858 1_555
Mn5 O7 1.983979 1_555
Mn5 O9 1.996189 1_554
Mn5 O16 1.997154 1_554
Mn5 O12 2.027423 1_554
Mn6 O20 1.976434 1_655
Mn6 O1 1.980389 1_665
Mn6 O15 1.983331 1_555
Mn6 O13 1.987165 1_565
Mn6 O17 1.992765 1_555
Mn6 O18 2.015370 1_565
Cu0 O6 2.035877 1_555
Cu0 O5 2.041023 1_545
Cu0 O8 2.059635 1_555
Cu0 O3 2.060102 1_455
Cu0 O10 2.061037 1_545
Cu0 O22 2.063817 1_445
O0 Sr0 2.879172 1_455
O1 Sr0 2.532317 1_455
O1 Sr1 3.021890 1_545
O2 Sr0 2.775181 1_455
O2 Sr0 2.777177 1_555
O4 Sr0 3.150003 1_555
O7 Sr1 2.830476 1_555
O9 Sr1 2.879155 1_546
O11 Sr1 2.532518 1_545
O11 Sr1 3.062732 1_555
O13 Sr0 2.743071 1_555
O13 Sr1 2.778769 1_545
O14 Sr1 2.544614 1_555
O15 Sr1 2.742351 1_555
O15 Sr0 2.777219 1_555
O16 Sr1 3.152011 1_546
O17 Sr0 2.528382 1_555
O17 Sr0 3.066982 1_565
O18 Sr1 2.776305 1_545
O18 Sr1 2.777268 1_645
O19 Sr0 2.832829 1_455
O20 Sr1 2.531729 1_555
O20 Sr0 3.019761 1_455
O23 Sr0 2.546473 1_555
