# generated using pymatgen
data_Nb2Ge2O7
_symmetry_space_group_name_H-M   'P 1'
_cell_length_a   13.52116340
_cell_length_b   13.52116340
_cell_length_c   5.87043400
_cell_angle_alpha   90.00000000
_cell_angle_beta   90.00000000
_cell_angle_gamma   163.24444798
_symmetry_Int_Tables_number   1
_chemical_formula_structural   Nb2Ge2O7
_chemical_formula_sum   'Nb4 Ge4 O14'
_cell_volume   309.40440228
_cell_formula_units_Z   2
loop_
 _symmetry_equiv_pos_site_id
 _symmetry_equiv_pos_as_xyz
  1  'x, y, z'
loop_
 _atom_site_type_symbol
 _atom_site_label
 _atom_site_symmetry_multiplicity
 _atom_site_fract_x
 _atom_site_fract_y
 _atom_site_fract_z
 _atom_site_occupancy
  Nb  Nb0  1  0.94273900  0.05726100  0.99719300  1
  Nb  Nb1  1  0.83892500  0.16107500  0.51623900  1
  Nb  Nb2  1  0.16107500  0.83892500  0.01623900  1
  Nb  Nb3  1  0.05726100  0.94273900  0.49719300  1
  Ge  Ge0  1  0.71365200  0.28634800  0.56260200  1
  Ge  Ge1  1  0.43642200  0.56357800  0.43267700  1
  Ge  Ge2  1  0.56357800  0.43642200  0.93267700  1
  Ge  Ge3  1  0.28634800  0.71365200  0.06260200  1
  O  O0  1  0.99201000  0.00799000  0.77845700  1
  O  O1  1  0.88567500  0.11432500  0.81968700  1
  O  O2  1  0.90780600  0.09219400  0.34114100  1
  O  O3  1  0.77715200  0.22284800  0.69803900  1
  O  O4  1  0.80164800  0.19835200  0.23937700  1
  O  O5  1  0.55684600  0.44315400  0.59187000  1
  O  O6  1  0.64799800  0.35200200  0.01229800  1
  O  O7  1  0.44315400  0.55684600  0.09187000  1
  O  O8  1  0.35200200  0.64799800  0.51229800  1
  O  O9  1  0.19835200  0.80164800  0.73937700  1
  O  O10  1  0.11432500  0.88567500  0.31968700  1
  O  O11  1  0.00799000  0.99201000  0.27845700  1
  O  O12  1  0.22284800  0.77715200  0.19803900  1
  O  O13  1  0.09219400  0.90780600  0.84114100  1
loop_
_geom_bond_atom_site_label_1
_geom_bond_atom_site_label_2
_geom_bond_distance
_geom_bond_site_symmetry_2
Nb0 O0 1.840233 1_555
Nb0 O1 1.848400 1_555
Nb0 O7 2.046955 1_656
Nb0 O7 2.046955 1_546
Nb0 O2 2.224931 1_556
Nb0 O11 2.402867 1_646
Nb1 O4 1.906884 1_555
Nb1 O3 1.967307 1_555
Nb1 O8 2.000983 1_545
Nb1 O8 2.000983 1_655
Nb1 O2 2.110115 1_555
Nb1 O1 2.176610 1_555
Nb2 O9 1.906884 1_554
Nb2 O12 1.967307 1_555
Nb2 O6 2.000983 1_455
Nb2 O6 2.000983 1_565
Nb2 O13 2.110115 1_554
Nb2 O10 2.176610 1_555
Nb3 O11 1.840233 1_555
Nb3 O10 1.848400 1_555
Nb3 O5 2.046955 1_565
Nb3 O5 2.046955 1_455
Nb3 O13 2.224931 1_555
Nb3 O0 2.402867 1_465
Ge0 O3 1.875708 1_555
Ge0 O9 2.263949 1_655
Ge0 O9 2.263949 1_545
Ge1 O7 2.008775 1_555
Ge1 O2 2.180795 1_455
Ge1 O2 2.180795 1_565
Ge1 O8 2.306411 1_555
Ge2 O5 2.008775 1_555
Ge2 O13 2.180795 1_545
Ge2 O13 2.180795 1_655
Ge2 O6 2.306411 1_556
Ge3 O12 1.875708 1_555
Ge3 O4 2.263949 1_565
Ge3 O4 2.263949 1_455
