# generated using pymatgen
data_H48PtW6C8(NO)24
_symmetry_space_group_name_H-M   'P 1'
_cell_length_a   10.61526772
_cell_length_b   10.61526772
_cell_length_c   10.61526830
_cell_angle_alpha   76.32291793
_cell_angle_beta   76.32291793
_cell_angle_gamma   76.32292145
_symmetry_Int_Tables_number   1
_chemical_formula_structural   H48PtW6C8(NO)24
_chemical_formula_sum   'H48 Pt1 W6 C8 N24 O24'
_cell_volume   1108.45260952
_cell_formula_units_Z   1
loop_
 _symmetry_equiv_pos_site_id
 _symmetry_equiv_pos_as_xyz
  1  'x, y, z'
loop_
 _atom_site_type_symbol
 _atom_site_label
 _atom_site_symmetry_multiplicity
 _atom_site_fract_x
 _atom_site_fract_y
 _atom_site_fract_z
 _atom_site_occupancy
  H  H0  1  0.86274000  0.04227700  0.72146500  1
  H  H1  1  0.85478800  0.17112800  0.35042700  1
  H  H2  1  0.88538700  0.20968700  0.49311100  1
  H  H3  1  0.95772300  0.27853500  0.13726000  1
  H  H4  1  0.64957300  0.14521200  0.82887200  1
  H  H5  1  0.47845200  0.00691400  0.36196100  1
  H  H6  1  0.50688900  0.11461300  0.79031300  1
  H  H7  1  0.92317000  0.55242600  0.67875500  1
  H  H8  1  0.99308600  0.63803900  0.52154800  1
  H  H9  1  0.95373700  0.59827000  0.86503200  1
  H  H10  1  0.58041600  0.27307200  0.38123400  1
  H  H11  1  0.76150300  0.46602600  0.52932700  1
  H  H12  1  0.79031300  0.50688900  0.11461300  1
  H  H13  1  0.32124500  0.07683000  0.44757400  1
  H  H14  1  0.40173100  0.13496800  0.04626300  1
  H  H15  1  0.47067300  0.23849700  0.53397400  1
  H  H16  1  0.61876600  0.41958400  0.72692800  1
  H  H17  1  0.82887200  0.64957300  0.14521200  1
  H  H18  1  0.27853500  0.13726000  0.95772300  1
  H  H19  1  0.72692800  0.61876600  0.41958400  1
  H  H20  1  0.44757400  0.32124500  0.07683000  1
  H  H21  1  0.13496800  0.04626300  0.40173000  1
  H  H22  1  0.63803900  0.52154800  0.99308600  1
  H  H23  1  0.53397400  0.47067300  0.23849700  1
  H  H24  1  0.46602600  0.52932700  0.76150300  1
  H  H25  1  0.36196100  0.47845200  0.00691400  1
  H  H26  1  0.86503200  0.95373700  0.59827000  1
  H  H27  1  0.55242600  0.67875500  0.92317000  1
  H  H28  1  0.27307200  0.38123400  0.58041600  1
  H  H29  1  0.72146500  0.86274000  0.04227700  1
  H  H30  1  0.17112800  0.35042700  0.85478800  1
  H  H31  1  0.38123400  0.58041600  0.27307200  1
  H  H32  1  0.52932700  0.76150300  0.46602600  1
  H  H33  1  0.59827000  0.86503200  0.95373700  1
  H  H34  1  0.67875500  0.92317000  0.55242600  1
  H  H35  1  0.20968700  0.49311100  0.88538700  1
  H  H36  1  0.23849700  0.53397400  0.47067300  1
  H  H37  1  0.41958400  0.72692800  0.61876600  1
  H  H38  1  0.04626300  0.40173000  0.13496800  1
  H  H39  1  0.00691400  0.36196100  0.47845200  1
  H  H40  1  0.07683000  0.44757400  0.32124500  1
  H  H41  1  0.49311100  0.88538700  0.20968700  1
  H  H42  1  0.52154800  0.99308600  0.63803900  1
  H  H43  1  0.35042700  0.85478800  0.17112800  1
  H  H44  1  0.04227700  0.72146500  0.86274000  1
  H  H45  1  0.11461300  0.79031300  0.50688900  1
  H  H46  1  0.14521200  0.82887200  0.64957300  1
  H  H47  1  0.13726000  0.95772300  0.27853500  1
  Pt  Pt0  1  0.00000000  0.00000000  0.00000000  1
  W  W0  1  0.89656700  0.28709800  0.81995600  1
  W  W1  1  0.71290200  0.18004400  0.10343300  1
  W  W2  1  0.18004400  0.10343300  0.71290200  1
  W  W3  1  0.81995600  0.89656700  0.28709800  1
  W  W4  1  0.28709800  0.81995600  0.89656700  1
  W  W5  1  0.10343300  0.71290200  0.18004400  1
  C  C0  1  0.96863800  0.31299000  0.31876400  1
  C  C1  1  0.68123600  0.03136200  0.68701000  1
  C  C2  1  0.68701000  0.68123600  0.03136200  1
  C  C3  1  0.58500300  0.58500300  0.58500300  1
  C  C4  1  0.41499700  0.41499700  0.41499700  1
  C  C5  1  0.31299000  0.31876400  0.96863800  1
  C  C6  1  0.31876400  0.96863800  0.31299000  1
  C  C7  1  0.03136200  0.68701000  0.68123600  1
  N  N0  1  0.81299400  0.01182000  0.66481200  1
  N  N1  1  0.89839600  0.22346700  0.39303200  1
  N  N2  1  0.98818000  0.33518800  0.18700600  1
  N  N3  1  0.60696800  0.10160400  0.77653300  1
  N  N4  1  0.98154600  0.61632300  0.62159400  1
  N  N5  1  0.37840600  0.01845400  0.38367700  1
  N  N6  1  0.49790800  0.30131300  0.44737500  1
  N  N7  1  0.77653300  0.60696800  0.10160400  1
  N  N8  1  0.69868700  0.55262500  0.50209200  1
  N  N9  1  0.33518800  0.18700600  0.98818000  1
  N  N10  1  0.55262500  0.50209200  0.69868700  1
  N  N11  1  0.38367700  0.37840600  0.01845400  1
  N  N12  1  0.61632300  0.62159400  0.98154600  1
  N  N13  1  0.44737500  0.49790800  0.30131300  1
  N  N14  1  0.66481200  0.81299400  0.01182000  1
  N  N15  1  0.30131300  0.44737500  0.49790800  1
  N  N16  1  0.22346700  0.39303200  0.89839600  1
  N  N17  1  0.50209200  0.69868700  0.55262500  1
  N  N18  1  0.62159400  0.98154600  0.61632300  1
  N  N19  1  0.01845400  0.38367700  0.37840600  1
  N  N20  1  0.39303200  0.89839600  0.22346700  1
  N  N21  1  0.01182000  0.66481200  0.81299400  1
  N  N22  1  0.10160400  0.77653300  0.60696800  1
  N  N23  1  0.18700600  0.98818000  0.33518800  1
  O  O0  1  0.97791600  0.08088700  0.80972400  1
  O  O1  1  0.91911300  0.19027600  0.02208400  1
  O  O2  1  0.76692700  0.09131500  0.27508100  1
  O  O3  1  0.85410000  0.32539600  0.65798200  1
  O  O4  1  0.72491900  0.23307300  0.90868500  1
  O  O5  1  0.87052600  0.44570200  0.86293200  1
  O  O6  1  0.55429800  0.13706800  0.12947400  1
  O  O7  1  0.67460400  0.34201800  0.14590000  1
  O  O8  1  0.34201800  0.14590000  0.67460400  1
  O  O9  1  0.90868500  0.72491900  0.23307300  1
  O  O10  1  0.19027600  0.02208400  0.91911300  1
  O  O11  1  0.13706800  0.12947400  0.55429800  1
  O  O12  1  0.86293200  0.87052600  0.44570200  1
  O  O13  1  0.80972400  0.97791600  0.08088700  1
  O  O14  1  0.09131500  0.27508100  0.76692700  1
  O  O15  1  0.65798200  0.85410000  0.32539600  1
  O  O16  1  0.32539600  0.65798200  0.85410000  1
  O  O17  1  0.44570200  0.86293200  0.87052600  1
  O  O18  1  0.12947400  0.55429800  0.13706800  1
  O  O19  1  0.27508100  0.76692700  0.09131500  1
  O  O20  1  0.14590000  0.67460400  0.34201800  1
  O  O21  1  0.23307300  0.90868500  0.72491900  1
  O  O22  1  0.08088700  0.80972400  0.97791600  1
  O  O23  1  0.02208400  0.91911300  0.19027600  1
loop_
_geom_bond_atom_site_label_1
_geom_bond_atom_site_label_2
_geom_bond_distance
_geom_bond_site_symmetry_2
H0 N0 1.033400 1_555
H1 N1 1.032942 1_555
H2 N1 1.017730 1_555
H3 N2 1.033400 1_555
H4 N3 1.032942 1_555
H5 N5 1.015913 1_555
H6 N3 1.017730 1_555
H7 N4 1.019104 1_555
H8 N4 1.015913 1_555
H9 N21 1.022063 1_655
H10 N6 1.017100 1_555
H11 N8 1.024150 1_555
H12 N7 1.017730 1_555
H13 N5 1.019104 1_555
H14 N9 1.022071 1_554
H15 N6 1.024150 1_555
H16 N10 1.017100 1_555
H17 N7 1.032942 1_555
H18 N9 1.033400 1_555
H19 N8 1.017100 1_555
H20 N11 1.019104 1_555
H21 N23 1.022063 1_545
H22 N12 1.015913 1_555
H23 N13 1.024150 1_555
H24 N10 1.024150 1_555
H25 N11 1.015913 1_555
H26 N0 1.022063 1_565
H27 N12 1.019104 1_555
H28 N15 1.017100 1_555
H29 N14 1.033400 1_555
H30 N16 1.032942 1_555
H31 N13 1.017100 1_555
H32 N17 1.024150 1_555
H33 N14 1.022063 1_556
H34 N18 1.019104 1_555
H35 N16 1.017730 1_555
H36 N15 1.024150 1_555
H37 N17 1.017100 1_555
H38 N2 1.022063 1_455
H39 N19 1.015913 1_555
H40 N19 1.019104 1_555
H41 N20 1.017730 1_555
H42 N18 1.015913 1_555
H43 N20 1.032942 1_555
H44 N21 1.033400 1_555
H45 N22 1.017730 1_555
H46 N22 1.032942 1_555
H47 N23 1.033400 1_555
C0 N1 1.335442 1_555
C0 N2 1.335973 1_555
C0 N19 1.346903 1_655
C1 N3 1.335442 1_555
C1 N0 1.335973 1_555
C1 N18 1.346903 1_545
C2 N7 1.335442 1_555
C2 N14 1.335973 1_555
C2 N12 1.346903 1_554
C3 N10 1.339294 1_555
C3 N8 1.339294 1_555
C3 N17 1.339294 1_555
C4 N13 1.339294 1_555
C4 N15 1.339294 1_555
C4 N6 1.339294 1_555
C5 N16 1.335442 1_555
C5 N9 1.335973 1_555
C5 N11 1.346903 1_556
C6 N20 1.335442 1_555
C6 N23 1.335973 1_555
C6 N5 1.346903 1_565
C7 N22 1.335442 1_555
C7 N21 1.335973 1_555
C7 N4 1.346903 1_455
O0 Pt0 2.044630 1_656
O0 W0 2.173321 1_555
O0 W2 2.191133 1_655
O1 Pt0 2.044630 1_655
O1 W1 2.173321 1_555
O1 W0 2.191133 1_554
O2 W1 1.990772 1_555
O2 W3 1.991435 1_545
O3 W0 1.809459 1_555
O4 W0 1.990771 1_555
O4 W1 1.991435 1_556
O5 W0 1.789586 1_555
O6 W1 1.789586 1_555
O7 W1 1.809459 1_555
O8 W2 1.809459 1_555
O9 W3 1.990772 1_555
O9 W5 1.991435 1_655
O10 Pt0 2.044630 1_556
O10 W2 2.173321 1_555
O10 W4 2.191133 1_545
O11 W2 1.789586 1_555
O12 W3 1.789586 1_555
O13 Pt0 2.044630 1_665
O13 W3 2.173321 1_555
O13 W1 2.191133 1_565
O14 W2 1.990772 1_555
O14 W0 1.991435 1_455
O15 W3 1.809459 1_555
O16 W4 1.809459 1_555
O17 W4 1.789586 1_555
O18 W5 1.789586 1_555
O19 W5 1.990771 1_555
O19 W4 1.991435 1_554
O20 W5 1.809459 1_555
O21 W4 1.990772 1_555
O21 W2 1.991435 1_565
O22 Pt0 2.044630 1_566
O22 W4 2.173321 1_555
O22 W5 2.191133 1_556
O23 Pt0 2.044630 1_565
O23 W5 2.173321 1_555
O23 W3 2.191133 1_455
