# generated using pymatgen
data_FeH8(ClO2)2
_symmetry_space_group_name_H-M   'P 1'
_cell_length_a   7.32491500
_cell_length_b   5.83177300
_cell_length_c   9.18445952
_cell_angle_alpha   65.20485623
_cell_angle_beta   90.00000000
_cell_angle_gamma   90.00000000
_symmetry_Int_Tables_number   1
_chemical_formula_structural   FeH8(ClO2)2
_chemical_formula_sum   'Fe2 H16 Cl4 O8'
_cell_volume   356.16662030
_cell_formula_units_Z   2
loop_
 _symmetry_equiv_pos_site_id
 _symmetry_equiv_pos_as_xyz
  1  'x, y, z'
loop_
 _atom_site_type_symbol
 _atom_site_label
 _atom_site_symmetry_multiplicity
 _atom_site_fract_x
 _atom_site_fract_y
 _atom_site_fract_z
 _atom_site_occupancy
  Fe  Fe0  1  0.50000000  0.00000000  0.50000000  1
  Fe  Fe1  1  0.00000000  0.00000000  0.00000000  1
  H  H0  1  0.50551900  0.91627300  0.84632000  1
  H  H1  1  0.00551900  0.08372700  0.65368000  1
  H  H2  1  0.49448100  0.08372700  0.15368000  1
  H  H3  1  0.99448100  0.91627300  0.34632000  1
  H  H4  1  0.18300400  0.10144300  0.73553800  1
  H  H5  1  0.68300400  0.89855700  0.76446200  1
  H  H6  1  0.81699600  0.89855700  0.26446200  1
  H  H7  1  0.31699600  0.10144300  0.23553800  1
  H  H8  1  0.70173900  0.40499300  0.48640800  1
  H  H9  1  0.20173900  0.59500700  0.01359200  1
  H  H10  1  0.29826100  0.59500700  0.51359200  1
  H  H11  1  0.79826100  0.40499300  0.98640800  1
  H  H12  1  0.72096300  0.39409100  0.31832000  1
  H  H13  1  0.22096300  0.60590900  0.18168000  1
  H  H14  1  0.27903700  0.60590900  0.68168000  1
  H  H15  1  0.77903700  0.39409100  0.81832000  1
  Cl  Cl0  1  0.75276200  0.67465300  0.57656100  1
  Cl  Cl1  1  0.25276200  0.32534700  0.92343900  1
  Cl  Cl2  1  0.24723800  0.32534700  0.42343900  1
  Cl  Cl3  1  0.74723800  0.67465300  0.07656100  1
  O  O0  1  0.56310100  0.97928600  0.74097400  1
  O  O1  1  0.06310100  0.02071400  0.75902600  1
  O  O2  1  0.43689900  0.02071400  0.25902600  1
  O  O3  1  0.93689900  0.97928600  0.24097400  1
  O  O4  1  0.70169300  0.28636400  0.43393500  1
  O  O5  1  0.20169300  0.71363600  0.06606500  1
  O  O6  1  0.29830700  0.71363600  0.56606500  1
  O  O7  1  0.79830700  0.28636400  0.93393500  1
loop_
_geom_bond_atom_site_label_1
_geom_bond_atom_site_label_2
_geom_bond_distance
_geom_bond_site_symmetry_2
Fe0 O4 2.118927 1_555
Fe0 O6 2.118927 1_545
Fe0 O2 2.214116 1_555
Fe0 O0 2.214116 1_545
Fe1 O7 2.118927 1_454
Fe1 O5 2.118927 1_545
Fe1 O3 2.214116 1_445
Fe1 O1 2.214116 1_554
H0 O0 0.975124 1_555
H1 O1 0.975124 1_555
H2 O2 0.975124 1_555
H3 O3 0.975124 1_555
H4 O1 0.976920 1_555
H5 O0 0.976920 1_555
H6 O3 0.976920 1_555
H7 O2 0.976920 1_555
H8 O4 0.995250 1_555
H9 O5 0.995250 1_555
H10 O6 0.995250 1_555
H11 O7 0.995250 1_555
H12 O4 0.991274 1_555
H13 O5 0.991274 1_555
H14 O6 0.991274 1_555
H15 O7 0.991274 1_555
Cl0 H8 2.095349 1_555
Cl0 H15 2.144112 1_555
Cl0 Fe0 2.530467 1_565
Cl1 H9 2.095349 1_556
Cl1 H14 2.144112 1_555
Cl1 Fe1 2.530467 1_556
Cl2 H10 2.095349 1_555
Cl2 H13 2.144112 1_555
Cl2 Fe0 2.530467 1_555
Cl3 H11 2.095349 1_554
Cl3 H12 2.144112 1_555
Cl3 Fe1 2.530467 1_665
