# generated using pymatgen
data_Li4Co2(PO4)3
_symmetry_space_group_name_H-M   'P 1'
_cell_length_a   8.74507100
_cell_length_b   8.91196700
_cell_length_c   12.17267100
_cell_angle_alpha   90.00000000
_cell_angle_beta   90.00000000
_cell_angle_gamma   90.00000000
_symmetry_Int_Tables_number   1
_chemical_formula_structural   Li4Co2(PO4)3
_chemical_formula_sum   'Li16 Co8 P12 O48'
_cell_volume   948.68665976
_cell_formula_units_Z   4
loop_
 _symmetry_equiv_pos_site_id
 _symmetry_equiv_pos_as_xyz
  1  'x, y, z'
loop_
 _atom_site_type_symbol
 _atom_site_label
 _atom_site_symmetry_multiplicity
 _atom_site_fract_x
 _atom_site_fract_y
 _atom_site_fract_z
 _atom_site_occupancy
  Li  Li0  1  0.42734200  0.05148800  0.71194700  1
  Li  Li1  1  0.07265800  0.05148800  0.28805300  1
  Li  Li2  1  0.76113700  0.20278700  0.82038300  1
  Li  Li3  1  0.73886300  0.20278700  0.17961700  1
  Li  Li4  1  0.26113700  0.29721300  0.67961700  1
  Li  Li5  1  0.23886300  0.29721300  0.32038300  1
  Li  Li6  1  0.92734200  0.44851200  0.78805300  1
  Li  Li7  1  0.57265800  0.44851200  0.21194700  1
  Li  Li8  1  0.42734200  0.55148800  0.78805300  1
  Li  Li9  1  0.07265800  0.55148800  0.21194700  1
  Li  Li10  1  0.76113700  0.70278700  0.67961700  1
  Li  Li11  1  0.73886300  0.70278700  0.32038300  1
  Li  Li12  1  0.26113700  0.79721300  0.82038300  1
  Li  Li13  1  0.23886300  0.79721300  0.17961700  1
  Li  Li14  1  0.92734200  0.94851200  0.71194700  1
  Li  Li15  1  0.57265800  0.94851200  0.28805300  1
  Co  Co0  1  0.04264200  0.25105600  0.10546900  1
  Co  Co1  1  0.45735800  0.25105600  0.89453100  1
  Co  Co2  1  0.95735800  0.24894400  0.60546900  1
  Co  Co3  1  0.54264200  0.24894400  0.39453100  1
  Co  Co4  1  0.45735800  0.75105600  0.60546900  1
  Co  Co5  1  0.04264200  0.75105600  0.39453100  1
  Co  Co6  1  0.95735800  0.74894400  0.89453100  1
  Co  Co7  1  0.54264200  0.74894400  0.10546900  1
  P  P0  1  0.25000000  0.04869300  0.50000000  1
  P  P1  1  0.75000000  0.45130700  0.00000000  1
  P  P2  1  0.25000000  0.54869300  0.00000000  1
  P  P3  1  0.75000000  0.95130700  0.50000000  1
  P  P4  1  0.10484300  0.10634200  0.84974500  1
  P  P5  1  0.39515700  0.10634200  0.15025500  1
  P  P6  1  0.60484300  0.39365800  0.65025500  1
  P  P7  1  0.89515700  0.39365800  0.34974500  1
  P  P8  1  0.10484300  0.60634200  0.65025500  1
  P  P9  1  0.39515700  0.60634200  0.34974500  1
  P  P10  1  0.60484300  0.89365800  0.84974500  1
  P  P11  1  0.89515700  0.89365800  0.15025500  1
  O  O0  1  0.85776400  0.04520000  0.57373600  1
  O  O1  1  0.64223600  0.04520000  0.42626400  1
  O  O2  1  0.59181300  0.06647000  0.83214400  1
  O  O3  1  0.90818700  0.06647000  0.16785600  1
  O  O4  1  0.16179700  0.15352200  0.58041300  1
  O  O5  1  0.33820300  0.15352200  0.41958700  1
  O  O6  1  0.26654800  0.15649700  0.81067300  1
  O  O7  1  0.23345200  0.15649700  0.18932700  1
  O  O8  1  0.07528800  0.15357600  0.96777800  1
  O  O9  1  0.42471200  0.15357600  0.03222200  1
  O  O10  1  0.97659900  0.17594900  0.77514500  1
  O  O11  1  0.52340100  0.17594900  0.22485500  1
  O  O12  1  0.47659900  0.32405100  0.72485500  1
  O  O13  1  0.02340100  0.32405100  0.27514500  1
  O  O14  1  0.57528800  0.34642400  0.53222200  1
  O  O15  1  0.92471200  0.34642400  0.46777800  1
  O  O16  1  0.73345200  0.34350300  0.31067300  1
  O  O17  1  0.76654800  0.34350300  0.68932700  1
  O  O18  1  0.66179700  0.34647800  0.91958700  1
  O  O19  1  0.83820300  0.34647800  0.08041300  1
  O  O20  1  0.09181300  0.43353000  0.66785600  1
  O  O21  1  0.40818700  0.43353000  0.33214400  1
  O  O22  1  0.35776400  0.45480000  0.92626400  1
  O  O23  1  0.14223600  0.45480000  0.07373600  1
  O  O24  1  0.64223600  0.54520000  0.07373600  1
  O  O25  1  0.85776400  0.54520000  0.92626400  1
  O  O26  1  0.59181300  0.56647000  0.66785600  1
  O  O27  1  0.90818700  0.56647000  0.33214400  1
  O  O28  1  0.16179700  0.65352200  0.91958700  1
  O  O29  1  0.33820300  0.65352200  0.08041300  1
  O  O30  1  0.26654800  0.65649700  0.68932700  1
  O  O31  1  0.23345200  0.65649700  0.31067300  1
  O  O32  1  0.07528800  0.65357600  0.53222200  1
  O  O33  1  0.42471200  0.65357600  0.46777800  1
  O  O34  1  0.97659900  0.67594900  0.72485500  1
  O  O35  1  0.52340100  0.67594900  0.27514500  1
  O  O36  1  0.47659900  0.82405100  0.77514500  1
  O  O37  1  0.02340100  0.82405100  0.22485500  1
  O  O38  1  0.57528800  0.84642400  0.96777800  1
  O  O39  1  0.92471200  0.84642400  0.03222200  1
  O  O40  1  0.76654800  0.84350300  0.81067300  1
  O  O41  1  0.73345200  0.84350300  0.18932700  1
  O  O42  1  0.66179700  0.84647800  0.58041300  1
  O  O43  1  0.83820300  0.84647800  0.41958700  1
  O  O44  1  0.09181300  0.93353000  0.83214400  1
  O  O45  1  0.40818700  0.93353000  0.16785600  1
  O  O46  1  0.35776400  0.95480000  0.57373600  1
  O  O47  1  0.14223600  0.95480000  0.42626400  1
loop_
_geom_bond_atom_site_label_1
_geom_bond_atom_site_label_2
_geom_bond_distance
_geom_bond_site_symmetry_2
Li0 O46 1.985745 1_545
Li0 O2 2.056035 1_555
Li0 O6 2.072990 1_555
Li0 O36 2.210367 1_545
Li0 O12 2.471969 1_555
Li1 O47 1.985745 1_545
Li1 O3 2.056035 1_455
Li1 O7 2.072990 1_555
Li1 O37 2.210367 1_545
Li1 O13 2.471969 1_555
Li2 O2 1.920673 1_555
Li2 O18 1.962856 1_555
Li2 O10 1.977566 1_555
Li2 O17 2.029750 1_555
Li3 O3 1.920673 1_555
Li3 O19 1.962856 1_555
Li3 O11 1.977566 1_555
Li3 O16 2.029750 1_555
Li4 O20 1.920673 1_555
Li4 O4 1.962856 1_555
Li4 O12 1.977566 1_555
Li4 O6 2.029750 1_555
Li5 O21 1.920673 1_555
Li5 O5 1.962856 1_555
Li5 O13 1.977566 1_555
Li5 O7 2.029750 1_555
Li6 O25 1.985745 1_555
Li6 O20 2.056035 1_655
Li6 O17 2.072990 1_555
Li6 O34 2.210367 1_555
Li6 O10 2.471969 1_555
Li7 O24 1.985745 1_555
Li7 O21 2.056035 1_555
Li7 O16 2.072990 1_555
Li7 O35 2.210367 1_555
Li7 O11 2.471969 1_555
Li8 O22 1.985745 1_555
Li8 O26 2.056035 1_555
Li8 O30 2.072990 1_555
Li8 O12 2.210367 1_555
Li8 O36 2.471969 1_555
Li9 O23 1.985745 1_555
Li9 O27 2.056035 1_455
Li9 O31 2.072990 1_555
Li9 O13 2.210367 1_555
Li9 O37 2.471969 1_555
Li10 O26 1.920673 1_555
Li10 O42 1.962856 1_555
Li10 O34 1.977566 1_555
Li10 O40 2.029750 1_555
Li11 O27 1.920673 1_555
Li11 O43 1.962856 1_555
Li11 O35 1.977566 1_555
Li11 O41 2.029750 1_555
Li12 O44 1.920673 1_555
Li12 O28 1.962856 1_555
Li12 O36 1.977566 1_555
Li12 O30 2.029750 1_555
Li13 O45 1.920673 1_555
Li13 O29 1.962856 1_555
Li13 O37 1.977566 1_555
Li13 O31 2.029750 1_555
Li14 O0 1.985745 1_565
Li14 O44 2.056035 1_655
Li14 O40 2.072990 1_555
Li14 O10 2.210367 1_565
Li14 O34 2.471969 1_555
Li15 O1 1.985745 1_565
Li15 O45 2.056035 1_555
Li15 O41 2.072990 1_555
Li15 O11 2.210367 1_565
Li15 O35 2.471969 1_555
Co0 O8 1.909297 1_554
Co0 O19 2.003135 1_455
Co0 O23 2.050551 1_555
Co0 O7 2.129911 1_555
Co0 O3 2.159946 1_455
Co0 O13 2.171962 1_555
Co1 O9 1.909297 1_556
Co1 O18 2.003135 1_555
Co1 O22 2.050551 1_555
Co1 O6 2.129911 1_555
Co1 O2 2.159946 1_555
Co1 O12 2.171962 1_555
Co2 O15 1.909297 1_555
Co2 O4 2.003135 1_655
Co2 O0 2.050551 1_555
Co2 O17 2.129911 1_555
Co2 O20 2.159946 1_655
Co2 O10 2.171962 1_555
Co3 O14 1.909297 1_555
Co3 O5 2.003135 1_555
Co3 O1 2.050551 1_555
Co3 O16 2.129911 1_555
Co3 O21 2.159946 1_555
Co3 O11 2.171962 1_555
Co4 O33 1.909297 1_555
Co4 O42 2.003135 1_555
Co4 O46 2.050551 1_555
Co4 O30 2.129911 1_555
Co4 O26 2.159946 1_555
Co4 O36 2.171962 1_555
Co5 O32 1.909297 1_555
Co5 O43 2.003135 1_455
Co5 O47 2.050551 1_555
Co5 O31 2.129911 1_555
Co5 O27 2.159946 1_455
Co5 O37 2.171962 1_555
Co6 O39 1.909297 1_556
Co6 O28 2.003135 1_655
Co6 O25 2.050551 1_555
Co6 O40 2.129911 1_555
Co6 O44 2.159946 1_655
Co6 O34 2.171962 1_555
Co7 O38 1.909297 1_554
Co7 O29 2.003135 1_555
Co7 O24 2.050551 1_555
Co7 O41 2.129911 1_555
Co7 O45 2.159946 1_555
Co7 O35 2.171962 1_555
O0 P3 1.547234 1_545
O1 P3 1.547234 1_545
O2 P10 1.559096 1_545
O3 P11 1.559096 1_545
O4 P0 1.557526 1_555
O5 P0 1.557526 1_555
O6 P4 1.557478 1_555
O7 P5 1.557478 1_555
O8 P4 1.519318 1_555
O9 P5 1.519318 1_555
O10 P4 1.570731 1_655
O11 P5 1.570731 1_555
O12 P6 1.570731 1_555
O13 P7 1.570731 1_455
O14 P6 1.519318 1_555
O15 P7 1.519318 1_555
O16 P7 1.557478 1_555
O17 P6 1.557478 1_555
O18 P1 1.557526 1_556
O19 P1 1.557526 1_555
O20 P8 1.559096 1_555
O21 P9 1.559096 1_555
O22 P2 1.547234 1_556
O23 P2 1.547234 1_555
O24 P1 1.547234 1_555
O25 P1 1.547234 1_556
O26 P6 1.559096 1_555
O27 P7 1.559096 1_555
O28 P2 1.557526 1_556
O29 P2 1.557526 1_555
O30 P8 1.557478 1_555
O31 P9 1.557478 1_555
O32 P8 1.519318 1_555
O33 P9 1.519318 1_555
O34 P8 1.570731 1_655
O35 P9 1.570731 1_555
O36 P10 1.570731 1_555
O37 P11 1.570731 1_455
O38 P10 1.519318 1_555
O39 P11 1.519318 1_555
O40 P10 1.557478 1_555
O41 P11 1.557478 1_555
O42 P3 1.557526 1_555
O43 P3 1.557526 1_555
O44 P4 1.559096 1_565
O45 P5 1.559096 1_565
O46 P0 1.547234 1_565
O47 P0 1.547234 1_565
