# generated using pymatgen
data_Li8Mn3Cr(PO4)6
_symmetry_space_group_name_H-M   'P 1'
_cell_length_a   8.40615600
_cell_length_b   8.45468293
_cell_length_c   9.26572067
_cell_angle_alpha   91.01522779
_cell_angle_beta   116.31102367
_cell_angle_gamma   119.37233079
_symmetry_Int_Tables_number   1
_chemical_formula_structural   Li8Mn3Cr(PO4)6
_chemical_formula_sum   'Li8 Mn3 Cr1 P6 O24'
_cell_volume   490.56707834
_cell_formula_units_Z   1
loop_
 _symmetry_equiv_pos_site_id
 _symmetry_equiv_pos_as_xyz
  1  'x, y, z'
loop_
 _atom_site_type_symbol
 _atom_site_label
 _atom_site_symmetry_multiplicity
 _atom_site_fract_x
 _atom_site_fract_y
 _atom_site_fract_z
 _atom_site_occupancy
  Li  Li0  1  0.19576100  0.26532200  0.86779600  1
  Li  Li1  1  0.63469800  0.94388700  0.90177200  1
  Li  Li2  1  0.92816700  0.66090900  0.85337900  1
  Li  Li3  1  0.32983100  0.79710600  0.59143600  1
  Li  Li4  1  0.67136600  0.20487800  0.40997300  1
  Li  Li5  1  0.06999300  0.33856800  0.14423100  1
  Li  Li6  1  0.36318900  0.05641900  0.09634200  1
  Li  Li7  1  0.80391300  0.73379800  0.13674400  1
  Mn  Mn0  1  0.31094100  0.64944100  0.96849100  1
  Mn  Mn1  1  0.28868900  0.15002000  0.43679100  1
  Mn  Mn2  1  0.71541300  0.85210600  0.56217700  1
  Cr  Cr0  1  0.68758200  0.34966900  0.03221800  1
  P  P0  1  0.21774500  0.95362300  0.75214300  1
  P  P1  1  0.49297800  0.54607200  0.75587300  1
  P  P2  1  0.80763100  0.25451200  0.76244500  1
  P  P3  1  0.19038700  0.74279500  0.23732300  1
  P  P4  1  0.50667000  0.44976200  0.24758600  1
  P  P5  1  0.78538700  0.05246700  0.24485700  1
  O  O0  1  0.36385300  0.15390200  0.89467300  1
  O  O1  1  0.33432500  0.50407700  0.81888600  1
  O  O2  1  0.32384400  0.83992300  0.81032500  1
  O  O3  1  0.69141800  0.55114300  0.90149900  1
  O  O4  1  0.74734400  0.21143100  0.90323500  1
  O  O5  1  0.57798900  0.74820700  0.73407700  1
  O  O6  1  0.20014900  0.97209500  0.58366600  1
  O  O7  1  0.37817800  0.39328000  0.59522000  1
  O  O8  1  0.98462000  0.47086100  0.82034600  1
  O  O9  1  0.89165700  0.13146300  0.75281100  1
  O  O10  1  0.61563100  0.20651600  0.59273600  1
  O  O11  1  0.00439100  0.85646400  0.74681900  1
  O  O12  1  0.00157900  0.14820600  0.25609100  1
  O  O13  1  0.38143000  0.79001000  0.40726200  1
  O  O14  1  0.10856700  0.86850900  0.24414300  1
  O  O15  1  0.01123100  0.52800000  0.17738500  1
  O  O16  1  0.61780500  0.60271500  0.40805500  1
  O  O17  1  0.79172400  0.03447400  0.41001100  1
  O  O18  1  0.43151600  0.24881700  0.27359200  1
  O  O19  1  0.25273600  0.78632700  0.09582600  1
  O  O20  1  0.30337200  0.43453300  0.10246500  1
  O  O21  1  0.68255600  0.16991300  0.18176100  1
  O  O22  1  0.66339300  0.49593100  0.18302000  1
  O  O23  1  0.64035000  0.85184700  0.10451700  1
loop_
_geom_bond_atom_site_label_1
_geom_bond_atom_site_label_2
_geom_bond_distance
_geom_bond_site_symmetry_2
Li0 O9 1.911978 1_455
Li0 O1 1.957224 1_555
Li0 O0 1.986990 1_555
Li0 O20 2.114120 1_556
Li1 O5 1.963998 1_555
Li1 O4 1.974805 1_565
Li1 O2 2.019025 1_555
Li1 O23 2.036126 1_556
Li2 O11 1.923142 1_655
Li2 O8 1.939073 1_555
Li2 O3 2.002560 1_555
Li2 O19 2.293273 1_656
Li3 O13 1.944729 1_555
Li3 O2 2.080714 1_555
Li3 O5 2.165784 1_555
Li3 O6 2.213308 1_555
Li4 O10 1.948405 1_555
Li4 O18 2.071897 1_555
Li4 O17 2.128116 1_555
Li4 O21 2.179222 1_555
Li5 O12 1.916995 1_555
Li5 O20 1.944099 1_555
Li5 O15 1.948487 1_555
Li5 O4 2.276849 1_454
Li6 O18 1.955971 1_555
Li6 O19 1.998117 1_545
Li6 O0 2.056775 1_554
Li6 O21 2.077724 1_555
Li7 O14 1.919736 1_655
Li7 O22 1.942383 1_555
Li7 O23 1.992112 1_555
Li7 O3 2.156647 1_554
Mn0 O1 1.972007 1_555
Mn0 O19 1.997421 1_556
Mn0 O8 2.052863 1_455
Mn0 O23 2.089489 1_556
Mn0 O2 2.192330 1_555
Mn0 O20 2.209748 1_556
Mn1 O7 2.084975 1_555
Mn1 O6 2.130981 1_545
Mn1 O12 2.238089 1_555
Mn1 O10 2.244257 1_555
Mn1 O14 2.249895 1_545
Mn1 O18 2.257489 1_555
Mn2 O16 2.077469 1_555
Mn2 O17 2.164555 1_565
Mn2 O9 2.234530 1_565
Mn2 O11 2.248349 1_655
Mn2 O13 2.274439 1_555
Mn2 O5 2.308319 1_555
Cr0 O22 1.990035 1_555
Cr0 O4 2.026178 1_554
Cr0 O15 2.035810 1_655
Cr0 O0 2.049781 1_554
Cr0 O21 2.072438 1_555
Cr0 O3 2.103207 1_554
O0 P0 1.600800 1_545
O1 P1 1.574399 1_555
O2 P0 1.563123 1_555
O3 P1 1.592984 1_555
O4 P2 1.585275 1_555
O5 P1 1.553784 1_555
O6 P0 1.519798 1_555
O7 P1 1.500462 1_555
O8 P2 1.560517 1_555
O9 P2 1.537086 1_555
O10 P2 1.525563 1_555
O11 P0 1.539066 1_555
O12 P5 1.534618 1_455
O13 P3 1.524779 1_555
O14 P3 1.536235 1_555
O15 P3 1.553822 1_555
O16 P4 1.507045 1_555
O17 P5 1.520409 1_555
O18 P4 1.562085 1_555
O19 P3 1.601902 1_555
O20 P4 1.576738 1_555
O21 P5 1.577835 1_555
O22 P4 1.564742 1_555
O23 P5 1.594421 1_565
