# generated using pymatgen
data_LiVSiO4
_symmetry_space_group_name_H-M   'P 1'
_cell_length_a   4.97352403
_cell_length_b   9.24351671
_cell_length_c   6.24156100
_cell_angle_alpha   89.99882645
_cell_angle_beta   90.00073469
_cell_angle_gamma   97.01219666
_symmetry_Int_Tables_number   1
_chemical_formula_structural   LiVSiO4
_chemical_formula_sum   'Li4 V4 Si4 O16'
_cell_volume   284.79608755
_cell_formula_units_Z   4
loop_
 _symmetry_equiv_pos_site_id
 _symmetry_equiv_pos_as_xyz
  1  'x, y, z'
loop_
 _atom_site_type_symbol
 _atom_site_label
 _atom_site_symmetry_multiplicity
 _atom_site_fract_x
 _atom_site_fract_y
 _atom_site_fract_z
 _atom_site_occupancy
  Li  Li0  1  0.49367000  0.16455300  0.25000400  1
  Li  Li1  1  0.99367000  0.66455200  0.24999600  1
  Li  Li2  1  0.00633000  0.33544900  0.75000300  1
  Li  Li3  1  0.50633000  0.83544800  0.74999600  1
  V  V0  1  0.50000600  0.50000000  0.99999900  1
  V  V1  1  0.00000300  0.00000500  0.50000600  1
  V  V2  1  0.00000500  0.99999600  0.99999700  1
  V  V3  1  0.49999400  0.49999600  0.50000500  1
  Si  Si0  1  0.52263900  0.17424100  0.75001100  1
  Si  Si1  1  0.02263900  0.67424000  0.74999000  1
  Si  Si2  1  0.97736100  0.32575900  0.25001000  1
  Si  Si3  1  0.47736000  0.82575900  0.24998800  1
  O  O0  1  0.67064200  0.38374900  0.25005200  1
  O  O1  1  0.17064000  0.88374900  0.24994200  1
  O  O2  1  0.58908400  0.35655700  0.75003300  1
  O  O3  1  0.08908600  0.85655600  0.74996200  1
  O  O4  1  0.82936000  0.11625100  0.75005800  1
  O  O5  1  0.32935800  0.61625200  0.74994700  1
  O  O6  1  0.91091400  0.14344400  0.25003700  1
  O  O7  1  0.41091500  0.64344400  0.24996800  1
  O  O8  1  0.14461500  0.38152000  0.03556600  1
  O  O9  1  0.64461800  0.88152200  0.03556400  1
  O  O10  1  0.35538400  0.11848000  0.53556600  1
  O  O11  1  0.85538300  0.61847700  0.53556300  1
  O  O12  1  0.14461700  0.38152300  0.46443500  1
  O  O13  1  0.64461400  0.88152000  0.46443300  1
  O  O14  1  0.35538100  0.11847800  0.96443700  1
  O  O15  1  0.85538400  0.61848000  0.96443400  1
loop_
_geom_bond_atom_site_label_1
_geom_bond_atom_site_label_2
_geom_bond_distance
_geom_bond_site_symmetry_2
Li0 O10 1.938985 1_555
Li0 O14 1.939021 1_554
Li0 O6 2.107909 1_555
Li0 O0 2.108206 1_555
Li1 O15 1.938983 1_554
Li1 O11 1.939018 1_555
Li1 O7 2.107912 1_655
Li1 O1 2.108211 1_655
Li2 O8 1.938985 1_556
Li2 O12 1.939022 1_555
Li2 O2 2.107917 1_455
Li2 O4 2.108220 1_455
Li3 O13 1.938986 1_555
Li3 O9 1.939024 1_556
Li3 O3 2.107907 1_555
Li3 O5 2.108206 1_555
O0 Si2 1.677514 1_555
O0 V3 2.128760 1_555
O0 V0 2.129163 1_554
O1 Si3 1.677519 1_555
O1 V2 2.128646 1_554
O1 V1 2.129289 1_565
O2 Si0 1.677280 1_555
O2 V0 2.128854 1_555
O2 V3 2.129082 1_555
O3 Si1 1.677281 1_555
O3 V1 2.128803 1_565
O3 V2 2.129156 1_555
O4 Si0 1.677523 1_555
O4 V2 2.128682 1_645
O4 V1 2.129197 1_655
O5 Si1 1.677506 1_555
O5 V3 2.128729 1_555
O5 V0 2.129191 1_555
O6 Si2 1.677272 1_555
O6 V1 2.128811 1_655
O6 V2 2.129241 1_644
O7 Si3 1.677271 1_555
O7 V0 2.128892 1_554
O7 V3 2.129162 1_555
O8 Si2 1.626171 1_455
O8 V0 1.974908 1_554
O9 Si3 1.626082 1_555
O9 V2 1.974867 1_654
O10 Si0 1.626178 1_555
O10 V1 1.974841 1_555
O11 Si1 1.626093 1_655
O11 V3 1.974897 1_555
O12 Si2 1.626085 1_455
O12 V3 1.974824 1_555
O13 Si3 1.626176 1_555
O13 V1 1.974924 1_665
O14 Si0 1.626092 1_555
O14 V2 1.974850 1_545
O15 Si1 1.626171 1_655
O15 V0 1.974853 1_555
