# generated using pymatgen
data_Li2NiO2F
_symmetry_space_group_name_H-M   'P 1'
_cell_length_a   5.02086179
_cell_length_b   9.16389954
_cell_length_c   5.02047786
_cell_angle_alpha   99.99976933
_cell_angle_beta   71.09299551
_cell_angle_gamma   78.72573160
_symmetry_Int_Tables_number   1
_chemical_formula_structural   Li2NiO2F
_chemical_formula_sum   'Li8 Ni4 O8 F4'
_cell_volume   207.20533049
_cell_formula_units_Z   4
loop_
 _symmetry_equiv_pos_site_id
 _symmetry_equiv_pos_as_xyz
  1  'x, y, z'
loop_
 _atom_site_type_symbol
 _atom_site_label
 _atom_site_symmetry_multiplicity
 _atom_site_fract_x
 _atom_site_fract_y
 _atom_site_fract_z
 _atom_site_occupancy
  Li  Li0  1  0.99507300  0.99466500  0.49098000  1
  Li  Li1  1  0.58158800  0.83206600  0.40651400  1
  Li  Li2  1  0.16466200  0.66973800  0.34768700  1
  Li  Li3  1  0.74132600  0.49544600  0.27220800  1
  Li  Li4  1  0.24598100  0.49483700  0.74173100  1
  Li  Li5  1  0.32661600  0.33292700  0.16898300  1
  Li  Li6  1  0.42566500  0.17122400  0.58952600  1
  Li  Li7  1  0.52667500  0.99509600  0.98698000  1
  Ni  Ni0  1  0.09424100  0.83431800  0.90730200  1
  Ni  Ni1  1  0.65872600  0.67228100  0.82541900  1
  Ni  Ni2  1  0.82350700  0.33426400  0.67781600  1
  Ni  Ni3  1  0.90342500  0.17219700  0.08063400  1
  O  O0  1  0.34633400  0.82443200  0.12028000  1
  O  O1  1  0.86121700  0.82588300  0.68159200  1
  O  O2  1  0.39991100  0.67449200  0.61799800  1
  O  O3  1  0.95375100  0.50042000  0.55014500  1
  O  O4  1  0.60536400  0.32575700  0.43686000  1
  O  O5  1  0.04595900  0.32472200  0.92045700  1
  O  O6  1  0.69387900  0.17446200  0.82438400  1
  O  O7  1  0.80053900  0.00008800  0.20301000  1
  F  F0  1  0.89436900  0.66492100  0.10031100  1
  F  F1  1  0.46568200  0.50110700  0.03069000  1
  F  F2  1  0.18483700  0.16486400  0.30800600  1
  F  F3  1  0.28007300  0.00095300  0.71461800  1
loop_
_geom_bond_atom_site_label_1
_geom_bond_atom_site_label_2
_geom_bond_distance
_geom_bond_site_symmetry_2
Li0 O7 1.991924 1_565
Li0 O6 2.056917 1_565
Li0 O1 2.064808 1_555
Li0 O0 2.190083 1_655
Li1 O2 2.112893 1_555
Li1 O0 2.136013 1_555
Li1 O7 2.259080 1_565
Li1 O1 2.265880 1_555
Li2 O1 1.959141 1_455
Li2 O2 2.068117 1_555
Li2 O0 2.130224 1_555
Li2 O3 2.248257 1_455
Li3 O3 2.011989 1_555
Li3 O4 2.015731 1_555
Li3 O5 2.063991 1_654
Li3 O2 2.151003 1_555
Li4 O3 1.995728 1_455
Li4 O2 2.057959 1_555
Li4 O4 2.071887 1_555
Li4 O5 2.181260 1_555
Li5 O6 2.124882 1_554
Li5 O5 2.167122 1_554
Li5 O4 2.232999 1_555
Li5 O3 2.248840 1_455
Li6 O4 1.958389 1_555
Li6 O6 2.058439 1_555
Li6 O5 2.112023 1_555
Li6 O7 2.278069 1_555
Li7 O7 2.010709 1_566
Li7 O1 2.015814 1_555
Li7 O0 2.058680 1_556
Li7 O6 2.152736 1_565
Ni0 O1 1.876979 1_455
Ni0 O2 1.883563 1_555
Ni0 O7 1.899562 1_466
Ni0 O0 1.902484 1_556
Ni1 O0 1.875883 1_556
Ni1 O3 1.894660 1_555
Ni1 O2 1.909833 1_555
Ni1 O1 1.993274 1_555
Ni2 O4 1.878401 1_555
Ni2 O6 1.883106 1_555
Ni2 O3 1.900930 1_555
Ni2 O5 1.902528 1_655
Ni3 O5 1.876425 1_654
Ni3 O7 1.892422 1_555
Ni3 O6 1.907966 1_554
Ni3 O4 1.996579 1_555
F0 Li1 1.962841 1_555
F0 Li3 2.061439 1_555
F0 Ni1 2.090047 1_554
F0 Li2 2.117257 1_655
F0 Li4 2.162594 1_654
F0 Ni0 2.203884 1_654
F1 Li5 1.955259 1_555
F1 Li2 1.969500 1_555
F1 Li4 2.087482 1_554
F1 Li3 2.114145 1_555
F1 Ni2 2.150930 1_554
F1 Ni1 2.229491 1_554
F2 Li5 1.961080 1_555
F2 Li7 2.063042 1_544
F2 Ni3 2.082959 1_455
F2 Li6 2.137653 1_555
F2 Li0 2.166954 1_445
F2 Ni2 2.205259 1_455
F3 Li1 1.953110 1_545
F3 Li6 1.962713 1_555
F3 Li0 2.088662 1_445
F3 Li7 2.121876 1_545
F3 Ni0 2.150196 1_545
F3 Ni3 2.236434 1_456
