# generated using pymatgen
data_Na2Ni2(B4O7)3
_symmetry_space_group_name_H-M   'P 1'
_cell_length_a   11.73914607
_cell_length_b   11.73914607
_cell_length_c   17.14224362
_cell_angle_alpha   56.76203638
_cell_angle_beta   56.76203638
_cell_angle_gamma   22.15721218
_symmetry_Int_Tables_number   1
_chemical_formula_structural   Na2Ni2(B4O7)3
_chemical_formula_sum   'Na4 Ni4 B24 O42'
_cell_volume   739.03249397
_cell_formula_units_Z   2
loop_
 _symmetry_equiv_pos_site_id
 _symmetry_equiv_pos_as_xyz
  1  'x, y, z'
loop_
 _atom_site_type_symbol
 _atom_site_label
 _atom_site_symmetry_multiplicity
 _atom_site_fract_x
 _atom_site_fract_y
 _atom_site_fract_z
 _atom_site_occupancy
  Na  Na0  1  0.40816900  0.30294800  0.99290000  1
  Na  Na1  1  0.30294800  0.40816900  0.49290000  1
  Na  Na2  1  0.59183100  0.69705200  0.00710000  1
  Na  Na3  1  0.69705200  0.59183100  0.50710000  1
  Ni  Ni0  1  0.53959600  0.55566600  0.39358500  1
  Ni  Ni1  1  0.46040400  0.44433400  0.60641500  1
  Ni  Ni2  1  0.55566600  0.53959600  0.89358500  1
  Ni  Ni3  1  0.44433400  0.46040400  0.10641500  1
  B  B0  1  0.04956400  0.06213300  0.00663400  1
  B  B1  1  0.02959200  0.94229600  0.82772300  1
  B  B2  1  0.61990500  0.88798300  0.31920000  1
  B  B3  1  0.94229600  0.02959200  0.32772300  1
  B  B4  1  0.08754100  0.57979000  0.29552100  1
  B  B5  1  0.42021000  0.91245900  0.20447900  1
  B  B6  1  0.57979000  0.08754100  0.79552100  1
  B  B7  1  0.38009500  0.11201700  0.68080000  1
  B  B8  1  0.81129000  0.86798000  0.65568100  1
  B  B9  1  0.88798300  0.61990500  0.81920000  1
  B  B10  1  0.06213300  0.04956400  0.50663400  1
  B  B11  1  0.26195200  0.56185200  0.79942700  1
  B  B12  1  0.93786700  0.95043600  0.49336600  1
  B  B13  1  0.05770400  0.97040800  0.67227700  1
  B  B14  1  0.73804800  0.43814800  0.20057300  1
  B  B15  1  0.86798000  0.81129000  0.15568200  1
  B  B16  1  0.18871000  0.13202000  0.34431800  1
  B  B17  1  0.13202000  0.18871000  0.84431800  1
  B  B18  1  0.43814800  0.73804800  0.70057300  1
  B  B19  1  0.56185200  0.26195200  0.29942700  1
  B  B20  1  0.11201700  0.38009500  0.18080000  1
  B  B21  1  0.91245900  0.42021000  0.70447900  1
  B  B22  1  0.97040800  0.05770400  0.17227700  1
  B  B23  1  0.95043600  0.93786700  0.99336600  1
  O  O0  1  0.03931000  0.75340500  0.57537100  1
  O  O1  1  0.68855200  0.21521900  0.20564700  1
  O  O2  1  0.83492200  0.11288300  0.90696300  1
  O  O3  1  0.60528000  0.68599100  0.16438200  1
  O  O4  1  0.21521900  0.68855200  0.70564700  1
  O  O5  1  0.69025600  0.15430900  0.36305700  1
  O  O6  1  0.01745500  0.59301900  0.12041000  1
  O  O7  1  0.39472000  0.31400900  0.83561800  1
  O  O8  1  0.31400900  0.39472000  0.33561800  1
  O  O9  1  0.24659500  0.96069000  0.92462900  1
  O  O10  1  0.15430900  0.69025600  0.86305700  1
  O  O11  1  0.70282700  0.85271000  0.85717200  1
  O  O12  1  0.78478100  0.31144800  0.29435300  1
  O  O13  1  0.02017400  0.39379600  0.27478900  1
  O  O14  1  0.86564600  0.13435400  0.75000000  1
  O  O15  1  0.67342700  0.25256300  0.49622600  1
  O  O16  1  0.59301900  0.01745500  0.62041000  1
  O  O17  1  0.16507800  0.88711700  0.09303700  1
  O  O18  1  0.25256300  0.67342700  0.99622600  1
  O  O19  1  0.98254500  0.40698100  0.87959000  1
  O  O20  1  0.40698100  0.98254500  0.37959000  1
  O  O21  1  0.75340500  0.03931000  0.07537100  1
  O  O22  1  0.63420600  0.10039600  0.69939400  1
  O  O23  1  0.10039600  0.63420600  0.19939400  1
  O  O24  1  0.13435400  0.86564600  0.25000000  1
  O  O25  1  0.68599100  0.60528000  0.66438200  1
  O  O26  1  0.32657300  0.74743700  0.50377400  1
  O  O27  1  0.36579400  0.89960400  0.30060600  1
  O  O28  1  0.84569100  0.30974400  0.13694300  1
  O  O29  1  0.74743700  0.32657300  0.00377400  1
  O  O30  1  0.97982600  0.60620400  0.72521100  1
  O  O31  1  0.60620400  0.97982600  0.22521100  1
  O  O32  1  0.11288300  0.83492200  0.40696300  1
  O  O33  1  0.96069000  0.24659500  0.42462900  1
  O  O34  1  0.89960400  0.36579400  0.80060600  1
  O  O35  1  0.31144800  0.78478100  0.79435300  1
  O  O36  1  0.30974400  0.84569100  0.63694300  1
  O  O37  1  0.85271000  0.70282700  0.35717200  1
  O  O38  1  0.39379600  0.02017400  0.77478900  1
  O  O39  1  0.14729000  0.29717300  0.64282800  1
  O  O40  1  0.88711700  0.16507800  0.59303700  1
  O  O41  1  0.29717300  0.14729000  0.14282800  1
loop_
_geom_bond_atom_site_label_1
_geom_bond_atom_site_label_2
_geom_bond_distance
_geom_bond_site_symmetry_2
Na0 O10 2.363703 1_555
Na0 O6 2.376846 1_556
Na0 O21 2.500652 1_556
Na0 O2 2.655961 1_555
Na0 O41 2.689441 1_556
Na0 O7 2.712191 1_555
Na0 O18 2.774327 1_555
Na1 O5 2.363703 1_555
Na1 O16 2.376846 1_555
Na1 O0 2.500652 1_555
Na1 O32 2.655961 1_555
Na1 O39 2.689441 1_555
Na1 O8 2.712191 1_555
Na1 O15 2.774327 1_555
Na2 O28 2.363703 1_555
Na2 O19 2.376846 1_554
Na2 O9 2.500652 1_554
Na2 O17 2.655961 1_555
Na2 O11 2.689441 1_554
Na2 O3 2.712191 1_555
Na2 O29 2.774327 1_555
Na3 O36 2.363703 1_555
Na3 O20 2.376846 1_555
Na3 O33 2.500652 1_555
Na3 O40 2.655961 1_555
Na3 O37 2.689441 1_555
Na3 O25 2.712191 1_555
Na3 O26 2.774327 1_555
Ni0 O26 1.986207 1_555
Ni0 O15 2.009299 1_555
Ni0 O12 2.022696 1_555
Ni0 O27 2.063104 1_555
Ni0 O32 2.244818 1_555
Ni0 O33 2.329958 1_555
Ni1 O15 1.986207 1_555
Ni1 O26 2.009299 1_555
Ni1 O4 2.022696 1_555
Ni1 O22 2.063104 1_555
Ni1 O40 2.244818 1_555
Ni1 O0 2.329958 1_555
Ni2 O29 1.986207 1_556
Ni2 O18 2.009299 1_555
Ni2 O35 2.022696 1_555
Ni2 O34 2.063104 1_555
Ni2 O2 2.244818 1_555
Ni2 O9 2.329958 1_555
Ni3 O18 1.986207 1_554
Ni3 O29 2.009299 1_555
Ni3 O1 2.022696 1_555
Ni3 O23 2.063104 1_555
Ni3 O17 2.244818 1_555
Ni3 O21 2.329958 1_555
B0 O29 1.359427 1_455
B0 O9 1.383068 1_544
B0 O17 1.399651 1_545
B1 O14 1.429309 1_465
B1 O2 1.476471 1_465
B1 O10 1.499411 1_555
B1 O35 1.564007 1_555
B2 O20 1.354725 1_555
B2 O31 1.357495 1_555
B2 O37 1.418826 1_555
B3 O24 1.429309 1_645
B3 O32 1.476471 1_645
B3 O5 1.499411 1_555
B3 O12 1.564007 1_555
B4 O23 1.377758 1_555
B4 O37 1.380887 1_455
B4 O8 1.388479 1_555
B5 O27 1.377758 1_555
B5 O41 1.380887 1_565
B5 O3 1.388479 1_555
B6 O22 1.377758 1_555
B6 O11 1.380887 1_545
B6 O7 1.388479 1_555
B7 O16 1.354725 1_555
B7 O38 1.357495 1_555
B7 O39 1.418826 1_555
B8 O30 1.444472 1_555
B8 O0 1.480112 1_655
B8 O16 1.489007 1_565
B8 O22 1.534500 1_565
B9 O19 1.354725 1_555
B9 O30 1.357495 1_555
B9 O11 1.418826 1_555
B10 O26 1.359427 1_545
B10 O33 1.383068 1_455
B10 O40 1.399651 1_455
B11 O10 1.349777 1_555
B11 O4 1.389883 1_555
B11 O7 1.400280 1_555
B12 O15 1.359427 1_565
B12 O0 1.383068 1_655
B12 O32 1.399651 1_655
B13 O14 1.429309 1_465
B13 O40 1.476471 1_465
B13 O36 1.499411 1_555
B13 O4 1.564007 1_555
B14 O28 1.349777 1_555
B14 O12 1.389883 1_555
B14 O3 1.400280 1_555
B15 O31 1.444465 1_555
B15 O21 1.480120 1_565
B15 O6 1.489019 1_655
B15 O23 1.534488 1_655
B16 O13 1.444465 1_555
B16 O33 1.480120 1_455
B16 O20 1.489019 1_545
B16 O27 1.534488 1_545
B17 O38 1.444465 1_555
B17 O9 1.480120 1_545
B17 O19 1.489019 1_455
B17 O34 1.534488 1_455
B18 O36 1.349777 1_555
B18 O35 1.389883 1_555
B18 O25 1.400280 1_555
B19 O5 1.349777 1_555
B19 O1 1.389883 1_555
B19 O8 1.400280 1_555
B20 O6 1.354725 1_555
B20 O13 1.357495 1_555
B20 O41 1.418826 1_555
B21 O34 1.377758 1_555
B21 O39 1.380887 1_655
B21 O25 1.388479 1_555
B22 O24 1.429309 1_645
B22 O17 1.476471 1_645
B22 O28 1.499411 1_555
B22 O1 1.564007 1_555
B23 O18 1.359427 1_655
B23 O21 1.383068 1_566
B23 O2 1.399651 1_565
