# generated using pymatgen
data_LiMn4(PO4)3
_symmetry_space_group_name_H-M   'P 1'
_cell_length_a   6.69112000
_cell_length_b   9.31283600
_cell_length_c   15.06182573
_cell_angle_alpha   89.84413309
_cell_angle_beta   90.00000000
_cell_angle_gamma   90.00000000
_symmetry_Int_Tables_number   1
_chemical_formula_structural   LiMn4(PO4)3
_chemical_formula_sum   'Li4 Mn16 P12 O48'
_cell_volume   938.54864098
_cell_formula_units_Z   4
loop_
 _symmetry_equiv_pos_site_id
 _symmetry_equiv_pos_as_xyz
  1  'x, y, z'
loop_
 _atom_site_type_symbol
 _atom_site_label
 _atom_site_symmetry_multiplicity
 _atom_site_fract_x
 _atom_site_fract_y
 _atom_site_fract_z
 _atom_site_occupancy
  Li  Li0  1  0.50000000  0.34208100  0.67761000  1
  Li  Li1  1  0.00000000  0.15538800  0.50863800  1
  Li  Li2  1  0.00000000  0.16138000  0.83609800  1
  Li  Li3  1  0.00000000  0.15812700  0.17249400  1
  Mn  Mn0  1  0.74073000  0.99905900  0.66777900  1
  Mn  Mn1  1  0.25332600  0.00763300  0.99450000  1
  Mn  Mn2  1  0.74667400  0.00763300  0.99450000  1
  Mn  Mn3  1  0.24863100  0.99404700  0.33875800  1
  Mn  Mn4  1  0.75136900  0.99404700  0.33875800  1
  Mn  Mn5  1  0.25927000  0.99905900  0.66777900  1
  Mn  Mn6  1  0.50000000  0.84980100  0.15976500  1
  Mn  Mn7  1  0.00000000  0.65537100  0.65956300  1
  Mn  Mn8  1  0.00000000  0.64499800  0.99417900  1
  Mn  Mn9  1  0.24762800  0.49448600  0.16735700  1
  Mn  Mn10  1  0.75237200  0.49448600  0.16735700  1
  Mn  Mn11  1  0.25195900  0.50938100  0.49754200  1
  Mn  Mn12  1  0.25949100  0.49457400  0.83329100  1
  Mn  Mn13  1  0.74804100  0.50938100  0.49754200  1
  Mn  Mn14  1  0.74050900  0.49457400  0.83329100  1
  Mn  Mn15  1  0.50000000  0.35304700  0.34058800  1
  P  P0  1  0.00000000  0.82130300  0.49327700  1
  P  P1  1  0.00000000  0.82346600  0.16257400  1
  P  P2  1  0.00000000  0.82280500  0.82523200  1
  P  P3  1  0.50000000  0.67254200  0.32367900  1
  P  P4  1  0.50000000  0.68192400  0.66562300  1
  P  P5  1  0.50000000  0.68246000  0.99524900  1
  P  P6  1  0.00000000  0.31848200  0.33763200  1
  P  P7  1  0.00000000  0.32344000  0.00807200  1
  P  P8  1  0.00000000  0.31955800  0.67037800  1
  P  P9  1  0.50000000  0.17987700  0.83591600  1
  P  P10  1  0.50000000  0.17269600  0.17356200  1
  P  P11  1  0.50000000  0.17947100  0.50703400  1
  O  O0  1  0.19077900  0.88094100  0.11492100  1
  O  O1  1  0.18954300  0.87937300  0.78216300  1
  O  O2  1  0.19029400  0.87780400  0.45013400  1
  O  O3  1  0.80970600  0.87780400  0.45013400  1
  O  O4  1  0.81045700  0.87937300  0.78216300  1
  O  O5  1  0.80922100  0.88094100  0.11492100  1
  O  O6  1  0.00000000  0.87014200  0.26014900  1
  O  O7  1  0.00000000  0.86416100  0.59610700  1
  O  O8  1  0.00000000  0.85498700  0.92908600  1
  O  O9  1  0.50000000  0.84276900  0.30689300  1
  O  O10  1  0.50000000  0.85038600  0.99270200  1
  O  O11  1  0.50000000  0.84611700  0.65488600  1
  O  O12  1  0.00000000  0.65584000  0.14088200  1
  O  O13  1  0.00000000  0.65115300  0.49337200  1
  O  O14  1  0.00000000  0.65019200  0.81245000  1
  O  O15  1  0.50000000  0.63891700  0.09690200  1
  O  O16  1  0.50000000  0.62071300  0.42226800  1
  O  O17  1  0.50000000  0.62202300  0.76246800  1
  O  O18  1  0.31103800  0.61587000  0.27769500  1
  O  O19  1  0.30865700  0.62173600  0.61880600  1
  O  O20  1  0.30794200  0.62498900  0.95104800  1
  O  O21  1  0.69134300  0.62173600  0.61880600  1
  O  O22  1  0.69205800  0.62498900  0.95104800  1
  O  O23  1  0.68896200  0.61587000  0.27769500  1
  O  O24  1  0.18773900  0.38630500  0.05156200  1
  O  O25  1  0.19163000  0.37923600  0.38122200  1
  O  O26  1  0.81226100  0.38630500  0.05156200  1
  O  O27  1  0.80837000  0.37923600  0.38122200  1
  O  O28  1  0.18982100  0.38283700  0.71396400  1
  O  O29  1  0.81017900  0.38283700  0.71396400  1
  O  O30  1  0.00000000  0.35375100  0.23592000  1
  O  O31  1  0.00000000  0.36504200  0.90626000  1
  O  O32  1  0.00000000  0.36034600  0.56904400  1
  O  O33  1  0.50000000  0.34106200  0.19300100  1
  O  O34  1  0.50000000  0.34717400  0.84389100  1
  O  O35  1  0.50000000  0.34989400  0.51634700  1
  O  O36  1  0.00000000  0.15302900  0.68735100  1
  O  O37  1  0.00000000  0.15479900  0.02285900  1
  O  O38  1  0.00000000  0.15243400  0.35578700  1
  O  O39  1  0.50000000  0.14016800  0.73449900  1
  O  O40  1  0.50000000  0.14383100  0.40357700  1
  O  O41  1  0.50000000  0.12513100  0.07488900  1
  O  O42  1  0.69442700  0.12395000  0.87966000  1
  O  O43  1  0.30557300  0.12395000  0.87966000  1
  O  O44  1  0.69347900  0.12366700  0.54934800  1
  O  O45  1  0.69163200  0.11460800  0.21899400  1
  O  O46  1  0.30836800  0.11460800  0.21899400  1
  O  O47  1  0.30652100  0.12366700  0.54934800  1
loop_
_geom_bond_atom_site_label_1
_geom_bond_atom_site_label_2
_geom_bond_distance
_geom_bond_site_symmetry_2
Li0 O39 2.064284 1_555
Li0 O29 2.180019 1_555
Li0 O28 2.180019 1_555
Li0 O35 2.429807 1_555
Li0 O34 2.505074 1_555
Li1 O32 2.116724 1_555
Li1 O47 2.160724 1_555
Li1 O44 2.160724 1_455
Li1 O38 2.302454 1_555
Li2 O31 2.173712 1_555
Li2 O42 2.175145 1_455
Li2 O43 2.175145 1_555
Li2 O36 2.241962 1_555
Li3 O30 2.059392 1_555
Li3 O46 2.215978 1_555
Li3 O45 2.215978 1_455
Li3 O37 2.254074 1_555
Mn0 O4 2.101842 1_555
Mn0 O44 2.148778 1_565
Mn0 O11 2.159268 1_555
Mn0 O36 2.270422 1_665
Mn0 O39 2.310522 1_565
Mn0 O7 2.400109 1_655
Mn1 O43 2.068162 1_555
Mn1 O0 2.201206 1_546
Mn1 O10 2.206739 1_545
Mn1 O37 2.221966 1_556
Mn1 O41 2.322682 1_556
Mn1 O8 2.423292 1_545
Mn2 O42 2.068162 1_555
Mn2 O5 2.201206 1_546
Mn2 O10 2.206739 1_545
Mn2 O37 2.221966 1_656
Mn2 O41 2.322682 1_556
Mn2 O8 2.423292 1_645
Mn3 O2 2.031870 1_555
Mn3 O46 2.159462 1_565
Mn3 O38 2.238570 1_565
Mn3 O9 2.246718 1_555
Mn3 O6 2.347000 1_555
Mn3 O40 2.394841 1_565
Mn4 O3 2.031870 1_555
Mn4 O45 2.159462 1_565
Mn4 O38 2.238570 1_665
Mn4 O9 2.246718 1_555
Mn4 O6 2.347000 1_655
Mn4 O40 2.394841 1_565
Mn5 O1 2.101842 1_555
Mn5 O47 2.148778 1_565
Mn5 O11 2.159268 1_555
Mn5 O36 2.270422 1_565
Mn5 O39 2.310522 1_565
Mn5 O7 2.400109 1_555
Mn6 O15 2.182572 1_555
Mn6 O0 2.195484 1_555
Mn6 O5 2.195484 1_555
Mn6 O9 2.216806 1_555
Mn6 O10 2.516265 1_554
Mn7 O7 2.164294 1_555
Mn7 O21 2.177455 1_455
Mn7 O19 2.177455 1_555
Mn7 O14 2.303131 1_555
Mn7 O13 2.503555 1_555
Mn8 O20 2.168633 1_555
Mn8 O22 2.168633 1_455
Mn8 O8 2.185208 1_555
Mn8 O12 2.212195 1_556
Mn9 O24 2.055959 1_555
Mn9 O18 2.056695 1_555
Mn9 O33 2.244823 1_555
Mn9 O12 2.271364 1_555
Mn9 O30 2.349936 1_555
Mn9 O15 2.403971 1_555
Mn10 O26 2.055959 1_555
Mn10 O23 2.056695 1_555
Mn10 O33 2.244823 1_555
Mn10 O12 2.271364 1_655
Mn10 O30 2.349936 1_655
Mn10 O15 2.403971 1_555
Mn11 O19 2.141285 1_555
Mn11 O13 2.142172 1_555
Mn11 O25 2.170937 1_555
Mn11 O35 2.244658 1_555
Mn11 O16 2.260205 1_555
Mn11 O32 2.433163 1_555
Mn12 O34 2.120943 1_555
Mn12 O28 2.130854 1_555
Mn12 O20 2.176625 1_555
Mn12 O17 2.264848 1_555
Mn12 O14 2.282774 1_555
Mn12 O31 2.381294 1_555
Mn13 O21 2.141285 1_555
Mn13 O13 2.142172 1_655
Mn13 O27 2.170937 1_555
Mn13 O35 2.244658 1_555
Mn13 O16 2.260205 1_555
Mn13 O32 2.433163 1_655
Mn14 O34 2.120943 1_555
Mn14 O29 2.130854 1_555
Mn14 O22 2.176625 1_555
Mn14 O17 2.264848 1_555
Mn14 O14 2.282774 1_655
Mn14 O31 2.381294 1_655
Mn15 O40 2.164780 1_555
Mn15 O25 2.166158 1_555
Mn15 O27 2.166158 1_555
Mn15 O33 2.226033 1_555
Mn15 O35 2.647334 1_555
O0 P1 1.558550 1_555
O1 P2 1.518205 1_555
O2 P0 1.522665 1_555
O3 P0 1.522665 1_655
O4 P2 1.518205 1_655
O5 P1 1.558550 1_655
O6 P1 1.533728 1_555
O7 P0 1.600460 1_555
O8 P2 1.593484 1_555
O9 P3 1.604651 1_555
O10 P5 1.564233 1_555
O11 P4 1.537193 1_555
O12 P1 1.595767 1_555
O13 P0 1.584576 1_555
O14 P2 1.619524 1_555
O15 P5 1.582803 1_554
O16 P3 1.560158 1_555
O17 P4 1.560277 1_555
O18 P3 1.535858 1_555
O19 P4 1.566121 1_555
O20 P5 1.543715 1_555
O21 P4 1.566121 1_555
O22 P5 1.543715 1_555
O23 P3 1.535858 1_555
O24 P7 1.533595 1_555
O25 P6 1.548315 1_555
O26 P7 1.533595 1_655
O27 P6 1.548315 1_655
O28 P8 1.547111 1_555
O29 P8 1.547111 1_655
O30 P6 1.565909 1_555
O31 P7 1.580638 1_556
O32 P8 1.571830 1_555
O33 P10 1.595850 1_555
O34 P9 1.562959 1_555
O35 P11 1.593688 1_555
O36 P8 1.571100 1_555
O37 P7 1.585639 1_555
O38 P6 1.569636 1_555
O39 P9 1.572629 1_555
O40 P11 1.594091 1_555
O41 P10 1.551959 1_555
O42 P9 1.547882 1_555
O43 P9 1.547882 1_555
O44 P11 1.533111 1_555
O45 P10 1.550161 1_555
O46 P10 1.550161 1_555
O47 P11 1.533111 1_555
