# generated using pymatgen
data_Li2Fe2OF6
_symmetry_space_group_name_H-M   'P 1'
_cell_length_a   5.69348800
_cell_length_b   7.05750421
_cell_length_c   7.28996807
_cell_angle_alpha   64.26008844
_cell_angle_beta   70.58285924
_cell_angle_gamma   76.74128177
_symmetry_Int_Tables_number   1
_chemical_formula_structural   Li2Fe2OF6
_chemical_formula_sum   'Li4 Fe4 O2 F12'
_cell_volume   247.60331490
_cell_formula_units_Z   2
loop_
 _symmetry_equiv_pos_site_id
 _symmetry_equiv_pos_as_xyz
  1  'x, y, z'
loop_
 _atom_site_type_symbol
 _atom_site_label
 _atom_site_symmetry_multiplicity
 _atom_site_fract_x
 _atom_site_fract_y
 _atom_site_fract_z
 _atom_site_occupancy
  Li  Li0  1  0.67704900  0.61182100  0.77185600  1
  Li  Li1  1  0.21235900  0.86738200  0.91688700  1
  Li  Li2  1  0.78764100  0.13261800  0.08311300  1
  Li  Li3  1  0.32295100  0.38817900  0.22814400  1
  Fe  Fe0  1  0.75953500  0.13277200  0.58545200  1
  Fe  Fe1  1  0.67695400  0.58356400  0.27364800  1
  Fe  Fe2  1  0.32304600  0.41643600  0.72635200  1
  Fe  Fe3  1  0.24046500  0.86722800  0.41454800  1
  O  O0  1  0.51325800  0.67468300  0.51505900  1
  O  O1  1  0.48674200  0.32531700  0.48494100  1
  F  F0  1  0.96423700  0.38942300  0.37759300  1
  F  F1  1  0.58067500  0.89294400  0.76812300  1
  F  F2  1  0.85918500  0.82506700  0.09318300  1
  F  F3  1  0.66610600  0.26242900  0.80035100  1
  F  F4  1  0.90707000  0.02039200  0.35557000  1
  F  F5  1  0.70837800  0.46160400  0.06826300  1
  F  F6  1  0.29162200  0.53839600  0.93173700  1
  F  F7  1  0.09293000  0.97960800  0.64443000  1
  F  F8  1  0.33389400  0.73757100  0.19964900  1
  F  F9  1  0.14081500  0.17493300  0.90681700  1
  F  F10  1  0.41932500  0.10705600  0.23187700  1
  F  F11  1  0.03576300  0.61057700  0.62240700  1
loop_
_geom_bond_atom_site_label_1
_geom_bond_atom_site_label_2
_geom_bond_distance
_geom_bond_site_symmetry_2
Li0 O0 2.195583 1_555
Li3 O1 2.195583 1_555
Fe0 O1 1.928585 1_555
Fe1 O0 1.999215 1_555
Fe1 O1 2.055499 1_555
Fe2 O1 1.999215 1_555
Fe2 O0 2.055499 1_555
Fe3 O0 1.928585 1_555
F0 Li3 1.969474 1_655
F0 Fe1 2.005279 1_555
F0 Fe0 2.084575 1_555
F1 Fe0 1.899064 1_565
F1 Li0 1.924020 1_555
F1 Li1 2.024254 1_555
F2 Fe1 1.915267 1_555
F2 Li1 2.002008 1_654
F2 Li2 2.087702 1_565
F3 Fe0 2.010552 1_555
F3 Fe2 2.122473 1_555
F3 Li2 2.141143 1_556
F3 Li0 2.396735 1_555
F4 Fe0 2.013940 1_555
F4 Fe3 2.038182 1_645
F4 Li2 2.078273 1_555
F5 Fe1 1.971102 1_555
F5 Li0 2.001151 1_554
F5 Li3 2.176909 1_555
F5 Li2 2.222559 1_555
F6 Fe2 1.971102 1_555
F6 Li3 2.001151 1_556
F6 Li0 2.176909 1_555
F6 Li1 2.222559 1_555
F7 Fe3 2.013940 1_555
F7 Fe0 2.038182 1_465
F7 Li1 2.078273 1_555
F8 Fe3 2.010552 1_555
F8 Fe1 2.122473 1_555
F8 Li1 2.141143 1_554
F8 Li3 2.396735 1_555
F9 Fe2 1.915267 1_555
F9 Li2 2.002008 1_456
F9 Li1 2.087702 1_545
F10 Fe3 1.899064 1_545
F10 Li3 1.924020 1_555
F10 Li2 2.024254 1_555
F11 Li0 1.969474 1_455
F11 Fe2 2.005279 1_555
F11 Fe3 2.084575 1_555
