# generated using pymatgen
data_V3(O2F)2
_symmetry_space_group_name_H-M   'P 1'
_cell_length_a   4.71693252
_cell_length_b   4.71693252
_cell_length_c   9.02389834
_cell_angle_alpha   89.24057955
_cell_angle_beta   89.24057955
_cell_angle_gamma   90.10769023
_symmetry_Int_Tables_number   1
_chemical_formula_structural   V3(O2F)2
_chemical_formula_sum   'V6 O8 F4'
_cell_volume   200.74110248
_cell_formula_units_Z   2
loop_
 _symmetry_equiv_pos_site_id
 _symmetry_equiv_pos_as_xyz
  1  'x, y, z'
loop_
 _atom_site_type_symbol
 _atom_site_label
 _atom_site_symmetry_multiplicity
 _atom_site_fract_x
 _atom_site_fract_y
 _atom_site_fract_z
 _atom_site_occupancy
  V  V0  1  0.04084000  0.01517000  0.84647600  1
  V  V1  1  0.98483000  0.95916000  0.15352400  1
  V  V2  1  0.01068700  0.98931300  0.50000000  1
  V  V3  1  0.50905600  0.49094400  0.00000000  1
  V  V4  1  0.46544900  0.51561100  0.65423100  1
  V  V5  1  0.48438900  0.53455100  0.34576900  1
  O  O0  1  0.21316400  0.78683600  0.00000000  1
  O  O1  1  0.19085600  0.80528000  0.32797700  1
  O  O2  1  0.19472000  0.80914400  0.67202300  1
  O  O3  1  0.69289200  0.68324100  0.17036800  1
  O  O4  1  0.69824100  0.70930400  0.50277600  1
  O  O5  1  0.31675900  0.30710800  0.82963200  1
  O  O6  1  0.29069600  0.30175900  0.49722400  1
  O  O7  1  0.80847700  0.19152300  0.00000000  1
  F  F0  1  0.70705400  0.70551700  0.82892000  1
  F  F1  1  0.29448300  0.29294600  0.17108000  1
  F  F2  1  0.80418500  0.20677800  0.67016200  1
  F  F3  1  0.79322200  0.19581500  0.32983800  1
loop_
_geom_bond_atom_site_label_1
_geom_bond_atom_site_label_2
_geom_bond_distance
_geom_bond_site_symmetry_2
O0 V0 1.932252 1_564
O0 V1 1.932252 1_455
O0 V3 1.975676 1_555
O1 V5 1.892270 1_555
O1 V2 1.972054 1_555
O1 V1 1.990585 1_455
O2 V4 1.892270 1_555
O2 V2 1.972054 1_555
O2 V0 1.990585 1_565
O3 V1 1.896240 1_555
O3 V5 1.972598 1_555
O3 V3 2.001892 1_555
O4 V5 1.941669 1_555
O4 V4 1.957481 1_555
O4 V2 1.976859 1_655
O5 V0 1.896240 1_555
O5 V4 1.972598 1_555
O5 V3 2.001892 1_556
O6 V4 1.941669 1_555
O6 V5 1.957481 1_555
O6 V2 1.976859 1_545
O7 V1 1.950971 1_545
O7 V0 1.950971 1_654
O7 V3 1.999239 1_555
F0 V3 2.048610 1_556
F0 V0 2.154407 1_665
F0 V4 2.160406 1_555
F1 V3 2.048610 1_555
F1 V1 2.154407 1_445
F1 V5 2.160406 1_555
F2 V2 2.089182 1_645
F2 V0 2.146419 1_655
F2 V4 2.169103 1_555
F3 V2 2.089182 1_645
F3 V1 2.146419 1_545
F3 V5 2.169103 1_555
