# generated using pymatgen
data_Li3FeSiBO7
_symmetry_space_group_name_H-M   'P 1'
_cell_length_a   6.36767700
_cell_length_b   5.06565900
_cell_length_c   8.44345509
_cell_angle_alpha   85.48818909
_cell_angle_beta   90.00000000
_cell_angle_gamma   90.00000000
_symmetry_Int_Tables_number   1
_chemical_formula_structural   Li3FeSiBO7
_chemical_formula_sum   'Li6 Fe2 Si2 B2 O14'
_cell_volume   271.51214910
_cell_formula_units_Z   2
loop_
 _symmetry_equiv_pos_site_id
 _symmetry_equiv_pos_as_xyz
  1  'x, y, z'
loop_
 _atom_site_type_symbol
 _atom_site_label
 _atom_site_symmetry_multiplicity
 _atom_site_fract_x
 _atom_site_fract_y
 _atom_site_fract_z
 _atom_site_occupancy
  Li  Li0  1  0.75000000  0.24744400  0.89267900  1
  Li  Li1  1  0.00411400  0.75580100  0.75873400  1
  Li  Li2  1  0.49588600  0.75580100  0.75873400  1
  Li  Li3  1  0.50411400  0.24419900  0.24126600  1
  Li  Li4  1  0.99588600  0.24419900  0.24126600  1
  Li  Li5  1  0.25000000  0.75255600  0.10732100  1
  Fe  Fe0  1  0.25000000  0.20219900  0.66957300  1
  Fe  Fe1  1  0.75000000  0.79780100  0.33042700  1
  Si  Si0  1  0.75000000  0.27454900  0.57502200  1
  Si  Si1  1  0.25000000  0.72545100  0.42497800  1
  B  B0  1  0.25000000  0.26588500  0.96093000  1
  B  B1  1  0.75000000  0.73411500  0.03907000  1
  O  O0  1  0.75000000  0.64817200  0.89109500  1
  O  O1  1  0.25000000  0.00940900  0.91868200  1
  O  O2  1  0.25000000  0.45904400  0.83011600  1
  O  O3  1  0.94359200  0.17417900  0.69451200  1
  O  O4  1  0.55640800  0.17417900  0.69451200  1
  O  O5  1  0.75000000  0.59681400  0.53602200  1
  O  O6  1  0.25000000  0.85186200  0.59779100  1
  O  O7  1  0.75000000  0.14813800  0.40220900  1
  O  O8  1  0.25000000  0.40318600  0.46397800  1
  O  O9  1  0.44359200  0.82582100  0.30548800  1
  O  O10  1  0.05640800  0.82582100  0.30548800  1
  O  O11  1  0.75000000  0.54095600  0.16988400  1
  O  O12  1  0.75000000  0.99059100  0.08131800  1
  O  O13  1  0.25000000  0.35182800  0.10890500  1
loop_
_geom_bond_atom_site_label_1
_geom_bond_atom_site_label_2
_geom_bond_distance
_geom_bond_site_symmetry_2
Li0 O12 1.975801 1_546
Li0 O0 2.028943 1_555
Li0 O4 2.134177 1_555
Li0 O3 2.134177 1_555
Li1 O0 2.017098 1_455
Li1 O6 2.104969 1_555
Li1 O3 2.180239 1_465
Li1 O2 2.220816 1_555
Li1 O1 2.489733 1_565
Li1 O5 2.653549 1_455
Li2 O0 2.017098 1_555
Li2 O6 2.104969 1_555
Li2 O4 2.180239 1_565
Li2 O2 2.220816 1_555
Li2 O1 2.489733 1_565
Li2 O5 2.653549 1_555
Li3 O13 2.017098 1_555
Li3 O7 2.104969 1_555
Li3 O9 2.180239 1_545
Li3 O11 2.220816 1_555
Li3 O12 2.489733 1_545
Li3 O8 2.653549 1_555
Li4 O13 2.017098 1_655
Li4 O7 2.104969 1_555
Li4 O10 2.180239 1_645
Li4 O11 2.220816 1_555
Li4 O12 2.489733 1_545
Li4 O8 2.653549 1_655
Li5 O1 1.975801 1_564
Li5 O13 2.028943 1_555
Li5 O9 2.134177 1_555
Li5 O10 2.134177 1_555
Fe0 O6 1.919918 1_545
Fe0 O8 1.942161 1_555
Fe0 O2 1.951357 1_555
Fe0 O4 1.966368 1_555
Fe0 O3 1.966368 1_455
Fe0 O1 2.248250 1_555
Fe1 O7 1.919918 1_565
Fe1 O5 1.942161 1_555
Fe1 O11 1.951357 1_555
Fe1 O10 1.966368 1_655
Fe1 O9 1.966368 1_555
Fe1 O12 2.248250 1_555
B0 O13 1.355052 1_556
B0 O1 1.374095 1_555
B0 O2 1.416811 1_555
B1 O0 1.355052 1_554
B1 O12 1.374095 1_555
B1 O11 1.416811 1_555
O3 Si0 1.647826 1_555
O4 Si0 1.647826 1_555
O5 Si0 1.639776 1_555
O6 Si1 1.638946 1_555
O7 Si0 1.638946 1_555
O8 Si1 1.639776 1_555
O9 Si1 1.647826 1_555
O10 Si1 1.647826 1_555
