# generated using pymatgen
data_Li3Co(BO3)2
_symmetry_space_group_name_H-M   'P 1'
_cell_length_a   5.00500700
_cell_length_b   6.31619297
_cell_length_c   8.01008747
_cell_angle_alpha   74.57914044
_cell_angle_beta   89.34795134
_cell_angle_gamma   88.94438216
_symmetry_Int_Tables_number   1
_chemical_formula_structural   Li3Co(BO3)2
_chemical_formula_sum   'Li6 Co2 B4 O12'
_cell_volume   244.05641906
_cell_formula_units_Z   2
loop_
 _symmetry_equiv_pos_site_id
 _symmetry_equiv_pos_as_xyz
  1  'x, y, z'
loop_
 _atom_site_type_symbol
 _atom_site_label
 _atom_site_symmetry_multiplicity
 _atom_site_fract_x
 _atom_site_fract_y
 _atom_site_fract_z
 _atom_site_occupancy
  Li  Li0  1  0.17426400  0.89676400  0.92647100  1
  Li  Li1  1  0.32634400  0.02586000  0.25856800  1
  Li  Li2  1  0.33176300  0.74031600  0.60920000  1
  Li  Li3  1  0.66823700  0.25968400  0.39080000  1
  Li  Li4  1  0.67365600  0.97414000  0.74143200  1
  Li  Li5  1  0.82573600  0.10323600  0.07352900  1
  Co  Co0  1  0.15380500  0.55013400  0.27006100  1
  Co  Co1  1  0.84619500  0.44986600  0.72993900  1
  B  B0  1  0.15746100  0.17006600  0.57420500  1
  B  B1  1  0.33161600  0.32333700  0.90956500  1
  B  B2  1  0.66838400  0.67666300  0.09043500  1
  B  B3  1  0.84253900  0.82993400  0.42579500  1
  O  O0  1  0.10995500  0.77078900  0.39727700  1
  O  O1  1  0.20268000  0.48788200  0.78320500  1
  O  O2  1  0.20161100  0.16597500  0.02865900  1
  O  O3  1  0.27328500  0.27800300  0.41347300  1
  O  O4  1  0.29236700  0.00778700  0.68703500  1
  O  O5  1  0.38652100  0.67805800  0.09618000  1
  O  O6  1  0.61347900  0.32194200  0.90382000  1
  O  O7  1  0.70763300  0.99221300  0.31296500  1
  O  O8  1  0.72671500  0.72199700  0.58652700  1
  O  O9  1  0.79838900  0.83402500  0.97134100  1
  O  O10  1  0.79732000  0.51211800  0.21679500  1
  O  O11  1  0.89004500  0.22921100  0.60272300  1
loop_
_geom_bond_atom_site_label_1
_geom_bond_atom_site_label_2
_geom_bond_distance
_geom_bond_site_symmetry_2
Li0 O9 1.939503 1_455
Li0 O4 1.947749 1_565
Li0 O5 1.965930 1_556
Li0 O2 2.081195 1_566
Li1 O2 1.924440 1_555
Li1 O7 1.957440 1_545
Li1 O0 2.021867 1_545
Li1 O3 2.274701 1_555
Li2 O1 1.933352 1_555
Li2 O4 1.956204 1_565
Li2 O8 1.987068 1_555
Li2 O0 2.003078 1_555
Li3 O10 1.933352 1_555
Li3 O7 1.956204 1_545
Li3 O3 1.987068 1_555
Li3 O11 2.003078 1_555
Li4 O9 1.924440 1_555
Li4 O4 1.957440 1_565
Li4 O11 2.021867 1_565
Li4 O8 2.274701 1_555
Li5 O2 1.939503 1_655
Li5 O7 1.947749 1_545
Li5 O6 1.965930 1_554
Li5 O9 2.081195 1_544
Co0 O5 1.829930 1_555
Co0 O10 1.873686 1_455
Co0 O3 1.886609 1_555
Co0 O0 1.941100 1_555
Co1 O6 1.829930 1_555
Co1 O1 1.873686 1_655
Co1 O8 1.886609 1_555
Co1 O11 1.941100 1_555
B0 O4 1.348722 1_555
B0 O3 1.410395 1_555
B0 O11 1.415310 1_455
B1 O2 1.351575 1_556
B1 O1 1.397056 1_555
B1 O6 1.410895 1_555
B2 O9 1.351575 1_554
B2 O10 1.397056 1_555
B2 O5 1.410895 1_555
B3 O7 1.348722 1_555
B3 O8 1.410395 1_555
B3 O0 1.415310 1_655
