# generated using pymatgen
data_Li2CuAsO4
_symmetry_space_group_name_H-M   'P 1'
_cell_length_a   5.17407900
_cell_length_b   6.97969800
_cell_length_c   10.90902802
_cell_angle_alpha   88.53106668
_cell_angle_beta   90.00000000
_cell_angle_gamma   90.00000000
_symmetry_Int_Tables_number   1
_chemical_formula_structural   Li2CuAsO4
_chemical_formula_sum   'Li8 Cu4 As4 O16'
_cell_volume   393.83381227
_cell_formula_units_Z   4
loop_
 _symmetry_equiv_pos_site_id
 _symmetry_equiv_pos_as_xyz
  1  'x, y, z'
loop_
 _atom_site_type_symbol
 _atom_site_label
 _atom_site_symmetry_multiplicity
 _atom_site_fract_x
 _atom_site_fract_y
 _atom_site_fract_z
 _atom_site_occupancy
  Li  Li0  1  0.23159800  0.98860600  0.84628500  1
  Li  Li1  1  0.26840200  0.98860600  0.34628500  1
  Li  Li2  1  0.26993400  0.32199200  0.69958500  1
  Li  Li3  1  0.23006600  0.32199200  0.19958500  1
  Li  Li4  1  0.76993400  0.67800800  0.80041500  1
  Li  Li5  1  0.73006600  0.67800800  0.30041500  1
  Li  Li6  1  0.73159800  0.01139400  0.65371500  1
  Li  Li7  1  0.76840200  0.01139400  0.15371500  1
  Cu  Cu0  1  0.30462500  0.50007400  0.91374600  1
  Cu  Cu1  1  0.80462500  0.49992600  0.58625400  1
  Cu  Cu2  1  0.19537500  0.50007400  0.41374600  1
  Cu  Cu3  1  0.69537500  0.49992600  0.08625400  1
  As  As0  1  0.75073100  0.23539800  0.88786500  1
  As  As1  1  0.74926900  0.23539800  0.38786500  1
  As  As2  1  0.25073100  0.76460200  0.61213500  1
  As  As3  1  0.24926900  0.76460200  0.11213500  1
  O  O0  1  0.85101500  0.02259100  0.82963700  1
  O  O1  1  0.64898500  0.02259100  0.32963700  1
  O  O2  1  0.41603900  0.24934100  0.86461200  1
  O  O3  1  0.70199600  0.24704200  0.54523000  1
  O  O4  1  0.08396100  0.24934100  0.36461200  1
  O  O5  1  0.91423300  0.41625300  0.80954300  1
  O  O6  1  0.79800400  0.24704200  0.04523000  1
  O  O7  1  0.58576700  0.41625300  0.30954300  1
  O  O8  1  0.41423300  0.58374700  0.69045700  1
  O  O9  1  0.20199600  0.75295800  0.95477000  1
  O  O10  1  0.08576700  0.58374700  0.19045700  1
  O  O11  1  0.91603900  0.75065900  0.63538800  1
  O  O12  1  0.29800400  0.75295800  0.45477000  1
  O  O13  1  0.58396100  0.75065900  0.13538800  1
  O  O14  1  0.35101500  0.97740900  0.67036300  1
  O  O15  1  0.14898500  0.97740900  0.17036300  1
loop_
_geom_bond_atom_site_label_1
_geom_bond_atom_site_label_2
_geom_bond_distance
_geom_bond_site_symmetry_2
Li0 O0 1.991145 1_465
Li0 O9 2.007352 1_555
Li0 O14 2.019568 1_555
Li0 O2 2.069106 1_565
Li1 O1 1.991145 1_565
Li1 O12 2.007352 1_555
Li1 O15 2.019568 1_555
Li1 O4 2.069106 1_565
Li2 O8 1.973789 1_555
Li2 O2 2.005698 1_555
Li2 O5 2.302034 1_455
Li2 O14 2.470094 1_545
Li3 O10 1.973789 1_555
Li3 O4 2.005698 1_555
Li3 O7 2.302034 1_555
Li3 O15 2.470094 1_545
Li4 O5 1.973789 1_555
Li4 O11 2.005698 1_555
Li4 O8 2.302034 1_555
Li4 O0 2.470094 1_565
Li5 O7 1.973789 1_555
Li5 O13 2.005698 1_555
Li5 O10 2.302034 1_655
Li5 O1 2.470094 1_565
Li6 O14 1.991145 1_545
Li6 O3 2.007352 1_555
Li6 O0 2.019568 1_555
Li6 O11 2.069106 1_545
Li7 O15 1.991145 1_645
Li7 O6 2.007352 1_555
Li7 O1 2.019568 1_555
Li7 O13 2.069106 1_545
Cu0 O9 1.907399 1_555
Cu0 O2 1.931411 1_555
Cu0 O5 2.397636 1_455
Cu0 O8 2.554056 1_555
Cu1 O3 1.907399 1_555
Cu1 O11 1.931411 1_555
Cu1 O8 2.397636 1_555
Cu1 O5 2.554056 1_555
Cu2 O12 1.907399 1_555
Cu2 O4 1.931411 1_555
Cu2 O7 2.397636 1_555
Cu2 O10 2.554056 1_555
Cu3 O6 1.907399 1_555
Cu3 O13 1.931411 1_555
Cu3 O10 2.397636 1_655
Cu3 O7 2.554056 1_555
As0 O0 1.710936 1_555
As0 O5 1.727378 1_555
As0 O6 1.737999 1_556
As0 O2 1.752546 1_555
As1 O1 1.710936 1_555
As1 O7 1.727378 1_555
As1 O3 1.737999 1_555
As1 O4 1.752546 1_655
As2 O14 1.710936 1_555
As2 O8 1.727378 1_555
As2 O12 1.737999 1_555
As2 O11 1.752546 1_455
As3 O15 1.710936 1_555
As3 O10 1.727378 1_555
As3 O9 1.737999 1_554
As3 O13 1.752546 1_555
