# generated using pymatgen
data_Mg3B11(H3O8)3
_symmetry_space_group_name_H-M   'P 1'
_cell_length_a   9.84336000
_cell_length_b   10.33351600
_cell_length_c   17.37309000
_cell_angle_alpha   90.00000000
_cell_angle_beta   90.00000000
_cell_angle_gamma   90.00000000
_symmetry_Int_Tables_number   1
_chemical_formula_structural   Mg3B11(H3O8)3
_chemical_formula_sum   'Mg12 B44 H36 O96'
_cell_volume   1767.13022263
_cell_formula_units_Z   4
loop_
 _symmetry_equiv_pos_site_id
 _symmetry_equiv_pos_as_xyz
  1  'x, y, z'
loop_
 _atom_site_type_symbol
 _atom_site_label
 _atom_site_symmetry_multiplicity
 _atom_site_fract_x
 _atom_site_fract_y
 _atom_site_fract_z
 _atom_site_occupancy
  Mg  Mg0  1  0.52084700  0.75000000  0.00000000  1
  Mg  Mg1  1  0.97915300  0.25000000  0.50000000  1
  Mg  Mg2  1  0.47915300  0.25000000  0.00000000  1
  Mg  Mg3  1  0.02084700  0.75000000  0.50000000  1
  Mg  Mg4  1  0.93360700  0.92926700  0.17407800  1
  Mg  Mg5  1  0.56639300  0.42926700  0.32592200  1
  Mg  Mg6  1  0.56639300  0.07073300  0.67407800  1
  Mg  Mg7  1  0.93360700  0.57073300  0.82592200  1
  Mg  Mg8  1  0.06639300  0.07073300  0.82592200  1
  Mg  Mg9  1  0.43360700  0.57073300  0.67407800  1
  Mg  Mg10  1  0.43360700  0.92926700  0.32592200  1
  Mg  Mg11  1  0.06639300  0.42926700  0.17407800  1
  B  B0  1  0.87675500  0.75000000  0.00000000  1
  B  B1  1  0.62324500  0.25000000  0.50000000  1
  B  B2  1  0.12324500  0.25000000  0.00000000  1
  B  B3  1  0.37675500  0.75000000  0.50000000  1
  B  B4  1  0.84065600  0.55612700  0.09467300  1
  B  B5  1  0.65934400  0.05612700  0.40532700  1
  B  B6  1  0.65934400  0.44387300  0.59467300  1
  B  B7  1  0.84065600  0.94387300  0.90532700  1
  B  B8  1  0.15934400  0.44387300  0.90532700  1
  B  B9  1  0.34065600  0.94387300  0.59467300  1
  B  B10  1  0.34065600  0.55612700  0.40532700  1
  B  B11  1  0.15934400  0.05612700  0.09467300  1
  B  B12  1  0.04494200  0.71736600  0.10267500  1
  B  B13  1  0.45505800  0.21736600  0.39732500  1
  B  B14  1  0.45505800  0.28263400  0.60267500  1
  B  B15  1  0.04494200  0.78263400  0.89732500  1
  B  B16  1  0.95505800  0.28263400  0.89732500  1
  B  B17  1  0.54494200  0.78263400  0.60267500  1
  B  B18  1  0.54494200  0.71736600  0.39732500  1
  B  B19  1  0.95505800  0.21736600  0.10267500  1
  B  B20  1  0.28840300  0.64882300  0.09978100  1
  B  B21  1  0.21159700  0.14882300  0.40021900  1
  B  B22  1  0.21159700  0.35117700  0.59978100  1
  B  B23  1  0.28840300  0.85117700  0.90021900  1
  B  B24  1  0.71159700  0.35117700  0.90021900  1
  B  B25  1  0.78840300  0.85117700  0.59978100  1
  B  B26  1  0.78840300  0.64882300  0.40021900  1
  B  B27  1  0.71159700  0.14882300  0.09978100  1
  B  B28  1  0.22707000  0.84289100  0.17108300  1
  B  B29  1  0.27293000  0.34289100  0.32891700  1
  B  B30  1  0.27293000  0.15710900  0.67108300  1
  B  B31  1  0.22707000  0.65710900  0.82891700  1
  B  B32  1  0.77293000  0.15710900  0.82891700  1
  B  B33  1  0.72707000  0.65710900  0.67108300  1
  B  B34  1  0.72707000  0.84289100  0.32891700  1
  B  B35  1  0.77293000  0.34289100  0.17108300  1
  B  B36  1  0.67771500  0.96739200  0.20295200  1
  B  B37  1  0.82228500  0.46739200  0.29704800  1
  B  B38  1  0.82228500  0.03260800  0.70295200  1
  B  B39  1  0.67771500  0.53260800  0.79704800  1
  B  B40  1  0.32228500  0.03260800  0.79704800  1
  B  B41  1  0.17771500  0.53260800  0.70295200  1
  B  B42  1  0.17771500  0.96739200  0.29704800  1
  B  B43  1  0.32228500  0.46739200  0.20295200  1
  H  H0  1  0.51535200  0.50186700  0.17064300  1
  H  H1  1  0.98464800  0.00186700  0.32935700  1
  H  H2  1  0.98464800  0.49813300  0.67064300  1
  H  H3  1  0.51535200  0.99813300  0.82935700  1
  H  H4  1  0.48464800  0.49813300  0.82935700  1
  H  H5  1  0.01535200  0.99813300  0.67064300  1
  H  H6  1  0.01535200  0.50186700  0.32935700  1
  H  H7  1  0.48464800  0.00186700  0.17064300  1
  H  H8  1  0.17153200  0.75000000  0.00000000  1
  H  H9  1  0.32846800  0.25000000  0.50000000  1
  H  H10  1  0.82846800  0.25000000  0.00000000  1
  H  H11  1  0.67153200  0.75000000  0.50000000  1
  H  H12  1  0.37112000  0.53655100  0.01776400  1
  H  H13  1  0.12888000  0.03655100  0.48223600  1
  H  H14  1  0.12888000  0.46344900  0.51776400  1
  H  H15  1  0.37112000  0.96344900  0.98223600  1
  H  H16  1  0.62888000  0.46344900  0.98223600  1
  H  H17  1  0.87112000  0.96344900  0.51776400  1
  H  H18  1  0.87112000  0.53655100  0.48223600  1
  H  H19  1  0.62888000  0.03655100  0.01776400  1
  H  H20  1  0.68014700  0.16660200  0.26611900  1
  H  H21  1  0.81985300  0.66660200  0.23388100  1
  H  H22  1  0.81985300  0.83339800  0.76611900  1
  H  H23  1  0.68014700  0.33339800  0.73388100  1
  H  H24  1  0.31985300  0.83339800  0.73388100  1
  H  H25  1  0.18014700  0.33339800  0.76611900  1
  H  H26  1  0.18014700  0.16660200  0.23388100  1
  H  H27  1  0.31985300  0.66660200  0.26611900  1
  H  H28  1  0.26298800  0.63974700  0.28997700  1
  H  H29  1  0.23701200  0.13974700  0.21002300  1
  H  H30  1  0.23701200  0.36025300  0.78997700  1
  H  H31  1  0.26298800  0.86025300  0.71002300  1
  H  H32  1  0.73701200  0.36025300  0.71002300  1
  H  H33  1  0.76298800  0.86025300  0.78997700  1
  H  H34  1  0.76298800  0.63974700  0.21002300  1
  H  H35  1  0.73701200  0.13974700  0.28997700  1
  O  O0  1  0.94859500  0.80318700  0.06326900  1
  O  O1  1  0.55140500  0.30318700  0.43673100  1
  O  O2  1  0.55140500  0.19681300  0.56326900  1
  O  O3  1  0.94859500  0.69681300  0.93673100  1
  O  O4  1  0.05140500  0.19681300  0.93673100  1
  O  O5  1  0.44859500  0.69681300  0.56326900  1
  O  O6  1  0.44859500  0.80318700  0.43673100  1
  O  O7  1  0.05140500  0.30318700  0.06326900  1
  O  O8  1  0.78415100  0.64841700  0.03809200  1
  O  O9  1  0.71584900  0.14841700  0.46190800  1
  O  O10  1  0.71584900  0.35158300  0.53809200  1
  O  O11  1  0.78415100  0.85158300  0.96190800  1
  O  O12  1  0.21584900  0.35158300  0.96190800  1
  O  O13  1  0.28415100  0.85158300  0.53809200  1
  O  O14  1  0.28415100  0.64841700  0.46190800  1
  O  O15  1  0.21584900  0.14841700  0.03809200  1
  O  O16  1  0.76295600  0.45852700  0.11582600  1
  O  O17  1  0.73704400  0.95852700  0.38417400  1
  O  O18  1  0.73704400  0.54147300  0.61582600  1
  O  O19  1  0.76295600  0.04147300  0.88417400  1
  O  O20  1  0.23704400  0.54147300  0.88417400  1
  O  O21  1  0.26295600  0.04147300  0.61582600  1
  O  O22  1  0.26295600  0.45852700  0.38417400  1
  O  O23  1  0.23704400  0.95852700  0.11582600  1
  O  O24  1  0.96912400  0.58716100  0.12008200  1
  O  O25  1  0.53087600  0.08716100  0.37991800  1
  O  O26  1  0.53087600  0.41283900  0.62008200  1
  O  O27  1  0.96912400  0.91283900  0.87991800  1
  O  O28  1  0.03087600  0.41283900  0.87991800  1
  O  O29  1  0.46912400  0.91283900  0.62008200  1
  O  O30  1  0.46912400  0.58716100  0.37991800  1
  O  O31  1  0.03087600  0.08716100  0.12008200  1
  O  O32  1  0.08510300  0.78880900  0.17169600  1
  O  O33  1  0.41489700  0.28880900  0.32830400  1
  O  O34  1  0.41489700  0.21119100  0.67169600  1
  O  O35  1  0.08510300  0.71119100  0.82830400  1
  O  O36  1  0.91489700  0.21119100  0.82830400  1
  O  O37  1  0.58510300  0.71119100  0.67169600  1
  O  O38  1  0.58510300  0.78880900  0.32830400  1
  O  O39  1  0.91489700  0.28880900  0.17169600  1
  O  O40  1  0.16164300  0.68069400  0.05576800  1
  O  O41  1  0.33835700  0.18069400  0.44423200  1
  O  O42  1  0.33835700  0.31930600  0.55576800  1
  O  O43  1  0.16164300  0.81930600  0.94423200  1
  O  O44  1  0.83835700  0.31930600  0.94423200  1
  O  O45  1  0.66164300  0.81930600  0.55576800  1
  O  O46  1  0.66164300  0.68069400  0.44423200  1
  O  O47  1  0.83835700  0.18069400  0.05576800  1
  O  O48  1  0.39702400  0.61944400  0.04543200  1
  O  O49  1  0.10297600  0.11944400  0.45456800  1
  O  O50  1  0.10297600  0.38055600  0.54543200  1
  O  O51  1  0.39702400  0.88055600  0.95456800  1
  O  O52  1  0.60297600  0.38055600  0.95456800  1
  O  O53  1  0.89702400  0.88055600  0.54543200  1
  O  O54  1  0.89702400  0.61944400  0.45456800  1
  O  O55  1  0.60297600  0.11944400  0.04543200  1
  O  O56  1  0.25086900  0.52591900  0.14533100  1
  O  O57  1  0.24913100  0.02591900  0.35466900  1
  O  O58  1  0.24913100  0.47408100  0.64533100  1
  O  O59  1  0.25086900  0.97408100  0.85466900  1
  O  O60  1  0.74913100  0.47408100  0.85466900  1
  O  O61  1  0.75086900  0.97408100  0.64533100  1
  O  O62  1  0.75086900  0.52591900  0.35466900  1
  O  O63  1  0.74913100  0.02591900  0.14533100  1
  O  O64  1  0.32804500  0.75168500  0.14925300  1
  O  O65  1  0.17195500  0.25168500  0.35074700  1
  O  O66  1  0.17195500  0.24831500  0.64925300  1
  O  O67  1  0.32804500  0.74831500  0.85074700  1
  O  O68  1  0.67195500  0.24831500  0.85074700  1
  O  O69  1  0.82804500  0.74831500  0.64925300  1
  O  O70  1  0.82804500  0.75168500  0.35074700  1
  O  O71  1  0.67195500  0.25168500  0.14925300  1
  O  O72  1  0.25995200  0.89577700  0.24972600  1
  O  O73  1  0.24004800  0.39577700  0.25027400  1
  O  O74  1  0.24004800  0.10422300  0.74972600  1
  O  O75  1  0.25995200  0.60422300  0.75027400  1
  O  O76  1  0.74004800  0.10422300  0.75027400  1
  O  O77  1  0.75995200  0.60422300  0.74972600  1
  O  O78  1  0.75995200  0.89577700  0.25027400  1
  O  O79  1  0.74004800  0.39577700  0.24972600  1
  O  O80  1  0.03710900  0.97031800  0.28586100  1
  O  O81  1  0.46289100  0.47031800  0.21413900  1
  O  O82  1  0.46289100  0.02968200  0.78586100  1
  O  O83  1  0.03710900  0.52968200  0.71413900  1
  O  O84  1  0.96289100  0.02968200  0.71413900  1
  O  O85  1  0.53710900  0.52968200  0.78586100  1
  O  O86  1  0.53710900  0.97031800  0.21413900  1
  O  O87  1  0.96289100  0.47031800  0.28586100  1
  O  O88  1  0.16418400  0.88922300  0.49335300  1
  O  O89  1  0.33581600  0.38922300  0.00664700  1
  O  O90  1  0.33581600  0.11077700  0.99335300  1
  O  O91  1  0.16418400  0.61077700  0.50664700  1
  O  O92  1  0.83581600  0.11077700  0.50664700  1
  O  O93  1  0.66418400  0.61077700  0.99335300  1
  O  O94  1  0.66418400  0.88922300  0.00664700  1
  O  O95  1  0.83581600  0.38922300  0.49335300  1
loop_
_geom_bond_atom_site_label_1
_geom_bond_atom_site_label_2
_geom_bond_distance
_geom_bond_site_symmetry_2
Mg0 O48 1.982075 1_555
Mg0 O51 1.982075 1_554
Mg0 O94 2.018360 1_555
Mg0 O93 2.018360 1_554
Mg1 O50 1.982075 1_655
Mg1 O49 1.982075 1_655
Mg1 O92 2.018360 1_555
Mg1 O95 2.018360 1_555
Mg2 O55 1.982075 1_555
Mg2 O52 1.982075 1_554
Mg2 O89 2.018360 1_555
Mg2 O90 2.018360 1_554
Mg3 O53 1.982075 1_455
Mg3 O54 1.982075 1_455
Mg3 O91 2.018360 1_555
Mg3 O88 2.018360 1_555
Mg4 O32 2.081373 1_655
Mg4 O31 2.111593 1_665
Mg4 O63 2.131736 1_565
Mg4 O78 2.189515 1_555
Mg4 O80 2.233683 1_655
Mg4 O0 2.329200 1_555
Mg5 O33 2.081373 1_555
Mg5 O30 2.111593 1_555
Mg5 O62 2.131736 1_555
Mg5 O79 2.189515 1_555
Mg5 O81 2.233683 1_555
Mg5 O1 2.329200 1_555
Mg6 O34 2.081373 1_555
Mg6 O29 2.111593 1_545
Mg6 O61 2.131736 1_545
Mg6 O76 2.189515 1_555
Mg6 O82 2.233683 1_555
Mg6 O2 2.329200 1_555
Mg7 O35 2.081373 1_655
Mg7 O28 2.111593 1_655
Mg7 O60 2.131736 1_555
Mg7 O77 2.189515 1_555
Mg7 O83 2.233683 1_655
Mg7 O3 2.329200 1_555
Mg8 O36 2.081373 1_455
Mg8 O27 2.111593 1_445
Mg8 O59 2.131736 1_545
Mg8 O74 2.189515 1_555
Mg8 O84 2.233683 1_455
Mg8 O4 2.329200 1_555
Mg9 O37 2.081373 1_555
Mg9 O26 2.111593 1_555
Mg9 O58 2.131736 1_555
Mg9 O75 2.189515 1_555
Mg9 O85 2.233683 1_555
Mg9 O5 2.329200 1_555
Mg10 O38 2.081373 1_555
Mg10 O25 2.111593 1_565
Mg10 O57 2.131736 1_565
Mg10 O72 2.189515 1_555
Mg10 O86 2.233683 1_555
Mg10 O6 2.329200 1_555
Mg11 O39 2.081373 1_455
Mg11 O24 2.111593 1_455
Mg11 O56 2.131736 1_555
Mg11 O73 2.189515 1_555
Mg11 O87 2.233683 1_455
Mg11 O7 2.329200 1_555
B0 O0 1.417857 1_555
B0 O3 1.417857 1_554
B0 O8 1.539718 1_555
B0 O11 1.539718 1_554
B1 O1 1.417857 1_555
B1 O2 1.417857 1_555
B1 O10 1.539718 1_555
B1 O9 1.539718 1_555
B2 O7 1.417857 1_555
B2 O4 1.417857 1_554
B2 O15 1.539718 1_555
B2 O12 1.539718 1_554
B3 O5 1.417857 1_555
B3 O6 1.417857 1_555
B3 O14 1.539718 1_555
B3 O13 1.539718 1_555
B4 O16 1.318025 1_555
B4 O24 1.377247 1_555
B4 O8 1.478217 1_555
B5 O17 1.318025 1_545
B5 O25 1.377247 1_555
B5 O9 1.478217 1_555
B6 O18 1.318025 1_555
B6 O26 1.377247 1_555
B6 O10 1.478217 1_555
B7 O19 1.318025 1_565
B7 O27 1.377247 1_555
B7 O11 1.478217 1_555
B8 O20 1.318025 1_555
B8 O28 1.377247 1_555
B8 O12 1.478217 1_555
B9 O21 1.318025 1_565
B9 O29 1.377247 1_555
B9 O13 1.478217 1_555
B10 O22 1.318025 1_555
B10 O30 1.377247 1_555
B10 O14 1.478217 1_555
B11 O23 1.318025 1_545
B11 O31 1.377247 1_555
B11 O15 1.478217 1_555
B12 O40 1.458519 1_555
B12 O32 1.462587 1_555
B12 O0 1.467847 1_455
B12 O24 1.568033 1_455
B13 O41 1.458519 1_555
B13 O33 1.462587 1_555
B13 O1 1.467847 1_555
B13 O25 1.568033 1_555
B14 O42 1.458519 1_555
B14 O34 1.462587 1_555
B14 O2 1.467847 1_555
B14 O26 1.568033 1_555
B15 O43 1.458519 1_555
B15 O35 1.462587 1_555
B15 O3 1.467847 1_455
B15 O27 1.568033 1_455
B16 O44 1.458519 1_555
B16 O36 1.462587 1_555
B16 O4 1.467847 1_655
B16 O28 1.568033 1_655
B17 O45 1.458519 1_555
B17 O37 1.462587 1_555
B17 O5 1.467847 1_555
B17 O29 1.568033 1_555
B18 O46 1.458519 1_555
B18 O38 1.462587 1_555
B18 O6 1.467847 1_555
B18 O30 1.568033 1_555
B19 O47 1.458519 1_555
B19 O39 1.462587 1_555
B19 O7 1.467847 1_655
B19 O31 1.568033 1_655
B20 O64 1.421543 1_555
B20 O48 1.458382 1_555
B20 O40 1.500002 1_555
B20 O56 1.541332 1_555
B21 O65 1.421543 1_555
B21 O49 1.458382 1_555
B21 O41 1.500002 1_555
B21 O57 1.541332 1_555
B22 O66 1.421543 1_555
B22 O50 1.458382 1_555
B22 O42 1.500002 1_555
B22 O58 1.541332 1_555
B23 O67 1.421543 1_555
B23 O51 1.458382 1_555
B23 O43 1.500002 1_555
B23 O59 1.541332 1_555
B24 O68 1.421543 1_555
B24 O52 1.458382 1_555
B24 O44 1.500002 1_555
B24 O60 1.541332 1_555
B25 O69 1.421543 1_555
B25 O53 1.458382 1_555
B25 O45 1.500002 1_555
B25 O61 1.541332 1_555
B26 O70 1.421543 1_555
B26 O54 1.458382 1_555
B26 O46 1.500002 1_555
B26 O62 1.541332 1_555
B27 O71 1.421543 1_555
B27 O55 1.458382 1_555
B27 O47 1.500002 1_555
B27 O63 1.541332 1_555
B28 O64 1.421268 1_555
B28 O32 1.505075 1_555
B28 O72 1.506692 1_555
B28 O23 1.535923 1_555
B29 O65 1.421268 1_555
B29 O33 1.505075 1_555
B29 O73 1.506692 1_555
B29 O22 1.535923 1_555
B30 O66 1.421268 1_555
B30 O34 1.505075 1_555
B30 O74 1.506692 1_555
B30 O21 1.535923 1_555
B31 O67 1.421268 1_555
B31 O35 1.505075 1_555
B31 O75 1.506692 1_555
B31 O20 1.535923 1_555
B32 O68 1.421268 1_555
B32 O36 1.505075 1_555
B32 O76 1.506692 1_555
B32 O19 1.535923 1_555
B33 O69 1.421268 1_555
B33 O37 1.505075 1_555
B33 O77 1.506692 1_555
B33 O18 1.535923 1_555
B34 O70 1.421268 1_555
B34 O38 1.505075 1_555
B34 O78 1.506692 1_555
B34 O17 1.535923 1_555
B35 O71 1.421268 1_555
B35 O39 1.505075 1_555
B35 O79 1.506692 1_555
B35 O16 1.535923 1_555
B36 O63 1.364571 1_565
B36 O78 1.370700 1_555
B36 O86 1.397942 1_555
B37 O62 1.364571 1_555
B37 O79 1.370700 1_555
B37 O87 1.397942 1_555
B38 O61 1.364571 1_545
B38 O76 1.370700 1_555
B38 O84 1.397942 1_555
B39 O60 1.364571 1_555
B39 O77 1.370700 1_555
B39 O85 1.397942 1_555
B40 O59 1.364571 1_545
B40 O74 1.370700 1_555
B40 O82 1.397942 1_555
B41 O58 1.364571 1_555
B41 O75 1.370700 1_555
B41 O83 1.397942 1_555
B42 O57 1.364571 1_565
B42 O72 1.370700 1_555
B42 O80 1.397942 1_555
B43 O56 1.364571 1_555
B43 O73 1.370700 1_555
B43 O81 1.397942 1_555
H0 O81 0.971580 1_555
H1 O80 0.971580 1_645
H2 O83 0.971580 1_655
H3 O82 0.971580 1_565
H4 O85 0.971580 1_555
H5 O84 0.971580 1_465
H6 O87 0.971580 1_455
H7 O86 0.971580 1_545
H8 O40 1.208750 1_555
H8 O43 1.208750 1_554
H9 O42 1.208750 1_555
H9 O41 1.208750 1_555
H10 O47 1.208750 1_555
H10 O44 1.208750 1_554
H11 O45 1.208750 1_555
H11 O46 1.208750 1_555
H12 O48 1.014786 1_555
H12 O89 1.573473 1_555
H13 O49 1.014786 1_555
H13 O88 1.573473 1_545
H14 O50 1.014786 1_555
H14 O91 1.573473 1_555
H15 O51 1.014786 1_555
H15 O90 1.573473 1_565
H16 O52 1.014786 1_555
H16 O93 1.573473 1_555
H17 O53 1.014786 1_555
H17 O92 1.573473 1_565
H18 O54 1.014786 1_555
H18 O95 1.573473 1_555
H19 O55 1.014786 1_555
H19 O94 1.573473 1_545
H20 H35 0.749748 1_555
H21 H34 0.749748 1_555
H22 H33 0.749748 1_555
H23 H32 0.749748 1_555
H24 H31 0.749748 1_555
H25 H30 0.749748 1_555
H26 H29 0.749748 1_555
H27 H28 0.749748 1_555
O8 O93 1.466248 1_554
O9 O92 1.466248 1_555
O10 O95 1.466248 1_555
O11 O94 1.466248 1_556
O12 O89 1.466248 1_556
O13 O88 1.466248 1_555
O14 O91 1.466248 1_555
O15 O90 1.466248 1_554
