# generated using pymatgen
data_Li2Cu2(SO4)3
_symmetry_space_group_name_H-M   'P 1'
_cell_length_a   8.58778500
_cell_length_b   8.59295700
_cell_length_c   12.77888200
_cell_angle_alpha   90.00000000
_cell_angle_beta   90.00000000
_cell_angle_gamma   90.00000000
_symmetry_Int_Tables_number   1
_chemical_formula_structural   Li2Cu2(SO4)3
_chemical_formula_sum   'Li8 Cu8 S12 O48'
_cell_volume   943.01078899
_cell_formula_units_Z   4
loop_
 _symmetry_equiv_pos_site_id
 _symmetry_equiv_pos_as_xyz
  1  'x, y, z'
loop_
 _atom_site_type_symbol
 _atom_site_label
 _atom_site_symmetry_multiplicity
 _atom_site_fract_x
 _atom_site_fract_y
 _atom_site_fract_z
 _atom_site_occupancy
  Li  Li0  1  0.22249600  0.27626800  0.18591300  1
  Li  Li1  1  0.77750400  0.77626800  0.18591300  1
  Li  Li2  1  0.27750400  0.77626800  0.31408700  1
  Li  Li3  1  0.72249600  0.27626800  0.31408700  1
  Li  Li4  1  0.27750400  0.72373200  0.68591300  1
  Li  Li5  1  0.72249600  0.22373200  0.68591300  1
  Li  Li6  1  0.22249600  0.22373200  0.81408700  1
  Li  Li7  1  0.77750400  0.72373200  0.81408700  1
  Cu  Cu0  1  0.25010400  0.96082600  0.10741900  1
  Cu  Cu1  1  0.74989600  0.46082600  0.10741900  1
  Cu  Cu2  1  0.75010400  0.96082600  0.39258100  1
  Cu  Cu3  1  0.24989600  0.46082600  0.39258100  1
  Cu  Cu4  1  0.24989600  0.03917400  0.60741900  1
  Cu  Cu5  1  0.75010400  0.53917400  0.60741900  1
  Cu  Cu6  1  0.25010400  0.53917400  0.89258100  1
  Cu  Cu7  1  0.74989600  0.03917400  0.89258100  1
  S  S0  1  0.45693700  0.25000000  0.00000000  1
  S  S1  1  0.54306300  0.75000000  0.00000000  1
  S  S2  1  0.10019700  0.60795400  0.14357500  1
  S  S3  1  0.89980300  0.10795400  0.14357500  1
  S  S4  1  0.39980300  0.10795400  0.35642500  1
  S  S5  1  0.60019700  0.60795400  0.35642500  1
  S  S6  1  0.04306300  0.75000000  0.50000000  1
  S  S7  1  0.95693700  0.25000000  0.50000000  1
  S  S8  1  0.39980300  0.39204600  0.64357500  1
  S  S9  1  0.60019700  0.89204600  0.64357500  1
  S  S10  1  0.10019700  0.89204600  0.85642500  1
  S  S11  1  0.89980300  0.39204600  0.85642500  1
  O  O0  1  0.13382000  0.57878000  0.03345100  1
  O  O1  1  0.86618000  0.07878000  0.03345100  1
  O  O2  1  0.54792200  0.36518800  0.05886600  1
  O  O3  1  0.45207800  0.86518800  0.05886600  1
  O  O4  1  0.35405600  0.17198100  0.07967300  1
  O  O5  1  0.64594400  0.67198100  0.07967300  1
  O  O6  1  0.07286900  0.11355800  0.16053300  1
  O  O7  1  0.92713100  0.61355800  0.16053300  1
  O  O8  1  0.16475900  0.76256200  0.17910800  1
  O  O9  1  0.83524100  0.26256200  0.17910800  1
  O  O10  1  0.83286700  0.98575600  0.21200700  1
  O  O11  1  0.16713300  0.48575600  0.21200700  1
  O  O12  1  0.33286700  0.98575600  0.28799300  1
  O  O13  1  0.66713300  0.48575600  0.28799300  1
  O  O14  1  0.66475900  0.76256200  0.32089200  1
  O  O15  1  0.33524100  0.26256200  0.32089200  1
  O  O16  1  0.42713100  0.61355800  0.33946700  1
  O  O17  1  0.57286900  0.11355800  0.33946700  1
  O  O18  1  0.14594400  0.67198100  0.42032700  1
  O  O19  1  0.85405600  0.17198100  0.42032700  1
  O  O20  1  0.04792200  0.36518800  0.44113400  1
  O  O21  1  0.95207800  0.86518800  0.44113400  1
  O  O22  1  0.63382000  0.57878000  0.46654900  1
  O  O23  1  0.36618000  0.07878000  0.46654900  1
  O  O24  1  0.36618000  0.42122000  0.53345100  1
  O  O25  1  0.63382000  0.92122000  0.53345100  1
  O  O26  1  0.04792200  0.13481200  0.55886600  1
  O  O27  1  0.95207800  0.63481200  0.55886600  1
  O  O28  1  0.14594400  0.82801900  0.57967300  1
  O  O29  1  0.85405600  0.32801900  0.57967300  1
  O  O30  1  0.42713100  0.88644200  0.66053300  1
  O  O31  1  0.57286900  0.38644200  0.66053300  1
  O  O32  1  0.33524100  0.23743800  0.67910800  1
  O  O33  1  0.66475900  0.73743800  0.67910800  1
  O  O34  1  0.33286700  0.51424400  0.71200700  1
  O  O35  1  0.66713300  0.01424400  0.71200700  1
  O  O36  1  0.16713300  0.01424400  0.78799300  1
  O  O37  1  0.83286700  0.51424400  0.78799300  1
  O  O38  1  0.16475900  0.73743800  0.82089200  1
  O  O39  1  0.83524100  0.23743800  0.82089200  1
  O  O40  1  0.07286900  0.38644200  0.83946700  1
  O  O41  1  0.92713100  0.88644200  0.83946700  1
  O  O42  1  0.35405600  0.32801900  0.92032700  1
  O  O43  1  0.64594400  0.82801900  0.92032700  1
  O  O44  1  0.45207800  0.63481200  0.94113400  1
  O  O45  1  0.54792200  0.13481200  0.94113400  1
  O  O46  1  0.13382000  0.92122000  0.96654900  1
  O  O47  1  0.86618000  0.42122000  0.96654900  1
loop_
_geom_bond_atom_site_label_1
_geom_bond_atom_site_label_2
_geom_bond_distance
_geom_bond_site_symmetry_2
Li0 O11 1.891474 1_555
Li0 O6 1.926441 1_555
Li0 O4 1.980575 1_555
Li0 O15 1.981553 1_555
Li1 O10 1.891474 1_555
Li1 O7 1.926441 1_555
Li1 O5 1.980575 1_555
Li1 O14 1.981553 1_555
Li2 O12 1.891474 1_555
Li2 O16 1.926441 1_555
Li2 O18 1.980575 1_555
Li2 O8 1.981553 1_555
Li3 O13 1.891474 1_555
Li3 O17 1.926441 1_555
Li3 O19 1.980575 1_555
Li3 O9 1.981553 1_555
Li4 O34 1.891474 1_555
Li4 O30 1.926441 1_555
Li4 O28 1.980575 1_555
Li4 O38 1.981553 1_555
Li5 O35 1.891474 1_555
Li5 O31 1.926441 1_555
Li5 O29 1.980575 1_555
Li5 O39 1.981553 1_555
Li6 O36 1.891474 1_555
Li6 O40 1.926441 1_555
Li6 O42 1.980575 1_555
Li6 O32 1.981553 1_555
Li7 O37 1.891474 1_555
Li7 O41 1.926441 1_555
Li7 O43 1.980575 1_555
Li7 O33 1.981553 1_555
Cu0 O3 2.017142 1_555
Cu0 O4 2.053016 1_565
Cu0 O8 2.068558 1_555
Cu0 O46 2.086541 1_554
Cu0 O6 2.121270 1_565
Cu0 O12 2.423999 1_555
Cu1 O2 2.017142 1_555
Cu1 O5 2.053016 1_555
Cu1 O9 2.068558 1_555
Cu1 O47 2.086541 1_554
Cu1 O7 2.121270 1_555
Cu1 O13 2.423999 1_555
Cu2 O21 2.017142 1_555
Cu2 O19 2.053016 1_565
Cu2 O14 2.068558 1_555
Cu2 O25 2.086541 1_555
Cu2 O17 2.121270 1_565
Cu2 O10 2.423999 1_555
Cu3 O20 2.017142 1_555
Cu3 O18 2.053016 1_555
Cu3 O15 2.068558 1_555
Cu3 O24 2.086541 1_555
Cu3 O16 2.121270 1_555
Cu3 O11 2.423999 1_555
Cu4 O26 2.017142 1_555
Cu4 O28 2.053016 1_545
Cu4 O32 2.068558 1_555
Cu4 O23 2.086541 1_555
Cu4 O30 2.121270 1_545
Cu4 O36 2.423999 1_555
Cu5 O27 2.017142 1_555
Cu5 O29 2.053016 1_555
Cu5 O33 2.068558 1_555
Cu5 O22 2.086541 1_555
Cu5 O31 2.121270 1_555
Cu5 O37 2.423999 1_555
Cu6 O44 2.017142 1_555
Cu6 O42 2.053016 1_555
Cu6 O38 2.068558 1_555
Cu6 O0 2.086541 1_556
Cu6 O40 2.121270 1_555
Cu6 O34 2.423999 1_555
Cu7 O45 2.017142 1_555
Cu7 O43 2.053016 1_545
Cu7 O39 2.068558 1_555
Cu7 O1 2.086541 1_556
Cu7 O41 2.121270 1_545
Cu7 O35 2.423999 1_555
O0 S2 1.458289 1_555
O1 S3 1.458289 1_555
O2 S0 1.468368 1_555
O3 S1 1.468368 1_555
O4 S0 1.505541 1_555
O5 S1 1.505541 1_555
O6 S3 1.502741 1_455
O7 S2 1.502741 1_655
O8 S2 1.509506 1_555
O9 S3 1.509506 1_555
O10 S3 1.482479 1_565
O11 S2 1.482479 1_555
O12 S4 1.482479 1_565
O13 S5 1.482479 1_555
O14 S5 1.509506 1_555
O15 S4 1.509506 1_555
O16 S5 1.502741 1_555
O17 S4 1.502741 1_555
O18 S6 1.505541 1_555
O19 S7 1.505541 1_555
O20 S7 1.468368 1_455
O21 S6 1.468368 1_655
O22 S5 1.458289 1_555
O23 S4 1.458289 1_555
O24 S8 1.458289 1_555
O25 S9 1.458289 1_555
O26 S7 1.468368 1_455
O27 S6 1.468368 1_655
O28 S6 1.505541 1_555
O29 S7 1.505541 1_555
O30 S9 1.502741 1_555
O31 S8 1.502741 1_555
O32 S8 1.509506 1_555
O33 S9 1.509506 1_555
O34 S8 1.482479 1_555
O35 S9 1.482479 1_545
O36 S10 1.482479 1_545
O37 S11 1.482479 1_555
O38 S10 1.509506 1_555
O39 S11 1.509506 1_555
O40 S11 1.502741 1_455
O41 S10 1.502741 1_655
O42 S0 1.505541 1_556
O43 S1 1.505541 1_556
O44 S1 1.468368 1_556
O45 S0 1.468368 1_556
O46 S10 1.458289 1_555
O47 S11 1.458289 1_555
