# generated using pymatgen
data_Li2Fe3Co5O16
_symmetry_space_group_name_H-M   'P 1'
_cell_length_a   2.93608600
_cell_length_b   5.23035900
_cell_length_c   19.27142250
_cell_angle_alpha   86.50324434
_cell_angle_beta   90.00000000
_cell_angle_gamma   90.00000000
_symmetry_Int_Tables_number   1
_chemical_formula_structural   Li2Fe3Co5O16
_chemical_formula_sum   'Li2 Fe3 Co5 O16'
_cell_volume   295.39609115
_cell_formula_units_Z   1
loop_
 _symmetry_equiv_pos_site_id
 _symmetry_equiv_pos_as_xyz
  1  'x, y, z'
loop_
 _atom_site_type_symbol
 _atom_site_label
 _atom_site_symmetry_multiplicity
 _atom_site_fract_x
 _atom_site_fract_y
 _atom_site_fract_z
 _atom_site_occupancy
  Li  Li0  1  0.00000000  0.25128500  0.74728900  1
  Li  Li1  1  0.00000000  0.74871500  0.25271100  1
  Fe  Fe0  1  0.00000000  0.86853100  0.87342300  1
  Fe  Fe1  1  0.50000000  0.00000000  0.00000000  1
  Fe  Fe2  1  0.00000000  0.13146900  0.12657700  1
  Co  Co0  1  0.50000000  0.24997100  0.25112400  1
  Co  Co1  1  0.00000000  0.37299600  0.37665800  1
  Co  Co2  1  0.50000000  0.50000000  0.50000000  1
  Co  Co3  1  0.00000000  0.62700400  0.62334200  1
  Co  Co4  1  0.50000000  0.75002900  0.74887600  1
  O  O0  1  0.50000000  0.26201500  0.06504500  1
  O  O1  1  0.00000000  0.39772800  0.19885800  1
  O  O2  1  0.00000000  0.36797600  0.55462200  1
  O  O3  1  0.00000000  0.60227200  0.80114200  1
  O  O4  1  0.50000000  0.51529300  0.31194800  1
  O  O5  1  0.50000000  0.48470700  0.68805200  1
  O  O6  1  0.50000000  0.73798500  0.93495500  1
  O  O7  1  0.00000000  0.63202400  0.44537800  1
  O  O8  1  0.00000000  0.85424600  0.05610900  1
  O  O9  1  0.50000000  0.75346600  0.56472200  1
  O  O10  1  0.50000000  0.02153100  0.80848900  1
  O  O11  1  0.50000000  0.97846900  0.19151100  1
  O  O12  1  0.00000000  0.89180000  0.69566800  1
  O  O13  1  0.00000000  0.14575400  0.94389100  1
  O  O14  1  0.00000000  0.10820000  0.30433200  1
  O  O15  1  0.50000000  0.24653400  0.43527800  1
loop_
_geom_bond_atom_site_label_1
_geom_bond_atom_site_label_2
_geom_bond_distance
_geom_bond_site_symmetry_2
Li0 O3 2.163239 1_555
Li0 O12 2.180161 1_545
Li0 O5 2.186068 1_555
Li0 O5 2.186068 1_455
Li0 O10 2.194845 1_455
Li0 O10 2.194845 1_555
Li1 O1 2.163239 1_555
Li1 O14 2.180161 1_565
Li1 O4 2.186068 1_455
Li1 O4 2.186068 1_555
Li1 O11 2.194845 1_455
Li1 O11 2.194845 1_555
Fe0 O6 1.982106 1_555
Fe0 O6 1.982106 1_455
Fe0 O3 2.028887 1_555
Fe0 O13 2.046178 1_565
Fe0 O10 2.058960 1_465
Fe0 O10 2.058960 1_565
Fe1 O0 1.912831 1_555
Fe1 O6 1.912831 1_544
Fe1 O13 1.950635 1_654
Fe1 O13 1.950635 1_554
Fe1 O8 1.950635 1_545
Fe1 O8 1.950635 1_645
Fe2 O0 1.982106 1_455
Fe2 O0 1.982106 1_555
Fe2 O1 2.028887 1_555
Fe2 O8 2.046178 1_545
Fe2 O11 2.058960 1_545
Fe2 O11 2.058960 1_445
Co0 O4 1.870344 1_555
Co0 O11 1.880255 1_545
Co0 O14 1.914073 1_555
Co0 O14 1.914073 1_655
Co0 O1 1.916242 1_555
Co0 O1 1.916242 1_655
Co1 O15 1.943632 1_455
Co1 O15 1.943632 1_555
Co1 O7 1.951469 1_555
Co1 O14 2.023955 1_555
Co1 O4 2.037401 1_455
Co1 O4 2.037401 1_555
Co2 O9 1.874821 1_555
Co2 O15 1.874821 1_555
Co2 O2 1.910857 1_555
Co2 O2 1.910857 1_655
Co2 O7 1.910857 1_655
Co2 O7 1.910857 1_555
Co3 O9 1.943632 1_555
Co3 O9 1.943632 1_455
Co3 O2 1.951469 1_555
Co3 O12 2.023955 1_555
Co3 O5 2.037401 1_455
Co3 O5 2.037401 1_555
Co4 O5 1.870344 1_555
Co4 O10 1.880255 1_565
Co4 O12 1.914073 1_655
Co4 O12 1.914073 1_555
Co4 O3 1.916242 1_555
Co4 O3 1.916242 1_655
