# generated using pymatgen
data_CuCO3
_symmetry_space_group_name_H-M   'P 1'
_cell_length_a   13.84116790
_cell_length_b   13.83440898
_cell_length_c   3.38051229
_cell_angle_alpha   88.79107800
_cell_angle_beta   91.18274229
_cell_angle_gamma   119.80575092
_symmetry_Int_Tables_number   1
_chemical_formula_structural   CuCO3
_chemical_formula_sum   'Cu9 C9 O27'
_cell_volume   561.52205994
_cell_formula_units_Z   9
loop_
 _symmetry_equiv_pos_site_id
 _symmetry_equiv_pos_as_xyz
  1  'x, y, z'
loop_
 _atom_site_type_symbol
 _atom_site_label
 _atom_site_symmetry_multiplicity
 _atom_site_fract_x
 _atom_site_fract_y
 _atom_site_fract_z
 _atom_site_occupancy
  Cu  Cu0  1  0.24125900  0.78215500  0.07449300  1
  Cu  Cu1  1  0.21286200  0.45639700  0.00171400  1
  Cu  Cu2  1  0.21347700  0.09395600  0.02119000  1
  Cu  Cu3  1  0.54221000  0.75936400  0.94114100  1
  Cu  Cu4  1  0.57345400  0.46161900  0.93712700  1
  Cu  Cu5  1  0.53897400  0.11309800  0.08045800  1
  Cu  Cu6  1  0.88084000  0.78787000  0.95204600  1
  Cu  Cu7  1  0.88779400  0.42544000  0.95003800  1
  Cu  Cu8  1  0.90594500  0.11797800  0.03304200  1
  C  C0  1  0.00393100  0.66870200  0.00303300  1
  C  C1  1  0.33345400  0.66706200  0.00060400  1
  C  C2  1  0.66443200  0.99568100  0.00630200  1
  C  C3  1  0.33016900  0.33549100  0.99103600  1
  C  C4  1  0.32734600  0.99761300  0.52225700  1
  C  C5  1  0.67016500  0.67263200  0.47527000  1
  C  C6  1  0.66585800  0.33297900  0.99858900  1
  C  C7  1  0.99972700  0.99986900  0.00384500  1
  C  C8  1  0.00075900  0.32876600  0.50723100  1
  O  O0  1  0.02676700  0.92298900  0.01413300  1
  O  O1  1  0.09566200  0.76053000  0.06551900  1
  O  O2  1  0.00488000  0.57572900  0.98937900  1
  O  O3  1  0.29917000  0.89357600  0.54735700  1
  O  O4  1  0.10455200  0.40561200  0.51760200  1
  O  O5  1  0.22642600  0.60527400  0.02130700  1
  O  O6  1  0.37873900  0.77319100  0.05701200  1
  O  O7  1  0.07548200  0.10351100  0.01794600  1
  O  O8  1  0.57080200  0.99470700  0.02805600  1
  O  O9  1  0.23770500  0.33487700  0.03697700  1
  O  O10  1  0.39463300  0.62385400  0.92430600  1
  O  O11  1  0.42306400  0.42934100  0.97068400  1
  O  O12  1  0.66503000  0.90482500  0.93370200  1
  O  O13  1  0.33132000  0.24331800  0.96706600  1
  O  O14  1  0.25293800  0.02959100  0.52147000  1
  O  O15  1  0.59448800  0.70116700  0.44859400  1
  O  O16  1  0.43277300  0.07384600  0.50605100  1
  O  O17  1  0.64032900  0.56650200  0.48878100  1
  O  O18  1  0.77571600  0.74684600  0.48194600  1
  O  O19  1  0.89580400  0.97268500  0.97889600  1
  O  O20  1  0.56660500  0.31977200  0.01975400  1
  O  O21  1  0.75137800  0.43211400  0.99326200  1
  O  O22  1  0.67870600  0.24693200  0.98178300  1
  O  O23  1  0.91105700  0.66800700  0.95459100  1
  O  O24  1  0.75646800  0.08789000  0.05588300  1
  O  O25  1  0.92395000  0.35845600  0.50087700  1
  O  O26  1  0.97052700  0.22370700  0.49961200  1
loop_
_geom_bond_atom_site_label_1
_geom_bond_atom_site_label_2
_geom_bond_distance
_geom_bond_site_symmetry_2
Cu0 O1 1.884169 1_555
Cu0 O6 1.969615 1_555
Cu0 O3 2.096807 1_555
Cu0 O3 2.215581 1_554
Cu0 O5 2.362224 1_555
Cu1 O9 1.877037 1_555
Cu1 O5 1.975482 1_555
Cu1 O4 2.078335 1_554
Cu1 O4 2.188973 1_555
Cu1 O10 2.443890 1_554
Cu2 O13 1.899859 1_554
Cu2 O7 1.978841 1_555
Cu2 O14 2.081635 1_555
Cu2 O14 2.128391 1_554
Cu2 O0 2.489325 1_545
Cu3 O12 1.881204 1_555
Cu3 O10 1.970530 1_555
Cu3 O15 2.141075 1_556
Cu3 O15 2.151671 1_555
Cu3 O6 2.404066 1_556
Cu4 O11 1.904934 1_555
Cu4 O20 1.931561 1_556
Cu4 O17 1.972122 1_555
Cu4 O17 2.268845 1_556
Cu5 O8 1.908097 1_545
Cu5 O22 1.928894 1_554
Cu5 O16 1.945855 1_555
Cu5 O16 2.315016 1_554
Cu6 O23 1.900907 1_555
Cu6 O0 1.965591 1_656
Cu6 O18 2.021482 1_555
Cu6 O18 2.211759 1_556
Cu6 O19 2.463932 1_555
Cu7 O2 1.902639 1_655
Cu7 O21 1.944295 1_555
Cu7 O25 1.991601 1_555
Cu7 O25 2.219552 1_556
Cu8 O24 1.899692 1_555
Cu8 O19 1.956391 1_544
Cu8 O26 2.040972 1_555
Cu8 O26 2.201303 1_554
Cu8 O7 2.453857 1_655
C0 O23 1.287816 1_454
C0 O1 1.291246 1_555
C0 O2 1.294607 1_554
C1 O10 1.288259 1_554
C1 O5 1.293449 1_555
C1 O6 1.294970 1_555
C2 O24 1.289534 1_565
C2 O12 1.289822 1_554
C2 O8 1.292906 1_555
C3 O13 1.287423 1_555
C3 O9 1.288195 1_556
C3 O11 1.297685 1_555
C4 O3 1.291918 1_555
C4 O14 1.307357 1_565
C4 O16 1.309797 1_565
C5 O15 1.291049 1_555
C5 O18 1.302872 1_555
C5 O17 1.312841 1_555
C6 O22 1.290599 1_555
C6 O21 1.291656 1_555
C6 O20 1.296049 1_556
C7 O7 1.289883 1_665
C7 O0 1.290788 1_655
C7 O19 1.294660 1_554
C8 O4 1.294795 1_555
C8 O26 1.297977 1_455
C8 O25 1.316131 1_455
