# generated using pymatgen
data_LiV4O5F7
_symmetry_space_group_name_H-M   'P 1'
_cell_length_a   5.12539500
_cell_length_b   5.35016622
_cell_length_c   9.00732684
_cell_angle_alpha   72.98816577
_cell_angle_beta   74.90593782
_cell_angle_gamma   62.90882929
_symmetry_Int_Tables_number   1
_chemical_formula_structural   LiV4O5F7
_chemical_formula_sum   'Li1 V4 O5 F7'
_cell_volume   207.91581061
_cell_formula_units_Z   1
loop_
 _symmetry_equiv_pos_site_id
 _symmetry_equiv_pos_as_xyz
  1  'x, y, z'
loop_
 _atom_site_type_symbol
 _atom_site_label
 _atom_site_symmetry_multiplicity
 _atom_site_fract_x
 _atom_site_fract_y
 _atom_site_fract_z
 _atom_site_occupancy
  Li  Li0  1  0.67910500  0.53926200  0.09818800  1
  V  V0  1  0.99764100  0.00373800  0.99330100  1
  V  V1  1  0.53034600  0.50323200  0.50644000  1
  V  V2  1  0.75915500  0.79189700  0.73987700  1
  V  V3  1  0.21053700  0.25369700  0.25201300  1
  O  O0  1  0.83640000  0.42543900  0.31762500  1
  O  O1  1  0.83340100  0.81969400  0.93419600  1
  O  O2  1  0.72694200  0.11295600  0.62414700  1
  O  O3  1  0.67574400  0.65240400  0.58367800  1
  O  O4  1  0.15565900  0.15395900  0.08280400  1
  F  F0  1  0.76173100  0.39440400  0.88364700  1
  F  F1  1  0.65519000  0.09230100  0.17595500  1
  F  F2  1  0.33623400  0.33211500  0.41946300  1
  F  F3  1  0.32819700  0.92768900  0.82025000  1
  F  F4  1  0.25477200  0.60979200  0.12099700  1
  F  F5  1  0.27891600  0.86933900  0.37510800  1
  F  F6  1  0.17864500  0.56306800  0.67596800  1
loop_
_geom_bond_atom_site_label_1
_geom_bond_atom_site_label_2
_geom_bond_distance
_geom_bond_site_symmetry_2
Li0 O1 2.057648 1_554
Li0 O0 2.146146 1_555
Li0 O4 2.374757 1_655
O0 V3 1.730151 1_655
O0 V1 1.989079 1_555
O1 V0 1.804637 1_565
O1 V2 1.944533 1_555
O2 V2 1.687614 1_545
O2 V1 1.960611 1_555
O3 V1 1.677184 1_555
O3 V2 1.984308 1_555
O4 V0 1.806621 1_454
O4 V3 1.876876 1_555
F0 V0 1.979478 1_555
F0 V2 2.138149 1_555
F0 Li0 2.159979 1_556
F1 V3 2.037029 1_555
F1 V0 2.051027 1_554
F1 Li0 2.337990 1_555
F2 V3 1.997125 1_555
F2 V1 2.024095 1_555
F3 V0 1.957921 1_465
F3 V2 1.985993 1_555
F4 Li0 1.994954 1_555
F4 V3 2.003053 1_555
F4 V0 2.084007 1_464
F5 V3 1.947483 1_565
F5 V1 2.008922 1_555
F6 V2 1.955308 1_455
F6 V1 2.002612 1_555
