# generated using pymatgen
data_LiFeF4
_symmetry_space_group_name_H-M   'P 1'
_cell_length_a   6.36655271
_cell_length_b   6.36655271
_cell_length_c   5.38142147
_cell_angle_alpha   87.28816879
_cell_angle_beta   87.28816879
_cell_angle_gamma   46.77631604
_symmetry_Int_Tables_number   1
_chemical_formula_structural   LiFeF4
_chemical_formula_sum   'Li2 Fe2 F8'
_cell_volume   158.73331976
_cell_formula_units_Z   2
loop_
 _symmetry_equiv_pos_site_id
 _symmetry_equiv_pos_as_xyz
  1  'x, y, z'
loop_
 _atom_site_type_symbol
 _atom_site_label
 _atom_site_symmetry_multiplicity
 _atom_site_fract_x
 _atom_site_fract_y
 _atom_site_fract_z
 _atom_site_occupancy
  Li  Li0  1  0.00809227  0.99190773  0.25000000  1
  Li  Li1  1  0.99190773  0.00809227  0.75000000  1
  Fe  Fe0  1  0.00000000  0.50000000  0.00000000  1
  Fe  Fe1  1  0.50000000  0.00000000  0.50000000  1
  F  F0  1  0.77213418  0.03850430  0.50661828  1
  F  F1  1  0.22834039  0.35143390  0.69200317  1
  F  F2  1  0.03850430  0.77213418  0.00661828  1
  F  F3  1  0.35143390  0.22834039  0.19200317  1
  F  F4  1  0.64856610  0.77165961  0.80799683  1
  F  F5  1  0.96149570  0.22786582  0.99338172  1
  F  F6  1  0.77165961  0.64856610  0.30799683  1
  F  F7  1  0.22786582  0.96149570  0.49338172  1
loop_
_geom_bond_atom_site_label_1
_geom_bond_atom_site_label_2
_geom_bond_distance
_geom_bond_site_symmetry_2
F0 Li0 1.866511 1_645
F0 Li1 1.867890 1_555
F0 Fe1 1.910894 1_555
F1 Fe0 1.947345 1_556
F1 Fe1 1.953023 1_555
F2 Li1 1.866511 1_464
F2 Li0 1.867890 1_555
F2 Fe0 1.910894 1_555
F3 Fe1 1.947345 1_555
F3 Fe0 1.953023 1_555
F4 Fe1 1.947345 1_565
F4 Fe0 1.953023 1_656
F5 Li0 1.866511 1_646
F5 Li1 1.867890 1_555
F5 Fe0 1.910894 1_656
F6 Fe0 1.947345 1_655
F6 Fe1 1.953023 1_565
F7 Li1 1.866511 1_465
F7 Li0 1.867890 1_555
F7 Fe1 1.910894 1_565
