# generated using pymatgen
data_KLiSb3O8
_symmetry_space_group_name_H-M   'P 1'
_cell_length_a   8.96856277
_cell_length_b   8.96492188
_cell_length_c   8.80678342
_cell_angle_alpha   108.19694971
_cell_angle_beta   107.50424522
_cell_angle_gamma   113.46641742
_symmetry_Int_Tables_number   1
_chemical_formula_structural   KLiSb3O8
_chemical_formula_sum   'K3 Li3 Sb9 O24'
_cell_volume   538.62737048
_cell_formula_units_Z   3
loop_
 _symmetry_equiv_pos_site_id
 _symmetry_equiv_pos_as_xyz
  1  'x, y, z'
loop_
 _atom_site_type_symbol
 _atom_site_label
 _atom_site_symmetry_multiplicity
 _atom_site_fract_x
 _atom_site_fract_y
 _atom_site_fract_z
 _atom_site_occupancy
  K  K0  1  0.19061300  0.11968100  0.96111400  1
  K  K1  1  0.48774000  0.50471700  0.99513100  1
  K  K2  1  0.83194300  0.87049900  0.99041600  1
  Li  Li0  1  0.10233900  0.64499900  0.79542100  1
  Li  Li1  1  0.48916000  0.03080500  0.79555200  1
  Li  Li2  1  0.05445500  0.80168200  0.51896300  1
  Sb  Sb0  1  0.99665600  0.16300300  0.48265300  1
  Sb  Sb1  1  0.48818200  0.96595700  0.11720200  1
  Sb  Sb2  1  0.83662400  0.35384600  0.18807100  1
  Sb  Sb3  1  0.83054700  0.32227900  0.81507700  1
  Sb  Sb4  1  0.35195200  0.17575000  0.50823800  1
  Sb  Sb5  1  0.67062500  0.49455400  0.50841100  1
  Sb  Sb6  1  0.32953500  0.64721500  0.63926200  1
  Sb  Sb7  1  0.65723300  0.82372100  0.48188100  1
  Sb  Sb8  1  0.17155400  0.68957500  0.18788100  1
  O  O0  1  0.82154000  0.16818600  0.27787900  1
  O  O1  1  0.55725700  0.19275500  0.05005600  1
  O  O2  1  0.86934300  0.52660700  0.05877900  1
  O  O3  1  0.83495800  0.12514100  0.62220800  1
  O  O4  1  0.49004700  0.21186000  0.36374200  1
  O  O5  1  0.83849500  0.52721100  0.39426100  1
  O  O6  1  0.82524200  0.18977100  0.96175400  1
  O  O7  1  0.55556500  0.19553900  0.70418600  1
  O  O8  1  0.84629000  0.48614300  0.70377400  1
  O  O9  1  0.81533700  0.88235200  0.35958500  1
  O  O10  1  0.51903100  0.54353800  0.33408100  1
  O  O11  1  0.12921500  0.15431800  0.33520900  1
  O  O12  1  0.82980800  0.78310600  0.65329600  1
  O  O13  1  0.20960700  0.16336700  0.65429400  1
  O  O14  1  0.50472400  0.46501600  0.63138100  1
  O  O15  1  0.12324900  0.53515800  0.32016600  1
  O  O16  1  0.44753600  0.79536800  0.27853000  1
  O  O17  1  0.19608500  0.83143800  0.05026100  1
  O  O18  1  0.12320100  0.43229200  0.63706200  1
  O  O19  1  0.54426700  0.85117300  0.63823800  1
  O  O20  1  0.20477400  0.89367900  0.39427500  1
  O  O21  1  0.48892400  0.76558600  0.91666500  1
  O  O22  1  0.10967700  0.47445500  0.96181000  1
  O  O23  1  0.24046900  0.81145700  0.71323300  1
loop_
_geom_bond_atom_site_label_1
_geom_bond_atom_site_label_2
_geom_bond_distance
_geom_bond_site_symmetry_2
K0 O1 2.875745 1_556
K0 O13 2.892826 1_555
K0 O17 2.939584 1_546
K0 O12 2.960160 1_445
K1 O21 2.634581 1_555
K1 O10 2.807114 1_556
K1 O13 2.876864 1_555
K1 O9 3.164541 1_556
K1 O14 3.168072 1_555
K1 O22 3.205551 1_555
K1 O2 3.210627 1_556
K1 O16 3.221263 1_556
K1 O1 3.239830 1_556
K2 O21 2.623488 1_555
K2 O11 2.775685 1_666
K2 O12 2.816003 1_555
K2 O6 2.973031 1_565
Li0 O8 1.874981 1_455
Li0 O17 1.985024 1_556
Li0 O23 2.006786 1_555
Li0 O18 2.096761 1_555
Li0 O22 2.431166 1_555
Li1 O7 1.874334 1_555
Li1 O1 1.985581 1_556
Li1 O23 2.002748 1_545
Li1 O19 2.099842 1_545
Li1 O6 2.425029 1_555
Li2 O23 1.947032 1_555
Li2 O5 2.061344 1_455
Li2 O20 2.067410 1_555
Li2 O12 2.603121 1_455
Li2 O13 2.620256 1_565
O0 Sb2 2.030126 1_555
O0 Sb0 2.031668 1_555
O0 Sb1 2.400766 1_545
O1 Sb2 2.007625 1_555
O1 Sb1 2.199004 1_545
O2 Sb3 2.161141 1_554
O2 Sb2 2.172982 1_555
O2 Sb8 2.174507 1_655
O3 Sb3 2.057015 1_555
O3 Sb7 2.160749 1_545
O3 Sb0 2.160902 1_555
O4 Sb5 2.035235 1_555
O4 Sb4 2.035718 1_555
O4 Sb1 2.556097 1_545
O5 Sb2 1.977736 1_555
O5 Sb5 2.026391 1_555
O6 Sb3 2.008087 1_555
O6 Sb2 2.018299 1_556
O7 Sb3 1.988290 1_555
O7 Sb4 1.999808 1_555
O8 Sb3 1.989030 1_555
O8 Sb5 1.998254 1_555
O9 Sb7 2.031155 1_555
O9 Sb0 2.031629 1_565
O10 Sb5 2.009811 1_555
O10 Sb7 2.011898 1_555
O11 Sb4 2.007436 1_555
O11 Sb0 2.011169 1_455
O12 Sb7 2.047838 1_555
O12 Sb5 2.063838 1_555
O13 Sb0 2.046421 1_455
O13 Sb4 2.064161 1_555
O14 Sb5 2.071570 1_555
O14 Sb4 2.073209 1_555
O14 Sb6 2.679587 1_555
O15 Sb8 2.072332 1_555
O15 Sb2 2.072621 1_455
O15 Sb6 2.440967 1_555
O16 Sb7 2.029209 1_555
O16 Sb8 2.032757 1_555
O16 Sb1 2.390597 1_555
O17 Sb8 2.008741 1_555
O17 Sb1 2.185291 1_555
O18 Sb0 1.950512 1_455
O18 Sb6 2.062204 1_555
O19 Sb7 1.951745 1_555
O19 Sb6 2.066035 1_555
O20 Sb8 1.975740 1_555
O20 Sb4 2.025774 1_565
O21 Sb6 2.051783 1_555
O21 Sb1 2.093088 1_556
O22 Sb3 2.007727 1_455
O22 Sb8 2.018913 1_556
O23 Sb6 1.970058 1_555
