# generated using pymatgen
data_Mn3Nb(PO4)4
_symmetry_space_group_name_H-M   'P 1'
_cell_length_a   5.08026700
_cell_length_b   10.21525436
_cell_length_c   6.07258400
_cell_angle_alpha   90.00028734
_cell_angle_beta   89.99988700
_cell_angle_gamma   89.98342929
_symmetry_Int_Tables_number   1
_chemical_formula_structural   Mn3Nb(PO4)4
_chemical_formula_sum   'Mn3 Nb1 P4 O16'
_cell_volume   315.14413972
_cell_formula_units_Z   1
loop_
 _symmetry_equiv_pos_site_id
 _symmetry_equiv_pos_as_xyz
  1  'x, y, z'
loop_
 _atom_site_type_symbol
 _atom_site_label
 _atom_site_symmetry_multiplicity
 _atom_site_fract_x
 _atom_site_fract_y
 _atom_site_fract_z
 _atom_site_occupancy
  Mn  Mn0  1  0.02111000  0.73050400  0.74999300  1
  Mn  Mn1  1  0.46259800  0.21913700  0.75000200  1
  Mn  Mn2  1  0.54639400  0.77196400  0.24999700  1
  Nb  Nb0  1  0.96630600  0.27967600  0.25000100  1
  P  P0  1  0.07988500  0.60452200  0.25000000  1
  P  P1  1  0.38837800  0.09830000  0.25000100  1
  P  P2  1  0.59565800  0.90142200  0.74999800  1
  P  P3  1  0.93738500  0.40610300  0.75000200  1
  O  O0  1  0.13758000  0.44608000  0.25000100  1
  O  O1  1  0.22040300  0.66396100  0.04757100  1
  O  O2  1  0.22039700  0.66396200  0.45243400  1
  O  O3  1  0.23092100  0.38358300  0.75000100  1
  O  O4  1  0.30191300  0.87748000  0.75000100  1
  O  O5  1  0.23524000  0.17136400  0.05733900  1
  O  O6  1  0.23524100  0.17136400  0.44266400  1
  O  O7  1  0.36249600  0.95360900  0.24999900  1
  O  O8  1  0.66097700  0.04763700  0.75000000  1
  O  O9  1  0.74287700  0.82761000  0.55388800  1
  O  O10  1  0.74288300  0.82760800  0.94610400  1
  O  O11  1  0.67868600  0.14608600  0.24999900  1
  O  O12  1  0.78268800  0.61126600  0.25000000  1
  O  O13  1  0.80553600  0.32646600  0.54593100  1
  O  O14  1  0.80553700  0.32646500  0.95407000  1
  O  O15  1  0.83891000  0.54382900  0.75000300  1
loop_
_geom_bond_atom_site_label_1
_geom_bond_atom_site_label_2
_geom_bond_distance
_geom_bond_site_symmetry_2
Mn0 O4 2.071350 1_555
Mn0 O10 2.097440 1_455
Mn0 O9 2.097458 1_455
Mn0 O15 2.119951 1_455
Mn0 O2 2.179845 1_555
Mn0 O1 2.179967 1_556
Mn1 O8 2.020863 1_555
Mn1 O3 2.050869 1_555
Mn1 O5 2.248508 1_556
Mn1 O6 2.248510 1_555
Mn1 O14 2.402948 1_555
Mn1 O13 2.402960 1_555
Mn2 O12 2.033387 1_555
Mn2 O7 2.077231 1_555
Mn2 O9 2.173784 1_555
Mn2 O10 2.173804 1_554
Mn2 O1 2.339244 1_555
Mn2 O2 2.339299 1_555
Nb0 O0 1.909838 1_655
Nb0 O11 1.999626 1_555
Nb0 O13 2.030943 1_555
Nb0 O14 2.030951 1_554
Nb0 O5 2.111577 1_655
Nb0 O6 2.111593 1_655
O0 P0 1.644768 1_555
O1 P0 1.545844 1_555
O2 P0 1.545856 1_555
O3 P3 1.508815 1_455
O4 P2 1.512282 1_555
O5 P1 1.590847 1_555
O6 P1 1.590841 1_555
O7 P1 1.483930 1_565
O8 P2 1.530135 1_545
O9 P2 1.595554 1_555
O10 P2 1.595567 1_555
O11 P1 1.553661 1_555
O12 P0 1.511391 1_655
O13 P3 1.626804 1_555
O14 P3 1.626797 1_555
O15 P3 1.493070 1_555
