# generated using pymatgen
data_Li3Si2(NiO4)2
_symmetry_space_group_name_H-M   'P 1'
_cell_length_a   5.02106700
_cell_length_b   6.40406000
_cell_length_c   10.75600130
_cell_angle_alpha   88.60775577
_cell_angle_beta   90.00000000
_cell_angle_gamma   90.00000000
_symmetry_Int_Tables_number   1
_chemical_formula_structural   Li3Si2(NiO4)2
_chemical_formula_sum   'Li6 Si4 Ni4 O16'
_cell_volume   345.75942470
_cell_formula_units_Z   2
loop_
 _symmetry_equiv_pos_site_id
 _symmetry_equiv_pos_as_xyz
  1  'x, y, z'
loop_
 _atom_site_type_symbol
 _atom_site_label
 _atom_site_symmetry_multiplicity
 _atom_site_fract_x
 _atom_site_fract_y
 _atom_site_fract_z
 _atom_site_occupancy
  Li  Li0  1  0.95056400  0.13064000  0.09358700  1
  Li  Li1  1  0.95317600  0.38358100  0.32642500  1
  Li  Li2  1  0.44427100  0.62817400  0.40853000  1
  Li  Li3  1  0.04943600  0.13064000  0.59358700  1
  Li  Li4  1  0.04682400  0.38358100  0.82642500  1
  Li  Li5  1  0.55572900  0.62817400  0.90853000  1
  Si  Si0  1  0.43666300  0.38245200  0.15793500  1
  Si  Si1  1  0.94240400  0.88115700  0.33848200  1
  Si  Si2  1  0.56333700  0.38245200  0.65793500  1
  Si  Si3  1  0.05759600  0.88115700  0.83848200  1
  Ni  Ni0  1  0.94636800  0.65005000  0.08928200  1
  Ni  Ni1  1  0.44928000  0.13121100  0.41459100  1
  Ni  Ni2  1  0.05363200  0.65005000  0.58928200  1
  Ni  Ni3  1  0.55072000  0.13121100  0.91459100  1
  O  O0  1  0.54975200  0.17788300  0.08234100  1
  O  O1  1  0.55995300  0.58890500  0.09066500  1
  O  O2  1  0.10955400  0.38509800  0.15717500  1
  O  O3  1  0.01042000  0.88761800  0.19216200  1
  O  O4  1  0.54038300  0.36040400  0.30717200  1
  O  O5  1  0.61586600  0.89551100  0.36479600  1
  O  O6  1  0.06885300  0.09221300  0.40572900  1
  O  O7  1  0.04275800  0.65861600  0.40316400  1
  O  O8  1  0.45024800  0.17788300  0.58234100  1
  O  O9  1  0.44004700  0.58890500  0.59066500  1
  O  O10  1  0.89044600  0.38509800  0.65717500  1
  O  O11  1  0.98958000  0.88761800  0.69216200  1
  O  O12  1  0.45961700  0.36040400  0.80717200  1
  O  O13  1  0.38413400  0.89551100  0.86479600  1
  O  O14  1  0.93114700  0.09221300  0.90572900  1
  O  O15  1  0.95724200  0.65861600  0.90316400  1
loop_
_geom_bond_atom_site_label_1
_geom_bond_atom_site_label_2
_geom_bond_distance
_geom_bond_site_symmetry_2
Li0 O3 1.885861 1_645
Li0 O2 1.953129 1_655
Li0 O0 2.038274 1_555
Li0 O14 2.043785 1_554
Li1 O2 1.982372 1_655
Li1 O7 2.014095 1_655
Li1 O4 2.088620 1_555
Li1 O6 2.114080 1_655
Li2 O5 1.963560 1_555
Li2 O9 1.969164 1_555
Li2 O7 2.026115 1_555
Li2 O4 2.110184 1_555
Li3 O11 1.885861 1_445
Li3 O10 1.953129 1_455
Li3 O8 2.038274 1_555
Li3 O6 2.043785 1_555
Li4 O10 1.982372 1_455
Li4 O15 2.014095 1_455
Li4 O12 2.088620 1_555
Li4 O14 2.114080 1_455
Li5 O13 1.963560 1_555
Li5 O1 1.969164 1_556
Li5 O15 2.026115 1_555
Li5 O12 2.110184 1_555
Ni0 O3 1.929874 1_655
Ni0 O1 1.979320 1_555
Ni0 O15 2.002049 1_554
Ni0 O2 2.005854 1_655
Ni1 O5 1.817740 1_545
Ni1 O8 1.836065 1_555
Ni1 O4 1.901610 1_555
Ni1 O6 1.929064 1_555
Ni2 O11 1.929874 1_455
Ni2 O9 1.979320 1_555
Ni2 O7 2.002049 1_555
Ni2 O10 2.005854 1_455
Ni3 O13 1.817740 1_545
Ni3 O0 1.836065 1_556
Ni3 O12 1.901610 1_555
Ni3 O14 1.929064 1_555
O0 Si0 1.658793 1_555
O1 Si0 1.615027 1_555
O2 Si0 1.642542 1_555
O3 Si1 1.609994 1_455
O4 Si0 1.690203 1_555
O5 Si1 1.666736 1_555
O6 Si1 1.673516 1_445
O7 Si1 1.649497 1_455
O8 Si2 1.658793 1_555
O9 Si2 1.615027 1_555
O10 Si2 1.642542 1_555
O11 Si3 1.609994 1_655
O12 Si2 1.690203 1_555
O13 Si3 1.666736 1_555
O14 Si3 1.673516 1_645
O15 Si3 1.649497 1_655
