# generated using pymatgen
data_Na2GaPCO7
_symmetry_space_group_name_H-M   'P 1'
_cell_length_a   6.52562300
_cell_length_b   5.17518000
_cell_length_c   8.96434163
_cell_angle_alpha   89.53389318
_cell_angle_beta   90.00000000
_cell_angle_gamma   90.00000000
_symmetry_Int_Tables_number   1
_chemical_formula_structural   Na2GaPCO7
_chemical_formula_sum   'Na4 Ga2 P2 C2 O14'
_cell_volume   302.72721659
_cell_formula_units_Z   2
loop_
 _symmetry_equiv_pos_site_id
 _symmetry_equiv_pos_as_xyz
  1  'x, y, z'
loop_
 _atom_site_type_symbol
 _atom_site_label
 _atom_site_symmetry_multiplicity
 _atom_site_fract_x
 _atom_site_fract_y
 _atom_site_fract_z
 _atom_site_occupancy
  Na  Na0  1  0.50310500  0.76691600  0.77208700  1
  Na  Na1  1  0.99689500  0.76691600  0.77208700  1
  Na  Na2  1  0.49689500  0.23308400  0.22791300  1
  Na  Na3  1  0.00310500  0.23308400  0.22791300  1
  Ga  Ga0  1  0.25000000  0.22181000  0.64829800  1
  Ga  Ga1  1  0.75000000  0.77819000  0.35170200  1
  P  P0  1  0.75000000  0.28549700  0.57273300  1
  P  P1  1  0.25000000  0.71450300  0.42726700  1
  C  C0  1  0.25000000  0.26895400  0.92279600  1
  C  C1  1  0.75000000  0.73104600  0.07720400  1
  O  O0  1  0.75000000  0.69948500  0.93809900  1
  O  O1  1  0.25000000  0.04355000  0.85747500  1
  O  O2  1  0.25000000  0.46483700  0.82572500  1
  O  O3  1  0.94145200  0.21207200  0.66500300  1
  O  O4  1  0.55854800  0.21207200  0.66500300  1
  O  O5  1  0.25000000  0.85581400  0.58023000  1
  O  O6  1  0.75000000  0.58604200  0.54126000  1
  O  O7  1  0.25000000  0.41395800  0.45874000  1
  O  O8  1  0.75000000  0.14418600  0.41977000  1
  O  O9  1  0.44145200  0.78792800  0.33499700  1
  O  O10  1  0.05854800  0.78792800  0.33499700  1
  O  O11  1  0.75000000  0.53516300  0.17427500  1
  O  O12  1  0.75000000  0.95645000  0.14252500  1
  O  O13  1  0.25000000  0.30051500  0.06190100  1
loop_
_geom_bond_atom_site_label_1
_geom_bond_atom_site_label_2
_geom_bond_distance
_geom_bond_site_symmetry_2
Na0 O0 2.218968 1_555
Na0 O1 2.319765 1_565
Na0 O2 2.321836 1_555
Na0 O5 2.425850 1_555
Na0 O4 2.514701 1_565
Na0 O6 2.790186 1_555
Na1 O0 2.218968 1_555
Na1 O1 2.319765 1_665
Na1 O2 2.321836 1_655
Na1 O5 2.425850 1_655
Na1 O3 2.514701 1_565
Na1 O6 2.790186 1_555
Na2 O13 2.218968 1_555
Na2 O12 2.319765 1_545
Na2 O11 2.321836 1_555
Na2 O8 2.425850 1_555
Na2 O9 2.514701 1_545
Na2 O7 2.790186 1_555
Na3 O13 2.218968 1_555
Na3 O12 2.319765 1_445
Na3 O11 2.321836 1_455
Na3 O8 2.425850 1_455
Na3 O10 2.514701 1_545
Na3 O7 2.790186 1_555
Ga0 O7 1.961844 1_555
Ga0 O5 1.994674 1_545
Ga0 O4 2.019627 1_555
Ga0 O3 2.019627 1_455
Ga0 O2 2.035711 1_555
Ga0 O1 2.083036 1_555
Ga1 O6 1.961844 1_555
Ga1 O8 1.994674 1_565
Ga1 O10 2.019627 1_655
Ga1 O9 2.019627 1_555
Ga1 O11 2.035711 1_555
Ga1 O12 2.083036 1_555
C0 O13 1.258953 1_556
C0 O1 1.309477 1_555
C0 O2 1.330603 1_555
C1 O0 1.258953 1_554
C1 O12 1.309477 1_555
C1 O11 1.330603 1_555
O3 P0 1.544117 1_555
O4 P0 1.544117 1_555
O5 P1 1.559280 1_555
O6 P0 1.578496 1_555
O7 P1 1.578496 1_555
O8 P0 1.559280 1_555
O9 P1 1.544117 1_555
O10 P1 1.544117 1_555
