# generated using pymatgen
data_BaYb2O4
_symmetry_space_group_name_H-M   'P 1'
_cell_length_a   7.15884025
_cell_length_b   7.15884025
_cell_length_c   7.15884025
_cell_angle_alpha   121.42741704
_cell_angle_beta   121.42741704
_cell_angle_gamma   87.54492549
_symmetry_Int_Tables_number   1
_chemical_formula_structural   BaYb2O4
_chemical_formula_sum   'Ba2 Yb4 O8'
_cell_volume   253.57554886
_cell_formula_units_Z   2
loop_
 _symmetry_equiv_pos_site_id
 _symmetry_equiv_pos_as_xyz
  1  'x, y, z'
loop_
 _atom_site_type_symbol
 _atom_site_label
 _atom_site_symmetry_multiplicity
 _atom_site_fract_x
 _atom_site_fract_y
 _atom_site_fract_z
 _atom_site_occupancy
  Ba  Ba0  1  0.75000000  0.25000000  0.50000000  1
  Ba  Ba1  1  0.00000000  0.00000000  0.00000000  1
  Yb  Yb0  1  0.87500000  0.62500000  0.25000000  1
  Yb  Yb1  1  0.37500000  0.12500000  0.75000000  1
  Yb  Yb2  1  0.37500000  0.62500000  0.25000000  1
  Yb  Yb3  1  0.37500000  0.62500000  0.75000000  1
  O  O0  1  0.15051400  0.43358100  0.28306700  1
  O  O1  1  0.18358100  0.40051400  0.78306700  1
  O  O2  1  0.61744700  0.40051400  0.21693300  1
  O  O3  1  0.59948600  0.38255300  0.78306700  1
  O  O4  1  0.15051400  0.86744700  0.71693300  1
  O  O5  1  0.13255300  0.84948600  0.28306700  1
  O  O6  1  0.56641900  0.84948600  0.71693300  1
  O  O7  1  0.59948600  0.81641900  0.21693300  1
loop_
_geom_bond_atom_site_label_1
_geom_bond_atom_site_label_2
_geom_bond_distance
_geom_bond_site_symmetry_2
Ba0 O3 2.520322 1_555
Ba0 O1 2.520322 1_655
Ba0 O2 2.520322 1_555
Ba0 O7 2.520322 1_545
Ba1 O0 2.520322 1_555
Ba1 O4 2.520322 1_544
Ba1 O6 2.520322 1_444
Ba1 O5 2.520322 1_545
O0 Yb2 2.332419 1_555
O0 Yb3 2.333217 1_555
O0 Yb0 2.333217 1_455
O1 Yb3 2.332419 1_555
O1 Yb1 2.333217 1_555
O1 Yb2 2.333217 1_556
O2 Yb0 2.332419 1_555
O2 Yb2 2.333217 1_555
O2 Yb1 2.333217 1_554
O3 Yb1 2.332419 1_555
O3 Yb3 2.333217 1_555
O3 Yb0 2.333217 1_556
O4 Yb1 2.332419 1_565
O4 Yb3 2.333217 1_555
O4 Yb0 2.333217 1_455
O5 Yb0 2.332419 1_455
O5 Yb1 2.333217 1_565
O5 Yb2 2.333217 1_555
O6 Yb3 2.332419 1_555
O6 Yb1 2.333217 1_565
O6 Yb2 2.333217 1_555
O7 Yb2 2.332419 1_555
O7 Yb3 2.333217 1_554
O7 Yb0 2.333217 1_555
