# generated using pymatgen
data_SiGeO3
_symmetry_space_group_name_H-M   'P 1'
_cell_length_a   5.42094800
_cell_length_b   9.43247200
_cell_length_c   20.06184000
_cell_angle_alpha   90.00000000
_cell_angle_beta   90.00000000
_cell_angle_gamma   90.00000000
_symmetry_Int_Tables_number   1
_chemical_formula_structural   SiGeO3
_chemical_formula_sum   'Si16 Ge16 O48'
_cell_volume   1025.82086549
_cell_formula_units_Z   16
loop_
 _symmetry_equiv_pos_site_id
 _symmetry_equiv_pos_as_xyz
  1  'x, y, z'
loop_
 _atom_site_type_symbol
 _atom_site_label
 _atom_site_symmetry_multiplicity
 _atom_site_fract_x
 _atom_site_fract_y
 _atom_site_fract_z
 _atom_site_occupancy
  Si  Si0  1  0.73437600  0.34961400  0.00286700  1
  Si  Si1  1  0.23437600  0.15038600  0.00286700  1
  Si  Si2  1  0.51521800  0.34894100  0.24769100  1
  Si  Si3  1  0.01521800  0.15105900  0.24769100  1
  Si  Si4  1  0.51521800  0.84894100  0.25230900  1
  Si  Si5  1  0.01521800  0.65105900  0.25230900  1
  Si  Si6  1  0.73437600  0.84961400  0.49713300  1
  Si  Si7  1  0.23437600  0.65038600  0.49713300  1
  Si  Si8  1  0.76562400  0.34961400  0.50286700  1
  Si  Si9  1  0.26562400  0.15038600  0.50286700  1
  Si  Si10  1  0.98478200  0.34894100  0.74769100  1
  Si  Si11  1  0.48478200  0.15105900  0.74769100  1
  Si  Si12  1  0.98478200  0.84894100  0.75230900  1
  Si  Si13  1  0.48478200  0.65105900  0.75230900  1
  Si  Si14  1  0.76562400  0.84961400  0.99713300  1
  Si  Si15  1  0.26562400  0.65038600  0.99713300  1
  Ge  Ge0  1  0.63303000  0.08459700  0.12478900  1
  Ge  Ge1  1  0.13303000  0.41540300  0.12478900  1
  Ge  Ge2  1  0.62921300  0.59812800  0.12539100  1
  Ge  Ge3  1  0.12921300  0.90187200  0.12539100  1
  Ge  Ge4  1  0.12921300  0.40187200  0.37460900  1
  Ge  Ge5  1  0.62921300  0.09812800  0.37460900  1
  Ge  Ge6  1  0.13303000  0.91540300  0.37521100  1
  Ge  Ge7  1  0.63303000  0.58459700  0.37521100  1
  Ge  Ge8  1  0.36697000  0.41540300  0.62478900  1
  Ge  Ge9  1  0.86697000  0.08459700  0.62478900  1
  Ge  Ge10  1  0.37078700  0.90187200  0.62539100  1
  Ge  Ge11  1  0.87078700  0.59812800  0.62539100  1
  Ge  Ge12  1  0.37078700  0.40187200  0.87460900  1
  Ge  Ge13  1  0.87078700  0.09812800  0.87460900  1
  Ge  Ge14  1  0.36697000  0.91540300  0.87521100  1
  Ge  Ge15  1  0.86697000  0.58459700  0.87521100  1
  O  O0  1  0.97090100  0.23855400  0.00552200  1
  O  O1  1  0.47090100  0.26144600  0.00552200  1
  O  O2  1  0.78400500  0.93677800  0.06776300  1
  O  O3  1  0.28400500  0.56322200  0.06776300  1
  O  O4  1  0.77884200  0.45475100  0.06671500  1
  O  O5  1  0.27884200  0.04524900  0.06671500  1
  O  O6  1  0.48453400  0.94046600  0.18340500  1
  O  O7  1  0.98453400  0.55953400  0.18340500  1
  O  O8  1  0.98024600  0.05112500  0.18142700  1
  O  O9  1  0.48024600  0.44887500  0.18142700  1
  O  O10  1  0.78087700  0.26398300  0.24564800  1
  O  O11  1  0.28087700  0.23601700  0.24564800  1
  O  O12  1  0.28087700  0.73601700  0.25435200  1
  O  O13  1  0.78087700  0.76398300  0.25435200  1
  O  O14  1  0.98024600  0.55112500  0.31857300  1
  O  O15  1  0.48024600  0.94887500  0.31857300  1
  O  O16  1  0.48453400  0.44046600  0.31659500  1
  O  O17  1  0.98453400  0.05953400  0.31659500  1
  O  O18  1  0.77884200  0.95475100  0.43328500  1
  O  O19  1  0.27884200  0.54524900  0.43328500  1
  O  O20  1  0.78400500  0.43677800  0.43223700  1
  O  O21  1  0.28400500  0.06322200  0.43223700  1
  O  O22  1  0.47090100  0.76144600  0.49447800  1
  O  O23  1  0.97090100  0.73855400  0.49447800  1
  O  O24  1  0.02909900  0.26144600  0.50552200  1
  O  O25  1  0.52909900  0.23855400  0.50552200  1
  O  O26  1  0.71599500  0.93677800  0.56776300  1
  O  O27  1  0.21599500  0.56322200  0.56776300  1
  O  O28  1  0.72115800  0.45475100  0.56671500  1
  O  O29  1  0.22115800  0.04524900  0.56671500  1
  O  O30  1  0.01546600  0.94046600  0.68340500  1
  O  O31  1  0.51546600  0.55953400  0.68340500  1
  O  O32  1  0.51975400  0.05112500  0.68142700  1
  O  O33  1  0.01975400  0.44887500  0.68142700  1
  O  O34  1  0.21912300  0.23601700  0.74564800  1
  O  O35  1  0.71912300  0.26398300  0.74564800  1
  O  O36  1  0.21912300  0.73601700  0.75435200  1
  O  O37  1  0.71912300  0.76398300  0.75435200  1
  O  O38  1  0.51975400  0.55112500  0.81857300  1
  O  O39  1  0.01975400  0.94887500  0.81857300  1
  O  O40  1  0.01546600  0.44046600  0.81659500  1
  O  O41  1  0.51546600  0.05953400  0.81659500  1
  O  O42  1  0.72115800  0.95475100  0.93328500  1
  O  O43  1  0.22115800  0.54524900  0.93328500  1
  O  O44  1  0.71599500  0.43677800  0.93223700  1
  O  O45  1  0.21599500  0.06322200  0.93223700  1
  O  O46  1  0.02909900  0.76144600  0.99447800  1
  O  O47  1  0.52909900  0.73855400  0.99447800  1
loop_
_geom_bond_atom_site_label_1
_geom_bond_atom_site_label_2
_geom_bond_distance
_geom_bond_site_symmetry_2
Ge0 O6 1.969550 1_545
Ge0 O2 1.980589 1_545
Ge0 O8 2.221171 1_555
Ge0 O5 2.276330 1_555
Ge1 O7 1.969550 1_455
Ge1 O3 1.980589 1_555
Ge1 O9 2.221171 1_555
Ge1 O4 2.276330 1_455
Ge2 O4 1.967891 1_555
Ge2 O9 1.974307 1_555
Ge2 O3 2.224184 1_555
Ge2 O7 2.279752 1_555
Ge3 O5 1.967891 1_565
Ge3 O8 1.974307 1_465
Ge3 O2 2.224184 1_455
Ge3 O6 2.279752 1_555
Ge4 O19 1.967891 1_555
Ge4 O14 1.974307 1_455
Ge4 O20 2.224184 1_455
Ge4 O16 2.279752 1_555
Ge5 O18 1.967891 1_545
Ge5 O15 1.974307 1_545
Ge5 O21 2.224184 1_555
Ge5 O17 2.279752 1_555
Ge6 O17 1.969550 1_465
Ge6 O21 1.980589 1_565
Ge6 O15 2.221171 1_555
Ge6 O18 2.276330 1_455
Ge7 O16 1.969550 1_555
Ge7 O20 1.980589 1_555
Ge7 O14 2.221171 1_555
Ge7 O19 2.276330 1_555
Ge8 O31 1.969550 1_555
Ge8 O27 1.980589 1_555
Ge8 O33 2.221171 1_555
Ge8 O28 2.276330 1_555
Ge9 O30 1.969550 1_645
Ge9 O26 1.980589 1_545
Ge9 O32 2.221171 1_555
Ge9 O29 2.276330 1_655
Ge10 O29 1.967891 1_565
Ge10 O32 1.974307 1_565
Ge10 O26 2.224184 1_555
Ge10 O30 2.279752 1_555
Ge11 O28 1.967891 1_555
Ge11 O33 1.974307 1_655
Ge11 O27 2.224184 1_655
Ge11 O31 2.279752 1_555
Ge12 O43 1.967891 1_555
Ge12 O38 1.974307 1_555
Ge12 O44 2.224184 1_555
Ge12 O40 2.279752 1_555
Ge13 O42 1.967891 1_545
Ge13 O39 1.974307 1_645
Ge13 O45 2.224184 1_655
Ge13 O41 2.279752 1_555
Ge14 O41 1.969550 1_565
Ge14 O45 1.980589 1_565
Ge14 O39 2.221171 1_555
Ge14 O42 2.276330 1_555
Ge15 O40 1.969550 1_655
Ge15 O44 1.980589 1_555
Ge15 O38 2.221171 1_555
Ge15 O43 2.276330 1_655
O0 Si1 1.653621 1_655
O0 Si0 1.656578 1_555
O1 Si0 1.653621 1_555
O1 Si1 1.656578 1_555
O2 Si14 1.641247 1_554
O3 Si15 1.641247 1_554
O4 Si0 1.637774 1_555
O5 Si1 1.637774 1_555
O6 Si4 1.638241 1_555
O7 Si5 1.638241 1_655
O8 Si3 1.640649 1_655
O9 Si2 1.640649 1_555
O10 Si2 1.648581 1_555
O10 Si3 1.658318 1_655
O11 Si3 1.648581 1_555
O11 Si2 1.658318 1_555
O12 Si5 1.648581 1_555
O12 Si4 1.658318 1_555
O13 Si4 1.648581 1_555
O13 Si5 1.658318 1_655
O14 Si5 1.640649 1_655
O15 Si4 1.640649 1_555
O16 Si2 1.638241 1_555
O17 Si3 1.638241 1_655
O18 Si6 1.637774 1_555
O19 Si7 1.637774 1_555
O20 Si8 1.641247 1_555
O21 Si9 1.641247 1_555
O22 Si6 1.653621 1_555
O22 Si7 1.656578 1_555
O23 Si7 1.653621 1_655
O23 Si6 1.656578 1_555
O24 Si8 1.653621 1_455
O24 Si9 1.656578 1_555
O25 Si9 1.653621 1_555
O25 Si8 1.656578 1_555
O26 Si6 1.641247 1_555
O27 Si7 1.641247 1_555
O28 Si8 1.637774 1_555
O29 Si9 1.637774 1_555
O30 Si12 1.638241 1_455
O31 Si13 1.638241 1_555
O32 Si11 1.640649 1_555
O33 Si10 1.640649 1_455
O34 Si11 1.648581 1_555
O34 Si10 1.658318 1_455
O35 Si10 1.648581 1_555
O35 Si11 1.658318 1_555
O36 Si13 1.648581 1_555
O36 Si12 1.658318 1_455
O37 Si12 1.648581 1_555
O37 Si13 1.658318 1_555
O38 Si13 1.640649 1_555
O39 Si12 1.640649 1_455
O40 Si10 1.638241 1_455
O41 Si11 1.638241 1_555
O42 Si14 1.637774 1_555
O43 Si15 1.637774 1_555
O44 Si0 1.641247 1_556
O45 Si1 1.641247 1_556
O46 Si14 1.653621 1_455
O46 Si15 1.656578 1_555
O47 Si15 1.653621 1_555
O47 Si14 1.656578 1_555
