# generated using pymatgen
data_Li4Cr3NiO8
_symmetry_space_group_name_H-M   'P 1'
_cell_length_a   5.92716013
_cell_length_b   5.93135292
_cell_length_c   5.93142837
_cell_angle_alpha   120.33261964
_cell_angle_beta   120.32156495
_cell_angle_gamma   59.67968590
_symmetry_Int_Tables_number   1
_chemical_formula_structural   Li4Cr3NiO8
_chemical_formula_sum   'Li4 Cr3 Ni1 O8'
_cell_volume   146.36184329
_cell_formula_units_Z   1
loop_
 _symmetry_equiv_pos_site_id
 _symmetry_equiv_pos_as_xyz
  1  'x, y, z'
loop_
 _atom_site_type_symbol
 _atom_site_label
 _atom_site_symmetry_multiplicity
 _atom_site_fract_x
 _atom_site_fract_y
 _atom_site_fract_z
 _atom_site_occupancy
  Li  Li0  1  0.50000200  0.49995900  0.50003100  1
  Li  Li1  1  0.00005900  0.99995000  0.50000600  1
  Li  Li2  1  0.00009200  0.50007400  0.00012700  1
  Li  Li3  1  0.50013400  0.99997400  0.00006800  1
  Cr  Cr0  1  0.99976800  0.49995800  0.50003900  1
  Cr  Cr1  1  0.49979500  0.49995000  0.99967100  1
  Cr  Cr2  1  0.49993100  0.99996700  0.49997800  1
  Ni  Ni0  1  0.00008300  0.00013400  0.99999300  1
  O  O0  1  0.74289700  0.74244100  0.25754700  1
  O  O1  1  0.25710800  0.25753100  0.74246500  1
  O  O2  1  0.24141100  0.23925000  0.25605600  1
  O  O3  1  0.24139700  0.74402700  0.76078000  1
  O  O4  1  0.73569100  0.24681500  0.75314200  1
  O  O5  1  0.75863200  0.76083700  0.74408700  1
  O  O6  1  0.75861300  0.25599100  0.23918900  1
  O  O7  1  0.26438300  0.75313700  0.24682300  1
loop_
_geom_bond_atom_site_label_1
_geom_bond_atom_site_label_2
_geom_bond_distance
_geom_bond_site_symmetry_2
Li0 O4 2.121625 1_555
Li0 O7 2.122218 1_555
Li0 O2 2.174359 1_555
Li0 O3 2.174621 1_555
Li0 O6 2.175079 1_555
Li0 O5 2.175237 1_555
Li1 O1 2.154599 1_565
Li1 O0 2.154775 1_455
Li1 O3 2.165177 1_555
Li1 O6 2.165839 1_465
Li1 O4 2.166130 1_465
Li1 O7 2.166151 1_555
Li2 O0 2.154614 1_455
Li2 O1 2.154838 1_554
Li2 O2 2.165426 1_555
Li2 O7 2.165470 1_555
Li2 O5 2.165595 1_454
Li2 O4 2.166713 1_454
Li3 O5 2.155032 1_554
Li3 O6 2.155056 1_565
Li3 O3 2.155820 1_554
Li3 O2 2.155995 1_565
Li3 O0 2.157401 1_555
Li3 O1 2.157967 1_564
Cr0 O1 2.030065 1_655
Cr0 O0 2.030464 1_555
Cr0 O6 2.030988 1_555
Cr0 O5 2.031299 1_555
Cr0 O2 2.033030 1_655
Cr0 O3 2.033280 1_655
Cr1 O4 2.018595 1_555
Cr1 O7 2.019229 1_556
Cr1 O3 2.022709 1_555
Cr1 O6 2.024862 1_556
Cr1 O1 2.030006 1_555
Cr1 O0 2.032133 1_556
Cr2 O7 2.018387 1_555
Cr2 O4 2.019321 1_565
Cr2 O2 2.023688 1_565
Cr2 O5 2.023879 1_555
Cr2 O1 2.030965 1_565
Cr2 O0 2.031311 1_555
Ni0 O2 2.010804 1_556
Ni0 O3 2.011201 1_545
Ni0 O6 2.011708 1_456
Ni0 O5 2.012001 1_445
Ni0 O4 2.066979 1_455
Ni0 O7 2.068151 1_546
