# generated using pymatgen
data_Li4V3Sn3(TeO8)2
_symmetry_space_group_name_H-M   'P 1'
_cell_length_a   6.24183894
_cell_length_b   20.30707134
_cell_length_c   6.28671272
_cell_angle_alpha   89.93808631
_cell_angle_beta   60.27243997
_cell_angle_gamma   89.98513243
_symmetry_Int_Tables_number   1
_chemical_formula_structural   Li4V3Sn3(TeO8)2
_chemical_formula_sum   'Li8 V6 Sn6 Te4 O32'
_cell_volume   691.98957617
_cell_formula_units_Z   2
loop_
 _symmetry_equiv_pos_site_id
 _symmetry_equiv_pos_as_xyz
  1  'x, y, z'
loop_
 _atom_site_type_symbol
 _atom_site_label
 _atom_site_symmetry_multiplicity
 _atom_site_fract_x
 _atom_site_fract_y
 _atom_site_fract_z
 _atom_site_occupancy
  Li  Li0  1  0.33148400  0.45197100  0.33737300  1
  Li  Li1  1  0.33145900  0.95197300  0.33737900  1
  Li  Li2  1  0.00685400  0.49343800  0.98618600  1
  Li  Li3  1  0.00683900  0.99343400  0.98619100  1
  Li  Li4  1  0.00398400  0.24928200  0.99184400  1
  Li  Li5  1  0.00399400  0.74927600  0.99183700  1
  Li  Li6  1  0.66710100  0.19900400  0.66585900  1
  Li  Li7  1  0.66710900  0.69900300  0.66584200  1
  V  V0  1  0.16775700  0.60642100  0.66477300  1
  V  V1  1  0.16780000  0.10642800  0.66477500  1
  V  V2  1  0.81647300  0.35681700  0.83540400  1
  V  V3  1  0.81647200  0.85680200  0.83538800  1
  V  V4  1  0.34778500  0.35672300  0.83534100  1
  V  V5  1  0.34782300  0.85672700  0.83536200  1
  Sn  Sn0  1  0.83272700  0.35745100  0.33414200  1
  Sn  Sn1  1  0.83273700  0.85744900  0.33411200  1
  Sn  Sn2  1  0.66527800  0.10715100  0.16588500  1
  Sn  Sn3  1  0.66529300  0.60715200  0.16587400  1
  Sn  Sn4  1  0.16897900  0.10711000  0.16580000  1
  Sn  Sn5  1  0.16897200  0.60711900  0.16578600  1
  Te  Te0  1  0.32111300  0.24938700  0.35662700  1
  Te  Te1  1  0.32117100  0.74938300  0.35666800  1
  Te  Te2  1  0.66231100  0.49030300  0.67540500  1
  Te  Te3  1  0.66230400  0.99029900  0.67540800  1
  O  O0  1  0.48887800  0.16545000  0.02201100  1
  O  O1  1  0.48891300  0.66544300  0.02198300  1
  O  O2  1  0.33489100  0.05217100  0.33036200  1
  O  O3  1  0.33489800  0.55216700  0.33034900  1
  O  O4  1  0.00003300  0.15903500  0.00001000  1
  O  O5  1  0.00002500  0.65903000  0.99998500  1
  O  O6  1  0.00067700  0.40230800  0.99674300  1
  O  O7  1  0.00081800  0.90230200  0.99670200  1
  O  O8  1  0.85173700  0.04865900  0.29682400  1
  O  O9  1  0.85174800  0.54866600  0.29680900  1
  O  O10  1  0.15956000  0.29922500  0.67894900  1
  O  O11  1  0.15969200  0.79921900  0.67894500  1
  O  O12  1  0.67376400  0.30279500  0.65504500  1
  O  O13  1  0.67356700  0.80278500  0.65502400  1
  O  O14  1  0.51971800  0.42441900  0.96288400  1
  O  O15  1  0.51955700  0.92441300  0.96288500  1
  O  O16  1  0.67348000  0.29971400  0.16775400  1
  O  O17  1  0.67344200  0.79969300  0.16778700  1
  O  O18  1  0.15824800  0.29953700  0.16861400  1
  O  O19  1  0.15827500  0.79954000  0.16854600  1
  O  O20  1  0.47912200  0.16480300  0.48991700  1
  O  O21  1  0.47911000  0.66481800  0.48987400  1
  O  O22  1  0.03142400  0.16499100  0.48956800  1
  O  O23  1  0.03139200  0.66498000  0.48958800  1
  O  O24  1  0.95866400  0.42200300  0.52068800  1
  O  O25  1  0.95863000  0.92201100  0.52066400  1
  O  O26  1  0.52104500  0.42210700  0.52039100  1
  O  O27  1  0.52100200  0.92209300  0.52041500  1
  O  O28  1  0.85527400  0.05090300  0.84276600  1
  O  O29  1  0.85529000  0.55089600  0.84277800  1
  O  O30  1  0.30193400  0.05078000  0.84295200  1
  O  O31  1  0.30197800  0.55078200  0.84292400  1
loop_
_geom_bond_atom_site_label_1
_geom_bond_atom_site_label_2
_geom_bond_distance
_geom_bond_site_symmetry_2
Li0 O3 2.035007 1_555
Li0 O26 2.107101 1_555
Li0 O24 2.110282 1_455
Li0 O14 2.120242 1_554
Li1 O2 2.035046 1_565
Li1 O27 2.107194 1_555
Li1 O25 2.110294 1_455
Li1 O15 2.120309 1_554
Li2 O6 1.851428 1_555
Li2 O29 1.977947 1_455
Li2 O31 1.978389 1_555
Li2 O9 2.034133 1_456
Li3 O7 1.851458 1_555
Li3 O28 1.978157 1_465
Li3 O30 1.978287 1_565
Li3 O8 2.034145 1_466
Li4 O4 1.833146 1_556
Li4 O10 1.985638 1_555
Li4 O16 2.065519 1_456
Li4 O18 2.065874 1_556
Li5 O5 1.833123 1_555
Li5 O11 1.985622 1_555
Li5 O17 2.065598 1_456
Li5 O19 2.065747 1_556
Li6 O0 2.059587 1_556
Li6 O20 2.090868 1_555
Li6 O22 2.092363 1_655
Li6 O12 2.108470 1_555
Li7 O1 2.059570 1_556
Li7 O21 2.090994 1_555
Li7 O23 2.092227 1_655
Li7 O13 2.108283 1_555
O0 Sn4 2.101558 1_555
O0 Sn2 2.101599 1_555
O0 Te0 2.499868 1_555
O1 Sn3 2.101490 1_555
O1 Sn5 2.101564 1_555
O1 Te1 2.500185 1_555
O2 Sn4 2.108764 1_555
O2 Sn2 2.110071 1_555
O2 V1 2.133415 1_555
O3 Sn5 2.108972 1_555
O3 Sn3 2.110161 1_555
O3 V0 2.133435 1_555
O4 Sn4 2.096980 1_555
O4 Sn2 2.097929 1_455
O4 V1 2.120149 1_554
O5 Sn5 2.096894 1_556
O5 Sn3 2.097761 1_456
O5 V0 2.120061 1_555
O6 Sn0 2.054013 1_456
O6 V2 2.088854 1_455
O6 V4 2.097936 1_555
O7 Sn1 2.054030 1_456
O7 V3 2.089517 1_455
O7 V5 2.097347 1_555
O8 Sn4 2.095221 1_655
O8 Sn2 2.095316 1_555
O8 Te3 2.381362 1_545
O9 Sn5 2.095160 1_655
O9 Sn3 2.095212 1_555
O9 Te2 2.381449 1_555
O10 Te0 2.030913 1_555
O10 V2 2.198508 1_455
O10 V4 2.204337 1_555
O11 Te1 2.030679 1_555
O11 V3 2.199038 1_455
O11 V5 2.204114 1_555
O12 V2 2.070619 1_555
O12 Sn0 2.072897 1_555
O12 V4 2.082869 1_555
O13 V3 2.071448 1_555
O13 Sn1 2.073021 1_555
O13 V5 2.081999 1_555
O14 Te2 2.061212 1_555
O14 V2 2.118180 1_555
O14 V4 2.130965 1_555
O15 Te3 2.061227 1_555
O15 V3 2.118978 1_555
O15 V5 2.129897 1_555
O16 Sn0 2.119275 1_555
O16 V2 2.157001 1_554
O16 Te0 2.168022 1_555
O17 Sn1 2.119415 1_555
O17 V3 2.157286 1_554
O17 Te1 2.167417 1_555
O18 Sn0 2.121058 1_455
O18 Te0 2.157819 1_555
O18 V4 2.162219 1_554
O19 Sn1 2.121082 1_455
O19 Te1 2.158564 1_555
O19 V5 2.161844 1_554
O20 V1 2.066304 1_555
O20 Sn2 2.127791 1_555
O20 Te0 2.332567 1_555
O21 V0 2.066708 1_555
O21 Sn3 2.127822 1_555
O21 Te1 2.331720 1_555
O22 V1 2.068497 1_555
O22 Sn4 2.129127 1_555
O22 Te0 2.324876 1_555
O23 V0 2.068303 1_555
O23 Sn5 2.129053 1_555
O23 Te1 2.325321 1_555
O24 Te2 2.123366 1_555
O24 Sn0 2.151693 1_555
O24 V2 2.169791 1_555
O25 Te3 2.123103 1_555
O25 Sn1 2.151670 1_555
O25 V3 2.170120 1_555
O26 Te2 2.121511 1_555
O26 Sn0 2.150020 1_555
O26 V4 2.173552 1_555
O27 Te3 2.121700 1_555
O27 Sn1 2.150114 1_555
O27 V5 2.173293 1_555
O28 V1 2.040206 1_655
O28 Sn2 2.110134 1_556
O28 Te3 2.309278 1_545
O29 V0 2.039961 1_655
O29 Sn3 2.110123 1_556
O29 Te2 2.309268 1_555
O30 V1 2.039507 1_555
O30 Sn4 2.109677 1_556
O30 Te3 2.308508 1_545
O31 V0 2.039654 1_555
O31 Sn5 2.109795 1_556
O31 Te2 2.308317 1_555
