# generated using pymatgen
data_TaAsO4
_symmetry_space_group_name_H-M   'P 1'
_cell_length_a   7.56914925
_cell_length_b   7.56914925
_cell_length_c   5.67800100
_cell_angle_alpha   90.00000000
_cell_angle_beta   90.00000000
_cell_angle_gamma   149.82561377
_symmetry_Int_Tables_number   1
_chemical_formula_structural   TaAsO4
_chemical_formula_sum   'Ta2 As2 O8'
_cell_volume   163.50877184
_cell_formula_units_Z   2
loop_
 _symmetry_equiv_pos_site_id
 _symmetry_equiv_pos_as_xyz
  1  'x, y, z'
loop_
 _atom_site_type_symbol
 _atom_site_label
 _atom_site_symmetry_multiplicity
 _atom_site_fract_x
 _atom_site_fract_y
 _atom_site_fract_z
 _atom_site_occupancy
  Ta  Ta0  1  0.59099200  0.40900800  0.69923900  1
  Ta  Ta1  1  0.40900800  0.59099200  0.19923900  1
  As  As0  1  0.82107500  0.17892500  0.80900400  1
  As  As1  1  0.17892500  0.82107500  0.30900400  1
  O  O0  1  0.89225500  0.10774500  0.12325800  1
  O  O1  1  0.70363000  0.29637000  0.89707400  1
  O  O2  1  0.67329100  0.32670900  0.41026000  1
  O  O3  1  0.51742700  0.48257300  0.97636400  1
  O  O4  1  0.48257300  0.51742700  0.47636400  1
  O  O5  1  0.32670900  0.67329100  0.91026000  1
  O  O6  1  0.29637000  0.70363000  0.39707400  1
  O  O7  1  0.10774500  0.89225500  0.62325800  1
loop_
_geom_bond_atom_site_label_1
_geom_bond_atom_site_label_2
_geom_bond_distance
_geom_bond_site_symmetry_2
As0 O1 1.787986 1_555
As0 O5 2.053990 1_655
As0 O5 2.053990 1_545
As0 O0 2.065499 1_556
As1 O6 1.787986 1_555
As1 O2 2.053990 1_565
As1 O2 2.053990 1_455
As1 O7 2.065499 1_555
O0 Ta1 2.031657 1_545
O0 Ta1 2.031657 1_655
O1 Ta0 1.993079 1_555
O2 Ta0 2.034533 1_555
O3 Ta0 1.905818 1_555
O3 Ta1 2.027990 1_556
O4 Ta1 1.905818 1_555
O4 Ta0 2.027990 1_555
O5 Ta1 2.034533 1_556
O6 Ta1 1.993079 1_555
O7 Ta0 2.031657 1_455
O7 Ta0 2.031657 1_565
