# generated using pymatgen
data_Mn13Fe11O32
_symmetry_space_group_name_H-M   'P 1'
_cell_length_a   6.06050915
_cell_length_b   6.06050915
_cell_length_c   20.07435105
_cell_angle_alpha   81.73321834
_cell_angle_beta   81.73321834
_cell_angle_gamma   59.60990914
_symmetry_Int_Tables_number   1
_chemical_formula_structural   Mn13Fe11O32
_chemical_formula_sum   'Mn13 Fe11 O32'
_cell_volume   627.22625329
_cell_formula_units_Z   1
loop_
 _symmetry_equiv_pos_site_id
 _symmetry_equiv_pos_as_xyz
  1  'x, y, z'
loop_
 _atom_site_type_symbol
 _atom_site_label
 _atom_site_symmetry_multiplicity
 _atom_site_fract_x
 _atom_site_fract_y
 _atom_site_fract_z
 _atom_site_occupancy
  Mn  Mn0  1  0.41015000  0.41015000  0.28134900  1
  Mn  Mn1  1  0.75196700  0.75196700  0.25020500  1
  Mn  Mn2  1  0.87459200  0.87459200  0.37439600  1
  Mn  Mn3  1  0.34262500  0.34262500  0.47017800  1
  Mn  Mn4  1  0.09251600  0.09251600  0.22023000  1
  Mn  Mn5  1  0.65737500  0.65737500  0.52982200  1
  Mn  Mn6  1  0.24803300  0.24803300  0.74979500  1
  Mn  Mn7  1  0.12540800  0.12540800  0.62560400  1
  Mn  Mn8  1  0.58985000  0.58985000  0.71865100  1
  Mn  Mn9  1  0.15865800  0.15865800  0.02936800  1
  Mn  Mn10  1  0.90748400  0.90748400  0.77977000  1
  Mn  Mn11  1  0.50000000  0.50000000  0.00000000  1
  Mn  Mn12  1  0.84134200  0.84134200  0.97063200  1
  Fe  Fe0  1  0.87544500  0.37080600  0.37663500  1
  Fe  Fe1  1  0.37080600  0.87544500  0.37663500  1
  Fe  Fe2  1  0.12455500  0.62919400  0.62336500  1
  Fe  Fe3  1  0.62919400  0.12455500  0.62336500  1
  Fe  Fe4  1  0.00000000  0.00000000  0.50000000  1
  Fe  Fe5  1  0.87612600  0.37644000  0.87465000  1
  Fe  Fe6  1  0.37644000  0.87612600  0.87465000  1
  Fe  Fe7  1  0.37688000  0.37688000  0.87435700  1
  Fe  Fe8  1  0.62312000  0.62312000  0.12564300  1
  Fe  Fe9  1  0.62356000  0.12387400  0.12535000  1
  Fe  Fe10  1  0.12387400  0.62356000  0.12535000  1
  O  O0  1  0.16559000  0.71136200  0.43128800  1
  O  O1  1  0.71136200  0.16559000  0.43128800  1
  O  O2  1  0.02809900  0.59123000  0.31373200  1
  O  O3  1  0.59123000  0.02809900  0.31373200  1
  O  O4  1  0.58618500  0.58618500  0.31063100  1
  O  O5  1  0.82546900  0.82546900  0.56445800  1
  O  O6  1  0.70068700  0.70068700  0.42803800  1
  O  O7  1  0.17453100  0.17453100  0.43554200  1
  O  O8  1  0.29931300  0.29931300  0.57196200  1
  O  O9  1  0.04871600  0.04871600  0.32173600  1
  O  O10  1  0.40877000  0.97190100  0.68626800  1
  O  O11  1  0.97190100  0.40877000  0.68626800  1
  O  O12  1  0.28863800  0.83441000  0.56871200  1
  O  O13  1  0.83441000  0.28863800  0.56871200  1
  O  O14  1  0.19417800  0.19417800  0.92782400  1
  O  O15  1  0.95128400  0.95128400  0.67826400  1
  O  O16  1  0.08296800  0.08296800  0.81070000  1
  O  O17  1  0.55978100  0.55978100  0.82025300  1
  O  O18  1  0.41381500  0.41381500  0.68936900  1
  O  O19  1  0.66966100  0.66966100  0.93932600  1
  O  O20  1  0.67416600  0.22074900  0.93847100  1
  O  O21  1  0.22074900  0.67416600  0.93847100  1
  O  O22  1  0.53112400  0.07828300  0.80940900  1
  O  O23  1  0.07828300  0.53112400  0.80940900  1
  O  O24  1  0.32583400  0.77925100  0.06152900  1
  O  O25  1  0.77925100  0.32583400  0.06152900  1
  O  O26  1  0.33033900  0.33033900  0.06067400  1
  O  O27  1  0.44021900  0.44021900  0.17974700  1
  O  O28  1  0.91703200  0.91703200  0.18930000  1
  O  O29  1  0.80582200  0.80582200  0.07217600  1
  O  O30  1  0.92171700  0.46887600  0.19059100  1
  O  O31  1  0.46887600  0.92171700  0.19059100  1
loop_
_geom_bond_atom_site_label_1
_geom_bond_atom_site_label_2
_geom_bond_distance
_geom_bond_site_symmetry_2
Mn0 O27 2.011516 1_555
Mn0 O4 2.033269 1_555
Mn0 O2 2.046831 1_555
Mn0 O3 2.046831 1_555
Mn1 O28 1.950751 1_555
Mn1 O4 1.952115 1_555
Mn1 O31 1.970941 1_555
Mn1 O30 1.970941 1_555
Mn1 O2 1.995723 1_655
Mn1 O3 1.995723 1_565
Mn2 O9 1.957003 1_665
Mn2 O6 1.962741 1_555
Mn2 O1 1.970368 1_565
Mn2 O0 1.970368 1_655
Mn2 O2 1.989178 1_655
Mn2 O3 1.989178 1_565
Mn3 O7 2.004119 1_555
Mn3 O0 2.016913 1_555
Mn3 O1 2.016913 1_555
Mn3 O8 2.018394 1_555
Mn4 O31 2.006528 1_545
Mn4 O30 2.006528 1_455
Mn4 O9 2.013261 1_555
Mn4 O28 2.042511 1_445
Mn5 O5 2.004119 1_555
Mn5 O13 2.016913 1_555
Mn5 O12 2.016913 1_555
Mn5 O6 2.018394 1_555
Mn6 O16 1.950751 1_555
Mn6 O18 1.952115 1_555
Mn6 O22 1.970941 1_555
Mn6 O23 1.970941 1_555
Mn6 O11 1.995723 1_455
Mn6 O10 1.995723 1_545
Mn7 O15 1.957003 1_445
Mn7 O8 1.962741 1_555
Mn7 O13 1.970368 1_455
Mn7 O12 1.970368 1_545
Mn7 O11 1.989178 1_455
Mn7 O10 1.989178 1_545
Mn8 O17 2.011516 1_555
Mn8 O18 2.033269 1_555
Mn8 O11 2.046831 1_555
Mn8 O10 2.046831 1_555
Mn9 O26 2.007863 1_555
Mn9 O14 2.010570 1_554
Mn9 O24 2.033389 1_545
Mn9 O25 2.033389 1_455
Mn10 O23 2.006528 1_655
Mn10 O22 2.006528 1_565
Mn10 O15 2.013261 1_555
Mn10 O16 2.042511 1_665
Mn11 O20 1.980602 1_554
Mn11 O21 1.980602 1_554
Mn11 O25 1.980602 1_555
Mn11 O24 1.980602 1_555
Mn11 O19 1.986819 1_554
Mn11 O26 1.986819 1_555
Mn12 O19 2.007863 1_555
Mn12 O29 2.010570 1_556
Mn12 O20 2.033389 1_565
Mn12 O21 2.033389 1_655
Fe0 O7 2.032055 1_655
Fe0 O1 2.069929 1_555
Fe0 O6 2.078487 1_555
Fe0 O9 2.083159 1_655
Fe0 O4 2.094764 1_555
Fe0 O2 2.159729 1_655
Fe1 O7 2.032055 1_565
Fe1 O0 2.069929 1_555
Fe1 O6 2.078487 1_555
Fe1 O9 2.083159 1_565
Fe1 O4 2.094764 1_555
Fe1 O3 2.159729 1_565
Fe2 O5 2.032055 1_455
Fe2 O12 2.069929 1_555
Fe2 O8 2.078487 1_555
Fe2 O15 2.083159 1_455
Fe2 O18 2.094764 1_555
Fe2 O11 2.159729 1_455
Fe3 O5 2.032055 1_545
Fe3 O13 2.069929 1_555
Fe3 O8 2.078487 1_555
Fe3 O15 2.083159 1_545
Fe3 O18 2.094764 1_555
Fe3 O10 2.159729 1_545
Fe4 O7 2.063201 1_555
Fe4 O5 2.063201 1_445
Fe4 O0 2.118815 1_545
Fe4 O13 2.118815 1_455
Fe4 O1 2.118815 1_455
Fe4 O12 2.118815 1_545
Fe5 O14 2.042891 1_655
Fe5 O17 2.049517 1_555
Fe5 O16 2.078662 1_655
Fe5 O19 2.087069 1_555
Fe5 O20 2.097562 1_555
Fe5 O23 2.107776 1_655
Fe6 O14 2.042891 1_565
Fe6 O17 2.049517 1_555
Fe6 O16 2.078662 1_565
Fe6 O19 2.087069 1_555
Fe6 O21 2.097562 1_555
Fe6 O22 2.107776 1_565
Fe7 O14 2.039864 1_555
Fe7 O17 2.046414 1_555
Fe7 O21 2.095163 1_555
Fe7 O20 2.095163 1_555
Fe7 O23 2.113050 1_555
Fe7 O22 2.113050 1_555
Fe8 O29 2.039864 1_555
Fe8 O27 2.046414 1_555
Fe8 O25 2.095163 1_555
Fe8 O24 2.095163 1_555
Fe8 O30 2.113050 1_555
Fe8 O31 2.113050 1_555
Fe9 O29 2.042891 1_545
Fe9 O27 2.049517 1_555
Fe9 O28 2.078662 1_545
Fe9 O26 2.087069 1_555
Fe9 O25 2.097562 1_555
Fe9 O31 2.107776 1_545
Fe10 O29 2.042891 1_455
Fe10 O27 2.049517 1_555
Fe10 O28 2.078662 1_455
Fe10 O26 2.087069 1_555
Fe10 O24 2.097562 1_555
Fe10 O30 2.107776 1_455
