# generated using pymatgen
data_Li3V5O12
_symmetry_space_group_name_H-M   'P 1'
_cell_length_a   6.90331467
_cell_length_b   6.90331467
_cell_length_c   5.78647580
_cell_angle_alpha   74.18605133
_cell_angle_beta   74.18605133
_cell_angle_gamma   82.12333891
_symmetry_Int_Tables_number   1
_chemical_formula_structural   Li3V5O12
_chemical_formula_sum   'Li3 V5 O12'
_cell_volume   254.69222571
_cell_formula_units_Z   1
loop_
 _symmetry_equiv_pos_site_id
 _symmetry_equiv_pos_as_xyz
  1  'x, y, z'
loop_
 _atom_site_type_symbol
 _atom_site_label
 _atom_site_symmetry_multiplicity
 _atom_site_fract_x
 _atom_site_fract_y
 _atom_site_fract_z
 _atom_site_occupancy
  Li  Li0  1  0.90396600  0.09603400  0.00000000  1
  Li  Li1  1  0.74616800  0.25383200  0.50000000  1
  Li  Li2  1  0.24082600  0.75917400  0.00000000  1
  V  V0  1  0.79804700  0.61082500  0.01316100  1
  V  V1  1  0.60835100  0.81258600  0.51302200  1
  V  V2  1  0.38917500  0.20195300  0.98683900  1
  V  V3  1  0.18741400  0.39164900  0.48697800  1
  V  V4  1  0.08471800  0.91528200  0.50000000  1
  O  O0  1  0.98353800  0.78555300  0.88707400  1
  O  O1  1  0.90735000  0.37329600  0.05448900  1
  O  O2  1  0.80770900  0.97807100  0.41937600  1
  O  O3  1  0.63154200  0.64264800  0.81826500  1
  O  O4  1  0.62670400  0.09265000  0.94551100  1
  O  O5  1  0.66321800  0.62850300  0.31554200  1
  O  O6  1  0.35735200  0.36845800  0.18173500  1
  O  O7  1  0.35119400  0.89514300  0.57414600  1
  O  O8  1  0.37149700  0.33678200  0.68445800  1
  O  O9  1  0.21444700  0.01646200  0.11292600  1
  O  O10  1  0.10485700  0.64880600  0.42585400  1
  O  O11  1  0.02192900  0.19229100  0.58062400  1
loop_
_geom_bond_atom_site_label_1
_geom_bond_atom_site_label_2
_geom_bond_distance
_geom_bond_site_symmetry_2
Li0 O1 2.026980 1_555
Li0 O4 2.026980 1_554
Li0 O2 2.277275 1_545
Li0 O11 2.277275 1_654
Li0 O0 2.359595 1_544
Li0 O9 2.359595 1_655
Li1 O11 2.043633 1_655
Li1 O2 2.043633 1_545
Li1 O4 2.468471 1_555
Li1 O1 2.468471 1_555
Li1 O5 2.565058 1_555
Li1 O8 2.565058 1_555
Li2 O9 2.023335 1_565
Li2 O0 2.023335 1_454
Li2 O10 2.333640 1_555
Li2 O7 2.333640 1_554
O0 V0 1.749690 1_556
O0 V4 2.128872 1_655
O1 V0 1.691387 1_555
O2 V1 1.783192 1_555
O2 V4 2.052118 1_655
O3 V0 1.773016 1_556
O3 V1 1.869471 1_555
O4 V2 1.691387 1_555
O5 V0 1.772107 1_555
O5 V1 1.867560 1_555
O6 V2 1.773016 1_554
O6 V3 1.869471 1_555
O7 V1 1.758327 1_555
O7 V4 1.978630 1_555
O8 V2 1.772107 1_555
O8 V3 1.867560 1_555
O9 V2 1.749690 1_554
O9 V4 2.128872 1_545
O10 V3 1.758327 1_555
O10 V4 1.978630 1_555
O11 V3 1.783192 1_555
O11 V4 2.052118 1_545
