# generated using pymatgen
data_CuC9S2NF10
_symmetry_space_group_name_H-M   'P 1'
_cell_length_a   9.75484682
_cell_length_b   9.75484682
_cell_length_c   9.56589160
_cell_angle_alpha   78.54355563
_cell_angle_beta   78.54355563
_cell_angle_gamma   68.04127945
_symmetry_Int_Tables_number   1
_chemical_formula_structural   CuC9S2NF10
_chemical_formula_sum   'Cu2 C18 S4 N2 F20'
_cell_volume   819.62621756
_cell_formula_units_Z   2
loop_
 _symmetry_equiv_pos_site_id
 _symmetry_equiv_pos_as_xyz
  1  'x, y, z'
loop_
 _atom_site_type_symbol
 _atom_site_label
 _atom_site_symmetry_multiplicity
 _atom_site_fract_x
 _atom_site_fract_y
 _atom_site_fract_z
 _atom_site_occupancy
  Cu  Cu0  1  0.06341200  0.93658800  0.75000000  1
  Cu  Cu1  1  0.93658800  0.06341200  0.25000000  1
  C  C0  1  0.10372000  0.73566900  0.69459100  1
  C  C1  1  0.26433100  0.89628000  0.80540900  1
  C  C2  1  0.89628000  0.26433100  0.30540900  1
  C  C3  1  0.73566900  0.10372000  0.19459100  1
  C  C4  1  0.05212200  0.62660100  0.81783200  1
  C  C5  1  0.37339900  0.94787800  0.68216800  1
  C  C6  1  0.94787800  0.37339900  0.18216800  1
  C  C7  1  0.62660100  0.05212200  0.31783200  1
  C  C8  1  0.55504000  0.29552800  0.77137100  1
  C  C9  1  0.70447200  0.44496000  0.72862900  1
  C  C10  1  0.44496000  0.70447200  0.22862900  1
  C  C11  1  0.29552800  0.55504000  0.27137100  1
  C  C12  1  0.43817600  0.27016900  0.84099900  1
  C  C13  1  0.72983100  0.56182400  0.65900100  1
  C  C14  1  0.56182400  0.72983100  0.15900100  1
  C  C15  1  0.27016900  0.43817600  0.34099900  1
  C  C16  1  0.82239600  0.17760400  0.75000000  1
  C  C17  1  0.17760400  0.82239600  0.25000000  1
  S  S0  1  0.81644100  0.02132500  0.71105900  1
  S  S1  1  0.97867500  0.18355900  0.78894100  1
  S  S2  1  0.18355900  0.97867500  0.28894100  1
  S  S3  1  0.02132500  0.81644100  0.21105900  1
  N  N0  1  0.68538100  0.31461900  0.75000000  1
  N  N1  1  0.31461900  0.68538100  0.25000000  1
  F  F0  1  0.24960700  0.66397500  0.64389400  1
  F  F1  1  0.33602500  0.75039300  0.85610600  1
  F  F2  1  0.75039300  0.33602500  0.35610600  1
  F  F3  1  0.66397500  0.24960700  0.14389400  1
  F  F4  1  0.02375000  0.75799700  0.58247200  1
  F  F5  1  0.24200300  0.97625000  0.91752800  1
  F  F6  1  0.97625000  0.24200300  0.41752800  1
  F  F7  1  0.75799700  0.02375000  0.08247200  1
  F  F8  1  0.90354400  0.68648900  0.86166300  1
  F  F9  1  0.31351100  0.09645600  0.63833700  1
  F  F10  1  0.09645600  0.31351100  0.13833700  1
  F  F11  1  0.68648900  0.90354400  0.36166300  1
  F  F12  1  0.08014700  0.49474400  0.77257700  1
  F  F13  1  0.50525600  0.91985300  0.72742300  1
  F  F14  1  0.91985300  0.50525600  0.22742300  1
  F  F15  1  0.49474400  0.08014700  0.27257700  1
  F  F16  1  0.12486900  0.60022200  0.93277900  1
  F  F17  1  0.39977800  0.87513100  0.56722100  1
  F  F18  1  0.87513100  0.39977800  0.06722100  1
  F  F19  1  0.60022200  0.12486900  0.43277900  1
loop_
_geom_bond_atom_site_label_1
_geom_bond_atom_site_label_2
_geom_bond_distance
_geom_bond_site_symmetry_2
Cu0 S0 2.317531 1_465
Cu0 S1 2.317531 1_465
Cu1 S2 2.317531 1_645
Cu1 S3 2.317531 1_645
C0 F0 1.365928 1_555
C0 F4 1.385199 1_555
C0 Cu0 2.007591 1_555
C1 F1 1.365928 1_555
C1 F5 1.385199 1_555
C1 Cu0 2.007591 1_555
C2 F2 1.365928 1_555
C2 F6 1.385199 1_555
C2 Cu1 2.007591 1_555
C3 F3 1.365928 1_555
C3 F7 1.385199 1_555
C3 Cu1 2.007591 1_555
C4 F12 1.351951 1_555
C4 F16 1.356413 1_555
C4 F8 1.356607 1_455
C5 F13 1.351951 1_555
C5 F17 1.356413 1_555
C5 F9 1.356607 1_565
C6 F14 1.351951 1_555
C6 F18 1.356413 1_555
C6 F10 1.356607 1_655
C7 F15 1.351951 1_555
C7 F19 1.356413 1_555
C7 F11 1.356607 1_545
C8 N0 1.323549 1_555
C9 N0 1.323549 1_555
C10 C14 1.283832 1_555
C10 N1 1.323549 1_555
C11 C15 1.283832 1_555
C11 N1 1.323549 1_555
C12 C8 1.283832 1_555
C13 C9 1.283832 1_555
C16 N0 1.495588 1_555
C16 S0 1.663304 1_555
C16 S1 1.663304 1_555
C17 N1 1.495588 1_555
C17 S3 1.663304 1_555
C17 S2 1.663304 1_555
