# generated using pymatgen
data_Li6MnV3(PO4)6
_symmetry_space_group_name_H-M   'P 1'
_cell_length_a   6.37594500
_cell_length_b   8.59515685
_cell_length_c   8.66848990
_cell_angle_alpha   94.34737809
_cell_angle_beta   106.01070878
_cell_angle_gamma   105.95747886
_symmetry_Int_Tables_number   1
_chemical_formula_structural   Li6MnV3(PO4)6
_chemical_formula_sum   'Li6 Mn1 V3 P6 O24'
_cell_volume   433.08021436
_cell_formula_units_Z   1
loop_
 _symmetry_equiv_pos_site_id
 _symmetry_equiv_pos_as_xyz
  1  'x, y, z'
loop_
 _atom_site_type_symbol
 _atom_site_label
 _atom_site_symmetry_multiplicity
 _atom_site_fract_x
 _atom_site_fract_y
 _atom_site_fract_z
 _atom_site_occupancy
  Li  Li0  1  0.25156900  0.99504700  0.00433700  1
  Li  Li1  1  0.75145300  0.71528000  0.29017500  1
  Li  Li2  1  0.50085000  0.49937300  0.50043400  1
  Li  Li3  1  0.99823700  0.49747900  0.49983400  1
  Li  Li4  1  0.24733600  0.28774100  0.70989200  1
  Li  Li5  1  0.74755800  0.00823400  0.99723100  1
  Mn  Mn0  1  0.63407300  0.05979000  0.37381200  1
  V  V0  1  0.35880500  0.94187300  0.62142300  1
  V  V1  1  0.86282200  0.62122000  0.94326200  1
  V  V2  1  0.13917900  0.38102500  0.05654900  1
  P  P0  1  0.25061600  0.71419000  0.28735500  1
  P  P1  1  0.86329300  0.85959100  0.66399000  1
  P  P2  1  0.36469200  0.66123300  0.86170700  1
  P  P3  1  0.63409400  0.33946000  0.13240700  1
  P  P4  1  0.13598900  0.13836200  0.33965300  1
  P  P5  1  0.74884200  0.28500300  0.71409100  1
  O  O0  1  0.08837200  0.98623400  0.65825700  1
  O  O1  1  0.67209800  0.94515300  0.61516100  1
  O  O2  1  0.03452200  0.74251700  0.17209100  1
  O  O3  1  0.47294400  0.82779400  0.26259500  1
  O  O4  1  0.39340100  0.84494500  0.84159800  1
  O  O5  1  0.23129100  0.73556100  0.46180500  1
  O  O6  1  0.90618500  0.83891800  0.84838400  1
  O  O7  1  0.79455700  0.70204200  0.54488600  1
  O  O8  1  0.17752500  0.60249300  0.95124900  1
  O  O9  1  0.59431900  0.66121100  0.98601300  1
  O  O10  1  0.26677900  0.53695300  0.26225600  1
  O  O11  1  0.29457900  0.54304400  0.70430200  1
  O  O12  1  0.70322600  0.45210100  0.29351700  1
  O  O13  1  0.73231100  0.46223000  0.73776400  1
  O  O14  1  0.40652700  0.34648100  0.01059100  1
  O  O15  1  0.82507100  0.40254700  0.04749900  1
  O  O16  1  0.20401000  0.29699900  0.45745500  1
  O  O17  1  0.11247300  0.16053700  0.15824600  1
  O  O18  1  0.77110400  0.26248100  0.53922800  1
  O  O19  1  0.60237800  0.15379500  0.14201900  1
  O  O20  1  0.53076400  0.17212800  0.74095700  1
  O  O21  1  0.96545100  0.25770600  0.83050100  1
  O  O22  1  0.32552800  0.04877700  0.40116200  1
  O  O23  1  0.90517600  0.01245300  0.33631200  1
loop_
_geom_bond_atom_site_label_1
_geom_bond_atom_site_label_2
_geom_bond_distance
_geom_bond_site_symmetry_2
Li0 O19 2.211694 1_565
Li0 O6 2.221644 1_454
Li0 O4 2.354072 1_554
Li0 O17 2.376636 1_565
Li1 O7 2.164280 1_555
Li1 O12 2.201073 1_555
Li1 O3 2.211520 1_555
Li1 O2 2.276647 1_655
Li1 O23 2.428403 1_565
Li1 O9 2.504509 1_554
Li2 O7 2.096738 1_555
Li2 O16 2.109295 1_555
Li2 O13 2.279499 1_555
Li2 O10 2.293647 1_555
Li2 O11 2.539026 1_555
Li2 O12 2.549857 1_555
Li3 O11 2.122603 1_655
Li3 O12 2.126947 1_555
Li3 O18 2.250031 1_555
Li3 O5 2.281399 1_655
Li3 O16 2.497709 1_655
Li3 O7 2.522227 1_555
Li4 O11 2.137538 1_555
Li4 O16 2.139182 1_555
Li4 O20 2.255035 1_555
Li4 O21 2.283044 1_455
Li4 O0 2.464376 1_545
Li4 O14 2.477655 1_556
Li5 O19 2.244328 1_556
Li5 O4 2.275673 1_545
Li5 O17 2.309131 1_656
Li5 O6 2.459704 1_545
Mn0 O23 1.983851 1_555
Mn0 O18 1.986910 1_555
Mn0 O3 1.999221 1_545
Mn0 O22 2.023265 1_555
Mn0 O19 2.200652 1_555
Mn0 O1 2.360239 1_545
O0 P1 1.560589 1_455
O0 V0 1.966511 1_555
O1 P1 1.568942 1_555
O1 V0 2.005738 1_555
O2 P0 1.554953 1_555
O2 V1 2.020174 1_454
O3 P0 1.564446 1_555
O4 P2 1.567687 1_555
O4 V0 2.120212 1_555
O5 P0 1.552045 1_555
O5 V0 1.983623 1_555
O6 P1 1.577955 1_555
O6 V1 2.080469 1_555
O7 P1 1.517857 1_555
O8 P2 1.587639 1_555
O8 V1 2.039486 1_455
O8 V2 2.155715 1_556
O9 P2 1.560312 1_555
O9 V1 1.959722 1_555
O10 P0 1.557910 1_555
O10 V2 1.968671 1_555
O11 P2 1.515666 1_555
O12 P3 1.517516 1_555
O13 P5 1.557712 1_555
O13 V1 1.980178 1_555
O14 P3 1.560956 1_555
O14 V2 1.946144 1_555
O15 P3 1.584393 1_555
O15 V2 2.042195 1_655
O15 V1 2.129721 1_554
O16 P4 1.519697 1_555
O17 P4 1.569309 1_555
O17 V2 2.134552 1_555
O18 P5 1.563513 1_555
O19 P3 1.564126 1_555
O20 P5 1.549190 1_555
O20 V0 2.015398 1_545
O21 P5 1.557564 1_555
O21 V2 2.008058 1_656
O22 P4 1.598775 1_555
O22 V0 2.164385 1_545
O23 P4 1.560064 1_655
