# generated using pymatgen
data_MnP2O7
_symmetry_space_group_name_H-M   'P 1'
_cell_length_a   4.78917697
_cell_length_b   13.15448284
_cell_length_c   8.29609941
_cell_angle_alpha   71.63035108
_cell_angle_beta   89.99997203
_cell_angle_gamma   100.48554967
_symmetry_Int_Tables_number   1
_chemical_formula_structural   MnP2O7
_chemical_formula_sum   'Mn4 P8 O28'
_cell_volume   486.80966037
_cell_formula_units_Z   4
loop_
 _symmetry_equiv_pos_site_id
 _symmetry_equiv_pos_as_xyz
  1  'x, y, z'
loop_
 _atom_site_type_symbol
 _atom_site_label
 _atom_site_symmetry_multiplicity
 _atom_site_fract_x
 _atom_site_fract_y
 _atom_site_fract_z
 _atom_site_occupancy
  Mn  Mn0  1  0.50523093  0.01053461  0.49472071  1
  Mn  Mn1  1  0.25536032  0.51056087  0.74469832  1
  Mn  Mn2  1  0.00523101  0.01054648  0.99471743  1
  Mn  Mn3  1  0.75536120  0.51055976  0.24469696  1
  P  P0  1  0.81654936  0.63314570  0.85014738  1
  P  P1  1  0.31654738  0.63314510  0.35014128  1
  P  P2  1  0.94390510  0.88800307  0.72265631  1
  P  P3  1  0.44389781  0.88800690  0.22263337  1
  P  P4  1  0.06658283  0.13316115  0.26677970  1
  P  P5  1  0.56658615  0.13315952  0.76678214  1
  P  P6  1  0.19415053  0.38801559  0.13928880  1
  P  P7  1  0.69414683  0.38801759  0.63928550  1
  O  O0  1  0.88032559  0.76057105  0.78629670  1
  O  O1  1  0.38033556  0.76057492  0.28626535  1
  O  O2  1  0.13031974  0.26058868  0.20312275  1
  O  O3  1  0.63032442  0.26058876  0.70311621  1
  O  O4  1  0.65776207  0.92093839  0.68308887  1
  O  O5  1  0.15775461  0.92094409  0.18307139  1
  O  O6  1  0.49749728  0.60019167  0.84350292  1
  O  O7  1  -0.00250112  0.60019051  0.34349921  1
  O  O8  1  0.91663472  0.60030317  0.02946110  1
  O  O9  1  0.41662533  0.60031128  0.52945234  1
  O  O10  1  0.07703473  0.92091267  0.86904573  1
  O  O11  1  0.57701298  0.92090581  0.36902791  1
  O  O12  1  0.14624696  0.92096370  0.56645566  1
  O  O13  1  0.64624869  0.92098095  0.06643678  1
  O  O14  1  0.86413967  0.10019315  0.42296216  1
  O  O15  1  0.36414616  0.10019344  0.92296942  1
  O  O16  1  0.98603527  0.60016238  0.72693851  1
  O  O17  1  0.48602148  0.60015104  0.22693924  1
  O  O18  1  0.02472172  0.42099637  0.26250852  1
  O  O19  1  0.52471425  0.42099776  0.76250466  1
  O  O20  1  0.09404095  0.42087005  0.95999493  1
  O  O21  1  0.59403758  0.42087413  0.45999379  1
  O  O22  1  0.93363720  0.10025099  0.12035335  1
  O  O23  1  0.43364143  0.10025098  0.62035236  1
  O  O24  1  0.35274869  0.10024781  0.30633426  1
  O  O25  1  0.85274958  0.10024993  0.80634568  1
  O  O26  1  0.51319558  0.42097098  0.14591180  1
  O  O27  1  0.01320445  0.42097700  0.64590552  1
loop_
_geom_bond_atom_site_label_1
_geom_bond_atom_site_label_2
_geom_bond_distance
_geom_bond_site_symmetry_2
Mn0 O4 1.875445 1_545
Mn0 O11 1.875647 1_545
Mn0 O12 1.875891 1_545
Mn0 O23 1.875954 1_555
Mn0 O14 1.876043 1_555
Mn0 O24 1.876096 1_555
Mn1 O27 1.875295 1_555
Mn1 O19 1.875475 1_555
Mn1 O6 1.875715 1_555
Mn1 O9 1.875739 1_555
Mn1 O16 1.875778 1_455
Mn1 O20 1.875934 1_555
Mn2 O5 1.875387 1_546
Mn2 O10 1.875601 1_545
Mn2 O13 1.875844 1_446
Mn2 O22 1.875857 1_456
Mn2 O25 1.875960 1_455
Mn2 O15 1.876002 1_555
Mn3 O26 1.875320 1_555
Mn3 O18 1.875498 1_655
Mn3 O8 1.875664 1_555
Mn3 O7 1.875704 1_655
Mn3 O17 1.875738 1_555
Mn3 O21 1.875924 1_555
O0 P0 1.561279 1_555
O0 P2 1.561360 1_555
O1 P1 1.561334 1_555
O1 P3 1.561359 1_555
O2 P6 1.561298 1_555
O2 P4 1.561305 1_555
O3 P7 1.561321 1_555
O3 P5 1.561325 1_555
O4 P2 1.516537 1_555
O5 P3 1.516541 1_555
O6 P0 1.516477 1_555
O7 P1 1.516459 1_555
O8 P0 1.516464 1_554
O9 P1 1.516427 1_555
O10 P2 1.516493 1_455
O11 P3 1.516441 1_555
O12 P2 1.516321 1_455
O13 P3 1.516303 1_555
O14 P4 1.516481 1_655
O15 P5 1.516505 1_555
O16 P0 1.516448 1_555
O17 P1 1.516455 1_555
O18 P6 1.516336 1_555
O19 P7 1.516338 1_555
O20 P6 1.516365 1_556
O21 P7 1.516349 1_555
O22 P4 1.516445 1_655
O23 P5 1.516459 1_555
O24 P4 1.516517 1_555
O25 P5 1.516497 1_555
O26 P6 1.516424 1_555
O27 P7 1.516485 1_455
