# generated using pymatgen
data_CrOF
_symmetry_space_group_name_H-M   'P 1'
_cell_length_a   3.05411100
_cell_length_b   4.86381800
_cell_length_c   9.63838300
_cell_angle_alpha   90.00000000
_cell_angle_beta   90.00000000
_cell_angle_gamma   90.00000000
_symmetry_Int_Tables_number   1
_chemical_formula_structural   CrOF
_chemical_formula_sum   'Cr4 O4 F4'
_cell_volume   143.17471018
_cell_formula_units_Z   4
loop_
 _symmetry_equiv_pos_site_id
 _symmetry_equiv_pos_as_xyz
  1  'x, y, z'
loop_
 _atom_site_type_symbol
 _atom_site_label
 _atom_site_symmetry_multiplicity
 _atom_site_fract_x
 _atom_site_fract_y
 _atom_site_fract_z
 _atom_site_occupancy
  Cr  Cr0  1  0.25000000  0.91074300  0.37954500  1
  Cr  Cr1  1  0.75000000  0.08925700  0.62045500  1
  Cr  Cr2  1  0.75000000  0.41074300  0.12045500  1
  Cr  Cr3  1  0.25000000  0.58925700  0.87954500  1
  O  O0  1  0.75000000  0.78695700  0.48767600  1
  O  O1  1  0.25000000  0.21304300  0.51232400  1
  O  O2  1  0.25000000  0.28695700  0.01232400  1
  O  O3  1  0.75000000  0.71304300  0.98767600  1
  F  F0  1  0.75000000  0.07749200  0.25666800  1
  F  F1  1  0.25000000  0.92250800  0.74333200  1
  F  F2  1  0.25000000  0.57749200  0.24333200  1
  F  F3  1  0.75000000  0.42250800  0.75666800  1
loop_
_geom_bond_atom_site_label_1
_geom_bond_atom_site_label_2
_geom_bond_distance
_geom_bond_site_symmetry_2
Cr0 O0 1.944373 1_455
Cr0 O0 1.944373 1_555
Cr0 O1 1.949282 1_565
Cr0 F2 2.085872 1_555
Cr0 F0 2.095789 1_565
Cr0 F0 2.095789 1_465
Cr1 O1 1.944373 1_655
Cr1 O1 1.944373 1_555
Cr1 O0 1.949282 1_545
Cr1 F3 2.085872 1_555
Cr1 F1 2.095789 1_645
Cr1 F1 2.095789 1_545
Cr2 O2 1.944373 1_655
Cr2 O2 1.944373 1_555
Cr2 O3 1.949282 1_554
Cr2 F0 2.085872 1_555
Cr2 F2 2.095789 1_655
Cr2 F2 2.095789 1_555
Cr3 O3 1.944373 1_455
Cr3 O3 1.944373 1_555
Cr3 O2 1.949282 1_556
Cr3 F1 2.085872 1_555
Cr3 F3 2.095789 1_555
Cr3 F3 2.095789 1_455
