# generated using pymatgen
data_Li4Fe3Sn3(SbO8)2
_symmetry_space_group_name_H-M   'P 1'
_cell_length_a   6.21086561
_cell_length_b   10.76035484
_cell_length_c   9.94325051
_cell_angle_alpha   89.48558784
_cell_angle_beta   90.85600136
_cell_angle_gamma   90.36564846
_symmetry_Int_Tables_number   1
_chemical_formula_structural   Li4Fe3Sn3(SbO8)2
_chemical_formula_sum   'Li8 Fe6 Sn6 Sb4 O32'
_cell_volume   664.40463573
_cell_formula_units_Z   2
loop_
 _symmetry_equiv_pos_site_id
 _symmetry_equiv_pos_as_xyz
  1  'x, y, z'
loop_
 _atom_site_type_symbol
 _atom_site_label
 _atom_site_symmetry_multiplicity
 _atom_site_fract_x
 _atom_site_fract_y
 _atom_site_fract_z
 _atom_site_occupancy
  Li  Li0  1  0.49600300  0.16795500  0.90000100  1
  Li  Li1  1  0.99619000  0.66800500  0.90001200  1
  Li  Li2  1  0.98004000  0.00652800  0.97984400  1
  Li  Li3  1  0.48006300  0.50633200  0.97981900  1
  Li  Li4  1  0.98811500  0.00453900  0.49626800  1
  Li  Li5  1  0.48731800  0.50389100  0.49621400  1
  Li  Li6  1  0.49076600  0.83610100  0.41125500  1
  Li  Li7  1  0.99122100  0.33592600  0.41153600  1
  Fe  Fe0  1  0.74258300  0.08449300  0.21344900  1
  Fe  Fe1  1  0.24234500  0.58445500  0.21339200  1
  Fe  Fe2  1  0.24777700  0.41217700  0.71193500  1
  Fe  Fe3  1  0.74811500  0.91152300  0.71049800  1
  Fe  Fe4  1  0.50716900  0.67009400  0.71080300  1
  Fe  Fe5  1  0.00549100  0.17020400  0.71170700  1
  Sn  Sn0  1  0.25892500  0.91413500  0.71355000  1
  Sn  Sn1  1  0.75870800  0.41339600  0.71323100  1
  Sn  Sn2  1  0.50200000  0.33055000  0.21350800  1
  Sn  Sn3  1  0.00177300  0.83065200  0.21348200  1
  Sn  Sn4  1  0.25447300  0.08430000  0.21291500  1
  Sn  Sn5  1  0.75451300  0.58419700  0.21295600  1
  Sb  Sb0  1  0.51030100  0.16332500  0.49124100  1
  Sb  Sb1  1  0.01046700  0.66377100  0.49142000  1
  Sb  Sb2  1  0.51519700  0.82830200  0.97918300  1
  Sb  Sb3  1  0.01544100  0.32826300  0.97948800  1
  O  O0  1  0.27646500  0.24061300  0.34558400  1
  O  O1  1  0.77631700  0.74046300  0.34572500  1
  O  O2  1  0.49495700  0.16935100  0.10334500  1
  O  O3  1  0.99452300  0.66941900  0.10317300  1
  O  O4  1  0.00139100  0.99903500  0.30828900  1
  O  O5  1  0.50188300  0.49895200  0.30828900  1
  O  O6  1  0.00788600  0.99759600  0.79847400  1
  O  O7  1  0.50795400  0.49746400  0.79827800  1
  O  O8  1  0.25127300  0.91685000  0.09778500  1
  O  O9  1  0.75139300  0.41677600  0.09771100  1
  O  O10  1  0.74936100  0.08274300  0.58400400  1
  O  O11  1  0.25085900  0.58435700  0.58408500  1
  O  O12  1  0.49371700  0.83516900  0.60633500  1
  O  O13  1  0.99592900  0.33474300  0.60713100  1
  O  O14  1  0.72612400  0.75785200  0.85491700  1
  O  O15  1  0.22707200  0.25798700  0.85615400  1
  O  O16  1  0.50811300  0.32846400  0.58741100  1
  O  O17  1  0.00705700  0.82864600  0.58786100  1
  O  O18  1  0.26067600  0.08182600  0.58719100  1
  O  O19  1  0.76142000  0.58148500  0.58777300  1
  O  O20  1  0.71516600  0.24454600  0.34880200  1
  O  O21  1  0.21483300  0.74482000  0.34853400  1
  O  O22  1  0.49182400  0.02090000  0.34781500  1
  O  O23  1  0.99211000  0.52099200  0.34807700  1
  O  O24  1  0.49625700  0.98113800  0.85760000  1
  O  O25  1  0.99599500  0.48086200  0.85727100  1
  O  O26  1  0.27564400  0.76205700  0.85744600  1
  O  O27  1  0.77616100  0.26169000  0.85720900  1
  O  O28  1  0.75193800  0.91304300  0.09411100  1
  O  O29  1  0.25205100  0.41333400  0.09452000  1
  O  O30  1  0.50443800  0.66702400  0.09348300  1
  O  O31  1  0.00452600  0.16699200  0.09359400  1
loop_
_geom_bond_atom_site_label_1
_geom_bond_atom_site_label_2
_geom_bond_distance
_geom_bond_site_symmetry_2
Li0 O15 1.977322 1_555
Li0 O2 2.022199 1_556
Li0 O27 2.053791 1_555
Li0 O24 2.057670 1_545
Li1 O14 1.984856 1_555
Li1 O3 2.020456 1_556
Li1 O26 2.051261 1_655
Li1 O25 2.061801 1_555
Li2 O6 1.817710 1_645
Li2 O31 2.076123 1_656
Li2 O28 2.078285 1_546
Li2 O8 2.255144 1_646
Li3 O7 1.819388 1_555
Li3 O30 2.077662 1_556
Li3 O29 2.077809 1_556
Li3 O9 2.254784 1_556
Li4 O4 1.873654 1_645
Li4 O10 1.932831 1_555
Li4 O18 2.079536 1_655
Li4 O17 2.096227 1_645
Li5 O5 1.873370 1_555
Li5 O11 1.933406 1_555
Li5 O16 2.090713 1_555
Li5 O19 2.091253 1_555
Li6 O12 1.939479 1_555
Li6 O21 2.061145 1_555
Li6 O22 2.080752 1_565
Li6 O1 2.167680 1_555
Li7 O13 1.944562 1_555
Li7 O20 2.062312 1_555
Li7 O23 2.083544 1_555
Li7 O0 2.165755 1_655
Fe0 O4 2.068013 1_645
Fe0 O2 2.085029 1_555
Fe0 O22 2.170478 1_555
Fe0 O28 2.204012 1_545
Fe0 O20 2.204219 1_555
Fe0 O31 2.208074 1_655
Fe1 O5 2.071986 1_555
Fe1 O3 2.087004 1_455
Fe1 O23 2.169675 1_455
Fe1 O29 2.198588 1_555
Fe1 O21 2.205621 1_555
Fe1 O30 2.209355 1_555
Fe2 O7 2.035746 1_555
Fe2 O13 2.043811 1_455
Fe2 O15 2.187628 1_555
Fe2 O11 2.237627 1_555
Fe2 O16 2.248849 1_555
Fe2 O25 2.276281 1_455
Fe3 O6 2.044357 1_655
Fe3 O12 2.047938 1_555
Fe3 O14 2.185250 1_555
Fe3 O10 2.221467 1_565
Fe3 O17 2.228262 1_655
Fe3 O24 2.291380 1_555
Fe4 O7 2.044030 1_555
Fe4 O12 2.051164 1_555
Fe4 O14 2.178097 1_555
Fe4 O11 2.216992 1_555
Fe4 O19 2.235419 1_555
Fe4 O26 2.297776 1_555
Fe5 O6 2.040931 1_545
Fe5 O13 2.045939 1_455
Fe5 O15 2.190380 1_555
Fe5 O10 2.229494 1_455
Fe5 O18 2.246824 1_555
Fe5 O27 2.279471 1_455
O0 Sn4 2.149287 1_555
O0 Sn2 2.153649 1_555
O0 Sb0 2.197591 1_555
O1 Sn5 2.149448 1_555
O1 Sn3 2.155543 1_655
O1 Sb1 2.196703 1_655
O2 Sn2 2.059654 1_555
O2 Sn4 2.066078 1_555
O3 Sn3 2.060758 1_655
O3 Sn5 2.065867 1_555
O4 Sn3 2.049951 1_555
O4 Sn4 2.054835 1_565
O5 Sn2 2.049990 1_555
O5 Sn5 2.052391 1_555
O6 Sn0 2.005346 1_555
O7 Sn1 2.007481 1_555
O8 Sn4 2.143209 1_565
O8 Sn3 2.144943 1_555
O8 Sb2 2.254640 1_554
O9 Sn5 2.143567 1_555
O9 Sn2 2.145127 1_555
O9 Sb3 2.253022 1_654
O10 Sb0 1.941210 1_555
O11 Sb1 1.941492 1_555
O12 Sn0 2.015824 1_555
O13 Sn1 2.019506 1_555
O14 Sb2 1.973691 1_555
O15 Sb3 1.970005 1_555
O16 Sb0 2.025675 1_555
O16 Sn1 2.183340 1_555
O17 Sb1 2.024629 1_555
O17 Sn0 2.190673 1_555
O18 Sb0 2.023560 1_555
O18 Sn0 2.189536 1_545
O19 Sb1 2.026330 1_655
O19 Sn1 2.188047 1_555
O20 Sn2 2.087835 1_555
O20 Sb0 2.099081 1_555
O21 Sn3 2.085088 1_555
O21 Sb1 2.099457 1_555
O22 Sn4 2.091666 1_555
O22 Sb0 2.104231 1_555
O23 Sn5 2.093432 1_555
O23 Sb1 2.106436 1_655
O24 Sb2 2.035308 1_555
O24 Sn0 2.164727 1_555
O25 Sb3 2.037136 1_655
O25 Sn1 2.166147 1_555
O26 Sb2 2.033499 1_555
O26 Sn0 2.165985 1_555
O27 Sb3 2.036691 1_655
O27 Sn1 2.163719 1_555
O28 Sb2 2.061729 1_554
O28 Sn3 2.132177 1_655
O29 Sb3 2.063298 1_554
O29 Sn2 2.132389 1_555
O30 Sb2 2.067159 1_554
O30 Sn5 2.135755 1_555
O31 Sb3 2.066084 1_554
O31 Sn4 2.133757 1_555
