# generated using pymatgen
data_Na3Mn3O8
_symmetry_space_group_name_H-M   'P 1'
_cell_length_a   8.76913300
_cell_length_b   8.76913300
_cell_length_c   8.76913300
_cell_angle_alpha   90.00000000
_cell_angle_beta   90.00000000
_cell_angle_gamma   90.00000000
_symmetry_Int_Tables_number   1
_chemical_formula_structural   Na3Mn3O8
_chemical_formula_sum   'Na12 Mn12 O32'
_cell_volume   674.32610232
_cell_formula_units_Z   4
loop_
 _symmetry_equiv_pos_site_id
 _symmetry_equiv_pos_as_xyz
  1  'x, y, z'
loop_
 _atom_site_type_symbol
 _atom_site_label
 _atom_site_symmetry_multiplicity
 _atom_site_fract_x
 _atom_site_fract_y
 _atom_site_fract_z
 _atom_site_occupancy
  Na  Na0  1  0.01336000  0.01336000  0.01336000  1
  Na  Na1  1  0.12500000  0.87500000  0.37500000  1
  Na  Na2  1  0.23664000  0.23664000  0.23664000  1
  Na  Na3  1  0.26336000  0.76336000  0.73664000  1
  Na  Na4  1  0.37500000  0.12500000  0.87500000  1
  Na  Na5  1  0.48664000  0.98664000  0.51336000  1
  Na  Na6  1  0.51336000  0.48664000  0.98664000  1
  Na  Na7  1  0.62500000  0.62500000  0.62500000  1
  Na  Na8  1  0.73664000  0.26336000  0.76336000  1
  Na  Na9  1  0.76336000  0.73664000  0.26336000  1
  Na  Na10  1  0.87500000  0.37500000  0.12500000  1
  Na  Na11  1  0.98664000  0.51336000  0.48664000  1
  Mn  Mn0  1  0.10413600  0.14586400  0.62500000  1
  Mn  Mn1  1  0.12500000  0.39586400  0.85413600  1
  Mn  Mn2  1  0.14586400  0.62500000  0.10413600  1
  Mn  Mn3  1  0.35413600  0.37500000  0.60413600  1
  Mn  Mn4  1  0.37500000  0.60413600  0.35413600  1
  Mn  Mn5  1  0.39586400  0.85413600  0.12500000  1
  Mn  Mn6  1  0.60413600  0.35413600  0.37500000  1
  Mn  Mn7  1  0.62500000  0.10413600  0.14586400  1
  Mn  Mn8  1  0.64586400  0.87500000  0.89586400  1
  Mn  Mn9  1  0.85413600  0.12500000  0.39586400  1
  Mn  Mn10  1  0.87500000  0.89586400  0.64586400  1
  Mn  Mn11  1  0.89586400  0.64586400  0.87500000  1
  O  O0  1  0.06928200  0.14166100  0.40681300  1
  O  O1  1  0.09318700  0.93071800  0.64166100  1
  O  O2  1  0.12028400  0.62028400  0.87971600  1
  O  O3  1  0.14166100  0.40681300  0.06928200  1
  O  O4  1  0.10833900  0.18071800  0.84318700  1
  O  O5  1  0.12971600  0.37028400  0.62971600  1
  O  O6  1  0.15681300  0.60833900  0.31928200  1
  O  O7  1  0.18071800  0.84318700  0.10833900  1
  O  O8  1  0.31928200  0.15681300  0.60833900  1
  O  O9  1  0.34318700  0.39166100  0.81928200  1
  O  O10  1  0.37028400  0.62971600  0.12971600  1
  O  O11  1  0.39166100  0.81928200  0.34318700  1
  O  O12  1  0.35833900  0.59318700  0.56928200  1
  O  O13  1  0.37971600  0.37971600  0.37971600  1
  O  O14  1  0.40681300  0.06928200  0.14166100  1
  O  O15  1  0.43071800  0.85833900  0.90681300  1
  O  O16  1  0.56928200  0.35833900  0.59318700  1
  O  O17  1  0.59318700  0.56928200  0.35833900  1
  O  O18  1  0.62028400  0.87971600  0.12028400  1
  O  O19  1  0.64166100  0.09318700  0.93071800  1
  O  O20  1  0.60833900  0.31928200  0.15681300  1
  O  O21  1  0.62971600  0.12971600  0.37028400  1
  O  O22  1  0.65681300  0.89166100  0.68071800  1
  O  O23  1  0.68071800  0.65681300  0.89166100  1
  O  O24  1  0.81928200  0.34318700  0.39166100  1
  O  O25  1  0.84318700  0.10833900  0.18071800  1
  O  O26  1  0.87028400  0.87028400  0.87028400  1
  O  O27  1  0.89166100  0.68071800  0.65681300  1
  O  O28  1  0.85833900  0.90681300  0.43071800  1
  O  O29  1  0.87971600  0.12028400  0.62028400  1
  O  O30  1  0.90681300  0.43071800  0.85833900  1
  O  O31  1  0.93071800  0.64166100  0.09318700  1
loop_
_geom_bond_atom_site_label_1
_geom_bond_atom_site_label_2
_geom_bond_distance
_geom_bond_site_symmetry_2
Na0 O26 2.173122 1_444
Na0 O4 2.252636 1_554
Na0 O7 2.252636 1_545
Na0 O25 2.252636 1_455
Na1 O0 2.405120 1_565
Na1 O1 2.405120 1_555
Na1 O6 2.405120 1_555
Na1 O28 2.405120 1_455
Na1 O11 2.405120 1_555
Na1 O7 2.405120 1_555
Na2 O13 2.173122 1_555
Na2 O3 2.252636 1_555
Na2 O0 2.252636 1_555
Na2 O14 2.252636 1_555
Na3 O2 2.173122 1_555
Na3 O12 2.252636 1_555
Na3 O15 2.252636 1_555
Na3 O1 2.252636 1_555
Na4 O14 2.405120 1_556
Na4 O19 2.405120 1_555
Na4 O8 2.405120 1_555
Na4 O15 2.405120 1_545
Na4 O9 2.405120 1_555
Na4 O4 2.405120 1_555
Na5 O21 2.173122 1_565
Na5 O8 2.252636 1_565
Na5 O22 2.252636 1_555
Na5 O11 2.252636 1_555
Na6 O10 2.173122 1_556
Na6 O20 2.252636 1_556
Na6 O23 2.252636 1_555
Na6 O9 2.252636 1_555
Na7 O22 2.405120 1_555
Na7 O27 2.405120 1_555
Na7 O23 2.405120 1_555
Na7 O16 2.405120 1_555
Na7 O17 2.405120 1_555
Na7 O12 2.405120 1_555
Na8 O29 2.173122 1_555
Na8 O16 2.252636 1_555
Na8 O30 2.252636 1_555
Na8 O19 2.252636 1_555
Na9 O18 2.173122 1_555
Na9 O17 2.252636 1_555
Na9 O28 2.252636 1_555
Na9 O31 2.252636 1_555
Na10 O31 2.405120 1_555
Na10 O3 2.405120 1_655
Na10 O20 2.405120 1_555
Na10 O30 2.405120 1_554
Na10 O24 2.405120 1_555
Na10 O25 2.405120 1_555
Na11 O5 2.173122 1_655
Na11 O6 2.252636 1_655
Na11 O27 2.252636 1_555
Na11 O24 2.252636 1_555
Mn0 O1 1.894727 1_545
Mn0 O8 1.894727 1_555
Mn0 O4 1.937920 1_555
Mn0 O0 1.937920 1_555
Mn0 O29 1.981143 1_455
Mn0 O5 1.981143 1_555
Mn1 O3 1.894727 1_556
Mn1 O4 1.894727 1_555
Mn1 O9 1.937920 1_555
Mn1 O30 1.937920 1_455
Mn1 O2 1.981143 1_555
Mn1 O5 1.981143 1_555
Mn2 O31 1.894727 1_455
Mn2 O6 1.894727 1_555
Mn2 O7 1.937920 1_555
Mn2 O3 1.937920 1_555
Mn2 O2 1.981143 1_554
Mn2 O10 1.981143 1_555
Mn3 O9 1.894727 1_555
Mn3 O16 1.894727 1_555
Mn3 O12 1.937920 1_555
Mn3 O8 1.937920 1_555
Mn3 O5 1.981143 1_555
Mn3 O13 1.981143 1_555
Mn4 O11 1.894727 1_555
Mn4 O12 1.894727 1_555
Mn4 O17 1.937920 1_555
Mn4 O6 1.937920 1_555
Mn4 O10 1.981143 1_555
Mn4 O13 1.981143 1_555
Mn5 O14 1.894727 1_565
Mn5 O7 1.894727 1_555
Mn5 O11 1.937920 1_555
Mn5 O15 1.937920 1_554
Mn5 O18 1.981143 1_555
Mn5 O10 1.981143 1_555
Mn6 O17 1.894727 1_555
Mn6 O24 1.894727 1_555
Mn6 O16 1.937920 1_555
Mn6 O20 1.937920 1_555
Mn6 O21 1.981143 1_555
Mn6 O13 1.981143 1_555
Mn7 O19 1.894727 1_554
Mn7 O20 1.894727 1_555
Mn7 O25 1.937920 1_555
Mn7 O14 1.937920 1_555
Mn7 O18 1.981143 1_545
Mn7 O21 1.981143 1_555
Mn8 O15 1.894727 1_555
Mn8 O22 1.894727 1_555
Mn8 O19 1.937920 1_565
Mn8 O23 1.937920 1_555
Mn8 O18 1.981143 1_556
Mn8 O26 1.981143 1_555
Mn9 O0 1.894727 1_655
Mn9 O25 1.894727 1_555
Mn9 O24 1.937920 1_555
Mn9 O28 1.937920 1_545
Mn9 O29 1.981143 1_555
Mn9 O21 1.981143 1_555
Mn10 O28 1.894727 1_555
Mn10 O27 1.894727 1_555
Mn10 O1 1.937920 1_655
Mn10 O22 1.937920 1_555
Mn10 O29 1.981143 1_565
Mn10 O26 1.981143 1_555
Mn11 O30 1.894727 1_555
Mn11 O23 1.894727 1_555
Mn11 O31 1.937920 1_556
Mn11 O27 1.937920 1_555
Mn11 O2 1.981143 1_655
Mn11 O26 1.981143 1_555
