# generated using pymatgen
data_AlH18CS2N3O14
_symmetry_space_group_name_H-M   'P 1'
_cell_length_a   11.82630786
_cell_length_b   11.82630786
_cell_length_c   9.08027300
_cell_angle_alpha   90.00000000
_cell_angle_beta   90.00000000
_cell_angle_gamma   119.99999922
_symmetry_Int_Tables_number   1
_chemical_formula_structural   AlH18CS2N3O14
_chemical_formula_sum   'Al3 H54 C3 S6 N9 O42'
_cell_volume   1099.83592551
_cell_formula_units_Z   3
loop_
 _symmetry_equiv_pos_site_id
 _symmetry_equiv_pos_as_xyz
  1  'x, y, z'
loop_
 _atom_site_type_symbol
 _atom_site_label
 _atom_site_symmetry_multiplicity
 _atom_site_fract_x
 _atom_site_fract_y
 _atom_site_fract_z
 _atom_site_occupancy
  Al  Al0  1  0.00000000  0.00000000  0.99737700  1
  Al  Al1  1  0.66666700  0.33333300  0.05814300  1
  Al  Al2  1  0.33333300  0.66666700  0.05814300  1
  H  H0  1  0.80107300  0.88672100  0.50239000  1
  H  H1  1  0.08564800  0.19892700  0.50239000  1
  H  H2  1  0.11327900  0.91435200  0.50239000  1
  H  H3  1  0.19892700  0.08564800  0.50239000  1
  H  H4  1  0.88672100  0.80107300  0.50239000  1
  H  H5  1  0.91435200  0.11327900  0.50239000  1
  H  H6  1  0.43463900  0.86654400  0.55194500  1
  H  H7  1  0.43190500  0.56536100  0.55194500  1
  H  H8  1  0.13345600  0.56809500  0.55194500  1
  H  H9  1  0.56536100  0.43190500  0.55194500  1
  H  H10  1  0.86654400  0.43463900  0.55194500  1
  H  H11  1  0.56809500  0.13345600  0.55194500  1
  H  H12  1  0.53124600  0.79384800  0.55554300  1
  H  H13  1  0.26260200  0.46875400  0.55554300  1
  H  H14  1  0.20615200  0.73739800  0.55554300  1
  H  H15  1  0.46875400  0.26260200  0.55554300  1
  H  H16  1  0.79384800  0.53124600  0.55554300  1
  H  H17  1  0.73739800  0.20615200  0.55554300  1
  H  H18  1  0.79061700  0.91814000  0.84083800  1
  H  H19  1  0.12752300  0.20938300  0.84083800  1
  H  H20  1  0.08186000  0.87247700  0.84083800  1
  H  H21  1  0.20938300  0.12752300  0.84083800  1
  H  H22  1  0.91814000  0.79061700  0.84083800  1
  H  H23  1  0.87247700  0.08186000  0.84083800  1
  H  H24  1  0.79505700  0.87472500  0.16572700  1
  H  H25  1  0.07966800  0.20494300  0.16572700  1
  H  H26  1  0.12527500  0.92033200  0.16572700  1
  H  H27  1  0.20494300  0.07966800  0.16572700  1
  H  H28  1  0.87472500  0.79505700  0.16572700  1
  H  H29  1  0.92033200  0.12527500  0.16572700  1
  H  H30  1  0.53515400  0.79084000  0.89099100  1
  H  H31  1  0.25568600  0.46484600  0.89099100  1
  H  H32  1  0.20916000  0.74431400  0.89099100  1
  H  H33  1  0.46484600  0.25568600  0.89099100  1
  H  H34  1  0.79084000  0.53515400  0.89099100  1
  H  H35  1  0.74431400  0.20916000  0.89099100  1
  H  H36  1  0.46089100  0.87756700  0.89751800  1
  H  H37  1  0.41667600  0.53910900  0.89751800  1
  H  H38  1  0.12243300  0.58332400  0.89751800  1
  H  H39  1  0.53910900  0.41667600  0.89751800  1
  H  H40  1  0.87756700  0.46089100  0.89751800  1
  H  H41  1  0.58332400  0.12243300  0.89751800  1
  H  H42  1  0.54372900  0.74491100  0.21207500  1
  H  H43  1  0.20118200  0.45627100  0.21207500  1
  H  H44  1  0.25508900  0.79881800  0.21207500  1
  H  H45  1  0.45627100  0.20118200  0.21207500  1
  H  H46  1  0.74491100  0.54372900  0.21207500  1
  H  H47  1  0.79881800  0.25508900  0.21207500  1
  H  H48  1  0.45576000  0.58149800  0.21721600  1
  H  H49  1  0.12573800  0.54424000  0.21721600  1
  H  H50  1  0.41850200  0.87426200  0.21721600  1
  H  H51  1  0.54424000  0.12573800  0.21721600  1
  H  H52  1  0.58149800  0.45576000  0.21721600  1
  H  H53  1  0.87426200  0.41850200  0.21721600  1
  C  C0  1  0.00000000  0.00000000  0.50673600  1
  C  C1  1  0.66666700  0.33333300  0.55358900  1
  C  C2  1  0.33333300  0.66666700  0.55358900  1
  S  S0  1  0.34485200  0.00000000  0.75669700  1
  S  S1  1  0.65514800  0.65514800  0.75669700  1
  S  S2  1  0.00000000  0.34485200  0.75669700  1
  S  S3  1  0.68075800  0.00000000  0.31385600  1
  S  S4  1  0.31924200  0.31924200  0.31385600  1
  S  S5  1  0.00000000  0.68075800  0.31385600  1
  N  N0  1  0.11298600  0.00000000  0.50752400  1
  N  N1  1  0.88701400  0.88701400  0.50752400  1
  N  N2  1  0.00000000  0.11298600  0.50752400  1
  N  N3  1  0.21605200  0.65692900  0.55333800  1
  N  N4  1  0.44087700  0.78394800  0.55333800  1
  N  N5  1  0.34307100  0.55912300  0.55333800  1
  N  N6  1  0.78394800  0.44087700  0.55333800  1
  N  N7  1  0.65692900  0.21605200  0.55333800  1
  N  N8  1  0.55912300  0.34307100  0.55333800  1
  O  O0  1  0.45171000  0.00000000  0.84725800  1
  O  O1  1  0.54829000  0.54829000  0.84725800  1
  O  O2  1  0.00000000  0.45171000  0.84725800  1
  O  O3  1  0.55616400  0.00000000  0.28398500  1
  O  O4  1  0.44383600  0.44383600  0.28398500  1
  O  O5  1  0.00000000  0.55616400  0.28398500  1
  O  O6  1  0.37302600  0.00000000  0.59749400  1
  O  O7  1  0.62697400  0.62697400  0.59749400  1
  O  O8  1  0.00000000  0.37302600  0.59749400  1
  O  O9  1  0.70320100  0.00000000  0.47400500  1
  O  O10  1  0.29679900  0.29679900  0.47400500  1
  O  O11  1  0.00000000  0.70320100  0.47400500  1
  O  O12  1  0.66086700  0.78095000  0.79564900  1
  O  O13  1  0.12008300  0.33913300  0.79564900  1
  O  O14  1  0.21905000  0.87991700  0.79564900  1
  O  O15  1  0.33913300  0.12008300  0.79564900  1
  O  O16  1  0.78095000  0.66086700  0.79564900  1
  O  O17  1  0.87991700  0.21905000  0.79564900  1
  O  O18  1  0.67344200  0.88125300  0.24445600  1
  O  O19  1  0.20781100  0.32655800  0.24445600  1
  O  O20  1  0.11874700  0.79218900  0.24445600  1
  O  O21  1  0.32655800  0.20781100  0.24445600  1
  O  O22  1  0.88125300  0.67344200  0.24445600  1
  O  O23  1  0.79218900  0.11874700  0.24445600  1
  O  O24  1  0.13412400  0.00000000  0.11573300  1
  O  O25  1  0.86587600  0.86587600  0.11573300  1
  O  O26  1  0.00000000  0.13412400  0.11573300  1
  O  O27  1  0.86698500  0.00000000  0.88070600  1
  O  O28  1  0.13301500  0.13301500  0.88070600  1
  O  O29  1  0.00000000  0.86698500  0.88070600  1
  O  O30  1  0.19799900  0.66502700  0.94173200  1
  O  O31  1  0.46702800  0.80200100  0.94173200  1
  O  O32  1  0.33497300  0.53297200  0.94173200  1
  O  O33  1  0.80200100  0.46702800  0.94173200  1
  O  O34  1  0.66502700  0.19799900  0.94173200  1
  O  O35  1  0.53297200  0.33497300  0.94173200  1
  O  O36  1  0.33633800  0.80027100  0.17602200  1
  O  O37  1  0.46393200  0.66366200  0.17602200  1
  O  O38  1  0.19972900  0.53606800  0.17602200  1
  O  O39  1  0.66366200  0.46393200  0.17602200  1
  O  O40  1  0.80027100  0.33633800  0.17602200  1
  O  O41  1  0.53606800  0.19972900  0.17602200  1
loop_
_geom_bond_atom_site_label_1
_geom_bond_atom_site_label_2
_geom_bond_distance
_geom_bond_site_symmetry_2
Al0 O27 1.896551 1_455
Al0 O29 1.896551 1_545
Al0 O28 1.896551 1_555
Al0 O26 1.915984 1_556
Al0 O24 1.915984 1_556
Al0 O25 1.915984 1_446
Al1 O39 1.894028 1_555
Al1 O40 1.894028 1_555
Al1 O41 1.894028 1_555
Al1 O34 1.910047 1_554
Al1 O33 1.910052 1_554
Al1 O35 1.910057 1_554
Al2 O37 1.894028 1_555
Al2 O36 1.894028 1_555
Al2 O38 1.894028 1_555
Al2 O30 1.910047 1_554
Al2 O31 1.910052 1_554
Al2 O32 1.910057 1_554
H0 N1 1.015707 1_555
H1 N2 1.015707 1_555
H2 N0 1.015707 1_565
H3 N0 1.015707 1_555
H4 N1 1.015707 1_555
H5 N2 1.015707 1_655
H6 N4 1.015782 1_555
H7 N5 1.015782 1_555
H8 N3 1.015782 1_555
H9 N8 1.015782 1_555
H10 N6 1.015782 1_555
H11 N7 1.015782 1_555
H12 N4 1.015465 1_555
H13 N5 1.015465 1_555
H14 N3 1.015465 1_555
H15 N8 1.015465 1_555
H16 N6 1.015465 1_555
H17 N7 1.015465 1_555
H18 O27 1.004795 1_565
H18 O12 1.632698 1_555
H19 O28 1.004795 1_555
H19 O13 1.632698 1_555
H20 O29 1.004795 1_555
H20 O14 1.632698 1_555
H21 O28 1.004795 1_555
H21 O15 1.632698 1_555
H22 O29 1.004795 1_655
H22 O16 1.632698 1_555
H23 O27 1.004795 1_555
H23 O17 1.632698 1_555
H24 O25 1.003061 1_555
H24 O18 1.642143 1_555
H25 O26 1.003061 1_555
H25 O19 1.642143 1_555
H26 O24 1.003061 1_565
H26 O20 1.642143 1_555
H27 O24 1.003061 1_555
H27 O21 1.642143 1_555
H28 O25 1.003061 1_555
H28 O22 1.642143 1_555
H29 O26 1.003061 1_655
H29 O23 1.642143 1_555
H30 O31 0.992557 1_555
H31 O32 0.992557 1_555
H32 O30 0.992557 1_555
H33 O35 0.992557 1_555
H34 O33 0.992557 1_555
H35 O34 0.992557 1_555
H36 O31 1.014865 1_555
H36 O0 1.572826 1_565
H37 O32 1.014865 1_555
H37 O1 1.572826 1_555
H38 O30 1.014865 1_555
H38 O2 1.572826 1_555
H39 O35 1.014865 1_555
H39 O1 1.572826 1_555
H40 O33 1.014865 1_555
H40 O2 1.572826 1_655
H41 O34 1.014865 1_555
H41 O0 1.572826 1_555
H42 O37 1.007099 1_555
H42 O18 1.601904 1_555
H43 O38 1.007105 1_555
H43 O19 1.601904 1_555
H44 O36 1.007094 1_555
H44 O20 1.601904 1_555
H45 O41 1.007105 1_555
H45 O21 1.601904 1_555
H46 O39 1.007099 1_555
H46 O22 1.601904 1_555
H47 O40 1.007094 1_555
H47 O23 1.601904 1_555
H48 O37 0.999770 1_555
H48 O4 1.675820 1_555
H49 O38 0.999760 1_555
H49 O5 1.675820 1_555
H50 O36 0.999766 1_555
H50 O3 1.675820 1_565
H51 O41 0.999760 1_555
H51 O3 1.675820 1_555
H52 O39 0.999770 1_555
H52 O4 1.675820 1_555
H53 O40 0.999766 1_555
H53 O5 1.675820 1_655
C0 N2 1.336226 1_555
C0 N0 1.336226 1_555
C0 N1 1.336226 1_445
C1 N7 1.333157 1_555
C1 N6 1.333162 1_555
C1 N8 1.333169 1_555
C2 N3 1.333157 1_555
C2 N4 1.333162 1_555
C2 N5 1.333169 1_555
O0 S0 1.507725 1_555
O1 S1 1.507725 1_555
O2 S2 1.507725 1_555
O3 S3 1.498243 1_555
O4 S4 1.498243 1_555
O5 S5 1.498243 1_555
O6 S0 1.483508 1_555
O7 S1 1.483508 1_555
O8 S2 1.483508 1_555
O9 S3 1.478220 1_555
O10 S4 1.478220 1_555
O11 S5 1.478220 1_555
O12 S1 1.497504 1_555
O13 S2 1.497504 1_555
O14 S0 1.497504 1_565
O15 S0 1.497504 1_555
O16 S1 1.497504 1_555
O17 S2 1.497504 1_655
O18 S3 1.501753 1_565
O19 S4 1.501753 1_555
O20 S5 1.501753 1_555
O21 S4 1.501753 1_555
O22 S5 1.501753 1_655
O23 S3 1.501753 1_555
