# generated using pymatgen
data_V6O11F
_symmetry_space_group_name_H-M   'P 1'
_cell_length_a   4.62051244
_cell_length_b   4.62051244
_cell_length_c   8.97768700
_cell_angle_alpha   90.00000000
_cell_angle_beta   90.00000000
_cell_angle_gamma   91.94098290
_symmetry_Int_Tables_number   1
_chemical_formula_structural   V6O11F
_chemical_formula_sum   'V6 O11 F1'
_cell_volume   191.55588403
_cell_formula_units_Z   1
loop_
 _symmetry_equiv_pos_site_id
 _symmetry_equiv_pos_as_xyz
  1  'x, y, z'
loop_
 _atom_site_type_symbol
 _atom_site_label
 _atom_site_symmetry_multiplicity
 _atom_site_fract_x
 _atom_site_fract_y
 _atom_site_fract_z
 _atom_site_occupancy
  V  V0  1  0.98325200  0.01674800  0.81914600  1
  V  V1  1  0.00852700  0.99147300  0.50000000  1
  V  V2  1  0.98325200  0.01674800  0.18085400  1
  V  V3  1  0.47909600  0.52090400  0.66808100  1
  V  V4  1  0.53376900  0.46623100  0.00000000  1
  V  V5  1  0.47909600  0.52090400  0.33191900  1
  O  O0  1  0.80103100  0.19896900  0.67604100  1
  O  O1  1  0.80103100  0.19896900  0.32395900  1
  O  O2  1  0.80650300  0.19349700  0.00000000  1
  O  O3  1  0.30754900  0.29948200  0.83557200  1
  O  O4  1  0.31043400  0.30298600  0.50000000  1
  O  O5  1  0.30754900  0.29948200  0.16442800  1
  O  O6  1  0.70051800  0.69245100  0.83557200  1
  O  O7  1  0.69701400  0.68956600  0.50000000  1
  O  O8  1  0.70051800  0.69245100  0.16442800  1
  O  O9  1  0.20251000  0.79749000  0.67313800  1
  O  O10  1  0.20251000  0.79749000  0.32686200  1
  F  F0  1  0.19583900  0.80416100  0.00000000  1
loop_
_geom_bond_atom_site_label_1
_geom_bond_atom_site_label_2
_geom_bond_distance
_geom_bond_site_symmetry_2
O0 V0 1.765328 1_555
O0 V1 2.097240 1_645
O0 V3 2.140171 1_555
O1 V2 1.765328 1_555
O1 V1 2.097240 1_645
O1 V5 2.140171 1_555
O2 V4 1.812080 1_555
O2 V2 2.003827 1_555
O2 V0 2.003827 1_554
O3 V4 1.952110 1_556
O3 V0 1.959852 1_455
O3 V3 1.970050 1_555
O4 V5 1.960870 1_555
O4 V3 1.960870 1_555
O4 V1 1.970189 1_545
O5 V4 1.952110 1_555
O5 V2 1.959852 1_455
O5 V5 1.970050 1_555
O6 V4 1.952110 1_556
O6 V0 1.959852 1_565
O6 V3 1.970050 1_555
O7 V5 1.960870 1_555
O7 V3 1.960870 1_555
O7 V1 1.970189 1_655
O8 V4 1.952110 1_555
O8 V2 1.959852 1_565
O8 V5 1.970050 1_555
O9 V3 1.838234 1_555
O9 V0 1.959703 1_465
O9 V1 2.019214 1_555
O10 V5 1.838234 1_555
O10 V2 1.959703 1_465
O10 V1 2.019214 1_555
F0 V0 2.152039 1_464
F0 V2 2.152039 1_465
F0 V4 2.245251 1_555
