# generated using pymatgen
data_Li3MnV(PO4)3
_symmetry_space_group_name_H-M   'P 1'
_cell_length_a   8.38338100
_cell_length_b   8.44771056
_cell_length_c   9.16605829
_cell_angle_alpha   91.00279893
_cell_angle_beta   116.45248465
_cell_angle_gamma   119.45214312
_symmetry_Int_Tables_number   1
_chemical_formula_structural   Li3MnV(PO4)3
_chemical_formula_sum   'Li6 Mn2 V2 P6 O24'
_cell_volume   482.21860904
_cell_formula_units_Z   2
loop_
 _symmetry_equiv_pos_site_id
 _symmetry_equiv_pos_as_xyz
  1  'x, y, z'
loop_
 _atom_site_type_symbol
 _atom_site_label
 _atom_site_symmetry_multiplicity
 _atom_site_fract_x
 _atom_site_fract_y
 _atom_site_fract_z
 _atom_site_occupancy
  Li  Li0  1  0.93528600  0.26206300  0.85896000  1
  Li  Li1  1  0.19281400  0.92487600  0.85013900  1
  Li  Li2  1  0.19821300  0.73439100  0.40810400  1
  Li  Li3  1  0.80935200  0.07341600  0.14083400  1
  Li  Li4  1  0.02682000  0.75318600  0.08130800  1
  Li  Li5  1  0.39222600  0.32482800  0.13843600  1
  Mn  Mn0  1  0.30371100  0.15876200  0.44324100  1
  Mn  Mn1  1  0.70939000  0.84905700  0.56629700  1
  V  V0  1  0.31927600  0.65437400  0.96115600  1
  V  V1  1  0.68996600  0.34805600  0.03726100  1
  P  P0  1  0.80131200  0.53636500  0.75238500  1
  P  P1  1  0.21426200  0.25597200  0.75201700  1
  P  P2  1  0.51088800  0.95853900  0.75733400  1
  P  P3  1  0.49983600  0.04264700  0.24443900  1
  P  P4  1  0.78379300  0.73712200  0.25322700  1
  P  P5  1  0.19796600  0.46526200  0.24864400  1
  O  O0  1  0.73534100  0.51106200  0.89069200  1
  O  O1  1  0.89033300  0.74736400  0.75557300  1
  O  O2  1  0.99718600  0.51250700  0.82284200  1
  O  O3  1  0.30545100  0.47250700  0.83123900  1
  O  O4  1  0.36170700  0.20684700  0.89395000  1
  O  O5  1  0.69434000  0.15610900  0.90090000  1
  O  O6  1  0.61901600  0.39043600  0.58071900  1
  O  O7  1  0.99334800  0.13102900  0.73479900  1
  O  O8  1  0.20980400  0.23064100  0.58761000  1
  O  O9  1  0.35959500  0.83169800  0.82342900  1
  O  O10  1  0.62755000  0.87283200  0.73760900  1
  O  O11  1  0.36865900  0.97413400  0.58948800  1
  O  O12  1  0.62409000  0.01338000  0.40888300  1
  O  O13  1  0.37608300  0.12722100  0.25319600  1
  O  O14  1  0.64606000  0.16583300  0.17607200  1
  O  O15  1  0.80308600  0.77651600  0.42643000  1
  O  O16  1  0.00608100  0.84879700  0.26876000  1
  O  O17  1  0.38205500  0.62532900  0.41752700  1
  O  O18  1  0.31025700  0.84035000  0.09461700  1
  O  O19  1  0.63864600  0.79801200  0.12078400  1
  O  O20  1  0.67701400  0.52072500  0.17981600  1
  O  O21  1  0.01667000  0.50321200  0.19006900  1
  O  O22  1  0.11951200  0.26141900  0.25936000  1
  O  O23  1  0.26140400  0.47684700  0.10763500  1
loop_
_geom_bond_atom_site_label_1
_geom_bond_atom_site_label_2
_geom_bond_distance
_geom_bond_site_symmetry_2
Li0 O7 1.933063 1_555
Li0 O2 1.988190 1_555
Li0 O5 1.988714 1_555
Li0 O23 2.321074 1_656
Li1 O1 1.920200 1_455
Li1 O4 1.995816 1_565
Li1 O9 2.003741 1_555
Li1 O18 2.298392 1_556
Li2 O11 1.956386 1_555
Li2 O21 2.086867 1_555
Li2 O17 2.124198 1_555
Li2 O16 2.213825 1_555
Li3 O22 1.955889 1_655
Li3 O19 1.992759 1_545
Li3 O14 2.005973 1_555
Li3 O5 2.254179 1_554
Li4 O16 1.997613 1_555
Li4 O18 2.054561 1_555
Li4 O0 2.088918 1_454
Li4 O21 2.330866 1_555
Li5 O20 1.966839 1_555
Li5 O13 1.969157 1_555
Li5 O23 2.013357 1_555
Li5 O4 2.289326 1_554
Mn0 O8 2.027237 1_555
Mn0 O6 2.064975 1_555
Mn0 O13 2.134916 1_555
Mn0 O11 2.187254 1_545
Mn0 O22 2.242040 1_555
Mn0 O16 2.348033 1_545
Mn1 O15 1.994780 1_555
Mn1 O10 2.015207 1_555
Mn1 O17 2.106580 1_555
Mn1 O12 2.155750 1_565
Mn1 O7 2.178463 1_565
Mn1 O1 2.244550 1_555
O0 P0 1.573715 1_555
O0 V1 1.962326 1_556
O1 P0 1.550989 1_555
O2 P0 1.593538 1_555
O2 V0 2.012293 1_655
O3 P1 1.594225 1_555
O3 V0 1.851971 1_555
O4 P1 1.575853 1_555
O4 V1 2.053765 1_556
O5 P2 1.574297 1_545
O5 V1 2.054567 1_556
O6 P0 1.506057 1_555
O7 P1 1.542838 1_655
O8 P1 1.499600 1_555
O9 P2 1.579461 1_555
O9 V0 1.974922 1_555
O10 P2 1.537122 1_555
O11 P2 1.527506 1_555
O12 P3 1.511835 1_555
O13 P3 1.547363 1_555
O14 P3 1.559188 1_555
O14 V1 2.013107 1_555
O15 P4 1.535303 1_555
O16 P4 1.553405 1_455
O17 P5 1.533829 1_555
O18 P3 1.623188 1_565
O18 V0 2.025443 1_554
O19 P4 1.593836 1_555
O19 V0 2.008628 1_554
O20 P4 1.551440 1_555
O20 V1 2.015513 1_555
O21 P5 1.568198 1_555
O21 V1 2.041816 1_455
O22 P5 1.535331 1_555
O23 P5 1.590158 1_555
O23 V0 2.054859 1_554
