# generated using pymatgen
data_KHgAs
_symmetry_space_group_name_H-M   'P 1'
_cell_length_a   4.56766185
_cell_length_b   4.56766185
_cell_length_c   9.97232974
_cell_angle_alpha   90.00000000
_cell_angle_beta   90.00000000
_cell_angle_gamma   119.99998688
_symmetry_Int_Tables_number   1
_chemical_formula_structural   KHgAs
_chemical_formula_sum   'K2 Hg2 As2'
_cell_volume   180.18357946
_cell_formula_units_Z   2
loop_
 _symmetry_equiv_pos_site_id
 _symmetry_equiv_pos_as_xyz
  1  'x, y, z'
loop_
 _atom_site_type_symbol
 _atom_site_label
 _atom_site_symmetry_multiplicity
 _atom_site_fract_x
 _atom_site_fract_y
 _atom_site_fract_z
 _atom_site_occupancy
  K  K0  1  0.00000000  0.00000000  0.00000000  1
  K  K1  1  0.00000000  0.00000000  0.50000000  1
  Hg  Hg0  1  0.33333300  0.66666700  0.75000000  1
  Hg  Hg1  1  0.66666700  0.33333300  0.25000000  1
  As  As0  1  0.33333300  0.66666700  0.25000000  1
  As  As1  1  0.66666700  0.33333300  0.75000000  1
loop_
_geom_bond_atom_site_label_1
_geom_bond_atom_site_label_2
_geom_bond_distance
_geom_bond_site_symmetry_2
Hg0 K1 3.629044 1_565
Hg0 K0 3.629044 1_566
Hg0 K0 3.629047 1_666
Hg0 K1 3.629047 1_555
Hg0 K1 3.629047 1_665
Hg0 K0 3.629047 1_556
Hg1 K0 3.629044 1_655
Hg1 K1 3.629044 1_655
Hg1 K0 3.629047 1_665
Hg1 K1 3.629047 1_665
Hg1 K0 3.629047 1_555
Hg1 K1 3.629047 1_555
As0 Hg1 2.637139 1_455
As0 Hg1 2.637139 1_565
As0 Hg1 2.637146 1_555
As0 K0 3.629044 1_565
As0 K1 3.629044 1_565
As0 K0 3.629047 1_665
As0 K1 3.629047 1_665
As0 K0 3.629047 1_555
As0 K1 3.629047 1_555
As1 Hg0 2.637139 1_545
As1 Hg0 2.637139 1_655
As1 Hg0 2.637146 1_555
As1 K1 3.629044 1_655
As1 K0 3.629044 1_656
As1 K0 3.629047 1_666
As1 K1 3.629047 1_555
As1 K1 3.629047 1_665
As1 K0 3.629047 1_556
