# generated using pymatgen
data_Li3Cu4NiO8
_symmetry_space_group_name_H-M   'P 1'
_cell_length_a   6.32044787
_cell_length_b   6.32044808
_cell_length_c   6.17974299
_cell_angle_alpha   78.57456145
_cell_angle_beta   53.13109764
_cell_angle_gamma   52.62325545
_symmetry_Int_Tables_number   1
_chemical_formula_structural   Li3Cu4NiO8
_chemical_formula_sum   'Li3 Cu4 Ni1 O8'
_cell_volume   151.49018562
_cell_formula_units_Z   1
loop_
 _symmetry_equiv_pos_site_id
 _symmetry_equiv_pos_as_xyz
  1  'x, y, z'
loop_
 _atom_site_type_symbol
 _atom_site_label
 _atom_site_symmetry_multiplicity
 _atom_site_fract_x
 _atom_site_fract_y
 _atom_site_fract_z
 _atom_site_occupancy
  Li  Li0  1  0.00000000  0.00000000  0.50000000  1
  Li  Li1  1  0.50000000  0.00000000  0.50000000  1
  Li  Li2  1  0.50000000  0.50000000  0.50000000  1
  Cu  Cu0  1  0.00000000  0.50000000  0.50000000  1
  Cu  Cu1  1  0.00000000  0.00000000  0.00000000  1
  Cu  Cu2  1  0.50000000  0.00000000  0.00000000  1
  Cu  Cu3  1  0.00000000  0.50000000  0.00000000  1
  Ni  Ni0  1  0.50000000  0.50000000  0.00000000  1
  O  O0  1  0.46341400  0.28081200  0.81739900  1
  O  O1  1  0.99944400  0.23067700  0.70466600  1
  O  O2  1  0.52601100  0.70411100  0.70466600  1
  O  O3  1  0.96088100  0.79900100  0.83811900  1
  O  O4  1  0.03911900  0.20099900  0.16188100  1
  O  O5  1  0.47398900  0.29588900  0.29533400  1
  O  O6  1  0.00055600  0.76932300  0.29533400  1
  O  O7  1  0.53658600  0.71918800  0.18260100  1
loop_
_geom_bond_atom_site_label_1
_geom_bond_atom_site_label_2
_geom_bond_distance
_geom_bond_site_symmetry_2
Li0 O1 2.108180 1_455
Li0 O6 2.108180 1_545
Li0 O0 2.141979 1_455
Li0 O7 2.141979 1_545
Li0 O3 2.179627 1_445
Li0 O4 2.179627 1_555
Li1 O2 2.015760 1_545
Li1 O5 2.015760 1_555
Li1 O1 2.015765 1_455
Li1 O6 2.015765 1_645
Li2 O5 2.108185 1_555
Li2 O2 2.108185 1_555
Li2 O0 2.141983 1_555
Li2 O7 2.141983 1_555
Li2 O3 2.179630 1_455
Li2 O4 2.179630 1_655
Cu0 O2 1.909521 1_455
Cu0 O5 1.909521 1_555
Cu0 O6 1.909522 1_555
Cu0 O1 1.909522 1_455
Cu1 O4 1.964051 1_555
Cu1 O3 1.964051 1_444
Cu1 O2 2.098551 1_544
Cu1 O5 2.098551 1_455
Cu1 O1 2.098552 1_454
Cu1 O6 2.098552 1_545
Cu2 O7 1.870371 1_545
Cu2 O0 1.870371 1_554
Cu2 O3 1.901001 1_544
Cu2 O4 1.901001 1_555
Cu3 O7 1.870375 1_455
Cu3 O0 1.870375 1_554
Cu3 O3 1.901005 1_454
Cu3 O4 1.901005 1_555
Ni0 O1 1.996719 1_554
Ni0 O6 1.996719 1_555
Ni0 O5 1.996722 1_555
Ni0 O2 1.996722 1_554
Ni0 O0 2.137164 1_554
Ni0 O7 2.137164 1_555
