# generated using pymatgen
data_Li3FeNi3O8
_symmetry_space_group_name_H-M   'P 1'
_cell_length_a   5.82360866
_cell_length_b   5.82360866
_cell_length_c   5.85109048
_cell_angle_alpha   60.97015407
_cell_angle_beta   60.97015407
_cell_angle_gamma   59.49112203
_symmetry_Int_Tables_number   1
_chemical_formula_structural   Li3FeNi3O8
_chemical_formula_sum   'Li3 Fe1 Ni3 O8'
_cell_volume   141.76747076
_cell_formula_units_Z   1
loop_
 _symmetry_equiv_pos_site_id
 _symmetry_equiv_pos_as_xyz
  1  'x, y, z'
loop_
 _atom_site_type_symbol
 _atom_site_label
 _atom_site_symmetry_multiplicity
 _atom_site_fract_x
 _atom_site_fract_y
 _atom_site_fract_z
 _atom_site_occupancy
  Li  Li0  1  0.00000000  0.50000000  0.50000000  1
  Li  Li1  1  0.00000000  0.00000000  0.50000000  1
  Li  Li2  1  0.50000000  0.00000000  0.50000000  1
  Fe  Fe0  1  0.50000000  0.50000000  0.00000000  1
  Ni  Ni0  1  0.00000000  0.50000000  0.00000000  1
  Ni  Ni1  1  0.50000000  0.00000000  0.00000000  1
  Ni  Ni2  1  0.00000000  0.00000000  0.00000000  1
  O  O0  1  0.23258400  0.76384800  0.77846900  1
  O  O1  1  0.73819300  0.73819300  0.77704900  1
  O  O2  1  0.22379600  0.22379600  0.79588300  1
  O  O3  1  0.76384800  0.23258400  0.77846900  1
  O  O4  1  0.23615200  0.76741600  0.22153100  1
  O  O5  1  0.77620400  0.77620400  0.20411700  1
  O  O6  1  0.26180700  0.26180700  0.22295100  1
  O  O7  1  0.76741600  0.23615200  0.22153100  1
loop_
_geom_bond_atom_site_label_1
_geom_bond_atom_site_label_2
_geom_bond_distance
_geom_bond_site_symmetry_2
Li0 O4 2.123339 1_555
Li0 O3 2.123339 1_455
Li0 O1 2.124334 1_455
Li0 O6 2.124334 1_555
Li0 O2 2.154466 1_555
Li0 O5 2.154466 1_455
Li1 O3 2.111047 1_455
Li1 O0 2.111047 1_545
Li1 O4 2.111047 1_545
Li1 O7 2.111047 1_455
Li1 O1 2.199957 1_445
Li1 O6 2.199957 1_555
Li2 O7 2.123339 1_555
Li2 O0 2.123339 1_545
Li2 O1 2.124334 1_545
Li2 O6 2.124334 1_555
Li2 O2 2.154466 1_555
Li2 O5 2.154466 1_545
Fe0 O1 1.997833 1_554
Fe0 O6 1.997833 1_555
Fe0 O7 2.015661 1_555
Fe0 O4 2.015661 1_555
Fe0 O3 2.015661 1_554
Fe0 O0 2.015661 1_554
Ni0 O5 1.984309 1_455
Ni0 O2 1.984309 1_554
Ni0 O6 1.994299 1_555
Ni0 O1 1.994299 1_454
Ni0 O0 2.086136 1_554
Ni0 O7 2.086136 1_455
Ni1 O5 1.984309 1_545
Ni1 O2 1.984309 1_554
Ni1 O6 1.994299 1_555
Ni1 O1 1.994299 1_544
Ni1 O3 2.086136 1_554
Ni1 O4 2.086136 1_545
Ni2 O2 1.877996 1_554
Ni2 O5 1.877996 1_445
Ni2 O4 1.881721 1_545
Ni2 O7 1.881721 1_455
Ni2 O3 1.881721 1_454
Ni2 O0 1.881721 1_544
