# generated using pymatgen
data_Li6TiMn3(PO4)6
_symmetry_space_group_name_H-M   'P 1'
_cell_length_a   8.62003700
_cell_length_b   8.65660093
_cell_length_c   8.76631981
_cell_angle_alpha   61.44259836
_cell_angle_beta   61.38097025
_cell_angle_gamma   61.40644062
_symmetry_Int_Tables_number   1
_chemical_formula_structural   Li6TiMn3(PO4)6
_chemical_formula_sum   'Li6 Ti1 Mn3 P6 O24'
_cell_volume   477.19925772
_cell_formula_units_Z   1
loop_
 _symmetry_equiv_pos_site_id
 _symmetry_equiv_pos_as_xyz
  1  'x, y, z'
loop_
 _atom_site_type_symbol
 _atom_site_label
 _atom_site_symmetry_multiplicity
 _atom_site_fract_x
 _atom_site_fract_y
 _atom_site_fract_z
 _atom_site_occupancy
  Li  Li0  1  0.00338000  0.98093100  0.97398100  1
  Li  Li1  1  0.64866200  0.83531000  0.25776600  1
  Li  Li2  1  0.50754900  0.49267100  0.52132200  1
  Li  Li3  1  0.34304700  0.15259300  0.71943400  1
  Li  Li4  1  0.15335900  0.71417300  0.34632800  1
  Li  Li5  1  0.72511200  0.34581700  0.14383600  1
  Ti  Ti0  1  0.14868900  0.15125800  0.14869500  1
  Mn  Mn0  1  0.85459400  0.85650700  0.85433500  1
  Mn  Mn1  1  0.64320100  0.63996500  0.64612300  1
  Mn  Mn2  1  0.35411600  0.34678500  0.35028500  1
  P  P0  1  0.55966600  0.24901900  0.94613400  1
  P  P1  1  0.24863400  0.95130600  0.55250200  1
  P  P2  1  0.95572600  0.55162700  0.25161600  1
  P  P3  1  0.04127100  0.45913500  0.75752600  1
  P  P4  1  0.74981000  0.04082900  0.44729700  1
  P  P5  1  0.45930800  0.75570600  0.04874500  1
  O  O0  1  0.49135700  0.73046300  0.87560000  1
  O  O1  1  0.87973300  0.47893200  0.71375800  1
  O  O2  1  0.74278400  0.07810900  0.93433600  1
  O  O3  1  0.70909700  0.88490200  0.44857800  1
  O  O4  1  0.55839100  0.40288200  0.76120200  1
  O  O5  1  0.38839400  0.18373300  0.01556500  1
  O  O6  1  0.09018500  0.92245400  0.73698900  1
  O  O7  1  0.41725700  0.77121300  0.53466600  1
  O  O8  1  0.76189300  0.55545500  0.39696900  1
  O  O9  1  0.99757500  0.61805300  0.81908900  1
  O  O10  1  0.07757000  0.26439600  0.91581300  1
  O  O11  1  0.78988600  0.99382700  0.61716500  1
  O  O12  1  0.18380600  0.01973100  0.38493400  1
  O  O13  1  0.93484000  0.74307700  0.10066000  1
  O  O14  1  0.02335500  0.38690100  0.18068000  1
  O  O15  1  0.23122100  0.44242200  0.59845300  1
  O  O16  1  0.58777400  0.23199100  0.42910600  1
  O  O17  1  0.91383600  0.08262300  0.26152700  1
  O  O18  1  0.61824600  0.80336900  0.03593000  1
  O  O19  1  0.43803000  0.58774700  0.22947700  1
  O  O20  1  0.30589000  0.10250800  0.53917100  1
  O  O21  1  0.26327000  0.91277300  0.08795500  1
  O  O22  1  0.10424400  0.52143000  0.32254400  1
  O  O23  1  0.54424500  0.30837500  0.09390700  1
loop_
_geom_bond_atom_site_label_1
_geom_bond_atom_site_label_2
_geom_bond_distance
_geom_bond_site_symmetry_2
Li0 O13 2.042443 1_456
Li0 O6 2.070282 1_555
Li0 O2 2.129342 1_465
Li0 O21 2.584681 1_556
Li1 O8 2.088539 1_555
Li1 O13 2.128634 1_555
Li1 O3 2.233625 1_555
Li1 O18 2.235826 1_555
Li1 O7 2.304836 1_555
Li2 O4 2.052404 1_555
Li2 O8 2.138960 1_555
Li2 O7 2.195353 1_555
Li2 O15 2.342606 1_555
Li2 O16 2.436971 1_555
Li2 O19 2.562298 1_555
Li3 O20 2.015087 1_555
Li3 O15 2.114034 1_555
Li3 O10 2.199140 1_555
Li3 O16 2.443814 1_555
Li4 O22 2.024826 1_555
Li4 O19 2.088497 1_555
Li4 O21 2.182629 1_555
Li4 O15 2.410028 1_555
Li5 O23 2.000102 1_555
Li5 O16 2.133267 1_555
Li5 O17 2.171311 1_555
Li5 O19 2.415849 1_555
Mn0 O9 1.919692 1_555
Mn0 O2 1.992416 1_565
Mn0 O18 1.996621 1_556
Mn0 O6 2.013765 1_655
Mn0 O11 2.039665 1_555
Mn0 O13 2.204330 1_556
Mn1 O1 2.024662 1_555
Mn1 O0 2.092030 1_555
Mn1 O4 2.124709 1_555
Mn1 O3 2.125389 1_555
Mn1 O7 2.163884 1_555
Mn1 O8 2.241216 1_555
Mn2 O22 2.004354 1_555
Mn2 O20 2.054394 1_555
Mn2 O16 2.069449 1_555
Mn2 O23 2.124161 1_555
Mn2 O19 2.143399 1_555
Mn2 O15 2.283692 1_555
O0 P5 1.511803 1_556
O1 P3 1.528419 1_655
O2 P0 1.563890 1_555
O3 P4 1.542856 1_565
O4 P0 1.530023 1_555
O5 P0 1.574320 1_554
O5 Ti0 1.908598 1_555
O6 P1 1.538738 1_555
O7 P1 1.553697 1_555
O8 P2 1.537626 1_555
O9 P3 1.531261 1_655
O10 P3 1.593665 1_555
O10 Ti0 2.053154 1_556
O11 P4 1.510412 1_565
O12 P1 1.567998 1_545
O12 Ti0 1.921741 1_555
O13 P2 1.541452 1_555
O14 P2 1.569948 1_455
O14 Ti0 1.885222 1_555
O15 P3 1.557350 1_555
O16 P4 1.569531 1_555
O17 P4 1.581976 1_555
O17 Ti0 2.025075 1_655
O18 P5 1.552167 1_555
O19 P5 1.559578 1_555
O20 P1 1.545090 1_545
O21 P5 1.585426 1_555
O21 Ti0 2.028916 1_565
O22 P2 1.542973 1_455
O23 P0 1.538132 1_554
