# generated using pymatgen
data_Cs4GeO4
_symmetry_space_group_name_H-M   'P 1'
_cell_length_a   19.09958205
_cell_length_b   7.14090987
_cell_length_c   7.12764343
_cell_angle_alpha   65.52818820
_cell_angle_beta   90.00000000
_cell_angle_gamma   90.00000000
_symmetry_Int_Tables_number   1
_chemical_formula_structural   Cs4GeO4
_chemical_formula_sum   'Cs16 Ge4 O16'
_cell_volume   884.79691141
_cell_formula_units_Z   4
loop_
 _symmetry_equiv_pos_site_id
 _symmetry_equiv_pos_as_xyz
  1  'x, y, z'
loop_
 _atom_site_type_symbol
 _atom_site_label
 _atom_site_symmetry_multiplicity
 _atom_site_fract_x
 _atom_site_fract_y
 _atom_site_fract_z
 _atom_site_occupancy
  Cs  Cs0  1  0.81346334  0.84069477  0.70903567  1
  Cs  Cs1  1  0.01310874  0.78411371  0.78232043  1
  Cs  Cs2  1  0.21001380  0.66760837  0.80578253  1
  Cs  Cs3  1  0.42663538  0.66741495  0.80994660  1
  Cs  Cs4  1  0.68653666  0.84069477  0.20903567  1
  Cs  Cs5  1  0.48689126  0.78411371  0.28232043  1
  Cs  Cs6  1  0.28998620  0.66760837  0.30578253  1
  Cs  Cs7  1  0.07336462  0.66741495  0.30994660  1
  Cs  Cs8  1  0.92663538  0.33258505  0.69005340  1
  Cs  Cs9  1  0.71001380  0.33239163  0.69421747  1
  Cs  Cs10  1  0.51310874  0.21588629  0.71767957  1
  Cs  Cs11  1  0.31346334  0.15930523  0.79096433  1
  Cs  Cs12  1  0.57336462  0.33258505  0.19005340  1
  Cs  Cs13  1  0.78998620  0.33239163  0.19421747  1
  Cs  Cs14  1  0.98689126  0.21588629  0.21767957  1
  Cs  Cs15  1  0.18653666  0.15930523  0.29096433  1
  Ge  Ge0  1  0.62413847  0.76026944  0.75112849  1
  Ge  Ge1  1  0.87586153  0.76026944  0.25112849  1
  Ge  Ge2  1  0.12413847  0.23973056  0.74887151  1
  Ge  Ge3  1  0.37586153  0.23973056  0.24887151  1
  O  O0  1  0.65708384  0.00054994  0.56963873  1
  O  O1  1  0.56241959  0.79444202  0.92260831  1
  O  O2  1  0.84291616  0.00054994  0.06963873  1
  O  O3  1  0.93758041  0.79444202  0.42260831  1
  O  O4  1  0.69257447  0.60320761  0.91309865  1
  O  O5  1  0.58502489  0.61469052  0.62650663  1
  O  O6  1  0.08502489  0.38530948  0.87349337  1
  O  O7  1  0.80742553  0.60320761  0.41309865  1
  O  O8  1  0.19257447  0.39679239  0.58690135  1
  O  O9  1  0.91497511  0.61469052  0.12650663  1
  O  O10  1  0.41497511  0.38530948  0.37349337  1
  O  O11  1  0.30742553  0.39679239  0.08690135  1
  O  O12  1  0.06241959  0.20555798  0.57739169  1
  O  O13  1  0.15708384  0.99945006  0.93036127  1
  O  O14  1  0.43758041  0.20555798  0.07739169  1
  O  O15  1  0.34291616  0.99945006  0.43036127  1
loop_
_geom_bond_atom_site_label_1
_geom_bond_atom_site_label_2
_geom_bond_distance
_geom_bond_site_symmetry_2
Cs0 O4 2.877341 1_555
Cs0 O0 3.204911 1_565
Cs0 O7 3.209708 1_555
Cs0 O3 3.233472 1_555
Cs0 O2 3.264422 1_566
Cs0 O9 3.352487 1_556
Cs1 O12 2.904425 1_565
Cs1 O3 2.916048 1_455
Cs1 O9 2.921668 1_456
Cs1 O6 2.980914 1_555
Cs2 O11 2.829477 1_556
Cs2 O8 2.963839 1_555
Cs2 O13 3.028031 1_555
Cs2 O6 3.031421 1_555
Cs3 O1 2.965965 1_555
Cs3 O14 3.057143 1_556
Cs3 O11 3.107232 1_556
Cs3 O15 3.191218 1_555
Cs3 O5 3.377989 1_555
Cs4 O7 2.877341 1_555
Cs4 O2 3.204911 1_565
Cs4 O4 3.209708 1_554
Cs4 O1 3.233472 1_554
Cs4 O0 3.264422 1_565
Cs4 O5 3.352487 1_555
Cs5 O14 2.904425 1_565
Cs5 O1 2.916048 1_554
Cs5 O5 2.921668 1_555
Cs5 O10 2.980914 1_555
Cs6 O8 2.829477 1_555
Cs6 O11 2.963839 1_555
Cs6 O15 3.028031 1_555
Cs6 O10 3.031421 1_555
Cs7 O3 2.965965 1_455
Cs7 O12 3.057143 1_555
Cs7 O8 3.107232 1_555
Cs7 O13 3.191218 1_554
Cs7 O9 3.377989 1_455
Cs8 O12 2.965965 1_655
Cs8 O3 3.057143 1_555
Cs8 O7 3.107232 1_555
Cs8 O2 3.191218 1_556
Cs8 O6 3.377989 1_655
Cs9 O7 2.829477 1_555
Cs9 O4 2.963839 1_555
Cs9 O0 3.028031 1_555
Cs9 O5 3.031421 1_555
Cs10 O1 2.904425 1_545
Cs10 O14 2.916048 1_556
Cs10 O10 2.921668 1_555
Cs10 O5 2.980914 1_555
Cs11 O8 2.877341 1_555
Cs11 O13 3.204911 1_545
Cs11 O11 3.209708 1_556
Cs11 O14 3.233472 1_556
Cs11 O15 3.264422 1_545
Cs11 O10 3.352487 1_555
Cs12 O14 2.965965 1_555
Cs12 O1 3.057143 1_554
Cs12 O4 3.107232 1_554
Cs12 O0 3.191218 1_555
Cs12 O10 3.377989 1_555
Cs13 O4 2.829477 1_554
Cs13 O7 2.963839 1_555
Cs13 O2 3.028031 1_555
Cs13 O9 3.031421 1_555
Cs14 O3 2.904425 1_545
Cs14 O12 2.916048 1_655
Cs14 O6 2.921668 1_654
Cs14 O9 2.980914 1_555
Cs15 O11 2.877341 1_555
Cs15 O15 3.204911 1_545
Cs15 O8 3.209708 1_555
Cs15 O12 3.233472 1_555
Cs15 O13 3.264422 1_544
Cs15 O6 3.352487 1_554
Ge0 O0 1.781706 1_565
Ge0 O1 1.786090 1_555
Ge0 O5 1.786848 1_555
Ge0 O4 1.796237 1_555
Ge1 O2 1.781706 1_565
Ge1 O3 1.786090 1_555
Ge1 O9 1.786848 1_555
Ge1 O7 1.796237 1_555
Ge2 O13 1.781706 1_545
Ge2 O12 1.786090 1_555
Ge2 O6 1.786848 1_555
Ge2 O8 1.796237 1_555
Ge3 O15 1.781706 1_545
Ge3 O14 1.786090 1_555
Ge3 O10 1.786848 1_555
Ge3 O11 1.796237 1_555
