# generated using pymatgen
data_Ni17(AsO4)12
_symmetry_space_group_name_H-M   'P 1'
_cell_length_a   10.47168448
_cell_length_b   10.47168448
_cell_length_c   9.74996474
_cell_angle_alpha   89.78309588
_cell_angle_beta   89.78309588
_cell_angle_gamma   124.54395792
_symmetry_Int_Tables_number   1
_chemical_formula_structural   Ni17(AsO4)12
_chemical_formula_sum   'Ni17 As12 O48'
_cell_volume   880.61543569
_cell_formula_units_Z   1
loop_
 _symmetry_equiv_pos_site_id
 _symmetry_equiv_pos_as_xyz
  1  'x, y, z'
loop_
 _atom_site_type_symbol
 _atom_site_label
 _atom_site_symmetry_multiplicity
 _atom_site_fract_x
 _atom_site_fract_y
 _atom_site_fract_z
 _atom_site_occupancy
  Ni  Ni0  1  0.22803200  0.27390100  0.75093900  1
  Ni  Ni1  1  0.37664500  0.62815900  0.75287500  1
  Ni  Ni2  1  0.37225300  0.12244900  0.99737100  1
  Ni  Ni3  1  0.22661000  0.77339000  0.50000000  1
  Ni  Ni4  1  0.72717100  0.27282900  0.00000000  1
  Ni  Ni5  1  0.27222800  0.72777200  0.00000000  1
  Ni  Ni6  1  0.77715600  0.72891300  0.75132900  1
  Ni  Ni7  1  0.27108700  0.22284400  0.24867100  1
  Ni  Ni8  1  0.37602100  0.12514600  0.50175000  1
  Ni  Ni9  1  0.87755100  0.62774700  0.00262900  1
  Ni  Ni10  1  0.37184100  0.62335500  0.24712500  1
  Ni  Ni11  1  0.48816100  0.51183900  0.50000000  1
  Ni  Ni12  1  0.72609900  0.77196800  0.24906100  1
  Ni  Ni13  1  0.87599600  0.12566600  0.24610700  1
  Ni  Ni14  1  0.87485400  0.62397900  0.49825000  1
  Ni  Ni15  1  0.77308300  0.22691700  0.50000000  1
  Ni  Ni16  1  0.87433400  0.12400400  0.75389300  1
  As  As0  1  0.17435500  0.92359600  0.79720200  1
  As  As1  1  0.07640400  0.82564500  0.20279800  1
  As  As2  1  0.07809500  0.32877400  0.04768200  1
  As  As3  1  0.50140600  0.49859400  0.00000000  1
  As  As4  1  0.99998700  0.50075000  0.75111200  1
  As  As5  1  0.49925000  0.00001300  0.24888800  1
  As  As6  1  0.16962100  0.42330400  0.45119500  1
  As  As7  1  0.67122600  0.92190500  0.95231800  1
  As  As8  1  0.67075300  0.41831600  0.29936100  1
  As  As9  1  0.58168400  0.32924700  0.70063900  1
  As  As10  1  0.57669600  0.83037900  0.54880500  1
  As  As11  1  0.99854800  0.00145200  0.50000000  1
  O  O0  1  0.08169700  0.69737300  0.09354700  1
  O  O1  1  0.21928600  0.10176800  0.85511300  1
  O  O2  1  0.30262700  0.91830300  0.90645300  1
  O  O3  1  0.06264800  0.26803000  0.88138000  1
  O  O4  1  0.17818700  0.59059300  0.82776400  1
  O  O5  1  0.06023500  0.76762800  0.37038500  1
  O  O6  1  0.55884600  0.27000200  0.86759500  1
  O  O7  1  0.22120400  0.01467800  0.16407500  1
  O  O8  1  0.38216800  0.46773100  0.86437800  1
  O  O9  1  0.08509300  0.20276900  0.15963500  1
  O  O10  1  0.03290100  0.61980700  0.61415200  1
  O  O11  1  0.40758800  0.31761300  0.07633100  1
  O  O12  1  0.53303400  0.12441200  0.11546800  1
  O  O13  1  0.22370600  0.51734300  0.08504400  1
  O  O14  1  0.48265700  0.77629400  0.91495600  1
  O  O15  1  0.38019300  0.96709900  0.38584800  1
  O  O16  1  0.17890200  0.09280500  0.42456900  1
  O  O17  1  0.87558800  0.46696600  0.88453200  1
  O  O18  1  0.68238700  0.59241200  0.92366900  1
  O  O19  1  0.79723100  0.91490700  0.84036500  1
  O  O20  1  0.31084100  0.41664900  0.35450200  1
  O  O21  1  0.53226900  0.61783200  0.13562200  1
  O  O22  1  0.03281700  0.12258200  0.63641600  1
  O  O23  1  0.23237200  0.93976500  0.62961500  1
  O  O24  1  0.98532200  0.77879600  0.83592500  1
  O  O25  1  0.48037200  0.27588100  0.33818200  1
  O  O26  1  0.72999800  0.44115400  0.13240500  1
  O  O27  1  0.40940700  0.82181300  0.17223600  1
  O  O28  1  0.21134200  0.59689500  0.38937000  1
  O  O29  1  0.71353500  0.09857400  0.89050700  1
  O  O30  1  0.25430300  0.44578800  0.61134800  1
  O  O31  1  0.73197000  0.93735200  0.11862000  1
  O  O32  1  0.41644600  0.31231100  0.62821800  1
  O  O33  1  0.58341700  0.19766200  0.59601300  1
  O  O34  1  0.89823200  0.78071400  0.14488700  1
  O  O35  1  0.68768900  0.58355400  0.37178200  1
  O  O36  1  0.80233800  0.41658300  0.40398700  1
  O  O37  1  0.55421200  0.74569700  0.38865200  1
  O  O38  1  0.90142600  0.28646500  0.10949300  1
  O  O39  1  0.40310500  0.78865800  0.61063000  1
  O  O40  1  0.67779500  0.08493100  0.32726500  1
  O  O41  1  0.72411900  0.51962800  0.66181800  1
  O  O42  1  0.87741800  0.96718300  0.36358400  1
  O  O43  1  0.58335100  0.68915900  0.64549800  1
  O  O44  1  0.90719500  0.82109800  0.57543100  1
  O  O45  1  0.72557800  0.01526700  0.58500900  1
  O  O46  1  0.98473300  0.27442200  0.41499100  1
  O  O47  1  0.91506900  0.32220500  0.67273500  1
loop_
_geom_bond_atom_site_label_1
_geom_bond_atom_site_label_2
_geom_bond_distance
_geom_bond_site_symmetry_2
Ni0 O1 2.021713 1_555
Ni0 O8 2.064810 1_555
Ni0 O22 2.072116 1_555
Ni0 O3 2.117198 1_555
Ni0 O32 2.136523 1_555
Ni0 O30 2.141235 1_555
Ni1 O4 2.016425 1_555
Ni1 O8 2.025910 1_555
Ni1 O14 2.053015 1_555
Ni1 O39 2.067915 1_555
Ni1 O30 2.109771 1_555
Ni1 O43 2.144558 1_555
Ni2 O11 2.015630 1_556
Ni2 O12 2.033843 1_556
Ni2 O2 2.034451 1_545
Ni2 O1 2.040152 1_555
Ni2 O6 2.085407 1_555
Ni2 O7 2.087952 1_556
Ni3 O15 2.051718 1_555
Ni3 O10 2.051718 1_555
Ni3 O39 2.070303 1_555
Ni3 O28 2.070303 1_555
Ni3 O5 2.129335 1_555
Ni3 O23 2.129335 1_555
Ni4 O12 2.049881 1_555
Ni4 O17 2.049881 1_554
Ni4 O38 2.051867 1_555
Ni4 O29 2.051867 1_554
Ni4 O26 2.175471 1_555
Ni4 O6 2.175471 1_554
Ni5 O2 2.043946 1_554
Ni5 O0 2.043946 1_555
Ni5 O4 2.068773 1_554
Ni5 O27 2.068773 1_555
Ni5 O13 2.124745 1_555
Ni5 O14 2.124745 1_554
Ni6 O19 2.034958 1_555
Ni6 O44 2.050953 1_555
Ni6 O18 2.052299 1_555
Ni6 O43 2.101838 1_555
Ni6 O24 2.104864 1_555
Ni6 O41 2.123880 1_555
Ni7 O9 2.034958 1_555
Ni7 O16 2.050953 1_555
Ni7 O11 2.052299 1_555
Ni7 O20 2.101838 1_555
Ni7 O7 2.104864 1_555
Ni7 O25 2.123880 1_555
Ni8 O15 2.028243 1_545
Ni8 O16 2.040260 1_555
Ni8 O25 2.059262 1_555
Ni8 O23 2.059432 1_545
Ni8 O33 2.070764 1_555
Ni8 O32 2.149954 1_555
Ni9 O18 2.015630 1_554
Ni9 O17 2.033843 1_554
Ni9 O0 2.034451 1_655
Ni9 O34 2.040152 1_555
Ni9 O26 2.085407 1_555
Ni9 O24 2.087952 1_554
Ni10 O27 2.016425 1_555
Ni10 O21 2.025910 1_555
Ni10 O13 2.053015 1_555
Ni10 O28 2.067915 1_555
Ni10 O37 2.109771 1_555
Ni10 O20 2.144558 1_555
Ni11 O43 2.094154 1_555
Ni11 O20 2.094154 1_555
Ni11 O35 2.164714 1_555
Ni11 O32 2.164714 1_555
Ni11 O37 2.389003 1_555
Ni11 O30 2.389003 1_555
Ni12 O34 2.021713 1_555
Ni12 O21 2.064810 1_555
Ni12 O42 2.072116 1_555
Ni12 O31 2.117198 1_555
Ni12 O35 2.136523 1_555
Ni12 O37 2.141235 1_555
Ni13 O42 2.019935 1_545
Ni13 O40 2.024046 1_555
Ni13 O9 2.032980 1_655
Ni13 O38 2.037697 1_555
Ni13 O31 2.090028 1_545
Ni13 O46 2.111036 1_555
Ni14 O10 2.028243 1_655
Ni14 O44 2.040260 1_555
Ni14 O41 2.059262 1_555
Ni14 O5 2.059432 1_655
Ni14 O36 2.070764 1_555
Ni14 O35 2.149954 1_555
Ni15 O36 2.051484 1_555
Ni15 O33 2.051484 1_555
Ni15 O40 2.095684 1_555
Ni15 O47 2.095684 1_555
Ni15 O45 2.139900 1_555
Ni15 O46 2.139900 1_555
Ni16 O22 2.019935 1_655
Ni16 O47 2.024046 1_555
Ni16 O19 2.032980 1_545
Ni16 O29 2.037697 1_555
Ni16 O3 2.090028 1_655
Ni16 O45 2.111036 1_555
As0 O23 1.715036 1_555
As0 O24 1.716442 1_455
As0 O1 1.742322 1_565
As0 O2 1.742635 1_555
As1 O5 1.715036 1_555
As1 O7 1.716442 1_565
As1 O34 1.742322 1_455
As1 O0 1.742635 1_555
As2 O13 1.718117 1_555
As2 O3 1.718415 1_554
As2 O9 1.742763 1_555
As2 O38 1.744150 1_455
As3 O8 1.723399 1_554
As3 O21 1.723399 1_555
As3 O11 1.727137 1_555
As3 O18 1.727137 1_554
As4 O4 1.717765 1_655
As4 O10 1.718398 1_655
As4 O17 1.724914 1_555
As4 O47 1.732291 1_555
As5 O27 1.717765 1_545
As5 O15 1.718398 1_545
As5 O12 1.724914 1_555
As5 O40 1.732291 1_555
As6 O46 1.699956 1_455
As6 O28 1.716872 1_555
As6 O30 1.748288 1_555
As6 O20 1.785312 1_555
As7 O14 1.718117 1_555
As7 O31 1.718415 1_556
As7 O19 1.742763 1_555
As7 O29 1.744150 1_565
As8 O26 1.706754 1_555
As8 O25 1.720527 1_555
As8 O36 1.725818 1_555
As8 O35 1.785000 1_555
As9 O6 1.706754 1_555
As9 O41 1.720527 1_555
As9 O33 1.725818 1_555
As9 O32 1.785000 1_555
As10 O45 1.699956 1_565
As10 O39 1.716872 1_555
As10 O37 1.748288 1_555
As10 O43 1.785312 1_555
As11 O16 1.719912 1_655
As11 O44 1.719912 1_545
As11 O42 1.734046 1_545
As11 O22 1.734046 1_655
