# generated using pymatgen
data_Li4Fe5P6WO24
_symmetry_space_group_name_H-M   'P 1'
_cell_length_a   8.49226800
_cell_length_b   8.65805847
_cell_length_c   8.67987376
_cell_angle_alpha   62.81701115
_cell_angle_beta   63.57486137
_cell_angle_gamma   63.62300710
_symmetry_Int_Tables_number   1
_chemical_formula_structural   Li4Fe5P6WO24
_chemical_formula_sum   'Li4 Fe5 P6 W1 O24'
_cell_volume   484.57839479
_cell_formula_units_Z   1
loop_
 _symmetry_equiv_pos_site_id
 _symmetry_equiv_pos_as_xyz
  1  'x, y, z'
loop_
 _atom_site_type_symbol
 _atom_site_label
 _atom_site_symmetry_multiplicity
 _atom_site_fract_x
 _atom_site_fract_y
 _atom_site_fract_z
 _atom_site_occupancy
  Li  Li0  1  0.74479400  0.15256800  0.35371900  1
  Li  Li1  1  0.29376700  0.84098300  0.64219900  1
  Li  Li2  1  0.63510500  0.29738200  0.84731800  1
  Li  Li3  1  0.84579800  0.64342400  0.29673200  1
  Fe  Fe0  1  0.01701000  0.00465600  0.00410400  1
  Fe  Fe1  1  0.35100000  0.35443300  0.34970000  1
  Fe  Fe2  1  0.48860700  0.50440800  0.49798300  1
  Fe  Fe3  1  0.14844200  0.15099900  0.14921100  1
  Fe  Fe4  1  0.65237100  0.65323100  0.65484600  1
  P  P0  1  0.05622000  0.74580200  0.44329900  1
  P  P1  1  0.44142100  0.05250700  0.74578900  1
  P  P2  1  0.74645500  0.44024800  0.05342800  1
  P  P3  1  0.24984900  0.54670900  0.95004800  1
  P  P4  1  0.55699600  0.95238200  0.25170500  1
  P  P5  1  0.93943300  0.24611300  0.54465900  1
  W  W0  1  0.85338500  0.85019300  0.85533800  1
  O  O0  1  0.46844600  0.89993400  0.68340900  1
  O  O1  1  0.67992600  0.46937400  0.90201100  1
  O  O2  1  0.90447900  0.67200800  0.47654700  1
  O  O3  1  0.05457900  0.90964000  0.26419600  1
  O  O4  1  0.01126600  0.80773700  0.60569800  1
  O  O5  1  0.24828500  0.60078300  0.43099000  1
  O  O6  1  0.25198200  0.07784500  0.89352500  1
  O  O7  1  0.46071800  0.23140000  0.58638200  1
  O  O8  1  0.16724700  0.40642000  0.98918500  1
  O  O9  1  0.60286200  0.42888300  0.24524200  1
  O  O10  1  0.10362500  0.75146800  0.91231900  1
  O  O11  1  0.40178300  0.00533900  0.18146900  1
  O  O12  1  0.59960200  0.99587600  0.82681400  1
  O  O13  1  0.89694800  0.25170000  0.07755500  1
  O  O14  1  0.40451500  0.56330800  0.75855900  1
  O  O15  1  0.81178100  0.60493600  0.00541800  1
  O  O16  1  0.56525600  0.76090400  0.40657700  1
  O  O17  1  0.75884600  0.91106600  0.10227400  1
  O  O18  1  0.74931500  0.40207800  0.57111200  1
  O  O19  1  0.95051900  0.17785600  0.40541300  1
  O  O20  1  0.91620300  0.09539700  0.74633400  1
  O  O21  1  0.10627500  0.29536300  0.50451200  1
  O  O22  1  0.30986800  0.52355200  0.10114700  1
  O  O23  1  0.55502000  0.09809700  0.30623600  1
loop_
_geom_bond_atom_site_label_1
_geom_bond_atom_site_label_2
_geom_bond_distance
_geom_bond_site_symmetry_2
Li0 O19 2.104492 1_555
Li0 O23 2.105638 1_555
Li0 O9 2.110104 1_555
Li0 O13 2.121573 1_555
Li0 O7 2.413320 1_555
Li0 O3 2.589550 1_645
Li1 O0 1.975054 1_555
Li1 O14 2.074199 1_555
Li1 O10 2.187984 1_555
Li1 O16 2.378524 1_555
Li2 O1 1.974355 1_555
Li2 O18 2.058172 1_555
Li2 O20 2.313849 1_555
Li2 O14 2.333502 1_555
Li3 O2 1.974934 1_555
Li3 O16 2.081039 1_555
Li3 O17 2.186142 1_555
Li3 O18 2.438699 1_555
Fe0 O6 2.041505 1_554
Fe0 O3 2.141532 1_545
Fe0 O13 2.179587 1_455
Fe0 O17 2.339700 1_445
Fe0 O10 2.371174 1_544
Fe0 O20 2.420179 1_454
Fe1 O21 2.053612 1_555
Fe1 O22 2.061664 1_555
Fe1 O9 2.185720 1_555
Fe1 O23 2.199164 1_555
Fe1 O5 2.232066 1_555
Fe1 O7 2.246257 1_555
Fe2 O5 2.073493 1_555
Fe2 O7 2.215988 1_555
Fe2 O9 2.243651 1_555
Fe2 O18 2.254714 1_555
Fe2 O14 2.275578 1_555
Fe2 O16 2.280328 1_555
Fe3 O11 2.024900 1_555
Fe3 O8 2.038429 1_554
Fe3 O19 2.150076 1_455
Fe3 O13 2.177322 1_455
Fe3 O3 2.205618 1_545
Fe3 O6 2.269862 1_554
Fe4 O2 2.033610 1_555
Fe4 O1 2.046191 1_555
Fe4 O0 2.058695 1_555
Fe4 O14 2.230746 1_555
Fe4 O16 2.242950 1_555
Fe4 O18 2.292418 1_555
O0 P1 1.537647 1_565
O1 P2 1.530237 1_556
O2 P0 1.544069 1_655
O3 P0 1.554357 1_555
O4 P0 1.565257 1_555
O4 W0 2.081342 1_455
O5 P0 1.547917 1_555
O6 P1 1.545284 1_555
O7 P1 1.551113 1_555
O8 P3 1.500262 1_555
O9 P2 1.555168 1_555
O10 P3 1.633260 1_555
O10 W0 2.103931 1_455
O11 P4 1.497375 1_545
O12 P1 1.574828 1_565
O12 W0 2.017738 1_555
O13 P2 1.553766 1_555
O14 P3 1.585816 1_555
O15 P2 1.571229 1_555
O15 W0 2.015056 1_554
O16 P4 1.582657 1_555
O17 P4 1.627516 1_555
O17 W0 2.154279 1_554
O18 P5 1.580827 1_555
O19 P5 1.523421 1_555
O20 P5 1.624905 1_555
O20 W0 2.099691 1_545
O21 P5 1.507443 1_455
O22 P3 1.511292 1_554
O23 P4 1.528295 1_545
