# generated using pymatgen
data_BiOF
_symmetry_space_group_name_H-M   'P 1'
_cell_length_a   3.94908200
_cell_length_b   8.34661500
_cell_length_c   12.42451420
_cell_angle_alpha   70.86738472
_cell_angle_beta   90.00000000
_cell_angle_gamma   90.00000000
_symmetry_Int_Tables_number   1
_chemical_formula_structural   BiOF
_chemical_formula_sum   'Bi8 O8 F8'
_cell_volume   386.90878704
_cell_formula_units_Z   8
loop_
 _symmetry_equiv_pos_site_id
 _symmetry_equiv_pos_as_xyz
  1  'x, y, z'
loop_
 _atom_site_type_symbol
 _atom_site_label
 _atom_site_symmetry_multiplicity
 _atom_site_fract_x
 _atom_site_fract_y
 _atom_site_fract_z
 _atom_site_occupancy
  Bi  Bi0  1  0.75000000  0.91294900  0.87801500  1
  Bi  Bi1  1  0.25000000  0.82786000  0.59383400  1
  Bi  Bi2  1  0.75000000  0.67888700  0.33734300  1
  Bi  Bi3  1  0.75000000  0.44694200  0.87459200  1
  Bi  Bi4  1  0.25000000  0.55305800  0.12540800  1
  Bi  Bi5  1  0.25000000  0.32111300  0.66265700  1
  Bi  Bi6  1  0.75000000  0.17214000  0.40616600  1
  Bi  Bi7  1  0.25000000  0.08705100  0.12198500  1
  O  O0  1  0.75000000  0.88703000  0.49613400  1
  O  O1  1  0.75000000  0.64821000  0.98925200  1
  O  O2  1  0.25000000  0.75091500  0.23655400  1
  O  O3  1  0.25000000  0.50077400  0.75622200  1
  O  O4  1  0.75000000  0.49922600  0.24377800  1
  O  O5  1  0.75000000  0.24908500  0.76344600  1
  O  O6  1  0.25000000  0.35179000  0.01074800  1
  O  O7  1  0.25000000  0.11297000  0.50386600  1
  F  F0  1  0.25000000  0.90076000  0.98801900  1
  F  F1  1  0.25000000  0.98596900  0.75571500  1
  F  F2  1  0.75000000  0.75761600  0.75284200  1
  F  F3  1  0.25000000  0.62523800  0.49983800  1
  F  F4  1  0.75000000  0.37476200  0.50016200  1
  F  F5  1  0.25000000  0.24238400  0.24715800  1
  F  F6  1  0.75000000  0.01403100  0.24428500  1
  F  F7  1  0.75000000  0.09924000  0.01198100  1
loop_
_geom_bond_atom_site_label_1
_geom_bond_atom_site_label_2
_geom_bond_distance
_geom_bond_site_symmetry_2
Bi0 O1 2.188810 1_555
Bi0 F2 2.328379 1_555
Bi0 F0 2.384536 1_555
Bi0 F0 2.384536 1_655
Bi0 F1 2.443794 1_555
Bi0 F1 2.443794 1_655
Bi0 F7 2.623863 1_566
Bi0 O5 2.698098 1_565
Bi1 O7 2.273497 1_565
Bi1 O0 2.285440 1_455
Bi1 O0 2.285440 1_555
Bi1 F3 2.349204 1_555
Bi1 F2 2.717769 1_455
Bi1 F2 2.717769 1_555
Bi1 F1 2.743489 1_555
Bi1 O3 2.813051 1_555
Bi2 O4 2.177798 1_555
Bi2 O2 2.309737 1_655
Bi2 O2 2.309737 1_555
Bi2 F6 2.653619 1_565
Bi2 F4 2.677641 1_555
Bi2 F3 2.753680 1_555
Bi2 F3 2.753680 1_655
Bi3 O3 2.414635 1_555
Bi3 O3 2.414635 1_655
Bi3 O5 2.475709 1_555
Bi3 O1 2.533834 1_555
Bi3 F2 2.537915 1_555
Bi3 O6 2.551592 1_556
Bi3 O6 2.551592 1_656
Bi4 O4 2.414635 1_455
Bi4 O4 2.414635 1_555
Bi4 O2 2.475709 1_555
Bi4 O6 2.533834 1_555
Bi4 F5 2.537915 1_555
Bi4 O1 2.551592 1_554
Bi4 O1 2.551592 1_454
Bi5 O3 2.177798 1_555
Bi5 O5 2.309737 1_555
Bi5 O5 2.309737 1_455
Bi5 F1 2.653619 1_545
Bi5 F3 2.677641 1_555
Bi5 F4 2.753680 1_555
Bi5 F4 2.753680 1_455
Bi6 O0 2.273497 1_545
Bi6 O7 2.285440 1_555
Bi6 O7 2.285440 1_655
Bi6 F4 2.349204 1_555
Bi6 F5 2.717769 1_555
Bi6 F5 2.717769 1_655
Bi6 F6 2.743489 1_555
Bi6 O4 2.813051 1_555
Bi7 O6 2.188810 1_555
Bi7 F5 2.328379 1_555
Bi7 F7 2.384536 1_555
Bi7 F7 2.384536 1_455
Bi7 F6 2.443794 1_555
Bi7 F6 2.443794 1_455
Bi7 F0 2.623863 1_544
Bi7 O2 2.698098 1_545
