# generated using pymatgen
data_La2Th2O7
_symmetry_space_group_name_H-M   'P 1'
_cell_length_a   3.99280100
_cell_length_b   3.99280100
_cell_length_c   11.45443900
_cell_angle_alpha   90.00000000
_cell_angle_beta   90.00000000
_cell_angle_gamma   90.00000000
_symmetry_Int_Tables_number   1
_chemical_formula_structural   La2Th2O7
_chemical_formula_sum   'La2 Th2 O7'
_cell_volume   182.61193358
_cell_formula_units_Z   1
loop_
 _symmetry_equiv_pos_site_id
 _symmetry_equiv_pos_as_xyz
  1  'x, y, z'
loop_
 _atom_site_type_symbol
 _atom_site_label
 _atom_site_symmetry_multiplicity
 _atom_site_fract_x
 _atom_site_fract_y
 _atom_site_fract_z
 _atom_site_occupancy
  La  La0  1  0.50000000  0.00000000  0.85818600  1
  La  La1  1  0.00000000  0.50000000  0.14181400  1
  Th  Th0  1  0.50000000  0.00000000  0.37740200  1
  Th  Th1  1  0.00000000  0.50000000  0.62259800  1
  O  O0  1  0.50000000  0.50000000  0.00000000  1
  O  O1  1  0.00000000  0.00000000  0.24553100  1
  O  O2  1  0.50000000  0.50000000  0.26319100  1
  O  O3  1  0.00000000  0.00000000  0.50000000  1
  O  O4  1  0.50000000  0.50000000  0.50000000  1
  O  O5  1  0.00000000  0.00000000  0.75446900  1
  O  O6  1  0.50000000  0.50000000  0.73680900  1
loop_
_geom_bond_atom_site_label_1
_geom_bond_atom_site_label_2
_geom_bond_distance
_geom_bond_site_symmetry_2
La0 O5 2.323146 1_555
La0 O5 2.323146 1_655
La0 O6 2.432810 1_545
La0 O6 2.432810 1_555
La0 O0 2.573770 1_556
La0 O0 2.573770 1_546
La1 O1 2.323146 1_555
La1 O1 2.323146 1_565
La1 O2 2.432810 1_555
La1 O2 2.432810 1_455
La1 O0 2.573770 1_455
La1 O0 2.573770 1_555
O1 Th0 2.503448 1_455
O1 Th0 2.503448 1_555
O2 Th0 2.386852 1_555
O2 Th0 2.386852 1_565
O3 Th0 2.440830 1_455
O3 Th0 2.440830 1_555
O3 Th1 2.440830 1_545
O3 Th1 2.440830 1_555
O4 Th1 2.440830 1_655
O4 Th1 2.440830 1_555
O4 Th0 2.440830 1_555
O4 Th0 2.440830 1_565
O5 Th1 2.503448 1_555
O5 Th1 2.503448 1_545
O6 Th1 2.386852 1_655
O6 Th1 2.386852 1_555
