# generated using pymatgen
data_NaCoO2
_symmetry_space_group_name_H-M   'P 1'
_cell_length_a   5.51009716
_cell_length_b   6.33435302
_cell_length_c   5.50559407
_cell_angle_alpha   90.00746029
_cell_angle_beta   61.71633629
_cell_angle_gamma   90.00714279
_symmetry_Int_Tables_number   1
_chemical_formula_structural   NaCoO2
_chemical_formula_sum   'Na4 Co4 O8'
_cell_volume   169.21955349
_cell_formula_units_Z   4
loop_
 _symmetry_equiv_pos_site_id
 _symmetry_equiv_pos_as_xyz
  1  'x, y, z'
loop_
 _atom_site_type_symbol
 _atom_site_label
 _atom_site_symmetry_multiplicity
 _atom_site_fract_x
 _atom_site_fract_y
 _atom_site_fract_z
 _atom_site_occupancy
  Na  Na0  1  0.24994400  0.12669000  0.00000200  1
  Na  Na1  1  0.74999800  0.12664500  0.49995500  1
  Na  Na2  1  0.75001600  0.87329000  0.99995600  1
  Na  Na3  1  0.24995500  0.87332000  0.50000400  1
  Co  Co0  1  0.75011300  0.62206900  0.50009300  1
  Co  Co1  1  0.24982600  0.37791800  0.49983800  1
  Co  Co2  1  0.25016200  0.62204600  0.00012400  1
  Co  Co3  1  0.74978000  0.37793100  0.99981100  1
  O  O0  1  0.49966700  0.58010600  0.24972100  1
  O  O1  1  0.99974300  0.58010700  0.74971800  1
  O  O2  1  0.50046200  0.41994000  0.75046700  1
  O  O3  1  0.00045200  0.41992900  0.25046400  1
  O  O4  1  0.50019000  0.17486600  0.25015000  1
  O  O5  1  0.00022800  0.17483000  0.75019800  1
  O  O6  1  0.49974600  0.82514400  0.74978400  1
  O  O7  1  0.99972000  0.82516600  0.24971700  1
loop_
_geom_bond_atom_site_label_1
_geom_bond_atom_site_label_2
_geom_bond_distance
_geom_bond_site_symmetry_2
Na0 O3 2.333469 1_555
Na0 O2 2.333711 1_554
Na0 O7 2.375444 1_445
Na0 O6 2.375677 1_544
Na0 O5 2.381456 1_554
Na0 O4 2.385494 1_555
Na1 O3 2.333697 1_655
Na1 O2 2.333912 1_555
Na1 O7 2.375235 1_545
Na1 O6 2.375564 1_545
Na1 O4 2.381958 1_555
Na1 O5 2.385871 1_655
Na2 O1 2.333203 1_555
Na2 O0 2.333478 1_556
Na2 O5 2.375577 1_665
Na2 O4 2.375830 1_566
Na2 O7 2.381185 1_556
Na2 O6 2.385695 1_555
Na3 O1 2.333302 1_455
Na3 O0 2.333411 1_555
Na3 O5 2.375327 1_565
Na3 O4 2.375807 1_565
Na3 O6 2.381724 1_555
Na3 O7 2.386076 1_455
Co0 O3 1.906429 1_655
Co0 O2 1.906507 1_555
Co0 O7 1.910543 1_555
Co0 O6 1.910600 1_555
Co0 O1 2.375511 1_555
Co0 O0 2.382777 1_555
Co1 O0 1.906617 1_555
Co1 O1 1.906623 1_455
Co1 O5 1.910452 1_555
Co1 O4 1.910489 1_555
Co1 O3 2.373164 1_555
Co1 O2 2.384919 1_555
Co2 O2 1.906261 1_554
Co2 O3 1.906508 1_555
Co2 O6 1.910424 1_554
Co2 O7 1.910746 1_455
Co2 O0 2.374776 1_555
Co2 O1 2.382793 1_454
Co3 O0 1.906689 1_556
Co3 O1 1.906771 1_555
Co3 O4 1.910294 1_556
Co3 O5 1.910719 1_655
Co3 O2 2.372758 1_555
Co3 O3 2.385184 1_656
