# generated using pymatgen
data_SrLiLa7(CoO8)2
_symmetry_space_group_name_H-M   'P 1'
_cell_length_a   6.89290600
_cell_length_b   7.57074884
_cell_length_c   7.57322261
_cell_angle_alpha   90.30466310
_cell_angle_beta   105.83193331
_cell_angle_gamma   105.83761206
_symmetry_Int_Tables_number   1
_chemical_formula_structural   SrLiLa7(CoO8)2
_chemical_formula_sum   'Sr1 Li1 La7 Co2 O16'
_cell_volume   364.41848637
_cell_formula_units_Z   1
loop_
 _symmetry_equiv_pos_site_id
 _symmetry_equiv_pos_as_xyz
  1  'x, y, z'
loop_
 _atom_site_type_symbol
 _atom_site_label
 _atom_site_symmetry_multiplicity
 _atom_site_fract_x
 _atom_site_fract_y
 _atom_site_fract_z
 _atom_site_occupancy
  Sr  Sr0  1  0.72195800  0.93450300  0.42718700  1
  Li  Li0  1  0.99503900  0.74962700  0.74804800  1
  La  La0  1  0.72579600  0.42666300  0.93572400  1
  La  La1  1  0.26098200  0.07073800  0.55844200  1
  La  La2  1  0.72323500  0.93620000  0.93719200  1
  La  La3  1  0.28007500  0.56609100  0.56727200  1
  La  La4  1  0.73482400  0.42718500  0.42816800  1
  La  La5  1  0.26789400  0.07156100  0.06980700  1
  La  La6  1  0.27181600  0.56353000  0.07384200  1
  Co  Co0  1  0.00183900  0.25097700  0.75103100  1
  Co  Co1  1  0.00103200  0.74959000  0.24997800  1
  O  O0  1  0.00132700  0.25543300  0.99311500  1
  O  O1  1  0.00436800  0.00859300  0.75135100  1
  O  O2  1  0.32193800  0.33154500  0.83148400  1
  O  O3  1  0.67560300  0.17366100  0.67356300  1
  O  O4  1  0.00434200  0.49469800  0.75512300  1
  O  O5  1  0.00738000  0.25135200  0.51068100  1
  O  O6  1  0.36349800  0.83865400  0.84259000  1
  O  O7  1  0.63804700  0.64877700  0.67106100  1
  O  O8  1  0.37765400  0.34585500  0.34355200  1
  O  O9  1  0.62233700  0.16799900  0.14136600  1
  O  O10  1  0.00501700  0.75056200  0.49400500  1
  O  O11  1  0.00229700  0.50751400  0.24554500  1
  O  O12  1  0.31575300  0.82748400  0.32818200  1
  O  O13  1  0.67277100  0.66348500  0.16358000  1
  O  O14  1  0.00261900  0.99185400  0.25149600  1
  O  O15  1  0.00055800  0.74587500  0.00661800  1
loop_
_geom_bond_atom_site_label_1
_geom_bond_atom_site_label_2
_geom_bond_distance
_geom_bond_site_symmetry_2
Li0 O10 1.943796 1_655
Li0 O1 1.943803 1_665
Li0 O15 1.948684 1_656
Li0 O4 1.949018 1_655
Li0 O7 2.272654 1_555
Li0 O6 2.342135 1_655
La0 O0 2.525039 1_655
La0 O11 2.533849 1_656
La0 O2 2.567444 1_555
La0 O9 2.577790 1_556
La0 O15 2.578494 1_656
La0 O4 2.592858 1_655
La0 O3 2.636928 1_555
La0 O13 2.644763 1_556
La0 O7 2.672162 1_555
La1 O5 2.453811 1_555
La1 O14 2.465304 1_545
La1 O10 2.531795 1_545
La1 O1 2.539190 1_555
La1 O3 2.636823 1_555
La1 O12 2.698056 1_545
La1 O2 2.716751 1_555
La1 O8 2.733007 1_555
La1 O6 2.847016 1_545
La2 O6 2.287528 1_555
La2 O14 2.568509 1_656
La2 O0 2.590812 1_665
La2 O1 2.636850 1_665
La2 O15 2.640034 1_656
La2 O9 2.679240 1_566
La2 O13 2.700799 1_556
La2 O3 2.707120 1_565
La2 O7 2.784263 1_555
La3 O7 2.278492 1_555
La3 O5 2.549412 1_555
La3 O10 2.594695 1_555
La3 O11 2.603629 1_555
La3 O4 2.617462 1_555
La3 O2 2.691190 1_555
La3 O12 2.696422 1_555
La3 O8 2.703131 1_555
La3 O6 2.754727 1_555
La4 O8 2.271231 1_555
La4 O5 2.534839 1_655
La4 O11 2.543622 1_655
La4 O10 2.588923 1_655
La4 O4 2.608055 1_655
La4 O3 2.707134 1_555
La4 O9 2.715608 1_555
La4 O13 2.717837 1_555
La4 O7 2.809026 1_555
La5 O9 2.257308 1_555
La5 O14 2.525922 1_545
La5 O1 2.543240 1_554
La5 O0 2.544338 1_554
La5 O15 2.594330 1_545
La5 O2 2.697196 1_554
La5 O12 2.714982 1_545
La5 O8 2.724602 1_555
La5 O6 2.779416 1_544
La6 O11 2.493190 1_555
La6 O0 2.505952 1_554
La6 O13 2.549695 1_555
La6 O4 2.555555 1_554
La6 O15 2.560835 1_555
La6 O12 2.665637 1_555
La6 O2 2.686199 1_554
La6 O8 2.701676 1_555
La6 O6 2.780137 1_554
Co0 O5 1.831014 1_555
Co0 O0 1.834471 1_555
Co0 O1 1.839870 1_555
Co0 O4 1.840533 1_555
Co0 O2 2.034573 1_555
Co0 O3 2.074028 1_455
Co1 O14 1.831121 1_555
Co1 O11 1.835268 1_555
Co1 O10 1.840712 1_555
Co1 O15 1.842182 1_555
Co1 O12 2.000390 1_555
Co1 O13 2.086943 1_455
O1 Sr0 2.629199 1_445
O3 Sr0 2.732574 1_545
O5 Sr0 2.598802 1_445
O7 Sr0 2.892633 1_555
O9 Sr0 2.859038 1_545
O10 Sr0 2.637028 1_455
O12 Sr0 2.582264 1_555
O13 Sr0 2.741848 1_555
O14 Sr0 2.579454 1_455
