# generated using pymatgen
data_Li5BO4
_symmetry_space_group_name_H-M   'P 1'
_cell_length_a   4.57480800
_cell_length_b   5.97488400
_cell_length_c   6.09052100
_cell_angle_alpha   90.00000000
_cell_angle_beta   90.00000000
_cell_angle_gamma   90.00000000
_symmetry_Int_Tables_number   1
_chemical_formula_structural   Li5BO4
_chemical_formula_sum   'Li10 B2 O8'
_cell_volume   166.47797896
_cell_formula_units_Z   2
loop_
 _symmetry_equiv_pos_site_id
 _symmetry_equiv_pos_as_xyz
  1  'x, y, z'
loop_
 _atom_site_type_symbol
 _atom_site_label
 _atom_site_symmetry_multiplicity
 _atom_site_fract_x
 _atom_site_fract_y
 _atom_site_fract_z
 _atom_site_occupancy
  Li  Li0  1  0.25810200  0.76012000  0.80198600  1
  Li  Li1  1  0.25810200  0.23988000  0.80198600  1
  Li  Li2  1  0.82223400  0.50000000  0.00000000  1
  Li  Li3  1  0.25810200  0.76012000  0.19801400  1
  Li  Li4  1  0.25810200  0.23988000  0.19801400  1
  Li  Li5  1  0.74189800  0.73988000  0.30198600  1
  Li  Li6  1  0.74189800  0.26012000  0.30198600  1
  Li  Li7  1  0.17776600  0.00000000  0.50000000  1
  Li  Li8  1  0.74189800  0.73988000  0.69801400  1
  Li  Li9  1  0.74189800  0.26012000  0.69801400  1
  B  B0  1  0.77929000  0.00000000  0.00000000  1
  B  B1  1  0.22071000  0.50000000  0.50000000  1
  O  O0  1  0.96679300  0.00000000  0.79170700  1
  O  O1  1  0.59516200  0.78727500  0.00000000  1
  O  O2  1  0.59516200  0.21272500  0.00000000  1
  O  O3  1  0.96679300  0.00000000  0.20829300  1
  O  O4  1  0.03320700  0.50000000  0.29170700  1
  O  O5  1  0.40483800  0.71272500  0.50000000  1
  O  O6  1  0.40483800  0.28727500  0.50000000  1
  O  O7  1  0.03320700  0.50000000  0.70829300  1
loop_
_geom_bond_atom_site_label_1
_geom_bond_atom_site_label_2
_geom_bond_distance
_geom_bond_site_symmetry_2
Li0 O7 1.949272 1_555
Li0 O0 1.958107 1_465
Li0 O1 1.964306 1_556
Li0 O5 1.978299 1_555
Li1 O7 1.949272 1_555
Li1 O0 1.958107 1_455
Li1 O2 1.964306 1_556
Li1 O6 1.978299 1_555
Li2 O1 2.006309 1_555
Li2 O2 2.006309 1_555
Li2 O4 2.021883 1_655
Li2 O7 2.021883 1_654
Li3 O4 1.949272 1_555
Li3 O3 1.958107 1_465
Li3 O1 1.964306 1_555
Li3 O5 1.978299 1_555
Li4 O4 1.949272 1_555
Li4 O3 1.958107 1_455
Li4 O2 1.964306 1_555
Li4 O6 1.978299 1_555
Li5 O3 1.949272 1_565
Li5 O4 1.958107 1_655
Li5 O5 1.964306 1_555
Li5 O1 1.978299 1_555
Li6 O3 1.949272 1_555
Li6 O4 1.958107 1_655
Li6 O6 1.964306 1_555
Li6 O2 1.978299 1_555
Li7 O6 2.006309 1_555
Li7 O5 2.006309 1_545
Li7 O0 2.021883 1_455
Li7 O3 2.021883 1_455
Li8 O0 1.949272 1_565
Li8 O7 1.958107 1_655
Li8 O5 1.964306 1_555
Li8 O1 1.978299 1_556
Li9 O0 1.949272 1_555
Li9 O7 1.958107 1_655
Li9 O6 1.964306 1_555
Li9 O2 1.978299 1_556
B0 O2 1.524799 1_555
B0 O1 1.524799 1_545
B0 O3 1.531399 1_555
B0 O0 1.531399 1_554
B1 O5 1.524799 1_555
B1 O6 1.524799 1_555
B1 O7 1.531399 1_555
B1 O4 1.531399 1_555
