# generated using pymatgen
data_Li2Co2(CO3)3
_symmetry_space_group_name_H-M   'P 1'
_cell_length_a   7.44234300
_cell_length_b   7.46001302
_cell_length_c   7.51294975
_cell_angle_alpha   108.90649075
_cell_angle_beta   108.99343315
_cell_angle_gamma   107.36795128
_symmetry_Int_Tables_number   1
_chemical_formula_structural   Li2Co2(CO3)3
_chemical_formula_sum   'Li4 Co4 C6 O18'
_cell_volume   332.91679167
_cell_formula_units_Z   2
loop_
 _symmetry_equiv_pos_site_id
 _symmetry_equiv_pos_as_xyz
  1  'x, y, z'
loop_
 _atom_site_type_symbol
 _atom_site_label
 _atom_site_symmetry_multiplicity
 _atom_site_fract_x
 _atom_site_fract_y
 _atom_site_fract_z
 _atom_site_occupancy
  Li  Li0  1  0.68972700  0.15538900  0.38955000  1
  Li  Li1  1  0.41349200  0.69359900  0.19407200  1
  Li  Li2  1  0.15720400  0.16183100  0.15010900  1
  Li  Li3  1  0.18792700  0.43544400  0.71283100  1
  Co  Co0  1  0.96510200  0.84795600  0.46436300  1
  Co  Co1  1  0.58059500  0.56012300  0.58092000  1
  Co  Co2  1  0.84947300  0.46517900  0.96316300  1
  Co  Co3  1  0.46691100  0.96496900  0.84731900  1
  C  C0  1  0.75465000  0.84259700  0.07610200  1
  C  C1  1  0.59976100  0.41322300  0.19089000  1
  C  C2  1  0.82923100  0.06574500  0.74327900  1
  C  C3  1  0.19339200  0.59552500  0.41528600  1
  C  C4  1  0.40932200  0.19438500  0.59701900  1
  C  C5  1  0.07486500  0.75614400  0.84192700  1
  O  O0  1  0.95071700  0.94812600  0.21929900  1
  O  O1  1  0.61645700  0.91447000  0.09824500  1
  O  O2  1  0.60470800  0.30063900  0.02108100  1
  O  O3  1  0.64387000  0.61151400  0.24678500  1
  O  O4  1  0.89399600  0.08281000  0.60258200  1
  O  O5  1  0.55149400  0.32911300  0.30381900  1
  O  O6  1  0.91134900  0.69459000  0.66562400  1
  O  O7  1  0.65542600  0.90575700  0.68605700  1
  O  O8  1  0.30676400  0.53725000  0.33390100  1
  O  O9  1  0.94044800  0.21449200  0.93851500  1
  O  O10  1  0.60841400  0.25390600  0.63701000  1
  O  O11  1  0.32142200  0.30901600  0.55353400  1
  O  O12  1  0.68997100  0.66398100  0.91352200  1
  O  O13  1  0.30382500  0.02342300  0.60033400  1
  O  O14  1  0.02538500  0.60306200  0.29948500  1
  O  O15  1  0.24740700  0.64859100  0.61419200  1
  O  O16  1  0.22064700  0.94993300  0.94723000  1
  O  O17  1  0.09755200  0.61872000  0.91325600  1
loop_
_geom_bond_atom_site_label_1
_geom_bond_atom_site_label_2
_geom_bond_distance
_geom_bond_site_symmetry_2
Li0 O5 2.014554 1_555
Li0 O1 2.099124 1_545
Li0 O10 2.115467 1_555
Li0 O4 2.152928 1_555
Li1 O3 1.952818 1_555
Li1 O8 1.969529 1_555
Li1 O1 2.346415 1_555
Li1 O17 2.348394 1_554
Li2 O9 2.097046 1_454
Li2 O16 2.097050 1_544
Li2 O0 2.183527 1_445
Li2 O8 2.370971 1_555
Li2 O5 2.485137 1_555
Li2 O11 2.552784 1_555
Li3 O15 1.957150 1_555
Li3 O11 1.977579 1_555
Li3 O17 2.112630 1_555
Li3 O4 2.522822 1_455
Co0 O4 2.039643 1_565
Co0 O14 2.111361 1_655
Co0 O3 2.137516 1_555
Co0 O13 2.144540 1_665
Co0 O0 2.184214 1_555
Co0 O6 2.235388 1_555
Co1 O5 2.123568 1_555
Co1 O12 2.133500 1_555
Co1 O6 2.136138 1_555
Co1 O11 2.146314 1_555
Co1 O8 2.179866 1_555
Co1 O7 2.262498 1_555
Co1 O10 2.507640 1_555
Co2 O17 2.080320 1_655
Co2 O14 2.124864 1_656
Co2 O2 2.131083 1_556
Co2 O9 2.145511 1_555
Co2 O10 2.157456 1_555
Co2 O12 2.206585 1_555
Co3 O1 2.068673 1_556
Co3 O15 2.112730 1_555
Co3 O13 2.116809 1_565
Co3 O2 2.122121 1_566
Co3 O7 2.181966 1_555
Co3 O16 2.182299 1_555
C0 O0 1.284485 1_555
C0 O12 1.295675 1_554
C0 O1 1.325033 1_555
C1 O5 1.285065 1_555
C1 O2 1.299611 1_555
C1 O3 1.300037 1_555
C2 O7 1.290855 1_545
C2 O9 1.294037 1_555
C2 O4 1.322159 1_555
C3 O8 1.287367 1_555
C3 O15 1.296939 1_555
C3 O14 1.299643 1_555
C4 O11 1.281361 1_555
C4 O13 1.295821 1_555
C4 O10 1.309152 1_555
C5 O16 1.287119 1_555
C5 O6 1.291996 1_455
C5 O17 1.329348 1_555
