# generated using pymatgen
data_Li4Cr2Si4O13
_symmetry_space_group_name_H-M   'P 1'
_cell_length_a   5.00001500
_cell_length_b   13.71204900
_cell_length_c   14.06537800
_cell_angle_alpha   90.00000000
_cell_angle_beta   90.00000000
_cell_angle_gamma   90.00000000
_symmetry_Int_Tables_number   1
_chemical_formula_structural   Li4Cr2Si4O13
_chemical_formula_sum   'Li16 Cr8 Si16 O52'
_cell_volume   964.32865467
_cell_formula_units_Z   4
loop_
 _symmetry_equiv_pos_site_id
 _symmetry_equiv_pos_as_xyz
  1  'x, y, z'
loop_
 _atom_site_type_symbol
 _atom_site_label
 _atom_site_symmetry_multiplicity
 _atom_site_fract_x
 _atom_site_fract_y
 _atom_site_fract_z
 _atom_site_occupancy
  Li  Li0  1  0.17497900  0.04217000  0.22122800  1
  Li  Li1  1  0.66136200  0.10928700  0.92091200  1
  Li  Li2  1  0.64714500  0.13404700  0.10935500  1
  Li  Li3  1  0.25120100  0.21060900  0.83775900  1
  Li  Li4  1  0.75120100  0.28939100  0.33775900  1
  Li  Li5  1  0.14714500  0.36595300  0.60935500  1
  Li  Li6  1  0.16136200  0.39071300  0.42091200  1
  Li  Li7  1  0.67497900  0.45783000  0.72122800  1
  Li  Li8  1  0.32502100  0.54217000  0.22122800  1
  Li  Li9  1  0.83863800  0.60928700  0.92091200  1
  Li  Li10  1  0.85285500  0.63404700  0.10935500  1
  Li  Li11  1  0.24879900  0.71060900  0.83775900  1
  Li  Li12  1  0.74879900  0.78939100  0.33775900  1
  Li  Li13  1  0.35285500  0.86595300  0.60935500  1
  Li  Li14  1  0.33863800  0.89071300  0.42091200  1
  Li  Li15  1  0.82502100  0.95783000  0.72122800  1
  Cr  Cr0  1  0.35736600  0.07951500  0.62595100  1
  Cr  Cr1  1  0.17880300  0.17113200  0.42222700  1
  Cr  Cr2  1  0.67880300  0.32886800  0.92222700  1
  Cr  Cr3  1  0.85736600  0.42048500  0.12595100  1
  Cr  Cr4  1  0.14263400  0.57951500  0.62595100  1
  Cr  Cr5  1  0.32119700  0.67113200  0.42222700  1
  Cr  Cr6  1  0.82119700  0.82886800  0.92222700  1
  Cr  Cr7  1  0.64263400  0.92048500  0.12595100  1
  Si  Si0  1  0.15236200  0.02083800  0.00087600  1
  Si  Si1  1  0.68445100  0.06086900  0.31701500  1
  Si  Si2  1  0.84766200  0.18969700  0.72900900  1
  Si  Si3  1  0.17190600  0.22693000  0.04592700  1
  Si  Si4  1  0.67190600  0.27307000  0.54592700  1
  Si  Si5  1  0.34766200  0.31030300  0.22900900  1
  Si  Si6  1  0.18445100  0.43913100  0.81701500  1
  Si  Si7  1  0.65236200  0.47916200  0.50087600  1
  Si  Si8  1  0.34763800  0.52083800  0.00087600  1
  Si  Si9  1  0.81554900  0.56086900  0.31701500  1
  Si  Si10  1  0.65233800  0.68969700  0.72900900  1
  Si  Si11  1  0.32809400  0.72693000  0.04592700  1
  Si  Si12  1  0.82809400  0.77307000  0.54592700  1
  Si  Si13  1  0.15233800  0.81030300  0.22900900  1
  Si  Si14  1  0.31554900  0.93913100  0.81701500  1
  Si  Si15  1  0.84763800  0.97916200  0.50087600  1
  O  O0  1  0.42902000  0.02508800  0.05936200  1
  O  O1  1  0.76662800  0.03395800  0.20708600  1
  O  O2  1  0.21966000  0.03344500  0.88611500  1
  O  O3  1  0.05868900  0.06705300  0.52065200  1
  O  O4  1  0.36660000  0.07496200  0.33767900  1
  O  O5  1  0.67439800  0.09252300  0.70730300  1
  O  O6  1  0.98832900  0.12554700  0.02496700  1
  O  O7  1  0.85879100  0.15603400  0.34451000  1
  O  O8  1  0.16430700  0.17653300  0.70585300  1
  O  O9  1  0.47488600  0.18132400  0.52540300  1
  O  O10  1  0.24419900  0.21689200  0.16037300  1
  O  O11  1  0.82029300  0.21727800  0.84216700  1
  O  O12  1  0.44780000  0.21902100  0.98513400  1
  O  O13  1  0.94780000  0.28097900  0.48513400  1
  O  O14  1  0.32029300  0.28272200  0.34216700  1
  O  O15  1  0.74419900  0.28310800  0.66037300  1
  O  O16  1  0.97488600  0.31867600  0.02540300  1
  O  O17  1  0.66430700  0.32346700  0.20585300  1
  O  O18  1  0.35879100  0.34396600  0.84451000  1
  O  O19  1  0.48832900  0.37445300  0.52496700  1
  O  O20  1  0.17439800  0.40747700  0.20730300  1
  O  O21  1  0.86660000  0.42503800  0.83767900  1
  O  O22  1  0.55868900  0.43294700  0.02065200  1
  O  O23  1  0.71966000  0.46655500  0.38611500  1
  O  O24  1  0.26662800  0.46604200  0.70708600  1
  O  O25  1  0.92902000  0.47491200  0.55936200  1
  O  O26  1  0.07098000  0.52508800  0.05936200  1
  O  O27  1  0.73337200  0.53395800  0.20708600  1
  O  O28  1  0.28034000  0.53344500  0.88611500  1
  O  O29  1  0.44131100  0.56705300  0.52065200  1
  O  O30  1  0.13340000  0.57496200  0.33767900  1
  O  O31  1  0.82560200  0.59252300  0.70730300  1
  O  O32  1  0.51167100  0.62554700  0.02496700  1
  O  O33  1  0.64120900  0.65603400  0.34451000  1
  O  O34  1  0.33569300  0.67653300  0.70585300  1
  O  O35  1  0.02511400  0.68132400  0.52540300  1
  O  O36  1  0.25580100  0.71689200  0.16037300  1
  O  O37  1  0.67970700  0.71727800  0.84216700  1
  O  O38  1  0.05220000  0.71902100  0.98513400  1
  O  O39  1  0.55220000  0.78097900  0.48513400  1
  O  O40  1  0.17970700  0.78272200  0.34216700  1
  O  O41  1  0.75580100  0.78310800  0.66037300  1
  O  O42  1  0.52511400  0.81867600  0.02540300  1
  O  O43  1  0.83569300  0.82346700  0.20585300  1
  O  O44  1  0.14120900  0.84396600  0.84451000  1
  O  O45  1  0.01167100  0.87445300  0.52496700  1
  O  O46  1  0.32560200  0.90747700  0.20730300  1
  O  O47  1  0.63340000  0.92503800  0.83767900  1
  O  O48  1  0.94131100  0.93294700  0.02065200  1
  O  O49  1  0.78034000  0.96655500  0.38611500  1
  O  O50  1  0.23337200  0.96604200  0.70708600  1
  O  O51  1  0.57098000  0.97491200  0.55936200  1
loop_
_geom_bond_atom_site_label_1
_geom_bond_atom_site_label_2
_geom_bond_distance
_geom_bond_site_symmetry_2
Li0 O4 1.950117 1_555
Li0 O46 2.004158 1_545
Li0 O1 2.054516 1_455
Li0 O10 2.567543 1_555
Li1 O11 2.012688 1_555
Li1 O12 2.054323 1_555
Li1 O6 2.205551 1_556
Li1 O2 2.489696 1_555
Li1 O0 2.544547 1_556
Li2 O0 1.978916 1_555
Li2 O1 2.032252 1_555
Li2 O6 2.081493 1_555
Li2 O12 2.324617 1_554
Li2 O10 2.421680 1_555
Li3 O18 1.908449 1_555
Li3 O8 1.961952 1_555
Li3 O11 2.157377 1_455
Li3 O12 2.297051 1_555
Li3 O2 2.527623 1_555
Li4 O7 1.908449 1_555
Li4 O17 1.961952 1_555
Li4 O14 2.157377 1_555
Li4 O13 2.297051 1_555
Li4 O23 2.527623 1_555
Li5 O25 1.978916 1_455
Li5 O24 2.032252 1_555
Li5 O19 2.081493 1_555
Li5 O13 2.324617 1_455
Li5 O15 2.421680 1_455
Li6 O14 2.012688 1_555
Li6 O13 2.054323 1_455
Li6 O19 2.205551 1_555
Li6 O23 2.489696 1_455
Li6 O25 2.544547 1_455
Li7 O21 1.950117 1_555
Li7 O31 2.004158 1_555
Li7 O24 2.054516 1_555
Li7 O15 2.567543 1_555
Li8 O30 1.950117 1_555
Li8 O20 2.004158 1_555
Li8 O27 2.054516 1_555
Li8 O36 2.567543 1_555
Li9 O37 2.012688 1_555
Li9 O38 2.054323 1_655
Li9 O32 2.205551 1_556
Li9 O28 2.489696 1_655
Li9 O26 2.544547 1_656
Li10 O26 1.978916 1_655
Li10 O27 2.032252 1_555
Li10 O32 2.081493 1_555
Li10 O38 2.324617 1_654
Li10 O36 2.421680 1_655
Li11 O44 1.908449 1_555
Li11 O34 1.961952 1_555
Li11 O37 2.157377 1_555
Li11 O38 2.297051 1_555
Li11 O28 2.527623 1_555
Li12 O33 1.908449 1_555
Li12 O43 1.961952 1_555
Li12 O40 2.157377 1_655
Li12 O39 2.297051 1_555
Li12 O49 2.527623 1_555
Li13 O51 1.978916 1_555
Li13 O50 2.032252 1_555
Li13 O45 2.081493 1_555
Li13 O39 2.324617 1_555
Li13 O41 2.421680 1_555
Li14 O40 2.012688 1_555
Li14 O39 2.054323 1_555
Li14 O45 2.205551 1_555
Li14 O49 2.489696 1_555
Li14 O51 2.544547 1_555
Li15 O47 1.950117 1_555
Li15 O5 2.004158 1_565
Li15 O50 2.054516 1_655
Li15 O41 2.567543 1_555
Cr0 O5 1.963126 1_555
Cr0 O8 1.991126 1_555
Cr0 O51 2.018732 1_545
Cr0 O50 2.026737 1_545
Cr0 O9 2.072248 1_555
Cr0 O3 2.110209 1_555
Cr1 O7 1.948840 1_455
Cr1 O4 2.008689 1_555
Cr1 O14 2.027270 1_555
Cr1 O3 2.076999 1_555
Cr1 O9 2.077783 1_555
Cr1 O13 2.094201 1_455
Cr2 O18 1.948840 1_555
Cr2 O21 2.008689 1_555
Cr2 O11 2.027270 1_555
Cr2 O22 2.076999 1_556
Cr2 O16 2.077783 1_556
Cr2 O12 2.094201 1_555
Cr3 O20 1.963126 1_655
Cr3 O17 1.991126 1_555
Cr3 O26 2.018732 1_655
Cr3 O27 2.026737 1_555
Cr3 O16 2.072248 1_555
Cr3 O22 2.110209 1_555
Cr4 O31 1.963126 1_455
Cr4 O34 1.991126 1_555
Cr4 O25 2.018732 1_455
Cr4 O24 2.026737 1_555
Cr4 O35 2.072248 1_555
Cr4 O29 2.110209 1_555
Cr5 O33 1.948840 1_555
Cr5 O30 2.008689 1_555
Cr5 O40 2.027270 1_555
Cr5 O29 2.076999 1_555
Cr5 O35 2.077783 1_555
Cr5 O39 2.094201 1_555
Cr6 O44 1.948840 1_655
Cr6 O47 2.008689 1_555
Cr6 O37 2.027270 1_555
Cr6 O48 2.076999 1_556
Cr6 O42 2.077783 1_556
Cr6 O38 2.094201 1_655
Cr7 O46 1.963126 1_555
Cr7 O43 1.991126 1_555
Cr7 O0 2.018732 1_565
Cr7 O1 2.026737 1_565
Cr7 O42 2.072248 1_555
Cr7 O48 2.110209 1_555
O0 Si0 1.610470 1_555
O1 Si1 1.641860 1_555
O2 Si0 1.657894 1_556
O2 Si14 1.687293 1_545
O3 Si15 1.625843 1_445
O4 Si1 1.627134 1_555
O5 Si2 1.618382 1_555
O6 Si0 1.687881 1_655
O6 Si3 1.691745 1_655
O7 Si1 1.616232 1_555
O8 Si2 1.626431 1_455
O9 Si4 1.623697 1_555
O10 Si3 1.655543 1_555
O10 Si5 1.685286 1_555
O11 Si2 1.641639 1_555
O12 Si3 1.626612 1_556
O13 Si4 1.626612 1_555
O14 Si5 1.641639 1_555
O15 Si4 1.655543 1_555
O15 Si2 1.685286 1_555
O16 Si3 1.623697 1_655
O17 Si5 1.626431 1_555
O18 Si6 1.616232 1_555
O19 Si7 1.687881 1_555
O19 Si4 1.691745 1_555
O20 Si5 1.618382 1_555
O21 Si6 1.627134 1_655
O22 Si8 1.625843 1_555
O23 Si7 1.657894 1_555
O23 Si9 1.687293 1_555
O24 Si6 1.641860 1_555
O25 Si7 1.610470 1_555
O26 Si8 1.610470 1_555
O27 Si9 1.641860 1_555
O28 Si8 1.657894 1_556
O28 Si6 1.687293 1_555
O29 Si7 1.625843 1_555
O30 Si9 1.627134 1_455
O31 Si10 1.618382 1_555
O32 Si8 1.687881 1_555
O32 Si11 1.691745 1_555
O33 Si9 1.616232 1_555
O34 Si10 1.626431 1_555
O35 Si12 1.623697 1_455
O36 Si11 1.655543 1_555
O36 Si13 1.685286 1_555
O37 Si10 1.641639 1_555
O38 Si11 1.626612 1_556
O39 Si12 1.626612 1_555
O40 Si13 1.641639 1_555
O41 Si12 1.655543 1_555
O41 Si10 1.685286 1_555
O42 Si11 1.623697 1_555
O43 Si13 1.626431 1_655
O44 Si14 1.616232 1_555
O45 Si15 1.687881 1_455
O45 Si12 1.691745 1_455
O46 Si13 1.618382 1_555
O47 Si14 1.627134 1_555
O48 Si0 1.625843 1_665
O49 Si15 1.657894 1_555
O49 Si1 1.687293 1_565
O50 Si14 1.641860 1_555
O51 Si15 1.610470 1_555
