# generated using pymatgen
data_Ba3As2H14S8O7
_symmetry_space_group_name_H-M   'P 1'
_cell_length_a   12.90625200
_cell_length_b   12.75455500
_cell_length_c   16.81156713
_cell_angle_alpha   49.48878725
_cell_angle_beta   90.00000000
_cell_angle_gamma   90.00000000
_symmetry_Int_Tables_number   1
_chemical_formula_structural   Ba3As2H14S8O7
_chemical_formula_sum   'Ba12 As8 H56 S32 O28'
_cell_volume   2104.00400586
_cell_formula_units_Z   4
loop_
 _symmetry_equiv_pos_site_id
 _symmetry_equiv_pos_as_xyz
  1  'x, y, z'
loop_
 _atom_site_type_symbol
 _atom_site_label
 _atom_site_symmetry_multiplicity
 _atom_site_fract_x
 _atom_site_fract_y
 _atom_site_fract_z
 _atom_site_occupancy
  Ba  Ba0  1  0.76372400  0.04318200  0.62332000  1
  Ba  Ba1  1  0.73627600  0.04318200  0.12332000  1
  Ba  Ba2  1  0.23627600  0.95681800  0.37668000  1
  Ba  Ba3  1  0.26372400  0.95681800  0.87668000  1
  Ba  Ba4  1  0.61956500  0.67381200  0.06727200  1
  Ba  Ba5  1  0.88043500  0.67381200  0.56727200  1
  Ba  Ba6  1  0.38043500  0.32618800  0.93272800  1
  Ba  Ba7  1  0.11956500  0.32618800  0.43272800  1
  Ba  Ba8  1  0.97702300  0.69424300  0.09680000  1
  Ba  Ba9  1  0.52297700  0.69424300  0.59680000  1
  Ba  Ba10  1  0.02297700  0.30575700  0.90320000  1
  Ba  Ba11  1  0.47702300  0.30575700  0.40320000  1
  As  As0  1  0.74685400  0.53565200  0.36302900  1
  As  As1  1  0.75314600  0.53565200  0.86302900  1
  As  As2  1  0.25314600  0.46434800  0.63697100  1
  As  As3  1  0.24685400  0.46434800  0.13697100  1
  As  As4  1  0.75848800  0.03761800  0.87436300  1
  As  As5  1  0.74151200  0.03761800  0.37436300  1
  As  As6  1  0.24151200  0.96238200  0.12563700  1
  As  As7  1  0.25848800  0.96238200  0.62563700  1
  H  H0  1  0.50755500  0.91434900  0.68065300  1
  H  H1  1  0.99244500  0.91434900  0.18065300  1
  H  H2  1  0.49244500  0.08565100  0.31934700  1
  H  H3  1  0.00755500  0.08565100  0.81934700  1
  H  H4  1  0.59307000  0.80804800  0.75510900  1
  H  H5  1  0.90693000  0.80804800  0.25510900  1
  H  H6  1  0.40693000  0.19195200  0.24489100  1
  H  H7  1  0.09307000  0.19195200  0.74489100  1
  H  H8  1  0.00431300  0.90940900  0.67215500  1
  H  H9  1  0.49568700  0.90940900  0.17215500  1
  H  H10  1  0.99568700  0.09059100  0.32784500  1
  H  H11  1  0.50431300  0.09059100  0.82784500  1
  H  H12  1  0.93298400  0.79398100  0.76962100  1
  H  H13  1  0.56701600  0.79398100  0.26962100  1
  H  H14  1  0.06701600  0.20601900  0.23037900  1
  H  H15  1  0.43298400  0.20601900  0.73037900  1
  H  H16  1  0.41899400  0.71184900  0.93996100  1
  H  H17  1  0.08100600  0.71184900  0.43996100  1
  H  H18  1  0.58100600  0.28815100  0.06003900  1
  H  H19  1  0.91899400  0.28815100  0.56003900  1
  H  H20  1  0.48665600  0.84023900  0.85337800  1
  H  H21  1  0.01334400  0.84023900  0.35337800  1
  H  H22  1  0.51334400  0.15976100  0.14662200  1
  H  H23  1  0.98665600  0.15976100  0.64662200  1
  H  H24  1  0.09936900  0.73381100  0.91314300  1
  H  H25  1  0.40063100  0.73381100  0.41314300  1
  H  H26  1  0.90063100  0.26618900  0.08685700  1
  H  H27  1  0.59936900  0.26618900  0.58685700  1
  H  H28  1  0.02760400  0.85995000  0.83990300  1
  H  H29  1  0.47239600  0.85995000  0.33990300  1
  H  H30  1  0.97239600  0.14005000  0.16009700  1
  H  H31  1  0.52760400  0.14005000  0.66009700  1
  H  H32  1  0.49475900  0.40098900  0.16439400  1
  H  H33  1  0.00524100  0.40098900  0.66439400  1
  H  H34  1  0.50524100  0.59901100  0.83560600  1
  H  H35  1  0.99475900  0.59901100  0.33560600  1
  H  H36  1  0.60368500  0.32693200  0.21746600  1
  H  H37  1  0.89631500  0.32693200  0.71746600  1
  H  H38  1  0.39631500  0.67306800  0.78253400  1
  H  H39  1  0.10368500  0.67306800  0.28253400  1
  H  H40  1  0.99204300  0.36348100  0.24247100  1
  H  H41  1  0.50795700  0.36348100  0.74247100  1
  H  H42  1  0.00795700  0.63651900  0.75752900  1
  H  H43  1  0.49204300  0.63651900  0.25752900  1
  H  H44  1  0.90170400  0.35441500  0.31253700  1
  H  H45  1  0.59829600  0.35441500  0.81253700  1
  H  H46  1  0.09829600  0.64558500  0.68746300  1
  H  H47  1  0.40170400  0.64558500  0.18746300  1
  H  H48  1  0.82635700  0.54712900  0.04118200  1
  H  H49  1  0.67364300  0.54712900  0.54118200  1
  H  H50  1  0.17364300  0.45287100  0.95881800  1
  H  H51  1  0.32635700  0.45287100  0.45881800  1
  H  H52  1  0.79834900  0.43750700  0.15901800  1
  H  H53  1  0.70165100  0.43750700  0.65901800  1
  H  H54  1  0.20165100  0.56249300  0.84098200  1
  H  H55  1  0.29834900  0.56249300  0.34098200  1
  S  S0  1  0.74009500  0.35408000  0.37537000  1
  S  S1  1  0.75990500  0.35408000  0.87537000  1
  S  S2  1  0.25990500  0.64592000  0.62463000  1
  S  S3  1  0.24009500  0.64592000  0.12463000  1
  S  S4  1  0.77088000  0.72402100  0.19912200  1
  S  S5  1  0.72912000  0.72402100  0.69912200  1
  S  S6  1  0.22912000  0.27597900  0.80087800  1
  S  S7  1  0.27088000  0.27597900  0.30087800  1
  S  S8  1  0.59636100  0.55261100  0.41494400  1
  S  S9  1  0.90363900  0.55261100  0.91494400  1
  S  S10  1  0.40363900  0.44738900  0.58505600  1
  S  S11  1  0.09636100  0.44738900  0.08505600  1
  S  S12  1  0.87593400  0.52251500  0.45417800  1
  S  S13  1  0.62406600  0.52251500  0.95417800  1
  S  S14  1  0.12406600  0.47748500  0.54582200  1
  S  S15  1  0.37593400  0.47748500  0.04582200  1
  S  S16  1  0.78139900  0.86170600  0.88164900  1
  S  S17  1  0.71860100  0.86170600  0.38164900  1
  S  S18  1  0.21860100  0.13829400  0.11835100  1
  S  S19  1  0.28139900  0.13829400  0.61835100  1
  S  S20  1  0.75910000  0.22745300  0.71051900  1
  S  S21  1  0.74090000  0.22745300  0.21051900  1
  S  S22  1  0.24090000  0.77254700  0.28948100  1
  S  S23  1  0.25910000  0.77254700  0.78948100  1
  S  S24  1  0.61692300  0.01163200  0.95733100  1
  S  S25  1  0.88307700  0.01163200  0.45733100  1
  S  S26  1  0.38307700  0.98836800  0.04266900  1
  S  S27  1  0.11692300  0.98836800  0.54266900  1
  S  S28  1  0.89256100  0.03237000  0.95856800  1
  S  S29  1  0.60743900  0.03237000  0.45856800  1
  S  S30  1  0.10743900  0.96763000  0.04143200  1
  S  S31  1  0.39256100  0.96763000  0.54143200  1
  O  O0  1  0.55737900  0.89099300  0.73463300  1
  O  O1  1  0.94262100  0.89099300  0.23463300  1
  O  O2  1  0.44262100  0.10900700  0.26536700  1
  O  O3  1  0.05737900  0.10900700  0.76536700  1
  O  O4  1  0.95307800  0.89221300  0.72402200  1
  O  O5  1  0.54692200  0.89221300  0.22402200  1
  O  O6  1  0.04692200  0.10778700  0.27597800  1
  O  O7  1  0.45307800  0.10778700  0.77597800  1
  O  O8  1  0.45297700  0.79452600  0.92222500  1
  O  O9  1  0.04702300  0.79452600  0.42222500  1
  O  O10  1  0.54702300  0.20547400  0.07777500  1
  O  O11  1  0.95297700  0.20547400  0.57777500  1
  O  O12  1  0.06944300  0.81127400  0.90463400  1
  O  O13  1  0.43055700  0.81127400  0.40463400  1
  O  O14  1  0.93055700  0.18872600  0.09536600  1
  O  O15  1  0.56944300  0.18872600  0.59536600  1
  O  O16  1  0.54969900  0.38672200  0.21273400  1
  O  O17  1  0.95030100  0.38672200  0.71273400  1
  O  O18  1  0.45030100  0.61327800  0.78726600  1
  O  O19  1  0.04969900  0.61327800  0.28726600  1
  O  O20  1  0.97314500  0.38833200  0.28503000  1
  O  O21  1  0.52685500  0.38833200  0.78503000  1
  O  O22  1  0.02685500  0.61166800  0.71497000  1
  O  O23  1  0.47314500  0.61166800  0.21497000  1
  O  O24  1  0.81001400  0.53819200  0.10311100  1
  O  O25  1  0.68998600  0.53819200  0.60311100  1
  O  O26  1  0.18998600  0.46180800  0.89688900  1
  O  O27  1  0.31001400  0.46180800  0.39688900  1
loop_
_geom_bond_atom_site_label_1
_geom_bond_atom_site_label_2
_geom_bond_distance
_geom_bond_site_symmetry_2
Ba0 O4 2.882886 1_545
Ba0 O11 2.962754 1_555
Ba0 O15 2.969972 1_555
Ba0 S16 3.348229 1_545
Ba0 S5 3.413917 1_545
Ba0 S0 3.423171 1_555
Ba0 S25 3.432310 1_555
Ba0 S29 3.500744 1_555
Ba1 O5 2.882886 1_545
Ba1 O10 2.962754 1_555
Ba1 O14 2.969972 1_555
Ba1 S17 3.348229 1_545
Ba1 S4 3.413917 1_545
Ba1 S1 3.423171 1_554
Ba1 S24 3.432310 1_554
Ba1 S28 3.500744 1_554
Ba2 O6 2.882886 1_565
Ba2 O9 2.962754 1_555
Ba2 O13 2.969972 1_555
Ba2 S18 3.348229 1_565
Ba2 S7 3.413917 1_565
Ba2 S2 3.423171 1_555
Ba2 S27 3.432310 1_555
Ba2 S31 3.500744 1_555
Ba3 O7 2.882886 1_565
Ba3 O8 2.962754 1_555
Ba3 O12 2.969972 1_555
Ba3 S19 3.348229 1_565
Ba3 S6 3.413917 1_565
Ba3 S3 3.423171 1_556
Ba3 S26 3.432310 1_556
Ba3 S30 3.500744 1_556
Ba4 O23 2.794254 1_555
Ba4 O24 2.835980 1_555
Ba4 O8 2.839293 1_554
Ba4 O16 2.927069 1_555
Ba4 S16 3.182437 1_554
Ba4 S4 3.313835 1_555
Ba4 S24 3.411173 1_564
Ba4 S13 3.479771 1_554
Ba5 O22 2.794254 1_655
Ba5 O25 2.835980 1_555
Ba5 O9 2.839293 1_655
Ba5 O17 2.927069 1_555
Ba5 S17 3.182437 1_555
Ba5 S5 3.313835 1_555
Ba5 S25 3.411173 1_565
Ba5 S12 3.479771 1_555
Ba6 O21 2.794254 1_555
Ba6 O26 2.835980 1_555
Ba6 O10 2.839293 1_556
Ba6 O18 2.927069 1_555
Ba6 S18 3.182437 1_556
Ba6 S6 3.313835 1_555
Ba6 S26 3.411173 1_546
Ba6 S15 3.479771 1_556
Ba7 O20 2.794254 1_455
Ba7 O27 2.835980 1_555
Ba7 O11 2.839293 1_455
Ba7 O19 2.927069 1_555
Ba7 S19 3.182437 1_555
Ba7 S7 3.313835 1_555
Ba7 S27 3.411173 1_545
Ba7 S14 3.479771 1_555
Ba8 O12 2.796900 1_654
Ba8 O19 2.811270 1_655
Ba8 O24 2.888676 1_555
Ba8 S4 3.321230 1_555
Ba8 S30 3.411949 1_655
Ba8 S3 3.428121 1_655
Ba8 S28 3.488133 1_564
Ba8 S16 3.739299 1_554
Ba9 O13 2.796900 1_555
Ba9 O18 2.811270 1_555
Ba9 O25 2.888676 1_555
Ba9 S5 3.321230 1_555
Ba9 S31 3.411949 1_555
Ba9 S2 3.428121 1_555
Ba9 S29 3.488133 1_565
Ba9 S17 3.739299 1_555
Ba10 O14 2.796900 1_456
Ba10 O17 2.811270 1_455
Ba10 O26 2.888676 1_555
Ba10 S6 3.321230 1_555
Ba10 S28 3.411949 1_455
Ba10 S1 3.428121 1_455
Ba10 S30 3.488133 1_546
Ba10 S18 3.739299 1_556
Ba11 O15 2.796900 1_555
Ba11 O16 2.811270 1_555
Ba11 O27 2.888676 1_555
Ba11 S7 3.321230 1_555
Ba11 S29 3.411949 1_555
Ba11 S0 3.428121 1_555
Ba11 S31 3.488133 1_545
Ba11 S19 3.739299 1_555
As0 S0 2.188533 1_555
As0 S12 2.194988 1_555
As0 S8 2.196888 1_555
As0 S4 2.204613 1_555
As1 S1 2.188533 1_555
As1 S13 2.194988 1_555
As1 S9 2.196888 1_555
As1 S5 2.204613 1_555
As2 S2 2.188533 1_555
As2 S14 2.194988 1_555
As2 S10 2.196888 1_555
As2 S6 2.204613 1_555
As3 S3 2.188533 1_555
As3 S15 2.194988 1_555
As3 S11 2.196888 1_555
As3 S7 2.204613 1_555
As4 S16 2.186203 1_545
As4 S20 2.187460 1_555
As4 S24 2.189283 1_555
As4 S28 2.208973 1_555
As5 S17 2.186203 1_545
As5 S21 2.187460 1_555
As5 S25 2.189283 1_555
As5 S29 2.208973 1_555
As6 S18 2.186203 1_565
As6 S22 2.187460 1_555
As6 S26 2.189283 1_555
As6 S30 2.208973 1_555
As7 S19 2.186203 1_565
As7 S23 2.187460 1_555
As7 S27 2.189283 1_555
As7 S31 2.208973 1_555
H0 O0 0.987198 1_555
H1 O1 0.987198 1_555
H2 O2 0.987198 1_555
H3 O3 0.987198 1_555
H4 O0 0.988311 1_555
H5 O1 0.988311 1_555
H6 O2 0.988311 1_555
H7 O3 0.988311 1_555
H8 O4 0.998607 1_455
H9 O5 0.998607 1_555
H10 O6 0.998607 1_655
H11 O7 0.998607 1_555
H12 O4 0.988362 1_555
H13 O5 0.988362 1_555
H14 O6 0.988362 1_555
H15 O7 0.988362 1_555
H16 O8 0.992351 1_555
H17 O9 0.992351 1_555
H18 O10 0.992351 1_555
H19 O11 0.992351 1_555
H20 O8 0.995879 1_555
H21 O9 0.995879 1_555
H22 O10 0.995879 1_555
H23 O11 0.995879 1_555
H24 O12 0.980905 1_555
H25 O13 0.980905 1_555
H26 O14 0.980905 1_555
H27 O15 0.980905 1_555
H28 O12 0.991722 1_555
H29 O13 0.991722 1_555
H30 O14 0.991722 1_555
H31 O15 0.991722 1_555
H32 O16 1.002098 1_555
H33 O17 1.002098 1_455
H34 O18 1.002098 1_555
H35 O19 1.002098 1_655
H36 O16 0.997263 1_555
H37 O17 0.997263 1_555
H38 O18 0.997263 1_555
H39 O19 0.997263 1_555
H40 O20 0.983110 1_555
H41 O21 0.983110 1_555
H42 O22 0.983110 1_555
H43 O23 0.983110 1_555
H44 O20 0.995608 1_555
H45 O21 0.995608 1_555
H46 O22 0.995608 1_555
H47 O23 0.995608 1_555
H48 O24 0.993599 1_555
H49 O25 0.993599 1_555
H50 O26 0.993599 1_555
H51 O27 0.993599 1_555
H52 O24 0.993520 1_555
H53 O25 0.993520 1_555
H54 O26 0.993520 1_555
H55 O27 0.993520 1_555
