# generated using pymatgen
data_Li10Zn3(GeO4)4
_symmetry_space_group_name_H-M   'P 1'
_cell_length_a   5.23128500
_cell_length_b   6.39117044
_cell_length_c   10.99877016
_cell_angle_alpha   90.21476274
_cell_angle_beta   90.37445161
_cell_angle_gamma   90.42332329
_symmetry_Int_Tables_number   1
_chemical_formula_structural   Li10Zn3(GeO4)4
_chemical_formula_sum   'Li10 Zn3 Ge4 O16'
_cell_volume   367.71271587
_cell_formula_units_Z   1
loop_
 _symmetry_equiv_pos_site_id
 _symmetry_equiv_pos_as_xyz
  1  'x, y, z'
loop_
 _atom_site_type_symbol
 _atom_site_label
 _atom_site_symmetry_multiplicity
 _atom_site_fract_x
 _atom_site_fract_y
 _atom_site_fract_z
 _atom_site_occupancy
  Li  Li0  1  0.69089700  0.74533400  0.07200000  1
  Li  Li1  1  0.32278200  0.49719000  0.16425200  1
  Li  Li2  1  0.82180900  0.99616200  0.33154500  1
  Li  Li3  1  0.19260600  0.24337800  0.42458900  1
  Li  Li4  1  0.80635000  0.76417100  0.58105900  1
  Li  Li5  1  0.19200800  0.99845100  0.66229300  1
  Li  Li6  1  0.98305700  0.22175300  0.80835300  1
  Li  Li7  1  0.64399400  0.97351500  0.83261100  1
  Li  Li8  1  0.65894300  0.52070500  0.83626900  1
  Li  Li9  1  0.35892700  0.24991400  0.93526900  1
  Zn  Zn0  1  0.32370400  0.00182400  0.16552300  1
  Zn  Zn1  1  0.81946500  0.50238200  0.33056200  1
  Zn  Zn2  1  0.19514200  0.50703200  0.66141100  1
  Ge  Ge0  1  0.82989500  0.24931500  0.08143000  1
  Ge  Ge1  1  0.32456800  0.74882100  0.41111400  1
  Ge  Ge2  1  0.68513600  0.24928000  0.58699800  1
  Ge  Ge3  1  0.15833300  0.75766800  0.91302200  1
  O  O0  1  0.29612000  0.74710300  0.06199900  1
  O  O1  1  0.17179000  0.25019700  0.08788700  1
  O  O2  1  0.71122500  0.47505600  0.15957300  1
  O  O3  1  0.71217300  0.02430500  0.16022800  1
  O  O4  1  0.21083500  0.97647700  0.33568900  1
  O  O5  1  0.21027900  0.51939400  0.33595300  1
  O  O6  1  0.66622400  0.74946300  0.41290600  1
  O  O7  1  0.79621400  0.24671400  0.43449300  1
  O  O8  1  0.20563900  0.75828400  0.56176600  1
  O  O9  1  0.34208600  0.25143700  0.58855900  1
  O  O10  1  0.80150400  0.47544600  0.66820100  1
  O  O11  1  0.80462200  0.03517000  0.67185500  1
  O  O12  1  0.26569100  0.99081200  0.83808200  1
  O  O13  1  0.27148000  0.51940300  0.83792100  1
  O  O14  1  0.82180100  0.75214100  0.91230800  1
  O  O15  1  0.72579900  0.25170500  0.92788100  1
loop_
_geom_bond_atom_site_label_1
_geom_bond_atom_site_label_2
_geom_bond_distance
_geom_bond_site_symmetry_2
Li0 O14 1.889891 1_554
Li0 O2 1.984134 1_555
Li0 O3 2.028710 1_565
Li0 O0 2.067517 1_555
Li1 O1 1.945313 1_555
Li1 O0 1.962188 1_555
Li1 O5 1.986629 1_555
Li1 O2 2.038988 1_555
Li2 O7 1.963624 1_565
Li2 O3 1.975281 1_565
Li2 O6 1.987548 1_555
Li2 O4 2.040141 1_655
Li3 O9 1.961353 1_555
Li3 O4 1.966233 1_545
Li3 O5 2.020529 1_555
Li3 O7 2.077472 1_455
Li4 O6 1.986631 1_555
Li4 O11 1.996142 1_565
Li4 O10 2.082609 1_555
Li4 O8 2.101524 1_655
Li5 O8 1.890394 1_555
Li5 O12 1.969894 1_555
Li5 O9 1.971741 1_565
Li5 O11 2.045134 1_465
Li6 O15 1.897676 1_555
Li6 O11 2.121104 1_555
Li6 O12 2.121572 1_645
Li6 O10 2.435064 1_555
Li6 O13 2.438793 1_655
Li7 O14 1.911393 1_555
Li7 O12 1.984204 1_555
Li7 O11 2.001838 1_565
Li7 O15 2.100286 1_565
Li8 O14 1.891019 1_555
Li8 O10 2.018454 1_555
Li8 O13 2.027085 1_555
Li8 O15 2.027465 1_555
Li9 O15 1.921413 1_555
Li9 O1 1.948742 1_556
Li9 O12 2.022553 1_545
Li9 O13 2.083565 1_555
Ge0 O15 1.771238 1_554
Ge0 O3 1.789327 1_555
Ge0 O1 1.789462 1_655
Ge0 O2 1.793468 1_555
Ge1 O8 1.774715 1_555
Ge1 O5 1.778317 1_555
Ge1 O4 1.781734 1_555
Ge1 O6 1.787254 1_555
Ge2 O11 1.774526 1_555
Ge2 O7 1.778809 1_555
Ge2 O9 1.794941 1_555
Ge2 O10 1.796622 1_555
Ge3 O14 1.760554 1_455
Ge3 O0 1.787489 1_556
Ge3 O12 1.793873 1_555
Ge3 O13 1.833530 1_555
O0 Zn0 1.986976 1_565
O1 Zn0 1.974957 1_555
O2 Zn1 1.967281 1_555
O3 Zn0 2.037434 1_555
O4 Zn0 1.973101 1_565
O5 Zn1 2.047006 1_455
O6 Zn1 1.993501 1_555
O7 Zn1 2.001100 1_555
O8 Zn2 1.948185 1_555
O9 Zn2 1.979456 1_555
O10 Zn2 2.069480 1_655
O13 Zn2 1.980652 1_555
