# generated using pymatgen
data_Gd2W2O9
_symmetry_space_group_name_H-M   'P 1'
_cell_length_a   6.81499400
_cell_length_b   7.19472492
_cell_length_c   7.43247653
_cell_angle_alpha   69.97555652
_cell_angle_beta   84.92879622
_cell_angle_gamma   83.18181817
_symmetry_Int_Tables_number   1
_chemical_formula_structural   Gd2W2O9
_chemical_formula_sum   'Gd4 W4 O18'
_cell_volume   339.53130333
_cell_formula_units_Z   2
loop_
 _symmetry_equiv_pos_site_id
 _symmetry_equiv_pos_as_xyz
  1  'x, y, z'
loop_
 _atom_site_type_symbol
 _atom_site_label
 _atom_site_symmetry_multiplicity
 _atom_site_fract_x
 _atom_site_fract_y
 _atom_site_fract_z
 _atom_site_occupancy
  Gd  Gd0  1  0.15313300  0.25864700  0.15471100  1
  Gd  Gd1  1  0.61687000  0.28070700  0.38418700  1
  Gd  Gd2  1  0.38313000  0.71929300  0.61581300  1
  Gd  Gd3  1  0.84686700  0.74135300  0.84528900  1
  W  W0  1  0.27200500  0.73406400  0.05740400  1
  W  W1  1  0.84221800  0.79194300  0.36283800  1
  W  W2  1  0.15778200  0.20805700  0.63716200  1
  W  W3  1  0.72799500  0.26593600  0.94259600  1
  O  O0  1  0.49748500  0.22823400  0.09396700  1
  O  O1  1  0.85799900  0.06345400  0.20318700  1
  O  O2  1  0.81478000  0.42583900  0.09172300  1
  O  O3  1  0.33503000  0.49691300  0.24768500  1
  O  O4  1  0.96963200  0.72907100  0.14481000  1
  O  O5  1  0.26768500  0.92239200  0.17400200  1
  O  O6  1  0.31577500  0.08723100  0.46818100  1
  O  O7  1  0.63892800  0.63942500  0.37614100  1
  O  O8  1  0.96407200  0.30153400  0.46278900  1
  O  O9  1  0.03592800  0.69846600  0.53721100  1
  O  O10  1  0.36107200  0.36057500  0.62385900  1
  O  O11  1  0.68422500  0.91276900  0.53181900  1
  O  O12  1  0.73231500  0.07760800  0.82599800  1
  O  O13  1  0.03036800  0.27092900  0.85519000  1
  O  O14  1  0.66497000  0.50308700  0.75231500  1
  O  O15  1  0.18522000  0.57416100  0.90827700  1
  O  O16  1  0.14200100  0.93654600  0.79681300  1
  O  O17  1  0.50251500  0.77176600  0.90603300  1
loop_
_geom_bond_atom_site_label_1
_geom_bond_atom_site_label_2
_geom_bond_distance
_geom_bond_site_symmetry_2
Gd0 O0 2.348915 1_555
Gd0 O15 2.399019 1_554
Gd0 O5 2.411770 1_545
Gd0 O13 2.416747 1_554
Gd0 O2 2.475839 1_455
Gd0 O6 2.518323 1_555
Gd0 O1 2.518642 1_455
Gd0 O3 2.533800 1_555
Gd0 O8 2.620365 1_455
Gd1 O3 2.385905 1_555
Gd1 O2 2.428213 1_555
Gd1 O11 2.496738 1_545
Gd1 O8 2.520134 1_555
Gd1 O6 2.528747 1_555
Gd1 O0 2.529478 1_555
Gd1 O10 2.540978 1_555
Gd1 O7 2.583008 1_555
Gd1 O1 2.718962 1_555
Gd2 O14 2.385905 1_555
Gd2 O15 2.428213 1_555
Gd2 O6 2.496738 1_565
Gd2 O9 2.520134 1_555
Gd2 O11 2.528747 1_555
Gd2 O17 2.529478 1_555
Gd2 O7 2.540978 1_555
Gd2 O10 2.583008 1_555
Gd2 O16 2.718962 1_555
Gd3 O17 2.348915 1_555
Gd3 O2 2.399019 1_556
Gd3 O12 2.411770 1_565
Gd3 O4 2.416747 1_556
Gd3 O15 2.475839 1_655
Gd3 O11 2.518323 1_555
Gd3 O16 2.518642 1_655
Gd3 O14 2.533800 1_555
Gd3 O9 2.620365 1_655
O0 W3 1.840346 1_554
O1 W1 1.917141 1_545
O1 W3 2.173276 1_554
O2 W3 2.013105 1_554
O3 W0 1.837572 1_555
O4 W1 1.935090 1_555
O4 W0 2.105853 1_655
O5 W0 1.837934 1_555
O6 W2 1.943922 1_555
O7 W1 1.842752 1_555
O8 W2 1.835612 1_655
O9 W1 1.835612 1_455
O10 W2 1.842752 1_555
O11 W1 1.943922 1_555
O12 W3 1.837934 1_555
O13 W2 1.935090 1_555
O13 W3 2.105853 1_455
O14 W3 1.837572 1_555
O15 W0 2.013105 1_556
O16 W2 1.917141 1_565
O16 W0 2.173276 1_556
O17 W0 1.840346 1_556
