# generated using pymatgen
data_Li3Y14Ti14(S2O5)7
_symmetry_space_group_name_H-M   'P 1'
_cell_length_a   8.63834200
_cell_length_b   11.65726917
_cell_length_c   12.17272603
_cell_angle_alpha   84.04174185
_cell_angle_beta   82.06657216
_cell_angle_gamma   77.17766790
_symmetry_Int_Tables_number   1
_chemical_formula_structural   Li3Y14Ti14(S2O5)7
_chemical_formula_sum   'Li3 Y14 Ti14 S14 O35'
_cell_volume   1180.37736327
_cell_formula_units_Z   1
loop_
 _symmetry_equiv_pos_site_id
 _symmetry_equiv_pos_as_xyz
  1  'x, y, z'
loop_
 _atom_site_type_symbol
 _atom_site_label
 _atom_site_symmetry_multiplicity
 _atom_site_fract_x
 _atom_site_fract_y
 _atom_site_fract_z
 _atom_site_occupancy
  Li  Li0  1  0.50000000  0.00000000  0.50000000  1
  Li  Li1  1  0.92791600  0.00002800  0.85286400  1
  Li  Li2  1  0.07208400  0.99997200  0.14713600  1
  Y  Y0  1  0.52506900  0.66525000  0.88075700  1
  Y  Y1  1  0.33294800  0.33482600  0.83307100  1
  Y  Y2  1  0.47493100  0.33475000  0.11924300  1
  Y  Y3  1  0.95378100  0.66846800  0.73733200  1
  Y  Y4  1  0.09351700  0.67110700  0.02356900  1
  Y  Y5  1  0.23530400  0.66853800  0.31034500  1
  Y  Y6  1  0.37993100  0.66898300  0.59378200  1
  Y  Y7  1  0.76469600  0.33146200  0.68965500  1
  Y  Y8  1  0.90648300  0.32889300  0.97643100  1
  Y  Y9  1  0.04621900  0.33153200  0.26266800  1
  Y  Y10  1  0.19044200  0.33187900  0.54665600  1
  Y  Y11  1  0.66705200  0.66517400  0.16692900  1
  Y  Y12  1  0.80955800  0.66812100  0.45334400  1
  Y  Y13  1  0.62006900  0.33101700  0.40621800  1
  Ti  Ti0  1  0.19713300  0.83596700  0.79479000  1
  Ti  Ti1  1  0.33655900  0.83620400  0.08013300  1
  Ti  Ti2  1  0.47143100  0.83568900  0.36487800  1
  Ti  Ti3  1  0.10314400  0.16457200  0.77114400  1
  Ti  Ti4  1  0.24286500  0.16428800  0.05668800  1
  Ti  Ti5  1  0.37748700  0.16425800  0.34157300  1
  Ti  Ti6  1  0.52856900  0.16431100  0.63512200  1
  Ti  Ti7  1  0.62251300  0.83574200  0.65842700  1
  Ti  Ti8  1  0.75713500  0.83571200  0.94331200  1
  Ti  Ti9  1  0.89685600  0.83542800  0.22885600  1
  Ti  Ti10  1  0.04577300  0.83929900  0.51154800  1
  Ti  Ti11  1  0.66344100  0.16379600  0.91986700  1
  Ti  Ti12  1  0.80286700  0.16403300  0.20521000  1
  Ti  Ti13  1  0.95422700  0.16070100  0.48845200  1
  S  S0  1  0.25747900  0.59096400  0.81552000  1
  S  S1  1  0.54504300  0.59162900  0.38767900  1
  S  S2  1  0.39892400  0.59036700  0.10190800  1
  S  S3  1  0.02330000  0.40848400  0.75731100  1
  S  S4  1  0.16503400  0.40927600  0.04339400  1
  S  S5  1  0.31265100  0.40827300  0.32953100  1
  S  S6  1  0.45495700  0.40837100  0.61232100  1
  S  S7  1  0.83496600  0.59072400  0.95660600  1
  S  S8  1  0.68734900  0.59172700  0.67046900  1
  S  S9  1  0.97670000  0.59151600  0.24268900  1
  S  S10  1  0.11826100  0.58752300  0.52989400  1
  S  S11  1  0.60107600  0.40963300  0.89809200  1
  S  S12  1  0.74252100  0.40903600  0.18448000  1
  S  S13  1  0.88173900  0.41247700  0.47010600  1
  O  O0  1  0.41811500  0.79813600  0.72839200  1
  O  O1  1  0.55830800  0.79574200  0.01464500  1
  O  O2  1  0.44169200  0.20425800  0.98535500  1
  O  O3  1  0.30281700  0.20200200  0.69953500  1
  O  O4  1  0.13134100  0.79849800  0.65650000  1
  O  O5  1  0.41356300  0.79843200  0.22683900  1
  O  O6  1  0.55299800  0.81362600  0.51332200  1
  O  O7  1  0.27435800  0.79711100  0.94204700  1
  O  O8  1  0.13975500  0.00006700  0.78684900  1
  O  O9  1  0.15850400  0.20259600  0.91301500  1
  O  O10  1  0.12346000  0.81391600  0.15567800  1
  O  O11  1  0.29841000  0.20145400  0.19820000  1
  O  O12  1  0.27956700  0.00005000  0.07218900  1
  O  O13  1  0.98315700  0.81385900  0.87096600  1
  O  O14  1  0.42805400  0.99999100  0.35998900  1
  O  O15  1  0.44700200  0.18637400  0.48667800  1
  O  O16  1  0.27019300  0.79854900  0.44171000  1
  O  O17  1  0.70159000  0.79854600  0.80180000  1
  O  O18  1  0.87654000  0.18608400  0.84432200  1
  O  O19  1  0.84149600  0.79740400  0.08698500  1
  O  O20  1  0.98390400  0.79843600  0.37254900  1
  O  O21  1  0.01684300  0.18614100  0.12903400  1
  O  O22  1  0.15516400  0.20165500  0.41284300  1
  O  O23  1  0.58643700  0.20156800  0.77316100  1
  O  O24  1  0.86865900  0.20150200  0.34350000  1
  O  O25  1  0.72043300  0.99995000  0.92781100  1
  O  O26  1  0.72564200  0.20288900  0.05795300  1
  O  O27  1  0.69718300  0.79799800  0.30046500  1
  O  O28  1  0.86024500  0.99993300  0.21315100  1
  O  O29  1  0.00000000  0.00000000  0.50000000  1
  O  O30  1  0.01609600  0.20156400  0.62745100  1
  O  O31  1  0.57194600  0.00000900  0.64001100  1
  O  O32  1  0.84483600  0.79834500  0.58715700  1
  O  O33  1  0.58188500  0.20186400  0.27160800  1
  O  O34  1  0.72980700  0.20145100  0.55829000  1
loop_
_geom_bond_atom_site_label_1
_geom_bond_atom_site_label_2
_geom_bond_distance
_geom_bond_site_symmetry_2
Li0 O31 1.892988 1_555
Li0 O14 1.892988 1_545
Li0 O15 2.112345 1_555
Li0 O6 2.112345 1_545
Li1 O8 1.894409 1_655
Li1 O25 1.895748 1_545
Li1 O18 2.109644 1_555
Li1 O13 2.110974 1_545
Li2 O28 1.894409 1_455
Li2 O12 1.895748 1_565
Li2 O10 2.109644 1_555
Li2 O21 2.110974 1_565
S0 Ti0 2.778199 1_555
S0 Y3 2.839594 1_455
S0 Y4 2.864661 1_556
S0 Y0 2.874312 1_555
S0 Y6 2.891494 1_555
S0 Y1 2.903116 1_555
S1 Ti2 2.767238 1_555
S1 Y6 2.837733 1_555
S1 Y11 2.864874 1_555
S1 Y12 2.865591 1_555
S1 Y5 2.881719 1_555
S1 Y13 2.953754 1_555
S2 Ti1 2.787415 1_555
S2 Y4 2.856811 1_555
S2 Y5 2.860790 1_555
S2 Y11 2.880531 1_555
S2 Y0 2.884600 1_554
S2 Y2 2.897261 1_555
S3 Ti3 2.766026 1_555
S3 Y7 2.833090 1_455
S3 Y8 2.855232 1_455
S3 Y1 2.870479 1_555
S3 Y10 2.887656 1_555
S3 Y3 2.946932 1_455
S4 Ti4 2.777799 1_555
S4 Y8 2.849708 1_454
S4 Y9 2.855455 1_555
S4 Y2 2.873502 1_555
S4 Y1 2.879104 1_554
S4 Y4 2.967713 1_555
S5 Ti5 2.766874 1_555
S5 Y10 2.837504 1_555
S5 Y13 2.860564 1_555
S5 Y2 2.860737 1_555
S5 Y9 2.888235 1_555
S5 Y5 2.949949 1_555
S6 Ti6 2.767238 1_555
S6 Y13 2.837733 1_555
S6 Y1 2.864874 1_555
S6 Y10 2.865591 1_555
S6 Y7 2.881719 1_555
S6 Y6 2.953754 1_555
S7 Ti8 2.777799 1_555
S7 Y4 2.849708 1_656
S7 Y3 2.855455 1_555
S7 Y0 2.873502 1_555
S7 Y11 2.879104 1_556
S7 Y8 2.967713 1_555
S8 Ti7 2.766874 1_555
S8 Y12 2.837504 1_555
S8 Y6 2.860564 1_555
S8 Y0 2.860737 1_555
S8 Y3 2.888235 1_555
S8 Y7 2.949949 1_555
S9 Ti9 2.766026 1_555
S9 Y5 2.833090 1_655
S9 Y4 2.855232 1_655
S9 Y11 2.870479 1_555
S9 Y12 2.887656 1_555
S9 Y9 2.946932 1_655
S10 Ti10 2.853612 1_555
S10 Y3 2.862589 1_455
S10 Y6 2.864827 1_555
S10 Y5 2.865380 1_555
S10 Y12 2.873037 1_455
S10 Y10 2.897515 1_555
S11 Ti11 2.787415 1_555
S11 Y8 2.856811 1_555
S11 Y7 2.860790 1_555
S11 Y1 2.880531 1_555
S11 Y2 2.884600 1_556
S11 Y0 2.897261 1_555
S12 Ti12 2.778199 1_555
S12 Y9 2.839594 1_655
S12 Y8 2.864661 1_554
S12 Y2 2.874312 1_555
S12 Y13 2.891494 1_555
S12 Y11 2.903116 1_555
S13 Ti13 2.853612 1_555
S13 Y9 2.862589 1_655
S13 Y13 2.864827 1_555
S13 Y7 2.865380 1_555
S13 Y10 2.873037 1_655
S13 Y12 2.897515 1_555
O0 Ti0 1.940658 1_555
O0 Ti7 1.971298 1_555
O0 Y0 2.436076 1_555
O0 Y6 2.437671 1_555
O1 Ti8 1.944359 1_554
O1 Ti1 1.944934 1_555
O1 Y0 2.427008 1_554
O1 Y11 2.428095 1_555
O2 Ti4 1.944359 1_556
O2 Ti11 1.944934 1_555
O2 Y2 2.427008 1_556
O2 Y1 2.428095 1_555
O3 Ti3 1.940449 1_555
O3 Ti6 1.969755 1_555
O3 Y1 2.434258 1_555
O3 Y10 2.441127 1_555
O4 Ti0 1.968358 1_555
O4 Ti10 1.978803 1_555
O4 Y6 2.412752 1_555
O4 Y3 2.433948 1_455
O5 Ti2 1.934347 1_555
O5 Ti1 1.964724 1_555
O5 Y5 2.445520 1_555
O5 Y11 2.454469 1_555
O6 Ti2 2.000572 1_555
O6 Ti7 2.000752 1_555
O6 Y6 2.531645 1_555
O6 Y12 2.542395 1_555
O7 Ti1 1.959280 1_556
O7 Ti0 1.972490 1_555
O7 Y4 2.422934 1_556
O7 Y0 2.433975 1_555
O8 Ti0 1.862367 1_545
O8 Ti3 1.866935 1_555
O9 Ti4 1.958146 1_556
O9 Ti3 1.971936 1_555
O9 Y8 2.419174 1_455
O9 Y1 2.430757 1_555
O10 Ti1 1.999292 1_555
O10 Ti9 2.008798 1_455
O10 Y4 2.507221 1_555
O10 Y5 2.542260 1_555
O11 Ti5 1.934169 1_555
O11 Ti4 1.964843 1_555
O11 Y9 2.443351 1_555
O11 Y2 2.449589 1_555
O12 Ti1 1.859366 1_545
O12 Ti4 1.863807 1_555
O13 Ti8 2.000922 1_555
O13 Ti0 2.007864 1_655
O13 Y4 2.504326 1_656
O13 Y3 2.541711 1_555
O14 Ti5 1.864018 1_565
O14 Ti2 1.864487 1_555
O15 Ti6 2.000572 1_555
O15 Ti5 2.000752 1_555
O15 Y13 2.531645 1_555
O15 Y10 2.542395 1_555
O16 Ti2 1.971104 1_555
O16 Ti10 1.981601 1_555
O16 Y5 2.404939 1_555
O16 Y6 2.423842 1_555
O17 Ti7 1.934169 1_555
O17 Ti8 1.964843 1_555
O17 Y3 2.443351 1_555
O17 Y0 2.449589 1_555
O18 Ti11 1.999292 1_555
O18 Ti3 2.008798 1_655
O18 Y8 2.507221 1_555
O18 Y7 2.542260 1_555
O19 Ti8 1.958146 1_554
O19 Ti9 1.971936 1_555
O19 Y4 2.419174 1_655
O19 Y11 2.430757 1_555
O20 Ti9 1.968099 1_555
O20 Ti10 1.976194 1_655
O20 Y12 2.416534 1_555
O20 Y5 2.430433 1_655
O21 Ti4 2.000922 1_555
O21 Ti12 2.007864 1_455
O21 Y8 2.504326 1_454
O21 Y9 2.541711 1_555
O22 Ti5 1.969264 1_555
O22 Ti13 1.980775 1_455
O22 Y9 2.405726 1_555
O22 Y10 2.430287 1_555
O23 Ti6 1.934347 1_555
O23 Ti11 1.964724 1_555
O23 Y7 2.445520 1_555
O23 Y1 2.454469 1_555
O24 Ti12 1.968358 1_555
O24 Ti13 1.978803 1_555
O24 Y13 2.412752 1_555
O24 Y9 2.433948 1_655
O25 Ti11 1.859366 1_565
O25 Ti8 1.863807 1_555
O26 Ti11 1.959280 1_554
O26 Ti12 1.972490 1_555
O26 Y8 2.422934 1_554
O26 Y2 2.433975 1_555
O27 Ti9 1.940449 1_555
O27 Ti2 1.969755 1_555
O27 Y11 2.434258 1_555
O27 Y12 2.441127 1_555
O28 Ti12 1.862367 1_565
O28 Ti9 1.866935 1_555
O29 Ti13 1.821369 1_455
O29 Ti10 1.821369 1_545
O30 Ti3 1.968099 1_555
O30 Ti13 1.976194 1_455
O30 Y10 2.416534 1_555
O30 Y7 2.430433 1_455
O31 Ti7 1.864018 1_545
O31 Ti6 1.864487 1_555
O32 Ti7 1.969264 1_555
O32 Ti10 1.980775 1_655
O32 Y3 2.405726 1_555
O32 Y12 2.430287 1_555
O33 Ti12 1.940658 1_555
O33 Ti5 1.971298 1_555
O33 Y2 2.436076 1_555
O33 Y13 2.437671 1_555
O34 Ti6 1.971104 1_555
O34 Ti13 1.981601 1_555
O34 Y7 2.404939 1_555
O34 Y13 2.423842 1_555
