# generated using pymatgen
data_Li4MnFe3(BO3)4
_symmetry_space_group_name_H-M   'P 1'
_cell_length_a   5.25080400
_cell_length_b   5.98771362
_cell_length_c   16.14557315
_cell_angle_alpha   81.42210757
_cell_angle_beta   89.43783092
_cell_angle_gamma   88.81590898
_symmetry_Int_Tables_number   1
_chemical_formula_structural   Li4MnFe3(BO3)4
_chemical_formula_sum   'Li8 Mn2 Fe6 B8 O24'
_cell_volume   501.82476874
_cell_formula_units_Z   2
loop_
 _symmetry_equiv_pos_site_id
 _symmetry_equiv_pos_as_xyz
  1  'x, y, z'
loop_
 _atom_site_type_symbol
 _atom_site_label
 _atom_site_symmetry_multiplicity
 _atom_site_fract_x
 _atom_site_fract_y
 _atom_site_fract_z
 _atom_site_occupancy
  Li  Li0  1  0.59558400  0.69162100  0.01386200  1
  Li  Li1  1  0.90507700  0.05483600  0.73871400  1
  Li  Li2  1  0.40601600  0.80856500  0.48617900  1
  Li  Li3  1  0.09492300  0.94516400  0.26128600  1
  Li  Li4  1  0.40441600  0.30837900  0.98613800  1
  Li  Li5  1  0.09603800  0.43903900  0.76685100  1
  Li  Li6  1  0.59398400  0.19143500  0.51382100  1
  Li  Li7  1  0.90396200  0.56096100  0.23314900  1
  Mn  Mn0  1  0.91935600  0.65313300  0.41385600  1
  Mn  Mn1  1  0.08064400  0.34686700  0.58614400  1
  Fe  Fe0  1  0.41464400  0.90094800  0.66629000  1
  Fe  Fe1  1  0.08793200  0.84894200  0.08273900  1
  Fe  Fe2  1  0.91206800  0.15105800  0.91726100  1
  Fe  Fe3  1  0.58535600  0.09905200  0.33371000  1
  Fe  Fe4  1  0.41253400  0.40356800  0.16698900  1
  Fe  Fe5  1  0.58746600  0.59643200  0.83301100  1
  B  B0  1  0.08039100  0.66339000  0.92180100  1
  B  B1  1  0.57893500  0.91569800  0.17064700  1
  B  B2  1  0.42106500  0.08430200  0.82935300  1
  B  B3  1  0.92246200  0.83786400  0.57965800  1
  B  B4  1  0.58090300  0.40956300  0.67326000  1
  B  B5  1  0.07753800  0.16213600  0.42034200  1
  B  B6  1  0.91960900  0.33661000  0.07819900  1
  B  B7  1  0.41909700  0.59043700  0.32674000  1
  O  O0  1  0.33921400  0.63730300  0.93261500  1
  O  O1  1  0.93353500  0.79350800  0.97102400  1
  O  O2  1  0.45506000  0.80330200  0.11307100  1
  O  O3  1  0.04577200  0.94926500  0.63783200  1
  O  O4  1  0.53499500  0.70213900  0.38567700  1
  O  O5  1  0.56718100  0.95444800  0.77989400  1
  O  O6  1  0.06993500  0.70821400  0.53084200  1
  O  O7  1  0.83776700  0.88942100  0.18145300  1
  O  O8  1  0.16223300  0.11057900  0.81854700  1
  O  O9  1  0.66387000  0.86330500  0.56824300  1
  O  O10  1  0.43281900  0.04555200  0.22010600  1
  O  O11  1  0.95422800  0.05073500  0.36216800  1
  O  O12  1  0.54494000  0.19669800  0.88692900  1
  O  O13  1  0.06646500  0.20649200  0.02897600  1
  O  O14  1  0.83987300  0.38692700  0.68696000  1
  O  O15  1  0.33613000  0.13669500  0.43175700  1
  O  O16  1  0.66078600  0.36269700  0.06738500  1
  O  O17  1  0.43091000  0.54073500  0.72123900  1
  O  O18  1  0.93006500  0.29178600  0.46915800  1
  O  O19  1  0.95518400  0.55192200  0.86430300  1
  O  O20  1  0.46500500  0.29786100  0.61432300  1
  O  O21  1  0.04481600  0.44807800  0.13569700  1
  O  O22  1  0.56909000  0.45926500  0.27876100  1
  O  O23  1  0.16012700  0.61307300  0.31304000  1
loop_
_geom_bond_atom_site_label_1
_geom_bond_atom_site_label_2
_geom_bond_distance
_geom_bond_site_symmetry_2
Li0 O0 1.954144 1_554
Li0 O2 1.957877 1_555
Li0 O1 1.973384 1_554
Li0 O16 2.052597 1_555
Li1 O8 1.943491 1_655
Li1 O5 1.962896 1_545
Li1 O3 1.965341 1_645
Li1 O14 2.061859 1_555
Li2 O4 1.940834 1_555
Li2 O9 1.969575 1_555
Li2 O6 1.970988 1_555
Li2 O15 2.056332 1_565
Li3 O7 1.943491 1_455
Li3 O10 1.962896 1_565
Li3 O11 1.965341 1_465
Li3 O23 2.061859 1_555
Li4 O16 1.954144 1_556
Li4 O12 1.957877 1_555
Li4 O13 1.973384 1_556
Li4 O0 2.052597 1_555
Li5 O14 1.934385 1_455
Li5 O19 1.937332 1_455
Li5 O17 1.972303 1_555
Li5 O8 2.042848 1_555
Li6 O20 1.940834 1_555
Li6 O15 1.969575 1_555
Li6 O18 1.970988 1_555
Li6 O9 2.056332 1_545
Li7 O23 1.934385 1_655
Li7 O21 1.937332 1_655
Li7 O22 1.972303 1_555
Li7 O7 2.042848 1_555
Mn0 O4 2.078452 1_555
Mn0 O23 2.090194 1_655
Mn0 O6 2.127773 1_655
Mn0 O18 2.213913 1_555
Mn0 O11 2.412504 1_565
Mn1 O20 2.078452 1_555
Mn1 O14 2.090194 1_455
Mn1 O18 2.127773 1_455
Mn1 O6 2.213913 1_555
Mn1 O3 2.412504 1_545
Fe0 O3 2.000237 1_555
Fe0 O9 2.079158 1_555
Fe0 O5 2.079215 1_555
Fe0 O17 2.206684 1_555
Fe0 O20 2.418454 1_565
Fe1 O2 1.996857 1_555
Fe1 O1 2.058925 1_454
Fe1 O7 2.094130 1_455
Fe1 O13 2.187978 1_565
Fe1 O21 2.439267 1_555
Fe2 O12 1.996857 1_555
Fe2 O13 2.058925 1_656
Fe2 O8 2.094130 1_655
Fe2 O1 2.187978 1_545
Fe2 O19 2.439267 1_555
Fe3 O11 2.000237 1_555
Fe3 O15 2.079158 1_555
Fe3 O10 2.079215 1_555
Fe3 O22 2.206684 1_555
Fe3 O4 2.418454 1_545
Fe4 O21 2.003007 1_555
Fe4 O22 2.064853 1_555
Fe4 O16 2.099603 1_555
Fe4 O10 2.187739 1_555
Fe4 O2 2.435819 1_555
Fe5 O19 2.003007 1_555
Fe5 O17 2.064853 1_555
Fe5 O0 2.099603 1_555
Fe5 O5 2.187739 1_555
Fe5 O12 2.435819 1_555
B0 O0 1.374624 1_555
B0 O19 1.398018 1_455
B0 O1 1.407508 1_455
B1 O7 1.374740 1_555
B1 O2 1.398833 1_555
B1 O10 1.406911 1_565
B2 O8 1.374740 1_555
B2 O12 1.398833 1_555
B2 O5 1.406911 1_545
B3 O9 1.374345 1_555
B3 O3 1.401085 1_655
B3 O6 1.403272 1_655
B4 O14 1.380470 1_555
B4 O20 1.393277 1_555
B4 O17 1.407556 1_555
B5 O15 1.374345 1_555
B5 O11 1.401085 1_455
B5 O18 1.403272 1_455
B6 O16 1.374624 1_555
B6 O21 1.398018 1_655
B6 O13 1.407508 1_655
B7 O23 1.380470 1_555
B7 O4 1.393277 1_555
B7 O22 1.407556 1_555
