# generated using pymatgen
data_LiMnPH2O5
_symmetry_space_group_name_H-M   'P 1'
_cell_length_a   5.13860000
_cell_length_b   10.43032800
_cell_length_c   17.01420800
_cell_angle_alpha   90.00000000
_cell_angle_beta   90.00000000
_cell_angle_gamma   90.00000000
_symmetry_Int_Tables_number   1
_chemical_formula_structural   LiMnPH2O5
_chemical_formula_sum   'Li8 Mn8 P8 H16 O40'
_cell_volume   911.91532904
_cell_formula_units_Z   8
loop_
 _symmetry_equiv_pos_site_id
 _symmetry_equiv_pos_as_xyz
  1  'x, y, z'
loop_
 _atom_site_type_symbol
 _atom_site_label
 _atom_site_symmetry_multiplicity
 _atom_site_fract_x
 _atom_site_fract_y
 _atom_site_fract_z
 _atom_site_occupancy
  Li  Li0  1  0.46984900  0.17645000  0.49616800  1
  Li  Li1  1  0.53015100  0.17645000  0.99616800  1
  Li  Li2  1  0.90979300  0.39624500  0.24780400  1
  Li  Li3  1  0.09020700  0.39624500  0.74780400  1
  Li  Li4  1  0.46984900  0.67645000  0.00383200  1
  Li  Li5  1  0.53015100  0.67645000  0.50383200  1
  Li  Li6  1  0.09020700  0.89624500  0.75219600  1
  Li  Li7  1  0.90979300  0.89624500  0.25219600  1
  Mn  Mn0  1  0.54138900  0.14937500  0.18993600  1
  Mn  Mn1  1  0.45861100  0.14937500  0.68993600  1
  Mn  Mn2  1  0.11038600  0.42051400  0.94216400  1
  Mn  Mn3  1  0.88961400  0.42051400  0.44216400  1
  Mn  Mn4  1  0.45861100  0.64937500  0.81006400  1
  Mn  Mn5  1  0.54138900  0.64937500  0.31006400  1
  Mn  Mn6  1  0.11038600  0.92051400  0.55783600  1
  Mn  Mn7  1  0.88961400  0.92051400  0.05783600  1
  P  P0  1  0.01309500  0.22671300  0.09184200  1
  P  P1  1  0.98690500  0.22671300  0.59184200  1
  P  P2  1  0.41142800  0.34590700  0.34142400  1
  P  P3  1  0.58857200  0.34590700  0.84142400  1
  P  P4  1  0.98690500  0.72671300  0.90815800  1
  P  P5  1  0.01309500  0.72671300  0.40815800  1
  P  P6  1  0.58857200  0.84590700  0.65857600  1
  P  P7  1  0.41142800  0.84590700  0.15857600  1
  H  H0  1  0.09115700  0.00553700  0.37074800  1
  H  H1  1  0.90884300  0.00553700  0.87074800  1
  H  H2  1  0.63634200  0.05026200  0.38154100  1
  H  H3  1  0.36365800  0.05026200  0.88154100  1
  H  H4  1  0.13222500  0.10805100  0.30580200  1
  H  H5  1  0.86777500  0.10805100  0.80580200  1
  H  H6  1  0.61118200  0.44846700  0.05328100  1
  H  H7  1  0.38881800  0.44846700  0.55328100  1
  H  H8  1  0.09115700  0.50553700  0.12925200  1
  H  H9  1  0.90884300  0.50553700  0.62925200  1
  H  H10  1  0.36365800  0.55026200  0.61845900  1
  H  H11  1  0.63634200  0.55026200  0.11845900  1
  H  H12  1  0.86777500  0.60805100  0.69419800  1
  H  H13  1  0.13222500  0.60805100  0.19419800  1
  H  H14  1  0.61118200  0.94846700  0.44671900  1
  H  H15  1  0.38881800  0.94846700  0.94671900  1
  O  O0  1  0.52844700  0.02678400  0.42690600  1
  O  O1  1  0.47155300  0.02678400  0.92690600  1
  O  O2  1  0.01301600  0.03837900  0.32236400  1
  O  O3  1  0.98698400  0.03837900  0.82236400  1
  O  O4  1  0.85647000  0.11875300  0.04912000  1
  O  O5  1  0.14353000  0.11875300  0.54912000  1
  O  O6  1  0.69287100  0.19224300  0.59373700  1
  O  O7  1  0.30712900  0.19224300  0.09373700  1
  O  O8  1  0.57400500  0.21718800  0.79658700  1
  O  O9  1  0.42599500  0.21718800  0.29658700  1
  O  O10  1  0.90227400  0.24162000  0.17661700  1
  O  O11  1  0.09772600  0.24162000  0.67661700  1
  O  O12  1  0.47378000  0.32958100  0.92594500  1
  O  O13  1  0.52622000  0.32958100  0.42594500  1
  O  O14  1  0.97008700  0.35399900  0.04666900  1
  O  O15  1  0.02991300  0.35399900  0.54666900  1
  O  O16  1  0.12225600  0.38812100  0.34558000  1
  O  O17  1  0.87774400  0.38812100  0.84558000  1
  O  O18  1  0.57496600  0.45022200  0.29766500  1
  O  O19  1  0.42503400  0.45022200  0.79766500  1
  O  O20  1  0.52844700  0.52678400  0.07309400  1
  O  O21  1  0.47155300  0.52678400  0.57309400  1
  O  O22  1  0.01301600  0.53837900  0.17763600  1
  O  O23  1  0.98698400  0.53837900  0.67763600  1
  O  O24  1  0.14353000  0.61875300  0.95088000  1
  O  O25  1  0.85647000  0.61875300  0.45088000  1
  O  O26  1  0.69287100  0.69224300  0.90626300  1
  O  O27  1  0.30712900  0.69224300  0.40626300  1
  O  O28  1  0.57400500  0.71718800  0.70341300  1
  O  O29  1  0.42599500  0.71718800  0.20341300  1
  O  O30  1  0.90227400  0.74162000  0.32338300  1
  O  O31  1  0.09772600  0.74162000  0.82338300  1
  O  O32  1  0.47378000  0.82958100  0.57405500  1
  O  O33  1  0.52622000  0.82958100  0.07405500  1
  O  O34  1  0.97008700  0.85399900  0.45333100  1
  O  O35  1  0.02991300  0.85399900  0.95333100  1
  O  O36  1  0.87774400  0.88812100  0.65442000  1
  O  O37  1  0.12225600  0.88812100  0.15442000  1
  O  O38  1  0.42503400  0.95022200  0.70233500  1
  O  O39  1  0.57496600  0.95022200  0.20233500  1
loop_
_geom_bond_atom_site_label_1
_geom_bond_atom_site_label_2
_geom_bond_distance
_geom_bond_site_symmetry_2
Li0 O0 1.978967 1_555
Li0 O5 1.996392 1_555
Li0 O13 2.015564 1_555
Li0 O6 2.023931 1_555
Li1 O1 1.978967 1_555
Li1 O4 1.996392 1_556
Li1 O12 2.015564 1_555
Li1 O7 2.023931 1_556
Li2 O22 1.975968 1_655
Li2 O16 1.991639 1_655
Li2 O18 1.999230 1_555
Li2 O10 2.017316 1_555
Li3 O23 1.975968 1_455
Li3 O17 1.991639 1_455
Li3 O19 1.999230 1_555
Li3 O11 2.017316 1_555
Li4 O20 1.978967 1_555
Li4 O24 1.996392 1_554
Li4 O33 2.015564 1_555
Li4 O26 2.023931 1_554
Li5 O21 1.978967 1_555
Li5 O25 1.996392 1_555
Li5 O32 2.015564 1_555
Li5 O27 2.023931 1_555
Li6 O3 1.975968 1_465
Li6 O36 1.991639 1_455
Li6 O38 1.999230 1_555
Li6 O31 2.017316 1_555
Li7 O2 1.975968 1_665
Li7 O37 1.991639 1_655
Li7 O39 1.999230 1_555
Li7 O30 2.017316 1_555
Mn0 O9 2.035830 1_555
Mn0 O7 2.080368 1_555
Mn0 O39 2.095033 1_545
Mn0 O10 2.101437 1_555
Mn1 O8 2.035830 1_555
Mn1 O6 2.080368 1_555
Mn1 O38 2.095033 1_545
Mn1 O11 2.101437 1_555
Mn2 O14 2.040247 1_456
Mn2 O17 2.060025 1_455
Mn2 O24 2.079993 1_555
Mn2 O12 2.112504 1_555
Mn3 O15 2.040247 1_655
Mn3 O16 2.060025 1_655
Mn3 O25 2.079993 1_555
Mn3 O13 2.112504 1_555
Mn4 O28 2.035830 1_555
Mn4 O26 2.080368 1_555
Mn4 O19 2.095033 1_555
Mn4 O31 2.101437 1_555
Mn5 O29 2.035830 1_555
Mn5 O27 2.080368 1_555
Mn5 O18 2.095033 1_555
Mn5 O30 2.101437 1_555
Mn6 O34 2.040247 1_455
Mn6 O36 2.060025 1_455
Mn6 O5 2.079993 1_565
Mn6 O32 2.112504 1_555
Mn7 O35 2.040247 1_654
Mn7 O37 2.060025 1_655
Mn7 O4 2.079993 1_565
Mn7 O33 2.112504 1_555
H0 O2 0.977884 1_555
H1 O3 0.977884 1_555
H2 O0 0.981382 1_555
H3 O1 0.981382 1_555
H4 O2 0.991332 1_555
H5 O3 0.991332 1_555
H6 O20 0.980645 1_555
H7 O21 0.980645 1_555
H8 O22 0.977884 1_555
H9 O23 0.977884 1_555
H10 O21 0.981382 1_555
H11 O20 0.981382 1_555
H12 O23 0.991332 1_555
H13 O22 0.991332 1_555
H14 O0 0.980645 1_565
H15 O1 0.980645 1_565
O4 P0 1.563368 1_655
O5 P1 1.563368 1_455
O6 P1 1.553445 1_555
O7 P0 1.553445 1_555
O8 P3 1.545992 1_555
O9 P2 1.545992 1_555
O10 P0 1.558501 1_655
O11 P1 1.558501 1_455
O12 P3 1.563635 1_555
O13 P2 1.563635 1_555
O14 P0 1.549895 1_655
O15 P1 1.549895 1_455
O16 P2 1.551414 1_555
O17 P3 1.551414 1_555
O18 P2 1.563441 1_555
O19 P3 1.563441 1_555
O24 P4 1.563368 1_455
O25 P5 1.563368 1_655
O26 P4 1.553445 1_555
O27 P5 1.553445 1_555
O28 P6 1.545992 1_555
O29 P7 1.545992 1_555
O30 P5 1.558501 1_655
O31 P4 1.558501 1_455
O32 P6 1.563635 1_555
O33 P7 1.563635 1_555
O34 P5 1.549895 1_655
O35 P4 1.549895 1_455
O36 P6 1.551414 1_555
O37 P7 1.551414 1_555
O38 P6 1.563441 1_555
O39 P7 1.563441 1_555
