# generated using pymatgen
data_Li6Mn5Fe(BO3)6
_symmetry_space_group_name_H-M   'P 1'
_cell_length_a   3.18491300
_cell_length_b   8.26784300
_cell_length_c   14.33766115
_cell_angle_alpha   89.94693481
_cell_angle_beta   90.00000000
_cell_angle_gamma   90.00000000
_symmetry_Int_Tables_number   1
_chemical_formula_structural   Li6Mn5Fe(BO3)6
_chemical_formula_sum   'Li6 Mn5 Fe1 B6 O18'
_cell_volume   377.54430237
_cell_formula_units_Z   1
loop_
 _symmetry_equiv_pos_site_id
 _symmetry_equiv_pos_as_xyz
  1  'x, y, z'
loop_
 _atom_site_type_symbol
 _atom_site_label
 _atom_site_symmetry_multiplicity
 _atom_site_fract_x
 _atom_site_fract_y
 _atom_site_fract_z
 _atom_site_occupancy
  Li  Li0  1  0.50000000  0.70710500  0.00906500  1
  Li  Li1  1  0.50000000  0.65939200  0.64169100  1
  Li  Li2  1  0.50000000  0.63259400  0.34883300  1
  Li  Li3  1  0.50000000  0.20731900  0.50778100  1
  Li  Li4  1  0.50000000  0.15968300  0.14229600  1
  Li  Li5  1  0.50000000  0.13312900  0.84938500  1
  Mn  Mn0  1  0.00000000  0.86629500  0.49364400  1
  Mn  Mn1  1  0.00000000  0.82628900  0.18578200  1
  Mn  Mn2  1  0.00000000  0.80863600  0.82045500  1
  Mn  Mn3  1  0.00000000  0.36520300  0.99432400  1
  Mn  Mn4  1  0.00000000  0.32607500  0.68580300  1
  Fe  Fe0  1  0.00000000  0.31284600  0.32077300  1
  B  B0  1  0.50000000  0.00213700  0.33297500  1
  B  B1  1  0.00000000  0.99997000  0.00010100  1
  B  B2  1  0.50000000  0.00007200  0.66655600  1
  B  B3  1  0.50000000  0.49990900  0.83336200  1
  B  B4  1  0.00000000  0.49849300  0.49978700  1
  B  B5  1  0.50000000  0.49888800  0.16769800  1
  O  O0  1  0.50000000  0.98971400  0.56985500  1
  O  O1  1  0.50000000  0.98590100  0.23621500  1
  O  O2  1  0.50000000  0.86327000  0.38875900  1
  O  O3  1  0.50000000  0.85995400  0.72016200  1
  O  O4  1  0.00000000  0.84522600  0.03901500  1
  O  O5  1  0.50000000  0.65218000  0.87483100  1
  O  O6  1  0.50000000  0.65002100  0.20990100  1
  O  O7  1  0.00000000  0.63532900  0.55646900  1
  O  O8  1  0.00000000  0.51463800  0.40253500  1
  O  O9  1  0.50000000  0.48777200  0.07090300  1
  O  O10  1  0.50000000  0.48612900  0.73652100  1
  O  O11  1  0.50000000  0.36159800  0.88883500  1
  O  O12  1  0.50000000  0.35954000  0.22220500  1
  O  O13  1  0.00000000  0.34482800  0.53932500  1
  O  O14  1  0.50000000  0.15497500  0.37319000  1
  O  O15  1  0.50000000  0.15034900  0.70975500  1
  O  O16  1  0.00000000  0.13560000  0.05788800  1
  O  O17  1  0.00000000  0.01894100  0.90332700  1
loop_
_geom_bond_atom_site_label_1
_geom_bond_atom_site_label_2
_geom_bond_distance
_geom_bond_site_symmetry_2
Li0 O5 1.977859 1_554
Li0 O4 2.006315 1_555
Li0 O4 2.006315 1_655
Li0 O9 2.017811 1_555
Li1 O10 1.974108 1_555
Li1 O3 2.004735 1_555
Li1 O7 2.017164 1_655
Li1 O7 2.017164 1_555
Li2 O2 1.991758 1_555
Li2 O6 1.997031 1_555
Li2 O8 2.019521 1_555
Li2 O8 2.019521 1_655
Li3 O14 1.978044 1_555
Li3 O0 2.006483 1_545
Li3 O13 2.008473 1_555
Li3 O13 2.008473 1_655
Li4 O1 1.968271 1_545
Li4 O16 2.010131 1_555
Li4 O16 2.010131 1_655
Li4 O12 2.011600 1_555
Li5 O11 1.972314 1_555
Li5 O17 2.005996 1_555
Li5 O17 2.005996 1_655
Li5 O15 2.006892 1_555
Mn0 O7 2.110622 1_555
Mn0 O0 2.184762 1_455
Mn0 O0 2.184762 1_555
Mn0 O2 2.190444 1_555
Mn0 O2 2.190444 1_455
Mn1 O4 2.109968 1_555
Mn1 O6 2.185968 1_555
Mn1 O6 2.185968 1_455
Mn1 O1 2.191350 1_455
Mn1 O1 2.191350 1_555
Mn2 O17 2.106879 1_565
Mn2 O3 2.186906 1_555
Mn2 O3 2.186906 1_455
Mn2 O5 2.194344 1_555
Mn2 O5 2.194344 1_455
Mn3 O16 2.104993 1_556
Mn3 O9 2.184135 1_456
Mn3 O9 2.184135 1_556
Mn3 O11 2.196461 1_455
Mn3 O11 2.196461 1_555
Mn4 O13 2.105724 1_555
Mn4 O15 2.182607 1_555
Mn4 O15 2.182607 1_455
Mn4 O10 2.194906 1_455
Mn4 O10 2.194906 1_555
Fe0 O8 2.039941 1_555
Fe0 O12 2.163604 1_555
Fe0 O12 2.163604 1_455
Fe0 O14 2.191482 1_555
Fe0 O14 2.191482 1_455
B0 O14 1.389457 1_555
B0 O1 1.393915 1_545
B0 O2 1.398643 1_545
B1 O16 1.394865 1_565
B1 O4 1.395289 1_555
B1 O17 1.396206 1_564
B2 O15 1.388802 1_555
B2 O0 1.389188 1_545
B2 O3 1.389653 1_545
B3 O11 1.392326 1_555
B3 O5 1.392789 1_555
B3 O10 1.393245 1_555
B4 O13 1.390732 1_555
B4 O7 1.393589 1_555
B4 O8 1.400618 1_555
B5 O6 1.388847 1_555
B5 O9 1.390939 1_555
B5 O12 1.391557 1_555
