# generated using pymatgen
data_K2Pr2H3(S2O9)2
_symmetry_space_group_name_H-M   'P 1'
_cell_length_a   15.65011200
_cell_length_b   10.18943500
_cell_length_c   11.01586351
_cell_angle_alpha   68.03011015
_cell_angle_beta   90.00000000
_cell_angle_gamma   90.00000000
_symmetry_Int_Tables_number   1
_chemical_formula_structural   K2Pr2H3(S2O9)2
_chemical_formula_sum   'K8 Pr8 H12 S16 O72'
_cell_volume   1629.08633673
_cell_formula_units_Z   4
loop_
 _symmetry_equiv_pos_site_id
 _symmetry_equiv_pos_as_xyz
  1  'x, y, z'
loop_
 _atom_site_type_symbol
 _atom_site_label
 _atom_site_symmetry_multiplicity
 _atom_site_fract_x
 _atom_site_fract_y
 _atom_site_fract_z
 _atom_site_occupancy
  K  K0  1  0.67146400  0.17363000  0.34671600  1
  K  K1  1  0.17146400  0.32637000  0.65328400  1
  K  K2  1  0.32853600  0.82637000  0.65328400  1
  K  K3  1  0.82853600  0.67363000  0.34671600  1
  K  K4  1  0.58079600  0.17332000  0.84542200  1
  K  K5  1  0.08079600  0.32668000  0.15457800  1
  K  K6  1  0.41920400  0.82668000  0.15457800  1
  K  K7  1  0.91920400  0.67332000  0.84542200  1
  Pr  Pr0  1  0.82982000  0.22958800  0.99849300  1
  Pr  Pr1  1  0.32982000  0.27041200  0.00150700  1
  Pr  Pr2  1  0.17018000  0.77041200  0.00150700  1
  Pr  Pr3  1  0.67018000  0.72958800  0.99849300  1
  Pr  Pr4  1  0.91882200  0.23532000  0.50444300  1
  Pr  Pr5  1  0.41882200  0.26468000  0.49555700  1
  Pr  Pr6  1  0.08117800  0.76468000  0.49555700  1
  Pr  Pr7  1  0.58117800  0.73532000  0.50444300  1
  H  H0  1  0.52531800  0.36937500  0.98840000  1
  H  H1  1  0.02531800  0.13062500  0.01160000  1
  H  H2  1  0.47468200  0.63062500  0.01160000  1
  H  H3  1  0.97468200  0.86937500  0.98840000  1
  H  H4  1  0.50838800  0.24304500  0.11750900  1
  H  H5  1  0.00838800  0.25695500  0.88249100  1
  H  H6  1  0.49161200  0.75695500  0.88249100  1
  H  H7  1  0.99161200  0.74304500  0.11750900  1
  H  H8  1  0.75210100  0.20646000  0.64040100  1
  H  H9  1  0.25210100  0.29354000  0.35959900  1
  H  H10  1  0.24789900  0.79354000  0.35959900  1
  H  H11  1  0.74789900  0.70646000  0.64040100  1
  S  S0  1  0.92903200  0.44879400  0.66706500  1
  S  S1  1  0.42903200  0.05120600  0.33293500  1
  S  S2  1  0.07096800  0.55120600  0.33293500  1
  S  S3  1  0.57096800  0.94879400  0.66706500  1
  S  S4  1  0.59012000  0.53199800  0.34700800  1
  S  S5  1  0.09012000  0.96800200  0.65299200  1
  S  S6  1  0.40988000  0.46800200  0.65299200  1
  S  S7  1  0.90988000  0.03199800  0.34700800  1
  S  S8  1  0.66802100  0.51575100  0.84086700  1
  S  S9  1  0.16802100  0.98424900  0.15913300  1
  S  S10  1  0.33197900  0.48424900  0.15913300  1
  S  S11  1  0.83197900  0.01575100  0.84086700  1
  S  S12  1  0.83061100  0.43918700  0.15583000  1
  S  S13  1  0.33061100  0.06081300  0.84417000  1
  S  S14  1  0.16938900  0.56081300  0.84417000  1
  S  S15  1  0.66938900  0.93918700  0.15583000  1
  O  O0  1  0.88325800  0.42132000  0.79232300  1
  O  O1  1  0.38325800  0.07868000  0.20767700  1
  O  O2  1  0.11674200  0.57868000  0.20767700  1
  O  O3  1  0.61674200  0.92132000  0.79232300  1
  O  O4  1  0.53366200  0.09317000  0.62262500  1
  O  O5  1  0.03366200  0.40683000  0.37737500  1
  O  O6  1  0.46633800  0.90683000  0.37737500  1
  O  O7  1  0.96633800  0.59317000  0.62262500  1
  O  O8  1  0.86900200  0.44138200  0.56350400  1
  O  O9  1  0.36900200  0.05861800  0.43649600  1
  O  O10  1  0.13099800  0.55861800  0.43649600  1
  O  O11  1  0.63099800  0.94138200  0.56350400  1
  O  O12  1  0.99509500  0.33734400  0.68567100  1
  O  O13  1  0.49509500  0.16265600  0.31432900  1
  O  O14  1  0.00490500  0.66265600  0.31432900  1
  O  O15  1  0.50490500  0.83734400  0.68567100  1
  O  O16  1  0.55933100  0.38367900  0.39653300  1
  O  O17  1  0.05933100  0.11632100  0.60346700  1
  O  O18  1  0.44066900  0.61632100  0.60346700  1
  O  O19  1  0.94066900  0.88367900  0.39653300  1
  O  O20  1  0.98032800  0.13102700  0.34885800  1
  O  O21  1  0.48032800  0.36897300  0.65114200  1
  O  O22  1  0.01967200  0.86897300  0.65114200  1
  O  O23  1  0.51967200  0.63102700  0.34885800  1
  O  O24  1  0.84134100  0.05248700  0.43312400  1
  O  O25  1  0.34134100  0.44751300  0.56687600  1
  O  O26  1  0.15865900  0.94751300  0.56687600  1
  O  O27  1  0.65865900  0.55248700  0.43312400  1
  O  O28  1  0.87743200  0.06779100  0.21174000  1
  O  O29  1  0.37743200  0.43220900  0.78826000  1
  O  O30  1  0.12256800  0.93220900  0.78826000  1
  O  O31  1  0.62256800  0.56779100  0.21174000  1
  O  O32  1  0.87879600  0.05493100  0.71540700  1
  O  O33  1  0.37879600  0.44506900  0.28459300  1
  O  O34  1  0.12120400  0.94506900  0.28459300  1
  O  O35  1  0.62120400  0.55493100  0.71540700  1
  O  O36  1  0.89169300  0.01782300  0.94631700  1
  O  O37  1  0.39169300  0.48217700  0.05368300  1
  O  O38  1  0.10830700  0.98217700  0.05368300  1
  O  O39  1  0.60830700  0.51782300  0.94631700  1
  O  O40  1  0.70486000  0.37270700  0.87434600  1
  O  O41  1  0.20486000  0.12729300  0.12565400  1
  O  O42  1  0.29514000  0.62729300  0.12565400  1
  O  O43  1  0.79514000  0.87270700  0.87434600  1
  O  O44  1  0.76492900  0.12499200  0.82986600  1
  O  O45  1  0.26492900  0.37500800  0.17013400  1
  O  O46  1  0.23507100  0.87500800  0.17013400  1
  O  O47  1  0.73507100  0.62499200  0.82986600  1
  O  O48  1  0.90441300  0.41636700  0.07926100  1
  O  O49  1  0.40441300  0.08363300  0.92073900  1
  O  O50  1  0.09558700  0.58363300  0.92073900  1
  O  O51  1  0.59558700  0.91636700  0.07926100  1
  O  O52  1  0.69569300  0.09050500  0.10243600  1
  O  O53  1  0.19569300  0.40949500  0.89756400  1
  O  O54  1  0.30430700  0.90949500  0.89756400  1
  O  O55  1  0.80430700  0.59050500  0.10243600  1
  O  O56  1  0.85222500  0.39912600  0.29632200  1
  O  O57  1  0.35222500  0.10087400  0.70367800  1
  O  O58  1  0.14777500  0.60087400  0.70367800  1
  O  O59  1  0.64777500  0.89912600  0.29632200  1
  O  O60  1  0.76066300  0.34667900  0.14000700  1
  O  O61  1  0.26066300  0.15332100  0.85999300  1
  O  O62  1  0.23933700  0.65332100  0.85999300  1
  O  O63  1  0.73933700  0.84667900  0.14000700  1
  O  O64  1  0.49713300  0.27630200  0.02243200  1
  O  O65  1  0.99713300  0.22369800  0.97756800  1
  O  O66  1  0.50286700  0.72369800  0.97756800  1
  O  O67  1  0.00286700  0.77630200  0.02243200  1
  O  O68  1  0.76038200  0.24142700  0.54461200  1
  O  O69  1  0.26038200  0.25857300  0.45538800  1
  O  O70  1  0.23961800  0.75857300  0.45538800  1
  O  O71  1  0.73961800  0.74142700  0.54461200  1
loop_
_geom_bond_atom_site_label_1
_geom_bond_atom_site_label_2
_geom_bond_distance
_geom_bond_site_symmetry_2
K0 O60 2.690483 1_555
K0 O11 2.734179 1_545
K0 O13 2.790755 1_555
K0 O68 2.879742 1_555
K0 O24 2.935763 1_555
K0 O16 2.973289 1_555
K0 O59 3.070972 1_545
K0 O52 3.131746 1_555
K1 O61 2.690483 1_555
K1 O10 2.734179 1_555
K1 O12 2.790755 1_455
K1 O69 2.879742 1_555
K1 O25 2.935763 1_555
K1 O17 2.973289 1_555
K1 O58 3.070972 1_555
K1 O53 3.131746 1_555
K2 O62 2.690483 1_555
K2 O9 2.734179 1_565
K2 O15 2.790755 1_555
K2 O70 2.879742 1_555
K2 O26 2.935763 1_555
K2 O18 2.973289 1_555
K2 O57 3.070972 1_565
K2 O54 3.131746 1_555
K3 O63 2.690483 1_555
K3 O8 2.734179 1_555
K3 O14 2.790755 1_655
K3 O71 2.879742 1_555
K3 O27 2.935763 1_555
K3 O19 2.973289 1_555
K3 O56 3.070972 1_555
K3 O55 3.131746 1_555
K4 O21 2.799018 1_555
K4 O64 2.854576 1_556
K4 O3 2.894082 1_545
K4 O40 2.912612 1_555
K4 O51 2.915077 1_546
K4 O49 2.928493 1_555
K4 O44 2.939252 1_555
K4 O4 2.955411 1_555
K4 O52 3.189618 1_556
K5 O20 2.799018 1_455
K5 O65 2.854576 1_454
K5 O2 2.894082 1_555
K5 O41 2.912612 1_555
K5 O50 2.915077 1_554
K5 O48 2.928493 1_455
K5 O45 2.939252 1_555
K5 O5 2.955411 1_555
K5 O53 3.189618 1_554
K6 O23 2.799018 1_555
K6 O66 2.854576 1_554
K6 O1 2.894082 1_565
K6 O42 2.912612 1_555
K6 O49 2.915077 1_564
K6 O51 2.928493 1_555
K6 O46 2.939252 1_555
K6 O6 2.955411 1_555
K6 O54 3.189618 1_554
K7 O22 2.799018 1_655
K7 O67 2.854576 1_656
K7 O0 2.894082 1_555
K7 O43 2.912612 1_555
K7 O48 2.915077 1_556
K7 O50 2.928493 1_655
K7 O47 2.939252 1_555
K7 O7 2.955411 1_555
K7 O55 3.189618 1_556
H0 O64 0.984112 1_556
H1 O65 0.984112 1_454
H2 O66 0.984112 1_554
H3 O67 0.984112 1_656
H4 O64 0.988559 1_555
H5 O65 0.988559 1_455
H6 O66 0.988559 1_555
H7 O67 0.988559 1_655
H8 O68 0.987865 1_555
H9 O69 0.987865 1_555
H10 O70 0.987865 1_555
H11 O71 0.987865 1_555
O0 S0 1.485410 1_555
O0 Pr0 2.520769 1_555
O1 S1 1.485410 1_555
O1 Pr1 2.520769 1_555
O2 S2 1.485410 1_555
O2 Pr2 2.520769 1_555
O3 S3 1.485410 1_555
O3 Pr3 2.520769 1_555
O4 S3 1.485203 1_545
O4 Pr5 2.532429 1_555
O5 S2 1.485203 1_555
O5 Pr4 2.532429 1_455
O6 S1 1.485203 1_565
O6 Pr7 2.532429 1_555
O7 S0 1.485203 1_555
O7 Pr6 2.532429 1_655
O8 S0 1.501414 1_555
O8 Pr4 2.542025 1_555
O9 S1 1.501414 1_555
O9 Pr5 2.542025 1_555
O10 S2 1.501414 1_555
O10 Pr6 2.542025 1_555
O11 S3 1.501414 1_555
O11 Pr7 2.542025 1_555
O12 S0 1.492114 1_555
O12 Pr4 2.836193 1_555
O13 S1 1.492114 1_555
O13 Pr5 2.836193 1_555
O14 S2 1.492114 1_555
O14 Pr6 2.836193 1_555
O15 S3 1.492114 1_555
O15 Pr7 2.836193 1_555
O16 S4 1.482189 1_555
O16 Pr5 2.550686 1_555
O17 S5 1.482189 1_545
O17 Pr4 2.550686 1_455
O18 S6 1.482189 1_555
O18 Pr7 2.550686 1_555
O19 S7 1.482189 1_565
O19 Pr6 2.550686 1_655
O20 S7 1.499844 1_555
O20 Pr4 2.521134 1_555
O21 S6 1.499844 1_555
O21 Pr5 2.521134 1_555
O22 S5 1.499844 1_555
O22 Pr6 2.521134 1_555
O23 S4 1.499844 1_555
O23 Pr7 2.521134 1_555
O24 S7 1.497417 1_555
O24 Pr4 2.579413 1_555
O25 S6 1.497417 1_555
O25 Pr5 2.579413 1_555
O26 S5 1.497417 1_555
O26 Pr6 2.579413 1_555
O27 S4 1.497417 1_555
O27 Pr7 2.579413 1_555
O28 S7 1.484802 1_555
O28 Pr0 2.427691 1_554
O29 S6 1.484802 1_555
O29 Pr1 2.427691 1_556
O30 S5 1.484802 1_555
O30 Pr2 2.427691 1_556
O31 S4 1.484802 1_555
O31 Pr3 2.427691 1_554
O32 S11 1.481027 1_555
O32 Pr4 2.444475 1_555
O33 S10 1.481027 1_555
O33 Pr5 2.444475 1_555
O34 S9 1.481027 1_555
O34 Pr6 2.444475 1_555
O35 S8 1.481027 1_555
O35 Pr7 2.444475 1_555
O36 S11 1.497168 1_555
O36 Pr0 2.617617 1_555
O37 S10 1.497168 1_555
O37 Pr1 2.617617 1_555
O38 S9 1.497168 1_555
O38 Pr2 2.617617 1_555
O39 S8 1.497168 1_555
O39 Pr3 2.617617 1_555
O40 S8 1.480072 1_555
O40 Pr0 2.515791 1_555
O41 S9 1.480072 1_545
O41 Pr1 2.515791 1_555
O42 S10 1.480072 1_555
O42 Pr2 2.515791 1_555
O43 S11 1.480072 1_565
O43 Pr3 2.515791 1_555
O44 S11 1.501289 1_555
O44 Pr0 2.664417 1_555
O45 S10 1.501289 1_555
O45 Pr1 2.664417 1_555
O46 S9 1.501289 1_555
O46 Pr2 2.664417 1_555
O47 S8 1.501289 1_555
O47 Pr3 2.664417 1_555
O48 S12 1.498770 1_555
O48 Pr0 2.653955 1_554
O49 S13 1.498770 1_555
O49 Pr1 2.653955 1_556
O50 S14 1.498770 1_555
O50 Pr2 2.653955 1_556
O51 S15 1.498770 1_555
O51 Pr3 2.653955 1_554
O52 S15 1.487999 1_545
O52 Pr0 2.551770 1_554
O53 S14 1.487999 1_555
O53 Pr1 2.551770 1_556
O54 S13 1.487999 1_565
O54 Pr2 2.551770 1_556
O55 S12 1.487999 1_555
O55 Pr3 2.551770 1_554
O56 S12 1.484433 1_555
O56 Pr4 2.503017 1_555
O57 S13 1.484433 1_555
O57 Pr5 2.503017 1_555
O58 S14 1.484433 1_555
O58 Pr6 2.503017 1_555
O59 S15 1.484433 1_555
O59 Pr7 2.503017 1_555
O60 S12 1.496721 1_555
O60 Pr0 2.533119 1_554
O61 S13 1.496721 1_555
O61 Pr1 2.533119 1_556
O62 S14 1.496721 1_555
O62 Pr2 2.533119 1_556
O63 S15 1.496721 1_555
O63 Pr3 2.533119 1_554
O64 Pr1 2.631246 1_555
O65 Pr0 2.631246 1_555
O66 Pr3 2.631246 1_555
O67 Pr2 2.631246 1_555
O68 Pr4 2.523631 1_555
O69 Pr5 2.523631 1_555
O70 Pr6 2.523631 1_555
O71 Pr7 2.523631 1_555
