# generated using pymatgen
data_Li2NdAs2
_symmetry_space_group_name_H-M   'P 1'
_cell_length_a   4.28640285
_cell_length_b   4.28640285
_cell_length_c   7.03044900
_cell_angle_alpha   90.00000000
_cell_angle_beta   90.00000000
_cell_angle_gamma   120.00001306
_symmetry_Int_Tables_number   1
_chemical_formula_structural   Li2NdAs2
_chemical_formula_sum   'Li2 Nd1 As2'
_cell_volume   111.86638552
_cell_formula_units_Z   1
loop_
 _symmetry_equiv_pos_site_id
 _symmetry_equiv_pos_as_xyz
  1  'x, y, z'
loop_
 _atom_site_type_symbol
 _atom_site_label
 _atom_site_symmetry_multiplicity
 _atom_site_fract_x
 _atom_site_fract_y
 _atom_site_fract_z
 _atom_site_occupancy
  Li  Li0  1  0.66666700  0.33333300  0.62410900  1
  Li  Li1  1  0.33333300  0.66666700  0.37589100  1
  Nd  Nd0  1  0.00000000  0.00000000  0.00000000  1
  As  As0  1  0.66666700  0.33333300  0.24415400  1
  As  As1  1  0.33333300  0.66666700  0.75584600  1
loop_
_geom_bond_atom_site_label_1
_geom_bond_atom_site_label_2
_geom_bond_distance
_geom_bond_site_symmetry_2
As0 Li1 2.642384 1_545
As0 Li1 2.642384 1_655
As0 Li1 2.642392 1_555
As0 Li0 2.671254 1_555
As0 Nd0 3.011780 1_655
As0 Nd0 3.011783 1_665
As0 Nd0 3.011783 1_555
As1 Li0 2.642384 1_455
As1 Li0 2.642384 1_565
As1 Li0 2.642392 1_555
As1 Li1 2.671254 1_555
As1 Nd0 3.011780 1_566
As1 Nd0 3.011783 1_666
As1 Nd0 3.011783 1_556
