# generated using pymatgen
data_Li8Mn5Fe3(BO3)8
_symmetry_space_group_name_H-M   'P 1'
_cell_length_a   5.24304500
_cell_length_b   6.02796083
_cell_length_c   16.18618086
_cell_angle_alpha   81.78649474
_cell_angle_beta   88.77683675
_cell_angle_gamma   89.19914899
_symmetry_Int_Tables_number   1
_chemical_formula_structural   Li8Mn5Fe3(BO3)8
_chemical_formula_sum   'Li8 Mn5 Fe3 B8 O24'
_cell_volume   506.16859651
_cell_formula_units_Z   1
loop_
 _symmetry_equiv_pos_site_id
 _symmetry_equiv_pos_as_xyz
  1  'x, y, z'
loop_
 _atom_site_type_symbol
 _atom_site_label
 _atom_site_symmetry_multiplicity
 _atom_site_fract_x
 _atom_site_fract_y
 _atom_site_fract_z
 _atom_site_occupancy
  Li  Li0  1  0.84619500  0.06490900  0.38922400  1
  Li  Li1  1  0.15154700  0.43601800  0.10921100  1
  Li  Li2  1  0.65200800  0.18775000  0.86008000  1
  Li  Li3  1  0.35066100  0.31186200  0.64045000  1
  Li  Li4  1  0.65147600  0.68853600  0.35876600  1
  Li  Li5  1  0.34815200  0.81343400  0.14023900  1
  Li  Li6  1  0.84693100  0.56356500  0.88993800  1
  Li  Li7  1  0.15119100  0.93473900  0.61054400  1
  Mn  Mn0  1  0.16715600  0.02332100  0.78968300  1
  Mn  Mn1  1  0.33144500  0.22427600  0.46117100  1
  Mn  Mn2  1  0.16726000  0.52472200  0.29063200  1
  Mn  Mn3  1  0.66936800  0.77259600  0.54149900  1
  Mn  Mn4  1  0.33157000  0.72386700  0.96048600  1
  Fe  Fe0  1  0.66701400  0.27203600  0.04316500  1
  Fe  Fe1  1  0.83811000  0.47274500  0.71055100  1
  Fe  Fe2  1  0.83771500  0.97257600  0.20858600  1
  B  B0  1  0.32703000  0.03678000  0.29616400  1
  B  B1  1  0.82871400  0.28370100  0.54907100  1
  B  B2  1  0.67021700  0.46312800  0.20185900  1
  B  B3  1  0.17218100  0.21649400  0.95291100  1
  B  B4  1  0.82807400  0.78690000  0.04804200  1
  B  B5  1  0.32749300  0.53628000  0.79596000  1
  B  B6  1  0.17136700  0.71656000  0.45231700  1
  B  B7  1  0.67309400  0.96406700  0.70303800  1
  O  O0  1  0.58618700  0.01199900  0.30812300  1
  O  O1  1  0.18015100  0.17032500  0.34364000  1
  O  O2  1  0.71416000  0.16818400  0.49144500  1
  O  O3  1  0.29670100  0.33180900  0.00885200  1
  O  O4  1  0.78652500  0.08311400  0.75991800  1
  O  O5  1  0.81840700  0.32676900  0.15484100  1
  O  O6  1  0.31884300  0.08042300  0.90608100  1
  O  O7  1  0.08741500  0.26121100  0.56351500  1
  O  O8  1  0.41140900  0.48744000  0.18784800  1
  O  O9  1  0.91213900  0.24080600  0.94082400  1
  O  O10  1  0.67928600  0.41961500  0.59513400  1
  O  O11  1  0.20738900  0.42172200  0.73846200  1
  O  O12  1  0.78736000  0.57901500  0.25886100  1
  O  O13  1  0.32222900  0.58021200  0.40674300  1
  O  O14  1  0.08642400  0.76251900  0.06304800  1
  O  O15  1  0.58647200  0.51140700  0.80879300  1
  O  O16  1  0.91283400  0.73950600  0.43730700  1
  O  O17  1  0.67756800  0.92081200  0.09512700  1
  O  O18  1  0.17956800  0.66906600  0.84339000  1
  O  O19  1  0.20446800  0.92250800  0.23921200  1
  O  O20  1  0.71359900  0.67344400  0.98997500  1
  O  O21  1  0.28698200  0.83346400  0.50946700  1
  O  O22  1  0.82349400  0.82689400  0.65792500  1
  O  O23  1  0.41442100  0.98687400  0.68788100  1
loop_
_geom_bond_atom_site_label_1
_geom_bond_atom_site_label_2
_geom_bond_distance
_geom_bond_site_symmetry_2
Li0 O2 1.959014 1_555
Li0 O1 1.963665 1_655
Li0 O0 1.972697 1_555
Li0 O16 2.032635 1_545
Li1 O8 1.941926 1_555
Li1 O3 1.959074 1_555
Li1 O5 1.966757 1_455
Li1 O14 2.029870 1_555
Li2 O4 1.937679 1_555
Li2 O6 1.965374 1_555
Li2 O9 1.969329 1_555
Li2 O15 2.035743 1_555
Li3 O7 1.934614 1_555
Li3 O11 1.937785 1_555
Li3 O10 1.941602 1_555
Li3 O23 2.025296 1_545
Li4 O16 1.945777 1_555
Li4 O12 1.949635 1_555
Li4 O13 1.959281 1_555
Li4 O0 2.031642 1_565
Li5 O14 1.932066 1_555
Li5 O17 1.943586 1_555
Li5 O19 1.949819 1_555
Li5 O8 2.031105 1_555
Li6 O20 1.947928 1_555
Li6 O18 1.962587 1_655
Li6 O15 1.973669 1_555
Li6 O9 2.028823 1_555
Li7 O23 1.941335 1_555
Li7 O21 1.944153 1_555
Li7 O22 1.948143 1_455
Li7 O7 2.031890 1_565
Mn0 O4 2.077506 1_455
Mn0 O23 2.109135 1_545
Mn0 O6 2.134831 1_555
Mn0 O18 2.188183 1_545
Mn0 O11 2.436613 1_555
Mn1 O2 2.087230 1_555
Mn1 O7 2.106586 1_555
Mn1 O1 2.145332 1_555
Mn1 O13 2.200174 1_555
Mn1 O21 2.386759 1_545
Mn2 O12 2.077590 1_455
Mn2 O8 2.113012 1_555
Mn2 O13 2.134616 1_555
Mn2 O1 2.186137 1_555
Mn2 O19 2.432349 1_555
Mn3 O21 2.095804 1_555
Mn3 O16 2.123798 1_555
Mn3 O22 2.135438 1_555
Mn3 O10 2.180543 1_555
Mn3 O2 2.419367 1_565
Mn4 O20 2.077149 1_555
Mn4 O14 2.115005 1_556
Mn4 O18 2.141798 1_555
Mn4 O6 2.203894 1_565
Mn4 O3 2.389323 1_556
Fe0 O3 2.043839 1_555
Fe0 O5 2.060420 1_555
Fe0 O9 2.103011 1_554
Fe0 O17 2.163971 1_545
Fe0 O20 2.463334 1_554
Fe1 O11 2.007076 1_655
Fe1 O15 2.081186 1_555
Fe1 O10 2.128577 1_555
Fe1 O22 2.183450 1_555
Fe1 O4 2.387520 1_555
Fe2 O19 2.004022 1_655
Fe2 O0 2.097922 1_565
Fe2 O17 2.100450 1_555
Fe2 O5 2.189186 1_565
Fe2 O12 2.411801 1_555
B0 O0 1.379615 1_555
B0 O19 1.398674 1_545
B0 O1 1.402054 1_555
B1 O7 1.382805 1_655
B1 O2 1.391694 1_555
B1 O10 1.404486 1_555
B2 O8 1.382853 1_555
B2 O12 1.391700 1_555
B2 O5 1.412136 1_555
B3 O9 1.384289 1_455
B3 O3 1.395369 1_556
B3 O6 1.404906 1_555
B4 O14 1.383350 1_655
B4 O20 1.389449 1_554
B4 O17 1.409761 1_555
B5 O15 1.380871 1_555
B5 O11 1.400126 1_555
B5 O18 1.401567 1_555
B6 O16 1.383747 1_455
B6 O21 1.393512 1_555
B6 O13 1.405513 1_555
B7 O23 1.384853 1_555
B7 O4 1.392973 1_565
B7 O22 1.403013 1_555
