# generated using pymatgen
data_Li3Si2(NiO4)2
_symmetry_space_group_name_H-M   'P 1'
_cell_length_a   4.96542100
_cell_length_b   5.34370819
_cell_length_c   6.41511512
_cell_angle_alpha   89.99352269
_cell_angle_beta   89.87570200
_cell_angle_gamma   89.49667666
_symmetry_Int_Tables_number   1
_chemical_formula_structural   Li3Si2(NiO4)2
_chemical_formula_sum   'Li3 Si2 Ni2 O8'
_cell_volume   170.21016141
_cell_formula_units_Z   1
loop_
 _symmetry_equiv_pos_site_id
 _symmetry_equiv_pos_as_xyz
  1  'x, y, z'
loop_
 _atom_site_type_symbol
 _atom_site_label
 _atom_site_symmetry_multiplicity
 _atom_site_fract_x
 _atom_site_fract_y
 _atom_site_fract_z
 _atom_site_occupancy
  Li  Li0  1  0.49712500  0.16842900  0.99245900  1
  Li  Li1  1  0.99986400  0.81955000  0.50346100  1
  Li  Li2  1  0.00541600  0.34332400  0.24091300  1
  Si  Si0  1  0.99615700  0.32683000  0.74554700  1
  Si  Si1  1  0.48822600  0.68093400  0.24805200  1
  Ni  Ni0  1  0.99833500  0.82461300  0.98484300  1
  Ni  Ni1  1  0.50202300  0.17033600  0.49379000  1
  O  O0  1  0.10091100  0.19183200  0.96171200  1
  O  O1  1  0.66687000  0.27475600  0.73241600  1
  O  O2  1  0.06408200  0.62086300  0.74319600  1
  O  O3  1  0.12242300  0.18772600  0.53121700  1
  O  O4  1  0.59639200  0.84082900  0.45358700  1
  O  O5  1  0.59488600  0.38258300  0.26693200  1
  O  O6  1  0.15723100  0.68113200  0.24461500  1
  O  O7  1  0.61019400  0.81994900  0.04507800  1
loop_
_geom_bond_atom_site_label_1
_geom_bond_atom_site_label_2
_geom_bond_distance
_geom_bond_site_symmetry_2
Li0 O1 1.954033 1_555
Li0 O7 1.969559 1_546
Li0 O0 1.980516 1_555
Li0 O5 2.158585 1_556
Li1 O2 1.894722 1_655
Li1 O6 1.974721 1_655
Li1 O4 2.031677 1_555
Li1 O3 2.072292 1_665
Li2 O6 1.962490 1_555
Li2 O0 2.019440 1_554
Li2 O5 2.053822 1_455
Li2 O3 2.119678 1_555
Ni0 O2 1.920172 1_655
Ni0 O7 1.965189 1_556
Ni0 O6 1.995560 1_656
Ni0 O0 2.036976 1_665
Ni1 O1 1.827128 1_555
Ni1 O4 1.836177 1_545
Ni1 O3 1.901051 1_555
Ni1 O5 1.903380 1_555
O0 Si0 1.646290 1_455
O1 Si0 1.663283 1_555
O2 Si0 1.609975 1_455
O3 Si0 1.680601 1_455
O4 Si1 1.663861 1_555
O5 Si1 1.679986 1_555
O6 Si1 1.643716 1_555
O7 Si1 1.618130 1_555
