# generated using pymatgen
data_Sr(CdSb)2
_symmetry_space_group_name_H-M   'P 1'
_cell_length_a   4.75283313
_cell_length_b   4.75283396
_cell_length_c   7.89311149
_cell_angle_alpha   90.00000000
_cell_angle_beta   90.00000000
_cell_angle_gamma   120.00000849
_symmetry_Int_Tables_number   1
_chemical_formula_structural   Sr(CdSb)2
_chemical_formula_sum   'Sr1 Cd2 Sb2'
_cell_volume   154.41306401
_cell_formula_units_Z   1
loop_
 _symmetry_equiv_pos_site_id
 _symmetry_equiv_pos_as_xyz
  1  'x, y, z'
loop_
 _atom_site_type_symbol
 _atom_site_label
 _atom_site_symmetry_multiplicity
 _atom_site_fract_x
 _atom_site_fract_y
 _atom_site_fract_z
 _atom_site_occupancy
  Sr  Sr0  1  -0.00000000  0.00000000  -0.00000000  1
  Cd  Cd0  1  0.33333300  0.66666700  0.63190388  1
  Cd  Cd1  1  0.66666700  0.33333300  0.36809612  1
  Sb  Sb0  1  0.33333300  0.66666700  0.25200796  1
  Sb  Sb1  1  0.66666700  0.33333300  0.74799204  1
loop_
_geom_bond_atom_site_label_1
_geom_bond_atom_site_label_2
_geom_bond_distance
_geom_bond_site_symmetry_2
Cd0 Sb1 2.892990 1_455
Cd0 Sb1 2.892990 1_565
Cd0 Sb1 2.892998 1_555
Cd0 Sb0 2.998561 1_555
Cd1 Sb0 2.892990 1_655
Cd1 Sb0 2.892990 1_545
Cd1 Sb0 2.892998 1_555
Cd1 Sb1 2.998561 1_555
Sb0 Sr0 3.389162 1_565
Sb0 Sr0 3.389165 1_665
Sb0 Sr0 3.389165 1_555
Sb1 Sr0 3.389162 1_656
Sb1 Sr0 3.389165 1_556
Sb1 Sr0 3.389165 1_666
