# generated using pymatgen
data_Li5Co2Cu2(PO4)4
_symmetry_space_group_name_H-M   'P 1'
_cell_length_a   4.85815400
_cell_length_b   6.21431509
_cell_length_c   10.23574976
_cell_angle_alpha   87.84349448
_cell_angle_beta   86.97638884
_cell_angle_gamma   89.11036653
_symmetry_Int_Tables_number   1
_chemical_formula_structural   Li5Co2Cu2(PO4)4
_chemical_formula_sum   'Li5 Co2 Cu2 P4 O16'
_cell_volume   308.34117065
_cell_formula_units_Z   1
loop_
 _symmetry_equiv_pos_site_id
 _symmetry_equiv_pos_as_xyz
  1  'x, y, z'
loop_
 _atom_site_type_symbol
 _atom_site_label
 _atom_site_symmetry_multiplicity
 _atom_site_fract_x
 _atom_site_fract_y
 _atom_site_fract_z
 _atom_site_occupancy
  Li  Li0  1  0.04488300  0.48598100  0.01879300  1
  Li  Li1  1  0.10681300  0.97851700  0.13199600  1
  Li  Li2  1  0.53487100  0.99959800  0.46233000  1
  Li  Li3  1  0.45940200  0.50917800  0.52440200  1
  Li  Li4  1  0.89464800  0.02347000  0.86954900  1
  Co  Co0  1  0.54483000  0.73162200  0.21436800  1
  Co  Co1  1  0.45559100  0.26158700  0.78428100  1
  Cu  Cu0  1  0.08525700  0.27095800  0.30203800  1
  Cu  Cu1  1  0.91585000  0.73101200  0.70379700  1
  P  P0  1  0.60325600  0.24597700  0.09588800  1
  P  P1  1  0.08630900  0.75395900  0.40180100  1
  P  P2  1  0.91109100  0.25219200  0.60070500  1
  P  P3  1  0.39999900  0.75406000  0.90395300  1
  O  O0  1  0.30014700  0.74488300  0.05320300  1
  O  O1  1  0.28348300  0.25508400  0.11224900  1
  O  O2  1  0.72065100  0.03404000  0.16055300  1
  O  O3  1  0.73315200  0.44401900  0.15800500  1
  O  O4  1  0.24341200  0.55658700  0.33952600  1
  O  O5  1  0.22457900  0.94793300  0.32024300  1
  O  O6  1  0.77150200  0.74895300  0.39371500  1
  O  O7  1  0.81955900  0.23006800  0.45868500  1
  O  O8  1  0.18089700  0.76265300  0.54408900  1
  O  O9  1  0.22499500  0.27092600  0.60739400  1
  O  O10  1  0.78725200  0.06075600  0.68747700  1
  O  O11  1  0.74579800  0.45121000  0.65786900  1
  O  O12  1  0.27132100  0.55304200  0.84484700  1
  O  O13  1  0.27615000  0.96565200  0.84230400  1
  O  O14  1  0.71748900  0.74998000  0.88806700  1
  O  O15  1  0.70098700  0.25263100  0.94826500  1
loop_
_geom_bond_atom_site_label_1
_geom_bond_atom_site_label_2
_geom_bond_distance
_geom_bond_site_symmetry_2
Li0 O3 2.036814 1_455
Li0 O1 2.068715 1_555
Li0 O12 2.075008 1_554
Li0 O0 2.097896 1_555
Li0 O15 2.386726 1_454
Li0 O14 2.643862 1_454
Li1 O0 1.899063 1_555
Li1 O2 1.911449 1_465
Li1 O1 1.932025 1_565
Li1 O5 2.039990 1_555
Li2 O7 2.004376 1_565
Li2 O6 2.045103 1_555
Li2 O5 2.184517 1_555
Li2 O8 2.379025 1_555
Li3 O9 2.016483 1_555
Li3 O11 2.019872 1_555
Li3 O8 2.069151 1_555
Li3 O4 2.219627 1_555
Li3 O6 2.452495 1_555
Li3 O7 2.528188 1_555
Li4 O15 1.878065 1_555
Li4 O13 1.890576 1_645
Li4 O14 1.915495 1_545
Li4 O10 1.966062 1_555
Co0 O0 2.082004 1_555
Co0 O3 2.082137 1_555
Co0 O2 2.118294 1_565
Co0 O4 2.171471 1_555
Co0 O6 2.196830 1_555
Co0 O5 2.295384 1_555
Co1 O13 2.099450 1_545
Co1 O12 2.107547 1_555
Co1 O15 2.108018 1_555
Co1 O9 2.177291 1_555
Co1 O11 2.189733 1_555
Co1 O10 2.235561 1_555
Cu0 O4 2.003218 1_555
Cu0 O7 2.015641 1_455
Cu0 O5 2.113145 1_545
Cu0 O1 2.127219 1_555
Cu0 O3 2.519088 1_455
Cu1 O11 2.018403 1_555
Cu1 O8 2.032396 1_655
Cu1 O14 2.078830 1_555
Cu1 O10 2.136038 1_565
Cu1 O12 2.524563 1_655
O0 P3 1.577503 1_554
O1 P0 1.554081 1_555
O2 P0 1.564886 1_555
O3 P0 1.562829 1_555
O4 P1 1.572153 1_555
O5 P1 1.578421 1_555
O6 P1 1.536831 1_655
O7 P2 1.554015 1_555
O8 P1 1.553238 1_555
O9 P2 1.536547 1_455
O10 P2 1.566014 1_555
O11 P2 1.578236 1_555
O12 P3 1.561510 1_555
O13 P3 1.562757 1_555
O14 P3 1.542325 1_555
O15 P0 1.559031 1_556
