# generated using pymatgen
data_Na2Ni3(P2O7)2
_symmetry_space_group_name_H-M   'P 1'
_cell_length_a   8.22837500
_cell_length_b   7.40916100
_cell_length_c   9.50084243
_cell_angle_alpha   68.55918710
_cell_angle_beta   90.00000000
_cell_angle_gamma   90.00000000
_symmetry_Int_Tables_number   1
_chemical_formula_structural   Na2Ni3(P2O7)2
_chemical_formula_sum   'Na4 Ni6 P8 O28'
_cell_volume   539.13754665
_cell_formula_units_Z   2
loop_
 _symmetry_equiv_pos_site_id
 _symmetry_equiv_pos_as_xyz
  1  'x, y, z'
loop_
 _atom_site_type_symbol
 _atom_site_label
 _atom_site_symmetry_multiplicity
 _atom_site_fract_x
 _atom_site_fract_y
 _atom_site_fract_z
 _atom_site_occupancy
  Na  Na0  1  0.41779600  0.68953900  0.87793400  1
  Na  Na1  1  0.08220400  0.68953900  0.37793400  1
  Na  Na2  1  0.91779600  0.31046100  0.62206600  1
  Na  Na3  1  0.58220400  0.31046100  0.12206600  1
  Ni  Ni0  1  0.00000000  0.00000000  0.50000000  1
  Ni  Ni1  1  0.38158600  0.82080100  0.51354500  1
  Ni  Ni2  1  0.50000000  0.00000000  0.00000000  1
  Ni  Ni3  1  0.11841400  0.82080100  0.01354500  1
  Ni  Ni4  1  0.88158600  0.17919900  0.98645500  1
  Ni  Ni5  1  0.61841400  0.17919900  0.48645500  1
  P  P0  1  0.79865400  0.88987600  0.80599000  1
  P  P1  1  0.70134600  0.88987600  0.30599000  1
  P  P2  1  0.04042100  0.60079600  0.79102900  1
  P  P3  1  0.54042100  0.39920400  0.70897100  1
  P  P4  1  0.45957900  0.60079600  0.29102900  1
  P  P5  1  0.95957900  0.39920400  0.20897100  1
  P  P6  1  0.29865400  0.11012400  0.69401000  1
  P  P7  1  0.20134600  0.11012400  0.19401000  1
  O  O0  1  0.29686100  0.98774700  0.86598100  1
  O  O1  1  0.92449400  0.97456000  0.88641000  1
  O  O2  1  0.63595100  0.86113600  0.88411400  1
  O  O3  1  0.20313900  0.98774700  0.36598100  1
  O  O4  1  0.57550600  0.97456000  0.38641000  1
  O  O5  1  0.86150700  0.68272900  0.81269200  1
  O  O6  1  0.15117400  0.63021600  0.90922000  1
  O  O7  1  0.86404900  0.86113600  0.38411400  1
  O  O8  1  0.09872300  0.72121300  0.62818600  1
  O  O9  1  0.50729800  0.61056100  0.68602300  1
  O  O10  1  0.63849300  0.68272900  0.31269200  1
  O  O11  1  0.34882600  0.63021600  0.40922000  1
  O  O12  1  0.40127700  0.72121300  0.12818600  1
  O  O13  1  0.00729800  0.38943900  0.81397700  1
  O  O14  1  0.99270200  0.61056100  0.18602300  1
  O  O15  1  0.59872300  0.27878700  0.87181400  1
  O  O16  1  0.65117400  0.36978400  0.59078000  1
  O  O17  1  0.36150700  0.31727100  0.68730800  1
  O  O18  1  0.49270200  0.38943900  0.31397700  1
  O  O19  1  0.90127700  0.27878700  0.37181400  1
  O  O20  1  0.13595100  0.13886400  0.61588600  1
  O  O21  1  0.84882600  0.36978400  0.09078000  1
  O  O22  1  0.13849300  0.31727100  0.18730800  1
  O  O23  1  0.42449400  0.02544000  0.61359000  1
  O  O24  1  0.79686100  0.01225300  0.63401900  1
  O  O25  1  0.36404900  0.13886400  0.11588600  1
  O  O26  1  0.07550600  0.02544000  0.11359000  1
  O  O27  1  0.70313900  0.01225300  0.13401900  1
loop_
_geom_bond_atom_site_label_1
_geom_bond_atom_site_label_2
_geom_bond_distance
_geom_bond_site_symmetry_2
Na0 O2 2.212849 1_555
Na0 O9 2.233669 1_555
Na0 O6 2.235861 1_555
Na0 O0 2.387769 1_555
Na0 O12 2.476787 1_556
Na1 O7 2.212849 1_455
Na1 O14 2.233669 1_455
Na1 O11 2.235861 1_555
Na1 O3 2.387769 1_555
Na1 O8 2.476787 1_555
Na2 O20 2.212849 1_655
Na2 O13 2.233669 1_655
Na2 O16 2.235861 1_555
Na2 O24 2.387769 1_555
Na2 O19 2.476787 1_555
Na3 O25 2.212849 1_555
Na3 O18 2.233669 1_555
Na3 O21 2.235861 1_555
Na3 O27 2.387769 1_555
Na3 O15 2.476787 1_554
Ni0 O20 2.085750 1_555
Ni0 O7 2.085750 1_445
Ni0 O3 2.123194 1_545
Ni0 O24 2.123194 1_455
Ni0 O8 2.137895 1_545
Ni0 O19 2.137895 1_455
Ni1 O11 2.017988 1_555
Ni1 O4 2.072899 1_555
Ni1 O9 2.077397 1_555
Ni1 O23 2.092990 1_565
Ni1 O3 2.093737 1_555
Ni1 O8 2.561346 1_555
Ni2 O2 2.085750 1_544
Ni2 O25 2.085750 1_555
Ni2 O27 2.123194 1_555
Ni2 O0 2.123194 1_544
Ni2 O12 2.137895 1_545
Ni2 O15 2.137895 1_554
Ni3 O6 2.017988 1_554
Ni3 O1 2.072899 1_454
Ni3 O14 2.077397 1_455
Ni3 O26 2.092990 1_565
Ni3 O0 2.093737 1_554
Ni3 O12 2.561346 1_555
Ni4 O21 2.017988 1_556
Ni4 O26 2.072899 1_656
Ni4 O13 2.077397 1_655
Ni4 O1 2.092990 1_545
Ni4 O27 2.093737 1_556
Ni4 O15 2.561346 1_555
Ni5 O16 2.017988 1_555
Ni5 O23 2.072899 1_555
Ni5 O18 2.077397 1_555
Ni5 O4 2.092990 1_545
Ni5 O24 2.093737 1_555
Ni5 O19 2.561346 1_555
O0 P6 1.552036 1_565
O1 P0 1.549231 1_555
O2 P0 1.507665 1_555
O3 P7 1.552036 1_565
O4 P1 1.549231 1_555
O5 P0 1.598639 1_555
O5 P2 1.633863 1_655
O6 P2 1.522464 1_555
O7 P1 1.507665 1_555
O8 P2 1.552630 1_555
O9 P3 1.524630 1_555
O10 P1 1.598639 1_555
O10 P4 1.633863 1_555
O11 P4 1.522464 1_555
O12 P4 1.552630 1_555
O13 P2 1.524630 1_555
O14 P5 1.524630 1_555
O15 P3 1.552630 1_555
O16 P3 1.522464 1_555
O17 P6 1.598639 1_555
O17 P3 1.633863 1_555
O18 P4 1.524630 1_555
O19 P5 1.552630 1_555
O20 P6 1.507665 1_555
O21 P5 1.522464 1_555
O22 P7 1.598639 1_555
O22 P5 1.633863 1_455
O23 P6 1.549231 1_555
O24 P0 1.552036 1_545
O25 P7 1.507665 1_555
O26 P7 1.549231 1_555
O27 P1 1.552036 1_545
