# generated using pymatgen
data_LiSbPO5
_symmetry_space_group_name_H-M   'P 1'
_cell_length_a   8.36766000
_cell_length_b   10.37580448
_cell_length_c   11.05648385
_cell_angle_alpha   78.96062043
_cell_angle_beta   68.54338606
_cell_angle_gamma   67.59756740
_symmetry_Int_Tables_number   1
_chemical_formula_structural   LiSbPO5
_chemical_formula_sum   'Li8 Sb8 P8 O40'
_cell_volume   824.46888913
_cell_formula_units_Z   8
loop_
 _symmetry_equiv_pos_site_id
 _symmetry_equiv_pos_as_xyz
  1  'x, y, z'
loop_
 _atom_site_type_symbol
 _atom_site_label
 _atom_site_symmetry_multiplicity
 _atom_site_fract_x
 _atom_site_fract_y
 _atom_site_fract_z
 _atom_site_occupancy
  Li  Li0  1  0.98572900  0.92190200  0.73928600  1
  Li  Li1  1  0.76520200  0.81984300  0.01730000  1
  Li  Li2  1  0.22881300  0.27376600  0.64764300  1
  Li  Li3  1  0.45810000  0.42041600  0.26909100  1
  Li  Li4  1  0.47188100  0.52815800  0.90956600  1
  Li  Li5  1  0.71999100  0.66637100  0.50903000  1
  Li  Li6  1  0.98401600  0.02209600  0.39887300  1
  Li  Li7  1  0.20691300  0.17067900  0.02170000  1
  Sb  Sb0  1  0.00021900  0.99702000  0.01005200  1
  Sb  Sb1  1  0.49087500  0.50027400  0.50927300  1
  Sb  Sb2  1  0.74442300  0.74607500  0.75217600  1
  Sb  Sb3  1  0.62533200  0.12452200  0.62744700  1
  Sb  Sb4  1  0.87304400  0.37386200  0.87961800  1
  Sb  Sb5  1  0.11393600  0.62437100  0.13256100  1
  Sb  Sb6  1  0.38325600  0.87284600  0.37304300  1
  Sb  Sb7  1  0.24512300  0.24689300  0.25968900  1
  P  P0  1  0.60295600  0.17521100  0.92864800  1
  P  P1  1  0.14419900  0.57307400  0.81974200  1
  P  P2  1  0.10144100  0.68560000  0.42486900  1
  P  P3  1  0.35321500  0.93167400  0.67254300  1
  P  P4  1  0.65267800  0.07197600  0.31949200  1
  P  P5  1  0.89992600  0.31978900  0.56914700  1
  P  P6  1  0.85284400  0.42789500  0.17848200  1
  P  P7  1  0.39971000  0.81625300  0.07133900  1
  O  O0  1  0.64667500  0.30539100  0.94539700  1
  O  O1  1  0.20978000  0.54224700  0.94269000  1
  O  O2  1  0.77032900  0.03909300  0.92131600  1
  O  O3  1  0.30329700  0.58917200  0.70011600  1
  O  O4  1  0.97319400  0.70865000  0.83745000  1
  O  O5  1  0.55364700  0.20876500  0.79959400  1
  O  O6  1  0.78285600  0.94963600  0.67877100  1
  O  O7  1  0.57392900  0.82209500  0.95767900  1
  O  O8  1  0.14092200  0.81698700  0.44233700  1
  O  O9  1  0.09721400  0.44609900  0.80057300  1
  O  O10  1  0.46339600  0.29597600  0.57635900  1
  O  O11  1  0.27449900  0.55534300  0.41023100  1
  O  O12  1  0.93639800  0.66919000  0.54047800  1
  O  O13  1  0.03675300  0.20184500  0.92728800  1
  O  O14  1  0.70994800  0.54245200  0.82446800  1
  O  O15  1  0.39258600  0.06499300  0.68683500  1
  O  O16  1  0.52987600  0.80285300  0.65710300  1
  O  O17  1  0.71998300  0.04453200  0.44242000  1
  O  O18  1  0.19091700  0.91600800  0.78842300  1
  O  O19  1  0.04138800  0.71832000  0.30023000  1
  O  O20  1  0.96305800  0.29160100  0.69347600  1
  O  O21  1  0.82081000  0.07814600  0.20221400  1
  O  O22  1  0.29199700  0.96120000  0.54897400  1
  O  O23  1  0.48784800  0.20820900  0.33007700  1
  O  O24  1  0.60199500  0.94459900  0.30931000  1
  O  O25  1  0.28181200  0.45368800  0.17870600  1
  O  O26  1  0.96470800  0.79641100  0.07142200  1
  O  O27  1  0.06769200  0.32757000  0.45279400  1
  O  O28  1  0.73443000  0.45539400  0.57844700  1
  O  O29  1  0.53063600  0.69984700  0.43323100  1
  O  O30  1  0.89443600  0.55609600  0.20037500  1
  O  O31  1  0.85381100  0.19017900  0.55468000  1
  O  O32  1  0.43278600  0.16561900  0.04018900  1
  O  O33  1  0.21913100  0.04332100  0.31968500  1
  O  O34  1  0.45634700  0.78563100  0.19738700  1
  O  O35  1  0.02572100  0.29583600  0.16502000  1
  O  O36  1  0.68597400  0.41269200  0.29048600  1
  O  O37  1  0.24057200  0.95597400  0.07484600  1
  O  O38  1  0.80117200  0.46352700  0.04966500  1
  O  O39  1  0.34785700  0.69322300  0.05126200  1
loop_
_geom_bond_atom_site_label_1
_geom_bond_atom_site_label_2
_geom_bond_distance
_geom_bond_site_symmetry_2
Li0 O6 1.948617 1_555
Li0 O18 1.958687 1_655
Li0 O4 2.293200 1_555
Li0 O2 2.321769 1_565
Li1 O26 1.889402 1_555
Li1 O7 1.932402 1_554
Li1 O4 2.265048 1_554
Li1 O2 2.328034 1_564
Li2 O10 1.915910 1_555
Li2 O20 2.033205 1_455
Li2 O15 2.137853 1_555
Li2 O9 2.358766 1_555
Li3 O25 1.962659 1_555
Li3 O36 1.975958 1_555
Li3 O11 2.049077 1_555
Li3 O23 2.121578 1_555
Li4 O14 1.917317 1_555
Li4 O1 2.038137 1_555
Li4 O39 2.224419 1_556
Li4 O0 2.266081 1_555
Li5 O29 1.942685 1_555
Li5 O12 1.976290 1_555
Li5 O16 2.117018 1_555
Li5 O28 2.149058 1_555
Li6 O33 1.918805 1_655
Li6 O17 2.009941 1_555
Li6 O8 2.103336 1_645
Li6 O31 2.350603 1_555
Li7 O32 1.954398 1_555
Li7 O13 1.956704 1_554
Li7 O35 2.006434 1_555
Li7 O37 2.128130 1_545
O0 P0 1.585737 1_555
O0 Sb4 2.107506 1_555
O1 P1 1.580121 1_555
O1 Sb5 2.169977 1_556
O2 P0 1.554294 1_555
O2 Sb0 2.330274 1_646
O3 P1 1.531756 1_555
O3 Sb1 2.232846 1_555
O4 P1 1.559146 1_655
O4 Sb2 2.306033 1_555
O5 P0 1.567935 1_555
O5 Sb3 2.036857 1_555
O6 Sb3 1.918832 1_565
O6 Sb2 2.212109 1_555
O7 P7 1.551136 1_556
O7 Sb2 2.297223 1_555
O8 P2 1.579769 1_555
O8 Sb6 2.150328 1_555
O9 P1 1.580478 1_555
O9 Sb4 2.113184 1_455
O10 Sb3 1.912500 1_555
O10 Sb1 2.177385 1_555
O11 P2 1.539584 1_555
O11 Sb1 2.286068 1_555
O12 P2 1.540945 1_655
O12 Sb2 2.383903 1_555
O13 Sb4 1.908990 1_455
O13 Sb0 2.234541 1_546
O14 Sb4 1.917004 1_555
O14 Sb2 2.198854 1_555
O15 P3 1.586238 1_545
O15 Sb3 2.105131 1_555
O16 P3 1.548427 1_555
O16 Sb2 2.238813 1_555
O17 P4 1.592201 1_555
O17 Sb3 2.113063 1_555
O18 P3 1.525720 1_555
O18 Sb0 2.482591 1_556
O19 P2 1.569794 1_555
O19 Sb5 2.042823 1_555
O20 P5 1.585489 1_555
O20 Sb4 2.140123 1_555
O21 P4 1.538509 1_555
O21 Sb0 2.205576 1_645
O22 P3 1.566833 1_555
O22 Sb6 2.066371 1_555
O23 P4 1.540554 1_555
O23 Sb7 2.303754 1_555
O24 P4 1.567928 1_565
O24 Sb6 2.072463 1_555
O25 Sb5 1.911024 1_555
O25 Sb7 2.250572 1_555
O26 Sb5 1.912862 1_655
O26 Sb0 2.159700 1_655
O27 P5 1.535436 1_455
O27 Sb7 2.209430 1_555
O28 P5 1.540795 1_555
O28 Sb1 2.288177 1_555
O29 Sb6 1.908242 1_555
O29 Sb1 2.181567 1_555
O30 P6 1.576998 1_555
O30 Sb5 2.053857 1_655
O31 P5 1.583055 1_555
O31 Sb3 2.103337 1_555
O32 P0 1.527963 1_554
O32 Sb7 2.460318 1_555
O33 Sb6 1.924670 1_545
O33 Sb7 2.157971 1_555
O34 P7 1.570558 1_555
O34 Sb6 2.084960 1_555
O35 P6 1.549840 1_455
O35 Sb7 2.283770 1_555
O36 P6 1.528453 1_555
O36 Sb1 2.482843 1_555
O37 P7 1.545540 1_555
O37 Sb0 2.241398 1_555
O38 P6 1.574542 1_555
O38 Sb4 2.044082 1_554
O39 P7 1.571061 1_555
O39 Sb5 2.163878 1_555
