# generated using pymatgen
data_Li2FePO4F
_symmetry_space_group_name_H-M   'P 1'
_cell_length_a   5.08936900
_cell_length_b   11.51676400
_cell_length_c   13.14445200
_cell_angle_alpha   90.00000000
_cell_angle_beta   90.00000000
_cell_angle_gamma   90.00000000
_symmetry_Int_Tables_number   1
_chemical_formula_structural   Li2FePO4F
_chemical_formula_sum   'Li16 Fe8 P8 O32 F8'
_cell_volume   770.43657585
_cell_formula_units_Z   8
loop_
 _symmetry_equiv_pos_site_id
 _symmetry_equiv_pos_as_xyz
  1  'x, y, z'
loop_
 _atom_site_type_symbol
 _atom_site_label
 _atom_site_symmetry_multiplicity
 _atom_site_fract_x
 _atom_site_fract_y
 _atom_site_fract_z
 _atom_site_occupancy
  Li  Li0  1  0.21793000  0.17746300  0.26015100  1
  Li  Li1  1  0.21793000  0.67746300  0.73984900  1
  Li  Li2  1  0.22199400  0.90205600  0.13331300  1
  Li  Li3  1  0.22199400  0.40205600  0.86668700  1
  Li  Li4  1  0.27800600  0.40205600  0.36668700  1
  Li  Li5  1  0.27800600  0.90205600  0.63331300  1
  Li  Li6  1  0.28207000  0.67746300  0.23984900  1
  Li  Li7  1  0.28207000  0.17746300  0.76015100  1
  Li  Li8  1  0.71793000  0.82253700  0.23984900  1
  Li  Li9  1  0.71793000  0.32253700  0.76015100  1
  Li  Li10  1  0.72199400  0.09794400  0.36668700  1
  Li  Li11  1  0.72199400  0.59794400  0.63331300  1
  Li  Li12  1  0.77800600  0.59794400  0.13331300  1
  Li  Li13  1  0.77800600  0.09794400  0.86668700  1
  Li  Li14  1  0.78207000  0.82253700  0.73984900  1
  Li  Li15  1  0.78207000  0.32253700  0.26015100  1
  Fe  Fe0  1  0.22892200  0.66964600  0.00774200  1
  Fe  Fe1  1  0.22892200  0.16964600  0.99225800  1
  Fe  Fe2  1  0.27107800  0.66964600  0.50774200  1
  Fe  Fe3  1  0.27107800  0.16964600  0.49225800  1
  Fe  Fe4  1  0.72892200  0.83035400  0.50774200  1
  Fe  Fe5  1  0.72892200  0.33035400  0.49225800  1
  Fe  Fe6  1  0.77107800  0.83035400  0.00774200  1
  Fe  Fe7  1  0.77107800  0.33035400  0.99225800  1
  P  P0  1  0.20407500  0.41617000  0.62767000  1
  P  P1  1  0.20407500  0.91617000  0.37233000  1
  P  P2  1  0.29592500  0.41617000  0.12767000  1
  P  P3  1  0.29592500  0.91617000  0.87233000  1
  P  P4  1  0.70407500  0.08383000  0.12767000  1
  P  P5  1  0.70407500  0.58383000  0.87233000  1
  P  P6  1  0.79592500  0.58383000  0.37233000  1
  P  P7  1  0.79592500  0.08383000  0.62767000  1
  O  O0  1  0.10458600  0.09462900  0.62113400  1
  O  O1  1  0.10458600  0.59462900  0.37886600  1
  O  O2  1  0.17888800  0.35723200  0.02981900  1
  O  O3  1  0.17888800  0.85723200  0.97018100  1
  O  O4  1  0.18811200  0.35647100  0.22294600  1
  O  O5  1  0.18811200  0.85647100  0.77705400  1
  O  O6  1  0.21810900  0.54618200  0.12742800  1
  O  O7  1  0.21810900  0.04618200  0.87257200  1
  O  O8  1  0.28189100  0.04618200  0.37257200  1
  O  O9  1  0.28189100  0.54618200  0.62742800  1
  O  O10  1  0.31188800  0.85647100  0.27705400  1
  O  O11  1  0.31188800  0.35647100  0.72294600  1
  O  O12  1  0.32111200  0.35723200  0.52981900  1
  O  O13  1  0.32111200  0.85723200  0.47018100  1
  O  O14  1  0.39541400  0.09462900  0.12113400  1
  O  O15  1  0.39541400  0.59462900  0.87886600  1
  O  O16  1  0.60458600  0.90537100  0.87886600  1
  O  O17  1  0.60458600  0.40537100  0.12113400  1
  O  O18  1  0.67888800  0.64276800  0.47018100  1
  O  O19  1  0.67888800  0.14276800  0.52981900  1
  O  O20  1  0.68811200  0.14352900  0.72294600  1
  O  O21  1  0.68811200  0.64352900  0.27705400  1
  O  O22  1  0.71810900  0.45381800  0.37257200  1
  O  O23  1  0.71810900  0.95381800  0.62742800  1
  O  O24  1  0.78189100  0.95381800  0.12742800  1
  O  O25  1  0.78189100  0.45381800  0.87257200  1
  O  O26  1  0.81188800  0.14352900  0.22294600  1
  O  O27  1  0.81188800  0.64352900  0.77705400  1
  O  O28  1  0.82111200  0.14276800  0.02981900  1
  O  O29  1  0.82111200  0.64276800  0.97018100  1
  O  O30  1  0.89541400  0.90537100  0.37886600  1
  O  O31  1  0.89541400  0.40537100  0.62113400  1
  F  F0  1  0.00000000  0.25000000  0.39489100  1
  F  F1  1  0.00000000  0.75000000  0.13570200  1
  F  F2  1  0.00000000  0.25000000  0.86429800  1
  F  F3  1  0.00000000  0.75000000  0.60510900  1
  F  F4  1  0.50000000  0.25000000  0.36429800  1
  F  F5  1  0.50000000  0.75000000  0.10510900  1
  F  F6  1  0.50000000  0.75000000  0.63570200  1
  F  F7  1  0.50000000  0.25000000  0.89489100  1
loop_
_geom_bond_atom_site_label_1
_geom_bond_atom_site_label_2
_geom_bond_distance
_geom_bond_site_symmetry_2
Li0 O4 2.124230 1_555
Li0 O8 2.139051 1_555
Li0 O26 2.159237 1_455
Li0 O14 2.250562 1_555
Li1 O5 2.124230 1_555
Li1 O9 2.139051 1_555
Li1 O27 2.159237 1_455
Li1 O15 2.250562 1_555
Li2 O10 2.013640 1_555
Li2 O3 2.216429 1_554
Li2 O24 2.319109 1_455
Li2 O14 2.392347 1_565
Li3 O11 2.013640 1_555
Li3 O2 2.216429 1_556
Li3 O25 2.319109 1_455
Li3 O15 2.392347 1_555
Li4 O4 2.013640 1_555
Li4 O12 2.216429 1_555
Li4 O22 2.319109 1_555
Li4 O1 2.392347 1_555
Li5 O5 2.013640 1_555
Li5 O13 2.216429 1_555
Li5 O23 2.319109 1_555
Li5 O0 2.392347 1_565
Li6 O10 2.124230 1_555
Li6 O6 2.139051 1_555
Li6 O21 2.159237 1_555
Li6 O1 2.250562 1_555
Li7 O11 2.124230 1_555
Li7 O7 2.139051 1_555
Li7 O20 2.159237 1_555
Li7 O0 2.250562 1_555
Li8 O21 2.124230 1_555
Li8 O24 2.139051 1_555
Li8 O10 2.159237 1_555
Li8 O30 2.250562 1_555
Li9 O20 2.124230 1_555
Li9 O25 2.139051 1_555
Li9 O11 2.159237 1_555
Li9 O31 2.250562 1_555
Li10 O26 2.013640 1_555
Li10 O19 2.216429 1_555
Li10 O8 2.319109 1_555
Li10 O30 2.392347 1_545
Li11 O27 2.013640 1_555
Li11 O18 2.216429 1_555
Li11 O9 2.319109 1_555
Li11 O31 2.392347 1_555
Li12 O21 2.013640 1_555
Li12 O29 2.216429 1_554
Li12 O6 2.319109 1_655
Li12 O17 2.392347 1_555
Li13 O20 2.013640 1_555
Li13 O28 2.216429 1_556
Li13 O7 2.319109 1_655
Li13 O16 2.392347 1_545
Li14 O27 2.124230 1_555
Li14 O23 2.139051 1_555
Li14 O5 2.159237 1_655
Li14 O16 2.250562 1_555
Li15 O26 2.124230 1_555
Li15 O22 2.139051 1_555
Li15 O4 2.159237 1_655
Li15 O17 2.250562 1_555
Fe0 O15 2.081838 1_554
Fe0 O6 2.121279 1_555
Fe0 O29 2.155750 1_454
Fe0 O3 2.230663 1_554
Fe1 O14 2.081838 1_556
Fe1 O7 2.121279 1_555
Fe1 O28 2.155750 1_456
Fe1 O2 2.230663 1_556
Fe2 O1 2.081838 1_555
Fe2 O9 2.121279 1_555
Fe2 O18 2.155750 1_555
Fe2 O13 2.230663 1_555
Fe3 O0 2.081838 1_555
Fe3 O8 2.121279 1_555
Fe3 O19 2.155750 1_555
Fe3 O12 2.230663 1_555
Fe4 O30 2.081838 1_555
Fe4 O23 2.121279 1_555
Fe4 O13 2.155750 1_555
Fe4 O18 2.230663 1_555
Fe5 O31 2.081838 1_555
Fe5 O22 2.121279 1_555
Fe5 O12 2.155750 1_555
Fe5 O19 2.230663 1_555
Fe6 O16 2.081838 1_554
Fe6 O24 2.121279 1_555
Fe6 O3 2.155750 1_654
Fe6 O29 2.230663 1_554
Fe7 O17 2.081838 1_556
Fe7 O25 2.121279 1_555
Fe7 O2 2.155750 1_656
Fe7 O28 2.230663 1_556
O0 P7 1.578145 1_455
O1 P6 1.578145 1_455
O2 P2 1.571570 1_555
O3 P3 1.571570 1_555
O4 P2 1.530413 1_555
O5 P3 1.530413 1_555
O6 P2 1.548810 1_555
O7 P3 1.548810 1_545
O8 P1 1.548810 1_545
O9 P0 1.548810 1_555
O10 P1 1.530413 1_555
O11 P0 1.530413 1_555
O12 P0 1.571570 1_555
O13 P1 1.571570 1_555
O14 P4 1.578145 1_555
O15 P5 1.578145 1_555
O16 P3 1.578145 1_555
O17 P2 1.578145 1_555
O18 P6 1.571570 1_555
O19 P7 1.571570 1_555
O20 P7 1.530413 1_555
O21 P6 1.530413 1_555
O22 P6 1.548810 1_555
O23 P7 1.548810 1_565
O24 P4 1.548810 1_565
O25 P5 1.548810 1_555
O26 P4 1.530413 1_555
O27 P5 1.530413 1_555
O28 P4 1.571570 1_555
O29 P5 1.571570 1_555
O30 P1 1.578145 1_655
O31 P0 1.578145 1_655
F0 Fe5 2.097074 1_455
F0 Fe3 2.097074 1_555
F0 Li15 2.250506 1_455
F0 Li0 2.250506 1_555
F0 Li10 2.281663 1_455
F0 Li4 2.281663 1_555
F1 Li12 2.084258 1_455
F1 Li2 2.084258 1_555
F1 Li6 2.152381 1_555
F1 Li8 2.152381 1_455
F1 Fe0 2.245615 1_555
F1 Fe6 2.245615 1_455
F2 Li13 2.084258 1_455
F2 Li3 2.084258 1_555
F2 Li7 2.152381 1_555
F2 Li9 2.152381 1_455
F2 Fe7 2.245615 1_455
F2 Fe1 2.245615 1_555
F3 Fe2 2.097074 1_555
F3 Fe4 2.097074 1_455
F3 Li1 2.250506 1_555
F3 Li14 2.250506 1_455
F3 Li11 2.281663 1_455
F3 Li5 2.281663 1_555
F4 Li10 2.084258 1_555
F4 Li4 2.084258 1_555
F4 Li15 2.152381 1_555
F4 Li0 2.152381 1_555
F4 Fe5 2.245615 1_555
F4 Fe3 2.245615 1_555
F5 Fe0 2.097074 1_555
F5 Fe6 2.097074 1_555
F5 Li6 2.250506 1_555
F5 Li8 2.250506 1_555
F5 Li12 2.281663 1_555
F5 Li2 2.281663 1_555
F6 Li5 2.084258 1_555
F6 Li11 2.084258 1_555
F6 Li14 2.152381 1_555
F6 Li1 2.152381 1_555
F6 Fe4 2.245615 1_555
F6 Fe2 2.245615 1_555
F7 Fe7 2.097074 1_555
F7 Fe1 2.097074 1_555
F7 Li7 2.250506 1_555
F7 Li9 2.250506 1_555
F7 Li13 2.281663 1_555
F7 Li3 2.281663 1_555
