# generated using pymatgen
data_Cr3P6WO24
_symmetry_space_group_name_H-M   'P 1'
_cell_length_a   8.82356357
_cell_length_b   8.82356357
_cell_length_c   8.82356403
_cell_angle_alpha   58.38235812
_cell_angle_beta   58.38235812
_cell_angle_gamma   58.38236011
_symmetry_Int_Tables_number   1
_chemical_formula_structural   Cr3P6WO24
_chemical_formula_sum   'Cr3 P6 W1 O24'
_cell_volume   467.76764064
_cell_formula_units_Z   1
loop_
 _symmetry_equiv_pos_site_id
 _symmetry_equiv_pos_as_xyz
  1  'x, y, z'
loop_
 _atom_site_type_symbol
 _atom_site_label
 _atom_site_symmetry_multiplicity
 _atom_site_fract_x
 _atom_site_fract_y
 _atom_site_fract_z
 _atom_site_occupancy
  Cr  Cr0  1  0.14338600  0.14338600  0.14338600  1
  Cr  Cr1  1  0.35777600  0.35777600  0.35777600  1
  Cr  Cr2  1  0.64269600  0.64269600  0.64269600  1
  P  P0  1  0.03618200  0.45992000  0.74915800  1
  P  P1  1  0.45992000  0.74915800  0.03618200  1
  P  P2  1  0.74915800  0.03618200  0.45992000  1
  P  P3  1  0.25921800  0.96735200  0.52653000  1
  P  P4  1  0.52653000  0.25921800  0.96735200  1
  P  P5  1  0.96735200  0.52653000  0.25921800  1
  W  W0  1  0.85931600  0.85931600  0.85931600  1
  O  O0  1  0.13959500  0.51055100  0.27470300  1
  O  O1  1  0.27470300  0.13959500  0.51055100  1
  O  O2  1  0.06341900  0.28228500  0.92265900  1
  O  O3  1  0.51055100  0.27470300  0.13959500  1
  O  O4  1  0.21639800  0.44241900  0.57548700  1
  O  O5  1  0.00120600  0.63743800  0.78183700  1
  O  O6  1  0.28228500  0.92265900  0.06341900  1
  O  O7  1  0.44241900  0.57548700  0.21639800  1
  O  O8  1  0.57548700  0.21639800  0.44241900  1
  O  O9  1  0.22085600  0.99246300  0.36388000  1
  O  O10  1  0.07733900  0.93647100  0.71249500  1
  O  O11  1  0.36388000  0.22085600  0.99246300  1
  O  O12  1  0.63743800  0.78183700  0.00120600  1
  O  O13  1  0.92265900  0.06341900  0.28228500  1
  O  O14  1  0.78183700  0.00120600  0.63743800  1
  O  O15  1  0.42385700  0.78404900  0.56231600  1
  O  O16  1  0.56231600  0.42385700  0.78404900  1
  O  O17  1  0.71249500  0.07733900  0.93647100  1
  O  O18  1  0.99246300  0.36388000  0.22085600  1
  O  O19  1  0.78404900  0.56231600  0.42385700  1
  O  O20  1  0.49203300  0.72033100  0.86437900  1
  O  O21  1  0.93647100  0.71249500  0.07733900  1
  O  O22  1  0.72033100  0.86437900  0.49203300  1
  O  O23  1  0.86437900  0.49203300  0.72033100  1
loop_
_geom_bond_atom_site_label_1
_geom_bond_atom_site_label_2
_geom_bond_distance
_geom_bond_site_symmetry_2
Cr0 O11 1.936296 1_554
Cr0 O18 1.936296 1_455
Cr0 O9 1.936296 1_545
Cr0 O13 1.955636 1_455
Cr0 O6 1.955636 1_545
Cr0 O2 1.955636 1_554
Cr1 O1 1.945033 1_555
Cr1 O0 1.945033 1_555
Cr1 O3 1.945033 1_555
Cr1 O7 1.954223 1_555
Cr1 O8 1.954223 1_555
Cr1 O4 1.954223 1_555
Cr2 O16 1.941761 1_555
Cr2 O15 1.941761 1_555
Cr2 O19 1.941761 1_555
Cr2 O22 1.945826 1_555
Cr2 O23 1.945826 1_555
Cr2 O20 1.945826 1_555
O0 P5 1.523544 1_455
O1 P3 1.523544 1_545
O2 P0 1.527422 1_555
O3 P4 1.523544 1_554
O4 P0 1.528527 1_555
O5 P0 1.582789 1_555
O5 W0 1.950277 1_455
O6 P1 1.527422 1_555
O7 P1 1.528527 1_555
O8 P2 1.528527 1_555
O9 P3 1.523362 1_555
O10 P3 1.603387 1_555
O10 W0 1.917793 1_455
O11 P4 1.523362 1_555
O12 P1 1.582789 1_555
O12 W0 1.950277 1_554
O13 P2 1.527422 1_555
O14 P2 1.582789 1_555
O14 W0 1.950277 1_545
O15 P3 1.519190 1_555
O16 P4 1.519190 1_555
O17 P4 1.603387 1_555
O17 W0 1.917793 1_545
O18 P5 1.523362 1_555
O19 P5 1.519190 1_555
O20 P1 1.523591 1_556
O21 P5 1.603387 1_555
O21 W0 1.917793 1_554
O22 P2 1.523591 1_565
O23 P0 1.523591 1_655
