# generated using pymatgen
data_Mn2P2O7
_symmetry_space_group_name_H-M   'P 1'
_cell_length_a   4.54295490
_cell_length_b   10.26685959
_cell_length_c   5.38001655
_cell_angle_alpha   89.99990173
_cell_angle_beta   97.07558394
_cell_angle_gamma   89.99958848
_symmetry_Int_Tables_number   1
_chemical_formula_structural   Mn2P2O7
_chemical_formula_sum   'Mn4 P4 O14'
_cell_volume   249.02310298
_cell_formula_units_Z   2
loop_
 _symmetry_equiv_pos_site_id
 _symmetry_equiv_pos_as_xyz
  1  'x, y, z'
loop_
 _atom_site_type_symbol
 _atom_site_label
 _atom_site_symmetry_multiplicity
 _atom_site_fract_x
 _atom_site_fract_y
 _atom_site_fract_z
 _atom_site_occupancy
  Mn  Mn0  1  0.10115962  0.65370205  0.40876973  1
  Mn  Mn1  1  0.89885576  0.15370577  0.09121490  1
  Mn  Mn2  1  0.10108850  0.84629245  0.90878567  1
  Mn  Mn3  1  0.89888528  0.34629174  0.59121858  1
  P  P0  1  0.35862535  0.11023101  0.65083540  1
  P  P1  1  0.35863194  0.38976831  0.15084456  1
  P  P2  1  0.64137151  0.61024258  0.84916243  1
  P  P3  1  0.64137621  0.88975716  0.34916002  1
  O  O0  1  0.50004446  0.99999855  0.50001918  1
  O  O1  1  0.49995163  0.50002060  0.00000678  1
  O  O2  1  0.12958927  0.32192165  0.96489042  1
  O  O3  1  0.12958170  0.17806860  0.46487056  1
  O  O4  1  0.87042055  0.82190753  0.53510291  1
  O  O5  1  0.87041975  0.67807770  0.03512113  1
  O  O6  1  0.21187904  0.04356315  0.85691306  1
  O  O7  1  0.21191328  0.45642867  0.35694759  1
  O  O8  1  0.78810112  0.54356341  0.64308738  1
  O  O9  1  0.78809061  0.95642840  0.14306494  1
  O  O10  1  0.38681099  0.69793994  0.74524584  1
  O  O11  1  0.38677939  0.80208101  0.24525106  1
  O  O12  1  0.61319066  0.19792690  0.75474758  1
  O  O13  1  0.61322939  0.30208682  0.25473729  1
loop_
_geom_bond_atom_site_label_1
_geom_bond_atom_site_label_2
_geom_bond_distance
_geom_bond_site_symmetry_2
Mn0 O7 2.113668 1_555
Mn0 O10 2.142098 1_555
Mn0 O5 2.164106 1_455
Mn0 O4 2.172230 1_455
Mn0 O11 2.249341 1_555
Mn0 O8 2.309166 1_455
Mn1 O9 2.113751 1_545
Mn1 O12 2.142051 1_554
Mn1 O3 2.164103 1_655
Mn1 O2 2.172295 1_654
Mn1 O13 2.249372 1_555
Mn1 O6 2.309015 1_654
Mn2 O6 2.113734 1_565
Mn2 O11 2.142081 1_556
Mn2 O4 2.164158 1_455
Mn2 O5 2.172154 1_456
Mn2 O10 2.249490 1_555
Mn2 O9 2.308828 1_456
Mn3 O8 2.113727 1_555
Mn3 O13 2.142058 1_555
Mn3 O2 2.164148 1_655
Mn3 O3 2.172303 1_655
Mn3 O12 2.249481 1_555
Mn3 O7 2.308906 1_655
O0 P0 1.574919 1_565
O0 P3 1.574928 1_555
O1 P1 1.574923 1_555
O1 P2 1.574933 1_554
O2 P1 1.520641 1_556
O3 P0 1.520625 1_555
O4 P3 1.520616 1_555
O5 P2 1.520616 1_554
O6 P0 1.524549 1_555
O7 P1 1.524552 1_555
O8 P2 1.524547 1_555
O9 P3 1.524561 1_555
O10 P2 1.517015 1_555
O11 P3 1.517004 1_555
O12 P0 1.517027 1_555
O13 P1 1.517004 1_555
