# generated using pymatgen
data_LiVFeP2(HO5)2
_symmetry_space_group_name_H-M   'P 1'
_cell_length_a   5.31829286
_cell_length_b   7.42960118
_cell_length_c   10.51918410
_cell_angle_alpha   74.41347251
_cell_angle_beta   98.29237458
_cell_angle_gamma   70.11103690
_symmetry_Int_Tables_number   1
_chemical_formula_structural   LiVFeP2(HO5)2
_chemical_formula_sum   'Li2 V2 Fe2 P4 H4 O20'
_cell_volume   363.51515947
_cell_formula_units_Z   2
loop_
 _symmetry_equiv_pos_site_id
 _symmetry_equiv_pos_as_xyz
  1  'x, y, z'
loop_
 _atom_site_type_symbol
 _atom_site_label
 _atom_site_symmetry_multiplicity
 _atom_site_fract_x
 _atom_site_fract_y
 _atom_site_fract_z
 _atom_site_occupancy
  Li  Li0  1  0.43649000  0.14316500  0.03179400  1
  Li  Li1  1  0.43655100  0.14319700  0.53171100  1
  V  V0  1  0.49726200  0.50542900  0.24802000  1
  V  V1  1  0.49737700  0.50539500  0.74803800  1
  Fe  Fe0  1  0.99536100  0.99626700  0.50043900  1
  Fe  Fe1  1  0.99542000  0.99579900  0.00058400  1
  P  P0  1  0.11813400  0.23071500  0.22428400  1
  P  P1  1  0.11814400  0.23075200  0.72429300  1
  P  P2  1  0.87704100  0.77334800  0.77830800  1
  P  P3  1  0.87696700  0.77347300  0.27831600  1
  H  H0  1  0.70338300  0.34483000  0.00214800  1
  H  H1  1  0.70331900  0.34491600  0.50201500  1
  H  H2  1  0.32645800  0.66738000  0.99415200  1
  H  H3  1  0.32643600  0.66740500  0.49411300  1
  O  O0  1  0.32009300  0.71934100  0.07126900  1
  O  O1  1  0.32010100  0.71927500  0.57126200  1
  O  O2  1  0.80342800  0.37340800  0.17083200  1
  O  O3  1  0.80346900  0.37350200  0.67070000  1
  O  O4  1  0.70865700  0.63882100  0.81274300  1
  O  O5  1  0.70820200  0.63931500  0.31261500  1
  O  O6  1  0.17803300  0.08164800  0.14400100  1
  O  O7  1  0.17822300  0.08162000  0.64397600  1
  O  O8  1  0.19674800  0.12418600  0.38005600  1
  O  O9  1  0.19671500  0.12414000  0.88004600  1
  O  O10  1  0.78297900  0.89479300  0.62387800  1
  O  O11  1  0.78298800  0.89480700  0.12387500  1
  O  O12  1  0.82417900  0.92007700  0.85847900  1
  O  O13  1  0.82431000  0.92022800  0.35844600  1
  O  O14  1  0.30047200  0.35298500  0.18772900  1
  O  O15  1  0.30050000  0.35302500  0.68774600  1
  O  O16  1  0.19215800  0.63009600  0.82468200  1
  O  O17  1  0.19210700  0.63017100  0.32464500  1
  O  O18  1  0.66356900  0.28068000  0.93460400  1
  O  O19  1  0.66353900  0.28073200  0.43451300  1
loop_
_geom_bond_atom_site_label_1
_geom_bond_atom_site_label_2
_geom_bond_distance
_geom_bond_site_symmetry_2
Li0 O9 1.962371 1_554
Li0 O11 1.987444 1_545
Li0 O6 2.024100 1_555
Li0 O18 2.044961 1_554
Li1 O8 1.961677 1_555
Li1 O10 1.987501 1_545
Li1 O7 2.024036 1_555
Li1 O19 2.044680 1_555
Fe0 O13 1.946509 1_555
Fe0 O10 2.001648 1_555
Fe0 O8 2.022620 1_665
Fe0 O7 2.034276 1_665
Fe0 O1 2.039507 1_655
Fe0 O19 2.093706 1_565
Fe1 O12 1.946343 1_554
Fe1 O11 1.999468 1_555
Fe1 O9 2.024690 1_664
Fe1 O6 2.035174 1_665
Fe1 O0 2.036918 1_655
Fe1 O18 2.095701 1_564
H0 O18 0.991997 1_554
H1 O19 0.991776 1_555
H2 O0 0.987704 1_556
H3 O1 0.987609 1_555
O0 V0 1.938658 1_555
O1 V1 1.938779 1_555
O2 P0 1.562778 1_655
O2 V0 1.998831 1_555
O3 P1 1.562775 1_655
O3 V1 1.999281 1_555
O4 P2 1.562089 1_555
O4 V1 1.899579 1_555
O5 P3 1.561440 1_555
O5 V0 1.900606 1_555
O6 P0 1.543187 1_555
O7 P1 1.543886 1_555
O8 P0 1.538350 1_555
O9 P1 1.538269 1_555
O10 P2 1.540815 1_555
O11 P3 1.540767 1_555
O12 P2 1.527272 1_555
O13 P3 1.527072 1_555
O14 P0 1.559702 1_555
O14 V0 1.944586 1_555
O15 P1 1.559785 1_555
O15 V1 1.944440 1_555
O16 P2 1.565532 1_455
O16 V1 1.974575 1_555
O17 P3 1.565727 1_455
O17 V0 1.974290 1_555
O18 V1 2.038371 1_555
O19 V0 2.037801 1_555
