# generated using pymatgen
data_LiCoSnO4
_symmetry_space_group_name_H-M   'P 1'
_cell_length_a   6.08866602
_cell_length_b   8.60018702
_cell_length_c   6.08799500
_cell_angle_alpha   90.00021938
_cell_angle_beta   89.99577458
_cell_angle_gamma   89.99162587
_symmetry_Int_Tables_number   1
_chemical_formula_structural   LiCoSnO4
_chemical_formula_sum   'Li4 Co4 Sn4 O16'
_cell_volume   318.78973575
_cell_formula_units_Z   4
loop_
 _symmetry_equiv_pos_site_id
 _symmetry_equiv_pos_as_xyz
  1  'x, y, z'
loop_
 _atom_site_type_symbol
 _atom_site_label
 _atom_site_symmetry_multiplicity
 _atom_site_fract_x
 _atom_site_fract_y
 _atom_site_fract_z
 _atom_site_occupancy
  Li  Li0  1  0.21591600  0.99994600  0.00003100  1
  Li  Li1  1  0.78406800  0.50006700  0.00004400  1
  Li  Li2  1  0.99997100  0.24996600  0.21590300  1
  Li  Li3  1  0.99998400  0.75002200  0.78414000  1
  Co  Co0  1  0.24530300  0.37503700  0.75467800  1
  Co  Co1  1  0.75470200  0.12496400  0.75466000  1
  Co  Co2  1  0.24538900  0.62503500  0.24531600  1
  Co  Co3  1  0.75463800  0.87496100  0.24531600  1
  Sn  Sn0  1  0.49995200  0.25000100  0.23093400  1
  Sn  Sn1  1  0.23101700  0.99989200  0.50000500  1
  Sn  Sn2  1  0.76904100  0.50010800  0.50000700  1
  Sn  Sn3  1  0.49997500  0.75000400  0.76901200  1
  O  O0  1  0.25625200  0.25110000  0.99642100  1
  O  O1  1  0.74374200  0.24889800  0.99639400  1
  O  O2  1  0.99643700  0.99872500  0.25648900  1
  O  O3  1  0.00359800  0.50126000  0.25646000  1
  O  O4  1  0.99628100  0.00110200  0.74365600  1
  O  O5  1  0.00370500  0.49889700  0.74365400  1
  O  O6  1  0.25645800  0.74877400  0.00355200  1
  O  O7  1  0.74351200  0.75124500  0.00352500  1
  O  O8  1  0.48274000  0.00703700  0.25743600  1
  O  O9  1  0.51730500  0.49296100  0.25746600  1
  O  O10  1  0.25753900  0.24282800  0.48275100  1
  O  O11  1  0.74245600  0.25716000  0.48271600  1
  O  O12  1  0.25754200  0.75699100  0.51724300  1
  O  O13  1  0.74248800  0.74300700  0.51722300  1
  O  O14  1  0.51726300  0.50717600  0.74249200  1
  O  O15  1  0.48272500  0.99283400  0.74247700  1
loop_
_geom_bond_atom_site_label_1
_geom_bond_atom_site_label_2
_geom_bond_distance
_geom_bond_site_symmetry_2
Li0 O2 2.055067 1_455
Li0 O4 2.055446 1_464
Li0 O0 2.174035 1_564
Li0 O6 2.174255 1_555
Li0 O8 2.258140 1_565
Li0 O15 2.258530 1_554
Li1 O3 2.055223 1_655
Li1 O5 2.055374 1_654
Li1 O1 2.174159 1_554
Li1 O7 2.174313 1_555
Li1 O9 2.257782 1_555
Li1 O14 2.258670 1_554
Li2 O0 2.054292 1_654
Li2 O1 2.054305 1_554
Li2 O2 2.174912 1_545
Li2 O3 2.175349 1_655
Li2 O11 2.258393 1_555
Li2 O10 2.258924 1_655
Li3 O7 2.054793 1_556
Li3 O6 2.055060 1_656
Li3 O4 2.173470 1_565
Li3 O5 2.173855 1_655
Li3 O12 2.258903 1_655
Li3 O13 2.258905 1_555
Co0 O5 1.817312 1_555
Co0 O0 1.818390 1_555
Co0 O10 2.009716 1_555
Co0 O14 2.009827 1_555
Co1 O4 1.817215 1_555
Co1 O1 1.818319 1_555
Co1 O11 2.009757 1_555
Co1 O15 2.009877 1_545
Co2 O6 1.817526 1_555
Co2 O3 1.818106 1_555
Co2 O12 2.008489 1_555
Co2 O9 2.009017 1_555
Co3 O7 1.817558 1_555
Co3 O2 1.818104 1_555
Co3 O13 2.008376 1_555
Co3 O8 2.008921 1_565
O0 Sn0 2.059236 1_556
O1 Sn0 2.059593 1_556
O2 Sn1 2.058708 1_655
O3 Sn2 2.058594 1_455
O4 Sn1 2.059806 1_645
O5 Sn2 2.059637 1_455
O6 Sn3 2.058403 1_554
O7 Sn3 2.058528 1_554
O8 Sn0 2.098390 1_555
O8 Sn1 2.129161 1_545
O9 Sn0 2.098412 1_555
O9 Sn2 2.129256 1_555
O10 Sn1 2.098181 1_545
O10 Sn0 2.128912 1_555
O11 Sn2 2.098325 1_555
O11 Sn0 2.129296 1_555
O12 Sn1 2.097832 1_555
O12 Sn3 2.128885 1_555
O13 Sn2 2.097819 1_555
O13 Sn3 2.129156 1_555
O14 Sn3 2.097225 1_555
O14 Sn2 2.129015 1_555
O15 Sn3 2.097240 1_555
O15 Sn1 2.128808 1_555
