# generated using pymatgen
data_Li4Cr2Ni3Te3O16
_symmetry_space_group_name_H-M   'P 1'
_cell_length_a   6.10967700
_cell_length_b   6.12330064
_cell_length_c   9.64499541
_cell_angle_alpha   89.46443414
_cell_angle_beta   91.32431341
_cell_angle_gamma   118.81210308
_symmetry_Int_Tables_number   1
_chemical_formula_structural   Li4Cr2Ni3Te3O16
_chemical_formula_sum   'Li4 Cr2 Ni3 Te3 O16'
_cell_volume   316.07824689
_cell_formula_units_Z   1
loop_
 _symmetry_equiv_pos_site_id
 _symmetry_equiv_pos_as_xyz
  1  'x, y, z'
loop_
 _atom_site_type_symbol
 _atom_site_label
 _atom_site_symmetry_multiplicity
 _atom_site_fract_x
 _atom_site_fract_y
 _atom_site_fract_z
 _atom_site_occupancy
  Li  Li0  1  0.34255600  0.66287100  0.12766200  1
  Li  Li1  1  0.02495300  0.97589900  0.01547900  1
  Li  Li2  1  0.00974200  0.97872000  0.49348200  1
  Li  Li3  1  0.68483800  0.33619100  0.59406100  1
  Cr  Cr0  1  0.32094900  0.68041800  0.50259000  1
  Cr  Cr1  1  0.64159900  0.33130300  0.02712000  1
  Ni  Ni0  1  0.16982700  0.83384600  0.78354900  1
  Ni  Ni1  1  0.82736000  0.66347400  0.28510200  1
  Ni  Ni2  1  0.33701200  0.17325600  0.28699300  1
  Te  Te0  1  0.65917000  0.83036500  0.78573800  1
  Te  Te1  1  0.16438100  0.33970800  0.78774300  1
  Te  Te2  1  0.82853800  0.17310200  0.28766000  1
  O  O0  1  0.67469700  0.86298500  0.39941700  1
  O  O1  1  0.50454700  0.53811700  0.65791000  1
  O  O2  1  0.36302800  0.69423100  0.90141500  1
  O  O3  1  0.97092500  0.98024900  0.68235900  1
  O  O4  1  0.98718200  0.01149000  0.19416600  1
  O  O5  1  0.14205800  0.32794400  0.40277900  1
  O  O6  1  0.49515300  0.96292800  0.66106500  1
  O  O7  1  0.04616800  0.53271500  0.64941500  1
  O  O8  1  0.80831500  0.13366100  0.89896300  1
  O  O9  1  0.16958400  0.83741300  0.39809100  1
  O  O10  1  0.95532100  0.45891200  0.15590900  1
  O  O11  1  0.53481500  0.04133900  0.15915600  1
  O  O12  1  0.67676300  0.32836200  0.39436100  1
  O  O13  1  0.81935500  0.67778100  0.89734700  1
  O  O14  1  0.51760300  0.47740900  0.15635900  1
  O  O15  1  0.32385900  0.15561100  0.90627200  1
loop_
_geom_bond_atom_site_label_1
_geom_bond_atom_site_label_2
_geom_bond_distance
_geom_bond_site_symmetry_2
Li0 O14 1.913423 1_555
Li0 O11 2.053177 1_565
Li0 O10 2.099235 1_455
Li0 O2 2.189962 1_554
Li1 O4 1.773375 1_465
Li1 O15 1.945681 1_564
Li1 O13 1.992717 1_454
Li1 O8 2.256411 1_464
Li2 O3 1.843208 1_455
Li2 O9 1.849264 1_555
Li2 O0 2.010850 1_455
Li2 O5 2.079202 1_565
Li3 O12 1.926050 1_555
Li3 O7 2.000900 1_655
Li3 O6 2.106792 1_545
Li3 O1 2.116547 1_555
Cr0 O9 1.894981 1_555
Cr0 O7 2.065012 1_555
Cr0 O5 2.120392 1_555
Cr0 O0 2.158907 1_555
Cr0 O6 2.158976 1_555
Cr0 O1 2.258703 1_555
Cr1 O14 1.909421 1_555
Cr1 O11 2.019786 1_555
Cr1 O15 2.047041 1_554
Cr1 O10 2.071695 1_555
Cr1 O13 2.244897 1_554
Cr1 O8 2.303120 1_554
Ni0 O3 2.052279 1_455
Ni0 O7 2.073928 1_555
Ni0 O2 2.075820 1_555
Ni0 O15 2.091301 1_565
Ni0 O6 2.132566 1_555
Ni0 O13 2.195366 1_455
Ni1 O14 2.064239 1_555
Ni1 O4 2.064678 1_565
Ni1 O12 2.086219 1_555
Ni1 O9 2.112735 1_655
Ni1 O0 2.179248 1_555
Ni1 O10 2.179679 1_555
Ni2 O4 2.058760 1_455
Ni2 O12 2.074129 1_555
Ni2 O14 2.076829 1_555
Ni2 O9 2.098923 1_545
Ni2 O11 2.159092 1_555
Ni2 O5 2.175268 1_555
O0 Te2 1.984809 1_565
O1 Te0 1.993190 1_555
O1 Te1 2.240886 1_555
O2 Te0 1.958447 1_555
O2 Te1 2.197969 1_555
O3 Te0 1.962189 1_555
O3 Te1 2.180269 1_665
O4 Te2 1.927056 1_555
O5 Te2 1.992927 1_455
O6 Te0 1.954254 1_555
O7 Te1 2.108820 1_555
O8 Te0 1.957741 1_545
O8 Te1 2.216332 1_655
O10 Te2 1.993714 1_555
O11 Te2 1.981879 1_555
O12 Te2 1.932606 1_555
O13 Te0 1.950234 1_555
O15 Te1 2.123721 1_555
