# generated using pymatgen
data_Ca19(Mg4H27)2
_symmetry_space_group_name_H-M   'P 1'
_cell_length_a   10.52938490
_cell_length_b   10.52938412
_cell_length_c   10.52938390
_cell_angle_alpha   109.47122030
_cell_angle_beta   109.47120693
_cell_angle_gamma   109.47121997
_symmetry_Int_Tables_number   1
_chemical_formula_structural   Ca19(Mg4H27)2
_chemical_formula_sum   'Ca19 Mg8 H54'
_cell_volume   898.64284112
_cell_formula_units_Z   1
loop_
 _symmetry_equiv_pos_site_id
 _symmetry_equiv_pos_as_xyz
  1  'x, y, z'
loop_
 _atom_site_type_symbol
 _atom_site_label
 _atom_site_symmetry_multiplicity
 _atom_site_fract_x
 _atom_site_fract_y
 _atom_site_fract_z
 _atom_site_occupancy
  Ca  Ca0  1  0.31290156  0.96677070  0.65386792  1
  Ca  Ca1  1  0.68709846  0.03322955  0.34613207  1
  Ca  Ca2  1  0.31290376  0.65903499  0.34613237  1
  Ca  Ca3  1  0.68709616  0.34096505  0.65386768  1
  Ca  Ca4  1  0.65386809  0.31290230  0.96677075  1
  Ca  Ca5  1  0.34613203  0.68709816  0.03322929  1
  Ca  Ca6  1  0.34613276  0.31290387  0.65903510  1
  Ca  Ca7  1  0.65386723  0.68709613  0.34096476  1
  Ca  Ca8  1  0.96677057  0.65386807  0.31290163  1
  Ca  Ca9  1  0.03322952  0.34613167  0.68709834  1
  Ca  Ca10  1  0.65903472  0.34613270  0.31290325  1
  Ca  Ca11  1  0.34096464  0.65386715  0.68709638  1
  Ca  Ca12  1  0.33134568  -0.00000059  0.33134480  1
  Ca  Ca13  1  0.66865431  0.00000099  0.66865512  1
  Ca  Ca14  1  0.33134497  0.33134577  -0.00000078  1
  Ca  Ca15  1  0.66865457  0.66865386  0.00000045  1
  Ca  Ca16  1  -0.00000106  0.33134460  0.33134530  1
  Ca  Ca17  1  0.00000081  0.66865476  0.66865443  1
  Ca  Ca18  1  0.00000030  0.00000012  0.00000013  1
  Mg  Mg0  1  0.31473244  -0.00000248  -0.00000223  1
  Mg  Mg1  1  -0.00000252  -0.00000217  0.31473295  1
  Mg  Mg2  1  -0.00000213  0.31473290  -0.00000253  1
  Mg  Mg3  1  0.68528277  0.68528281  0.68528270  1
  Mg  Mg4  1  0.68526688  0.00000232  0.00000210  1
  Mg  Mg5  1  0.00000249  0.00000229  0.68526708  1
  Mg  Mg6  1  0.00000205  0.68526674  0.00000225  1
  Mg  Mg7  1  0.31471735  0.31471732  0.31471737  1
  H  H0  1  0.42218805  0.94288439  0.14060511  1
  H  H1  1  0.19771772  0.05711881  0.47930170  1
  H  H2  1  0.80228114  0.28158263  0.85939754  1
  H  H3  1  0.57781415  0.71841664  0.52069875  1
  H  H4  1  0.14060495  0.42218785  0.94288432  1
  H  H5  1  0.47930166  0.19771784  0.05711906  1
  H  H6  1  0.85939731  0.80228106  0.28158253  1
  H  H7  1  0.52069880  0.57781403  0.71841647  1
  H  H8  1  0.94288450  0.14060504  0.42218797  1
  H  H9  1  0.05711893  0.47930164  0.19771782  1
  H  H10  1  0.28158258  0.85939741  0.80228119  1
  H  H11  1  0.71841668  0.52069887  0.57781420  1
  H  H12  1  0.57781207  0.05711569  0.85939510  1
  H  H13  1  0.80228239  0.94288136  0.52069824  1
  H  H14  1  0.19771910  0.71841738  0.14060282  1
  H  H15  1  0.42218584  0.28158343  0.47930121  1
  H  H16  1  0.85939496  0.57781191  0.05711558  1
  H  H17  1  0.52069838  0.80228217  0.94288102  1
  H  H18  1  0.14060271  0.19771896  0.71841749  1
  H  H19  1  0.47930115  0.42218590  0.28158344  1
  H  H20  1  0.05711562  0.85939496  0.57781204  1
  H  H21  1  0.94288121  0.52069814  0.80228233  1
  H  H22  1  0.71841740  0.14060260  0.19771885  1
  H  H23  1  0.28158354  0.47930113  0.42218594  1
  H  H24  1  0.39717084  0.21575923  0.81858874  1
  H  H25  1  0.60282921  0.78424087  0.18141130  1
  H  H26  1  0.39717108  0.57858290  0.18141160  1
  H  H27  1  0.60282886  0.42141710  0.81858850  1
  H  H28  1  0.81858866  0.39717088  0.21575933  1
  H  H29  1  0.18141144  0.60282922  0.78424076  1
  H  H30  1  0.18141166  0.39717107  0.57858290  1
  H  H31  1  0.81858843  0.60282901  0.42141709  1
  H  H32  1  0.21575923  0.81858848  0.39717081  1
  H  H33  1  0.78424083  0.18141154  0.60282935  1
  H  H34  1  0.57858287  0.18141167  0.39717117  1
  H  H35  1  0.42141709  0.81858838  0.60282896  1
  H  H36  1  0.17197276  0.06165480  0.88967443  1
  H  H37  1  0.82802738  0.93834515  0.11032559  1
  H  H38  1  0.17197458  0.28229581  0.11032256  1
  H  H39  1  0.82802555  0.71770410  0.88967749  1
  H  H40  1  0.88967453  0.17197271  0.06165490  1
  H  H41  1  0.11032557  0.82802716  0.93834514  1
  H  H42  1  0.11032255  0.17197437  0.28229575  1
  H  H43  1  0.88967755  0.82802553  0.71770420  1
  H  H44  1  0.06165483  0.88967414  0.17197288  1
  H  H45  1  0.93834519  0.11032555  0.82802728  1
  H  H46  1  0.28229575  0.11032244  0.17197458  1
  H  H47  1  0.71770422  0.88967745  0.82802548  1
  H  H48  1  0.61396887  0.49999979  0.11396906  1
  H  H49  1  0.38603111  0.50000031  0.88603090  1
  H  H50  1  0.11396914  0.61396894  0.49999966  1
  H  H51  1  0.88603100  0.38603110  0.50000025  1
  H  H52  1  0.49999972  0.11396908  0.61396888  1
  H  H53  1  0.50000025  0.88603081  0.38603105  1
loop_
_geom_bond_atom_site_label_1
_geom_bond_atom_site_label_2
_geom_bond_distance
_geom_bond_site_symmetry_2
Ca0 H24 2.249574 1_565
Ca0 H32 2.251141 1_555
Ca0 H35 2.251146 1_555
Ca0 H20 2.258710 1_555
Ca0 H10 2.258719 1_555
Ca0 H52 2.325939 1_565
Ca0 H12 2.490578 1_565
Ca0 H1 2.490615 1_565
Ca1 H25 2.249576 1_545
Ca1 H33 2.251142 1_555
Ca1 H34 2.251145 1_555
Ca1 H8 2.258711 1_555
Ca1 H22 2.258717 1_555
Ca1 H53 2.325941 1_545
Ca1 H0 2.490576 1_545
Ca1 H13 2.490615 1_545
Ca2 H26 2.249572 1_555
Ca2 H35 2.251137 1_555
Ca2 H32 2.251146 1_555
Ca2 H9 2.258710 1_555
Ca2 H23 2.258729 1_555
Ca2 H53 2.325927 1_555
Ca2 H3 2.490586 1_555
Ca2 H14 2.490597 1_555
Ca3 H27 2.249572 1_555
Ca3 H34 2.251136 1_555
Ca3 H33 2.251147 1_555
Ca3 H21 2.258711 1_555
Ca3 H11 2.258728 1_555
Ca3 H52 2.325927 1_555
Ca3 H15 2.490586 1_555
Ca3 H2 2.490601 1_555
Ca4 H28 2.249576 1_556
Ca4 H27 2.251139 1_555
Ca4 H24 2.251141 1_555
Ca4 H12 2.258716 1_555
Ca4 H2 2.258718 1_555
Ca4 H48 2.325935 1_556
Ca4 H16 2.490570 1_556
Ca4 H5 2.490620 1_556
Ca5 H29 2.249575 1_554
Ca5 H25 2.251141 1_555
Ca5 H26 2.251143 1_555
Ca5 H0 2.258712 1_555
Ca5 H14 2.258718 1_555
Ca5 H49 2.325937 1_554
Ca5 H4 2.490576 1_554
Ca5 H17 2.490617 1_554
Ca6 H30 2.249574 1_555
Ca6 H27 2.251133 1_555
Ca6 H24 2.251148 1_555
Ca6 H1 2.258712 1_555
Ca6 H15 2.258726 1_555
Ca6 H49 2.325928 1_555
Ca6 H7 2.490583 1_555
Ca6 H18 2.490602 1_555
Ca7 H31 2.249575 1_555
Ca7 H26 2.251133 1_555
Ca7 H25 2.251147 1_555
Ca7 H13 2.258713 1_555
Ca7 H3 2.258727 1_555
Ca7 H48 2.325926 1_555
Ca7 H19 2.490584 1_555
Ca7 H6 2.490601 1_555
Ca8 H32 2.249575 1_655
Ca8 H28 2.251142 1_555
Ca8 H31 2.251144 1_555
Ca8 H16 2.258710 1_555
Ca8 H6 2.258717 1_555
Ca8 H50 2.325940 1_655
Ca8 H20 2.490575 1_655
Ca8 H9 2.490618 1_655
Ca9 H33 2.249575 1_455
Ca9 H30 2.251144 1_555
Ca9 H29 2.251144 1_555
Ca9 H4 2.258710 1_555
Ca9 H18 2.258714 1_555
Ca9 H51 2.325942 1_455
Ca9 H8 2.490574 1_455
Ca9 H21 2.490619 1_455
Ca10 H34 2.249578 1_555
Ca10 H31 2.251134 1_555
Ca10 H28 2.251144 1_555
Ca10 H5 2.258705 1_555
Ca10 H19 2.258724 1_555
Ca10 H51 2.325934 1_555
Ca10 H11 2.490588 1_555
Ca10 H22 2.490603 1_555
Ca11 H35 2.249578 1_555
Ca11 H30 2.251132 1_555
Ca11 H29 2.251141 1_555
Ca11 H17 2.258710 1_555
Ca11 H7 2.258729 1_555
Ca11 H50 2.325928 1_555
Ca11 H23 2.490587 1_555
Ca11 H10 2.490601 1_555
Ca12 H32 2.346365 1_545
Ca12 H34 2.346366 1_555
Ca12 H44 2.356619 1_545
Ca12 H46 2.356644 1_555
Ca12 H53 2.474838 1_545
Ca12 H52 2.474843 1_555
Ca12 H0 2.483770 1_545
Ca12 H14 2.483774 1_545
Ca12 H15 2.483792 1_555
Ca12 H1 2.483807 1_555
Ca13 H33 2.346361 1_555
Ca13 H35 2.346368 1_545
Ca13 H45 2.356621 1_555
Ca13 H47 2.356649 1_545
Ca13 H52 2.474834 1_555
Ca13 H53 2.474842 1_545
Ca13 H2 2.483772 1_555
Ca13 H12 2.483772 1_555
Ca13 H3 2.483795 1_545
Ca13 H13 2.483808 1_545
Ca14 H24 2.346361 1_554
Ca14 H26 2.346366 1_555
Ca14 H36 2.356621 1_554
Ca14 H38 2.356648 1_555
Ca14 H49 2.474835 1_554
Ca14 H48 2.474841 1_555
Ca14 H4 2.483771 1_554
Ca14 H18 2.483772 1_554
Ca14 H19 2.483794 1_555
Ca14 H5 2.483806 1_555
Ca15 H25 2.346362 1_555
Ca15 H27 2.346363 1_554
Ca15 H37 2.356624 1_555
Ca15 H39 2.356650 1_554
Ca15 H48 2.474832 1_555
Ca15 H49 2.474837 1_554
Ca15 H16 2.483774 1_555
Ca15 H6 2.483776 1_555
Ca15 H7 2.483792 1_554
Ca15 H17 2.483805 1_554
Ca16 H28 2.346361 1_455
Ca16 H30 2.346370 1_555
Ca16 H40 2.356616 1_455
Ca16 H42 2.356648 1_555
Ca16 H51 2.474835 1_455
Ca16 H50 2.474844 1_555
Ca16 H22 2.483771 1_455
Ca16 H8 2.483771 1_455
Ca16 H23 2.483797 1_555
Ca16 H9 2.483805 1_555
Ca17 H29 2.346359 1_555
Ca17 H31 2.346370 1_455
Ca17 H41 2.356619 1_555
Ca17 H43 2.356650 1_455
Ca17 H50 2.474836 1_555
Ca17 H51 2.474839 1_455
Ca17 H10 2.483774 1_555
Ca17 H20 2.483775 1_555
Ca17 H11 2.483793 1_455
Ca17 H21 2.483804 1_455
Ca18 H46 2.484157 1_555
Ca18 H42 2.484158 1_555
Ca18 H38 2.484159 1_555
Ca18 H43 2.484161 1_444
Ca18 H39 2.484162 1_444
Ca18 H47 2.484163 1_444
Ca18 H36 2.484184 1_554
Ca18 H41 2.484185 1_544
Ca18 H40 2.484186 1_455
Ca18 H45 2.484186 1_454
Ca18 H37 2.484187 1_445
Ca18 H44 2.484189 1_545
H0 Mg0 1.940136 1_565
H1 Mg1 1.940106 1_555
H2 Mg2 1.940086 1_656
H3 Mg3 1.940178 1_555
H4 Mg2 1.940131 1_556
H5 Mg0 1.940107 1_555
H6 Mg1 1.940086 1_665
H7 Mg3 1.940178 1_555
H8 Mg1 1.940131 1_655
H9 Mg2 1.940106 1_555
H10 Mg0 1.940087 1_566
H11 Mg3 1.940178 1_555
H12 Mg4 1.940132 1_556
H13 Mg5 1.940106 1_665
H14 Mg6 1.940089 1_555
H15 Mg7 1.940177 1_555
H16 Mg6 1.940132 1_655
H17 Mg4 1.940104 1_566
H18 Mg5 1.940086 1_555
H19 Mg7 1.940177 1_555
H20 Mg5 1.940133 1_565
H21 Mg6 1.940103 1_656
H22 Mg4 1.940086 1_555
H23 Mg7 1.940176 1_555
H36 Mg5 2.004812 1_555
H36 Mg0 2.004910 1_556
H37 Mg1 2.004811 1_665
H37 Mg4 2.004915 1_565
H38 Mg7 2.004740 1_555
H38 Mg2 2.004890 1_555
H39 Mg3 2.004741 1_555
H39 Mg6 2.004889 1_656
H40 Mg4 2.004813 1_555
H40 Mg2 2.004914 1_655
H41 Mg0 2.004808 1_566
H41 Mg6 2.004914 1_556
H42 Mg7 2.004740 1_555
H42 Mg1 2.004889 1_555
H43 Mg3 2.004739 1_555
H43 Mg5 2.004889 1_665
H44 Mg6 2.004813 1_555
H44 Mg1 2.004914 1_565
H45 Mg2 2.004811 1_656
H45 Mg5 2.004913 1_655
H46 Mg7 2.004740 1_555
H46 Mg0 2.004887 1_555
H47 Mg3 2.004738 1_555
H47 Mg4 2.004889 1_566
