# generated using pymatgen
data_Li5Mn(SiO3)4
_symmetry_space_group_name_H-M   'P 1'
_cell_length_a   12.29755100
_cell_length_b   12.62281816
_cell_length_c   12.62645702
_cell_angle_alpha   109.89875843
_cell_angle_beta   108.94039802
_cell_angle_gamma   109.02544224
_symmetry_Int_Tables_number   1
_chemical_formula_structural   Li5Mn(SiO3)4
_chemical_formula_sum   'Li30 Mn6 Si24 O72'
_cell_volume   1518.84988284
_cell_formula_units_Z   6
loop_
 _symmetry_equiv_pos_site_id
 _symmetry_equiv_pos_as_xyz
  1  'x, y, z'
loop_
 _atom_site_type_symbol
 _atom_site_label
 _atom_site_symmetry_multiplicity
 _atom_site_fract_x
 _atom_site_fract_y
 _atom_site_fract_z
 _atom_site_occupancy
  Li  Li0  1  0.17220500  0.19769800  0.00890500  1
  Li  Li1  1  0.02472100  0.19827100  0.18958500  1
  Li  Li2  1  0.35998000  0.50185200  0.53559600  1
  Li  Li3  1  0.14178000  0.50391500  0.96674400  1
  Li  Li4  1  0.40246300  0.58549200  0.10825100  1
  Li  Li5  1  0.18380100  0.58337400  0.47807900  1
  Li  Li6  1  0.35842400  0.83178100  0.98968900  1
  Li  Li7  1  0.47371400  0.83166300  0.84172400  1
  Li  Li8  1  0.59754800  0.89075800  0.41333100  1
  Li  Li9  1  0.29546500  0.89597300  0.47778100  1
  Li  Li10  1  0.23665600  0.00036300  0.99969300  1
  Li  Li11  1  0.99992200  0.00013000  0.00051100  1
  Li  Li12  1  0.76213900  0.99995700  0.99934100  1
  Li  Li13  1  0.82773800  0.99160700  0.80269400  1
  Li  Li14  1  0.16391500  0.99077600  0.18909100  1
  Li  Li15  1  0.63990500  0.00912500  0.16688700  1
  Li  Li16  1  0.36709800  0.01113200  0.84121400  1
  Li  Li17  1  0.17500900  0.03332500  0.53663300  1
  Li  Li18  1  0.85731800  0.03351200  0.49655100  1
  Li  Li19  1  0.63179200  0.15828300  0.98896200  1
  Li  Li20  1  0.52668000  0.15791900  0.16713800  1
  Li  Li21  1  0.28934500  0.28856500  0.57814200  1
  Li  Li22  1  0.00023400  0.29031400  0.70986200  1
  Li  Li23  1  0.70879000  0.42046400  0.71112600  1
  Li  Li24  1  0.63912200  0.46317500  0.49742200  1
  Li  Li25  1  0.82487500  0.46345100  0.96727100  1
  Li  Li26  1  0.81893000  0.52239700  0.42002600  1
  Li  Li27  1  0.70644300  0.52235300  0.10933200  1
  Li  Li28  1  0.97494400  0.81087400  0.80267500  1
  Li  Li29  1  0.83639800  0.81121900  0.00942900  1
  Mn  Mn0  1  0.24343500  0.48573800  0.24343700  1
  Mn  Mn1  1  0.25578200  0.51298500  0.75502100  1
  Mn  Mn2  1  0.75683900  0.75685800  0.51427200  1
  Mn  Mn3  1  0.49957200  0.24264000  0.75608000  1
  Mn  Mn4  1  0.74401400  0.24439200  0.48742500  1
  Mn  Mn5  1  0.99992500  0.75727000  0.24312000  1
  Si  Si0  1  0.23904200  0.26027300  0.79185700  1
  Si  Si1  1  0.02091800  0.26056400  0.46651800  1
  Si  Si2  1  0.53414200  0.72675300  0.00601600  1
  Si  Si3  1  0.19386100  0.72904700  0.72186800  1
  Si  Si4  1  0.02659100  0.72608200  0.99126600  1
  Si  Si5  1  0.69994000  0.72681000  0.73555400  1
  Si  Si6  1  0.25365200  0.73867300  0.20263300  1
  Si  Si7  1  0.48489100  0.73900600  0.53714800  1
  Si  Si8  1  0.05184900  0.79809700  0.53675600  1
  Si  Si9  1  0.74583600  0.79777000  0.26144400  1
  Si  Si10  1  0.52864800  0.99343000  0.72161100  1
  Si  Si11  1  0.46588800  0.99337500  0.27239900  1
  Si  Si12  1  0.03525900  0.00838800  0.73509500  1
  Si  Si13  1  0.97324000  0.00896000  0.27385800  1
  Si  Si14  1  0.76141900  0.20788200  0.73991100  1
  Si  Si15  1  0.44610400  0.20579900  0.46715300  1
  Si  Si16  1  0.96476900  0.26505000  0.99148400  1
  Si  Si17  1  0.30061600  0.26431800  0.27351800  1
  Si  Si18  1  0.47189800  0.27963900  0.00652300  1
  Si  Si19  1  0.80602300  0.27780200  0.27100100  1
  Si  Si20  1  0.94852400  0.46365300  0.20222400  1
  Si  Si21  1  0.51609900  0.46346600  0.26192300  1
  Si  Si22  1  0.55284700  0.53169300  0.79217400  1
  Si  Si23  1  0.97840500  0.53299900  0.73920300  1
  O  O0  1  0.08765100  0.15499400  0.75108300  1
  O  O1  1  0.06851300  0.15554000  0.40483800  1
  O  O2  1  0.12559200  0.34774100  0.06019500  1
  O  O3  1  0.22366500  0.34799300  0.28862700  1
  O  O4  1  0.15585900  0.39499300  0.57111700  1
  O  O5  1  0.23250100  0.39080500  0.81461400  1
  O  O6  1  0.40585600  0.47863900  0.68357500  1
  O  O7  1  0.07173100  0.47970600  0.79472400  1
  O  O8  1  0.09591000  0.50626000  0.29804800  1
  O  O9  1  0.41193600  0.50719300  0.20990900  1
  O  O10  1  0.35025200  0.59998500  0.43831600  1
  O  O11  1  0.24978500  0.59998700  0.16373000  1
  O  O12  1  0.37306100  0.64532100  0.94094200  1
  O  O13  1  0.27410400  0.64826100  0.70628200  1
  O  O14  1  0.59817500  0.65166200  0.93320800  1
  O  O15  1  0.05501400  0.65461000  0.72052900  1
  O  O16  1  0.55571800  0.71858000  0.66107200  1
  O  O17  1  0.16169300  0.71614700  0.05730100  1
  O  O18  1  0.58859900  0.73951100  0.15186700  1
  O  O19  1  0.15153600  0.74075900  0.58834700  1
  O  O20  1  0.58806900  0.79025200  0.49318800  1
  O  O21  1  0.20247100  0.79140900  0.29772300  1
  O  O22  1  0.08690300  0.83782400  0.43777400  1
  O  O23  1  0.74932700  0.83682500  0.39945400  1
  O  O24  1  0.43687100  0.84795000  0.58824800  1
  O  O25  1  0.41077200  0.84731700  0.25963900  1
  O  O26  1  0.06722000  0.85950000  0.98841400  1
  O  O27  1  0.79387300  0.85948800  0.87208600  1
  O  O28  1  0.57724100  0.86302900  0.01093600  1
  O  O29  1  0.28740200  0.86513500  0.85293000  1
  O  O30  1  0.83757800  0.94261600  0.28265800  1
  O  O31  1  0.10501200  0.94256700  0.66050600  1
  O  O32  1  0.87485000  0.93991900  0.65181800  1
  O  O33  1  0.06486900  0.94013700  0.28792600  1
  O  O34  1  0.56809500  0.98840000  0.85291200  1
  O  O35  1  0.42470100  0.98847200  0.13631200  1
  O  O36  1  0.07785400  0.01188600  0.87158500  1
  O  O37  1  0.93369000  0.01265600  0.14101500  1
  O  O38  1  0.43257300  0.05838100  0.70706300  1
  O  O39  1  0.62660100  0.05862200  0.35515800  1
  O  O40  1  0.40008100  0.06566800  0.34524600  1
  O  O41  1  0.66501500  0.06657400  0.71846400  1
  O  O42  1  0.92136200  0.12879700  0.98845500  1
  O  O43  1  0.20681000  0.12822800  0.14066100  1
  O  O44  1  0.43254700  0.14799700  0.01107900  1
  O  O45  1  0.71116400  0.14688400  0.13495000  1
  O  O46  1  0.76718100  0.18391900  0.60912100  1
  O  O47  1  0.41599300  0.17770200  0.57228300  1
  O  O48  1  0.27779800  0.20479700  0.68422000  1
  O  O49  1  0.92802200  0.20545900  0.52004500  1
  O  O50  1  0.91309700  0.24893400  0.84508800  1
  O  O51  1  0.33646100  0.24839500  0.40420100  1
  O  O52  1  0.59287300  0.31478400  0.52069400  1
  O  O53  1  0.72304800  0.31588000  0.79574400  1
  O  O54  1  0.33551600  0.28306700  0.93370800  1
  O  O55  1  0.94446400  0.27744400  0.34354000  1
  O  O56  1  0.56799800  0.29540000  0.94173800  1
  O  O57  1  0.72753200  0.29464600  0.35319700  1
  O  O58  1  0.89600300  0.34108700  0.05736600  1
  O  O59  1  0.44491200  0.33926700  0.28207700  1
  O  O60  1  0.56352400  0.41261400  0.15243300  1
  O  O61  1  0.84886700  0.41142000  0.25913000  1
  O  O62  1  0.84308300  0.42823000  0.60596000  1
  O  O63  1  0.58232000  0.42480300  0.81619900  1
  O  O64  1  0.64966600  0.56220400  0.40036400  1
  O  O65  1  0.91390200  0.56322200  0.16376000  1
  O  O66  1  0.93177400  0.59590800  0.84449000  1
  O  O67  1  0.66305800  0.59569600  0.75080600  1
  O  O68  1  0.93461000  0.71174400  0.05967700  1
  O  O69  1  0.77717200  0.71225000  0.65250100  1
  O  O70  1  0.90469900  0.70242800  0.49364400  1
  O  O71  1  0.79774100  0.70254200  0.20951400  1
loop_
_geom_bond_atom_site_label_1
_geom_bond_atom_site_label_2
_geom_bond_distance
_geom_bond_site_symmetry_2
Li0 O36 2.001301 1_554
Li0 O2 2.109260 1_555
Li0 O43 2.120009 1_555
Li0 O54 2.572827 1_554
Li1 O37 1.996254 1_455
Li1 O42 2.120326 1_454
Li1 O3 2.124055 1_555
Li1 O55 2.513515 1_455
Li2 O6 1.921303 1_555
Li2 O10 2.023462 1_555
Li2 O16 2.463515 1_555
Li3 O7 1.927430 1_555
Li3 O11 2.042832 1_556
Li3 O17 2.418591 1_556
Li3 O2 2.607339 1_556
Li4 O9 1.865361 1_555
Li4 O18 2.207720 1_555
Li4 O11 2.244989 1_555
Li4 O12 2.435572 1_554
Li5 O8 1.869718 1_555
Li5 O10 2.223731 1_555
Li5 O19 2.243291 1_555
Li5 O13 2.435112 1_555
Li6 O35 1.865630 1_556
Li6 O29 1.917664 1_555
Li6 O12 2.304975 1_555
Li6 O28 2.497177 1_556
Li7 O34 1.867501 1_555
Li7 O28 1.916293 1_556
Li7 O13 2.276942 1_555
Li7 O29 2.499790 1_555
Li8 O20 1.868279 1_555
Li8 O25 2.214313 1_555
Li8 O23 2.222071 1_555
Li8 O39 2.427595 1_565
Li9 O21 1.871926 1_555
Li9 O24 2.241684 1_555
Li9 O22 2.247507 1_555
Li9 O38 2.442203 1_565
Li10 O26 2.177831 1_545
Li10 O36 2.178545 1_555
Li10 O43 2.182347 1_556
Li10 O44 2.441844 1_556
Li10 O29 2.455426 1_545
Li10 O35 2.481691 1_546
Li11 O27 2.154517 1_544
Li11 O43 2.160187 1_655
Li11 O37 2.160268 1_555
Li11 O36 2.162171 1_654
Li11 O42 2.165680 1_554
Li11 O26 2.171340 1_644
Li12 O42 2.179107 1_565
Li12 O27 2.190160 1_555
Li12 O37 2.193346 1_566
Li12 O34 2.420591 1_555
Li12 O28 2.450519 1_556
Li12 O45 2.461209 1_566
Li13 O42 2.001985 1_565
Li13 O27 2.121584 1_555
Li13 O32 2.123049 1_555
Li13 O41 2.563016 1_565
Li14 O43 1.999359 1_565
Li14 O33 2.114628 1_555
Li14 O26 2.116934 1_554
Li14 O40 2.537677 1_565
Li15 O28 1.867778 1_545
Li15 O45 1.915088 1_555
Li15 O39 2.318680 1_555
Li15 O35 2.457497 1_545
Li16 O29 1.865689 1_545
Li16 O44 1.919136 1_556
Li16 O38 2.265642 1_555
Li16 O34 2.543239 1_545
Li17 O48 1.922689 1_555
Li17 O22 2.025799 1_545
Li17 O31 2.439375 1_545
Li18 O49 1.928409 1_555
Li18 O23 2.037679 1_545
Li18 O30 2.439811 1_545
Li19 O45 1.864229 1_556
Li19 O34 1.920086 1_545
Li19 O56 2.291463 1_555
Li19 O44 2.521886 1_556
Li20 O44 1.869547 1_555
Li20 O35 1.914865 1_545
Li20 O57 2.300506 1_555
Li20 O45 2.469341 1_555
Li21 O48 1.980364 1_555
Li21 O6 1.981890 1_555
Li21 O1 2.377158 1_555
Li21 O51 2.382425 1_555
Li21 O47 2.411390 1_555
Li21 O4 2.435514 1_555
Li22 O7 1.977548 1_555
Li22 O49 1.982627 1_455
Li22 O5 2.358003 1_555
Li22 O46 2.365710 1_455
Li22 O50 2.401314 1_455
Li22 O0 2.404866 1_555
Li23 O53 1.975980 1_555
Li23 O52 1.986148 1_555
Li23 O63 2.351075 1_555
Li23 O67 2.387357 1_555
Li23 O66 2.400839 1_555
Li23 O62 2.430408 1_555
Li24 O52 1.925346 1_555
Li24 O64 2.030147 1_555
Li24 O59 2.448979 1_555
Li25 O53 1.923781 1_555
Li25 O65 2.037335 1_556
Li25 O58 2.424023 1_556
Li25 O68 2.595469 1_556
Li26 O70 1.871807 1_555
Li26 O64 2.253499 1_555
Li26 O61 2.260442 1_555
Li26 O57 2.422074 1_555
Li27 O71 1.867771 1_555
Li27 O60 2.202446 1_555
Li27 O65 2.238220 1_555
Li27 O56 2.436835 1_554
Li28 O26 2.000725 1_655
Li28 O36 2.117904 1_665
Li28 O69 2.117958 1_555
Li28 O15 2.544154 1_655
Li29 O27 1.997569 1_554
Li29 O68 2.114594 1_555
Li29 O37 2.123114 1_565
Li29 O14 2.562885 1_554
Mn0 O3 1.974248 1_555
Mn0 O2 1.980316 1_555
Mn0 O11 2.016021 1_555
Mn0 O10 2.027568 1_555
Mn0 O9 2.197270 1_555
Mn0 O8 2.197904 1_555
Mn1 O5 1.915364 1_555
Mn1 O4 1.928840 1_555
Mn1 O13 1.974780 1_555
Mn1 O12 1.985781 1_555
Mn1 O6 2.396666 1_555
Mn1 O7 2.410536 1_555
Mn2 O69 1.975671 1_555
Mn2 O32 1.976741 1_555
Mn2 O64 2.023708 1_555
Mn2 O23 2.024650 1_555
Mn2 O20 2.200949 1_555
Mn2 O70 2.201431 1_555
Mn3 O63 1.919337 1_555
Mn3 O47 1.929078 1_555
Mn3 O38 1.977682 1_555
Mn3 O56 1.984503 1_555
Mn3 O48 2.395550 1_555
Mn3 O53 2.406869 1_555
Mn4 O46 1.918594 1_555
Mn4 O62 1.928246 1_555
Mn4 O57 1.977012 1_555
Mn4 O39 1.983423 1_555
Mn4 O52 2.397941 1_555
Mn4 O49 2.406124 1_555
Mn5 O33 1.975334 1_655
Mn5 O68 1.981309 1_555
Mn5 O65 2.018562 1_555
Mn5 O22 2.025301 1_655
Mn5 O71 2.198868 1_555
Mn5 O21 2.201899 1_655
O0 Si12 1.662654 1_555
O0 Si0 1.672169 1_555
O1 Si13 1.666446 1_455
O1 Si1 1.674986 1_555
O2 Si16 1.636277 1_454
O3 Si17 1.636817 1_555
O4 Si1 1.610355 1_555
O5 Si0 1.607178 1_555
O6 Si22 1.604006 1_555
O7 Si23 1.601012 1_455
O8 Si20 1.592533 1_455
O9 Si21 1.593241 1_555
O10 Si7 1.628443 1_555
O11 Si6 1.628919 1_555
O12 Si2 1.642137 1_556
O13 Si3 1.642528 1_555
O14 Si2 1.651377 1_556
O14 Si22 1.656697 1_555
O15 Si3 1.650173 1_555
O15 Si23 1.657500 1_455
O16 Si5 1.664750 1_555
O16 Si7 1.676240 1_555
O17 Si4 1.667034 1_554
O17 Si6 1.677820 1_555
O18 Si2 1.671237 1_555
O18 Si9 1.684506 1_555
O19 Si3 1.668894 1_555
O19 Si8 1.682864 1_555
O20 Si7 1.582075 1_555
O21 Si6 1.581298 1_555
O22 Si8 1.623179 1_555
O23 Si9 1.623056 1_555
O24 Si10 1.670808 1_555
O24 Si7 1.681950 1_555
O25 Si11 1.672316 1_555
O25 Si6 1.682198 1_555
O26 Si4 1.609822 1_555
O27 Si5 1.609877 1_555
O28 Si2 1.598524 1_555
O29 Si3 1.597956 1_555
O30 Si13 1.664245 1_565
O30 Si9 1.677224 1_555
O31 Si12 1.664192 1_565
O31 Si8 1.677604 1_555
O32 Si12 1.633162 1_665
O33 Si13 1.633800 1_465
O34 Si10 1.599227 1_555
O35 Si11 1.598470 1_555
O36 Si12 1.610429 1_555
O37 Si13 1.609552 1_555
O38 Si10 1.641647 1_545
O39 Si11 1.639676 1_545
O40 Si11 1.651363 1_545
O40 Si15 1.657351 1_555
O41 Si10 1.650773 1_545
O41 Si14 1.656658 1_555
O42 Si16 1.608681 1_555
O43 Si17 1.608077 1_555
O44 Si18 1.599244 1_555
O45 Si19 1.597667 1_555
O46 Si14 1.604241 1_555
O47 Si15 1.605890 1_555
O48 Si0 1.598388 1_555
O49 Si1 1.596506 1_655
O50 Si16 1.661092 1_555
O50 Si14 1.674719 1_555
O51 Si17 1.663961 1_555
O51 Si15 1.675345 1_555
O52 Si15 1.600998 1_555
O53 Si14 1.599754 1_555
O54 Si18 1.653310 1_556
O54 Si0 1.656949 1_555
O55 Si19 1.653160 1_555
O55 Si1 1.657885 1_655
O56 Si18 1.640245 1_556
O57 Si19 1.639495 1_555
O58 Si16 1.664537 1_554
O58 Si20 1.676756 1_555
O59 Si17 1.663404 1_555
O59 Si21 1.676404 1_555
O60 Si18 1.671970 1_555
O60 Si21 1.681309 1_555
O61 Si19 1.669966 1_555
O61 Si20 1.679356 1_555
O62 Si23 1.606805 1_555
O63 Si22 1.603106 1_555
O64 Si21 1.620267 1_555
O65 Si20 1.620790 1_555
O66 Si4 1.664109 1_655
O66 Si23 1.673289 1_555
O67 Si5 1.663182 1_555
O67 Si22 1.671935 1_555
O68 Si4 1.632665 1_654
O69 Si5 1.632391 1_555
O70 Si8 1.586679 1_655
O71 Si9 1.586725 1_555
