# generated using pymatgen
data_Li2BiS2
_symmetry_space_group_name_H-M   'P 1'
_cell_length_a   3.99784300
_cell_length_b   4.02644800
_cell_length_c   13.49954700
_cell_angle_alpha   90.00000000
_cell_angle_beta   90.00000000
_cell_angle_gamma   90.00000000
_symmetry_Int_Tables_number   1
_chemical_formula_structural   Li2BiS2
_chemical_formula_sum   'Li4 Bi2 S4'
_cell_volume   217.30365186
_cell_formula_units_Z   2
loop_
 _symmetry_equiv_pos_site_id
 _symmetry_equiv_pos_as_xyz
  1  'x, y, z'
loop_
 _atom_site_type_symbol
 _atom_site_label
 _atom_site_symmetry_multiplicity
 _atom_site_fract_x
 _atom_site_fract_y
 _atom_site_fract_z
 _atom_site_occupancy
  Li  Li0  1  0.42905500  0.50000000  0.24290700  1
  Li  Li1  1  0.07094500  0.00000000  0.74290700  1
  Li  Li2  1  0.92905500  0.00000000  0.25709300  1
  Li  Li3  1  0.57094500  0.50000000  0.75709300  1
  Bi  Bi0  1  0.00000000  0.00000000  0.00000000  1
  Bi  Bi1  1  0.50000000  0.50000000  0.50000000  1
  S  S0  1  0.43166200  0.00000000  0.35296500  1
  S  S1  1  0.06833800  0.50000000  0.85296500  1
  S  S2  1  0.93166200  0.50000000  0.14703500  1
  S  S3  1  0.56833800  0.00000000  0.64703500  1
loop_
_geom_bond_atom_site_label_1
_geom_bond_atom_site_label_2
_geom_bond_distance
_geom_bond_site_symmetry_2
Li0 S2 2.372584 1_455
Li0 S2 2.390082 1_555
Li0 S0 2.502116 1_565
Li0 S0 2.502116 1_555
Li1 S3 2.372584 1_555
Li1 S3 2.390082 1_455
Li1 S1 2.502116 1_555
Li1 S1 2.502116 1_545
Li2 S0 2.372584 1_555
Li2 S0 2.390082 1_655
Li2 S2 2.502116 1_545
Li2 S2 2.502116 1_555
Li3 S1 2.372584 1_655
Li3 S1 2.390082 1_555
Li3 S3 2.502116 1_565
Li3 S3 2.502116 1_555
Bi0 S2 2.840346 1_455
Bi0 S2 2.840346 1_445
Bi0 S1 2.840346 1_544
Bi0 S1 2.840346 1_554
Bi1 S3 2.840346 1_565
Bi1 S3 2.840346 1_555
Bi1 S0 2.840346 1_555
Bi1 S0 2.840346 1_565
