# generated using pymatgen
data_Lu2TiO5
_symmetry_space_group_name_H-M   'P 1'
_cell_length_a   3.56453200
_cell_length_b   7.38730300
_cell_length_c   15.25307700
_cell_angle_alpha   90.00000000
_cell_angle_beta   90.00000000
_cell_angle_gamma   90.00000000
_symmetry_Int_Tables_number   1
_chemical_formula_structural   Lu2TiO5
_chemical_formula_sum   'Lu8 Ti4 O20'
_cell_volume   401.64826296
_cell_formula_units_Z   4
loop_
 _symmetry_equiv_pos_site_id
 _symmetry_equiv_pos_as_xyz
  1  'x, y, z'
loop_
 _atom_site_type_symbol
 _atom_site_label
 _atom_site_symmetry_multiplicity
 _atom_site_fract_x
 _atom_site_fract_y
 _atom_site_fract_z
 _atom_site_occupancy
  Lu  Lu0  1  0.25000000  0.09796100  0.08466500  1
  Lu  Lu1  1  0.25000000  0.16632500  0.73751600  1
  Lu  Lu2  1  0.75000000  0.33367500  0.23751600  1
  Lu  Lu3  1  0.75000000  0.40203900  0.58466500  1
  Lu  Lu4  1  0.25000000  0.59796100  0.41533500  1
  Lu  Lu5  1  0.25000000  0.66632500  0.76248400  1
  Lu  Lu6  1  0.75000000  0.83367500  0.26248400  1
  Lu  Lu7  1  0.75000000  0.90203900  0.91533500  1
  Ti  Ti0  1  0.25000000  0.11294600  0.42273900  1
  Ti  Ti1  1  0.75000000  0.38705400  0.92273900  1
  Ti  Ti2  1  0.25000000  0.61294600  0.07726100  1
  Ti  Ti3  1  0.75000000  0.88705400  0.57726100  1
  O  O0  1  0.75000000  0.06545300  0.17497200  1
  O  O1  1  0.75000000  0.07344100  0.45312500  1
  O  O2  1  0.75000000  0.12609300  0.64872800  1
  O  O3  1  0.75000000  0.15493300  0.99569600  1
  O  O4  1  0.25000000  0.24487800  0.32048900  1
  O  O5  1  0.75000000  0.25512200  0.82048900  1
  O  O6  1  0.25000000  0.34506700  0.49569600  1
  O  O7  1  0.25000000  0.37390700  0.14872800  1
  O  O8  1  0.25000000  0.42655900  0.95312500  1
  O  O9  1  0.25000000  0.43454700  0.67497200  1
  O  O10  1  0.75000000  0.56545300  0.32502800  1
  O  O11  1  0.75000000  0.57344100  0.04687500  1
  O  O12  1  0.75000000  0.62609300  0.85127200  1
  O  O13  1  0.75000000  0.65493300  0.50430400  1
  O  O14  1  0.25000000  0.74487800  0.17951100  1
  O  O15  1  0.75000000  0.75512200  0.67951100  1
  O  O16  1  0.25000000  0.84506700  0.00430400  1
  O  O17  1  0.25000000  0.87390700  0.35127200  1
  O  O18  1  0.25000000  0.92655900  0.54687500  1
  O  O19  1  0.25000000  0.93454700  0.82502800  1
loop_
_geom_bond_atom_site_label_1
_geom_bond_atom_site_label_2
_geom_bond_distance
_geom_bond_site_symmetry_2
Lu0 O16 2.234426 1_545
Lu0 O7 2.260599 1_555
Lu0 O0 2.265290 1_455
Lu0 O0 2.265290 1_555
Lu0 O3 2.279296 1_554
Lu0 O3 2.279296 1_454
Lu1 O19 2.171046 1_545
Lu1 O9 2.199133 1_555
Lu1 O2 2.258076 1_455
Lu1 O2 2.258076 1_555
Lu1 O5 2.282213 1_555
Lu1 O5 2.282213 1_455
Lu2 O10 2.171046 1_555
Lu2 O0 2.199133 1_555
Lu2 O7 2.258076 1_555
Lu2 O7 2.258076 1_655
Lu2 O4 2.282213 1_555
Lu2 O4 2.282213 1_655
Lu3 O13 2.234426 1_555
Lu3 O2 2.260599 1_555
Lu3 O9 2.265290 1_555
Lu3 O9 2.265290 1_655
Lu3 O6 2.279296 1_555
Lu3 O6 2.279296 1_655
Lu4 O6 2.234426 1_555
Lu4 O17 2.260599 1_555
Lu4 O10 2.265290 1_555
Lu4 O10 2.265290 1_455
Lu4 O13 2.279296 1_555
Lu4 O13 2.279296 1_455
Lu5 O9 2.171046 1_555
Lu5 O19 2.199133 1_555
Lu5 O12 2.258076 1_455
Lu5 O12 2.258076 1_555
Lu5 O15 2.282213 1_455
Lu5 O15 2.282213 1_555
Lu6 O0 2.171046 1_565
Lu6 O10 2.199133 1_555
Lu6 O17 2.258076 1_655
Lu6 O17 2.258076 1_555
Lu6 O14 2.282213 1_555
Lu6 O14 2.282213 1_655
Lu7 O3 2.234426 1_565
Lu7 O12 2.260599 1_555
Lu7 O19 2.265290 1_555
Lu7 O19 2.265290 1_655
Lu7 O16 2.279296 1_656
Lu7 O16 2.279296 1_556
O1 Ti0 1.864525 1_655
O1 Ti0 1.864525 1_555
O1 Ti3 2.341158 1_545
O2 Ti3 2.075220 1_545
O3 Ti1 2.044193 1_555
O4 Ti0 1.839110 1_555
O5 Ti1 1.839110 1_555
O6 Ti0 2.044193 1_555
O7 Ti2 2.075220 1_555
O8 Ti1 1.864525 1_555
O8 Ti1 1.864525 1_455
O8 Ti2 2.341158 1_556
O11 Ti2 1.864525 1_555
O11 Ti2 1.864525 1_655
O11 Ti1 2.341158 1_554
O12 Ti1 2.075220 1_555
O13 Ti3 2.044193 1_555
O14 Ti2 1.839110 1_555
O15 Ti3 1.839110 1_555
O16 Ti2 2.044193 1_555
O17 Ti0 2.075220 1_565
O18 Ti3 1.864525 1_555
O18 Ti3 1.864525 1_455
O18 Ti0 2.341158 1_565
