# generated using pymatgen
data_Li2MgNi3O8
_symmetry_space_group_name_H-M   'P 1'
_cell_length_a   5.68251736
_cell_length_b   5.68251736
_cell_length_c   5.85715916
_cell_angle_alpha   61.01913736
_cell_angle_beta   61.01913736
_cell_angle_gamma   59.95067214
_symmetry_Int_Tables_number   1
_chemical_formula_structural   Li2MgNi3O8
_chemical_formula_sum   'Li2 Mg1 Ni3 O8'
_cell_volume   135.70867048
_cell_formula_units_Z   1
loop_
 _symmetry_equiv_pos_site_id
 _symmetry_equiv_pos_as_xyz
  1  'x, y, z'
loop_
 _atom_site_type_symbol
 _atom_site_label
 _atom_site_symmetry_multiplicity
 _atom_site_fract_x
 _atom_site_fract_y
 _atom_site_fract_z
 _atom_site_occupancy
  Li  Li0  1  0.50000000  0.50000000  0.50000000  1
  Li  Li1  1  0.00000000  0.00000000  0.50000000  1
  Mg  Mg0  1  0.00000000  0.00000000  0.00000000  1
  Ni  Ni0  1  0.50000000  0.00000000  0.00000000  1
  Ni  Ni1  1  0.00000000  0.50000000  0.00000000  1
  Ni  Ni2  1  0.50000000  0.50000000  0.00000000  1
  O  O0  1  0.24328500  0.71502500  0.78967300  1
  O  O1  1  0.75671500  0.28497500  0.21032700  1
  O  O2  1  0.28497500  0.75671500  0.21032700  1
  O  O3  1  0.71502500  0.24328500  0.78967300  1
  O  O4  1  0.26658000  0.26658000  0.19540700  1
  O  O5  1  0.73342000  0.73342000  0.80459300  1
  O  O6  1  0.24717200  0.24717200  0.79410900  1
  O  O7  1  0.75282800  0.75282800  0.20589100  1
loop_
_geom_bond_atom_site_label_1
_geom_bond_atom_site_label_2
_geom_bond_distance
_geom_bond_site_symmetry_2
Li0 O1 2.079686 1_555
Li0 O0 2.079686 1_555
Li0 O2 2.079686 1_555
Li0 O3 2.079686 1_555
Li0 O7 2.089575 1_555
Li0 O6 2.089575 1_555
Li1 O0 2.186478 1_545
Li1 O3 2.186478 1_455
Li1 O2 2.186478 1_545
Li1 O1 2.186478 1_455
Li1 O5 2.198357 1_445
Li1 O4 2.198357 1_555
Mg0 O2 2.022859 1_545
Mg0 O1 2.022859 1_455
Mg0 O0 2.022859 1_544
Mg0 O3 2.022859 1_454
Mg0 O6 2.023083 1_554
Mg0 O7 2.023083 1_445
Ni0 O3 1.872052 1_554
Ni0 O2 1.872052 1_545
Ni0 O7 1.872911 1_545
Ni0 O6 1.872911 1_554
Ni0 O5 1.886997 1_544
Ni0 O4 1.886997 1_555
Ni1 O0 1.872052 1_554
Ni1 O1 1.872052 1_455
Ni1 O7 1.872911 1_455
Ni1 O6 1.872911 1_554
Ni1 O5 1.886997 1_454
Ni1 O4 1.886997 1_555
Ni2 O2 1.906926 1_555
Ni2 O1 1.906926 1_555
Ni2 O3 1.906926 1_554
Ni2 O0 1.906926 1_554
Ni2 O4 1.910096 1_555
Ni2 O5 1.910096 1_554
