# generated using pymatgen
data_Li3Fe2(SiO4)2
_symmetry_space_group_name_H-M   'P 1'
_cell_length_a   5.03503900
_cell_length_b   5.52854047
_cell_length_c   6.22656155
_cell_angle_alpha   89.42983268
_cell_angle_beta   89.79101671
_cell_angle_gamma   89.17834280
_symmetry_Int_Tables_number   1
_chemical_formula_structural   Li3Fe2(SiO4)2
_chemical_formula_sum   'Li3 Fe2 Si2 O8'
_cell_volume   173.29769522
_cell_formula_units_Z   1
loop_
 _symmetry_equiv_pos_site_id
 _symmetry_equiv_pos_as_xyz
  1  'x, y, z'
loop_
 _atom_site_type_symbol
 _atom_site_label
 _atom_site_symmetry_multiplicity
 _atom_site_fract_x
 _atom_site_fract_y
 _atom_site_fract_z
 _atom_site_occupancy
  Li  Li0  1  0.50437000  0.66334100  0.24494100  1
  Li  Li1  1  0.50408200  0.66997600  0.75550800  1
  Li  Li2  1  0.00489800  0.33535900  0.75339400  1
  Fe  Fe0  1  0.01259100  0.83499200  0.00578800  1
  Fe  Fe1  1  0.49821500  0.16535700  0.49353700  1
  Si  Si0  1  0.48878600  0.16459000  0.99612800  1
  Si  Si1  1  0.00829500  0.83219500  0.50351100  1
  O  O0  1  0.60121200  0.88091900  0.99897600  1
  O  O1  1  0.16856100  0.16539800  0.98006500  1
  O  O2  1  0.57759500  0.30695900  0.21982300  1
  O  O3  1  0.11939000  0.70386200  0.28835800  1
  O  O4  1  0.12872700  0.10973800  0.52037300  1
  O  O5  1  0.67499600  0.85128900  0.50078700  1
  O  O6  1  0.10040800  0.67655800  0.71782800  1
  O  O7  1  0.60195300  0.30853000  0.77144000  1
loop_
_geom_bond_atom_site_label_1
_geom_bond_atom_site_label_2
_geom_bond_distance
_geom_bond_site_symmetry_2
Li0 O3 1.966100 1_555
Li0 O0 2.001237 1_554
Li0 O2 2.006800 1_555
Li0 O5 2.103345 1_555
Li1 O0 1.988548 1_555
Li1 O6 2.046624 1_555
Li1 O7 2.052785 1_555
Li1 O5 2.060100 1_555
Li2 O1 1.874527 1_555
Li2 O6 1.963538 1_555
Li2 O4 2.014177 1_555
Li2 O7 2.038987 1_455
Fe0 O3 1.969946 1_555
Fe0 O1 2.003365 1_564
Fe0 O6 2.047423 1_554
Fe0 O0 2.083731 1_454
Fe1 O4 1.896477 1_555
Fe1 O2 1.911722 1_555
Fe1 O5 1.939998 1_545
Fe1 O7 1.984762 1_555
O0 Si0 1.659618 1_565
O1 Si0 1.615748 1_555
O2 Si0 1.672111 1_554
O3 Si1 1.616490 1_555
O4 Si1 1.662373 1_545
O5 Si1 1.680116 1_655
O6 Si1 1.645134 1_555
O7 Si0 1.703016 1_555
