# generated using pymatgen
data_LiVSiO4
_symmetry_space_group_name_H-M   'P 1'
_cell_length_a   5.15732400
_cell_length_b   10.31523200
_cell_length_c   13.70664400
_cell_angle_alpha   90.00000000
_cell_angle_beta   90.00000000
_cell_angle_gamma   90.00000000
_symmetry_Int_Tables_number   1
_chemical_formula_structural   LiVSiO4
_chemical_formula_sum   'Li8 V8 Si8 O32'
_cell_volume   729.17966587
_cell_formula_units_Z   8
loop_
 _symmetry_equiv_pos_site_id
 _symmetry_equiv_pos_as_xyz
  1  'x, y, z'
loop_
 _atom_site_type_symbol
 _atom_site_label
 _atom_site_symmetry_multiplicity
 _atom_site_fract_x
 _atom_site_fract_y
 _atom_site_fract_z
 _atom_site_occupancy
  Li  Li0  1  0.06251200  0.03500500  0.24916500  1
  Li  Li1  1  0.55154700  0.21345500  0.99635600  1
  Li  Li2  1  0.55154700  0.28654500  0.49635600  1
  Li  Li3  1  0.06251200  0.46499500  0.74916500  1
  Li  Li4  1  0.93748800  0.53500500  0.24916500  1
  Li  Li5  1  0.44845300  0.71345500  0.99635600  1
  Li  Li6  1  0.44845300  0.78654500  0.49635600  1
  Li  Li7  1  0.93748800  0.96499500  0.74916500  1
  V  V0  1  0.92558000  0.03263000  0.49907500  1
  V  V1  1  0.55759700  0.21602000  0.24809200  1
  V  V2  1  0.55759700  0.28398000  0.74809200  1
  V  V3  1  0.92558000  0.46737000  0.99907500  1
  V  V4  1  0.07442000  0.53263000  0.49907500  1
  V  V5  1  0.44240300  0.71602000  0.24809200  1
  V  V6  1  0.44240300  0.78398000  0.74809200  1
  V  V7  1  0.07442000  0.96737000  0.99907500  1
  Si  Si0  1  0.43530100  0.03217500  0.62405000  1
  Si  Si1  1  0.05609200  0.21657700  0.87260300  1
  Si  Si2  1  0.05609200  0.28342300  0.37260300  1
  Si  Si3  1  0.43530100  0.46782500  0.12405000  1
  Si  Si4  1  0.56469900  0.53217500  0.62405000  1
  Si  Si5  1  0.94390800  0.71657700  0.87260300  1
  Si  Si6  1  0.94390800  0.78342300  0.37260300  1
  Si  Si7  1  0.56469900  0.96782500  0.12405000  1
  O  O0  1  0.87746200  0.99879600  0.11738100  1
  O  O1  1  0.57478200  0.97229100  0.52585900  1
  O  O2  1  0.44668000  0.03899400  0.22210600  1
  O  O3  1  0.99520900  0.06002700  0.87827800  1
  O  O4  1  0.49644100  0.18866400  0.62901800  1
  O  O5  1  0.92338700  0.21619300  0.46973600  1
  O  O6  1  0.92552800  0.28217200  0.77469600  1
  O  O7  1  0.36995300  0.24470400  0.86798600  1
  O  O8  1  0.36995300  0.25529600  0.36798600  1
  O  O9  1  0.92552800  0.21782800  0.27469600  1
  O  O10  1  0.92338700  0.28380700  0.96973600  1
  O  O11  1  0.49644100  0.31133600  0.12901800  1
  O  O12  1  0.99520900  0.43997300  0.37827800  1
  O  O13  1  0.44668000  0.46100600  0.72210600  1
  O  O14  1  0.57478200  0.52770900  0.02585900  1
  O  O15  1  0.87746200  0.50120400  0.61738100  1
  O  O16  1  0.12253800  0.49879600  0.11738100  1
  O  O17  1  0.42521800  0.47229100  0.52585900  1
  O  O18  1  0.55332000  0.53899400  0.22210600  1
  O  O19  1  0.00479100  0.56002700  0.87827800  1
  O  O20  1  0.50355900  0.68866400  0.62901800  1
  O  O21  1  0.07661300  0.71619300  0.46973600  1
  O  O22  1  0.07447200  0.78217200  0.77469600  1
  O  O23  1  0.63004700  0.74470400  0.86798600  1
  O  O24  1  0.63004700  0.75529600  0.36798600  1
  O  O25  1  0.07447200  0.71782800  0.27469600  1
  O  O26  1  0.07661300  0.78380700  0.96973600  1
  O  O27  1  0.50355900  0.81133600  0.12901800  1
  O  O28  1  0.00479100  0.93997300  0.37827800  1
  O  O29  1  0.55332000  0.96100600  0.72210600  1
  O  O30  1  0.42521800  0.02770900  0.02585900  1
  O  O31  1  0.12253800  0.00120400  0.61738100  1
loop_
_geom_bond_atom_site_label_1
_geom_bond_atom_site_label_2
_geom_bond_distance
_geom_bond_site_symmetry_2
Li0 O2 2.016114 1_555
Li0 O9 2.044025 1_455
Li0 O28 2.044852 1_545
Li0 O0 2.076799 1_445
Li1 O7 2.019140 1_555
Li1 O30 2.063762 1_556
Li1 O10 2.082628 1_555
Li1 O11 2.099189 1_556
Li2 O8 2.019140 1_555
Li2 O17 2.063762 1_555
Li2 O5 2.082628 1_555
Li2 O4 2.099189 1_555
Li3 O13 2.016114 1_555
Li3 O6 2.044025 1_455
Li3 O19 2.044852 1_555
Li3 O15 2.076799 1_455
Li4 O18 2.016114 1_555
Li4 O25 2.044025 1_655
Li4 O12 2.044852 1_555
Li4 O16 2.076799 1_655
Li5 O23 2.019140 1_555
Li5 O14 2.063762 1_556
Li5 O26 2.082628 1_555
Li5 O27 2.099189 1_556
Li6 O24 2.019140 1_555
Li6 O1 2.063762 1_555
Li6 O21 2.082628 1_555
Li6 O20 2.099189 1_555
Li7 O29 2.016114 1_555
Li7 O22 2.044025 1_655
Li7 O3 2.044852 1_565
Li7 O31 2.076799 1_665
O0 Si7 1.646892 1_555
O0 V7 1.940722 1_654
O1 Si0 1.646330 1_565
O1 V0 1.948153 1_565
O2 Si7 1.647967 1_545
O2 V1 1.946432 1_555
O3 Si1 1.646931 1_655
O3 V7 1.954946 1_645
O4 Si0 1.646138 1_555
O4 V2 1.931305 1_555
O5 Si2 1.649812 1_655
O5 V0 1.935760 1_555
O6 Si1 1.646858 1_655
O6 V2 1.932349 1_555
O7 Si1 1.645697 1_555
O7 V2 1.949678 1_555
O8 Si2 1.645697 1_555
O8 V1 1.949678 1_555
O9 Si2 1.646858 1_655
O9 V1 1.932349 1_555
O10 Si1 1.649812 1_655
O10 V3 1.935760 1_555
O11 Si3 1.646138 1_555
O11 V1 1.931305 1_555
O12 Si2 1.646931 1_655
O12 V4 1.954946 1_655
O13 Si4 1.647967 1_555
O13 V2 1.946432 1_555
O14 Si3 1.646330 1_555
O14 V3 1.948153 1_554
O15 Si4 1.646892 1_555
O15 V4 1.940722 1_655
O16 Si3 1.646892 1_555
O16 V3 1.940722 1_454
O17 Si4 1.646330 1_555
O17 V4 1.948153 1_555
O18 Si3 1.647967 1_555
O18 V5 1.946432 1_555
O19 Si5 1.646931 1_455
O19 V3 1.954946 1_455
O20 Si4 1.646138 1_555
O20 V6 1.931305 1_555
O21 Si6 1.649812 1_455
O21 V4 1.935760 1_555
O22 Si5 1.646858 1_455
O22 V6 1.932349 1_555
O23 Si5 1.645697 1_555
O23 V6 1.949678 1_555
O24 Si6 1.645697 1_555
O24 V5 1.949678 1_555
O25 Si6 1.646858 1_455
O25 V5 1.932349 1_555
O26 Si5 1.649812 1_455
O26 V7 1.935760 1_555
O27 Si7 1.646138 1_555
O27 V5 1.931305 1_555
O28 Si6 1.646931 1_455
O28 V0 1.954946 1_465
O29 Si0 1.647967 1_565
O29 V6 1.946432 1_555
O30 Si7 1.646330 1_545
O30 V7 1.948153 1_544
O31 Si0 1.646892 1_555
O31 V0 1.940722 1_455
