# generated using pymatgen
data_LiFeP2O7
_symmetry_space_group_name_H-M   'P 1'
_cell_length_a   8.05071400
_cell_length_b   5.09928000
_cell_length_c   14.21988115
_cell_angle_alpha   70.40455270
_cell_angle_beta   90.00000000
_cell_angle_gamma   90.00000000
_symmetry_Int_Tables_number   1
_chemical_formula_structural   LiFeP2O7
_chemical_formula_sum   'Li4 Fe4 P8 O28'
_cell_volume   549.95721121
_cell_formula_units_Z   4
loop_
 _symmetry_equiv_pos_site_id
 _symmetry_equiv_pos_as_xyz
  1  'x, y, z'
loop_
 _atom_site_type_symbol
 _atom_site_label
 _atom_site_symmetry_multiplicity
 _atom_site_fract_x
 _atom_site_fract_y
 _atom_site_fract_z
 _atom_site_occupancy
  Li  Li0  1  0.77943700  0.04369400  0.74659100  1
  Li  Li1  1  0.27943700  0.95630600  0.75340900  1
  Li  Li2  1  0.72056300  0.04369400  0.24659100  1
  Li  Li3  1  0.22056300  0.95630600  0.25340900  1
  Fe  Fe0  1  0.84786600  0.68936000  0.11681200  1
  Fe  Fe1  1  0.34786600  0.31064000  0.38318800  1
  Fe  Fe2  1  0.65213400  0.68936000  0.61681200  1
  Fe  Fe3  1  0.15213400  0.31064000  0.88318800  1
  P  P0  1  0.70685600  0.32249000  0.47600200  1
  P  P1  1  0.46645300  0.56554400  0.17890200  1
  P  P2  1  0.96645300  0.43445600  0.32109800  1
  P  P3  1  0.20685600  0.67751000  0.02399800  1
  P  P4  1  0.79314400  0.32249000  0.97600200  1
  P  P5  1  0.03354700  0.56554400  0.67890200  1
  P  P6  1  0.53354700  0.43445600  0.82109800  1
  P  P7  1  0.29314400  0.67751000  0.52399800  1
  O  O0  1  0.54278400  0.20177200  0.77757000  1
  O  O1  1  0.86362500  0.68932700  0.25876100  1
  O  O2  1  0.32795000  0.40111900  0.50757700  1
  O  O3  1  0.09092200  0.72903200  0.10149900  1
  O  O4  1  0.14210700  0.53106200  0.33683400  1
  O  O5  1  0.89161600  0.32987900  0.43402000  1
  O  O6  1  0.21010400  0.92105000  0.92413000  1
  O  O7  1  0.39161600  0.67012100  0.06598000  1
  O  O8  1  0.71010400  0.07895000  0.57587000  1
  O  O9  1  0.64210700  0.46893800  0.16316600  1
  O  O10  1  0.59092200  0.27096800  0.39850100  1
  O  O11  1  0.36362500  0.31067300  0.24123900  1
  O  O12  1  0.82795000  0.59888100  0.99242300  1
  O  O13  1  0.04278400  0.79822800  0.72243000  1
  O  O14  1  0.95721600  0.20177200  0.27757000  1
  O  O15  1  0.17205000  0.40111900  0.00757700  1
  O  O16  1  0.63637500  0.68932700  0.75876100  1
  O  O17  1  0.40907800  0.72903200  0.60149900  1
  O  O18  1  0.35789300  0.53106200  0.83683400  1
  O  O19  1  0.28989600  0.92105000  0.42413000  1
  O  O20  1  0.60838400  0.32987900  0.93402000  1
  O  O21  1  0.78989600  0.07895000  0.07587000  1
  O  O22  1  0.10838400  0.67012100  0.56598000  1
  O  O23  1  0.85789300  0.46893800  0.66316600  1
  O  O24  1  0.90907800  0.27096800  0.89850100  1
  O  O25  1  0.67205000  0.59888100  0.49242300  1
  O  O26  1  0.13637500  0.31067300  0.74123900  1
  O  O27  1  0.45721600  0.79822800  0.22243000  1
loop_
_geom_bond_atom_site_label_1
_geom_bond_atom_site_label_2
_geom_bond_distance
_geom_bond_site_symmetry_2
Li0 O16 2.100484 1_545
Li0 O0 2.170689 1_555
Li0 O23 2.186989 1_555
Li0 O8 2.438143 1_555
Li0 O13 2.543266 1_645
Li1 O26 2.100484 1_565
Li1 O13 2.170689 1_555
Li1 O18 2.186989 1_555
Li1 O6 2.438143 1_555
Li1 O0 2.543266 1_565
Li2 O1 2.100484 1_545
Li2 O14 2.170689 1_555
Li2 O9 2.186989 1_555
Li2 O21 2.438143 1_555
Li2 O27 2.543266 1_545
Li3 O11 2.100484 1_565
Li3 O27 2.170689 1_555
Li3 O4 2.186989 1_555
Li3 O19 2.438143 1_555
Li3 O14 2.543266 1_465
Fe0 O21 1.930714 1_565
Fe0 O3 1.971740 1_655
Fe0 O12 1.978537 1_554
Fe0 O9 1.986179 1_555
Fe0 O1 2.022425 1_555
Fe1 O19 1.930714 1_545
Fe1 O10 1.971740 1_555
Fe1 O2 1.978537 1_555
Fe1 O4 1.986179 1_555
Fe1 O11 2.022425 1_555
Fe2 O8 1.930714 1_565
Fe2 O17 1.971740 1_555
Fe2 O25 1.978537 1_555
Fe2 O23 1.986179 1_555
Fe2 O16 2.022425 1_555
Fe3 O6 1.930714 1_545
Fe3 O24 1.971740 1_455
Fe3 O15 1.978537 1_556
Fe3 O18 1.986179 1_555
Fe3 O26 2.022425 1_555
O0 P6 1.512973 1_555
O1 P2 1.545133 1_555
O2 P7 1.529766 1_555
O3 P3 1.532613 1_555
O4 P2 1.538335 1_455
O5 P0 1.598507 1_555
O5 P2 1.628313 1_555
O6 P3 1.541661 1_556
O7 P3 1.598507 1_555
O7 P1 1.628313 1_555
O8 P0 1.541661 1_555
O9 P1 1.538335 1_555
O10 P0 1.532613 1_555
O11 P1 1.545133 1_555
O12 P4 1.529766 1_555
O13 P5 1.512973 1_555
O14 P2 1.512973 1_555
O15 P3 1.529766 1_555
O16 P6 1.545133 1_555
O17 P7 1.532613 1_555
O18 P6 1.538335 1_555
O19 P7 1.541661 1_555
O20 P4 1.598507 1_555
O20 P6 1.628313 1_555
O21 P4 1.541661 1_554
O22 P7 1.598507 1_555
O22 P5 1.628313 1_555
O23 P5 1.538335 1_655
O24 P4 1.532613 1_555
O25 P0 1.529766 1_555
O26 P5 1.545133 1_555
O27 P1 1.512973 1_555
