# generated using pymatgen
data_Li4AlCr3O8
_symmetry_space_group_name_H-M   'P 1'
_cell_length_a   5.10927585
_cell_length_b   5.86610636
_cell_length_c   10.57097287
_cell_angle_alpha   106.07405861
_cell_angle_beta   85.42351089
_cell_angle_gamma   73.33288084
_symmetry_Int_Tables_number   1
_chemical_formula_structural   Li4AlCr3O8
_chemical_formula_sum   'Li8 Al2 Cr6 O16'
_cell_volume   287.25675850
_cell_formula_units_Z   2
loop_
 _symmetry_equiv_pos_site_id
 _symmetry_equiv_pos_as_xyz
  1  'x, y, z'
loop_
 _atom_site_type_symbol
 _atom_site_label
 _atom_site_symmetry_multiplicity
 _atom_site_fract_x
 _atom_site_fract_y
 _atom_site_fract_z
 _atom_site_occupancy
  Li  Li0  1  0.99998200  0.12498600  0.74978700  1
  Li  Li1  1  0.99968500  0.99991400  0.00106300  1
  Li  Li2  1  0.00059100  0.24855000  0.49884700  1
  Li  Li3  1  0.99997000  0.37502300  0.25000400  1
  Li  Li4  1  0.00004600  0.62499400  0.75020200  1
  Li  Li5  1  0.99939400  0.50143700  0.00114500  1
  Li  Li6  1  0.00031500  0.75009100  0.49893000  1
  Li  Li7  1  0.99998100  0.87501100  0.25001100  1
  Al  Al0  1  0.50023500  0.81271100  0.37320000  1
  Al  Al1  1  0.49974200  0.93728500  0.12680100  1
  Cr  Cr0  1  0.49987200  0.06234100  0.87713200  1
  Cr  Cr1  1  0.49980700  0.18575100  0.62359400  1
  Cr  Cr2  1  0.49966500  0.31031900  0.37326600  1
  Cr  Cr3  1  0.50022600  0.56424300  0.87640500  1
  Cr  Cr4  1  0.50026100  0.43969500  0.12674400  1
  Cr  Cr5  1  0.50017400  0.68764600  0.62286900  1
  O  O0  1  0.28303300  0.07394700  0.30670400  1
  O  O1  1  0.72024000  0.02878900  0.43613900  1
  O  O2  1  0.27288200  0.33697300  0.81108300  1
  O  O3  1  0.72735300  0.28865400  0.94049900  1
  O  O4  1  0.72013600  0.15408600  0.18673800  1
  O  O5  1  0.27808500  0.20419700  0.06518600  1
  O  O6  1  0.27265500  0.46138100  0.55951700  1
  O  O7  1  0.72717700  0.41300600  0.68891100  1
  O  O8  1  0.27977400  0.59594500  0.31327000  1
  O  O9  1  0.72187500  0.54577800  0.43480300  1
  O  O10  1  0.27280900  0.83704000  0.81006200  1
  O  O11  1  0.72152300  0.79276700  0.94770900  1
  O  O12  1  0.27977300  0.72122000  0.06385200  1
  O  O13  1  0.27854200  0.95722600  0.55228800  1
  O  O14  1  0.71693400  0.67604400  0.19330700  1
  O  O15  1  0.72726600  0.91295000  0.68993200  1
loop_
_geom_bond_atom_site_label_1
_geom_bond_atom_site_label_2
_geom_bond_distance
_geom_bond_site_symmetry_2
Li0 O15 2.141960 1_545
Li0 O10 2.142266 1_645
Li0 O2 2.145447 1_655
Li0 O7 2.146125 1_555
Li0 O3 2.153894 1_555
Li0 O13 2.222041 1_645
Li1 O4 2.130511 1_565
Li1 O11 2.133901 1_554
Li1 O12 2.138138 1_655
Li1 O5 2.144903 1_665
Li1 O3 2.146062 1_564
Li1 O10 2.157346 1_654
Li2 O13 2.127646 1_545
Li2 O6 2.143979 1_555
Li2 O7 2.150488 1_455
Li2 O0 2.188479 1_555
Li2 O1 2.211464 1_455
Li2 O9 2.215744 1_455
Li3 O9 2.120250 1_555
Li3 O5 2.120456 1_655
Li3 O14 2.197306 1_555
Li3 O0 2.197608 1_655
Li3 O8 2.214920 1_655
Li3 O4 2.215109 1_555
Li4 O15 2.142168 1_455
Li4 O10 2.142212 1_555
Li4 O7 2.145308 1_455
Li4 O2 2.146230 1_555
Li4 O6 2.153631 1_555
Li4 O11 2.222023 1_455
Li5 O11 2.127454 1_554
Li5 O3 2.143640 1_554
Li5 O2 2.150641 1_654
Li5 O14 2.188671 1_555
Li5 O12 2.211671 1_655
Li5 O5 2.215718 1_655
Li6 O8 2.130177 1_555
Li6 O13 2.134142 1_555
Li6 O1 2.138134 1_465
Li6 O9 2.145202 1_455
Li6 O6 2.146097 1_555
Li6 O15 2.157184 1_455
Li7 O0 2.128751 1_665
Li7 O14 2.128872 1_555
Li7 O1 2.134627 1_565
Li7 O12 2.134995 1_655
Li7 O8 2.141725 1_655
Li7 O4 2.141971 1_565
Al0 O8 1.943294 1_555
Al0 O1 1.944858 1_565
Al0 O14 1.948186 1_555
Al0 O13 1.950356 1_555
Al0 O0 1.954351 1_565
Al0 O9 1.955388 1_555
Al1 O4 1.943186 1_565
Al1 O12 1.944679 1_555
Al1 O0 1.948292 1_565
Al1 O11 1.950560 1_554
Al1 O14 1.954419 1_555
Al1 O5 1.955408 1_565
Cr0 O3 2.019629 1_555
Cr0 O10 2.021679 1_545
Cr0 O11 2.025012 1_545
Cr0 O2 2.026883 1_555
Cr0 O5 2.027786 1_556
Cr0 O15 2.030405 1_545
Cr1 O6 2.018803 1_555
Cr1 O1 2.020284 1_555
Cr1 O15 2.021864 1_545
Cr1 O13 2.022138 1_545
Cr1 O7 2.027331 1_555
Cr1 O2 2.031996 1_555
Cr2 O4 2.012316 1_555
Cr2 O6 2.021580 1_555
Cr2 O8 2.023400 1_555
Cr2 O1 2.024585 1_555
Cr2 O0 2.026608 1_555
Cr2 O9 2.034639 1_555
Cr3 O3 2.018688 1_555
Cr3 O12 2.020253 1_556
Cr3 O10 2.021799 1_555
Cr3 O11 2.022256 1_555
Cr3 O2 2.027301 1_555
Cr3 O7 2.032087 1_555
Cr4 O8 2.012330 1_555
Cr4 O3 2.021684 1_554
Cr4 O4 2.023284 1_555
Cr4 O12 2.024528 1_555
Cr4 O14 2.026671 1_555
Cr4 O5 2.034715 1_555
Cr5 O6 2.019546 1_555
Cr5 O15 2.021792 1_555
Cr5 O13 2.025028 1_555
Cr5 O7 2.026896 1_555
Cr5 O9 2.027729 1_555
Cr5 O10 2.030290 1_555
