# generated using pymatgen
data_K3Cu3P2
_symmetry_space_group_name_H-M   'P 1'
_cell_length_a   7.41985542
_cell_length_b   7.41985581
_cell_length_c   7.41985581
_cell_angle_alpha   44.82627222
_cell_angle_beta   44.82626881
_cell_angle_gamma   44.82626771
_symmetry_Int_Tables_number   1
_chemical_formula_structural   K3Cu3P2
_chemical_formula_sum   'K3 Cu3 P2'
_cell_volume   184.70655395
_cell_formula_units_Z   1
loop_
 _symmetry_equiv_pos_site_id
 _symmetry_equiv_pos_as_xyz
  1  'x, y, z'
loop_
 _atom_site_type_symbol
 _atom_site_label
 _atom_site_symmetry_multiplicity
 _atom_site_fract_x
 _atom_site_fract_y
 _atom_site_fract_z
 _atom_site_occupancy
  K  K0  1  0.90814348  0.90814348  0.90814348  1
  K  K1  1  0.50000000  0.50000000  0.50000000  1
  K  K2  1  0.09185652  0.09185652  0.09185652  1
  Cu  Cu0  1  0.50000000  0.00000000  0.50000000  1
  Cu  Cu1  1  0.50000000  0.50000000  -0.00000000  1
  Cu  Cu2  1  -0.00000000  0.50000000  0.50000000  1
  P  P0  1  0.25702121  0.25702121  0.25702121  1
  P  P1  1  0.74297879  0.74297879  0.74297879  1
loop_
_geom_bond_atom_site_label_1
_geom_bond_atom_site_label_2
_geom_bond_distance
_geom_bond_site_symmetry_2
K0 P0 3.281456 1_566
K0 P0 3.281456 1_656
K0 P0 3.281457 1_665
K0 P1 3.301003 1_555
K0 K1 3.592625 1_655
K0 K1 3.592626 1_565
K0 K1 3.592626 1_556
K1 K2 3.592625 1_655
K1 K2 3.592626 1_565
K1 K2 3.592626 1_556
K1 P1 3.732625 1_455
K1 P0 3.732625 1_655
K1 P0 3.732625 1_565
K1 P1 3.732625 1_545
K1 P0 3.732625 1_556
K1 P1 3.732625 1_554
K2 P1 3.281456 1_544
K2 P1 3.281456 1_454
K2 P1 3.281457 1_445
K2 P0 3.301003 1_555
Cu0 P0 2.234736 1_555
Cu0 P1 2.234736 1_545
Cu0 K2 3.372528 1_655
Cu0 K0 3.372528 1_445
Cu0 K2 3.372528 1_556
Cu0 K0 3.372528 1_544
Cu0 K1 3.709928 1_545
Cu0 K1 3.709928 1_555
Cu1 P1 2.234736 1_554
Cu1 P0 2.234736 1_555
Cu1 K2 3.372528 1_655
Cu1 K0 3.372528 1_454
Cu1 K2 3.372528 1_565
Cu1 K0 3.372528 1_544
Cu1 K1 3.709928 1_555
Cu1 K1 3.709928 1_554
Cu2 P0 2.234736 1_555
Cu2 P1 2.234736 1_455
Cu2 K2 3.372529 1_556
Cu2 K0 3.372529 1_454
Cu2 K2 3.372529 1_565
Cu2 K0 3.372529 1_445
Cu2 K1 3.709928 1_555
Cu2 K1 3.709928 1_455
