# generated using pymatgen
data_LiMn(PO3)3
_symmetry_space_group_name_H-M   'P 1'
_cell_length_a   6.66417900
_cell_length_b   6.85388719
_cell_length_c   7.38929998
_cell_angle_alpha   84.61944154
_cell_angle_beta   82.16310582
_cell_angle_gamma   82.89965106
_symmetry_Int_Tables_number   1
_chemical_formula_structural   LiMn(PO3)3
_chemical_formula_sum   'Li2 Mn2 P6 O18'
_cell_volume   330.77667756
_cell_formula_units_Z   2
loop_
 _symmetry_equiv_pos_site_id
 _symmetry_equiv_pos_as_xyz
  1  'x, y, z'
loop_
 _atom_site_type_symbol
 _atom_site_label
 _atom_site_symmetry_multiplicity
 _atom_site_fract_x
 _atom_site_fract_y
 _atom_site_fract_z
 _atom_site_occupancy
  Li  Li0  1  0.46012900  0.83911500  0.82249400  1
  Li  Li1  1  0.53987100  0.16088500  0.17750600  1
  Mn  Mn0  1  0.95891700  0.78050000  0.87009900  1
  Mn  Mn1  1  0.04108300  0.21950000  0.12990100  1
  P  P0  1  0.79199800  0.84630000  0.45292100  1
  P  P1  1  0.14738900  0.70141500  0.22249200  1
  P  P2  1  0.60514000  0.61473000  0.21005300  1
  P  P3  1  0.39486000  0.38527000  0.78994700  1
  P  P4  1  0.85261100  0.29858500  0.77750800  1
  P  P5  1  0.20800200  0.15370000  0.54707900  1
  O  O0  1  0.24392300  0.97115600  0.67130600  1
  O  O1  1  0.74556700  0.85000200  0.65853800  1
  O  O2  1  0.14105300  0.87972100  0.08369300  1
  O  O3  1  0.64993600  0.76566300  0.05135900  1
  O  O4  1  0.03077600  0.75995400  0.41911900  1
  O  O5  1  0.67956400  0.67080200  0.39585700  1
  O  O6  1  0.36503500  0.64168700  0.28324400  1
  O  O7  1  0.33251400  0.59950800  0.81257000  1
  O  O8  1  0.94226500  0.46982100  0.83504200  1
  O  O9  1  0.05773500  0.53017900  0.16495800  1
  O  O10  1  0.66748600  0.40049200  0.18743000  1
  O  O11  1  0.63496500  0.35831300  0.71675600  1
  O  O12  1  0.32043600  0.32919800  0.60414300  1
  O  O13  1  0.96922400  0.24004600  0.58088100  1
  O  O14  1  0.35006400  0.23433700  0.94864100  1
  O  O15  1  0.85894700  0.12027900  0.91630700  1
  O  O16  1  0.25443300  0.14999800  0.34146200  1
  O  O17  1  0.75607700  0.02884400  0.32869400  1
loop_
_geom_bond_atom_site_label_1
_geom_bond_atom_site_label_2
_geom_bond_distance
_geom_bond_site_symmetry_2
Li0 O7 1.952039 1_555
Li0 O0 2.017448 1_555
Li0 O1 2.116935 1_555
Li0 O3 2.231524 1_556
Li1 O10 1.952039 1_555
Li1 O17 2.017448 1_555
Li1 O16 2.116935 1_555
Li1 O14 2.231524 1_554
Mn0 O8 2.187074 1_555
Mn0 O1 2.234134 1_555
Mn0 O3 2.306148 1_556
Mn0 O2 2.314000 1_656
Mn0 O15 2.384808 1_565
Mn0 O7 2.639126 1_655
Mn0 O0 2.639229 1_655
Mn0 O9 2.745052 1_656
Mn1 O9 2.187074 1_555
Mn1 O16 2.234134 1_555
Mn1 O14 2.306148 1_554
Mn1 O15 2.314000 1_454
Mn1 O2 2.384808 1_545
Mn1 O10 2.639126 1_455
Mn1 O17 2.639229 1_455
Mn1 O8 2.745052 1_454
O0 P5 1.495251 1_565
O1 P0 1.510609 1_555
O2 P1 1.520258 1_555
O3 P2 1.512522 1_555
O4 P1 1.612531 1_555
O4 P0 1.622114 1_455
O5 P0 1.609391 1_555
O5 P2 1.615700 1_555
O6 P1 1.571360 1_555
O6 P2 1.611403 1_555
O7 P3 1.494301 1_555
O8 P4 1.500439 1_555
O9 P1 1.500439 1_555
O10 P2 1.494301 1_555
O11 P4 1.571360 1_555
O11 P3 1.611403 1_555
O12 P5 1.609391 1_555
O12 P3 1.615700 1_555
O13 P4 1.612531 1_555
O13 P5 1.622114 1_655
O14 P3 1.512522 1_555
O15 P4 1.520258 1_555
O16 P5 1.510609 1_555
O17 P0 1.495251 1_545
