# generated using pymatgen
data_Li10Sn(PSe6)2
_symmetry_space_group_name_H-M   'P 1'
_cell_length_a   9.32218100
_cell_length_b   9.32218100
_cell_length_c   13.52214100
_cell_angle_alpha   90.00000000
_cell_angle_beta   90.00000000
_cell_angle_gamma   90.00000000
_symmetry_Int_Tables_number   1
_chemical_formula_structural   Li10Sn(PSe6)2
_chemical_formula_sum   'Li20 Sn2 P4 Se24'
_cell_volume   1175.11541168
_cell_formula_units_Z   2
loop_
 _symmetry_equiv_pos_site_id
 _symmetry_equiv_pos_as_xyz
  1  'x, y, z'
loop_
 _atom_site_type_symbol
 _atom_site_label
 _atom_site_symmetry_multiplicity
 _atom_site_fract_x
 _atom_site_fract_y
 _atom_site_fract_z
 _atom_site_occupancy
  Li  Li0  1  0.22733000  0.27289500  0.29430300  1
  Li  Li1  1  0.77267000  0.72710500  0.29430300  1
  Li  Li2  1  0.27289500  0.77267000  0.79430300  1
  Li  Li3  1  0.72710500  0.22733000  0.79430300  1
  Li  Li4  1  0.22733000  0.72710500  0.29430300  1
  Li  Li5  1  0.77267000  0.27289500  0.29430300  1
  Li  Li6  1  0.27289500  0.22733000  0.79430300  1
  Li  Li7  1  0.72710500  0.77267000  0.79430300  1
  Li  Li8  1  0.00000000  0.00000000  0.94159700  1
  Li  Li9  1  0.00000000  0.00000000  0.44159700  1
  Li  Li10  1  0.50000000  0.50000000  0.54748200  1
  Li  Li11  1  0.50000000  0.50000000  0.04748200  1
  Li  Li12  1  0.25735500  0.72615700  0.03664800  1
  Li  Li13  1  0.74264500  0.27384300  0.03664800  1
  Li  Li14  1  0.27384300  0.25735500  0.53664800  1
  Li  Li15  1  0.72615700  0.74264500  0.53664800  1
  Li  Li16  1  0.27384300  0.74264500  0.53664800  1
  Li  Li17  1  0.72615700  0.25735500  0.53664800  1
  Li  Li18  1  0.25735500  0.27384300  0.03664800  1
  Li  Li19  1  0.74264500  0.72615700  0.03664800  1
  Sn  Sn0  1  0.50000000  0.50000000  0.80158000  1
  Sn  Sn1  1  0.50000000  0.50000000  0.30158000  1
  P  P0  1  0.00000000  0.00000000  0.68515000  1
  P  P1  1  0.00000000  0.00000000  0.18515000  1
  P  P2  1  0.00000000  0.50000000  0.50340500  1
  P  P3  1  0.50000000  0.00000000  0.00340500  1
  Se  Se0  1  0.00000000  0.69893500  0.41028000  1
  Se  Se1  1  0.00000000  0.30106500  0.41028000  1
  Se  Se2  1  0.30106500  0.00000000  0.91028000  1
  Se  Se3  1  0.69893500  0.00000000  0.91028000  1
  Se  Se4  1  0.50000000  0.19349800  0.09962000  1
  Se  Se5  1  0.50000000  0.80650200  0.09962000  1
  Se  Se6  1  0.19349800  0.50000000  0.59962000  1
  Se  Se7  1  0.80650200  0.50000000  0.59962000  1
  Se  Se8  1  0.00000000  0.80043300  0.09273200  1
  Se  Se9  1  0.00000000  0.19956700  0.09273200  1
  Se  Se10  1  0.19956700  0.00000000  0.59273200  1
  Se  Se11  1  0.80043300  0.00000000  0.59273200  1
  Se  Se12  1  0.50000000  0.27292900  0.40844800  1
  Se  Se13  1  0.50000000  0.72707100  0.40844800  1
  Se  Se14  1  0.27292900  0.50000000  0.90844800  1
  Se  Se15  1  0.72707100  0.50000000  0.90844800  1
  Se  Se16  1  0.00000000  0.19552500  0.77895700  1
  Se  Se17  1  0.00000000  0.80447500  0.77895700  1
  Se  Se18  1  0.80447500  0.00000000  0.27895700  1
  Se  Se19  1  0.19552500  0.00000000  0.27895700  1
  Se  Se20  1  0.50000000  0.72270500  0.69205600  1
  Se  Se21  1  0.50000000  0.27729500  0.69205600  1
  Se  Se22  1  0.72270500  0.50000000  0.19205600  1
  Se  Se23  1  0.27729500  0.50000000  0.19205600  1
loop_
_geom_bond_atom_site_label_1
_geom_bond_atom_site_label_2
_geom_bond_distance
_geom_bond_site_symmetry_2
Li0 Se19 2.569589 1_555
Li0 Se23 2.571129 1_555
Li0 Se1 2.649424 1_555
Li0 Se12 2.973801 1_555
Li1 Se18 2.569589 1_565
Li1 Se22 2.571129 1_555
Li1 Se0 2.649424 1_655
Li1 Se13 2.973801 1_555
Li2 Se17 2.569589 1_555
Li2 Se20 2.571129 1_555
Li2 Se2 2.649424 1_565
Li2 Se14 2.973801 1_555
Li3 Se16 2.569589 1_655
Li3 Se21 2.571129 1_555
Li3 Se3 2.649424 1_555
Li3 Se15 2.973801 1_555
Li4 Se19 2.569589 1_565
Li4 Se23 2.571129 1_555
Li4 Se0 2.649424 1_555
Li4 Se13 2.973801 1_555
Li5 Se18 2.569589 1_555
Li5 Se22 2.571129 1_555
Li5 Se1 2.649424 1_655
Li5 Se12 2.973801 1_555
Li6 Se16 2.569589 1_555
Li6 Se21 2.571129 1_555
Li6 Se2 2.649424 1_555
Li6 Se14 2.973801 1_555
Li7 Se17 2.569589 1_655
Li7 Se20 2.571129 1_555
Li7 Se3 2.649424 1_565
Li7 Se15 2.973801 1_555
Li8 Se9 2.763633 1_556
Li8 Se8 2.763633 1_546
Li8 Se2 2.838351 1_555
Li8 Se3 2.838351 1_455
Li8 Se16 2.856391 1_555
Li8 Se17 2.856391 1_545
Li9 Se10 2.763633 1_555
Li9 Se11 2.763633 1_455
Li9 Se1 2.838351 1_555
Li9 Se0 2.838351 1_545
Li9 Se19 2.856391 1_555
Li9 Se18 2.856391 1_455
Li10 Se13 2.831143 1_555
Li10 Se12 2.831143 1_555
Li10 Se20 2.851667 1_555
Li10 Se21 2.851667 1_555
Li10 Se7 2.942962 1_555
Li10 Se6 2.942962 1_555
Li11 Se15 2.831143 1_554
Li11 Se14 2.831143 1_554
Li11 Se22 2.851667 1_555
Li11 Se23 2.851667 1_555
Li11 Se5 2.942962 1_555
Li11 Se4 2.942962 1_555
Li12 Se5 2.530341 1_555
Li12 Se8 2.609655 1_555
Li12 Se14 2.733325 1_554
Li12 Se23 2.982527 1_555
Li12 Se2 3.098834 1_564
Li13 Se4 2.530341 1_555
Li13 Se9 2.609655 1_655
Li13 Se15 2.733325 1_554
Li13 Se22 2.982527 1_555
Li13 Se3 3.098834 1_554
Li14 Se6 2.530341 1_555
Li14 Se10 2.609655 1_555
Li14 Se12 2.733325 1_555
Li14 Se21 2.982527 1_555
Li14 Se1 3.098834 1_555
Li15 Se7 2.530341 1_555
Li15 Se11 2.609655 1_565
Li15 Se13 2.733325 1_555
Li15 Se20 2.982527 1_555
Li15 Se0 3.098834 1_655
Li16 Se6 2.530341 1_555
Li16 Se10 2.609655 1_565
Li16 Se13 2.733325 1_555
Li16 Se20 2.982527 1_555
Li16 Se0 3.098834 1_555
Li17 Se7 2.530341 1_555
Li17 Se11 2.609655 1_555
Li17 Se12 2.733325 1_555
Li17 Se21 2.982527 1_555
Li17 Se1 3.098834 1_655
Li18 Se4 2.530341 1_555
Li18 Se9 2.609655 1_555
Li18 Se14 2.733325 1_554
Li18 Se23 2.982527 1_555
Li18 Se2 3.098834 1_554
Li19 Se5 2.530341 1_555
Li19 Se8 2.609655 1_655
Li19 Se15 2.733325 1_554
Li19 Se22 2.982527 1_555
Li19 Se3 3.098834 1_564
P0 Se16 2.220659 1_555
P0 Se17 2.220659 1_545
P0 Se10 2.241163 1_555
P0 Se11 2.241163 1_455
P1 Se19 2.220659 1_555
P1 Se18 2.220659 1_455
P1 Se9 2.241163 1_555
P1 Se8 2.241163 1_545
P2 Se6 2.224065 1_555
P2 Se7 2.224065 1_455
P2 Se0 2.241631 1_555
P2 Se1 2.241631 1_555
P3 Se4 2.224065 1_555
P3 Se5 2.224065 1_545
P3 Se3 2.241631 1_554
P3 Se2 2.241631 1_554
Se12 Sn1 2.563025 1_555
Se13 Sn1 2.563025 1_555
Se14 Sn0 2.563025 1_555
Se15 Sn0 2.563025 1_555
Se20 Sn0 2.550203 1_555
Se21 Sn0 2.550203 1_555
Se22 Sn1 2.550203 1_555
Se23 Sn1 2.550203 1_555
