# generated using pymatgen
data_Li2V5B3O13
_symmetry_space_group_name_H-M   'P 1'
_cell_length_a   3.23444800
_cell_length_b   9.61664900
_cell_length_c   15.12135374
_cell_angle_alpha   73.53362095
_cell_angle_beta   90.00000000
_cell_angle_gamma   90.00000000
_symmetry_Int_Tables_number   1
_chemical_formula_structural   Li2V5B3O13
_chemical_formula_sum   'Li4 V10 B6 O26'
_cell_volume   451.05238363
_cell_formula_units_Z   2
loop_
 _symmetry_equiv_pos_site_id
 _symmetry_equiv_pos_as_xyz
  1  'x, y, z'
loop_
 _atom_site_type_symbol
 _atom_site_label
 _atom_site_symmetry_multiplicity
 _atom_site_fract_x
 _atom_site_fract_y
 _atom_site_fract_z
 _atom_site_occupancy
  Li  Li0  1  0.75000000  0.72702600  0.76044600  1
  Li  Li1  1  0.25000000  0.61654100  0.94591100  1
  Li  Li2  1  0.75000000  0.38345900  0.05408900  1
  Li  Li3  1  0.25000000  0.27297400  0.23955400  1
  V  V0  1  0.75000000  0.85865600  0.00316200  1
  V  V1  1  0.75000000  0.95927900  0.36588900  1
  V  V2  1  0.25000000  0.81104500  0.20390800  1
  V  V3  1  0.25000000  0.64208200  0.43572400  1
  V  V4  1  0.25000000  0.52182300  0.68744900  1
  V  V5  1  0.75000000  0.47817700  0.31255100  1
  V  V6  1  0.75000000  0.35791800  0.56427600  1
  V  V7  1  0.75000000  0.18895500  0.79609200  1
  V  V8  1  0.25000000  0.04072100  0.63411100  1
  V  V9  1  0.25000000  0.14134400  0.99683800  1
  B  B0  1  0.25000000  0.91259500  0.81857900  1
  B  B1  1  0.75000000  0.79425800  0.57373300  1
  B  B2  1  0.25000000  0.40826200  0.88323100  1
  B  B3  1  0.75000000  0.59173800  0.11676900  1
  B  B4  1  0.25000000  0.20574200  0.42626700  1
  B  B5  1  0.75000000  0.08740500  0.18142100  1
  O  O0  1  0.25000000  0.83410900  0.91007200  1
  O  O1  1  0.75000000  0.93060100  0.58609500  1
  O  O2  1  0.25000000  0.85086100  0.74788100  1
  O  O3  1  0.75000000  0.93663800  0.21204900  1
  O  O4  1  0.25000000  0.84237800  0.34444000  1
  O  O5  1  0.75000000  0.77290100  0.48629200  1
  O  O6  1  0.75000000  0.66985500  0.64977900  1
  O  O7  1  0.25000000  0.92539600  0.06438100  1
  O  O8  1  0.25000000  0.54446800  0.82201300  1
  O  O9  1  0.25000000  0.37971000  0.97750700  1
  O  O10  1  0.75000000  0.71824100  0.14458800  1
  O  O11  1  0.25000000  0.61217300  0.29407400  1
  O  O12  1  0.25000000  0.48923600  0.56555100  1
  O  O13  1  0.75000000  0.51076400  0.43444900  1
  O  O14  1  0.75000000  0.38782700  0.70592600  1
  O  O15  1  0.25000000  0.28175900  0.85541200  1
  O  O16  1  0.75000000  0.62029000  0.02249300  1
  O  O17  1  0.75000000  0.45553200  0.17798700  1
  O  O18  1  0.75000000  0.07460400  0.93561900  1
  O  O19  1  0.25000000  0.33014500  0.35022100  1
  O  O20  1  0.25000000  0.22709900  0.51370800  1
  O  O21  1  0.75000000  0.15762200  0.65556000  1
  O  O22  1  0.25000000  0.06336200  0.78795100  1
  O  O23  1  0.75000000  0.14913900  0.25211900  1
  O  O24  1  0.25000000  0.06939900  0.41390500  1
  O  O25  1  0.75000000  0.16589100  0.08992800  1
loop_
_geom_bond_atom_site_label_1
_geom_bond_atom_site_label_2
_geom_bond_distance
_geom_bond_site_symmetry_2
Li0 O6 1.903742 1_555
Li0 O2 1.985304 1_655
Li0 O2 1.985304 1_555
Li0 O8 2.374382 1_655
Li0 O8 2.374382 1_555
Li1 O16 1.995345 1_556
Li1 O16 1.995345 1_456
Li1 O0 2.007114 1_555
Li1 O8 2.174064 1_555
Li1 O9 2.190547 1_555
Li2 O9 1.995345 1_554
Li2 O9 1.995345 1_654
Li2 O25 2.007114 1_555
Li2 O17 2.174064 1_555
Li2 O16 2.190547 1_555
Li3 O19 1.903742 1_555
Li3 O23 1.985304 1_455
Li3 O23 1.985304 1_555
Li3 O17 2.374382 1_555
Li3 O17 2.374382 1_455
B0 O2 1.362025 1_555
B0 O0 1.375417 1_555
B0 O22 1.391387 1_565
B1 O1 1.375877 1_555
B1 O5 1.394423 1_555
B1 O6 1.404868 1_555
B2 O8 1.373036 1_555
B2 O9 1.373233 1_555
B2 O15 1.395359 1_555
B3 O17 1.373036 1_555
B3 O16 1.373233 1_555
B3 O10 1.395359 1_555
B4 O24 1.375877 1_555
B4 O20 1.394423 1_555
B4 O19 1.404868 1_555
B5 O23 1.362025 1_555
B5 O25 1.375417 1_555
B5 O3 1.391387 1_545
O0 V0 2.200224 1_456
O0 V0 2.200224 1_556
O1 V8 2.167931 1_565
O1 V8 2.167931 1_665
O2 V8 2.124277 1_565
O3 V2 2.042939 1_555
O3 V2 2.042939 1_655
O3 V1 2.397097 1_555
O4 V3 2.026873 1_555
O4 V1 2.047225 1_555
O4 V1 2.047225 1_455
O4 V2 2.229251 1_555
O5 V1 2.162708 1_555
O5 V3 2.308273 1_555
O5 V3 2.308273 1_655
O6 V4 2.122908 1_555
O6 V4 2.122908 1_655
O7 V9 2.037987 1_564
O7 V0 2.054533 1_555
O7 V0 2.054533 1_455
O7 V2 2.084562 1_555
O8 V4 2.106893 1_555
O9 V9 2.227138 1_555
O10 V2 2.161097 1_655
O10 V2 2.161097 1_555
O10 V0 2.181675 1_555
O11 V2 2.009554 1_555
O11 V5 2.037117 1_555
O11 V5 2.037117 1_455
O11 V3 2.240511 1_555
O12 V4 1.955323 1_555
O12 V6 2.055322 1_555
O12 V6 2.055322 1_455
O12 V3 2.092523 1_555
O13 V5 1.955323 1_555
O13 V3 2.055322 1_555
O13 V3 2.055322 1_655
O13 V6 2.092523 1_555
O14 V7 2.009554 1_555
O14 V4 2.037117 1_555
O14 V4 2.037117 1_655
O14 V6 2.240511 1_555
O15 V7 2.161097 1_455
O15 V7 2.161097 1_555
O15 V9 2.181675 1_555
O16 V0 2.227138 1_555
O17 V5 2.106893 1_555
O18 V0 2.037987 1_546
O18 V9 2.054533 1_655
O18 V9 2.054533 1_555
O18 V7 2.084562 1_555
O19 V5 2.122908 1_555
O19 V5 2.122908 1_455
O20 V8 2.162708 1_555
O20 V6 2.308273 1_455
O20 V6 2.308273 1_555
O21 V6 2.026873 1_555
O21 V8 2.047225 1_555
O21 V8 2.047225 1_655
O21 V7 2.229251 1_555
O22 V7 2.042939 1_555
O22 V7 2.042939 1_455
O22 V8 2.397097 1_555
O23 V1 2.124277 1_545
O24 V1 2.167931 1_545
O24 V1 2.167931 1_445
O25 V9 2.200224 1_554
O25 V9 2.200224 1_654
