# generated using pymatgen
data_Na2MnSiCO7
_symmetry_space_group_name_H-M   'P 1'
_cell_length_a   8.29998013
_cell_length_b   8.29998013
_cell_length_c   10.27603205
_cell_angle_alpha   107.45781579
_cell_angle_beta   107.45781579
_cell_angle_gamma   101.97308464
_symmetry_Int_Tables_number   1
_chemical_formula_structural   Na2MnSiCO7
_chemical_formula_sum   'Na8 Mn4 Si4 C4 O28'
_cell_volume   608.81174277
_cell_formula_units_Z   4
loop_
 _symmetry_equiv_pos_site_id
 _symmetry_equiv_pos_as_xyz
  1  'x, y, z'
loop_
 _atom_site_type_symbol
 _atom_site_label
 _atom_site_symmetry_multiplicity
 _atom_site_fract_x
 _atom_site_fract_y
 _atom_site_fract_z
 _atom_site_occupancy
  Na  Na0  1  0.24859600  0.23486100  0.24161900  1
  Na  Na1  1  0.74859600  0.73486100  0.24161900  1
  Na  Na2  1  0.48486100  0.99859600  0.24161900  1
  Na  Na3  1  0.98486100  0.49859600  0.24161900  1
  Na  Na4  1  0.01513900  0.50140400  0.75838100  1
  Na  Na5  1  0.51513900  0.00140400  0.75838100  1
  Na  Na6  1  0.25140400  0.26513900  0.75838100  1
  Na  Na7  1  0.75140400  0.76513900  0.75838100  1
  Mn  Mn0  1  0.44520800  0.69520800  0.34921200  1
  Mn  Mn1  1  0.05479200  0.80479200  0.65078800  1
  Mn  Mn2  1  0.94520800  0.19520800  0.34921200  1
  Mn  Mn3  1  0.55479200  0.30479200  0.65078800  1
  Si  Si0  1  0.69756600  0.44756600  0.42956200  1
  Si  Si1  1  0.19756600  0.94756600  0.42956200  1
  Si  Si2  1  0.80243400  0.05243400  0.57043800  1
  Si  Si3  1  0.30243400  0.55243400  0.57043800  1
  C  C0  1  0.77762500  0.02762500  0.08064300  1
  C  C1  1  0.27762500  0.52762500  0.08064300  1
  C  C2  1  0.72237500  0.47237500  0.91935700  1
  C  C3  1  0.22237500  0.97237500  0.91935700  1
  O  O0  1  0.30770700  0.05770700  0.05495000  1
  O  O1  1  0.80770700  0.55770700  0.05495000  1
  O  O2  1  0.19229300  0.44229300  0.94505000  1
  O  O3  1  0.69229300  0.94229300  0.94505000  1
  O  O4  1  0.92012000  0.17012000  0.14027800  1
  O  O5  1  0.42012000  0.67012000  0.14027800  1
  O  O6  1  0.57988000  0.32988000  0.85972200  1
  O  O7  1  0.07988000  0.82988000  0.85972200  1
  O  O8  1  0.73497000  0.98497000  0.18314000  1
  O  O9  1  0.23497000  0.48497000  0.18314000  1
  O  O10  1  0.76503000  0.51503000  0.81686000  1
  O  O11  1  0.26503000  0.01503000  0.81686000  1
  O  O12  1  0.64921500  0.89921500  0.41398000  1
  O  O13  1  0.14921500  0.39921500  0.41398000  1
  O  O14  1  0.85078500  0.60078500  0.58602000  1
  O  O15  1  0.35078500  0.10078500  0.58602000  1
  O  O16  1  0.55893900  0.30893900  0.46669200  1
  O  O17  1  0.05893900  0.80893900  0.46669200  1
  O  O18  1  0.94106100  0.19106100  0.53330800  1
  O  O19  1  0.44106100  0.69106100  0.53330800  1
  O  O20  1  0.58385200  0.53694400  0.32816500  1
  O  O21  1  0.08385200  0.03694400  0.32816500  1
  O  O22  1  0.78694400  0.33385200  0.32816500  1
  O  O23  1  0.28694400  0.83385200  0.32816500  1
  O  O24  1  0.71305600  0.16614800  0.67183500  1
  O  O25  1  0.21305600  0.66614800  0.67183500  1
  O  O26  1  0.91614800  0.96305600  0.67183500  1
  O  O27  1  0.41614800  0.46305600  0.67183500  1
loop_
_geom_bond_atom_site_label_1
_geom_bond_atom_site_label_2
_geom_bond_distance
_geom_bond_site_symmetry_2
Na0 O0 2.292146 1_555
Na0 O9 2.342732 1_555
Na0 O13 2.360534 1_555
Na0 O21 2.456299 1_555
Na0 O4 2.481746 1_455
Na0 O16 2.697663 1_555
Na1 O1 2.292146 1_555
Na1 O8 2.342732 1_555
Na1 O12 2.360534 1_555
Na1 O20 2.456299 1_555
Na1 O5 2.481746 1_555
Na1 O17 2.697663 1_655
Na2 O0 2.292146 1_565
Na2 O8 2.342732 1_555
Na2 O12 2.360534 1_555
Na2 O23 2.456299 1_555
Na2 O5 2.481746 1_555
Na2 O16 2.697663 1_565
Na3 O1 2.292146 1_555
Na3 O9 2.342732 1_655
Na3 O13 2.360534 1_655
Na3 O22 2.456299 1_555
Na3 O4 2.481746 1_555
Na3 O17 2.697663 1_655
Na4 O2 2.292146 1_555
Na4 O10 2.342732 1_455
Na4 O14 2.360534 1_455
Na4 O25 2.456299 1_555
Na4 O7 2.481746 1_555
Na4 O18 2.697663 1_455
Na5 O3 2.292146 1_545
Na5 O11 2.342732 1_555
Na5 O15 2.360534 1_555
Na5 O24 2.456299 1_555
Na5 O6 2.481746 1_555
Na5 O19 2.697663 1_545
Na6 O2 2.292146 1_555
Na6 O11 2.342732 1_555
Na6 O15 2.360534 1_555
Na6 O27 2.456299 1_555
Na6 O6 2.481746 1_555
Na6 O18 2.697663 1_455
Na7 O3 2.292146 1_555
Na7 O10 2.342732 1_555
Na7 O14 2.360534 1_555
Na7 O26 2.456299 1_555
Na7 O7 2.481746 1_655
Na7 O19 2.697663 1_555
Mn0 O12 1.906631 1_555
Mn0 O19 1.912808 1_555
Mn0 O20 1.924198 1_555
Mn0 O23 1.924198 1_555
Mn0 O5 2.035166 1_555
Mn0 O9 2.040913 1_555
Mn1 O14 1.906631 1_455
Mn1 O17 1.912808 1_555
Mn1 O26 1.924198 1_455
Mn1 O25 1.924198 1_555
Mn1 O7 2.035166 1_555
Mn1 O11 2.040913 1_565
Mn2 O13 1.906631 1_655
Mn2 O18 1.912808 1_555
Mn2 O22 1.924198 1_555
Mn2 O21 1.924198 1_655
Mn2 O4 2.035166 1_555
Mn2 O8 2.040913 1_545
Mn3 O15 1.906631 1_555
Mn3 O16 1.912808 1_555
Mn3 O27 1.924198 1_555
Mn3 O24 1.924198 1_555
Mn3 O6 2.035166 1_555
Mn3 O10 2.040913 1_555
C0 O3 1.245926 1_544
C0 O4 1.312637 1_555
C0 O8 1.324959 1_545
C1 O2 1.245926 1_554
C1 O5 1.312637 1_555
C1 O9 1.324959 1_555
C2 O1 1.245926 1_556
C2 O6 1.312637 1_555
C2 O10 1.324959 1_555
C3 O0 1.245926 1_566
C3 O7 1.312637 1_555
C3 O11 1.324959 1_565
O12 Si2 1.641600 1_565
O13 Si3 1.641600 1_555
O14 Si0 1.641600 1_555
O15 Si1 1.641600 1_545
O16 Si0 1.664596 1_555
O17 Si1 1.664596 1_555
O18 Si2 1.664596 1_555
O19 Si3 1.664596 1_555
O20 Si0 1.640434 1_555
O21 Si1 1.640434 1_545
O22 Si0 1.640434 1_555
O23 Si1 1.640434 1_555
O24 Si2 1.640434 1_555
O25 Si3 1.640434 1_555
O26 Si2 1.640434 1_565
O27 Si3 1.640434 1_555
