# generated using pymatgen
data_BaLaCl5
_symmetry_space_group_name_H-M   'P 1'
_cell_length_a   7.28437200
_cell_length_b   14.64532100
_cell_length_c   15.53248100
_cell_angle_alpha   90.00000000
_cell_angle_beta   90.00000000
_cell_angle_gamma   90.00000000
_symmetry_Int_Tables_number   1
_chemical_formula_structural   BaLaCl5
_chemical_formula_sum   'Ba8 La8 Cl40'
_cell_volume   1657.03561341
_cell_formula_units_Z   8
loop_
 _symmetry_equiv_pos_site_id
 _symmetry_equiv_pos_as_xyz
  1  'x, y, z'
loop_
 _atom_site_type_symbol
 _atom_site_label
 _atom_site_symmetry_multiplicity
 _atom_site_fract_x
 _atom_site_fract_y
 _atom_site_fract_z
 _atom_site_occupancy
  Ba  Ba0  1  0.75000000  0.51991200  0.10196200  1
  Ba  Ba1  1  0.25000000  0.81479500  0.09469400  1
  Ba  Ba2  1  0.75000000  0.31479500  0.40530600  1
  Ba  Ba3  1  0.25000000  0.01991200  0.39803800  1
  Ba  Ba4  1  0.75000000  0.98008800  0.60196200  1
  Ba  Ba5  1  0.25000000  0.68520500  0.59469400  1
  Ba  Ba6  1  0.75000000  0.18520500  0.90530600  1
  Ba  Ba7  1  0.25000000  0.48008800  0.89803800  1
  La  La0  1  0.25000000  0.21498800  0.10420600  1
  La  La1  1  0.75000000  0.03477000  0.22043400  1
  La  La2  1  0.25000000  0.53477000  0.27956600  1
  La  La3  1  0.75000000  0.71498800  0.39579400  1
  La  La4  1  0.25000000  0.28501200  0.60420600  1
  La  La5  1  0.75000000  0.46523000  0.72043400  1
  La  La6  1  0.25000000  0.96523000  0.77956600  1
  La  La7  1  0.75000000  0.78501200  0.89579400  1
  Cl  Cl0  1  0.98801800  0.32780600  0.02517000  1
  Cl  Cl1  1  0.51198200  0.32780600  0.02517000  1
  Cl  Cl2  1  0.75000000  0.83837000  0.07306800  1
  Cl  Cl3  1  0.98244700  0.07749200  0.07816200  1
  Cl  Cl4  1  0.51755300  0.07749200  0.07816200  1
  Cl  Cl5  1  0.25000000  0.51646800  0.09635100  1
  Cl  Cl6  1  0.98696100  0.67165600  0.22384800  1
  Cl  Cl7  1  0.51303900  0.67165600  0.22384800  1
  Cl  Cl8  1  0.97584200  0.40661500  0.24597900  1
  Cl  Cl9  1  0.52415800  0.40661500  0.24597900  1
  Cl  Cl10  1  0.47584200  0.90661500  0.25402100  1
  Cl  Cl11  1  0.02415800  0.90661500  0.25402100  1
  Cl  Cl12  1  0.48696100  0.17165600  0.27615200  1
  Cl  Cl13  1  0.01303900  0.17165600  0.27615200  1
  Cl  Cl14  1  0.75000000  0.01646800  0.40364900  1
  Cl  Cl15  1  0.48244700  0.57749200  0.42183800  1
  Cl  Cl16  1  0.01755300  0.57749200  0.42183800  1
  Cl  Cl17  1  0.25000000  0.33837000  0.42693200  1
  Cl  Cl18  1  0.48801800  0.82780600  0.47483000  1
  Cl  Cl19  1  0.01198200  0.82780600  0.47483000  1
  Cl  Cl20  1  0.98801800  0.17219400  0.52517000  1
  Cl  Cl21  1  0.51198200  0.17219400  0.52517000  1
  Cl  Cl22  1  0.75000000  0.66163000  0.57306800  1
  Cl  Cl23  1  0.98244700  0.42250800  0.57816200  1
  Cl  Cl24  1  0.51755300  0.42250800  0.57816200  1
  Cl  Cl25  1  0.25000000  0.98353200  0.59635100  1
  Cl  Cl26  1  0.98696100  0.82834400  0.72384800  1
  Cl  Cl27  1  0.51303900  0.82834400  0.72384800  1
  Cl  Cl28  1  0.97584200  0.09338500  0.74597900  1
  Cl  Cl29  1  0.52415800  0.09338500  0.74597900  1
  Cl  Cl30  1  0.47584200  0.59338500  0.75402100  1
  Cl  Cl31  1  0.02415800  0.59338500  0.75402100  1
  Cl  Cl32  1  0.48696100  0.32834400  0.77615200  1
  Cl  Cl33  1  0.01303900  0.32834400  0.77615200  1
  Cl  Cl34  1  0.75000000  0.48353200  0.90364900  1
  Cl  Cl35  1  0.48244700  0.92250800  0.92183800  1
  Cl  Cl36  1  0.01755300  0.92250800  0.92183800  1
  Cl  Cl37  1  0.25000000  0.16163000  0.92693200  1
  Cl  Cl38  1  0.48801800  0.67219400  0.97483000  1
  Cl  Cl39  1  0.01198200  0.67219400  0.97483000  1
loop_
_geom_bond_atom_site_label_1
_geom_bond_atom_site_label_2
_geom_bond_distance
_geom_bond_site_symmetry_2
Ba0 Cl34 3.126032 1_554
Ba0 Cl9 3.234733 1_555
Ba0 Cl8 3.234733 1_555
Ba0 Cl6 3.391524 1_555
Ba0 Cl7 3.391524 1_555
Ba0 Cl1 3.513450 1_555
Ba0 Cl0 3.513450 1_555
Ba0 Cl39 3.537670 1_654
Ba0 Cl38 3.537670 1_554
Ba0 Cl5 3.643578 1_655
Ba0 Cl5 3.643578 1_555
Ba1 Cl10 3.261759 1_555
Ba1 Cl11 3.261759 1_555
Ba1 Cl38 3.291492 1_554
Ba1 Cl39 3.291492 1_554
Ba1 Cl6 3.477103 1_455
Ba1 Cl7 3.477103 1_555
Ba1 Cl36 3.544588 1_554
Ba1 Cl35 3.544588 1_554
Ba1 Cl2 3.673902 1_455
Ba1 Cl2 3.673902 1_555
Ba2 Cl9 3.261759 1_555
Ba2 Cl8 3.261759 1_555
Ba2 Cl20 3.291492 1_555
Ba2 Cl21 3.291492 1_555
Ba2 Cl13 3.477103 1_655
Ba2 Cl12 3.477103 1_555
Ba2 Cl23 3.544588 1_555
Ba2 Cl24 3.544588 1_555
Ba2 Cl17 3.673902 1_655
Ba2 Cl17 3.673902 1_555
Ba3 Cl25 3.126032 1_545
Ba3 Cl10 3.234733 1_545
Ba3 Cl11 3.234733 1_545
Ba3 Cl12 3.391524 1_555
Ba3 Cl13 3.391524 1_555
Ba3 Cl18 3.513450 1_545
Ba3 Cl19 3.513450 1_545
Ba3 Cl20 3.537670 1_455
Ba3 Cl21 3.537670 1_555
Ba3 Cl14 3.643578 1_455
Ba3 Cl14 3.643578 1_555
Ba4 Cl14 3.126032 1_565
Ba4 Cl29 3.234733 1_565
Ba4 Cl28 3.234733 1_565
Ba4 Cl26 3.391524 1_555
Ba4 Cl27 3.391524 1_555
Ba4 Cl21 3.513450 1_565
Ba4 Cl20 3.513450 1_565
Ba4 Cl19 3.537670 1_655
Ba4 Cl18 3.537670 1_555
Ba4 Cl25 3.643578 1_655
Ba4 Cl25 3.643578 1_555
Ba5 Cl30 3.261759 1_555
Ba5 Cl31 3.261759 1_555
Ba5 Cl18 3.291492 1_555
Ba5 Cl19 3.291492 1_555
Ba5 Cl27 3.477103 1_555
Ba5 Cl26 3.477103 1_455
Ba5 Cl15 3.544588 1_555
Ba5 Cl16 3.544588 1_555
Ba5 Cl22 3.673902 1_555
Ba5 Cl22 3.673902 1_455
Ba6 Cl29 3.261759 1_555
Ba6 Cl28 3.261759 1_555
Ba6 Cl1 3.291492 1_556
Ba6 Cl0 3.291492 1_556
Ba6 Cl33 3.477103 1_655
Ba6 Cl32 3.477103 1_555
Ba6 Cl4 3.544588 1_556
Ba6 Cl3 3.544588 1_556
Ba6 Cl37 3.673902 1_555
Ba6 Cl37 3.673902 1_655
Ba7 Cl5 3.126032 1_556
Ba7 Cl30 3.234733 1_555
Ba7 Cl31 3.234733 1_555
Ba7 Cl33 3.391524 1_555
Ba7 Cl32 3.391524 1_555
Ba7 Cl39 3.513450 1_555
Ba7 Cl38 3.513450 1_555
Ba7 Cl1 3.537670 1_556
Ba7 Cl0 3.537670 1_456
Ba7 Cl34 3.643578 1_455
Ba7 Cl34 3.643578 1_555
Cl0 La0 2.806939 1_655
Cl1 La0 2.806939 1_555
Cl2 La7 2.862245 1_554
Cl3 La0 2.831422 1_655
Cl3 La1 2.853398 1_555
Cl4 La0 2.831422 1_555
Cl4 La1 2.853398 1_555
Cl5 La2 2.858379 1_555
Cl6 La2 2.905048 1_655
Cl6 La3 3.242698 1_555
Cl7 La2 2.905048 1_555
Cl7 La3 3.242698 1_555
Cl8 La2 2.789819 1_655
Cl9 La2 2.789819 1_555
Cl10 La1 2.789819 1_565
Cl11 La1 2.789819 1_465
Cl12 La1 2.905048 1_555
Cl12 La0 3.242698 1_555
Cl13 La1 2.905048 1_455
Cl13 La0 3.242698 1_555
Cl14 La1 2.858379 1_555
Cl15 La3 2.831422 1_555
Cl15 La2 2.853398 1_555
Cl16 La3 2.831422 1_455
Cl16 La2 2.853398 1_555
Cl17 La4 2.862245 1_555
Cl18 La3 2.806939 1_555
Cl19 La3 2.806939 1_455
Cl20 La4 2.806939 1_655
Cl21 La4 2.806939 1_555
Cl22 La3 2.862245 1_555
Cl23 La4 2.831422 1_655
Cl23 La5 2.853398 1_555
Cl24 La4 2.831422 1_555
Cl24 La5 2.853398 1_555
Cl25 La6 2.858379 1_555
Cl26 La6 2.905048 1_655
Cl26 La7 3.242698 1_555
Cl27 La6 2.905048 1_555
Cl27 La7 3.242698 1_555
Cl28 La6 2.789819 1_645
Cl29 La6 2.789819 1_545
Cl30 La5 2.789819 1_555
Cl31 La5 2.789819 1_455
Cl32 La5 2.905048 1_555
Cl32 La4 3.242698 1_555
Cl33 La5 2.905048 1_455
Cl33 La4 3.242698 1_555
Cl34 La5 2.858379 1_555
Cl35 La7 2.831422 1_555
Cl35 La6 2.853398 1_555
Cl36 La7 2.831422 1_455
Cl36 La6 2.853398 1_555
Cl37 La0 2.862245 1_556
Cl38 La7 2.806939 1_555
Cl39 La7 2.806939 1_455
