# generated using pymatgen
data_FeCo(PO4)2
_symmetry_space_group_name_H-M   'P 1'
_cell_length_a   5.84796600
_cell_length_b   4.82166000
_cell_length_c   9.90424830
_cell_angle_alpha   89.48101746
_cell_angle_beta   90.00000000
_cell_angle_gamma   90.00000000
_symmetry_Int_Tables_number   1
_chemical_formula_structural   FeCo(PO4)2
_chemical_formula_sum   'Fe2 Co2 P4 O16'
_cell_volume   279.25767957
_cell_formula_units_Z   2
loop_
 _symmetry_equiv_pos_site_id
 _symmetry_equiv_pos_as_xyz
  1  'x, y, z'
loop_
 _atom_site_type_symbol
 _atom_site_label
 _atom_site_symmetry_multiplicity
 _atom_site_fract_x
 _atom_site_fract_y
 _atom_site_fract_z
 _atom_site_occupancy
  Fe  Fe0  1  0.75000000  0.46283100  0.77514500  1
  Fe  Fe1  1  0.25000000  0.53716900  0.22485500  1
  Co  Co0  1  0.25000000  0.93867700  0.71809300  1
  Co  Co1  1  0.75000000  0.06132300  0.28190700  1
  P  P0  1  0.25000000  0.41081900  0.89909300  1
  P  P1  1  0.75000000  0.92361600  0.59233800  1
  P  P2  1  0.25000000  0.07638400  0.40766200  1
  P  P3  1  0.75000000  0.58918100  0.10090700  1
  O  O0  1  0.75000000  0.65076200  0.94912500  1
  O  O1  1  0.25000000  0.73060100  0.88218300  1
  O  O2  1  0.04408900  0.26827900  0.82587000  1
  O  O3  1  0.45591100  0.26827900  0.82587000  1
  O  O4  1  0.95305100  0.77272200  0.67125800  1
  O  O5  1  0.54694900  0.77272200  0.67125800  1
  O  O6  1  0.75000000  0.23494600  0.61118800  1
  O  O7  1  0.25000000  0.16111800  0.55656100  1
  O  O8  1  0.75000000  0.83888200  0.44343900  1
  O  O9  1  0.25000000  0.76505400  0.38881200  1
  O  O10  1  0.04694900  0.22727800  0.32874200  1
  O  O11  1  0.45305100  0.22727800  0.32874200  1
  O  O12  1  0.54408900  0.73172100  0.17413000  1
  O  O13  1  0.95591100  0.73172100  0.17413000  1
  O  O14  1  0.75000000  0.26939900  0.11781700  1
  O  O15  1  0.25000000  0.34923800  0.05087500  1
loop_
_geom_bond_atom_site_label_1
_geom_bond_atom_site_label_2
_geom_bond_distance
_geom_bond_site_symmetry_2
Fe0 O0 1.954121 1_555
Fe0 O6 1.968910 1_555
Fe0 O3 2.020300 1_555
Fe0 O2 2.020300 1_655
Fe0 O4 2.161813 1_555
Fe0 O5 2.161813 1_555
Fe1 O15 1.954121 1_555
Fe1 O9 1.968910 1_555
Fe1 O12 2.020300 1_555
Fe1 O13 2.020300 1_455
Fe1 O10 2.161813 1_555
Fe1 O11 2.161813 1_555
Co0 O1 1.902171 1_555
Co0 O7 1.918014 1_565
Co0 O5 1.969208 1_555
Co0 O4 1.969208 1_455
Co0 O3 2.268443 1_565
Co0 O2 2.268443 1_565
Co1 O14 1.902171 1_555
Co1 O8 1.918014 1_545
Co1 O10 1.969208 1_655
Co1 O11 1.969208 1_555
Co1 O12 2.268443 1_545
Co1 O13 2.268443 1_545
O0 P3 1.529689 1_556
O1 P0 1.549441 1_555
O2 P0 1.567586 1_555
O3 P0 1.567586 1_555
O4 P1 1.593741 1_555
O5 P1 1.593741 1_555
O6 P1 1.514370 1_545
O7 P2 1.533842 1_555
O8 P1 1.533842 1_555
O9 P2 1.514370 1_565
O10 P2 1.593741 1_555
O11 P2 1.593741 1_555
O12 P3 1.567586 1_555
O13 P3 1.567586 1_555
O14 P3 1.549441 1_555
O15 P0 1.529689 1_554
