# generated using pymatgen
data_Ba2YBr7
_symmetry_space_group_name_H-M   'P 1'
_cell_length_a   9.80623947
_cell_length_b   9.80623947
_cell_length_c   11.36325892
_cell_angle_alpha   55.67535180
_cell_angle_beta   55.67535180
_cell_angle_gamma   52.45276322
_symmetry_Int_Tables_number   1
_chemical_formula_structural   Ba2YBr7
_chemical_formula_sum   'Ba4 Y2 Br14'
_cell_volume   673.80069099
_cell_formula_units_Z   2
loop_
 _symmetry_equiv_pos_site_id
 _symmetry_equiv_pos_as_xyz
  1  'x, y, z'
loop_
 _atom_site_type_symbol
 _atom_site_label
 _atom_site_symmetry_multiplicity
 _atom_site_fract_x
 _atom_site_fract_y
 _atom_site_fract_z
 _atom_site_occupancy
  Ba  Ba0  1  0.70872300  0.68131500  0.70036100  1
  Ba  Ba1  1  0.68131500  0.70872300  0.20036100  1
  Ba  Ba2  1  0.31868500  0.29127700  0.79963900  1
  Ba  Ba3  1  0.29127700  0.31868500  0.29963900  1
  Y  Y0  1  0.05201100  0.94798900  0.75000000  1
  Y  Y1  1  0.94798900  0.05201100  0.25000000  1
  Br  Br0  1  0.93660200  0.68408600  0.83926200  1
  Br  Br1  1  0.68408600  0.93660200  0.33926200  1
  Br  Br2  1  0.93166700  0.24848000  0.94338500  1
  Br  Br3  1  0.89807400  0.34335200  0.56428900  1
  Br  Br4  1  0.39954600  0.60045400  0.75000000  1
  Br  Br5  1  0.24848000  0.93166700  0.44338500  1
  Br  Br6  1  0.65664800  0.10192600  0.93571100  1
  Br  Br7  1  0.34335200  0.89807400  0.06428900  1
  Br  Br8  1  0.75152000  0.06833300  0.55661500  1
  Br  Br9  1  0.60045400  0.39954600  0.25000000  1
  Br  Br10  1  0.10192600  0.65664800  0.43571100  1
  Br  Br11  1  0.06833300  0.75152000  0.05661500  1
  Br  Br12  1  0.31591400  0.06339800  0.66073800  1
  Br  Br13  1  0.06339800  0.31591400  0.16073800  1
loop_
_geom_bond_atom_site_label_1
_geom_bond_atom_site_label_2
_geom_bond_distance
_geom_bond_site_symmetry_2
Ba0 Br10 3.252118 1_655
Ba0 Br4 3.261325 1_555
Ba0 Br8 3.380046 1_565
Ba0 Br12 3.397276 1_565
Ba0 Br0 3.403773 1_555
Ba0 Br3 3.444268 1_555
Ba0 Br1 3.458101 1_555
Ba0 Br2 3.563875 1_555
Ba1 Br6 3.252118 1_564
Ba1 Br9 3.261325 1_555
Ba1 Br11 3.380046 1_655
Ba1 Br13 3.397276 1_655
Ba1 Br1 3.403773 1_555
Ba1 Br7 3.444268 1_555
Ba1 Br0 3.458101 1_554
Ba1 Br5 3.563875 1_555
Ba2 Br7 3.252118 1_546
Ba2 Br4 3.261325 1_555
Ba2 Br2 3.380046 1_455
Ba2 Br0 3.397276 1_455
Ba2 Br12 3.403773 1_555
Ba2 Br6 3.444268 1_555
Ba2 Br13 3.458101 1_556
Ba2 Br8 3.563875 1_555
Ba3 Br3 3.252118 1_455
Ba3 Br9 3.261325 1_555
Ba3 Br5 3.380046 1_545
Ba3 Br1 3.397276 1_545
Ba3 Br13 3.403773 1_555
Ba3 Br10 3.444268 1_555
Ba3 Br12 3.458101 1_555
Ba3 Br11 3.563875 1_555
Br0 Y0 2.884730 1_655
Br1 Y1 2.884730 1_565
Br2 Y1 2.925674 1_556
Br3 Y0 2.999286 1_645
Br4 Y0 3.012130 1_555
Br5 Y0 2.925674 1_555
Br6 Y0 2.999286 1_645
Br7 Y1 2.999286 1_465
Br8 Y1 2.925674 1_555
Br9 Y1 3.012130 1_555
Br10 Y1 2.999286 1_465
Br11 Y0 2.925674 1_554
Br12 Y0 2.884730 1_545
Br13 Y1 2.884730 1_455
