# generated using pymatgen
data_Na3FeSiCO7
_symmetry_space_group_name_H-M   'P 1'
_cell_length_a   6.61271600
_cell_length_b   5.25421200
_cell_length_c   9.01231138
_cell_angle_alpha   89.33043182
_cell_angle_beta   90.00000000
_cell_angle_gamma   90.00000000
_symmetry_Int_Tables_number   1
_chemical_formula_structural   Na3FeSiCO7
_chemical_formula_sum   'Na6 Fe2 Si2 C2 O14'
_cell_volume   313.10787882
_cell_formula_units_Z   2
loop_
 _symmetry_equiv_pos_site_id
 _symmetry_equiv_pos_as_xyz
  1  'x, y, z'
loop_
 _atom_site_type_symbol
 _atom_site_label
 _atom_site_symmetry_multiplicity
 _atom_site_fract_x
 _atom_site_fract_y
 _atom_site_fract_z
 _atom_site_occupancy
  Na  Na0  1  0.75000000  0.23781000  0.91216300  1
  Na  Na1  1  0.99216300  0.74385700  0.73439700  1
  Na  Na2  1  0.50783700  0.74385700  0.73439700  1
  Na  Na3  1  0.49216300  0.25614300  0.26560300  1
  Na  Na4  1  0.00783700  0.25614300  0.26560300  1
  Na  Na5  1  0.25000000  0.76219000  0.08783700  1
  Fe  Fe0  1  0.25000000  0.20994300  0.64449800  1
  Fe  Fe1  1  0.75000000  0.79005700  0.35550200  1
  Si  Si0  1  0.75000000  0.29308000  0.57992900  1
  Si  Si1  1  0.25000000  0.70692000  0.42007100  1
  C  C0  1  0.25000000  0.26652500  0.93761400  1
  C  C1  1  0.75000000  0.73347500  0.06238600  1
  O  O0  1  0.75000000  0.70806700  0.92004200  1
  O  O1  1  0.25000000  0.04179200  0.87790900  1
  O  O2  1  0.25000000  0.46481500  0.84918300  1
  O  O3  1  0.94889000  0.22531000  0.68344400  1
  O  O4  1  0.55111000  0.22531000  0.68344400  1
  O  O5  1  0.75000000  0.60327500  0.54304500  1
  O  O6  1  0.25000000  0.85916900  0.57770100  1
  O  O7  1  0.75000000  0.14083100  0.42229900  1
  O  O8  1  0.25000000  0.39672500  0.45695500  1
  O  O9  1  0.44889000  0.77469000  0.31655600  1
  O  O10  1  0.05111000  0.77469000  0.31655600  1
  O  O11  1  0.75000000  0.53518500  0.15081700  1
  O  O12  1  0.75000000  0.95820800  0.12209100  1
  O  O13  1  0.25000000  0.29193300  0.07995800  1
loop_
_geom_bond_atom_site_label_1
_geom_bond_atom_site_label_2
_geom_bond_distance
_geom_bond_site_symmetry_2
Na0 O12 2.381740 1_546
Na0 O3 2.446659 1_555
Na0 O4 2.446659 1_555
Na0 O0 2.472679 1_555
Na0 O11 2.673182 1_556
Na0 O0 2.783458 1_545
Na1 O6 2.290941 1_655
Na1 O0 2.321977 1_555
Na1 O2 2.468063 1_655
Na1 O5 2.472588 1_555
Na1 O3 2.581620 1_565
Na1 O1 2.660393 1_665
Na1 O3 2.783019 1_555
Na2 O6 2.290941 1_555
Na2 O0 2.321977 1_555
Na2 O2 2.468063 1_555
Na2 O5 2.472588 1_555
Na2 O4 2.581620 1_565
Na2 O1 2.660393 1_565
Na2 O4 2.783019 1_555
Na3 O7 2.290941 1_555
Na3 O13 2.321977 1_555
Na3 O11 2.468063 1_555
Na3 O8 2.472588 1_555
Na3 O9 2.581620 1_545
Na3 O12 2.660393 1_545
Na3 O9 2.783019 1_555
Na4 O7 2.290941 1_455
Na4 O13 2.321977 1_555
Na4 O11 2.468063 1_455
Na4 O8 2.472588 1_555
Na4 O10 2.581620 1_545
Na4 O12 2.660393 1_445
Na4 O10 2.783019 1_555
Na5 O1 2.381740 1_564
Na5 O9 2.446659 1_555
Na5 O10 2.446659 1_555
Na5 O13 2.472679 1_555
Na5 O2 2.673182 1_554
Na5 O13 2.783458 1_565
Fe0 O8 1.944512 1_555
Fe0 O6 1.945541 1_545
Fe0 O3 2.023629 1_455
Fe0 O4 2.023629 1_555
Fe0 O1 2.272038 1_555
Fe0 O2 2.292144 1_555
Fe1 O5 1.944512 1_555
Fe1 O7 1.945541 1_565
Fe1 O10 2.023629 1_655
Fe1 O9 2.023629 1_555
Fe1 O12 2.272038 1_555
Fe1 O11 2.292144 1_555
C0 O13 1.291327 1_556
C0 O1 1.303325 1_555
C0 O2 1.304308 1_555
C1 O0 1.291327 1_554
C1 O12 1.303325 1_555
C1 O11 1.304308 1_555
O3 Si0 1.648971 1_555
O4 Si0 1.648971 1_555
O5 Si0 1.659573 1_555
O6 Si1 1.638479 1_555
O7 Si0 1.638479 1_555
O8 Si1 1.659573 1_555
O9 Si1 1.648971 1_555
O10 Si1 1.648971 1_555
