# generated using pymatgen
data_Li3V4(OF3)3
_symmetry_space_group_name_H-M   'P 1'
_cell_length_a   5.23505288
_cell_length_b   5.51482132
_cell_length_c   8.93586867
_cell_angle_alpha   74.81489796
_cell_angle_beta   89.62367967
_cell_angle_gamma   62.45815822
_symmetry_Int_Tables_number   1
_chemical_formula_structural   Li3V4(OF3)3
_chemical_formula_sum   'Li3 V4 O3 F9'
_cell_volume   218.77201839
_cell_formula_units_Z   1
loop_
 _symmetry_equiv_pos_site_id
 _symmetry_equiv_pos_as_xyz
  1  'x, y, z'
loop_
 _atom_site_type_symbol
 _atom_site_label
 _atom_site_symmetry_multiplicity
 _atom_site_fract_x
 _atom_site_fract_y
 _atom_site_fract_z
 _atom_site_occupancy
  Li  Li0  1  0.08588900  0.86855200  0.34841300  1
  Li  Li1  1  0.80146500  0.38080600  0.59654100  1
  Li  Li2  1  0.58653400  0.84713800  0.85791900  1
  V  V0  1  0.99283000  0.02710800  0.00688600  1
  V  V1  1  0.26639800  0.51985800  0.74666600  1
  V  V2  1  0.49986000  0.97081000  0.49750200  1
  V  V3  1  0.74495200  0.50451800  0.24646600  1
  O  O0  1  0.45783800  0.73770000  0.69243200  1
  O  O1  1  0.50686900  0.73425200  0.37943900  1
  O  O2  1  0.95301800  0.25800900  0.12754000  1
  F  F0  1  0.05306700  0.22812800  0.44488900  1
  F  F1  1  0.06012900  0.26468800  0.80181300  1
  F  F2  1  0.99240600  0.76466800  0.87166600  1
  F  F3  1  0.52151200  0.22852000  0.63406000  1
  F  F4  1  0.56016400  0.21996900  0.93032200  1
  F  F5  1  0.56762500  0.24453800  0.32731400  1
  F  F6  1  0.42970500  0.77257500  0.04968100  1
  F  F7  1  0.95687500  0.72795100  0.55262100  1
  F  F8  1  0.95173700  0.74346900  0.19380200  1
loop_
_geom_bond_atom_site_label_1
_geom_bond_atom_site_label_2
_geom_bond_distance
_geom_bond_site_symmetry_2
Li0 O1 1.968077 1_555
Li0 O2 2.325502 1_465
Li1 O1 2.284662 1_555
Li1 O0 2.330891 1_555
Li2 O0 1.965095 1_555
O0 V1 1.866707 1_555
O0 V2 1.954115 1_555
O1 V2 1.868829 1_555
O1 V3 1.969608 1_555
O2 V0 1.816087 1_555
O2 V3 1.880461 1_555
F0 Li1 1.956765 1_455
F0 V2 2.073890 1_545
F0 V3 2.101651 1_455
F0 Li0 2.298597 1_545
F1 Li1 2.055154 1_455
F1 V0 2.087930 1_456
F1 V1 2.103360 1_555
F2 Li2 1.953722 1_555
F2 V1 2.026296 1_655
F2 V0 2.115154 1_566
F3 Li1 1.987438 1_555
F3 V1 2.054864 1_555
F3 V2 2.140353 1_545
F3 Li2 2.384071 1_545
F4 V1 2.013131 1_555
F4 V0 2.034927 1_556
F4 Li2 2.257964 1_545
F5 V2 2.000720 1_545
F5 V3 2.029469 1_555
F5 Li0 2.509061 1_645
F6 Li2 1.924585 1_554
F6 V0 2.026979 1_465
F6 V3 2.102662 1_555
F7 Li0 2.028318 1_655
F7 V1 2.055229 1_655
F7 V2 2.113524 1_555
F7 Li1 2.350241 1_555
F8 Li0 1.959045 1_655
F8 V3 2.029170 1_555
F8 V0 2.054406 1_565
