# generated using pymatgen
data_Nb2PbO6
_symmetry_space_group_name_H-M   'P 1'
_cell_length_a   12.99899034
_cell_length_b   12.99899034
_cell_length_c   7.90381100
_cell_angle_alpha   90.00000000
_cell_angle_beta   90.00000000
_cell_angle_gamma   92.01017660
_symmetry_Int_Tables_number   1
_chemical_formula_structural   Nb2PbO6
_chemical_formula_sum   'Nb20 Pb10 O60'
_cell_volume   1334.71471072
_cell_formula_units_Z   10
loop_
 _symmetry_equiv_pos_site_id
 _symmetry_equiv_pos_as_xyz
  1  'x, y, z'
loop_
 _atom_site_type_symbol
 _atom_site_label
 _atom_site_symmetry_multiplicity
 _atom_site_fract_x
 _atom_site_fract_y
 _atom_site_fract_z
 _atom_site_occupancy
  Nb  Nb0  1  0.06665800  0.29574700  0.99842300  1
  Nb  Nb1  1  0.06665800  0.29574700  0.50157700  1
  Nb  Nb2  1  0.28395800  0.08470700  0.49603200  1
  Nb  Nb3  1  0.28395800  0.08470700  0.00396800  1
  Nb  Nb4  1  0.56530600  0.21457700  0.00401500  1
  Nb  Nb5  1  0.56530600  0.21457700  0.49598500  1
  Nb  Nb6  1  0.20573600  0.58205300  0.99765200  1
  Nb  Nb7  1  0.20573600  0.58205300  0.50234800  1
  Nb  Nb8  1  0.99565200  0.00434800  0.00000000  1
  Nb  Nb9  1  0.49622600  0.50377400  0.00000000  1
  Nb  Nb10  1  0.49622600  0.50377400  0.50000000  1
  Nb  Nb11  1  0.99565200  0.00434800  0.50000000  1
  Nb  Nb12  1  0.41794700  0.79426400  0.00234800  1
  Nb  Nb13  1  0.41794700  0.79426400  0.49765200  1
  Nb  Nb14  1  0.78542300  0.43469400  0.99598500  1
  Nb  Nb15  1  0.78542300  0.43469400  0.50401500  1
  Nb  Nb16  1  0.91529300  0.71604200  0.99603200  1
  Nb  Nb17  1  0.91529300  0.71604200  0.50396800  1
  Nb  Nb18  1  0.70425300  0.93334200  0.00157700  1
  Nb  Nb19  1  0.70425300  0.93334200  0.49842300  1
  Pb  Pb0  1  0.99196100  0.51713300  0.25000000  1
  Pb  Pb1  1  0.27983000  0.37740900  0.25000000  1
  Pb  Pb2  1  0.28087500  0.37636300  0.75000000  1
  Pb  Pb3  1  0.14512500  0.85875600  0.75000000  1
  Pb  Pb4  1  0.79362400  0.21177400  0.25000000  1
  Pb  Pb5  1  0.78822600  0.20637600  0.75000000  1
  Pb  Pb6  1  0.14124400  0.85487500  0.25000000  1
  Pb  Pb7  1  0.62363700  0.71912500  0.25000000  1
  Pb  Pb8  1  0.62259100  0.72017000  0.75000000  1
  Pb  Pb9  1  0.48286700  0.00803900  0.75000000  1
  O  O0  1  0.09104600  0.29272300  0.75000000  1
  O  O1  1  0.09187800  0.29186600  0.25000000  1
  O  O2  1  0.30446700  0.06608500  0.75000000  1
  O  O3  1  0.29743300  0.07136800  0.25000000  1
  O  O4  1  0.22516200  0.21156900  0.99618800  1
  O  O5  1  0.22516200  0.21156900  0.50381200  1
  O  O6  1  0.15607500  0.42400100  0.00256000  1
  O  O7  1  0.15607500  0.42400100  0.49744000  1
  O  O8  1  0.44079100  0.13097700  0.99098700  1
  O  O9  1  0.44079100  0.13097700  0.50901300  1
  O  O10  1  0.07595100  0.63257100  0.00913100  1
  O  O11  1  0.07595100  0.63257100  0.49086900  1
  O  O12  1  0.65093900  0.06207600  0.99571600  1
  O  O13  1  0.65093900  0.06207600  0.50428400  1
  O  O14  1  0.59814200  0.20185900  0.25000000  1
  O  O15  1  0.59698000  0.19936400  0.75000000  1
  O  O16  1  0.21693100  0.55778700  0.25000000  1
  O  O17  1  0.21664900  0.56035300  0.75000000  1
  O  O18  1  0.85194900  0.99055500  0.00113700  1
  O  O19  1  0.85194900  0.99055500  0.49886300  1
  O  O20  1  0.34867900  0.49044900  0.99883800  1
  O  O21  1  0.34867900  0.49044900  0.50116200  1
  O  O22  1  0.50462400  0.33956100  0.00232100  1
  O  O23  1  0.50462400  0.33956100  0.49767900  1
  O  O24  1  0.01338100  0.83597300  0.00248800  1
  O  O25  1  0.01338100  0.83597300  0.49751200  1
  O  O26  1  0.72174000  0.27826000  0.00000000  1
  O  O27  1  0.28700400  0.71299600  0.00000000  1
  O  O28  1  0.01721500  0.98493300  0.25000000  1
  O  O29  1  0.72174000  0.27826000  0.50000000  1
  O  O30  1  0.28700400  0.71299600  0.50000000  1
  O  O31  1  0.01506700  0.98278500  0.75000000  1
  O  O32  1  0.50338000  0.49744500  0.25000000  1
  O  O33  1  0.50255500  0.49662000  0.75000000  1
  O  O34  1  0.16402700  0.98661900  0.99751200  1
  O  O35  1  0.16402700  0.98661900  0.50248800  1
  O  O36  1  0.66043900  0.49537600  0.99767900  1
  O  O37  1  0.66043900  0.49537600  0.50232100  1
  O  O38  1  0.50955100  0.65132100  0.00116200  1
  O  O39  1  0.50955100  0.65132100  0.49883800  1
  O  O40  1  0.00944500  0.14805100  0.99886300  1
  O  O41  1  0.00944500  0.14805100  0.50113700  1
  O  O42  1  0.43964700  0.78335100  0.25000000  1
  O  O43  1  0.44221300  0.78306900  0.75000000  1
  O  O44  1  0.79814100  0.40185800  0.75000000  1
  O  O45  1  0.80063600  0.40302000  0.25000000  1
  O  O46  1  0.93792400  0.34906100  0.00428400  1
  O  O47  1  0.93792400  0.34906100  0.49571600  1
  O  O48  1  0.36742900  0.92404900  0.99086900  1
  O  O49  1  0.36742900  0.92404900  0.50913100  1
  O  O50  1  0.86902300  0.55920900  0.00901300  1
  O  O51  1  0.86902300  0.55920900  0.49098700  1
  O  O52  1  0.57599900  0.84392500  0.99744000  1
  O  O53  1  0.57599900  0.84392500  0.50256000  1
  O  O54  1  0.78843100  0.77483800  0.00381200  1
  O  O55  1  0.78843100  0.77483800  0.49618800  1
  O  O56  1  0.93391500  0.69553300  0.25000000  1
  O  O57  1  0.92863200  0.70256700  0.75000000  1
  O  O58  1  0.70727700  0.90895400  0.25000000  1
  O  O59  1  0.70813400  0.90812200  0.75000000  1
loop_
_geom_bond_atom_site_label_1
_geom_bond_atom_site_label_2
_geom_bond_distance
_geom_bond_site_symmetry_2
Nb0 O46 1.834149 1_456
Nb0 O0 1.989524 1_555
Nb0 O6 1.998900 1_556
Nb0 O1 2.016180 1_556
Nb0 O40 2.034444 1_555
Nb0 O4 2.366649 1_555
Nb1 O47 1.834149 1_455
Nb1 O0 1.989524 1_555
Nb1 O7 1.998900 1_555
Nb1 O1 2.016180 1_555
Nb1 O41 2.034444 1_555
Nb1 O5 2.366649 1_555
Nb2 O5 1.842769 1_555
Nb2 O3 1.960691 1_555
Nb2 O35 1.979727 1_545
Nb2 O2 2.040468 1_555
Nb2 O9 2.107710 1_555
Nb2 O49 2.389221 1_545
Nb3 O4 1.842769 1_554
Nb3 O3 1.960691 1_555
Nb3 O34 1.979727 1_544
Nb3 O2 2.040468 1_554
Nb3 O8 2.107710 1_554
Nb3 O48 2.389221 1_544
Nb4 O22 1.830802 1_555
Nb4 O8 1.920397 1_554
Nb4 O14 1.998614 1_555
Nb4 O15 2.060375 1_554
Nb4 O26 2.168697 1_555
Nb4 O12 2.308233 1_554
Nb5 O23 1.830802 1_555
Nb5 O9 1.920397 1_555
Nb5 O14 1.998614 1_555
Nb5 O15 2.060375 1_555
Nb5 O29 2.168697 1_555
Nb5 O13 2.308233 1_555
Nb6 O10 1.833959 1_556
Nb6 O27 1.971654 1_556
Nb6 O17 1.983404 1_555
Nb6 O16 2.025332 1_556
Nb6 O6 2.132188 1_556
Nb6 O20 2.241831 1_555
Nb7 O11 1.833959 1_555
Nb7 O30 1.971654 1_555
Nb7 O17 1.983404 1_555
Nb7 O16 2.025332 1_555
Nb7 O7 2.132188 1_555
Nb7 O21 2.241831 1_555
Nb8 O40 1.870330 1_654
Nb8 O18 1.870330 1_545
Nb8 O28 2.012862 1_645
Nb8 O31 2.012862 1_644
Nb8 O34 2.208917 1_644
Nb8 O24 2.208917 1_645
Nb9 O20 1.919729 1_554
Nb9 O38 1.919729 1_555
Nb9 O32 1.979985 1_555
Nb9 O33 1.979985 1_554
Nb9 O36 2.141292 1_554
Nb9 O22 2.141292 1_555
Nb10 O21 1.919729 1_555
Nb10 O39 1.919729 1_555
Nb10 O32 1.979985 1_555
Nb10 O33 1.979985 1_555
Nb10 O37 2.141292 1_555
Nb10 O23 2.141292 1_555
Nb11 O41 1.870330 1_655
Nb11 O19 1.870330 1_545
Nb11 O28 2.012862 1_645
Nb11 O31 2.012862 1_645
Nb11 O35 2.208917 1_645
Nb11 O25 2.208917 1_645
Nb12 O48 1.833959 1_554
Nb12 O27 1.971654 1_555
Nb12 O42 1.983404 1_555
Nb12 O43 2.025332 1_554
Nb12 O52 2.132188 1_554
Nb12 O38 2.241831 1_555
Nb13 O49 1.833959 1_555
Nb13 O30 1.971654 1_555
Nb13 O42 1.983404 1_555
Nb13 O43 2.025332 1_555
Nb13 O53 2.132188 1_555
Nb13 O39 2.241831 1_555
Nb14 O36 1.830802 1_555
Nb14 O50 1.920397 1_556
Nb14 O44 1.998614 1_555
Nb14 O45 2.060375 1_556
Nb14 O26 2.168697 1_556
Nb14 O46 2.308233 1_556
Nb15 O37 1.830802 1_555
Nb15 O51 1.920397 1_555
Nb15 O44 1.998614 1_555
Nb15 O45 2.060375 1_555
Nb15 O29 2.168697 1_555
Nb15 O47 2.308233 1_555
Nb16 O54 1.842769 1_556
Nb16 O57 1.960691 1_555
Nb16 O24 1.979727 1_656
Nb16 O56 2.040468 1_556
Nb16 O50 2.107710 1_556
Nb16 O10 2.389221 1_656
Nb17 O55 1.842769 1_555
Nb17 O57 1.960691 1_555
Nb17 O25 1.979727 1_655
Nb17 O56 2.040468 1_555
Nb17 O51 2.107710 1_555
Nb17 O11 2.389221 1_655
Nb18 O12 1.834149 1_564
Nb18 O58 1.989524 1_555
Nb18 O52 1.998900 1_554
Nb18 O59 2.016180 1_554
Nb18 O18 2.034444 1_555
Nb18 O54 2.366649 1_555
Nb19 O13 1.834149 1_565
Nb19 O58 1.989524 1_555
Nb19 O53 1.998900 1_555
Nb19 O59 2.016180 1_555
Nb19 O19 2.034444 1_555
Nb19 O55 2.366649 1_555
O0 Pb2 2.661362 1_555
O1 Pb1 2.648594 1_555
O2 Pb9 2.463724 1_555
O6 Pb1 2.616846 1_555
O6 Pb2 2.659036 1_554
O7 Pb1 2.616846 1_555
O7 Pb2 2.659036 1_555
O8 Pb9 2.557780 1_555
O9 Pb9 2.557780 1_555
O10 Pb0 2.636889 1_455
O11 Pb0 2.636889 1_455
O14 Pb4 2.539816 1_555
O15 Pb5 2.484478 1_555
O16 Pb1 2.510133 1_555
O17 Pb2 2.560712 1_555
O20 Pb2 2.598579 1_555
O20 Pb1 2.609336 1_556
O21 Pb2 2.598579 1_555
O21 Pb1 2.609336 1_555
O24 Pb6 2.573194 1_555
O24 Pb3 2.639585 1_554
O25 Pb6 2.573194 1_555
O25 Pb3 2.639585 1_555
O26 Pb5 2.362438 1_554
O26 Pb4 2.362438 1_555
O28 Pb6 2.376716 1_555
O29 Pb5 2.362438 1_555
O29 Pb4 2.362438 1_555
O31 Pb3 2.376716 1_555
O34 Pb3 2.573194 1_555
O34 Pb6 2.639585 1_556
O35 Pb3 2.573194 1_555
O35 Pb6 2.639585 1_555
O38 Pb7 2.598579 1_555
O38 Pb8 2.609336 1_554
O39 Pb7 2.598579 1_555
O39 Pb8 2.609336 1_555
O42 Pb7 2.560712 1_555
O43 Pb8 2.510133 1_555
O44 Pb5 2.539816 1_555
O45 Pb4 2.484478 1_555
O48 Pb9 2.636889 1_565
O49 Pb9 2.636889 1_565
O50 Pb0 2.557780 1_555
O51 Pb0 2.557780 1_555
O52 Pb8 2.616846 1_555
O52 Pb7 2.659036 1_556
O53 Pb8 2.616846 1_555
O53 Pb7 2.659036 1_555
O56 Pb0 2.463724 1_555
O58 Pb7 2.661362 1_555
O59 Pb8 2.648594 1_555
