# generated using pymatgen
data_CoPbO3
_symmetry_space_group_name_H-M   'P 1'
_cell_length_a   5.36763500
_cell_length_b   7.64672600
_cell_length_c   10.81261500
_cell_angle_alpha   90.00000000
_cell_angle_beta   90.00000000
_cell_angle_gamma   90.00000000
_symmetry_Int_Tables_number   1
_chemical_formula_structural   CoPbO3
_chemical_formula_sum   'Co8 Pb8 O24'
_cell_volume   443.80198900
_cell_formula_units_Z   8
loop_
 _symmetry_equiv_pos_site_id
 _symmetry_equiv_pos_as_xyz
  1  'x, y, z'
loop_
 _atom_site_type_symbol
 _atom_site_label
 _atom_site_symmetry_multiplicity
 _atom_site_fract_x
 _atom_site_fract_y
 _atom_site_fract_z
 _atom_site_occupancy
  Co  Co0  1  0.25889400  0.24997200  0.12498900  1
  Co  Co1  1  0.25889400  0.75002800  0.12498900  1
  Co  Co2  1  0.24110600  0.75002800  0.62498900  1
  Co  Co3  1  0.24110600  0.24997200  0.62498900  1
  Co  Co4  1  0.75889400  0.75002800  0.37501100  1
  Co  Co5  1  0.75889400  0.24997200  0.37501100  1
  Co  Co6  1  0.74110600  0.75002800  0.87501100  1
  Co  Co7  1  0.74110600  0.24997200  0.87501100  1
  Pb  Pb0  1  0.25089300  0.00000000  0.38114900  1
  Pb  Pb1  1  0.27480900  0.50000000  0.36839700  1
  Pb  Pb2  1  0.22519100  0.50000000  0.86839700  1
  Pb  Pb3  1  0.24910700  0.00000000  0.88114900  1
  Pb  Pb4  1  0.75089300  0.00000000  0.11885100  1
  Pb  Pb5  1  0.77480900  0.50000000  0.13160300  1
  Pb  Pb6  1  0.74910700  0.00000000  0.61885100  1
  Pb  Pb7  1  0.72519100  0.50000000  0.63160300  1
  O  O0  1  0.00000000  0.20020900  0.00000000  1
  O  O1  1  0.00000000  0.79979100  0.00000000  1
  O  O2  1  0.00000000  0.19536300  0.50000000  1
  O  O3  1  0.00000000  0.80463700  0.50000000  1
  O  O4  1  0.01840600  0.30151000  0.25558100  1
  O  O5  1  0.01840600  0.69849000  0.25558100  1
  O  O6  1  0.23648700  0.00000000  0.66856400  1
  O  O7  1  0.25558100  0.50000000  0.58176900  1
  O  O8  1  0.24441900  0.50000000  0.08176900  1
  O  O9  1  0.26351300  0.00000000  0.16856400  1
  O  O10  1  0.48159400  0.30151000  0.75558100  1
  O  O11  1  0.48159400  0.69849000  0.75558100  1
  O  O12  1  0.50000000  0.19536300  0.00000000  1
  O  O13  1  0.50000000  0.80463700  0.00000000  1
  O  O14  1  0.50000000  0.20020900  0.50000000  1
  O  O15  1  0.50000000  0.79979100  0.50000000  1
  O  O16  1  0.51840600  0.69849000  0.24441900  1
  O  O17  1  0.51840600  0.30151000  0.24441900  1
  O  O18  1  0.75558100  0.50000000  0.91823100  1
  O  O19  1  0.73648700  0.00000000  0.83143600  1
  O  O20  1  0.74441900  0.50000000  0.41823100  1
  O  O21  1  0.76351300  0.00000000  0.33143600  1
  O  O22  1  0.98159400  0.69849000  0.74441900  1
  O  O23  1  0.98159400  0.30151000  0.74441900  1
loop_
_geom_bond_atom_site_label_1
_geom_bond_atom_site_label_2
_geom_bond_distance
_geom_bond_site_symmetry_2
Co0 O12 1.917208 1_555
Co0 O17 1.939910 1_555
Co0 O4 1.953323 1_555
Co0 O9 1.968836 1_555
Co0 O8 1.969713 1_555
Co0 O0 1.975439 1_555
Co1 O13 1.917208 1_555
Co1 O16 1.939910 1_555
Co1 O5 1.953323 1_555
Co1 O9 1.968836 1_565
Co1 O8 1.969713 1_555
Co1 O1 1.975439 1_555
Co2 O3 1.917208 1_555
Co2 O22 1.939910 1_455
Co2 O11 1.953323 1_555
Co2 O6 1.968836 1_565
Co2 O7 1.969713 1_555
Co2 O15 1.975439 1_555
Co3 O2 1.917208 1_555
Co3 O23 1.939910 1_455
Co3 O10 1.953323 1_555
Co3 O6 1.968836 1_555
Co3 O7 1.969713 1_555
Co3 O14 1.975439 1_555
Co4 O3 1.917208 1_655
Co4 O5 1.939910 1_655
Co4 O16 1.953323 1_555
Co4 O21 1.968836 1_565
Co4 O20 1.969713 1_555
Co4 O15 1.975439 1_555
Co5 O2 1.917208 1_655
Co5 O4 1.939910 1_655
Co5 O17 1.953323 1_555
Co5 O21 1.968836 1_555
Co5 O20 1.969713 1_555
Co5 O14 1.975439 1_555
Co6 O13 1.917208 1_556
Co6 O11 1.939910 1_555
Co6 O22 1.953323 1_555
Co6 O19 1.968836 1_565
Co6 O18 1.969713 1_555
Co6 O1 1.975439 1_656
Co7 O12 1.917208 1_556
Co7 O10 1.939910 1_555
Co7 O23 1.953323 1_555
Co7 O19 1.968836 1_555
Co7 O18 1.969713 1_555
Co7 O0 1.975439 1_656
O0 Pb3 2.404812 1_554
O0 Pb4 2.404812 1_455
O1 Pb4 2.404812 1_465
O1 Pb3 2.404812 1_564
O2 Pb0 2.386789 1_555
O2 Pb6 2.386789 1_455
O3 Pb0 2.386789 1_565
O3 Pb6 2.386789 1_465
O4 Pb1 2.384503 1_555
O4 Pb5 2.410474 1_455
O5 Pb1 2.384503 1_555
O5 Pb5 2.410474 1_455
O6 Pb3 2.299598 1_555
O7 Pb1 2.309417 1_555
O7 Pb7 2.577644 1_555
O8 Pb2 2.309417 1_554
O8 Pb5 2.577644 1_455
O9 Pb0 2.299598 1_555
O10 Pb2 2.384503 1_555
O10 Pb7 2.410474 1_555
O11 Pb2 2.384503 1_555
O11 Pb7 2.410474 1_555
O12 Pb3 2.386789 1_554
O12 Pb4 2.386789 1_555
O13 Pb4 2.386789 1_565
O13 Pb3 2.386789 1_564
O14 Pb6 2.404812 1_555
O14 Pb0 2.404812 1_555
O15 Pb0 2.404812 1_565
O15 Pb6 2.404812 1_565
O16 Pb5 2.384503 1_555
O16 Pb1 2.410474 1_555
O17 Pb5 2.384503 1_555
O17 Pb1 2.410474 1_555
O18 Pb5 2.309417 1_556
O18 Pb2 2.577644 1_655
O19 Pb6 2.299598 1_555
O20 Pb7 2.309417 1_555
O20 Pb1 2.577644 1_555
O21 Pb4 2.299598 1_555
O22 Pb7 2.384503 1_555
O22 Pb2 2.410474 1_655
O23 Pb7 2.384503 1_555
O23 Pb2 2.410474 1_655
