# generated using pymatgen
data_Na4Li3(FeO4)2
_symmetry_space_group_name_H-M   'P 1'
_cell_length_a   8.07395300
_cell_length_b   6.44484300
_cell_length_c   10.30433057
_cell_angle_alpha   53.62691222
_cell_angle_beta   90.00000000
_cell_angle_gamma   90.00000000
_symmetry_Int_Tables_number   1
_chemical_formula_structural   Na4Li3(FeO4)2
_chemical_formula_sum   'Na8 Li6 Fe4 O16'
_cell_volume   431.72504518
_cell_formula_units_Z   2
loop_
 _symmetry_equiv_pos_site_id
 _symmetry_equiv_pos_as_xyz
  1  'x, y, z'
loop_
 _atom_site_type_symbol
 _atom_site_label
 _atom_site_symmetry_multiplicity
 _atom_site_fract_x
 _atom_site_fract_y
 _atom_site_fract_z
 _atom_site_occupancy
  Na  Na0  1  0.74369300  0.25190800  0.00742800  1
  Na  Na1  1  0.74506600  0.73106200  0.00939100  1
  Na  Na2  1  0.45761600  0.74677700  0.23708800  1
  Na  Na3  1  0.02952600  0.28294800  0.25031100  1
  Na  Na4  1  0.25630700  0.25190800  0.50742800  1
  Na  Na5  1  0.25493400  0.73106200  0.50939100  1
  Na  Na6  1  0.54238400  0.74677700  0.73708800  1
  Na  Na7  1  0.97047400  0.28294800  0.75031100  1
  Li  Li0  1  0.39880600  0.42575100  0.07504400  1
  Li  Li1  1  0.76568900  0.89888900  0.35502800  1
  Li  Li2  1  0.95275500  0.56218900  0.41505800  1
  Li  Li3  1  0.60119400  0.42575100  0.57504400  1
  Li  Li4  1  0.23431100  0.89888900  0.85502800  1
  Li  Li5  1  0.04724500  0.56218900  0.91505800  1
  Fe  Fe0  1  0.03691200  0.87573000  0.12727900  1
  Fe  Fe1  1  0.53093800  0.14143800  0.36390400  1
  Fe  Fe2  1  0.96308800  0.87573000  0.62727900  1
  Fe  Fe3  1  0.46906200  0.14143800  0.86390400  1
  O  O0  1  0.03515000  0.20709000  0.03257100  1
  O  O1  1  0.05287400  0.74502600  0.01456500  1
  O  O2  1  0.70616200  0.26288500  0.22824400  1
  O  O3  1  0.83103600  0.79984600  0.21252500  1
  O  O4  1  0.31739500  0.19698300  0.30115700  1
  O  O5  1  0.16870100  0.68483700  0.29411900  1
  O  O6  1  0.53702500  0.28863800  0.46444900  1
  O  O7  1  0.54893500  0.79313900  0.45952000  1
  O  O8  1  0.94712600  0.74502600  0.51456500  1
  O  O9  1  0.96485000  0.20709000  0.53257100  1
  O  O10  1  0.29383800  0.26288500  0.72824400  1
  O  O11  1  0.16896400  0.79984600  0.71252500  1
  O  O12  1  0.68260500  0.19698300  0.80115700  1
  O  O13  1  0.83129900  0.68483700  0.79411900  1
  O  O14  1  0.46297500  0.28863800  0.96444900  1
  O  O15  1  0.45106500  0.79313900  0.95952000  1
loop_
_geom_bond_atom_site_label_1
_geom_bond_atom_site_label_2
_geom_bond_distance
_geom_bond_site_symmetry_2
Na0 O14 2.294530 1_554
Na0 O2 2.337738 1_555
Na0 O0 2.366304 1_655
Na0 O12 2.403882 1_554
Na0 O13 2.417136 1_554
Na0 O3 2.479712 1_545
Na1 O15 2.411427 1_554
Na1 O3 2.481975 1_555
Na1 O1 2.488571 1_655
Na1 O2 2.493570 1_555
Na1 O12 2.496613 1_564
Na1 O13 2.505569 1_554
Na2 O5 2.380732 1_555
Na2 O6 2.532428 1_555
Na2 O7 2.588146 1_555
Na2 O15 2.694239 1_554
Na2 O14 2.907475 1_564
Na3 O4 2.374713 1_555
Na3 O1 2.494955 1_555
Na3 O0 2.564398 1_555
Na3 O2 2.630534 1_455
Na3 O9 2.698987 1_455
Na4 O6 2.294530 1_555
Na4 O10 2.337738 1_555
Na4 O9 2.366304 1_455
Na4 O4 2.403882 1_555
Na4 O5 2.417136 1_555
Na4 O11 2.479712 1_545
Na5 O7 2.411427 1_555
Na5 O11 2.481975 1_555
Na5 O8 2.488571 1_455
Na5 O10 2.493570 1_555
Na5 O4 2.496613 1_565
Na5 O5 2.505569 1_555
Na6 O13 2.380732 1_555
Na6 O14 2.532428 1_555
Na6 O15 2.588146 1_555
Na6 O7 2.694239 1_555
Na6 O6 2.907475 1_565
Na7 O12 2.374713 1_555
Na7 O8 2.494955 1_555
Na7 O9 2.564398 1_555
Na7 O10 2.630534 1_655
Na7 O0 2.698987 1_656
Li0 O14 1.882136 1_554
Li0 O15 1.964255 1_554
Li0 O4 1.989983 1_555
Li1 O2 1.950883 1_565
Li1 O7 1.953499 1_555
Li1 O8 1.974405 1_555
Li1 O3 1.988399 1_555
Li2 O9 1.851061 1_555
Li2 O8 1.968501 1_555
Li2 O3 1.968726 1_555
Li2 O5 2.012308 1_655
Li3 O6 1.882136 1_555
Li3 O7 1.964255 1_555
Li3 O12 1.989983 1_555
Li4 O10 1.950883 1_565
Li4 O15 1.953499 1_555
Li4 O1 1.974405 1_556
Li4 O11 1.988399 1_555
Li5 O0 1.851061 1_556
Li5 O1 1.968501 1_556
Li5 O11 1.968726 1_555
Li5 O13 2.012308 1_455
Fe0 O0 1.743933 1_565
Fe0 O5 1.758615 1_555
Fe0 O1 1.798765 1_555
Fe0 O3 1.806726 1_455
Fe1 O6 1.772451 1_555
Fe1 O4 1.801198 1_555
Fe1 O2 1.808452 1_555
Fe1 O7 1.845937 1_545
Fe2 O9 1.743933 1_565
Fe2 O13 1.758615 1_555
Fe2 O8 1.798765 1_555
Fe2 O11 1.806726 1_655
Fe3 O14 1.772451 1_555
Fe3 O12 1.801198 1_555
Fe3 O10 1.808452 1_555
Fe3 O15 1.845937 1_545
