# generated using pymatgen
data_Li4Mn5Ni3O16
_symmetry_space_group_name_H-M   'P 1'
_cell_length_a   5.80788299
_cell_length_b   5.80788299
_cell_length_c   9.36856846
_cell_angle_alpha   88.35905838
_cell_angle_beta   88.35905838
_cell_angle_gamma   59.32458060
_symmetry_Int_Tables_number   1
_chemical_formula_structural   Li4Mn5Ni3O16
_chemical_formula_sum   'Li4 Mn5 Ni3 O16'
_cell_volume   271.64856797
_cell_formula_units_Z   1
loop_
 _symmetry_equiv_pos_site_id
 _symmetry_equiv_pos_as_xyz
  1  'x, y, z'
loop_
 _atom_site_type_symbol
 _atom_site_label
 _atom_site_symmetry_multiplicity
 _atom_site_fract_x
 _atom_site_fract_y
 _atom_site_fract_z
 _atom_site_occupancy
  Li  Li0  1  0.66310000  0.66310000  0.10300100  1
  Li  Li1  1  0.99414800  0.99414800  0.00903700  1
  Li  Li2  1  0.00140200  0.00140200  0.50335200  1
  Li  Li3  1  0.33312800  0.33312800  0.60077900  1
  Mn  Mn0  1  0.33905400  0.83170300  0.78642100  1
  Mn  Mn1  1  0.67153300  0.67153300  0.51290200  1
  Mn  Mn2  1  0.83170300  0.33905400  0.78642100  1
  Mn  Mn3  1  0.17256400  0.17256400  0.28493100  1
  Mn  Mn4  1  0.33731300  0.33731300  0.01691400  1
  Ni  Ni0  1  0.82974200  0.82974200  0.78809300  1
  Ni  Ni1  1  0.16899400  0.66201700  0.28844500  1
  Ni  Ni2  1  0.66201700  0.16899400  0.28844500  1
  O  O0  1  0.34185400  0.84102400  0.40227300  1
  O  O1  1  0.51914900  0.51914900  0.66277400  1
  O  O2  1  0.65798700  0.65798700  0.89410600  1
  O  O3  1  0.00515700  0.00515700  0.69264600  1
  O  O4  1  0.00378400  0.00378400  0.19880000  1
  O  O5  1  0.84102400  0.34185400  0.40227300  1
  O  O6  1  0.50867400  0.96127700  0.65380700  1
  O  O7  1  0.96127700  0.50867400  0.65380700  1
  O  O8  1  0.16299600  0.16299600  0.89791900  1
  O  O9  1  0.83724400  0.83724400  0.40678400  1
  O  O10  1  0.03516900  0.47193500  0.15259800  1
  O  O11  1  0.47193500  0.03516900  0.15259800  1
  O  O12  1  0.33078400  0.33078400  0.38959100  1
  O  O13  1  0.17466000  0.66695000  0.90427800  1
  O  O14  1  0.47633900  0.47633900  0.15488200  1
  O  O15  1  0.66695000  0.17466000  0.90427800  1
loop_
_geom_bond_atom_site_label_1
_geom_bond_atom_site_label_2
_geom_bond_distance
_geom_bond_site_symmetry_2
Li0 O10 1.923059 1_655
Li0 O11 1.923059 1_565
Li0 O14 1.931173 1_555
Li0 O2 1.959427 1_554
Li1 O4 1.783664 1_665
Li1 O15 1.920588 1_564
Li1 O13 1.920588 1_654
Li1 O8 1.967579 1_664
Li2 O3 1.775067 1_555
Li2 O9 1.913834 1_445
Li2 O0 1.933422 1_545
Li2 O5 1.933422 1_455
Li3 O6 1.916069 1_545
Li3 O7 1.916069 1_455
Li3 O12 1.979450 1_555
Li3 O1 1.983602 1_555
Mn0 O3 1.897594 1_565
Mn0 O2 1.899651 1_555
Mn0 O6 1.926964 1_555
Mn0 O1 1.960827 1_555
Mn0 O13 1.964090 1_555
Mn0 O8 1.971130 1_565
Mn1 O9 1.917406 1_555
Mn1 O5 1.959965 1_555
Mn1 O0 1.959965 1_555
Mn1 O6 1.975021 1_555
Mn1 O7 1.975021 1_555
Mn1 O1 2.048141 1_555
Mn2 O3 1.897594 1_655
Mn2 O2 1.899651 1_555
Mn2 O7 1.926964 1_555
Mn2 O1 1.960827 1_555
Mn2 O15 1.964090 1_555
Mn2 O8 1.971130 1_655
Mn3 O12 1.901330 1_555
Mn3 O4 1.908921 1_555
Mn3 O10 1.927288 1_555
Mn3 O11 1.927288 1_555
Mn3 O5 1.972784 1_455
Mn3 O0 1.972784 1_545
Mn4 O14 1.938928 1_555
Mn4 O13 1.940937 1_554
Mn4 O15 1.940937 1_554
Mn4 O10 1.958513 1_555
Mn4 O11 1.958513 1_555
Mn4 O8 2.113737 1_554
Ni0 O3 1.957081 1_665
Ni0 O2 1.969367 1_555
Ni0 O15 2.055504 1_565
Ni0 O13 2.055504 1_655
Ni0 O6 2.066235 1_555
Ni0 O7 2.066235 1_555
Ni1 O4 1.890330 1_565
Ni1 O12 1.893115 1_555
Ni1 O14 1.974896 1_555
Ni1 O9 1.979593 1_455
Ni1 O0 2.101386 1_555
Ni1 O10 2.110744 1_555
Ni2 O4 1.890330 1_655
Ni2 O12 1.893115 1_555
Ni2 O14 1.974896 1_555
Ni2 O9 1.979593 1_545
Ni2 O5 2.101386 1_555
Ni2 O11 2.110744 1_555
