# generated using pymatgen
data_Fe10O9F11
_symmetry_space_group_name_H-M   'P 1'
_cell_length_a   4.76415500
_cell_length_b   4.76554694
_cell_length_c   15.48688538
_cell_angle_alpha   90.15143814
_cell_angle_beta   90.26892725
_cell_angle_gamma   93.26002959
_symmetry_Int_Tables_number   1
_chemical_formula_structural   Fe10O9F11
_chemical_formula_sum   'Fe10 O9 F11'
_cell_volume   351.03685481
_cell_formula_units_Z   1
loop_
 _symmetry_equiv_pos_site_id
 _symmetry_equiv_pos_as_xyz
  1  'x, y, z'
loop_
 _atom_site_type_symbol
 _atom_site_label
 _atom_site_symmetry_multiplicity
 _atom_site_fract_x
 _atom_site_fract_y
 _atom_site_fract_z
 _atom_site_occupancy
  Fe  Fe0  1  0.01122200  0.98625200  0.99858700  1
  Fe  Fe1  1  0.97972200  0.96476700  0.20356200  1
  Fe  Fe2  1  0.03822700  0.01629700  0.38959500  1
  Fe  Fe3  1  0.99076300  0.99023500  0.59933800  1
  Fe  Fe4  1  0.03887000  0.01713500  0.80785800  1
  Fe  Fe5  1  0.51873700  0.50083800  0.09394400  1
  Fe  Fe6  1  0.49032200  0.48315600  0.50446500  1
  Fe  Fe7  1  0.47434700  0.52385200  0.29784000  1
  Fe  Fe8  1  0.49474300  0.48669200  0.69682500  1
  Fe  Fe9  1  0.46105300  0.51648300  0.90718600  1
  O  O0  1  0.20120800  0.80272700  0.30539900  1
  O  O1  1  0.19212700  0.81537700  0.89823600  1
  O  O2  1  0.29757200  0.30003100  0.00208500  1
  O  O3  1  0.31770500  0.32077500  0.40338700  1
  O  O4  1  0.29545000  0.28964900  0.60106200  1
  O  O5  1  0.31748000  0.32302800  0.79738500  1
  O  O6  1  0.69819700  0.69925300  0.99738800  1
  O  O7  1  0.67201000  0.66992100  0.19895700  1
  O  O8  1  0.69764100  0.69155000  0.60048600  1
  F  F0  1  0.19715100  0.78876000  0.09676900  1
  F  F1  1  0.19535700  0.80842900  0.50070100  1
  F  F2  1  0.19432600  0.80841900  0.70047600  1
  F  F3  1  0.28705600  0.28895800  0.19864500  1
  F  F4  1  0.70870300  0.71253300  0.40528200  1
  F  F5  1  0.70821800  0.71442200  0.79434900  1
  F  F6  1  0.80210100  0.18766300  0.09645500  1
  F  F7  1  0.81089900  0.19001600  0.49991500  1
  F  F8  1  0.79095500  0.21169700  0.30617500  1
  F  F9  1  0.80652400  0.20139400  0.89647200  1
  F  F10  1  0.81131400  0.18969100  0.70117400  1
loop_
_geom_bond_atom_site_label_1
_geom_bond_atom_site_label_2
_geom_bond_distance
_geom_bond_site_symmetry_2
Fe0 O6 1.965341 1_455
Fe0 O2 1.966441 1_566
Fe0 O1 1.976592 1_555
Fe1 O7 1.973000 1_555
Fe1 O0 2.068960 1_655
Fe2 O0 1.852400 1_545
Fe2 O3 1.923493 1_555
Fe3 O8 1.936703 1_555
Fe3 O4 1.976768 1_665
Fe4 O1 1.869228 1_545
Fe4 O5 1.922595 1_555
Fe5 O7 1.934534 1_555
Fe5 O6 1.946449 1_554
Fe5 O2 1.978343 1_555
Fe6 O3 1.906483 1_555
Fe6 O4 1.968058 1_555
Fe6 O8 2.009983 1_555
Fe7 O7 1.913405 1_555
Fe7 O0 1.915866 1_555
Fe7 O3 2.025603 1_555
Fe8 O5 1.921130 1_555
Fe8 O4 1.964879 1_555
Fe8 O8 2.006843 1_555
Fe9 O2 1.938555 1_556
Fe9 O6 1.962998 1_555
Fe9 O1 1.973963 1_555
Fe9 O5 2.029405 1_555
F0 Fe0 2.017962 1_554
F0 Fe5 2.114540 1_555
F0 Fe1 2.149296 1_455
F1 Fe3 2.034026 1_455
F1 Fe2 2.140959 1_565
F1 Fe6 2.151379 1_555
F2 Fe3 2.057446 1_455
F2 Fe4 2.095244 1_565
F2 Fe8 2.156901 1_555
F3 Fe7 2.067278 1_555
F3 Fe1 2.069032 1_445
F3 Fe5 2.183065 1_555
F4 Fe2 2.089530 1_665
F4 Fe6 2.128674 1_555
F4 Fe7 2.164317 1_555
F5 Fe4 2.084033 1_665
F5 Fe8 2.084382 1_555
F5 Fe9 2.287314 1_555
F6 Fe5 2.068903 1_555
F6 Fe0 2.079992 1_644
F6 Fe1 2.166616 1_545
F7 Fe3 2.024771 1_545
F7 Fe6 2.128903 1_555
F7 Fe2 2.211152 1_655
F8 Fe2 2.010169 1_655
F8 Fe7 2.181548 1_555
F8 Fe1 2.200644 1_545
F9 Fe4 1.999537 1_655
F9 Fe0 2.147322 1_645
F9 Fe9 2.296409 1_555
F10 Fe3 2.053983 1_545
F10 Fe8 2.127157 1_555
F10 Fe4 2.161724 1_655
