# generated using pymatgen
data_Na2Ca9NdY5HoF41
_symmetry_space_group_name_H-M   'P 1'
_cell_length_a   9.77673500
_cell_length_b   10.41954850
_cell_length_c   10.43554140
_cell_angle_alpha   110.49812153
_cell_angle_beta   107.74388348
_cell_angle_gamma   108.19189731
_symmetry_Int_Tables_number   1
_chemical_formula_structural   Na2Ca9NdY5HoF41
_chemical_formula_sum   'Na2 Ca9 Nd1 Y5 Ho1 F41'
_cell_volume   837.31760303
_cell_formula_units_Z   1
loop_
 _symmetry_equiv_pos_site_id
 _symmetry_equiv_pos_as_xyz
  1  'x, y, z'
loop_
 _atom_site_type_symbol
 _atom_site_label
 _atom_site_symmetry_multiplicity
 _atom_site_fract_x
 _atom_site_fract_y
 _atom_site_fract_z
 _atom_site_occupancy
  Na  Na0  1  0.38639100  0.63236100  0.04028900  1
  Na  Na1  1  0.95209900  0.16022900  0.26913000  1
  Ca  Ca0  1  0.07225100  0.51568800  0.21276100  1
  Ca  Ca1  1  0.13498100  0.21176400  0.67397900  1
  Ca  Ca2  1  0.23136300  0.57197900  0.62914400  1
  Ca  Ca3  1  0.34392700  0.94271500  0.59090900  1
  Ca  Ca4  1  0.43942500  0.30670300  0.52540900  1
  Ca  Ca5  1  0.56411900  0.69408700  0.49722100  1
  Ca  Ca6  1  0.61033800  0.36557300  0.93930800  1
  Ca  Ca7  1  0.77331600  0.42171600  0.36786600  1
  Ca  Ca8  1  0.92793000  0.48564400  0.79611700  1
  Nd  Nd0  1  0.86593200  0.80023600  0.28738600  1
  Y  Y0  1  0.01331000  0.83327700  0.71788600  1
  Y  Y1  1  0.68115400  0.72242800  0.88301800  1
  Y  Y2  1  0.18841300  0.87613200  0.16862000  1
  Y  Y3  1  0.80233700  0.09973700  0.83719600  1
  Y  Y4  1  0.33276000  0.27809600  0.10968700  1
  Ho  Ho0  1  0.65556400  0.05311900  0.41715800  1
  F  F0  1  0.02051300  0.44211800  0.38349800  1
  F  F1  1  0.19879900  0.30723300  0.52088400  1
  F  F2  1  0.12974600  0.78008100  0.32350000  1
  F  F3  1  0.13966000  0.45248700  0.76477400  1
  F  F4  1  0.31727400  0.68646000  0.47289200  1
  F  F5  1  0.08762600  0.94157500  0.55821900  1
  F  F6  1  0.46652300  0.55508800  0.61520300  1
  F  F7  1  0.33657200  0.36277600  0.94212400  1
  F  F8  1  0.23287100  0.81535100  0.70167800  1
  F  F9  1  0.40513500  0.04789200  0.42644300  1
  F  F10  1  0.14901600  0.62436700  0.06324100  1
  F  F11  1  0.44403700  0.68952000  0.86782900  1
  F  F12  1  0.28978500  0.47405200  0.20372200  1
  F  F13  1  0.20479600  0.07795800  0.87807200  1
  F  F14  1  0.37897000  0.20889200  0.68628300  1
  F  F15  1  0.62460700  0.86354800  0.77071500  1
  F  F16  1  0.57648900  0.11620900  0.82805900  1
  F  F17  1  0.43375200  0.89714000  0.19127700  1
  F  F18  1  0.29607300  0.11921100  0.20174800  1
  F  F19  1  0.62698700  0.79688200  0.32739500  1
  F  F20  1  0.76103400  0.89959200  0.12183100  1
  F  F21  1  0.65482400  0.47143000  0.78137700  1
  F  F22  1  0.56016200  0.29574800  0.11566100  1
  F  F23  1  0.94240100  0.24541300  0.09058600  1
  F  F24  1  0.85258200  0.36967600  0.93412000  1
  F  F25  1  0.58829900  0.95713200  0.56762900  1
  F  F26  1  0.73024300  0.17544700  0.29873000  1
  F  F27  1  0.62677600  0.60785800  0.04664400  1
  F  F28  1  0.51940100  0.42538700  0.36719000  1
  F  F29  1  0.89219100  0.05469000  0.43877000  1
  F  F30  1  0.88184200  0.96969200  0.67460500  1
  F  F31  1  0.68311300  0.30082600  0.53143000  1
  F  F32  1  0.83638600  0.53437100  0.20600200  1
  F  F33  1  0.90659700  0.71642700  0.04504000  1
  F  F34  1  0.86684200  0.21243600  0.68892500  1
  F  F35  1  0.94574700  0.98901800  0.94100800  1
  F  F36  1  0.81354500  0.68475900  0.45447600  1
  F  F37  1  0.07792100  0.99933800  0.29018500  1
  F  F38  1  0.96684200  0.57191600  0.62305700  1
  F  F39  1  0.77386900  0.69125300  0.70126000  1
  F  F40  1  0.09434800  0.78456900  0.91443400  1
loop_
_geom_bond_atom_site_label_1
_geom_bond_atom_site_label_2
_geom_bond_distance
_geom_bond_site_symmetry_2
Ca0 F0 2.298225 1_555
Ca0 F12 2.321635 1_555
Ca0 F23 2.331174 1_455
Ca0 F32 2.356105 1_455
Ca0 F2 2.376591 1_555
Ca0 F10 2.387621 1_555
Ca0 F4 2.503132 1_555
Ca0 F24 2.537185 1_454
Ca1 F1 2.294405 1_555
Ca1 F3 2.329927 1_555
Ca1 F29 2.355268 1_455
Ca1 F14 2.359696 1_555
Ca1 F7 2.410156 1_555
Ca1 F5 2.462260 1_545
Ca1 F34 2.675197 1_455
Ca1 F30 2.934386 1_445
Ca1 F13 2.955258 1_555
Ca2 F11 2.268065 1_555
Ca2 F0 2.293420 1_555
Ca2 F8 2.372581 1_555
Ca2 F3 2.380733 1_555
Ca2 F6 2.403452 1_555
Ca2 F1 2.457027 1_555
Ca2 F4 2.521610 1_555
Ca2 F38 2.567294 1_455
Ca3 F8 2.283824 1_555
Ca3 F16 2.330832 1_565
Ca3 F4 2.404336 1_555
Ca3 F5 2.419303 1_555
Ca3 F25 2.438220 1_555
Ca3 F2 2.440167 1_555
Ca3 F9 2.457348 1_565
Ca3 F14 2.462841 1_565
Ca4 F6 2.316982 1_555
Ca4 F1 2.340357 1_555
Ca4 F21 2.370515 1_555
Ca4 F14 2.373469 1_555
Ca4 F31 2.384622 1_555
Ca4 F9 2.392719 1_555
Ca4 F28 2.545566 1_555
Ca4 F18 2.823587 1_555
Ca5 F4 2.321126 1_555
Ca5 F6 2.371903 1_555
Ca5 F28 2.466648 1_555
Ca5 F39 2.481989 1_555
Ca5 F25 2.487361 1_555
Ca5 F19 2.499614 1_555
Ca5 F15 2.530404 1_555
Ca5 F36 2.633573 1_555
Ca5 F12 2.840117 1_555
Ca5 F30 2.919695 1_555
Ca6 F27 2.304371 1_556
Ca6 F16 2.307515 1_555
Ca6 F22 2.328511 1_556
Ca6 F21 2.352114 1_555
Ca6 F24 2.372851 1_555
Ca6 F14 2.405948 1_555
Ca6 F32 2.473655 1_556
Ca6 F7 2.676827 1_555
Ca7 F26 2.264024 1_555
Ca7 F38 2.298268 1_555
Ca7 F0 2.308082 1_655
Ca7 F22 2.349925 1_555
Ca7 F36 2.420505 1_555
Ca7 F32 2.486519 1_555
Ca7 F28 2.492574 1_555
Ca7 F31 2.647163 1_555
Ca8 F3 2.300315 1_655
Ca8 F24 2.320840 1_555
Ca8 F38 2.357230 1_555
Ca8 F34 2.452089 1_555
Ca8 F10 2.467112 1_656
Ca8 F31 2.536489 1_555
Ca8 F21 2.581034 1_555
Ca8 F40 2.605914 1_655
F0 Na1 2.516023 1_455
F1 Na1 2.465414 1_455
F2 Y2 2.298342 1_555
F2 Nd0 2.576775 1_455
F3 Na0 2.602639 1_556
F5 Y0 2.473914 1_555
F5 Nd0 2.492505 1_455
F6 Y1 2.445875 1_555
F7 Y4 2.221994 1_556
F7 Na0 2.450141 1_556
F8 Y0 2.262933 1_555
F9 Y2 2.390916 1_545
F9 Ho0 2.464131 1_555
F10 Y2 2.308637 1_555
F10 Na0 2.383753 1_555
F11 Y1 2.181403 1_555
F11 Na0 2.251809 1_556
F12 Y4 2.166115 1_555
F13 Y4 2.180302 1_556
F13 Y0 2.219569 1_545
F15 Y3 2.226307 1_565
F15 Y1 2.271722 1_555
F16 Y3 2.243618 1_555
F17 Ho0 2.213830 1_565
F17 Y2 2.268790 1_555
F17 Na0 2.453910 1_555
F18 Y4 2.178410 1_555
F18 Y2 2.267758 1_545
F19 Ho0 2.388915 1_565
F19 Nd0 2.487300 1_555
F19 Na0 2.652890 1_555
F20 Y1 2.218085 1_554
F20 Na1 2.320781 1_565
F20 Nd0 2.438007 1_555
F21 Y1 2.345521 1_555
F22 Y4 2.152374 1_555
F23 Y3 2.203485 1_554
F23 Na1 2.317625 1_555
F24 Y3 2.453027 1_555
F25 Ho0 2.284088 1_565
F25 Y3 2.458305 1_565
F26 Ho0 2.181093 1_555
F26 Na1 2.326814 1_555
F27 Nd0 2.400578 1_555
F27 Na0 2.425787 1_555
F27 Y1 2.491586 1_554
F28 Y4 2.297894 1_555
F29 Ho0 2.249195 1_555
F29 Nd0 2.446500 1_545
F29 Na1 2.505885 1_555
F30 Y0 2.261173 1_655
F30 Y3 2.273870 1_565
F31 Ho0 2.317483 1_555
F32 Nd0 2.486323 1_555
F33 Y2 2.343505 1_655
F33 Y1 2.368399 1_554
F33 Nd0 2.568941 1_555
F34 Y3 2.361271 1_555
F34 Ho0 2.461016 1_555
F35 Y3 2.330187 1_565
F35 Y0 2.729764 1_655
F35 Y1 2.855826 1_555
F36 Y0 2.372043 1_655
F36 Nd0 2.525741 1_555
F37 Y2 2.232695 1_555
F37 Na1 2.398482 1_465
F37 Nd0 2.415801 1_455
F38 Y0 2.380740 1_655
F39 Y0 2.260444 1_655
F39 Y1 2.307620 1_555
F40 Y2 2.232706 1_556
F40 Y0 2.254294 1_555
