# generated using pymatgen
data_Na3Sb5O14
_symmetry_space_group_name_H-M   'P 1'
_cell_length_a   7.26747000
_cell_length_b   7.58926200
_cell_length_c   24.03340300
_cell_angle_alpha   90.00000000
_cell_angle_beta   90.00000000
_cell_angle_gamma   90.00000000
_symmetry_Int_Tables_number   1
_chemical_formula_structural   Na3Sb5O14
_chemical_formula_sum   'Na12 Sb20 O56'
_cell_volume   1325.55594735
_cell_formula_units_Z   4
loop_
 _symmetry_equiv_pos_site_id
 _symmetry_equiv_pos_as_xyz
  1  'x, y, z'
loop_
 _atom_site_type_symbol
 _atom_site_label
 _atom_site_symmetry_multiplicity
 _atom_site_fract_x
 _atom_site_fract_y
 _atom_site_fract_z
 _atom_site_occupancy
  Na  Na0  1  0.22933300  0.13217600  0.02380200  1
  Na  Na1  1  0.57965400  0.87870100  0.13270500  1
  Na  Na2  1  0.71437300  0.45167800  0.20136000  1
  Na  Na3  1  0.21437300  0.45167800  0.29864000  1
  Na  Na4  1  0.07965400  0.87870100  0.36729500  1
  Na  Na5  1  0.72933300  0.13217600  0.47619800  1
  Na  Na6  1  0.27066700  0.13217600  0.52380200  1
  Na  Na7  1  0.92034600  0.87870100  0.63270500  1
  Na  Na8  1  0.78562700  0.45167800  0.70136000  1
  Na  Na9  1  0.28562700  0.45167800  0.79864000  1
  Na  Na10  1  0.42034600  0.87870100  0.86729500  1
  Na  Na11  1  0.77066700  0.13217600  0.97619800  1
  Sb  Sb0  1  0.41778000  0.51666600  0.05859300  1
  Sb  Sb1  1  0.90250400  0.51639100  0.06317700  1
  Sb  Sb2  1  0.09941100  0.78423300  0.14404900  1
  Sb  Sb3  1  0.10650500  0.24937000  0.14501300  1
  Sb  Sb4  1  0.81037500  0.01636900  0.24251800  1
  Sb  Sb5  1  0.31037500  0.01636900  0.25748200  1
  Sb  Sb6  1  0.60650500  0.24937000  0.35498700  1
  Sb  Sb7  1  0.59941100  0.78423300  0.35595100  1
  Sb  Sb8  1  0.40250400  0.51639100  0.43682300  1
  Sb  Sb9  1  0.91778000  0.51666600  0.44140700  1
  Sb  Sb10  1  0.08222000  0.51666600  0.55859300  1
  Sb  Sb11  1  0.59749600  0.51639100  0.56317700  1
  Sb  Sb12  1  0.40058900  0.78423300  0.64404900  1
  Sb  Sb13  1  0.39349500  0.24937000  0.64501300  1
  Sb  Sb14  1  0.68962500  0.01636900  0.74251800  1
  Sb  Sb15  1  0.18962500  0.01636900  0.75748200  1
  Sb  Sb16  1  0.89349500  0.24937000  0.85498700  1
  Sb  Sb17  1  0.90058900  0.78423300  0.85595100  1
  Sb  Sb18  1  0.09749600  0.51639100  0.93682300  1
  Sb  Sb19  1  0.58222000  0.51666600  0.94140700  1
  O  O0  1  0.50000000  0.33855100  0.00000000  1
  O  O1  1  0.50000000  0.68814000  0.00000000  1
  O  O2  1  0.16222200  0.51121300  0.01806700  1
  O  O3  1  0.95125000  0.76750700  0.07251800  1
  O  O4  1  0.95164200  0.26349400  0.07125500  1
  O  O5  1  0.65895000  0.52548900  0.09887200  1
  O  O6  1  0.33274700  0.31493200  0.10200200  1
  O  O7  1  0.33513400  0.70528000  0.10784000  1
  O  O8  1  0.18020800  0.01623200  0.11770200  1
  O  O9  1  0.02051300  0.51370600  0.14480300  1
  O  O10  1  0.86124200  0.83476500  0.18222600  1
  O  O11  1  0.87119900  0.19512900  0.18279100  1
  O  O12  1  0.24535200  0.24517000  0.21515800  1
  O  O13  1  0.24099900  0.79702700  0.21329800  1
  O  O14  1  0.54800500  0.01909000  0.21580700  1
  O  O15  1  0.04800500  0.01909000  0.28419300  1
  O  O16  1  0.74099900  0.79702700  0.28670200  1
  O  O17  1  0.74535200  0.24517000  0.28484200  1
  O  O18  1  0.37119900  0.19512900  0.31720900  1
  O  O19  1  0.36124200  0.83476500  0.31777400  1
  O  O20  1  0.52051300  0.51370600  0.35519700  1
  O  O21  1  0.68020800  0.01623200  0.38229800  1
  O  O22  1  0.83513400  0.70528000  0.39216000  1
  O  O23  1  0.83274700  0.31493200  0.39799800  1
  O  O24  1  0.15895000  0.52548900  0.40112800  1
  O  O25  1  0.45164200  0.26349400  0.42874500  1
  O  O26  1  0.45125000  0.76750700  0.42748200  1
  O  O27  1  0.66222200  0.51121300  0.48193300  1
  O  O28  1  0.00000000  0.33855100  0.50000000  1
  O  O29  1  0.00000000  0.68814000  0.50000000  1
  O  O30  1  0.33777800  0.51121300  0.51806700  1
  O  O31  1  0.54875000  0.76750700  0.57251800  1
  O  O32  1  0.54835800  0.26349400  0.57125500  1
  O  O33  1  0.84105000  0.52548900  0.59887200  1
  O  O34  1  0.16725300  0.31493200  0.60200200  1
  O  O35  1  0.16486600  0.70528000  0.60784000  1
  O  O36  1  0.31979200  0.01623200  0.61770200  1
  O  O37  1  0.47948700  0.51370600  0.64480300  1
  O  O38  1  0.63875800  0.83476500  0.68222600  1
  O  O39  1  0.62880100  0.19512900  0.68279100  1
  O  O40  1  0.25464800  0.24517000  0.71515800  1
  O  O41  1  0.25900100  0.79702700  0.71329800  1
  O  O42  1  0.95199500  0.01909000  0.71580700  1
  O  O43  1  0.45199500  0.01909000  0.78419300  1
  O  O44  1  0.75900100  0.79702700  0.78670200  1
  O  O45  1  0.75464800  0.24517000  0.78484200  1
  O  O46  1  0.12880100  0.19512900  0.81720900  1
  O  O47  1  0.13875800  0.83476500  0.81777400  1
  O  O48  1  0.97948700  0.51370600  0.85519700  1
  O  O49  1  0.81979200  0.01623200  0.88229800  1
  O  O50  1  0.66486600  0.70528000  0.89216000  1
  O  O51  1  0.66725300  0.31493200  0.89799800  1
  O  O52  1  0.34105000  0.52548900  0.90112800  1
  O  O53  1  0.04835800  0.26349400  0.92874500  1
  O  O54  1  0.04875000  0.76750700  0.92748200  1
  O  O55  1  0.83777800  0.51121300  0.98193300  1
loop_
_geom_bond_atom_site_label_1
_geom_bond_atom_site_label_2
_geom_bond_distance
_geom_bond_site_symmetry_2
Na0 O8 2.448386 1_555
Na0 O6 2.453722 1_555
Na0 O4 2.523220 1_455
Na0 O0 2.578694 1_555
Na0 O53 2.818190 1_554
Na0 O2 2.920919 1_555
Na1 O14 2.275300 1_565
Na1 O7 2.290679 1_555
Na1 O10 2.390721 1_555
Na1 O5 2.859892 1_555
Na2 O11 2.299787 1_555
Na2 O17 2.555857 1_555
Na2 O5 2.557941 1_555
Na2 O9 2.649377 1_655
Na3 O18 2.299787 1_555
Na3 O12 2.555857 1_555
Na3 O24 2.557941 1_555
Na3 O20 2.649377 1_555
Na4 O15 2.275300 1_565
Na4 O22 2.290679 1_455
Na4 O19 2.390721 1_555
Na4 O24 2.859892 1_555
Na5 O21 2.448386 1_555
Na5 O23 2.453722 1_555
Na5 O25 2.523220 1_555
Na5 O28 2.578694 1_655
Na5 O32 2.818190 1_555
Na5 O27 2.920919 1_555
Na6 O36 2.448386 1_555
Na6 O34 2.453722 1_555
Na6 O32 2.523220 1_555
Na6 O28 2.578694 1_555
Na6 O25 2.818190 1_555
Na6 O30 2.920919 1_555
Na7 O42 2.275300 1_565
Na7 O35 2.290679 1_655
Na7 O38 2.390721 1_555
Na7 O33 2.859892 1_555
Na8 O39 2.299787 1_555
Na8 O45 2.555857 1_555
Na8 O33 2.557941 1_555
Na8 O37 2.649377 1_555
Na9 O46 2.299787 1_555
Na9 O40 2.555857 1_555
Na9 O52 2.557941 1_555
Na9 O48 2.649377 1_455
Na10 O43 2.275300 1_565
Na10 O50 2.290679 1_555
Na10 O47 2.390721 1_555
Na10 O52 2.859892 1_555
Na11 O49 2.448386 1_555
Na11 O51 2.453722 1_555
Na11 O53 2.523220 1_655
Na11 O0 2.578694 1_556
Na11 O4 2.818190 1_556
Na11 O55 2.920919 1_555
O0 Sb19 2.041396 1_554
O0 Sb0 2.041396 1_555
O1 Sb0 2.008378 1_555
O1 Sb19 2.008378 1_554
O2 Sb18 2.008817 1_554
O2 Sb0 2.097561 1_555
O2 Sb1 2.177050 1_455
O3 Sb1 1.951388 1_555
O3 Sb2 2.032470 1_655
O4 Sb1 1.961871 1_555
O4 Sb3 2.102490 1_655
O5 Sb1 1.968169 1_555
O5 Sb0 2.003380 1_555
O6 Sb0 1.953022 1_555
O6 Sb3 2.004876 1_555
O7 Sb0 1.952081 1_555
O7 Sb2 2.012728 1_555
O8 Sb2 1.961074 1_545
O8 Sb3 1.961713 1_555
O9 Sb3 2.101209 1_555
O9 Sb2 2.131742 1_555
O9 Sb1 2.141122 1_455
O10 Sb2 1.996218 1_655
O10 Sb4 2.033684 1_565
O11 Sb3 1.979437 1_655
O11 Sb4 2.023959 1_555
O12 Sb3 1.965001 1_555
O12 Sb5 2.067165 1_555
O13 Sb2 1.959107 1_555
O13 Sb5 2.037857 1_565
O14 Sb5 1.996506 1_555
O14 Sb4 2.012037 1_555
O15 Sb4 1.996506 1_455
O15 Sb5 2.012037 1_555
O16 Sb7 1.959107 1_555
O16 Sb4 2.037857 1_565
O17 Sb6 1.965001 1_555
O17 Sb4 2.067165 1_555
O18 Sb6 1.979437 1_555
O18 Sb5 2.023959 1_555
O19 Sb7 1.996218 1_555
O19 Sb5 2.033684 1_565
O20 Sb6 2.101209 1_555
O20 Sb7 2.131742 1_555
O20 Sb8 2.141122 1_555
O21 Sb7 1.961074 1_545
O21 Sb6 1.961713 1_555
O22 Sb9 1.952081 1_555
O22 Sb7 2.012728 1_555
O23 Sb9 1.953022 1_555
O23 Sb6 2.004876 1_555
O24 Sb8 1.968169 1_555
O24 Sb9 2.003380 1_455
O25 Sb8 1.961871 1_555
O25 Sb6 2.102490 1_555
O26 Sb8 1.951388 1_555
O26 Sb7 2.032470 1_555
O27 Sb11 2.008817 1_555
O27 Sb9 2.097561 1_555
O27 Sb8 2.177050 1_555
O28 Sb10 2.041396 1_555
O28 Sb9 2.041396 1_455
O29 Sb10 2.008378 1_555
O29 Sb9 2.008378 1_455
O30 Sb8 2.008817 1_555
O30 Sb10 2.097561 1_555
O30 Sb11 2.177050 1_555
O31 Sb11 1.951388 1_555
O31 Sb12 2.032470 1_555
O32 Sb11 1.961871 1_555
O32 Sb13 2.102490 1_555
O33 Sb11 1.968169 1_555
O33 Sb10 2.003380 1_655
O34 Sb10 1.953022 1_555
O34 Sb13 2.004876 1_555
O35 Sb10 1.952081 1_555
O35 Sb12 2.012728 1_555
O36 Sb12 1.961074 1_545
O36 Sb13 1.961713 1_555
O37 Sb13 2.101209 1_555
O37 Sb12 2.131742 1_555
O37 Sb11 2.141122 1_555
O38 Sb12 1.996218 1_555
O38 Sb14 2.033684 1_565
O39 Sb13 1.979437 1_555
O39 Sb14 2.023959 1_555
O40 Sb13 1.965001 1_555
O40 Sb15 2.067165 1_555
O41 Sb12 1.959107 1_555
O41 Sb15 2.037857 1_565
O42 Sb15 1.996506 1_655
O42 Sb14 2.012037 1_555
O43 Sb14 1.996506 1_555
O43 Sb15 2.012037 1_555
O44 Sb17 1.959107 1_555
O44 Sb14 2.037857 1_565
O45 Sb16 1.965001 1_555
O45 Sb14 2.067165 1_555
O46 Sb16 1.979437 1_455
O46 Sb15 2.023959 1_555
O47 Sb17 1.996218 1_455
O47 Sb15 2.033684 1_565
O48 Sb16 2.101209 1_555
O48 Sb17 2.131742 1_555
O48 Sb18 2.141122 1_655
O49 Sb17 1.961074 1_545
O49 Sb16 1.961713 1_555
O50 Sb19 1.952081 1_555
O50 Sb17 2.012728 1_555
O51 Sb19 1.953022 1_555
O51 Sb16 2.004876 1_555
O52 Sb18 1.968169 1_555
O52 Sb19 2.003380 1_555
O53 Sb18 1.961871 1_555
O53 Sb16 2.102490 1_455
O54 Sb18 1.951388 1_555
O54 Sb17 2.032470 1_455
O55 Sb1 2.008817 1_556
O55 Sb19 2.097561 1_555
O55 Sb18 2.177050 1_655
