# generated using pymatgen
data_Li3Mn(CO3)4
_symmetry_space_group_name_H-M   'P 1'
_cell_length_a   11.55772717
_cell_length_b   9.85683000
_cell_length_c   8.49489464
_cell_angle_alpha   90.00000000
_cell_angle_beta   92.10414680
_cell_angle_gamma   90.00000000
_symmetry_Int_Tables_number   1
_chemical_formula_structural   Li3Mn(CO3)4
_chemical_formula_sum   'Li12 Mn4 C16 O48'
_cell_volume   967.10755260
_cell_formula_units_Z   4
loop_
 _symmetry_equiv_pos_site_id
 _symmetry_equiv_pos_as_xyz
  1  'x, y, z'
loop_
 _atom_site_type_symbol
 _atom_site_label
 _atom_site_symmetry_multiplicity
 _atom_site_fract_x
 _atom_site_fract_y
 _atom_site_fract_z
 _atom_site_occupancy
  Li  Li0  1  0.20912800  0.92098600  0.68102200  1
  Li  Li1  1  0.20912800  0.57901400  0.18102200  1
  Li  Li2  1  0.34035400  0.66020700  0.51881500  1
  Li  Li3  1  0.34035400  0.83979300  0.01881500  1
  Li  Li4  1  0.65868300  0.16103300  0.96799600  1
  Li  Li5  1  0.65868300  0.33896700  0.46799600  1
  Li  Li6  1  0.76883800  0.40289300  0.80105700  1
  Li  Li7  1  0.76883800  0.09710700  0.30105700  1
  Li  Li8  1  0.86109500  0.64014200  0.93901500  1
  Li  Li9  1  0.86109500  0.85985800  0.43901500  1
  Li  Li10  1  0.92837200  0.12341100  0.94123000  1
  Li  Li11  1  0.92837200  0.37658900  0.44123000  1
  Mn  Mn0  1  0.26919100  0.41447500  0.75095200  1
  Mn  Mn1  1  0.26919100  0.08552500  0.25095200  1
  Mn  Mn2  1  0.72545100  0.89058700  0.76880100  1
  Mn  Mn3  1  0.72545100  0.60941300  0.26880100  1
  C  C0  1  0.01744500  0.38167700  0.76649800  1
  C  C1  1  0.01744500  0.11832300  0.26649800  1
  C  C2  1  0.22077500  0.64749200  0.84352900  1
  C  C3  1  0.22077500  0.85250800  0.34352900  1
  C  C4  1  0.28939500  0.14185700  0.89060300  1
  C  C5  1  0.28939500  0.35814300  0.39060300  1
  C  C6  1  0.48016900  0.85810400  0.74200200  1
  C  C7  1  0.48016900  0.64189600  0.24200200  1
  C  C8  1  0.51966200  0.35930600  0.75544500  1
  C  C9  1  0.51966200  0.14069400  0.25544500  1
  C  C10  1  0.72032800  0.64089700  0.61462600  1
  C  C11  1  0.72032800  0.85910300  0.11462600  1
  C  C12  1  0.79204800  0.13971100  0.63475000  1
  C  C13  1  0.79204800  0.36028900  0.13475000  1
  C  C14  1  0.97118600  0.89083000  0.75166500  1
  C  C15  1  0.97118600  0.60917000  0.25166500  1
  O  O0  1  0.99571300  0.84135500  0.61935700  1
  O  O1  1  0.99571300  0.65864500  0.11935700  1
  O  O2  1  0.02518000  0.98857300  0.81570200  1
  O  O3  1  0.02518000  0.51142700  0.31570200  1
  O  O4  1  0.11135600  0.36699900  0.68391400  1
  O  O5  1  0.11135600  0.13300100  0.18391400  1
  O  O6  1  0.20836900  0.76991400  0.87821000  1
  O  O7  1  0.20897800  0.54423700  0.93702300  1
  O  O8  1  0.20836900  0.73008600  0.37821000  1
  O  O9  1  0.20897800  0.95576300  0.43702300  1
  O  O10  1  0.25040100  0.61028800  0.70204200  1
  O  O11  1  0.25040100  0.88971200  0.20204200  1
  O  O12  1  0.27158100  0.27029300  0.90542200  1
  O  O13  1  0.27158100  0.22970700  0.40542200  1
  O  O14  1  0.29417400  0.07983900  0.76190700  1
  O  O15  1  0.29417400  0.42016100  0.26190700  1
  O  O16  1  0.30628200  0.07095300  0.01953700  1
  O  O17  1  0.30628200  0.42904700  0.51953700  1
  O  O18  1  0.40018700  0.83309800  0.63930400  1
  O  O19  1  0.40018700  0.66690200  0.13930300  1
  O  O20  1  0.43502900  0.43345500  0.80402800  1
  O  O21  1  0.43502900  0.06654500  0.30402800  1
  O  O22  1  0.52313100  0.31587100  0.61464100  1
  O  O23  1  0.52313100  0.18412900  0.11464100  1
  O  O24  1  0.47480200  0.80913200  0.88005700  1
  O  O25  1  0.47480200  0.69086800  0.38005700  1
  O  O26  1  0.56694300  0.93571600  0.70540100  1
  O  O27  1  0.56694300  0.56428400  0.20540100  1
  O  O28  1  0.60469500  0.33188400  0.85136300  1
  O  O29  1  0.60469500  0.16811600  0.35136300  1
  O  O30  1  0.70034800  0.55785200  0.49749100  1
  O  O31  1  0.70034800  0.94214800  0.99749100  1
  O  O32  1  0.72787800  0.59888900  0.75489500  1
  O  O33  1  0.72787800  0.90111100  0.25489500  1
  O  O34  1  0.73093200  0.77050400  0.58042100  1
  O  O35  1  0.73093200  0.72949600  0.08042100  1
  O  O36  1  0.77432500  0.10087600  0.78121300  1
  O  O37  1  0.77432500  0.39912400  0.28121300  1
  O  O38  1  0.80292100  0.04730200  0.53106700  1
  O  O39  1  0.79601400  0.26763200  0.60496100  1
  O  O40  1  0.80292100  0.45269800  0.03106700  1
  O  O41  1  0.79601400  0.23236800  0.10496100  1
  O  O42  1  0.88318100  0.83499200  0.82912500  1
  O  O43  1  0.88318100  0.66500800  0.32912500  1
  O  O44  1  0.95150800  0.48070800  0.72819800  1
  O  O45  1  0.95150800  0.01929200  0.22819800  1
  O  O46  1  0.99275400  0.29531200  0.86904700  1
  O  O47  1  0.99275400  0.20468800  0.36904700  1
loop_
_geom_bond_atom_site_label_1
_geom_bond_atom_site_label_2
_geom_bond_distance
_geom_bond_site_symmetry_2
Li0 O14 1.959689 1_565
Li0 O9 2.100838 1_555
Li0 O6 2.241535 1_555
Li0 O18 2.410334 1_555
Li0 O2 2.539949 1_555
Li0 O0 2.622915 1_455
Li1 O15 1.959689 1_555
Li1 O7 2.100838 1_554
Li1 O8 2.241535 1_555
Li1 O19 2.410336 1_555
Li1 O3 2.539949 1_555
Li1 O1 2.622915 1_455
Li2 O10 1.965830 1_555
Li2 O25 2.007461 1_555
Li2 O8 2.023430 1_555
Li2 O18 2.092374 1_555
Li2 O17 2.312331 1_555
Li3 O11 1.965830 1_555
Li3 O24 2.007461 1_554
Li3 O6 2.023430 1_554
Li3 O19 2.092370 1_555
Li3 O16 2.312331 1_565
Li4 O28 2.040007 1_555
Li4 O23 2.049746 1_556
Li4 O41 2.057144 1_556
Li4 O36 2.193477 1_555
Li4 O31 2.222762 1_545
Li5 O29 2.040007 1_555
Li5 O22 2.049746 1_555
Li5 O39 2.057144 1_555
Li5 O37 2.193477 1_555
Li5 O30 2.222762 1_555
Li6 O32 2.023979 1_555
Li6 O40 2.038976 1_556
Li6 O28 2.081133 1_555
Li6 O39 2.165538 1_555
Li6 O44 2.350470 1_555
Li7 O33 2.023979 1_545
Li7 O38 2.038976 1_555
Li7 O29 2.081133 1_555
Li7 O41 2.165538 1_555
Li7 O45 2.350470 1_555
Li8 O40 2.125040 1_556
Li8 O35 2.148151 1_556
Li8 O1 2.150807 1_556
Li8 O42 2.154717 1_555
Li8 O32 2.192141 1_555
Li9 O38 2.125040 1_565
Li9 O34 2.148151 1_555
Li9 O0 2.150807 1_555
Li9 O43 2.154717 1_555
Li9 O33 2.192141 1_555
Li10 O46 1.958109 1_555
Li10 O2 2.059865 1_645
Li10 O36 2.211184 1_555
Li10 O41 2.363124 1_556
Li11 O47 1.958109 1_555
Li11 O3 2.059865 1_655
Li11 O37 2.211184 1_555
Li11 O39 2.363124 1_555
Mn0 O12 1.933839 1_555
Mn0 O4 1.948017 1_555
Mn0 O20 1.961787 1_555
Mn0 O10 1.984549 1_555
Mn0 O17 2.032446 1_555
Mn0 O7 2.167834 1_555
Mn1 O13 1.933839 1_555
Mn1 O5 1.948017 1_555
Mn1 O21 1.961787 1_555
Mn1 O11 1.984549 1_545
Mn1 O16 2.032446 1_555
Mn1 O9 2.167834 1_545
Mn2 O26 1.942081 1_555
Mn2 O42 1.953874 1_555
Mn2 O34 1.993317 1_555
Mn2 O31 2.039102 1_555
Mn2 O36 2.149943 1_565
Mn3 O27 1.942081 1_555
Mn3 O43 1.953874 1_555
Mn3 O35 1.993317 1_555
Mn3 O30 2.039102 1_555
Mn3 O37 2.149943 1_555
C0 O46 1.258280 1_455
C0 O44 1.273283 1_455
C0 O4 1.321778 1_555
C1 O47 1.258280 1_455
C1 O45 1.273283 1_455
C1 O5 1.321778 1_555
C2 O6 1.251625 1_555
C2 O7 1.301222 1_555
C2 O10 1.313982 1_555
C3 O8 1.251625 1_555
C3 O9 1.301222 1_555
C3 O11 1.313982 1_555
C4 O14 1.255543 1_555
C4 O12 1.289506 1_555
C4 O16 1.307854 1_556
C5 O15 1.255543 1_555
C5 O13 1.289506 1_555
C5 O17 1.307854 1_555
C6 O18 1.271677 1_555
C6 O24 1.271837 1_555
C6 O26 1.307913 1_555
C7 O19 1.271683 1_555
C7 O25 1.271837 1_555
C7 O27 1.307913 1_555
C8 O22 1.272445 1_555
C8 O28 1.282205 1_555
C8 O20 1.300367 1_555
C9 O23 1.272445 1_555
C9 O29 1.282205 1_555
C9 O21 1.300367 1_555
C10 O32 1.261455 1_555
C10 O30 1.302543 1_555
C10 O34 1.316855 1_555
C11 O33 1.261455 1_555
C11 O31 1.302543 1_554
C11 O35 1.316855 1_555
C12 O38 1.276461 1_555
C12 O39 1.287186 1_555
C12 O36 1.324841 1_555
C13 O40 1.276461 1_555
C13 O41 1.287186 1_555
C13 O37 1.324841 1_555
C14 O2 1.260412 1_655
C14 O0 1.266815 1_555
C14 O42 1.348934 1_555
C15 O3 1.260412 1_655
C15 O1 1.266815 1_555
C15 O43 1.348934 1_555
