# generated using pymatgen
data_LaW9O28
_symmetry_space_group_name_H-M   'P 1'
_cell_length_a   13.03894422
_cell_length_b   13.03894422
_cell_length_c   3.90282300
_cell_angle_alpha   90.00000000
_cell_angle_beta   90.00000000
_cell_angle_gamma   120.00000113
_symmetry_Int_Tables_number   1
_chemical_formula_structural   LaW9O28
_chemical_formula_sum   'La1 W9 O28'
_cell_volume   574.63799422
_cell_formula_units_Z   1
loop_
 _symmetry_equiv_pos_site_id
 _symmetry_equiv_pos_as_xyz
  1  'x, y, z'
loop_
 _atom_site_type_symbol
 _atom_site_label
 _atom_site_symmetry_multiplicity
 _atom_site_fract_x
 _atom_site_fract_y
 _atom_site_fract_z
 _atom_site_occupancy
  La  La0  1  0.00000000  0.00000000  0.97916900  1
  W  W0  1  0.00000000  0.50000000  0.99953200  1
  W  W1  1  0.16817000  0.83183000  0.00133000  1
  W  W2  1  0.16817000  0.33633900  0.00133000  1
  W  W3  1  0.50000000  0.50000000  0.99953200  1
  W  W4  1  0.50000000  0.00000000  0.99953200  1
  W  W5  1  0.66366100  0.83183000  0.00133000  1
  W  W6  1  0.83183000  0.66366100  0.00133000  1
  W  W7  1  0.83183000  0.16817000  0.00133000  1
  W  W8  1  0.33633900  0.16817000  0.00133000  1
  O  O0  1  0.88102000  0.33327100  0.99992900  1
  O  O1  1  0.88102000  0.54774900  0.99992900  1
  O  O2  1  0.00000000  0.50000000  0.49995500  1
  O  O3  1  0.11898000  0.66672900  0.99992900  1
  O  O4  1  0.11898000  0.45225100  0.99992900  1
  O  O5  1  0.16727900  0.83272100  0.49944900  1
  O  O6  1  0.16727900  0.33455700  0.49944900  1
  O  O7  1  0.33327100  0.45225100  0.99992900  1
  O  O8  1  0.33327100  0.88102000  0.99992900  1
  O  O9  1  0.45225100  0.33327100  0.99992900  1
  O  O10  1  0.45225100  0.11898000  0.99992900  1
  O  O11  1  0.50000000  0.50000000  0.49995500  1
  O  O12  1  0.50000000  0.00000000  0.49995500  1
  O  O13  1  0.54774900  0.88102000  0.99992900  1
  O  O14  1  0.54774900  0.66672900  0.99992900  1
  O  O15  1  0.66544300  0.83272100  0.49944900  1
  O  O16  1  0.66672900  0.54774900  0.99992900  1
  O  O17  1  0.66672900  0.11898000  0.99992900  1
  O  O18  1  0.79042800  0.79042800  0.99849200  1
  O  O19  1  0.79042800  0.00000000  0.99849200  1
  O  O20  1  0.83272100  0.66544300  0.49944900  1
  O  O21  1  0.83272100  0.16727900  0.49944900  1
  O  O22  1  0.00000000  0.79042800  0.99849200  1
  O  O23  1  0.00000000  0.00000000  0.47920700  1
  O  O24  1  0.00000000  0.20957200  0.99849200  1
  O  O25  1  0.20957200  0.00000000  0.99849200  1
  O  O26  1  0.20957200  0.20957200  0.99849200  1
  O  O27  1  0.33455700  0.16727900  0.49944900  1
loop_
_geom_bond_atom_site_label_1
_geom_bond_atom_site_label_2
_geom_bond_distance
_geom_bond_site_symmetry_2
La0 O23 1.951263 1_555
La0 O23 1.951560 1_556
La0 O18 2.733638 1_445
La0 O26 2.733638 1_555
La0 O19 2.733638 1_455
La0 O22 2.733638 1_545
La0 O24 2.733638 1_555
La0 O25 2.733638 1_555
O0 W7 1.914411 1_556
O0 W0 1.939141 1_655
O1 W6 1.914423 1_556
O1 W0 1.939141 1_655
O2 W0 1.949761 1_555
O2 W0 1.953062 1_554
O3 W1 1.914411 1_556
O3 W0 1.939141 1_555
O4 W2 1.914423 1_556
O4 W0 1.939141 1_555
O5 W1 1.944174 1_555
O5 W1 1.958856 1_556
O6 W2 1.944174 1_555
O6 W2 1.958856 1_556
O7 W2 1.914414 1_556
O7 W3 1.939141 1_555
O8 W1 1.914411 1_556
O8 W4 1.939141 1_565
O9 W8 1.914414 1_556
O9 W3 1.939141 1_555
O10 W8 1.914423 1_556
O10 W4 1.939141 1_555
O11 W3 1.949761 1_555
O11 W3 1.953062 1_554
O12 W4 1.949761 1_555
O12 W4 1.953062 1_554
O13 W5 1.914423 1_556
O13 W4 1.939141 1_565
O14 W5 1.914414 1_556
O14 W3 1.939141 1_555
O15 W5 1.944174 1_555
O15 W5 1.958856 1_556
O16 W6 1.914414 1_556
O16 W3 1.939141 1_555
O17 W7 1.914411 1_556
O17 W4 1.939141 1_555
O18 W6 1.978877 1_556
O18 W5 1.978877 1_556
O19 W5 1.978886 1_546
O19 W7 1.978890 1_556
O20 W6 1.944174 1_555
O20 W6 1.958856 1_556
O21 W7 1.944174 1_555
O21 W7 1.958856 1_556
O22 W6 1.978886 1_456
O22 W1 1.978890 1_556
O24 W2 1.978886 1_556
O24 W7 1.978890 1_456
O25 W8 1.978886 1_556
O25 W1 1.978890 1_546
O26 W2 1.978877 1_556
O26 W8 1.978877 1_556
O27 W8 1.944174 1_555
O27 W8 1.958856 1_556
