# generated using pymatgen
data_Zr2N2O
_symmetry_space_group_name_H-M   'P 1'
_cell_length_a   3.15170100
_cell_length_b   8.55525200
_cell_length_c   8.60528800
_cell_angle_alpha   90.00000000
_cell_angle_beta   90.00000000
_cell_angle_gamma   90.00000000
_symmetry_Int_Tables_number   1
_chemical_formula_structural   Zr2N2O
_chemical_formula_sum   'Zr8 N8 O4'
_cell_volume   232.02951154
_cell_formula_units_Z   4
loop_
 _symmetry_equiv_pos_site_id
 _symmetry_equiv_pos_as_xyz
  1  'x, y, z'
loop_
 _atom_site_type_symbol
 _atom_site_label
 _atom_site_symmetry_multiplicity
 _atom_site_fract_x
 _atom_site_fract_y
 _atom_site_fract_z
 _atom_site_occupancy
  Zr  Zr0  1  0.25000000  0.00129200  0.18177600  1
  Zr  Zr1  1  0.75000000  0.17875700  0.49469600  1
  Zr  Zr2  1  0.75000000  0.32124400  0.99469600  1
  Zr  Zr3  1  0.25000000  0.49870800  0.68177600  1
  Zr  Zr4  1  0.75000000  0.50129200  0.31822400  1
  Zr  Zr5  1  0.25000000  0.67875600  0.00530400  1
  Zr  Zr6  1  0.25000000  0.82124400  0.50530400  1
  Zr  Zr7  1  0.75000000  0.99870800  0.81822400  1
  N  N0  1  0.25000000  0.05551600  0.62433100  1
  N  N1  1  0.25000000  0.13301700  0.95235500  1
  N  N2  1  0.25000000  0.36698300  0.45235500  1
  N  N3  1  0.25000000  0.44448400  0.12433100  1
  N  N4  1  0.75000000  0.55551600  0.87566900  1
  N  N5  1  0.75000000  0.63301700  0.54764500  1
  N  N6  1  0.75000000  0.86698300  0.04764500  1
  N  N7  1  0.75000000  0.94448400  0.37566900  1
  O  O0  1  0.75000000  0.19006300  0.22627000  1
  O  O1  1  0.75000000  0.30993700  0.72627000  1
  O  O2  1  0.25000000  0.69006300  0.27373000  1
  O  O3  1  0.25000000  0.80993700  0.77373000  1
loop_
_geom_bond_atom_site_label_1
_geom_bond_atom_site_label_2
_geom_bond_distance
_geom_bond_site_symmetry_2
N0 Zr1 2.199868 1_555
N0 Zr1 2.199868 1_455
N0 Zr6 2.250812 1_545
N0 Zr7 2.345936 1_445
N0 Zr7 2.345936 1_545
N1 Zr7 2.266247 1_445
N1 Zr7 2.266247 1_545
N1 Zr0 2.273234 1_556
N1 Zr2 2.282372 1_555
N1 Zr2 2.282372 1_455
N2 Zr4 2.266247 1_455
N2 Zr4 2.266247 1_555
N2 Zr3 2.273234 1_555
N2 Zr1 2.282366 1_555
N2 Zr1 2.282366 1_455
N3 Zr2 2.199864 1_454
N3 Zr2 2.199864 1_554
N3 Zr5 2.250812 1_555
N3 Zr4 2.345936 1_455
N3 Zr4 2.345936 1_555
N4 Zr5 2.199864 1_656
N4 Zr5 2.199864 1_556
N4 Zr2 2.250812 1_555
N4 Zr3 2.345936 1_655
N4 Zr3 2.345936 1_555
N5 Zr3 2.266247 1_655
N5 Zr3 2.266247 1_555
N5 Zr4 2.273234 1_555
N5 Zr6 2.282372 1_655
N5 Zr6 2.282372 1_555
N6 Zr0 2.266247 1_565
N6 Zr0 2.266247 1_665
N6 Zr7 2.273234 1_554
N6 Zr5 2.282372 1_555
N6 Zr5 2.282372 1_655
N7 Zr6 2.199864 1_655
N7 Zr6 2.199864 1_555
N7 Zr1 2.250819 1_565
N7 Zr0 2.345936 1_565
N7 Zr0 2.345936 1_665
O0 Zr2 2.287056 1_554
O0 Zr0 2.288684 1_555
O0 Zr0 2.288684 1_655
O0 Zr1 2.311907 1_555
O0 Zr4 2.777734 1_555
O1 Zr1 2.287051 1_555
O1 Zr3 2.288684 1_555
O1 Zr3 2.288684 1_655
O1 Zr2 2.311908 1_555
O1 Zr7 2.777734 1_545
O2 Zr6 2.287056 1_555
O2 Zr4 2.288684 1_455
O2 Zr4 2.288684 1_555
O2 Zr5 2.311908 1_555
O2 Zr0 2.777734 1_565
O3 Zr5 2.287056 1_556
O3 Zr7 2.288684 1_555
O3 Zr7 2.288684 1_455
O3 Zr6 2.311908 1_555
O3 Zr3 2.777734 1_555
