# generated using pymatgen
data_Ni(IO3)2
_symmetry_space_group_name_H-M   'P 1'
_cell_length_a   5.43522900
_cell_length_b   5.61410100
_cell_length_c   17.86165800
_cell_angle_alpha   90.00000000
_cell_angle_beta   90.00000000
_cell_angle_gamma   90.00000000
_symmetry_Int_Tables_number   1
_chemical_formula_structural   Ni(IO3)2
_chemical_formula_sum   'Ni4 I8 O24'
_cell_volume   545.02928480
_cell_formula_units_Z   4
loop_
 _symmetry_equiv_pos_site_id
 _symmetry_equiv_pos_as_xyz
  1  'x, y, z'
loop_
 _atom_site_type_symbol
 _atom_site_label
 _atom_site_symmetry_multiplicity
 _atom_site_fract_x
 _atom_site_fract_y
 _atom_site_fract_z
 _atom_site_occupancy
  Ni  Ni0  1  0.72062900  0.16695300  0.10706300  1
  Ni  Ni1  1  0.22062900  0.33304700  0.89293700  1
  Ni  Ni2  1  0.27937100  0.66695300  0.39293700  1
  Ni  Ni3  1  0.77937100  0.83304700  0.60706300  1
  I  I0  1  0.99091700  0.14592900  0.42372500  1
  I  I1  1  0.25763700  0.23495700  0.20271500  1
  I  I2  1  0.75763700  0.26504300  0.79728500  1
  I  I3  1  0.49091700  0.35407100  0.57627500  1
  I  I4  1  0.00908300  0.64592900  0.07627500  1
  I  I5  1  0.74236300  0.73495700  0.29728500  1
  I  I6  1  0.24236300  0.76504300  0.70271500  1
  I  I7  1  0.50908300  0.85407100  0.92372500  1
  O  O0  1  0.08649900  0.02187200  0.33004300  1
  O  O1  1  0.03517200  0.03233600  0.15556700  1
  O  O2  1  0.52061800  0.02376100  0.19992400  1
  O  O3  1  0.39463900  0.12029200  0.97217000  1
  O  O4  1  0.89117800  0.11328700  0.88028800  1
  O  O5  1  0.76226700  0.16104600  0.55322300  1
  O  O6  1  0.26226700  0.33895400  0.44677700  1
  O  O7  1  0.39117800  0.38671300  0.11971200  1
  O  O8  1  0.89463900  0.37970800  0.02783000  1
  O  O9  1  0.02061800  0.47623900  0.80007600  1
  O  O10  1  0.53517200  0.46766400  0.84443300  1
  O  O11  1  0.58649900  0.47812800  0.66995700  1
  O  O12  1  0.91350100  0.52187200  0.16995700  1
  O  O13  1  0.96482800  0.53233600  0.34443300  1
  O  O14  1  0.47938200  0.52376100  0.30007600  1
  O  O15  1  0.60536100  0.62029200  0.52783000  1
  O  O16  1  0.10882200  0.61328700  0.61971200  1
  O  O17  1  0.23773300  0.66104600  0.94677700  1
  O  O18  1  0.73773300  0.83895400  0.05322300  1
  O  O19  1  0.60882200  0.88671300  0.38028800  1
  O  O20  1  0.10536100  0.87970800  0.47217000  1
  O  O21  1  0.97938200  0.97623900  0.69992400  1
  O  O22  1  0.46482800  0.96766400  0.65556700  1
  O  O23  1  0.41350100  0.97812800  0.83004300  1
loop_
_geom_bond_atom_site_label_1
_geom_bond_atom_site_label_2
_geom_bond_distance
_geom_bond_site_symmetry_2
Ni0 O1 2.060224 1_655
Ni0 O8 2.079435 1_555
Ni0 O18 2.079490 1_545
Ni0 O2 2.139899 1_555
Ni0 O7 2.186228 1_555
Ni0 O12 2.516189 1_555
Ni1 O10 2.060224 1_555
Ni1 O3 2.079435 1_555
Ni1 O17 2.079490 1_555
Ni1 O9 2.139899 1_555
Ni1 O4 2.186228 1_455
Ni1 O23 2.516189 1_545
Ni2 O13 2.060224 1_455
Ni2 O20 2.079435 1_555
Ni2 O6 2.079490 1_555
Ni2 O14 2.139899 1_555
Ni2 O19 2.186228 1_555
Ni2 O0 2.516189 1_565
Ni3 O22 2.060224 1_555
Ni3 O15 2.079435 1_555
Ni3 O5 2.079490 1_565
Ni3 O21 2.139899 1_555
Ni3 O16 2.186228 1_655
Ni3 O11 2.516189 1_555
I0 O20 1.835615 1_645
I0 O6 1.875910 1_655
I0 O0 1.885456 1_655
I0 O5 2.627140 1_555
I1 O7 1.857606 1_555
I1 O2 1.857791 1_555
I1 O1 1.861512 1_555
I1 O14 2.665646 1_555
I2 O4 1.857606 1_555
I2 O9 1.857791 1_655
I2 O10 1.861512 1_555
I2 O21 2.665646 1_545
I3 O15 1.835615 1_555
I3 O5 1.875910 1_555
I3 O11 1.885456 1_555
I3 O6 2.627140 1_555
I4 O8 1.835615 1_455
I4 O18 1.875910 1_455
I4 O12 1.885456 1_455
I4 O17 2.627140 1_554
I5 O19 1.857606 1_555
I5 O14 1.857791 1_555
I5 O13 1.861512 1_555
I5 O2 2.665646 1_565
I6 O16 1.857606 1_555
I6 O21 1.857791 1_455
I6 O22 1.861512 1_555
I6 O9 2.665646 1_555
I7 O3 1.835615 1_565
I7 O17 1.875910 1_555
I7 O23 1.885456 1_555
I7 O18 2.627140 1_556
