# generated using pymatgen
data_Li3VO3F
_symmetry_space_group_name_H-M   'P 1'
_cell_length_a   7.22962853
_cell_length_b   7.20149907
_cell_length_c   7.23562196
_cell_angle_alpha   109.81070462
_cell_angle_beta   109.72726527
_cell_angle_gamma   108.95362364
_symmetry_Int_Tables_number   1
_chemical_formula_structural   Li3VO3F
_chemical_formula_sum   'Li12 V4 O12 F4'
_cell_volume   289.70258020
_cell_formula_units_Z   4
loop_
 _symmetry_equiv_pos_site_id
 _symmetry_equiv_pos_as_xyz
  1  'x, y, z'
loop_
 _atom_site_type_symbol
 _atom_site_label
 _atom_site_symmetry_multiplicity
 _atom_site_fract_x
 _atom_site_fract_y
 _atom_site_fract_z
 _atom_site_occupancy
  Li  Li0  1  0.98428200  0.49932600  0.24417700  1
  Li  Li1  1  0.51616400  0.00693100  0.26418100  1
  Li  Li2  1  0.75326100  0.26481500  0.75792300  1
  Li  Li3  1  0.75159800  0.48567600  0.48200300  1
  Li  Li4  1  0.73630500  0.72948000  0.23997900  1
  Li  Li5  1  0.25612900  0.50120800  0.99667400  1
  Li  Li6  1  0.48857400  0.48144200  0.75866000  1
  Li  Li7  1  0.50870300  0.26112700  0.00269500  1
  Li  Li8  1  0.00075600  0.25224200  0.50400100  1
  Li  Li9  1  0.50690400  0.74228100  0.50437600  1
  Li  Li10  1  0.26203200  0.00445700  0.51377900  1
  Li  Li11  1  0.24655800  0.73630400  0.74045500  1
  V  V0  1  0.74128200  0.01936200  0.00017400  1
  V  V1  1  0.25680600  0.27623200  0.25696900  1
  V  V2  1  0.97691900  0.73289800  0.97654600  1
  V  V3  1  0.00002300  0.02094800  0.74055000  1
  O  O0  1  0.75556200  0.23139500  0.24175100  1
  O  O1  1  0.76228700  0.52078900  0.99969100  1
  O  O2  1  0.22244300  0.00693300  0.99824400  1
  O  O3  1  0.99884000  0.24433500  0.00041000  1
  O  O4  1  0.99675600  0.99528300  0.21863700  1
  O  O5  1  0.48507800  0.47923600  0.24858300  1
  O  O6  1  0.51832500  0.98778200  0.76507400  1
  O  O7  1  0.00570500  0.53057200  0.77416800  1
  O  O8  1  0.24688900  0.47055300  0.48109000  1
  O  O9  1  0.76597900  0.99157000  0.51983200  1
  O  O10  1  0.23784500  0.23129500  0.75109800  1
  O  O11  1  0.76721500  0.77067500  0.76512900  1
  F  F0  1  0.49393100  0.24381900  0.49100700  1
  F  F1  1  0.24667500  0.76251700  0.25035100  1
  F  F2  1  0.50230200  0.76024700  0.00615900  1
  F  F3  1  0.00787400  0.75827400  0.50563600  1
loop_
_geom_bond_atom_site_label_1
_geom_bond_atom_site_label_2
_geom_bond_distance
_geom_bond_site_symmetry_2
Li0 O1 2.039345 1_554
Li0 O0 2.083844 1_555
Li0 O3 2.132980 1_555
Li0 O8 2.210247 1_655
Li1 O0 2.045702 1_555
Li1 O9 2.170019 1_545
Li1 O2 2.335259 1_554
Li2 O1 2.030160 1_555
Li2 O7 2.107418 1_655
Li2 O3 2.120124 1_556
Li2 O9 2.185193 1_545
Li2 O6 2.189946 1_545
Li3 O5 2.063805 1_555
Li3 O0 2.070279 1_555
Li3 O7 2.116018 1_655
Li3 O11 2.294614 1_555
Li4 O1 1.987339 1_554
Li4 O9 2.135845 1_555
Li4 O5 2.139283 1_555
Li4 O4 2.299728 1_555
Li5 O10 2.070383 1_555
Li5 O5 2.101423 1_556
Li5 O7 2.103866 1_555
Li5 O3 2.171478 1_456
Li6 O1 2.002164 1_555
Li6 O10 2.068563 1_555
Li6 O8 2.127913 1_555
Li6 O11 2.354430 1_555
Li7 O5 2.036393 1_555
Li7 O10 2.061514 1_554
Li7 O0 2.153645 1_555
Li7 O1 2.164653 1_554
Li7 O6 2.170601 1_544
Li7 O2 2.255910 1_554
Li8 O0 2.031937 1_455
Li8 O8 2.055262 1_555
Li8 O10 2.106962 1_555
Li8 O9 2.150644 1_445
Li8 O4 2.241323 1_445
Li8 O7 2.256219 1_555
Li9 O6 2.056752 1_555
Li9 O11 2.057843 1_555
Li9 O5 2.066653 1_555
Li9 O9 2.069255 1_555
Li9 O8 2.136459 1_555
Li10 O10 2.033382 1_555
Li10 O6 2.184471 1_545
Li10 O4 2.302210 1_445
Li11 O7 2.035306 1_555
Li11 O6 2.098919 1_555
Li11 O8 2.180843 1_555
Li11 O2 2.298721 1_565
O0 V0 1.834183 1_555
O1 V2 1.891617 1_555
O2 V1 2.059008 1_556
O2 V3 2.069164 1_555
O2 V2 2.096733 1_445
O3 V1 2.018047 1_655
O3 V3 2.023091 1_654
O3 V0 2.031834 1_555
O4 V2 2.017480 1_554
O4 V0 2.088773 1_565
O4 V1 2.121729 1_665
O5 V1 1.850661 1_555
O6 V0 1.786676 1_566
O7 V2 1.807502 1_455
O8 V1 1.788483 1_555
O9 V3 1.781146 1_665
O10 V3 1.843323 1_555
O11 V2 1.922748 1_555
O11 V0 2.122205 1_566
O11 V3 2.135807 1_665
F0 Li1 2.021912 1_555
F0 Li10 2.076291 1_555
F0 V1 2.104543 1_555
F0 Li2 2.107455 1_555
F0 Li6 2.127848 1_555
F0 Li3 2.135228 1_555
F1 Li10 2.039986 1_565
F1 Li1 2.103645 1_565
F1 V2 2.146827 1_454
F1 Li5 2.177607 1_554
F1 Li0 2.177791 1_455
F1 Li9 2.228075 1_555
F2 Li1 2.039955 1_565
F2 Li11 2.076763 1_554
F2 Li5 2.079951 1_554
F2 Li4 2.082979 1_555
F2 V0 2.116585 1_565
F2 Li6 2.135773 1_554
F3 Li10 2.064661 1_565
F3 Li11 2.066352 1_555
F3 Li0 2.066362 1_455
F3 V3 2.103839 1_565
F3 Li4 2.123718 1_455
F3 Li3 2.124069 1_455
