# generated using pymatgen
data_K2CoPCO7
_symmetry_space_group_name_H-M   'P 1'
_cell_length_a   6.96193300
_cell_length_b   5.53644600
_cell_length_c   9.50697599
_cell_angle_alpha   89.40304968
_cell_angle_beta   90.00000000
_cell_angle_gamma   90.00000000
_symmetry_Int_Tables_number   1
_chemical_formula_structural   K2CoPCO7
_chemical_formula_sum   'K4 Co2 P2 C2 O14'
_cell_volume   366.42047465
_cell_formula_units_Z   2
loop_
 _symmetry_equiv_pos_site_id
 _symmetry_equiv_pos_as_xyz
  1  'x, y, z'
loop_
 _atom_site_type_symbol
 _atom_site_label
 _atom_site_symmetry_multiplicity
 _atom_site_fract_x
 _atom_site_fract_y
 _atom_site_fract_z
 _atom_site_occupancy
  K  K0  1  0.47944800  0.24336800  0.75472300  1
  K  K1  1  0.02055200  0.24336800  0.75472300  1
  K  K2  1  0.52055200  0.75663200  0.24527700  1
  K  K3  1  0.97944800  0.75663200  0.24527700  1
  Co  Co0  1  0.75000000  0.76942900  0.63670100  1
  Co  Co1  1  0.25000000  0.23057100  0.36329900  1
  P  P0  1  0.25000000  0.72218800  0.56781200  1
  P  P1  1  0.75000000  0.27781200  0.43218800  1
  C  C0  1  0.75000000  0.72767300  0.90073600  1
  C  C1  1  0.25000000  0.27232700  0.09926400  1
  O  O0  1  0.25000000  0.28250700  0.96749000  1
  O  O1  1  0.75000000  0.93218700  0.82823300  1
  O  O2  1  0.75000000  0.54007900  0.81827400  1
  O  O3  1  0.06676000  0.75565700  0.65663200  1
  O  O4  1  0.43324000  0.75565700  0.65663200  1
  O  O5  1  0.75000000  0.10842800  0.56367800  1
  O  O6  1  0.25000000  0.45146200  0.51219400  1
  O  O7  1  0.75000000  0.54853800  0.48780600  1
  O  O8  1  0.25000000  0.89157200  0.43632200  1
  O  O9  1  0.56676000  0.24434300  0.34336800  1
  O  O10  1  0.93324000  0.24434300  0.34336800  1
  O  O11  1  0.25000000  0.45992100  0.18172600  1
  O  O12  1  0.25000000  0.06781300  0.17176700  1
  O  O13  1  0.75000000  0.71749300  0.03251000  1
loop_
_geom_bond_atom_site_label_1
_geom_bond_atom_site_label_2
_geom_bond_distance
_geom_bond_site_symmetry_2
K0 O2 2.575281 1_555
K0 O0 2.588316 1_555
K0 O1 2.641836 1_545
K0 O5 2.726359 1_555
K0 O4 2.883853 1_545
K0 O4 2.993726 1_555
K0 O6 3.023245 1_555
K1 O2 2.575281 1_455
K1 O0 2.588316 1_555
K1 O1 2.641836 1_445
K1 O5 2.726359 1_455
K1 O3 2.883853 1_545
K1 O3 2.993726 1_555
K1 O6 3.023245 1_555
K2 O11 2.575281 1_555
K2 O13 2.588316 1_555
K2 O12 2.641836 1_565
K2 O8 2.726359 1_555
K2 O9 2.883853 1_565
K2 O9 2.993726 1_555
K2 O7 3.023245 1_555
K3 O11 2.575281 1_655
K3 O13 2.588316 1_555
K3 O12 2.641836 1_665
K3 O8 2.726359 1_655
K3 O10 2.883853 1_565
K3 O10 2.993726 1_555
K3 O7 3.023245 1_555
Co0 O7 1.880276 1_555
Co0 O5 1.994334 1_565
Co0 O1 2.040052 1_555
Co0 O2 2.132248 1_555
Co0 O3 2.214632 1_655
Co0 O4 2.214632 1_555
Co1 O6 1.880276 1_555
Co1 O8 1.994334 1_545
Co1 O12 2.040052 1_555
Co1 O11 2.132248 1_555
Co1 O9 2.214632 1_555
Co1 O10 2.214632 1_455
C0 O13 1.253453 1_556
C0 O2 1.307771 1_555
C0 O1 1.319435 1_555
C1 O0 1.253453 1_554
C1 O11 1.307771 1_555
C1 O12 1.319435 1_555
O3 P0 1.542091 1_555
O4 P0 1.542091 1_555
O5 P1 1.554894 1_555
O6 P0 1.594579 1_555
O7 P1 1.594579 1_555
O8 P0 1.554894 1_555
O9 P1 1.542091 1_555
O10 P1 1.542091 1_555
