# generated using pymatgen
data_Zr2N2O
_symmetry_space_group_name_H-M   'P 1'
_cell_length_a   8.79577760
_cell_length_b   8.77763407
_cell_length_c   8.79404186
_cell_angle_alpha   109.54814766
_cell_angle_beta   109.41682018
_cell_angle_gamma   109.42006220
_symmetry_Int_Tables_number   1
_chemical_formula_structural   Zr2N2O
_chemical_formula_sum   'Zr16 N16 O8'
_cell_volume   522.84283110
_cell_formula_units_Z   8
loop_
 _symmetry_equiv_pos_site_id
 _symmetry_equiv_pos_as_xyz
  1  'x, y, z'
loop_
 _atom_site_type_symbol
 _atom_site_label
 _atom_site_symmetry_multiplicity
 _atom_site_fract_x
 _atom_site_fract_y
 _atom_site_fract_z
 _atom_site_occupancy
  Zr  Zr0  1  0.49892399  0.99641103  0.99848809  1
  Zr  Zr1  1  0.95688899  0.24761372  0.21772283  1
  Zr  Zr2  1  0.77878502  0.03032513  0.75322180  1
  Zr  Zr3  1  0.70910650  0.46860938  0.25243318  1
  Zr  Zr4  1  0.75635301  0.28681609  0.53890721  1
  Zr  Zr5  1  0.75066595  0.77920887  0.03117648  1
  Zr  Zr6  1  0.46531216  0.25057901  0.71313328  1
  Zr  Zr7  1  0.01005151  0.99851947  0.50987373  1
  Zr  Zr8  1  0.49099650  0.50566894  0.50219617  1
  Zr  Zr9  1  0.99779517  0.50459842  0.98887039  1
  Zr  Zr10  1  0.53190416  0.74256933  0.28547254  1
  Zr  Zr11  1  0.25395682  0.71871742  0.46596670  1
  Zr  Zr12  1  0.24646784  0.21559641  0.96481069  1
  Zr  Zr13  1  0.21458006  0.95531602  0.24327946  1
  Zr  Zr14  1  0.28091812  0.52986794  0.74164452  1
  Zr  Zr15  1  0.04547803  0.76158305  0.79178342  1
  N  N0  1  0.74063083  0.23075016  0.27460150  1
  N  N1  1  0.27838448  0.01609674  0.04875870  1
  N  N2  1  0.77390451  0.72665009  0.26022240  1
  N  N3  1  0.45657809  0.46457831  0.22806754  1
  N  N4  1  0.72617260  0.25772621  0.77285256  1
  N  N5  1  0.22558634  0.45090783  0.46233424  1
  N  N6  1  0.27191568  0.73539095  0.22167935  1
  N  N7  1  0.98273881  0.95243166  0.72461058  1
  N  N8  1  0.95879415  0.73074009  0.99374885  1
  N  N9  1  0.54431676  0.53449184  0.77150012  1
  N  N10  1  0.53332957  0.77238376  0.54211502  1
  N  N11  1  0.22798264  0.27156103  0.74319920  1
  N  N12  1  0.02857635  0.48580477  0.75655597  1
  N  N13  1  0.73119814  0.98890888  0.95890934  1
  N  N14  1  0.23901845  0.96945234  0.50830939  1
  N  N15  1  0.26620683  0.77641385  0.73044128  1
  O  O0  1  0.76065566  0.03478162  0.48501727  1
  O  O1  1  0.96432068  0.50641509  0.23444951  1
  O  O2  1  0.47036742  0.23142952  0.45766309  1
  O  O3  1  0.04714763  0.27526727  0.01570875  1
  O  O4  1  0.48934594  0.76499761  0.03556264  1
  O  O5  1  0.01177065  0.04866679  0.27555819  1
  O  O6  1  0.76973689  0.54232415  0.53195233  1
  O  O7  1  0.51313607  0.23983122  0.96720270  1
loop_
_geom_bond_atom_site_label_1
_geom_bond_atom_site_label_2
_geom_bond_distance
_geom_bond_site_symmetry_2
N0 Zr1 2.094092 1_555
N0 Zr4 2.153909 1_555
N0 Zr0 2.228047 1_544
N0 Zr3 2.257295 1_555
N1 Zr13 2.139100 1_545
N1 Zr0 2.174885 1_544
N1 Zr12 2.178190 1_554
N1 Zr15 2.189664 1_544
N2 Zr3 2.114586 1_555
N2 Zr5 2.173154 1_555
N2 Zr7 2.234944 1_655
N2 Zr10 2.256318 1_555
N3 Zr10 2.127473 1_555
N3 Zr3 2.146403 1_555
N3 Zr12 2.152909 1_554
N3 Zr8 2.212127 1_555
N4 Zr6 2.150673 1_555
N4 Zr2 2.159841 1_555
N4 Zr9 2.190284 1_555
N4 Zr4 2.244512 1_555
N5 Zr8 2.097788 1_555
N5 Zr14 2.142921 1_555
N5 Zr1 2.154949 1_455
N5 Zr11 2.267953 1_555
N6 Zr13 2.117222 1_555
N6 Zr10 2.139091 1_555
N6 Zr9 2.191639 1_454
N6 Zr11 2.254351 1_555
N7 Zr15 2.126027 1_655
N7 Zr7 2.129711 1_655
N7 Zr2 2.179355 1_565
N7 Zr12 2.256648 1_665
N8 Zr9 2.113128 1_555
N8 Zr5 2.113156 1_556
N8 Zr13 2.153249 1_656
N8 Zr15 2.212241 1_655
N9 Zr5 2.119492 1_556
N9 Zr8 2.162018 1_555
N9 Zr6 2.170735 1_555
N9 Zr14 2.228011 1_555
N10 Zr2 2.122650 1_565
N10 Zr8 2.127482 1_555
N10 Zr11 2.152612 1_555
N10 Zr10 2.178556 1_555
N11 Zr12 2.132815 1_555
N11 Zr7 2.160467 1_545
N11 Zr14 2.163492 1_555
N11 Zr6 2.247558 1_555
N12 Zr4 2.093340 1_455
N12 Zr9 2.108607 1_455
N12 Zr14 2.179393 1_555
N12 Zr15 2.281667 1_555
N13 Zr2 2.102723 1_565
N13 Zr5 2.177459 1_556
N13 Zr1 2.194816 1_566
N13 Zr0 2.201448 1_555
N14 Zr7 2.116368 1_555
N14 Zr6 2.161276 1_565
N14 Zr11 2.162432 1_555
N14 Zr13 2.224708 1_555
N15 Zr0 2.143050 1_555
N15 Zr15 2.156980 1_555
N15 Zr11 2.164787 1_555
N15 Zr14 2.242800 1_555
O0 Zr4 2.118053 1_555
O0 Zr10 2.217023 1_545
O0 Zr7 2.270058 1_645
O0 Zr2 2.325035 1_555
O1 Zr1 2.204000 1_555
O1 Zr3 2.224879 1_555
O1 Zr11 2.227888 1_655
O1 Zr9 2.270201 1_554
O2 Zr4 2.198588 1_555
O2 Zr6 2.212734 1_555
O2 Zr13 2.232983 1_545
O2 Zr8 2.238799 1_555
O3 Zr12 2.126920 1_554
O3 Zr1 2.223367 1_455
O3 Zr9 2.264320 1_454
O3 Zr2 2.281224 1_454
O4 Zr0 2.141746 1_554
O4 Zr10 2.190983 1_555
O4 Zr14 2.250522 1_554
O4 Zr5 2.274140 1_555
O5 Zr1 2.129061 1_455
O5 Zr7 2.250164 1_545
O5 Zr13 2.255481 1_545
O5 Zr5 2.278582 1_445
O6 Zr3 2.140080 1_555
O6 Zr4 2.229028 1_555
O6 Zr15 2.252979 1_655
O6 Zr8 2.274984 1_555
O7 Zr6 2.172668 1_555
O7 Zr3 2.179042 1_556
O7 Zr0 2.212520 1_545
O7 Zr12 2.275900 1_555
