# generated using pymatgen
data_LiSn2(SO4)3
_symmetry_space_group_name_H-M   'P 1'
_cell_length_a   9.36301921
_cell_length_b   9.36301921
_cell_length_c   9.36301883
_cell_angle_alpha   58.90640322
_cell_angle_beta   58.90640322
_cell_angle_gamma   58.90640890
_symmetry_Int_Tables_number   1
_chemical_formula_structural   LiSn2(SO4)3
_chemical_formula_sum   'Li2 Sn4 S6 O24'
_cell_volume   565.92073466
_cell_formula_units_Z   2
loop_
 _symmetry_equiv_pos_site_id
 _symmetry_equiv_pos_as_xyz
  1  'x, y, z'
loop_
 _atom_site_type_symbol
 _atom_site_label
 _atom_site_symmetry_multiplicity
 _atom_site_fract_x
 _atom_site_fract_y
 _atom_site_fract_z
 _atom_site_occupancy
  Li  Li0  1  0.00000000  0.00000000  0.00000000  1
  Li  Li1  1  0.50000000  0.50000000  0.50000000  1
  Sn  Sn0  1  0.35305500  0.35305500  0.35305500  1
  Sn  Sn1  1  0.14694500  0.14694500  0.14694500  1
  Sn  Sn2  1  0.64694500  0.64694500  0.64694500  1
  Sn  Sn3  1  0.85305500  0.85305500  0.85305500  1
  S  S0  1  0.75000000  0.06316400  0.43683600  1
  S  S1  1  0.93683600  0.56316400  0.25000000  1
  S  S2  1  0.56316400  0.25000000  0.93683600  1
  S  S3  1  0.43683600  0.75000000  0.06316400  1
  S  S4  1  0.06316400  0.43683600  0.75000000  1
  S  S5  1  0.25000000  0.93683600  0.56316400  1
  O  O0  1  0.89320000  0.07285100  0.25707700  1
  O  O1  1  0.74292300  0.10680000  0.92714900  1
  O  O2  1  0.93146800  0.48285200  0.67730000  1
  O  O3  1  0.01714800  0.56853200  0.82270000  1
  O  O4  1  0.60680000  0.24292300  0.42714900  1
  O  O5  1  0.75707700  0.57285100  0.39320000  1
  O  O6  1  0.92714900  0.74292300  0.10680000  1
  O  O7  1  0.17730000  0.98285200  0.43146800  1
  O  O8  1  0.51714800  0.32270000  0.06853200  1
  O  O9  1  0.32270000  0.06853200  0.51714800  1
  O  O10  1  0.43146800  0.17730000  0.98285200  1
  O  O11  1  0.57285100  0.39320000  0.75707700  1
  O  O12  1  0.42714900  0.60680000  0.24292300  1
  O  O13  1  0.67730000  0.93146800  0.48285200  1
  O  O14  1  0.56853200  0.82270000  0.01714800  1
  O  O15  1  0.82270000  0.01714800  0.56853200  1
  O  O16  1  0.48285200  0.67730000  0.93146800  1
  O  O17  1  0.07285100  0.25707700  0.89320000  1
  O  O18  1  0.24292300  0.42714900  0.60680000  1
  O  O19  1  0.39320000  0.75707700  0.57285100  1
  O  O20  1  0.06853200  0.51714800  0.32270000  1
  O  O21  1  0.98285200  0.43146800  0.17730000  1
  O  O22  1  0.25707700  0.89320000  0.07285100  1
  O  O23  1  0.10680000  0.92714900  0.74292300  1
loop_
_geom_bond_atom_site_label_1
_geom_bond_atom_site_label_2
_geom_bond_distance
_geom_bond_site_symmetry_2
Li0 O23 2.400869 1_544
Li0 O0 2.400869 1_455
Li0 O6 2.400869 1_445
Li0 O17 2.400869 1_554
Li0 O22 2.400869 1_545
Li0 O1 2.400869 1_454
Li1 O12 2.400869 1_555
Li1 O11 2.400869 1_555
Li1 O5 2.400869 1_555
Li1 O18 2.400869 1_555
Li1 O19 2.400869 1_555
Li1 O4 2.400869 1_555
O0 S0 1.508575 1_555
O0 Sn1 2.371119 1_655
O1 S2 1.508575 1_555
O1 Sn3 2.371119 1_545
O2 S4 1.478081 1_655
O2 Sn2 2.375219 1_555
O3 S4 1.478081 1_555
O3 Sn3 2.375219 1_455
O4 S0 1.508575 1_555
O4 Sn0 2.371119 1_555
O5 S1 1.508575 1_555
O5 Sn2 2.371119 1_555
O6 S1 1.508575 1_555
O6 Sn3 2.371119 1_554
O7 S5 1.478081 1_555
O7 Sn1 2.375219 1_565
O8 S2 1.478081 1_554
O8 Sn0 2.375219 1_555
O9 S5 1.478081 1_545
O9 Sn0 2.375219 1_555
O10 S2 1.478081 1_555
O10 Sn1 2.375219 1_556
O11 S2 1.508575 1_555
O11 Sn2 2.371119 1_555
O12 S3 1.508575 1_555
O12 Sn0 2.371119 1_555
O13 S0 1.478081 1_565
O13 Sn2 2.375219 1_555
O14 S3 1.478081 1_555
O14 Sn3 2.375219 1_554
O15 S0 1.478081 1_555
O15 Sn3 2.375219 1_545
O16 S3 1.478081 1_556
O16 Sn2 2.375219 1_555
O17 S4 1.508575 1_555
O17 Sn1 2.371119 1_556
O18 S4 1.508575 1_555
O18 Sn0 2.371119 1_555
O19 S5 1.508575 1_555
O19 Sn2 2.371119 1_555
O20 S1 1.478081 1_455
O20 Sn0 2.375219 1_555
O21 S1 1.478081 1_555
O21 Sn1 2.375219 1_655
O22 S3 1.508575 1_555
O22 Sn1 2.371119 1_565
O23 S5 1.508575 1_555
O23 Sn3 2.371119 1_455
