# generated using pymatgen
data_LaNb3O9
_symmetry_space_group_name_H-M   'P 1'
_cell_length_a   5.62126700
_cell_length_b   8.89025953
_cell_length_c   8.96470070
_cell_angle_alpha   66.60849712
_cell_angle_beta   71.74260244
_cell_angle_gamma   71.60283809
_symmetry_Int_Tables_number   1
_chemical_formula_structural   LaNb3O9
_chemical_formula_sum   'La2 Nb6 O18'
_cell_volume   380.97341541
_cell_formula_units_Z   2
loop_
 _symmetry_equiv_pos_site_id
 _symmetry_equiv_pos_as_xyz
  1  'x, y, z'
loop_
 _atom_site_type_symbol
 _atom_site_label
 _atom_site_symmetry_multiplicity
 _atom_site_fract_x
 _atom_site_fract_y
 _atom_site_fract_z
 _atom_site_occupancy
  La  La0  1  0.67296200  0.65924300  0.00140400  1
  La  La1  1  0.33863000  0.33637600  0.00156800  1
  Nb  Nb0  1  0.41838500  0.91729200  0.25280000  1
  Nb  Nb1  1  0.25767300  0.75783700  0.73577400  1
  Nb  Nb2  1  0.93020400  0.40762800  0.74352100  1
  Nb  Nb3  1  0.07726000  0.58971600  0.26015700  1
  Nb  Nb4  1  0.75033200  0.23980700  0.26766400  1
  Nb  Nb5  1  0.59176800  0.07807100  0.75120600  1
  O  O0  1  0.50039300  0.99932200  0.00007200  1
  O  O1  1  0.90408800  0.90444700  0.77099400  1
  O  O2  1  0.42171200  0.90577400  0.76631100  1
  O  O3  1  0.82252900  0.35157300  0.99835500  1
  O  O4  1  0.17214900  0.65224400  0.00183200  1
  O  O5  1  0.99624400  0.50253300  0.50080900  1
  O  O6  1  0.33196300  0.83317800  0.49778400  1
  O  O7  1  0.57086700  0.57723700  0.77691700  1
  O  O8  1  0.74866600  0.74854700  0.23364400  1
  O  O9  1  0.72986000  0.25344200  0.76727900  1
  O  O10  1  0.26884300  0.74868400  0.23504800  1
  O  O11  1  0.07133300  0.57881800  0.77453000  1
  O  O12  1  0.92486700  0.42485000  0.22508000  1
  O  O13  1  0.66412400  0.16747800  0.50305800  1
  O  O14  1  0.42590300  0.42501000  0.22508500  1
  O  O15  1  0.25109900  0.25297900  0.77058500  1
  O  O16  1  0.57965600  0.09711700  0.23080100  1
  O  O17  1  0.09677600  0.09917200  0.23125100  1
loop_
_geom_bond_atom_site_label_1
_geom_bond_atom_site_label_2
_geom_bond_distance
_geom_bond_site_symmetry_2
La0 O3 2.604360 1_554
La0 O11 2.636813 1_654
La0 O12 2.639505 1_555
La0 O14 2.655369 1_555
La0 O7 2.657748 1_554
La0 O8 2.688283 1_555
La0 O1 2.690261 1_554
La0 O10 2.716768 1_555
La0 O2 2.735607 1_554
La0 O4 2.788230 1_655
La0 O4 2.834232 1_555
La0 O0 2.865205 1_555
La1 O14 2.643916 1_555
La1 O16 2.652894 1_555
La1 O7 2.652987 1_554
La1 O9 2.665233 1_554
La1 O4 2.665820 1_555
La1 O17 2.672629 1_555
La1 O15 2.677173 1_554
La1 O12 2.686975 1_455
La1 O11 2.726634 1_554
La1 O3 2.756439 1_554
La1 O0 2.847880 1_545
La1 O3 2.870116 1_454
Nb0 O6 1.968577 1_555
Nb0 O16 1.992226 1_565
Nb0 O8 1.993424 1_555
Nb0 O17 2.011430 1_565
Nb0 O10 2.011829 1_555
Nb0 O0 2.030588 1_555
Nb1 O6 1.912723 1_555
Nb1 O2 1.965837 1_555
Nb1 O7 1.991452 1_555
Nb1 O1 2.011819 1_455
Nb1 O11 2.033723 1_555
Nb1 O4 2.142375 1_556
Nb2 O15 1.909686 1_655
Nb2 O9 1.945489 1_555
Nb2 O5 1.953941 1_555
Nb2 O3 2.062453 1_555
Nb2 O11 2.063759 1_655
Nb2 O7 2.121423 1_555
Nb3 O5 1.934397 1_455
Nb3 O10 1.940103 1_555
Nb3 O8 1.955628 1_455
Nb3 O14 2.062023 1_555
Nb3 O12 2.075638 1_455
Nb3 O4 2.085066 1_555
Nb4 O13 1.892068 1_555
Nb4 O17 1.962445 1_655
Nb4 O16 1.984603 1_555
Nb4 O12 2.024852 1_555
Nb4 O14 2.055326 1_555
Nb4 O3 2.171765 1_554
Nb5 O1 1.939976 1_545
Nb5 O2 1.989193 1_545
Nb5 O13 1.994764 1_555
Nb5 O0 2.000032 1_546
Nb5 O9 2.016550 1_555
Nb5 O15 2.059562 1_555
