# generated using pymatgen
data_Li5V2OF11
_symmetry_space_group_name_H-M   'P 1'
_cell_length_a   5.58768100
_cell_length_b   8.91008159
_cell_length_c   9.14322296
_cell_angle_alpha   79.91698141
_cell_angle_beta   84.50098263
_cell_angle_gamma   73.04972433
_symmetry_Int_Tables_number   1
_chemical_formula_structural   Li5V2OF11
_chemical_formula_sum   'Li10 V4 O2 F22'
_cell_volume   428.22533167
_cell_formula_units_Z   2
loop_
 _symmetry_equiv_pos_site_id
 _symmetry_equiv_pos_as_xyz
  1  'x, y, z'
loop_
 _atom_site_type_symbol
 _atom_site_label
 _atom_site_symmetry_multiplicity
 _atom_site_fract_x
 _atom_site_fract_y
 _atom_site_fract_z
 _atom_site_occupancy
  Li  Li0  1  0.16380500  0.19126100  0.78072400  1
  Li  Li1  1  0.67297500  0.05704500  0.89704600  1
  Li  Li2  1  0.97414500  0.64022400  0.98616800  1
  Li  Li3  1  0.13237500  0.06192200  0.43601100  1
  Li  Li4  1  0.57762100  0.28413500  0.52765600  1
  Li  Li5  1  0.46433400  0.65722600  0.48151700  1
  Li  Li6  1  0.91234500  0.61187100  0.63489800  1
  Li  Li7  1  0.68276000  0.19075200  0.23413700  1
  Li  Li8  1  0.29131900  0.96081700  0.09787900  1
  Li  Li9  1  0.41658000  0.59379500  0.13053100  1
  V  V0  1  0.60708600  0.43073100  0.86692700  1
  V  V1  1  0.27563600  0.82197000  0.75820800  1
  V  V2  1  0.09986600  0.42873200  0.36372800  1
  V  V3  1  0.77524800  0.81708900  0.25379000  1
  O  O0  1  0.50972900  0.62569600  0.74183500  1
  O  O1  1  0.00549600  0.62537700  0.23837800  1
  F  F0  1  0.29957200  0.47783700  0.98097700  1
  F  F1  1  0.27543600  0.78479100  0.97392400  1
  F  F2  1  0.32927600  0.11368700  0.95068500  1
  F  F3  1  0.00519100  0.02013200  0.77264000  1
  F  F4  1  0.52804100  0.30869700  0.74123300  1
  F  F5  1  0.48824700  0.94470200  0.73529700  1
  F  F6  1  0.93287500  0.40037200  0.76799800  1
  F  F7  1  0.24552100  0.85205200  0.54596600  1
  F  F8  1  0.21619300  0.52821700  0.50466800  1
  F  F9  1  0.00984700  0.72204100  0.77592600  1
  F  F10  1  0.23658300  0.23717600  0.50846700  1
  F  F11  1  0.03728200  0.30246600  0.24832300  1
  F  F12  1  0.99287700  0.94603200  0.23028800  1
  F  F13  1  0.78047700  0.46528900  0.47115800  1
  F  F14  1  0.75665500  0.76964600  0.46420300  1
  F  F15  1  0.79111900  0.13764900  0.43194300  1
  F  F16  1  0.43607200  0.39842200  0.27608200  1
  F  F17  1  0.49899000  0.72270300  0.26108200  1
  F  F18  1  0.49904500  0.01035900  0.25665600  1
  F  F19  1  0.75274200  0.84998800  0.04132500  1
  F  F20  1  0.72376200  0.52658200  0.00689000  1
  F  F21  1  0.72468300  0.23251700  0.00303700  1
loop_
_geom_bond_atom_site_label_1
_geom_bond_atom_site_label_2
_geom_bond_distance
_geom_bond_site_symmetry_2
Li2 O1 2.307157 1_656
Li5 O0 2.376633 1_555
Li6 O0 2.343349 1_555
Li9 O1 2.369371 1_555
O0 V0 1.869310 1_555
O0 V1 1.874049 1_555
O1 V3 1.833314 1_455
O1 V2 1.880296 1_555
F0 V0 1.898790 1_555
F0 Li2 1.968668 1_455
F0 Li9 2.103488 1_556
F1 V1 1.941875 1_555
F1 Li9 2.036914 1_556
F1 Li8 2.115443 1_556
F1 Li2 2.384073 1_455
F2 Li8 1.784202 1_546
F2 Li0 1.809465 1_555
F2 Li1 1.877360 1_555
F3 V1 1.976386 1_545
F3 Li0 1.988940 1_555
F3 Li1 2.053836 1_455
F4 V0 1.874302 1_555
F4 Li4 1.987110 1_555
F4 Li1 2.399350 1_555
F4 Li0 2.517147 1_555
F5 V1 1.811267 1_555
F5 Li1 2.380746 1_565
F5 Li0 2.477542 1_565
F6 V0 1.920465 1_555
F6 Li0 1.923822 1_655
F6 Li6 2.035459 1_555
F7 Li3 1.918693 1_565
F7 V1 1.928770 1_555
F7 Li5 1.959100 1_555
F8 V2 1.940440 1_555
F8 Li6 2.010312 1_455
F8 Li5 2.019022 1_555
F8 Li4 2.492548 1_555
F9 V1 1.923299 1_555
F9 Li2 1.946034 1_455
F9 Li6 1.952629 1_455
F10 V2 1.972469 1_555
F10 Li3 2.045146 1_555
F10 Li4 2.095684 1_555
F10 Li0 2.464911 1_555
F11 V2 1.793651 1_555
F11 Li7 2.485150 1_455
F12 V3 1.876962 1_555
F12 Li8 1.987264 1_655
F12 Li7 2.360187 1_565
F13 V2 1.921715 1_655
F13 Li5 2.077823 1_555
F13 Li4 2.195355 1_555
F13 Li6 2.438701 1_555
F14 V3 1.895583 1_555
F14 Li6 1.986891 1_555
F14 Li5 2.131973 1_555
F15 Li4 1.784521 1_555
F15 Li3 1.829551 1_655
F15 Li7 1.898591 1_555
F16 V2 1.932803 1_555
F16 Li9 1.979724 1_555
F16 Li7 2.032462 1_555
F16 Li4 2.452005 1_555
F17 V3 1.952466 1_555
F17 Li9 1.962115 1_555
F17 Li5 2.004843 1_555
F17 Li8 2.421213 1_555
F18 V3 1.951004 1_545
F18 Li7 2.117860 1_555
F18 Li8 2.120309 1_545
F18 Li3 2.483753 1_555
F19 V3 1.923910 1_555
F19 Li1 2.030658 1_564
F19 Li2 2.034770 1_554
F19 Li8 2.515710 1_555
F20 V0 1.912938 1_554
F20 Li2 1.930435 1_554
F20 Li9 1.961779 1_555
F21 V0 1.951949 1_554
F21 Li1 2.077177 1_554
F21 Li7 2.082968 1_555
