# generated using pymatgen
data_Li4Co5O9F
_symmetry_space_group_name_H-M   'P 1'
_cell_length_a   2.85509341
_cell_length_b   5.04683364
_cell_length_c   12.46252155
_cell_angle_alpha   79.34482613
_cell_angle_beta   96.59502503
_cell_angle_gamma   106.49148633
_symmetry_Int_Tables_number   1
_chemical_formula_structural   Li4Co5O9F
_chemical_formula_sum   'Li4 Co5 O9 F1'
_cell_volume   168.84750025
_cell_formula_units_Z   1
loop_
 _symmetry_equiv_pos_site_id
 _symmetry_equiv_pos_as_xyz
  1  'x, y, z'
loop_
 _atom_site_type_symbol
 _atom_site_label
 _atom_site_symmetry_multiplicity
 _atom_site_fract_x
 _atom_site_fract_y
 _atom_site_fract_z
 _atom_site_occupancy
  Li  Li0  1  0.80325600  0.00696400  0.60303800  1
  Li  Li1  1  0.59077700  0.99860800  0.19791100  1
  Li  Li2  1  0.41474200  0.00086600  0.81839600  1
  Li  Li3  1  0.19304300  0.99854300  0.40237800  1
  Co  Co0  1  0.90092800  0.49821000  0.29875700  1
  Co  Co1  1  0.69767400  0.49746300  0.89708700  1
  Co  Co2  1  0.50339400  0.50284400  0.49863600  1
  Co  Co3  1  0.30968700  0.51738200  0.09952600  1
  Co  Co4  1  0.10408200  0.50701300  0.69810600  1
  O  O0  1  0.86936600  0.28640100  0.44627300  1
  O  O1  1  0.93193800  0.70713900  0.15468300  1
  O  O2  1  0.73579000  0.71446100  0.75422600  1
  O  O3  1  0.53493100  0.71332700  0.35065100  1
  O  O4  1  0.47074200  0.29415300  0.64473500  1
  O  O5  1  0.26667700  0.28346900  0.24583800  1
  O  O6  1  0.06709400  0.29162900  0.84116400  1
  O  O7  1  0.32266700  0.69415500  0.95158100  1
  O  O8  1  0.13828100  0.72055600  0.55006800  1
  F  F0  1  0.65567600  0.25936600  0.05189100  1
loop_
_geom_bond_atom_site_label_1
_geom_bond_atom_site_label_2
_geom_bond_distance
_geom_bond_site_symmetry_2
Li0 O4 2.108346 1_555
Li0 O4 2.117887 1_655
Li0 O8 2.153273 1_545
Li0 O2 2.158661 1_545
Li0 O8 2.173233 1_645
Li0 O0 2.180847 1_555
Li1 O5 2.116507 1_565
Li1 O1 2.117006 1_455
Li1 O5 2.150634 1_665
Li1 O1 2.151717 1_555
Li1 O3 2.155845 1_555
Li2 O7 2.034518 1_545
Li2 O6 2.045417 1_655
Li2 O6 2.065106 1_555
Li2 O2 2.217454 1_545
Li2 O2 2.228699 1_445
Li2 O4 2.379277 1_555
Li3 O8 2.089774 1_555
Li3 O0 2.106193 1_465
Li3 O3 2.132472 1_455
Li3 O0 2.144063 1_565
Li3 O3 2.173885 1_555
Li3 O5 2.191596 1_565
Co0 O1 1.904460 1_555
Co0 O3 1.935927 1_555
Co0 O3 1.936111 1_655
Co0 O5 1.940211 1_555
Co0 O5 1.940353 1_655
Co0 O0 1.946083 1_555
Co1 O7 1.896316 1_655
Co1 O7 1.900715 1_555
Co1 O2 1.907056 1_555
Co1 O6 1.929730 1_555
Co1 O6 1.932859 1_655
Co1 F0 2.072283 1_556
Co2 O4 1.925422 1_555
Co2 O0 1.940503 1_455
Co2 O8 1.940784 1_655
Co2 O8 1.941385 1_555
Co2 O0 1.943995 1_555
Co2 O3 1.948645 1_555
Co3 O1 1.882251 1_555
Co3 O1 1.884929 1_455
Co3 O7 1.893520 1_554
Co3 O5 1.976530 1_555
Co3 F0 2.043216 1_555
Co3 F0 2.045849 1_455
Co4 O6 1.905979 1_555
Co4 O2 1.935758 1_555
Co4 O4 1.936828 1_455
Co4 O4 1.937785 1_555
Co4 O2 1.937955 1_455
Co4 O8 1.954771 1_555
F0 Li1 2.032535 1_545
