# generated using pymatgen
data_Cr7Ni20Mo3
_symmetry_space_group_name_H-M   'P 1'
_cell_length_a   6.20317010
_cell_length_b   6.20333388
_cell_length_c   18.95314550
_cell_angle_alpha   90.11906451
_cell_angle_beta   96.30080254
_cell_angle_gamma   108.52057282
_symmetry_Int_Tables_number   1
_chemical_formula_structural   Cr7Ni20Mo3
_chemical_formula_sum   'Cr14 Ni40 Mo6'
_cell_volume   686.84596630
_cell_formula_units_Z   2
loop_
 _symmetry_equiv_pos_site_id
 _symmetry_equiv_pos_as_xyz
  1  'x, y, z'
loop_
 _atom_site_type_symbol
 _atom_site_label
 _atom_site_symmetry_multiplicity
 _atom_site_fract_x
 _atom_site_fract_y
 _atom_site_fract_z
 _atom_site_occupancy
  Cr  Cr0  1  0.79978000  0.60023700  0.79989200  1
  Cr  Cr1  1  0.30010300  0.09979000  0.79997600  1
  Cr  Cr2  1  0.54917300  0.84921500  0.79994700  1
  Cr  Cr3  1  0.05085600  0.35064300  0.79989700  1
  Cr  Cr4  1  0.59650500  0.20437000  0.60034500  1
  Cr  Cr5  1  0.35001100  0.44955500  0.60038900  1
  Cr  Cr6  1  0.10329000  0.69614400  0.60044500  1
  Cr  Cr7  1  0.89999300  0.30046300  0.40066200  1
  Cr  Cr8  1  0.65436900  0.54459600  0.40063800  1
  Cr  Cr9  1  0.14669000  0.05494200  0.40063300  1
  Cr  Cr10  1  0.44987300  0.15017700  0.19997600  1
  Cr  Cr11  1  0.49552600  0.50329500  0.99905500  1
  Cr  Cr12  1  0.00402900  0.99632500  0.99911500  1
  Cr  Cr13  1  0.24965300  0.75055700  0.99905100  1
  Ni  Ni0  1  0.40034200  0.46625900  0.73322400  1
  Ni  Ni1  1  0.90055800  0.96676700  0.73476600  1
  Ni  Ni2  1  0.14930100  0.71739300  0.73329000  1
  Ni  Ni3  1  0.65028800  0.21602700  0.73296900  1
  Ni  Ni4  1  0.20405700  0.06768100  0.53270500  1
  Ni  Ni5  1  0.44633800  0.81471500  0.53434700  1
  Ni  Ni6  1  0.95170000  0.32035100  0.53261600  1
  Ni  Ni7  1  0.69714200  0.56356000  0.53272000  1
  Ni  Ni8  1  0.50197800  0.17038500  0.33314300  1
  Ni  Ni9  1  0.24773600  0.41332400  0.33478400  1
  Ni  Ni10  1  0.75512400  0.91820200  0.33444500  1
  Ni  Ni11  1  0.99635700  0.66481700  0.33489500  1
  Ni  Ni12  1  0.54838800  0.51219300  0.13087900  1
  Ni  Ni13  1  0.05211400  0.01785600  0.13090400  1
  Ni  Ni14  1  0.29997500  0.76988600  0.13064100  1
  Ni  Ni15  1  0.79585200  0.26558100  0.13250500  1
  Ni  Ni16  1  0.34575800  0.11456800  0.93243600  1
  Ni  Ni17  1  0.10338900  0.36834800  0.93219300  1
  Ni  Ni18  1  0.59792100  0.86240400  0.93215300  1
  Ni  Ni19  1  0.85160700  0.62028700  0.93210700  1
  Ni  Ni20  1  0.74824000  0.57982100  0.66748900  1
  Ni  Ni21  1  0.25416400  0.08536400  0.66751000  1
  Ni  Ni22  1  0.49652300  0.83163500  0.66773500  1
  Ni  Ni23  1  0.00209900  0.33737000  0.66740700  1
  Ni  Ni24  1  0.55282100  0.18688000  0.46730000  1
  Ni  Ni25  1  0.80411800  0.93536200  0.46617100  1
  Ni  Ni26  1  0.29825400  0.42960500  0.46768500  1
  Ni  Ni27  1  0.04593200  0.68214800  0.46770000  1
  Ni  Ni28  1  0.84756800  0.28267500  0.26946800  1
  Ni  Ni29  1  0.59939100  0.53074300  0.26908200  1
  Ni  Ni30  1  0.10508900  0.03418500  0.26911800  1
  Ni  Ni31  1  0.35137500  0.78716900  0.26745700  1
  Ni  Ni32  1  0.90144700  0.63703700  0.06522400  1
  Ni  Ni33  1  0.39646100  0.13155500  0.06695000  1
  Ni  Ni34  1  0.64829600  0.87853000  0.06535100  1
  Ni  Ni35  1  0.15292700  0.38582400  0.06534700  1
  Ni  Ni36  1  0.69921600  0.23326200  0.86506200  1
  Ni  Ni37  1  0.45072900  0.48261600  0.86660500  1
  Ni  Ni38  1  0.94956100  0.98396500  0.86695100  1
  Ni  Ni39  1  0.19970400  0.73376800  0.86664500  1
  Mo  Mo0  1  0.85097500  0.95002200  0.60042300  1
  Mo  Mo1  1  0.39988300  0.80034700  0.40081300  1
  Mo  Mo2  1  0.94970300  0.65022400  0.19993900  1
  Mo  Mo3  1  0.69450600  0.90536400  0.19992600  1
  Mo  Mo4  1  0.20613300  0.39395200  0.19998400  1
  Mo  Mo5  1  0.74911500  0.24966800  0.99891400  1
loop_
_geom_bond_atom_site_label_1
_geom_bond_atom_site_label_2
_geom_bond_distance
_geom_bond_site_symmetry_2
Cr0 Ni19 2.488932 1_555
Cr0 Ni20 2.492482 1_555
Cr0 Cr2 2.515511 1_555
Cr0 Cr3 2.520897 1_655
Cr0 Ni1 2.522339 1_555
Cr0 Ni36 2.525026 1_555
Cr0 Ni37 2.533858 1_555
Cr0 Ni2 2.534948 1_655
Cr0 Ni0 2.535137 1_555
Cr0 Ni39 2.538191 1_655
Cr0 Ni38 2.543245 1_555
Cr0 Ni3 2.544494 1_555
Cr1 Ni16 2.493567 1_555
Cr1 Ni21 2.493670 1_555
Cr1 Cr2 2.515779 1_545
Cr1 Cr3 2.517936 1_555
Cr1 Ni36 2.521869 1_555
Cr1 Ni1 2.524931 1_445
Cr1 Ni2 2.533351 1_545
Cr1 Ni39 2.535006 1_545
Cr1 Ni37 2.535018 1_555
Cr1 Ni0 2.538090 1_555
Cr1 Ni3 2.542790 1_555
Cr1 Ni38 2.544212 1_445
Cr2 Ni18 2.488751 1_555
Cr2 Ni22 2.488847 1_555
Cr2 Ni36 2.528248 1_565
Cr2 Ni1 2.528646 1_555
Cr2 Ni39 2.535614 1_555
Cr2 Ni0 2.536335 1_555
Cr2 Ni2 2.537081 1_555
Cr2 Ni37 2.537669 1_555
Cr2 Ni3 2.542180 1_565
Cr2 Ni38 2.542529 1_555
Cr3 Ni17 2.490423 1_555
Cr3 Ni23 2.494094 1_555
Cr3 Ni1 2.527534 1_445
Cr3 Ni36 2.529756 1_455
Cr3 Ni0 2.535432 1_555
Cr3 Ni39 2.537413 1_555
Cr3 Ni37 2.537473 1_555
Cr3 Ni2 2.537930 1_555
Cr3 Ni38 2.542281 1_445
Cr3 Ni3 2.542864 1_455
Cr4 Cr5 2.475688 1_555
Cr4 Ni3 2.496953 1_555
Cr4 Ni20 2.502393 1_555
Cr4 Ni24 2.504791 1_555
Cr4 Ni21 2.505291 1_555
Cr4 Ni4 2.507583 1_555
Cr4 Ni7 2.510193 1_555
Cr4 Mo0 2.561826 1_545
Cr4 Ni5 2.564430 1_545
Cr4 Ni23 2.569303 1_655
Cr4 Ni22 2.576318 1_545
Cr4 Ni6 2.576378 1_555
Cr5 Cr6 2.483910 1_555
Cr5 Ni26 2.498126 1_555
Cr5 Ni0 2.500512 1_555
Cr5 Ni5 2.524093 1_555
Cr5 Ni21 2.529917 1_555
Cr5 Ni23 2.531125 1_555
Cr5 Ni20 2.531927 1_555
Cr5 Ni7 2.534624 1_555
Cr5 Ni22 2.537175 1_555
Cr5 Ni6 2.537357 1_455
Cr5 Ni4 2.539075 1_555
Cr6 Ni5 2.496672 1_555
Cr6 Ni27 2.499409 1_555
Cr6 Ni2 2.501058 1_555
Cr6 Ni23 2.501418 1_555
Cr6 Ni22 2.508651 1_555
Cr6 Ni6 2.510154 1_455
Cr6 Mo0 2.548685 1_455
Cr6 Ni20 2.567984 1_455
Cr6 Ni21 2.571337 1_565
Cr6 Ni4 2.573763 1_565
Cr6 Ni7 2.576988 1_455
Cr7 Cr8 2.465926 1_555
Cr7 Ni28 2.469692 1_555
Cr7 Cr9 2.478382 1_655
Cr7 Ni6 2.484013 1_555
Cr7 Ni11 2.517249 1_555
Cr7 Ni9 2.517470 1_655
Cr7 Ni25 2.518500 1_545
Cr7 Ni24 2.523134 1_555
Cr7 Ni10 2.528236 1_545
Cr7 Ni26 2.531467 1_655
Cr7 Ni27 2.532453 1_655
Cr7 Ni8 2.533976 1_555
Cr8 Ni29 2.476808 1_555
Cr8 Ni7 2.486815 1_555
Cr8 Ni11 2.487598 1_555
Cr8 Ni24 2.493100 1_555
Cr8 Ni27 2.498900 1_655
Cr8 Ni8 2.499382 1_555
Cr8 Ni9 2.565804 1_555
Cr8 Ni25 2.566193 1_555
Cr8 Ni10 2.569011 1_555
Cr8 Mo1 2.569294 1_555
Cr8 Ni26 2.573396 1_555
Cr9 Ni30 2.476431 1_555
Cr9 Ni4 2.486881 1_555
Cr9 Ni25 2.488121 1_445
Cr9 Ni9 2.488157 1_555
Cr9 Ni10 2.492160 1_445
Cr9 Ni26 2.497595 1_555
Cr9 Mo1 2.556519 1_545
Cr9 Ni11 2.564658 1_445
Cr9 Ni24 2.569116 1_555
Cr9 Ni27 2.573468 1_545
Cr9 Ni8 2.574143 1_555
Cr10 Mo4 2.454672 1_555
Cr10 Mo3 2.464447 1_545
Cr10 Ni33 2.504195 1_555
Cr10 Ni8 2.506852 1_555
Cr10 Ni15 2.526651 1_555
Cr10 Ni31 2.527723 1_545
Cr10 Ni12 2.539242 1_555
Cr10 Ni30 2.539834 1_555
Cr10 Ni13 2.544676 1_555
Cr10 Ni29 2.545289 1_555
Cr10 Ni14 2.545994 1_545
Cr10 Ni28 2.547623 1_555
Cr11 Ni12 2.482151 1_556
Cr11 Cr13 2.482959 1_555
Cr11 Ni37 2.493672 1_555
Cr11 Ni34 2.494038 1_556
Cr11 Ni35 2.496437 1_556
Cr11 Ni17 2.499809 1_555
Cr11 Ni18 2.502682 1_555
Cr11 Mo5 2.554036 1_555
Cr11 Ni32 2.564528 1_556
Cr11 Ni16 2.564931 1_555
Cr11 Ni19 2.572217 1_555
Cr11 Ni33 2.576228 1_556
Cr12 Cr13 2.474263 1_555
Cr12 Ni13 2.481061 1_566
Cr12 Ni38 2.488303 1_455
Cr12 Ni32 2.495586 1_456
Cr12 Ni16 2.496557 1_565
Cr12 Ni19 2.504254 1_455
Cr12 Ni33 2.508754 1_566
Cr12 Mo5 2.558854 1_465
Cr12 Ni34 2.562581 1_456
Cr12 Ni35 2.565543 1_566
Cr12 Ni17 2.568008 1_565
Cr12 Ni18 2.571252 1_455
Cr13 Ni14 2.477129 1_556
Cr13 Ni39 2.492435 1_555
Cr13 Ni32 2.523168 1_456
Cr13 Ni16 2.523936 1_565
Cr13 Ni35 2.524457 1_556
Cr13 Ni34 2.528021 1_556
Cr13 Ni19 2.529832 1_455
Cr13 Ni18 2.531574 1_555
Cr13 Ni17 2.533563 1_555
Cr13 Ni33 2.536559 1_566
Ni0 Ni37 2.510791 1_555
Ni0 Ni20 2.516695 1_555
Ni0 Ni21 2.516968 1_555
Ni0 Ni3 2.518746 1_555
Ni0 Ni22 2.519720 1_555
Ni0 Ni23 2.522447 1_555
Ni0 Ni2 2.528559 1_555
Ni1 Ni38 2.488282 1_555
Ni1 Ni2 2.510053 1_655
Ni1 Ni3 2.513126 1_565
Ni1 Ni22 2.561292 1_555
Ni1 Ni20 2.561711 1_555
Ni1 Ni21 2.563186 1_665
Ni1 Ni23 2.565280 1_665
Ni2 Ni39 2.510302 1_555
Ni2 Ni22 2.511275 1_555
Ni2 Ni23 2.514034 1_555
Ni2 Ni21 2.536632 1_565
Ni2 Ni20 2.537475 1_455
Ni3 Ni36 2.486551 1_555
Ni4 Ni5 2.492070 1_545
Ni4 Ni6 2.542724 1_455
Ni5 Ni7 2.529619 1_555
Ni6 Ni7 2.506752 1_555
Ni8 Ni9 2.505968 1_555
Ni10 Ni25 2.479640 1_555
Ni10 Ni11 2.490279 1_555
Ni10 Ni28 2.510034 1_565
Ni10 Ni30 2.522868 1_665
Ni10 Ni8 2.542838 1_565
Ni10 Ni29 2.548487 1_555
Ni10 Ni31 2.559249 1_555
Ni11 Ni27 2.499950 1_655
Ni11 Ni29 2.516286 1_555
Ni11 Ni28 2.521051 1_555
Ni11 Ni9 2.532125 1_655
Ni11 Ni30 2.544383 1_665
Ni11 Ni31 2.572861 1_655
Ni12 Ni15 2.485841 1_555
Ni12 Ni33 2.501085 1_555
Ni12 Ni35 2.506079 1_555
Ni12 Ni34 2.525234 1_555
Ni12 Ni32 2.543495 1_555
Ni12 Ni14 2.548202 1_555
Ni12 Ni29 2.601579 1_555
Ni13 Ni33 2.478740 1_555
Ni13 Ni14 2.496869 1_545
Ni13 Ni32 2.516661 1_445
Ni13 Ni35 2.533927 1_555
Ni13 Ni15 2.540015 1_455
Ni13 Ni34 2.549986 1_445
Ni13 Ni30 2.601788 1_555
Ni14 Ni33 2.483088 1_565
Ni14 Ni34 2.513828 1_555
Ni14 Ni32 2.521221 1_455
Ni14 Ni35 2.529627 1_555
Ni14 Ni31 2.575449 1_555
Ni15 Ni33 2.526740 1_555
Ni15 Ni34 2.560864 1_545
Ni15 Ni32 2.569334 1_555
Ni15 Ni28 2.578218 1_555
Ni15 Ni35 2.579907 1_655
Ni16 Ni17 2.498184 1_555
Ni16 Ni38 2.509648 1_445
Ni16 Ni39 2.517139 1_545
Ni16 Ni33 2.532116 1_556
Ni16 Ni37 2.537544 1_555
Ni16 Ni18 2.539672 1_545
Ni16 Ni36 2.563768 1_555
Ni17 Ni35 2.506523 1_556
Ni17 Ni37 2.512248 1_555
Ni17 Ni39 2.520532 1_555
Ni17 Ni38 2.531498 1_445
Ni17 Ni19 2.536152 1_455
Ni17 Ni36 2.562726 1_455
Ni18 Ni19 2.496802 1_555
Ni18 Ni34 2.507349 1_556
Ni18 Ni37 2.509953 1_555
Ni18 Ni39 2.520050 1_555
Ni18 Ni38 2.530686 1_555
Ni18 Ni36 2.563884 1_565
Ni19 Ni32 2.505819 1_556
Ni19 Ni38 2.507836 1_555
Ni19 Ni39 2.514660 1_655
Ni19 Ni37 2.534392 1_555
Ni19 Ni36 2.560121 1_555
Ni20 Ni23 2.499392 1_655
Ni20 Ni3 2.511632 1_555
Ni20 Ni22 2.535616 1_555
Ni20 Ni7 2.536923 1_555
Ni21 Ni22 2.497896 1_545
Ni21 Ni3 2.509089 1_555
Ni21 Ni4 2.537602 1_555
Ni21 Ni23 2.537893 1_555
Ni22 Ni5 2.510920 1_555
Ni22 Ni3 2.531467 1_565
Ni23 Ni3 2.535510 1_455
Ni23 Ni6 2.537331 1_455
Ni24 Ni7 2.492838 1_555
Ni24 Ni26 2.504762 1_555
Ni24 Ni4 2.517958 1_555
Ni24 Ni6 2.522337 1_555
Ni24 Ni8 2.525400 1_555
Ni24 Ni25 2.533207 1_545
Ni24 Ni5 2.570737 1_545
Ni25 Ni27 2.491125 1_655
Ni25 Ni4 2.536549 1_665
Ni25 Ni6 2.544226 1_565
Ni25 Ni7 2.564037 1_555
Ni25 Ni5 2.594925 1_555
Ni26 Ni4 2.497366 1_555
Ni26 Ni6 2.500748 1_455
Ni26 Ni9 2.501759 1_555
Ni26 Ni7 2.520400 1_555
Ni26 Ni27 2.542039 1_555
Ni26 Ni5 2.546735 1_555
Ni27 Ni6 2.495690 1_455
Ni27 Ni7 2.513732 1_455
Ni27 Ni4 2.536131 1_565
Ni27 Ni5 2.539778 1_555
Ni28 Ni8 2.481947 1_555
Ni28 Ni29 2.498143 1_555
Ni28 Ni9 2.528726 1_655
Ni28 Ni30 2.548456 1_655
Ni29 Ni8 2.480040 1_555
Ni29 Ni9 2.535788 1_555
Ni29 Ni31 2.538252 1_555
Ni30 Ni31 2.486084 1_545
Ni30 Ni8 2.503234 1_555
Ni30 Ni9 2.507488 1_555
Ni31 Ni8 2.528908 1_565
Ni31 Ni9 2.581664 1_555
Ni32 Ni34 2.491078 1_555
Ni32 Ni35 2.530930 1_655
Ni33 Ni35 2.504979 1_555
Ni33 Ni34 2.544183 1_545
Ni36 Ni37 2.508761 1_555
Ni36 Ni38 2.513599 1_545
Ni37 Ni39 2.528536 1_555
Ni38 Ni39 2.519627 1_655
Mo0 Ni25 2.527278 1_555
Mo0 Ni1 2.528902 1_555
Mo0 Ni5 2.557416 1_555
Mo0 Ni21 2.557424 1_665
Mo0 Ni20 2.560442 1_555
Mo0 Ni23 2.561120 1_665
Mo0 Ni7 2.563116 1_555
Mo0 Ni4 2.565630 1_665
Mo0 Ni22 2.568094 1_555
Mo0 Ni6 2.568294 1_565
Mo1 Ni31 2.510406 1_555
Mo1 Ni5 2.513772 1_555
Mo1 Ni25 2.550172 1_555
Mo1 Ni11 2.550623 1_455
Mo1 Ni9 2.551402 1_555
Mo1 Ni24 2.552896 1_565
Mo1 Ni27 2.560770 1_555
Mo1 Ni26 2.561148 1_555
Mo1 Ni10 2.561536 1_555
Mo1 Ni8 2.565579 1_565
Mo2 Ni32 2.536004 1_555
Mo2 Ni11 2.540553 1_555
Mo2 Ni15 2.551581 1_555
Mo2 Ni31 2.553122 1_655
Mo2 Ni12 2.563123 1_555
Mo2 Ni30 2.563684 1_665
Mo2 Ni13 2.567276 1_665
Mo2 Ni29 2.568018 1_555
Mo2 Mo3 2.569555 1_555
Mo2 Ni14 2.569615 1_655
Mo2 Ni28 2.571878 1_555
Mo2 Mo4 2.581423 1_655
Mo3 Ni31 2.513312 1_555
Mo3 Ni15 2.513373 1_565
Mo3 Ni14 2.530522 1_555
Mo3 Ni10 2.533315 1_555
Mo3 Ni28 2.533326 1_565
Mo3 Ni34 2.534359 1_555
Mo3 Ni13 2.603174 1_665
Mo3 Ni29 2.603451 1_555
Mo3 Ni12 2.608577 1_555
Mo3 Ni30 2.610494 1_665
Mo4 Ni29 2.522925 1_555
Mo4 Ni13 2.523254 1_555
Mo4 Ni12 2.527038 1_555
Mo4 Ni30 2.528686 1_555
Mo4 Ni35 2.535184 1_555
Mo4 Ni9 2.538262 1_555
Mo4 Ni31 2.595202 1_555
Mo4 Ni15 2.596314 1_455
Mo4 Ni14 2.612056 1_555
Mo4 Ni28 2.613311 1_455
Mo5 Ni15 2.514821 1_556
Mo5 Ni36 2.519656 1_555
Mo5 Ni16 2.553786 1_555
Mo5 Ni32 2.555576 1_556
Mo5 Ni35 2.555887 1_656
Mo5 Ni18 2.558784 1_545
Mo5 Ni34 2.558791 1_546
Mo5 Ni19 2.559964 1_555
Mo5 Ni17 2.560607 1_655
Mo5 Ni33 2.567091 1_556
