# generated using pymatgen
data_LiTi2(PO4)3
_symmetry_space_group_name_H-M   'P 1'
_cell_length_a   8.64471800
_cell_length_b   8.70349200
_cell_length_c   12.03365600
_cell_angle_alpha   90.00000000
_cell_angle_beta   90.00000000
_cell_angle_gamma   90.00000000
_symmetry_Int_Tables_number   1
_chemical_formula_structural   LiTi2(PO4)3
_chemical_formula_sum   'Li4 Ti8 P12 O48'
_cell_volume   905.40305912
_cell_formula_units_Z   4
loop_
 _symmetry_equiv_pos_site_id
 _symmetry_equiv_pos_as_xyz
  1  'x, y, z'
loop_
 _atom_site_type_symbol
 _atom_site_label
 _atom_site_symmetry_multiplicity
 _atom_site_fract_x
 _atom_site_fract_y
 _atom_site_fract_z
 _atom_site_occupancy
  Li  Li0  1  0.03843800  0.97148100  0.67963500  1
  Li  Li1  1  0.03843800  0.02851900  0.32036500  1
  Li  Li2  1  0.96156200  0.47148100  0.82036500  1
  Li  Li3  1  0.96156200  0.52851900  0.17963500  1
  Ti  Ti0  1  0.49965900  0.71505700  0.12018700  1
  Ti  Ti1  1  0.49965900  0.28494300  0.87981300  1
  Ti  Ti2  1  0.50034100  0.78494300  0.62018700  1
  Ti  Ti3  1  0.50034100  0.21505700  0.37981300  1
  Ti  Ti4  1  0.99716100  0.28886700  0.61159700  1
  Ti  Ti5  1  0.99716100  0.71113300  0.38840300  1
  Ti  Ti6  1  0.00283900  0.78886700  0.88840300  1
  Ti  Ti7  1  0.00283900  0.21113300  0.11159700  1
  P  P0  1  0.70848100  0.50000000  0.50000000  1
  P  P1  1  0.29151900  0.00000000  0.00000000  1
  P  P2  1  0.21440900  0.50000000  0.00000000  1
  P  P3  1  0.78559100  0.00000000  0.50000000  1
  P  P4  1  0.64324700  0.64178300  0.85479500  1
  P  P5  1  0.64324700  0.35821700  0.14520500  1
  P  P6  1  0.35675300  0.14178300  0.64520500  1
  P  P7  1  0.35675300  0.85821700  0.35479500  1
  P  P8  1  0.14670100  0.64211200  0.64801700  1
  P  P9  1  0.14670100  0.35788800  0.35198300  1
  P  P10  1  0.85329900  0.14211200  0.85198300  1
  P  P11  1  0.85329900  0.85788800  0.14801700  1
  O  O0  1  0.69015400  0.89427300  0.57374100  1
  O  O1  1  0.69015400  0.10572700  0.42625900  1
  O  O2  1  0.67799800  0.15202500  0.84520700  1
  O  O3  1  0.67799800  0.84797500  0.15479300  1
  O  O4  1  0.60892100  0.59897400  0.57571700  1
  O  O5  1  0.60892100  0.40102600  0.42428300  1
  O  O6  1  0.59787500  0.47364500  0.82862900  1
  O  O7  1  0.59787500  0.52635500  0.17137100  1
  O  O8  1  0.58854000  0.68619000  0.97174200  1
  O  O9  1  0.58854000  0.31381000  0.02825800  1
  O  O10  1  0.57460000  0.75466800  0.76934100  1
  O  O11  1  0.57460000  0.24533200  0.23065900  1
  O  O12  1  0.42540000  0.25466800  0.73065900  1
  O  O13  1  0.42540000  0.74533200  0.26934100  1
  O  O14  1  0.41146000  0.18619000  0.52825800  1
  O  O15  1  0.41146000  0.81381000  0.47174200  1
  O  O16  1  0.40212500  0.02635500  0.32862900  1
  O  O17  1  0.40212500  0.97364500  0.67137100  1
  O  O18  1  0.39107900  0.09897400  0.92428300  1
  O  O19  1  0.39107900  0.90102600  0.07571700  1
  O  O20  1  0.32200200  0.65202500  0.65479300  1
  O  O21  1  0.32200200  0.34797500  0.34520700  1
  O  O22  1  0.30984600  0.39427300  0.92625900  1
  O  O23  1  0.30984600  0.60572700  0.07374100  1
  O  O24  1  0.18416800  0.10302400  0.07297600  1
  O  O25  1  0.18416800  0.89697600  0.92702400  1
  O  O26  1  0.17626100  0.15078600  0.65344400  1
  O  O27  1  0.17626100  0.84921400  0.34655600  1
  O  O28  1  0.10160800  0.59130800  0.92221100  1
  O  O29  1  0.10160800  0.40869200  0.07778900  1
  O  O30  1  0.08932600  0.47897200  0.67969400  1
  O  O31  1  0.08932600  0.52102800  0.32030600  1
  O  O32  1  0.08844200  0.68210700  0.52914100  1
  O  O33  1  0.08844200  0.31789300  0.47085900  1
  O  O34  1  0.07215200  0.76153700  0.72757200  1
  O  O35  1  0.07215200  0.23846300  0.27242800  1
  O  O36  1  0.92784800  0.26153700  0.77242800  1
  O  O37  1  0.92784800  0.73846300  0.22757200  1
  O  O38  1  0.91155800  0.18210700  0.97085900  1
  O  O39  1  0.91155800  0.81789300  0.02914100  1
  O  O40  1  0.91067400  0.97897200  0.82030600  1
  O  O41  1  0.91067400  0.02102800  0.17969400  1
  O  O42  1  0.89839200  0.09130800  0.57778900  1
  O  O43  1  0.89839200  0.90869200  0.42221100  1
  O  O44  1  0.82373900  0.65078600  0.84655600  1
  O  O45  1  0.82373900  0.34921400  0.15344400  1
  O  O46  1  0.81583200  0.39697600  0.57297600  1
  O  O47  1  0.81583200  0.60302400  0.42702400  1
loop_
_geom_bond_atom_site_label_1
_geom_bond_atom_site_label_2
_geom_bond_distance
_geom_bond_site_symmetry_2
Li0 O34 1.938178 1_555
Li0 O26 1.988536 1_565
Li0 O42 2.013804 1_465
Li0 O40 2.022291 1_455
Li1 O35 1.938178 1_555
Li1 O27 1.988536 1_545
Li1 O43 2.013804 1_445
Li1 O41 2.022291 1_455
Li2 O36 1.938178 1_555
Li2 O44 1.988536 1_555
Li2 O28 2.013804 1_655
Li2 O30 2.022291 1_655
Li3 O37 1.938178 1_555
Li3 O45 1.988536 1_555
Li3 O29 2.013804 1_655
Li3 O31 2.022291 1_655
O0 P3 1.521466 1_565
O0 Ti2 1.977454 1_555
O1 P3 1.521466 1_555
O1 Ti3 1.977454 1_555
O2 P10 1.520070 1_555
O2 Ti1 1.971936 1_555
O3 P11 1.520070 1_555
O3 Ti0 1.971936 1_555
O4 P0 1.520852 1_555
O4 Ti2 1.946079 1_555
O5 P0 1.520852 1_555
O5 Ti3 1.946079 1_555
O6 P4 1.547414 1_555
O6 Ti1 1.948749 1_555
O7 P5 1.547414 1_555
O7 Ti0 1.948749 1_555
O8 P4 1.534123 1_555
O8 Ti0 1.960735 1_556
O9 P5 1.534123 1_555
O9 Ti1 1.960735 1_554
O10 P4 1.541074 1_555
O10 Ti2 1.924339 1_555
O11 P5 1.541074 1_555
O11 Ti3 1.924339 1_555
O12 P6 1.541074 1_555
O12 Ti1 1.924339 1_555
O13 P7 1.541074 1_555
O13 Ti0 1.924339 1_555
O14 P6 1.534123 1_555
O14 Ti3 1.960735 1_555
O15 P7 1.534123 1_555
O15 Ti2 1.960735 1_555
O16 P7 1.547414 1_545
O16 Ti3 1.948749 1_555
O17 P6 1.547414 1_565
O17 Ti2 1.948749 1_555
O18 P1 1.520852 1_556
O18 Ti1 1.946079 1_555
O19 P1 1.520852 1_565
O19 Ti0 1.946079 1_555
O20 P8 1.520070 1_555
O20 Ti2 1.971936 1_555
O21 P9 1.520070 1_555
O21 Ti3 1.971936 1_555
O22 P2 1.521466 1_556
O22 Ti1 1.977454 1_555
O23 P2 1.521466 1_555
O23 Ti0 1.977454 1_555
O24 P1 1.560901 1_555
O24 Ti7 1.886402 1_555
O25 P1 1.560901 1_566
O25 Ti6 1.886402 1_555
O26 P6 1.565412 1_555
O26 Ti4 2.023614 1_455
O27 P7 1.565412 1_555
O27 Ti5 2.023614 1_455
O28 P2 1.568020 1_556
O28 Ti6 1.962412 1_555
O29 P2 1.568020 1_555
O29 Ti7 1.962412 1_555
O30 P8 1.551578 1_555
O30 Ti4 2.010952 1_455
O31 P9 1.551578 1_555
O31 Ti5 2.010952 1_455
O32 P8 1.556015 1_555
O32 Ti5 1.885405 1_455
O33 P9 1.556015 1_555
O33 Ti4 1.885405 1_455
O34 P8 1.553126 1_555
O34 Ti6 2.039933 1_555
O35 P9 1.553126 1_555
O35 Ti7 2.039933 1_555
O36 P10 1.553126 1_555
O36 Ti4 2.039933 1_555
O37 P11 1.553126 1_555
O37 Ti5 2.039933 1_555
O38 P10 1.556015 1_555
O38 Ti7 1.885405 1_656
O39 P11 1.556015 1_555
O39 Ti6 1.885405 1_654
O40 P10 1.551578 1_565
O40 Ti6 2.010952 1_655
O41 P11 1.551578 1_545
O41 Ti7 2.010952 1_655
O42 P3 1.568020 1_555
O42 Ti4 1.962412 1_555
O43 P3 1.568020 1_565
O43 Ti5 1.962412 1_555
O44 P4 1.565412 1_555
O44 Ti6 2.023614 1_655
O45 P5 1.565412 1_555
O45 Ti7 2.023614 1_655
O46 P0 1.560901 1_555
O46 Ti4 1.886402 1_555
O47 P0 1.560901 1_555
O47 Ti5 1.886402 1_555
