# generated using pymatgen
data_FeOF
_symmetry_space_group_name_H-M   'P 1'
_cell_length_a   3.09866500
_cell_length_b   9.51866800
_cell_length_c   14.24224890
_cell_angle_alpha   89.63506013
_cell_angle_beta   90.00000000
_cell_angle_gamma   90.00000000
_symmetry_Int_Tables_number   1
_chemical_formula_structural   FeOF
_chemical_formula_sum   'Fe12 O12 F12'
_cell_volume   420.06893703
_cell_formula_units_Z   12
loop_
 _symmetry_equiv_pos_site_id
 _symmetry_equiv_pos_as_xyz
  1  'x, y, z'
loop_
 _atom_site_type_symbol
 _atom_site_label
 _atom_site_symmetry_multiplicity
 _atom_site_fract_x
 _atom_site_fract_y
 _atom_site_fract_z
 _atom_site_occupancy
  Fe  Fe0  1  0.00000000  0.00631300  0.99580200  1
  Fe  Fe1  1  0.00000000  0.49378300  0.99288300  1
  Fe  Fe2  1  0.50000000  0.24968800  0.85010100  1
  Fe  Fe3  1  0.50000000  0.78395800  0.83203300  1
  Fe  Fe4  1  0.00000000  0.00003400  0.66599800  1
  Fe  Fe5  1  0.00000000  0.49812100  0.65598200  1
  Fe  Fe6  1  0.50000000  0.72477000  0.49931500  1
  Fe  Fe7  1  0.50000000  0.24394200  0.51522600  1
  Fe  Fe8  1  0.00000000  0.99771200  0.32038700  1
  Fe  Fe9  1  0.00000000  0.51370100  0.33224600  1
  Fe  Fe10  1  0.50000000  0.22098200  0.16527100  1
  Fe  Fe11  1  0.50000000  0.74782500  0.18029800  1
  O  O0  1  0.50000000  0.40965500  0.93578700  1
  O  O1  1  0.50000000  0.90312600  0.93509600  1
  O  O2  1  0.00000000  0.15589700  0.89498800  1
  O  O3  1  0.00000000  0.85765200  0.76149100  1
  O  O4  1  0.50000000  0.40288100  0.60175200  1
  O  O5  1  0.00000000  0.14551800  0.56875100  1
  O  O6  1  0.00000000  0.65771700  0.56831600  1
  O  O7  1  0.50000000  0.59321900  0.39744200  1
  O  O8  1  0.50000000  0.90140900  0.27066400  1
  O  O9  1  0.00000000  0.15429200  0.23411600  1
  O  O10  1  0.00000000  0.64558700  0.22745700  1
  O  O11  1  0.50000000  0.09587000  0.06364500  1
  F  F0  1  0.00000000  0.65738100  0.89673500  1
  F  F1  1  0.00000000  0.35041900  0.76825600  1
  F  F2  1  0.50000000  0.10380600  0.72989400  1
  F  F3  1  0.50000000  0.59622500  0.73561700  1
  F  F4  1  0.50000000  0.90464400  0.59796100  1
  F  F5  1  0.00000000  0.33952200  0.43396300  1
  F  F6  1  0.00000000  0.85091400  0.43756200  1
  F  F7  1  0.50000000  0.09744900  0.40117000  1
  F  F8  1  0.50000000  0.39946800  0.26808000  1
  F  F9  1  0.00000000  0.35399900  0.10237800  1
  F  F10  1  0.00000000  0.84136900  0.10222400  1
  F  F11  1  0.50000000  0.60115200  0.06111100  1
loop_
_geom_bond_atom_site_label_1
_geom_bond_atom_site_label_2
_geom_bond_distance
_geom_bond_site_symmetry_2
Fe0 O2 2.015652 1_555
Fe0 O11 2.017729 1_556
Fe0 O11 2.017729 1_456
Fe0 O1 2.030637 1_445
Fe0 O1 2.030637 1_545
Fe1 O0 1.926458 1_455
Fe1 O0 1.926458 1_555
Fe2 O2 1.897073 1_655
Fe2 O2 1.897073 1_555
Fe2 O0 1.957418 1_555
Fe3 O1 1.860772 1_555
Fe3 O3 1.973040 1_555
Fe3 O3 1.973040 1_655
Fe4 O3 1.913901 1_545
Fe4 O5 1.952318 1_555
Fe5 O4 1.956459 1_455
Fe5 O4 1.956459 1_555
Fe5 O6 1.960238 1_555
Fe6 O7 1.922560 1_555
Fe6 O6 1.940507 1_655
Fe6 O6 1.940507 1_555
Fe7 O4 1.957346 1_555
Fe7 O5 1.962187 1_655
Fe7 O5 1.962187 1_555
Fe8 O9 1.925552 1_565
Fe8 O8 1.936620 1_555
Fe8 O8 1.936620 1_455
Fe9 O10 1.944083 1_555
Fe9 O7 1.960733 1_455
Fe9 O7 1.960733 1_555
Fe10 O11 1.880191 1_555
Fe10 O9 1.938264 1_655
Fe10 O9 1.938264 1_555
Fe11 O10 1.946864 1_555
Fe11 O10 1.946864 1_655
Fe11 O8 1.953861 1_555
F0 Fe1 2.067117 1_555
F0 Fe3 2.164972 1_555
F0 Fe3 2.164972 1_455
F1 Fe5 2.122475 1_555
F1 Fe2 2.159698 1_555
F1 Fe2 2.159698 1_455
F2 Fe4 2.053221 1_555
F2 Fe4 2.053221 1_655
F2 Fe2 2.211223 1_555
F3 Fe5 2.138296 1_655
F3 Fe5 2.138296 1_555
F3 Fe3 2.260562 1_555
F4 Fe4 2.043291 1_665
F4 Fe4 2.043291 1_565
F4 Fe6 2.221710 1_555
F5 Fe7 2.134067 1_555
F5 Fe7 2.134067 1_455
F5 Fe9 2.194739 1_555
F6 Fe6 2.145283 1_555
F6 Fe6 2.145283 1_455
F6 Fe8 2.169750 1_555
F7 Fe7 2.147552 1_555
F7 Fe8 2.153917 1_545
F7 Fe8 2.153917 1_645
F8 Fe9 2.104891 1_555
F8 Fe9 2.104891 1_655
F8 Fe10 2.249909 1_555
F9 Fe1 2.043490 1_554
F9 Fe10 2.188939 1_555
F9 Fe10 2.188939 1_455
F10 Fe11 2.101687 1_555
F10 Fe11 2.101687 1_455
F10 Fe0 2.175327 1_564
F11 Fe1 2.098053 1_554
F11 Fe1 2.098053 1_654
F11 Fe11 2.204733 1_555
