# generated using pymatgen
data_Rb2Nb2P2S11
_symmetry_space_group_name_H-M   'P 1'
_cell_length_a   7.14772100
_cell_length_b   7.13492000
_cell_length_c   18.88364577
_cell_angle_alpha   81.40577962
_cell_angle_beta   90.00000000
_cell_angle_gamma   90.00000000
_symmetry_Int_Tables_number   1
_chemical_formula_structural   Rb2Nb2P2S11
_chemical_formula_sum   'Rb4 Nb4 P4 S22'
_cell_volume   952.22256250
_cell_formula_units_Z   2
loop_
 _symmetry_equiv_pos_site_id
 _symmetry_equiv_pos_as_xyz
  1  'x, y, z'
loop_
 _atom_site_type_symbol
 _atom_site_label
 _atom_site_symmetry_multiplicity
 _atom_site_fract_x
 _atom_site_fract_y
 _atom_site_fract_z
 _atom_site_occupancy
  Rb  Rb0  1  0.75165400  0.74186200  0.99556400  1
  Rb  Rb1  1  0.24334200  0.25342500  0.00335000  1
  Rb  Rb2  1  0.75209300  0.77911100  0.50685700  1
  Rb  Rb3  1  0.25237300  0.22932700  0.49461100  1
  Nb  Nb0  1  0.04873300  0.29615600  0.75480000  1
  Nb  Nb1  1  0.55177800  0.69786000  0.24693200  1
  Nb  Nb2  1  0.94660400  0.69237800  0.24385100  1
  Nb  Nb3  1  0.45477100  0.30806600  0.75427100  1
  P  P0  1  0.74939300  0.30952700  0.89022000  1
  P  P1  1  0.75528400  0.20980000  0.62797700  1
  P  P2  1  0.25271800  0.68625900  0.10524900  1
  P  P3  1  0.25652700  0.79155000  0.37261800  1
  S  S0  1  0.25500800  0.59923100  0.73085900  1
  S  S1  1  0.25326600  0.73695700  0.47867600  1
  S  S2  1  0.47870900  0.52580500  0.14364200  1
  S  S3  1  0.75531000  0.93919000  0.18832100  1
  S  S4  1  0.24495300  0.76528300  0.00258000  1
  S  S5  1  0.25158900  0.43789100  0.65140100  1
  S  S6  1  0.74999100  0.55397100  0.34585800  1
  S  S7  1  0.74786100  0.22319400  0.99774200  1
  S  S8  1  0.74968800  0.45681000  0.67341200  1
  S  S9  1  0.24967200  0.88470900  0.17608900  1
  S  S10  1  0.25228400  0.06462000  0.81022300  1
  S  S11  1  0.99027100  0.06221100  0.66756800  1
  S  S12  1  0.01818700  0.51420600  0.14266700  1
  S  S13  1  0.75154600  0.39470800  0.26609900  1
  S  S14  1  0.75610800  0.26523000  0.51982600  1
  S  S15  1  0.51234200  0.06018200  0.66493800  1
  S  S16  1  0.98029900  0.47353000  0.85728700  1
  S  S17  1  0.52064300  0.47387400  0.85910800  1
  S  S18  1  0.01192000  0.94335000  0.33205100  1
  S  S19  1  0.75154400  0.11428800  0.82625500  1
  S  S20  1  0.24490700  0.54951500  0.32257100  1
  S  S21  1  0.47725900  0.94075800  0.33369200  1
loop_
_geom_bond_atom_site_label_1
_geom_bond_atom_site_label_2
_geom_bond_distance
_geom_bond_site_symmetry_2
Rb0 S7 3.440759 1_565
Rb0 S4 3.533343 1_656
Rb0 S12 3.554668 1_656
Rb0 S2 3.565564 1_556
Rb0 S4 3.628942 1_556
Rb0 S7 3.694832 1_555
Rb0 S17 3.807212 1_555
Rb0 S16 3.827356 1_555
Rb0 S19 3.839750 1_565
Rb1 S4 3.485076 1_545
Rb1 S16 3.509180 1_454
Rb1 S17 3.541370 1_554
Rb1 S7 3.550664 1_454
Rb1 S7 3.615102 1_554
Rb1 S4 3.649940 1_555
Rb1 S12 3.799497 1_555
Rb1 S9 3.872787 1_545
Rb1 S2 3.894129 1_555
Rb2 S14 3.513489 1_565
Rb2 S8 3.608167 1_555
Rb2 S1 3.624101 1_555
Rb2 S14 3.638084 1_555
Rb2 S1 3.640600 1_655
Rb2 S6 3.644628 1_555
Rb2 S18 3.816100 1_655
Rb2 S21 3.841204 1_555
Rb3 S5 3.506760 1_555
Rb3 S1 3.570412 1_545
Rb3 S1 3.589291 1_555
Rb3 S14 3.593211 1_455
Rb3 S14 3.645930 1_555
Rb3 S20 3.682122 1_555
Rb3 S15 3.754249 1_555
Rb3 S11 3.799304 1_455
Nb0 S10 2.329055 1_555
Nb0 S16 2.513640 1_455
Nb0 S5 2.519396 1_555
Nb0 S11 2.548725 1_455
Nb0 S0 2.600403 1_555
Nb0 S19 2.737431 1_455
Nb0 S8 2.778185 1_455
Nb1 S3 2.395133 1_555
Nb1 S6 2.444948 1_555
Nb1 S2 2.509943 1_555
Nb1 S13 2.571829 1_555
Nb1 S21 2.611507 1_555
Nb1 S20 2.742211 1_555
Nb1 S9 2.774309 1_555
Nb2 S3 2.349108 1_555
Nb2 S6 2.468226 1_555
Nb2 S12 2.500933 1_655
Nb2 S13 2.522781 1_555
Nb2 S18 2.662671 1_655
Nb2 S20 2.709633 1_655
Nb2 S9 2.772777 1_655
Nb3 S10 2.383202 1_555
Nb3 S5 2.490565 1_555
Nb3 S17 2.498087 1_555
Nb3 S0 2.505088 1_555
Nb3 S15 2.652327 1_555
Nb3 S8 2.723427 1_555
Nb3 S19 2.774404 1_555
P0 S19 1.975504 1_555
P0 S7 2.031824 1_555
P0 S17 2.046369 1_555
P0 S16 2.064582 1_555
P1 S14 2.021380 1_555
P1 S11 2.062440 1_555
P1 S8 2.072605 1_555
P1 S15 2.102240 1_555
P2 S4 1.937289 1_555
P2 S2 2.048768 1_555
P2 S9 2.088277 1_555
P2 S12 2.134755 1_555
P3 S21 1.982176 1_555
P3 S1 1.982465 1_555
P3 S20 2.090457 1_555
P3 S18 2.137468 1_555
S0 S5 2.023199 1_555
S13 S6 2.017755 1_555
