# generated using pymatgen
data_Li8NbNi3(PO4)6
_symmetry_space_group_name_H-M   'P 1'
_cell_length_a   8.79108354
_cell_length_b   8.79108354
_cell_length_c   8.79108380
_cell_angle_alpha   60.66071940
_cell_angle_beta   60.66071940
_cell_angle_gamma   60.66072354
_symmetry_Int_Tables_number   1
_chemical_formula_structural   Li8NbNi3(PO4)6
_chemical_formula_sum   'Li8 Nb1 Ni3 P6 O24'
_cell_volume   487.57623752
_cell_formula_units_Z   1
loop_
 _symmetry_equiv_pos_site_id
 _symmetry_equiv_pos_as_xyz
  1  'x, y, z'
loop_
 _atom_site_type_symbol
 _atom_site_label
 _atom_site_symmetry_multiplicity
 _atom_site_fract_x
 _atom_site_fract_y
 _atom_site_fract_z
 _atom_site_occupancy
  Li  Li0  1  0.65073900  0.31013000  0.83300900  1
  Li  Li1  1  0.31013000  0.83300900  0.65073900  1
  Li  Li2  1  0.83300900  0.65073900  0.31013000  1
  Li  Li3  1  0.97402600  0.97402600  0.97402600  1
  Li  Li4  1  0.15849200  0.33272900  0.69757600  1
  Li  Li5  1  0.47732100  0.47732100  0.47732100  1
  Li  Li6  1  0.69757600  0.15849200  0.33272900  1
  Li  Li7  1  0.33272900  0.69757600  0.15849200  1
  Nb  Nb0  1  0.14634500  0.14634500  0.14634500  1
  Ni  Ni0  1  0.65052700  0.65052700  0.65052700  1
  Ni  Ni1  1  0.85222600  0.85222600  0.85222600  1
  Ni  Ni2  1  0.34799400  0.34799400  0.34799400  1
  P  P0  1  0.24791300  0.55463000  0.95370000  1
  P  P1  1  0.95370000  0.24791300  0.55463000  1
  P  P2  1  0.55463000  0.95370000  0.24791300  1
  P  P3  1  0.46000300  0.04581400  0.74619600  1
  P  P4  1  0.04581400  0.74619600  0.46000300  1
  P  P5  1  0.74619600  0.46000300  0.04581400  1
  O  O0  1  0.12518200  0.27256400  0.53344000  1
  O  O1  1  0.53344000  0.12518200  0.27256400  1
  O  O2  1  0.27256400  0.53344000  0.12518200  1
  O  O3  1  0.00080900  0.17936700  0.39904400  1
  O  O4  1  0.39904400  0.00080900  0.17936700  1
  O  O5  1  0.11080100  0.75138600  0.89503200  1
  O  O6  1  0.17936700  0.39904400  0.00080900  1
  O  O7  1  0.42865500  0.53853000  0.78497400  1
  O  O8  1  0.89503200  0.11080100  0.75138600  1
  O  O9  1  0.78497400  0.42865500  0.53853000  1
  O  O10  1  0.53853000  0.78497400  0.42865500  1
  O  O11  1  0.61316800  0.01034900  0.80400000  1
  O  O12  1  0.26127900  0.10054900  0.89380900  1
  O  O13  1  0.01034900  0.80400000  0.61316800  1
  O  O14  1  0.75138600  0.89503200  0.11080100  1
  O  O15  1  0.45285300  0.22280600  0.57008200  1
  O  O16  1  0.22280600  0.57008200  0.45285300  1
  O  O17  1  0.10054900  0.89380900  0.26127900  1
  O  O18  1  0.57008200  0.45285300  0.22280600  1
  O  O19  1  0.80400000  0.61316800  0.01034900  1
  O  O20  1  0.89380900  0.26127900  0.10054900  1
  O  O21  1  0.71994000  0.46829000  0.88080400  1
  O  O22  1  0.46829000  0.88080400  0.71994000  1
  O  O23  1  0.88080400  0.71994000  0.46829000  1
loop_
_geom_bond_atom_site_label_1
_geom_bond_atom_site_label_2
_geom_bond_distance
_geom_bond_site_symmetry_2
Li0 O21 2.032665 1_555
Li0 O7 2.038895 1_555
Li0 O8 2.057152 1_555
Li0 O9 2.178975 1_555
Li1 O22 2.032665 1_555
Li1 O10 2.038895 1_555
Li1 O5 2.057152 1_555
Li1 O7 2.178975 1_555
Li2 O23 2.032665 1_555
Li2 O9 2.038895 1_555
Li2 O14 2.057152 1_555
Li2 O10 2.178975 1_555
Li3 O14 1.991555 1_556
Li3 O8 1.991555 1_565
Li3 O5 1.991555 1_655
Li4 O0 1.939407 1_555
Li4 O12 2.056267 1_555
Li4 O15 2.157563 1_555
Li4 O16 2.206122 1_555
Li5 O15 2.056507 1_555
Li5 O16 2.056507 1_555
Li5 O18 2.056507 1_555
Li6 O1 1.939407 1_555
Li6 O20 2.056267 1_555
Li6 O18 2.157563 1_555
Li6 O15 2.206122 1_555
Li7 O2 1.939407 1_555
Li7 O17 2.056267 1_555
Li7 O16 2.157563 1_555
Li7 O18 2.206122 1_555
Nb0 O6 2.034447 1_555
Nb0 O3 2.034447 1_555
Nb0 O4 2.034447 1_555
Nb0 O17 2.095407 1_545
Nb0 O12 2.095407 1_554
Nb0 O20 2.095407 1_455
Ni0 O23 2.027669 1_555
Ni0 O21 2.027669 1_555
Ni0 O22 2.027669 1_555
Ni0 O7 2.157121 1_555
Ni0 O10 2.157121 1_555
Ni0 O9 2.157121 1_555
Ni1 O19 1.990346 1_556
Ni1 O13 1.990346 1_655
Ni1 O11 1.990346 1_565
Ni1 O8 2.152050 1_565
Ni1 O5 2.152050 1_655
Ni1 O14 2.152050 1_556
Ni2 O0 2.004590 1_555
Ni2 O2 2.004590 1_555
Ni2 O1 2.004590 1_555
Ni2 O18 2.129950 1_555
Ni2 O15 2.129950 1_555
Ni2 O16 2.129950 1_555
O0 P1 1.536114 1_455
O1 P2 1.536114 1_545
O2 P0 1.536114 1_554
O3 P1 1.553533 1_455
O4 P2 1.553533 1_545
O5 P0 1.550038 1_555
O6 P0 1.553533 1_554
O7 P0 1.555823 1_555
O8 P1 1.550038 1_555
O9 P1 1.555824 1_555
O10 P2 1.555823 1_555
O11 P3 1.507424 1_555
O12 P3 1.591862 1_555
O13 P4 1.507424 1_555
O14 P2 1.550038 1_555
O15 P3 1.568689 1_555
O16 P4 1.568689 1_555
O17 P4 1.591862 1_555
O18 P5 1.568689 1_555
O19 P5 1.507424 1_555
O20 P5 1.591862 1_555
O21 P5 1.539790 1_556
O22 P3 1.539790 1_565
O23 P4 1.539790 1_655
