# generated using pymatgen
data_Li3Fe3NiO8
_symmetry_space_group_name_H-M   'P 1'
_cell_length_a   5.91526326
_cell_length_b   5.91526326
_cell_length_c   5.97447354
_cell_angle_alpha   60.10648928
_cell_angle_beta   60.10648928
_cell_angle_gamma   60.33719571
_symmetry_Int_Tables_number   1
_chemical_formula_structural   Li3Fe3NiO8
_chemical_formula_sum   'Li3 Fe3 Ni1 O8'
_cell_volume   148.43217865
_cell_formula_units_Z   1
loop_
 _symmetry_equiv_pos_site_id
 _symmetry_equiv_pos_as_xyz
  1  'x, y, z'
loop_
 _atom_site_type_symbol
 _atom_site_label
 _atom_site_symmetry_multiplicity
 _atom_site_fract_x
 _atom_site_fract_y
 _atom_site_fract_z
 _atom_site_occupancy
  Li  Li0  1  0.50000000  0.00000000  0.00000000  1
  Li  Li1  1  0.00000000  0.50000000  0.00000000  1
  Li  Li2  1  0.50000000  0.50000000  0.00000000  1
  Fe  Fe0  1  0.50000000  0.00000000  0.50000000  1
  Fe  Fe1  1  0.00000000  0.50000000  0.50000000  1
  Fe  Fe2  1  0.50000000  0.50000000  0.50000000  1
  Ni  Ni0  1  0.00000000  0.00000000  0.50000000  1
  O  O0  1  0.73494700  0.27782400  0.71792500  1
  O  O1  1  0.26678700  0.26678700  0.72337700  1
  O  O2  1  0.75570300  0.75570300  0.72357100  1
  O  O3  1  0.27782400  0.73494700  0.71792500  1
  O  O4  1  0.72217600  0.26505300  0.28207500  1
  O  O5  1  0.24429700  0.24429700  0.27642900  1
  O  O6  1  0.73321300  0.73321300  0.27662300  1
  O  O7  1  0.26505300  0.72217600  0.28207500  1
loop_
_geom_bond_atom_site_label_1
_geom_bond_atom_site_label_2
_geom_bond_distance
_geom_bond_site_symmetry_2
Li0 O0 2.153543 1_554
Li0 O7 2.153543 1_545
Li0 O6 2.154735 1_545
Li0 O1 2.154735 1_554
Li0 O2 2.197515 1_544
Li0 O5 2.197515 1_555
Li1 O3 2.153543 1_554
Li1 O4 2.153543 1_455
Li1 O6 2.154735 1_455
Li1 O1 2.154735 1_554
Li1 O2 2.197515 1_454
Li1 O5 2.197515 1_555
Li2 O4 2.136353 1_555
Li2 O7 2.136353 1_555
Li2 O3 2.136353 1_554
Li2 O0 2.136353 1_554
Li2 O2 2.141883 1_554
Li2 O5 2.141883 1_555
Fe0 O5 2.021535 1_555
Fe0 O2 2.021535 1_545
Fe0 O4 2.044427 1_555
Fe0 O3 2.044427 1_545
Fe0 O1 2.069769 1_555
Fe0 O6 2.069769 1_545
Fe1 O5 2.021535 1_555
Fe1 O2 2.021535 1_455
Fe1 O7 2.044427 1_555
Fe1 O0 2.044427 1_455
Fe1 O1 2.069769 1_555
Fe1 O6 2.069769 1_455
Fe2 O3 1.908939 1_555
Fe2 O0 1.908939 1_555
Fe2 O4 1.908939 1_555
Fe2 O7 1.908939 1_555
Fe2 O6 1.949508 1_555
Fe2 O1 1.949508 1_555
Ni0 O5 2.044405 1_555
Ni0 O2 2.044405 1_445
Ni0 O0 2.098058 1_455
Ni0 O3 2.098058 1_545
Ni0 O7 2.098058 1_545
Ni0 O4 2.098058 1_455
