# generated using pymatgen
data_Ba14Na8CaN6
_symmetry_space_group_name_H-M   'P 1'
_cell_length_a   11.47009555
_cell_length_b   11.47009555
_cell_length_c   21.67637000
_cell_angle_alpha   90.00000000
_cell_angle_beta   90.00000000
_cell_angle_gamma   119.99999740
_symmetry_Int_Tables_number   1
_chemical_formula_structural   Ba14Na8CaN6
_chemical_formula_sum   'Ba28 Na16 Ca2 N12'
_cell_volume   2469.74019555
_cell_formula_units_Z   2
loop_
 _symmetry_equiv_pos_site_id
 _symmetry_equiv_pos_as_xyz
  1  'x, y, z'
loop_
 _atom_site_type_symbol
 _atom_site_label
 _atom_site_symmetry_multiplicity
 _atom_site_fract_x
 _atom_site_fract_y
 _atom_site_fract_z
 _atom_site_occupancy
  Ba  Ba0  1  0.25461300  0.29040600  0.04982400  1
  Ba  Ba1  1  0.25461300  0.29040600  0.45017600  1
  Ba  Ba2  1  0.32931900  0.37699800  0.63839600  1
  Ba  Ba3  1  0.32931900  0.37699800  0.86160400  1
  Ba  Ba4  1  0.04767900  0.67068100  0.86160400  1
  Ba  Ba5  1  0.04767900  0.67068100  0.63839600  1
  Ba  Ba6  1  0.03579300  0.74538700  0.45017600  1
  Ba  Ba7  1  0.03579300  0.74538700  0.04982400  1
  Ba  Ba8  1  0.00000000  0.00000000  0.84848400  1
  Ba  Ba9  1  0.00000000  0.00000000  0.65151600  1
  Ba  Ba10  1  0.00000000  0.00000000  0.34848400  1
  Ba  Ba11  1  0.00000000  0.00000000  0.15151600  1
  Ba  Ba12  1  0.29040600  0.03579300  0.95017600  1
  Ba  Ba13  1  0.29040600  0.03579300  0.54982400  1
  Ba  Ba14  1  0.37699800  0.04767900  0.13839600  1
  Ba  Ba15  1  0.37699800  0.04767900  0.36160400  1
  Ba  Ba16  1  0.62300200  0.95232100  0.63839600  1
  Ba  Ba17  1  0.62300200  0.95232100  0.86160400  1
  Ba  Ba18  1  0.70959400  0.96420700  0.45017600  1
  Ba  Ba19  1  0.70959400  0.96420700  0.04982400  1
  Ba  Ba20  1  0.96420700  0.25461300  0.95017600  1
  Ba  Ba21  1  0.96420700  0.25461300  0.54982400  1
  Ba  Ba22  1  0.95232100  0.32931900  0.13839600  1
  Ba  Ba23  1  0.95232100  0.32931900  0.36160400  1
  Ba  Ba24  1  0.67068100  0.62300200  0.13839600  1
  Ba  Ba25  1  0.67068100  0.62300200  0.36160400  1
  Ba  Ba26  1  0.74538700  0.70959400  0.95017600  1
  Ba  Ba27  1  0.74538700  0.70959400  0.54982400  1
  Na  Na0  1  0.31416700  0.35315900  0.25000000  1
  Na  Na1  1  0.03899200  0.68583300  0.25000000  1
  Na  Na2  1  0.33333300  0.66666700  0.99088500  1
  Na  Na3  1  0.33333300  0.66666700  0.75000000  1
  Na  Na4  1  0.33333300  0.66666700  0.50911500  1
  Na  Na5  1  0.33333300  0.66666700  0.33537400  1
  Na  Na6  1  0.33333300  0.66666700  0.16462600  1
  Na  Na7  1  0.35315900  0.03899200  0.75000000  1
  Na  Na8  1  0.64684100  0.96100800  0.25000000  1
  Na  Na9  1  0.66666700  0.33333300  0.66462600  1
  Na  Na10  1  0.66666700  0.33333300  0.49088500  1
  Na  Na11  1  0.66666700  0.33333300  0.25000000  1
  Na  Na12  1  0.66666700  0.33333300  0.00911500  1
  Na  Na13  1  0.66666700  0.33333300  0.83537400  1
  Na  Na14  1  0.96100800  0.31416700  0.75000000  1
  Na  Na15  1  0.68583300  0.64684100  0.75000000  1
  Ca  Ca0  1  0.00000000  0.00000000  0.00000000  1
  Ca  Ca1  1  0.00000000  0.00000000  0.50000000  1
  N  N0  1  0.16832200  0.19372700  0.93168800  1
  N  N1  1  0.16832200  0.19372700  0.56831200  1
  N  N2  1  0.02540500  0.83167800  0.93168800  1
  N  N3  1  0.02540500  0.83167800  0.56831200  1
  N  N4  1  0.19372700  0.02540500  0.43168800  1
  N  N5  1  0.19372700  0.02540500  0.06831200  1
  N  N6  1  0.80627300  0.97459500  0.93168800  1
  N  N7  1  0.80627300  0.97459500  0.56831200  1
  N  N8  1  0.97459500  0.16832200  0.06831200  1
  N  N9  1  0.97459500  0.16832200  0.43168800  1
  N  N10  1  0.83167800  0.80627300  0.43168800  1
  N  N11  1  0.83167800  0.80627300  0.06831200  1
loop_
_geom_bond_atom_site_label_1
_geom_bond_atom_site_label_2
_geom_bond_distance
_geom_bond_site_symmetry_2
Ba0 N0 2.769342 1_554
Ba0 N5 2.786514 1_555
Ba0 N8 2.817761 1_455
Ba0 Na2 4.144441 1_554
Ba0 Na0 4.395534 1_555
Ba1 N1 2.769342 1_555
Ba1 N4 2.786514 1_555
Ba1 N9 2.817761 1_455
Ba1 Na4 4.144441 1_555
Ba1 Na0 4.395534 1_555
Ba2 N1 2.501010 1_555
Ba2 Na3 4.091545 1_555
Ba2 Na9 4.181440 1_555
Ba2 Na4 4.329144 1_555
Ba2 Na15 4.415587 1_555
Ba3 N0 2.501010 1_555
Ba3 Na3 4.091545 1_555
Ba3 Na13 4.181440 1_555
Ba3 Na2 4.329144 1_555
Ba3 Na15 4.415587 1_555
Ba4 N2 2.501010 1_555
Ba4 Na3 4.091536 1_555
Ba4 Na13 4.181434 1_455
Ba4 Na2 4.329135 1_555
Ba4 Na14 4.415587 1_455
Ba5 N3 2.501010 1_555
Ba5 Na3 4.091536 1_555
Ba5 Na9 4.181434 1_455
Ba5 Na4 4.329135 1_555
Ba5 Na14 4.415587 1_455
Ba6 N3 2.769342 1_555
Ba6 N10 2.786514 1_455
Ba6 N4 2.817761 1_565
Ba6 Na4 4.144430 1_555
Ba6 Na1 4.395534 1_555
Ba7 N2 2.769342 1_554
Ba7 N11 2.786514 1_455
Ba7 N5 2.817761 1_565
Ba7 Na2 4.144430 1_554
Ba7 Na1 4.395534 1_555
Ba8 N2 2.761851 1_545
Ba8 N6 2.761851 1_445
Ba8 N0 2.761851 1_555
Ba8 Na14 4.399356 1_455
Ba8 Na7 4.399356 1_555
Ba8 Na15 4.399356 1_445
Ba9 N3 2.761851 1_545
Ba9 N7 2.761851 1_445
Ba9 N1 2.761851 1_555
Ba9 Na14 4.399356 1_455
Ba9 Na7 4.399356 1_555
Ba9 Na15 4.399356 1_445
Ba10 N9 2.761851 1_455
Ba10 N4 2.761851 1_555
Ba10 N10 2.761851 1_445
Ba10 Na1 4.399356 1_545
Ba10 Na8 4.399356 1_445
Ba10 Na0 4.399356 1_555
Ba11 N8 2.761851 1_455
Ba11 N5 2.761851 1_555
Ba11 N11 2.761851 1_445
Ba11 Na1 4.399356 1_545
Ba11 Na8 4.399356 1_445
Ba11 Na0 4.399356 1_555
Ba12 N5 2.769342 1_556
Ba12 N2 2.786514 1_545
Ba12 N0 2.817761 1_555
Ba12 Na12 4.144437 1_556
Ba12 Na7 4.395534 1_555
Ba13 N4 2.769342 1_555
Ba13 N3 2.786514 1_545
Ba13 N1 2.817761 1_555
Ba13 Na10 4.144437 1_555
Ba13 Na7 4.395534 1_555
Ba14 N5 2.501010 1_555
Ba14 Na11 4.091541 1_555
Ba14 Na6 4.181429 1_545
Ba14 Na12 4.329140 1_555
Ba14 Na8 4.415586 1_545
Ba15 N4 2.501010 1_555
Ba15 Na11 4.091541 1_555
Ba15 Na5 4.181429 1_545
Ba15 Na10 4.329140 1_555
Ba15 Na8 4.415586 1_545
Ba16 N7 2.501010 1_555
Ba16 Na3 4.091541 1_555
Ba16 Na9 4.181429 1_565
Ba16 Na4 4.329140 1_555
Ba16 Na7 4.415586 1_565
Ba17 N6 2.501010 1_555
Ba17 Na3 4.091541 1_555
Ba17 Na13 4.181429 1_565
Ba17 Na2 4.329140 1_555
Ba17 Na7 4.415586 1_565
Ba18 N7 2.769342 1_555
Ba18 N9 2.786514 1_565
Ba18 N10 2.817761 1_555
Ba18 Na4 4.144437 1_555
Ba18 Na8 4.395534 1_555
Ba19 N6 2.769342 1_554
Ba19 N8 2.786514 1_565
Ba19 N11 2.817761 1_555
Ba19 Na2 4.144437 1_554
Ba19 Na8 4.395534 1_555
Ba20 N8 2.769342 1_556
Ba20 N0 2.786514 1_655
Ba20 N6 2.817761 1_545
Ba20 Na12 4.144430 1_556
Ba20 Na14 4.395534 1_555
Ba21 N9 2.769342 1_555
Ba21 N1 2.786514 1_655
Ba21 N7 2.817761 1_545
Ba21 Na10 4.144430 1_555
Ba21 Na14 4.395534 1_555
Ba22 N8 2.501010 1_555
Ba22 Na11 4.091536 1_555
Ba22 Na6 4.181434 1_655
Ba22 Na12 4.329135 1_555
Ba22 Na1 4.415587 1_655
Ba23 N9 2.501010 1_555
Ba23 Na11 4.091536 1_555
Ba23 Na5 4.181434 1_655
Ba23 Na10 4.329135 1_555
Ba23 Na1 4.415587 1_655
Ba24 N11 2.501010 1_555
Ba24 Na11 4.091545 1_555
Ba24 Na6 4.181440 1_555
Ba24 Na12 4.329144 1_555
Ba24 Na0 4.415587 1_555
Ba25 N10 2.501010 1_555
Ba25 Na11 4.091545 1_555
Ba25 Na5 4.181440 1_555
Ba25 Na10 4.329144 1_555
Ba25 Na0 4.415587 1_555
Ba26 N11 2.769342 1_556
Ba26 N6 2.786514 1_555
Ba26 N2 2.817761 1_655
Ba26 Na12 4.144441 1_556
Ba26 Na15 4.395534 1_555
Ba27 N10 2.769342 1_555
Ba27 N7 2.786514 1_555
Ba27 N3 2.817761 1_655
Ba27 Na10 4.144441 1_555
Ba27 Na15 4.395534 1_555
Na0 Na6 3.951392 1_555
Na0 Na5 3.951392 1_555
Na1 Na5 3.951382 1_555
Na1 Na6 3.951382 1_555
Na2 Na6 3.766074 1_556
Na4 Na5 3.766074 1_555
Na5 Na6 3.701197 1_555
Na5 Na8 3.951387 1_555
Na6 Na8 3.951387 1_555
Na7 Na9 3.951387 1_555
Na10 Na9 3.766074 1_555
Na12 Na13 3.766074 1_554
Na13 Na9 3.701197 1_555
Na13 Na14 3.951382 1_555
Na13 Na7 3.951387 1_555
Na13 Na15 3.951392 1_555
Na14 Na9 3.951382 1_555
Na15 Na9 3.951392 1_555
Ca0 N8 2.562739 1_455
Ca0 N2 2.562739 1_544
Ca0 N5 2.562739 1_555
Ca0 N6 2.562739 1_444
Ca0 N0 2.562739 1_554
Ca0 N11 2.562739 1_445
Ca1 N3 2.562739 1_545
Ca1 N9 2.562739 1_455
Ca1 N7 2.562739 1_445
Ca1 N4 2.562739 1_555
Ca1 N1 2.562739 1_555
Ca1 N10 2.562739 1_445
