# generated using pymatgen
data_Ti4O7
_symmetry_space_group_name_H-M   'P 1'
_cell_length_a   5.91134600
_cell_length_b   7.44378945
_cell_length_c   12.23415339
_cell_angle_alpha   97.04692900
_cell_angle_beta   92.30515807
_cell_angle_gamma   111.82347105
_symmetry_Int_Tables_number   1
_chemical_formula_structural   Ti4O7
_chemical_formula_sum   'Ti16 O28'
_cell_volume   493.82448257
_cell_formula_units_Z   4
loop_
 _symmetry_equiv_pos_site_id
 _symmetry_equiv_pos_as_xyz
  1  'x, y, z'
loop_
 _atom_site_type_symbol
 _atom_site_label
 _atom_site_symmetry_multiplicity
 _atom_site_fract_x
 _atom_site_fract_y
 _atom_site_fract_z
 _atom_site_occupancy
  Ti  Ti0  1  0.21509600  0.64622700  0.57510700  1
  Ti  Ti1  1  0.03827100  0.31793400  0.77433100  1
  Ti  Ti2  1  0.22870000  0.59423600  0.06484000  1
  Ti  Ti3  1  0.35627800  0.55072300  0.30646000  1
  Ti  Ti4  1  0.20341800  0.16952300  0.54573000  1
  Ti  Ti5  1  0.29288800  0.02079900  0.83240100  1
  Ti  Ti6  1  0.22734700  0.13760100  0.07171800  1
  Ti  Ti7  1  0.63637200  0.92799600  0.69840400  1
  Ti  Ti8  1  0.36362800  0.07200400  0.30159600  1
  Ti  Ti9  1  0.77265300  0.86239900  0.92828200  1
  Ti  Ti10  1  0.70711200  0.97920100  0.16759900  1
  Ti  Ti11  1  0.79658200  0.83047700  0.45427000  1
  Ti  Ti12  1  0.64372200  0.44927700  0.69354000  1
  Ti  Ti13  1  0.77130000  0.40576400  0.93516000  1
  Ti  Ti14  1  0.96172900  0.68206600  0.22566900  1
  Ti  Ti15  1  0.78490400  0.35377300  0.42489300  1
  O  O0  1  0.00495600  0.51146500  0.69471900  1
  O  O1  1  0.12737500  0.89653300  0.96297000  1
  O  O2  1  0.13073400  0.45409700  0.91616600  1
  O  O3  1  0.30443700  0.91088000  0.66021600  1
  O  O4  1  0.09830100  0.35520500  0.49835600  1
  O  O5  1  0.31874800  0.77711700  0.22159600  1
  O  O6  1  0.04290200  0.98244200  0.19401600  1
  O  O7  1  0.50103700  0.87805300  0.84786500  1
  O  O8  1  0.42199400  0.70917900  0.45236700  1
  O  O9  1  0.30445400  0.27622400  0.71003300  1
  O  O10  1  0.13358900  0.97465400  0.40975300  1
  O  O11  1  0.53143000  0.64770100  0.65980700  1
  O  O12  1  0.27547700  0.40709900  0.14036700  1
  O  O13  1  0.42792400  0.23543500  0.94944300  1
  O  O14  1  0.57207600  0.76456500  0.05055700  1
  O  O15  1  0.72452300  0.59290100  0.85963300  1
  O  O16  1  0.46857000  0.35229900  0.34019300  1
  O  O17  1  0.86641100  0.02534600  0.59024700  1
  O  O18  1  0.69554600  0.72377600  0.28996700  1
  O  O19  1  0.57800600  0.29082100  0.54763300  1
  O  O20  1  0.49896300  0.12194700  0.15213500  1
  O  O21  1  0.95709800  0.01755800  0.80598400  1
  O  O22  1  0.68125200  0.22288300  0.77840400  1
  O  O23  1  0.90169900  0.64479500  0.50164400  1
  O  O24  1  0.69556300  0.08912000  0.33978400  1
  O  O25  1  0.86926600  0.54590300  0.08383400  1
  O  O26  1  0.87262500  0.10346700  0.03703000  1
  O  O27  1  0.99504400  0.48853500  0.30528100  1
loop_
_geom_bond_atom_site_label_1
_geom_bond_atom_site_label_2
_geom_bond_distance
_geom_bond_site_symmetry_2
O0 Ti1 1.898040 1_555
O0 Ti12 2.008801 1_455
O0 Ti0 2.066569 1_555
O1 Ti6 1.975324 1_566
O1 Ti9 2.036520 1_455
O1 Ti5 2.044505 1_565
O2 Ti1 1.848612 1_555
O2 Ti2 1.931972 1_556
O2 Ti13 2.046907 1_455
O3 Ti7 1.952036 1_555
O3 Ti0 1.980652 1_555
O3 Ti5 2.177573 1_565
O3 Ti4 2.733913 1_565
O4 Ti4 1.854344 1_555
O4 Ti15 2.022134 1_455
O4 Ti0 2.094751 1_555
O5 Ti14 1.965717 1_455
O5 Ti2 2.133767 1_555
O5 Ti3 2.157755 1_555
O5 Ti8 2.205823 1_565
O5 Ti10 2.401651 1_555
O6 Ti10 1.988974 1_455
O6 Ti6 2.092933 1_565
O6 Ti8 2.101297 1_565
O6 Ti14 2.193017 1_455
O7 Ti9 1.897280 1_555
O7 Ti5 1.918724 1_565
O7 Ti7 2.045749 1_555
O8 Ti3 1.953328 1_555
O8 Ti0 1.965851 1_555
O8 Ti11 2.055042 1_555
O9 Ti1 1.895775 1_555
O9 Ti12 1.974280 1_555
O9 Ti4 2.046238 1_555
O9 Ti5 2.543804 1_555
O10 Ti8 1.942302 1_565
O10 Ti4 1.987324 1_565
O10 Ti11 2.014503 1_455
O11 Ti12 1.910245 1_555
O11 Ti7 1.932220 1_555
O11 Ti0 2.096837 1_555
O12 Ti2 1.858058 1_555
O12 Ti6 1.988397 1_555
O12 Ti3 2.123536 1_555
O13 Ti5 1.907541 1_555
O13 Ti13 1.981836 1_555
O13 Ti6 1.985447 1_556
O14 Ti10 1.907541 1_555
O14 Ti2 1.981836 1_555
O14 Ti9 1.985447 1_554
O15 Ti13 1.858058 1_555
O15 Ti9 1.988397 1_555
O15 Ti12 2.123536 1_555
O16 Ti3 1.910245 1_555
O16 Ti8 1.932220 1_555
O16 Ti15 2.096837 1_555
O17 Ti7 1.942302 1_545
O17 Ti11 1.987324 1_545
O17 Ti4 2.014503 1_655
O18 Ti14 1.895775 1_555
O18 Ti3 1.974280 1_555
O18 Ti11 2.046238 1_555
O18 Ti10 2.543804 1_555
O19 Ti12 1.953328 1_555
O19 Ti15 1.965851 1_555
O19 Ti4 2.055042 1_555
O20 Ti6 1.897280 1_555
O20 Ti10 1.918724 1_545
O20 Ti8 2.045749 1_555
O21 Ti5 1.988974 1_655
O21 Ti9 2.092933 1_545
O21 Ti7 2.101297 1_545
O21 Ti1 2.193017 1_655
O22 Ti1 1.965717 1_655
O22 Ti13 2.133767 1_555
O22 Ti12 2.157755 1_555
O22 Ti7 2.205823 1_545
O22 Ti5 2.401651 1_555
O23 Ti11 1.854344 1_555
O23 Ti0 2.022134 1_655
O23 Ti15 2.094751 1_555
O24 Ti8 1.952036 1_555
O24 Ti15 1.980652 1_555
O24 Ti10 2.177573 1_545
O24 Ti11 2.733913 1_545
O25 Ti14 1.848612 1_555
O25 Ti13 1.931972 1_554
O25 Ti2 2.046907 1_655
O26 Ti9 1.975324 1_544
O26 Ti6 2.036520 1_655
O26 Ti10 2.044505 1_545
O27 Ti14 1.898040 1_555
O27 Ti3 2.008801 1_655
O27 Ti15 2.066569 1_555
