# generated using pymatgen
data_Cu2(SO4)3
_symmetry_space_group_name_H-M   'P 1'
_cell_length_a   8.60412100
_cell_length_b   8.32382800
_cell_length_c   14.22001041
_cell_angle_alpha   55.38755097
_cell_angle_beta   90.00000000
_cell_angle_gamma   90.00000000
_symmetry_Int_Tables_number   1
_chemical_formula_structural   Cu2(SO4)3
_chemical_formula_sum   'Cu8 S12 O48'
_cell_volume   838.17788989
_cell_formula_units_Z   4
loop_
 _symmetry_equiv_pos_site_id
 _symmetry_equiv_pos_as_xyz
  1  'x, y, z'
loop_
 _atom_site_type_symbol
 _atom_site_label
 _atom_site_symmetry_multiplicity
 _atom_site_fract_x
 _atom_site_fract_y
 _atom_site_fract_z
 _atom_site_occupancy
  Cu  Cu0  1  0.96795600  0.35949200  0.89150100  1
  Cu  Cu1  1  0.46795600  0.64050800  0.60849900  1
  Cu  Cu2  1  0.03200400  0.86727900  0.38517000  1
  Cu  Cu3  1  0.53200400  0.13272100  0.11483000  1
  Cu  Cu4  1  0.46799600  0.86727900  0.88517000  1
  Cu  Cu5  1  0.96799600  0.13272100  0.61483000  1
  Cu  Cu6  1  0.53204400  0.35949200  0.39150100  1
  Cu  Cu7  1  0.03204400  0.64050800  0.10849900  1
  S  S0  1  0.75079800  0.54887700  0.49302100  1
  S  S1  1  0.62180500  0.26186600  0.84884100  1
  S  S2  1  0.88634500  0.97137800  0.14530400  1
  S  S3  1  0.12180500  0.73813400  0.65115900  1
  S  S4  1  0.38634500  0.02862200  0.35469600  1
  S  S5  1  0.25079800  0.45112300  0.00697900  1
  S  S6  1  0.74920200  0.54887700  0.99302100  1
  S  S7  1  0.61365500  0.97137800  0.64530400  1
  S  S8  1  0.87819500  0.26186600  0.34884100  1
  S  S9  1  0.11365500  0.02862200  0.85469600  1
  S  S10  1  0.37819500  0.73813400  0.15115900  1
  S  S11  1  0.24920200  0.45112300  0.50697900  1
  O  O0  1  0.12591400  0.59849400  0.44737200  1
  O  O1  1  0.11716400  0.14829600  0.90119200  1
  O  O2  1  0.32285700  0.45125800  0.60165600  1
  O  O3  1  0.42310400  0.86399700  0.19014600  1
  O  O4  1  0.63928400  0.51212000  0.58251300  1
  O  O5  1  0.79307800  0.28948000  0.83134300  1
  O  O6  1  0.58554300  0.15756200  0.97184500  1
  O  O7  1  0.99746200  0.87972400  0.24258400  1
  O  O8  1  0.73019800  0.97630200  0.18831700  1
  O  O9  1  0.81738400  0.74748500  0.44034100  1
  O  O10  1  0.53541000  0.44843300  0.78309600  1
  O  O11  1  0.03541000  0.55156700  0.71690400  1
  O  O12  1  0.94030300  0.17436800  0.05965000  1
  O  O13  1  0.44030300  0.82563200  0.44035000  1
  O  O14  1  0.31738400  0.25251500  0.05965900  1
  O  O15  1  0.23019800  0.02369800  0.31168300  1
  O  O16  1  0.08554300  0.84243800  0.52815500  1
  O  O17  1  0.49746200  0.12027600  0.25741600  1
  O  O18  1  0.29307800  0.71052000  0.66865700  1
  O  O19  1  0.13928400  0.48788000  0.91748700  1
  O  O20  1  0.82285700  0.54874200  0.89834400  1
  O  O21  1  0.61716400  0.85170400  0.59880800  1
  O  O22  1  0.92310400  0.13600300  0.30985400  1
  O  O23  1  0.62591400  0.40150600  0.05262800  1
  O  O24  1  0.37408600  0.59849400  0.94737200  1
  O  O25  1  0.07689600  0.86399700  0.69014600  1
  O  O26  1  0.38283600  0.14829600  0.40119200  1
  O  O27  1  0.17714300  0.45125800  0.10165600  1
  O  O28  1  0.86071600  0.51212000  0.08251300  1
  O  O29  1  0.70692200  0.28948000  0.33134300  1
  O  O30  1  0.50253800  0.87972400  0.74258400  1
  O  O31  1  0.91445700  0.15756200  0.47184500  1
  O  O32  1  0.76980200  0.97630200  0.68831700  1
  O  O33  1  0.68261600  0.74748500  0.94034100  1
  O  O34  1  0.55969700  0.17436800  0.55965000  1
  O  O35  1  0.05969700  0.82563200  0.94035000  1
  O  O36  1  0.96459000  0.44843300  0.28309600  1
  O  O37  1  0.46459000  0.55156700  0.21690400  1
  O  O38  1  0.18261600  0.25251500  0.55965900  1
  O  O39  1  0.26980200  0.02369800  0.81168300  1
  O  O40  1  0.00253800  0.12027600  0.75741600  1
  O  O41  1  0.41445700  0.84243800  0.02815500  1
  O  O42  1  0.20692200  0.71052000  0.16865700  1
  O  O43  1  0.36071600  0.48788000  0.41748700  1
  O  O44  1  0.57689600  0.13600300  0.80985400  1
  O  O45  1  0.67714300  0.54874200  0.39834400  1
  O  O46  1  0.88283600  0.85170400  0.09880800  1
  O  O47  1  0.87408600  0.40150600  0.55262800  1
loop_
_geom_bond_atom_site_label_1
_geom_bond_atom_site_label_2
_geom_bond_distance
_geom_bond_site_symmetry_2
Cu0 O19 1.974917 1_655
Cu0 O5 1.975296 1_555
Cu0 O12 1.990628 1_556
Cu0 O20 2.055178 1_555
Cu0 O1 2.117155 1_655
Cu0 O11 2.132529 1_655
Cu1 O4 1.974917 1_555
Cu1 O18 1.975296 1_555
Cu1 O13 1.990628 1_555
Cu1 O2 2.055178 1_555
Cu1 O21 2.117155 1_555
Cu1 O10 2.132529 1_555
Cu2 O16 1.977737 1_555
Cu2 O7 1.992864 1_455
Cu2 O9 2.032501 1_455
Cu2 O15 2.037040 1_565
Cu2 O0 2.047605 1_555
Cu2 O22 2.075279 1_465
Cu3 O6 1.977737 1_554
Cu3 O17 1.992864 1_555
Cu3 O14 2.032501 1_555
Cu3 O8 2.037040 1_545
Cu3 O23 2.047605 1_555
Cu3 O3 2.075279 1_545
Cu4 O41 1.977737 1_556
Cu4 O30 1.992864 1_555
Cu4 O33 2.032501 1_555
Cu4 O39 2.037040 1_565
Cu4 O24 2.047605 1_555
Cu4 O44 2.075279 1_565
Cu5 O31 1.977737 1_555
Cu5 O40 1.992864 1_655
Cu5 O38 2.032501 1_655
Cu5 O32 2.037040 1_545
Cu5 O47 2.047605 1_555
Cu5 O25 2.075279 1_645
Cu6 O43 1.974917 1_555
Cu6 O29 1.975296 1_555
Cu6 O34 1.990628 1_555
Cu6 O45 2.055178 1_555
Cu6 O26 2.117155 1_555
Cu6 O37 2.132529 1_555
Cu7 O28 1.974917 1_455
Cu7 O42 1.975296 1_555
Cu7 O35 1.990628 1_554
Cu7 O27 2.055178 1_555
Cu7 O46 2.117155 1_455
Cu7 O36 2.132529 1_455
O0 S11 1.472165 1_555
O1 S9 1.476007 1_555
O2 S11 1.488586 1_555
O3 S10 1.487983 1_555
O4 S0 1.480317 1_555
O5 S1 1.490445 1_555
O6 S1 1.478292 1_555
O7 S2 1.486858 1_555
O8 S2 1.486366 1_555
O9 S0 1.488457 1_555
O10 S1 1.479492 1_555
O11 S3 1.479492 1_555
O12 S2 1.488628 1_545
O13 S4 1.488628 1_565
O14 S5 1.488457 1_555
O15 S4 1.486366 1_555
O16 S3 1.478292 1_555
O17 S4 1.486858 1_555
O18 S3 1.490445 1_555
O19 S5 1.480317 1_556
O20 S6 1.488586 1_555
O21 S7 1.476007 1_555
O22 S8 1.487983 1_555
O23 S6 1.472165 1_554
O24 S5 1.472165 1_556
O25 S3 1.487983 1_555
O26 S4 1.476007 1_555
O27 S5 1.488586 1_555
O28 S6 1.480317 1_554
O29 S8 1.490445 1_555
O30 S7 1.486858 1_555
O31 S8 1.478292 1_555
O32 S7 1.486366 1_555
O33 S6 1.488457 1_555
O34 S7 1.488628 1_545
O35 S9 1.488628 1_565
O36 S8 1.479492 1_555
O37 S10 1.479492 1_555
O38 S11 1.488457 1_555
O39 S9 1.486366 1_555
O40 S9 1.486858 1_555
O41 S10 1.478292 1_555
O42 S10 1.490445 1_555
O43 S11 1.480317 1_555
O44 S1 1.487983 1_555
O45 S0 1.488586 1_555
O46 S2 1.476007 1_555
O47 S0 1.472165 1_555
