# generated using pymatgen
data_Li10V(SiO5)2
_symmetry_space_group_name_H-M   'P 1'
_cell_length_a   15.31371171
_cell_length_b   15.31371171
_cell_length_c   5.14641444
_cell_angle_alpha   81.15592161
_cell_angle_beta   81.15592161
_cell_angle_gamma   23.11361524
_symmetry_Int_Tables_number   1
_chemical_formula_structural   Li10V(SiO5)2
_chemical_formula_sum   'Li20 V2 Si4 O20'
_cell_volume   467.89940551
_cell_formula_units_Z   2
loop_
 _symmetry_equiv_pos_site_id
 _symmetry_equiv_pos_as_xyz
  1  'x, y, z'
loop_
 _atom_site_type_symbol
 _atom_site_label
 _atom_site_symmetry_multiplicity
 _atom_site_fract_x
 _atom_site_fract_y
 _atom_site_fract_z
 _atom_site_occupancy
  Li  Li0  1  0.49037500  0.49037500  0.25999300  1
  Li  Li1  1  0.21691100  0.65101300  0.88837700  1
  Li  Li2  1  0.65101300  0.21691100  0.88837700  1
  Li  Li3  1  0.86846000  0.86846000  0.77862100  1
  Li  Li4  1  0.08714400  0.64880500  0.23362300  1
  Li  Li5  1  0.64880500  0.08714400  0.23362300  1
  Li  Li6  1  0.32428900  0.32428900  0.93235100  1
  Li  Li7  1  0.04686200  0.56213300  0.60072900  1
  Li  Li8  1  0.56213300  0.04686200  0.60072900  1
  Li  Li9  1  0.26873400  0.26873400  0.32549400  1
  Li  Li10  1  0.73126600  0.73126600  0.67450600  1
  Li  Li11  1  0.43786700  0.95313800  0.39927100  1
  Li  Li12  1  0.95313800  0.43786700  0.39927100  1
  Li  Li13  1  0.67571100  0.67571100  0.06764900  1
  Li  Li14  1  0.35119500  0.91285600  0.76637700  1
  Li  Li15  1  0.91285600  0.35119500  0.76637700  1
  Li  Li16  1  0.13154000  0.13154000  0.22137900  1
  Li  Li17  1  0.78308900  0.34898700  0.11162300  1
  Li  Li18  1  0.34898700  0.78308900  0.11162300  1
  Li  Li19  1  0.50962500  0.50962500  0.74000700  1
  V  V0  1  0.96355500  0.96355500  0.21650600  1
  V  V1  1  0.03644500  0.03644500  0.78349400  1
  Si  Si0  1  0.39920500  0.39920500  0.50699900  1
  Si  Si1  1  0.78004300  0.78004300  0.12881200  1
  Si  Si2  1  0.21995700  0.21995700  0.87118800  1
  Si  Si3  1  0.60079500  0.60079500  0.49300100  1
  O  O0  1  0.44917700  0.44917700  0.60059400  1
  O  O1  1  0.90804400  0.90804400  0.06225100  1
  O  O2  1  0.40380400  0.40380400  0.18139300  1
  O  O3  1  0.15190200  0.58918200  0.62194800  1
  O  O4  1  0.58918200  0.15190200  0.62194800  1
  O  O5  1  0.58146600  0.02979900  0.21718800  1
  O  O6  1  0.02979900  0.58146600  0.21718800  1
  O  O7  1  0.78537700  0.78537700  0.80573200  1
  O  O8  1  0.27059500  0.27059500  0.72113000  1
  O  O9  1  0.72940500  0.72940500  0.27887000  1
  O  O10  1  0.21462300  0.21462300  0.19426800  1
  O  O11  1  0.41853400  0.97020100  0.78281200  1
  O  O12  1  0.97020100  0.41853400  0.78281200  1
  O  O13  1  0.41081800  0.84809800  0.37805200  1
  O  O14  1  0.84809800  0.41081800  0.37805200  1
  O  O15  1  0.59619600  0.59619600  0.81860700  1
  O  O16  1  0.09195600  0.09195600  0.93774900  1
  O  O17  1  0.55082300  0.55082300  0.39940600  1
  O  O18  1  0.24038600  0.75961400  0.00000000  1
  O  O19  1  0.75961400  0.24038600  0.00000000  1
loop_
_geom_bond_atom_site_label_1
_geom_bond_atom_site_label_2
_geom_bond_distance
_geom_bond_site_symmetry_2
Li0 O0 1.980070 1_555
Li0 O17 2.052610 1_555
Li0 O19 2.071226 1_555
Li0 O18 2.071226 1_555
Li1 O0 1.990833 1_555
Li1 O1 2.049711 1_456
Li1 O2 2.106730 1_556
Li1 O18 2.163815 1_556
Li1 O3 2.514073 1_555
Li2 O0 1.990833 1_555
Li2 O1 2.049711 1_546
Li2 O2 2.106730 1_556
Li2 O19 2.163815 1_556
Li2 O4 2.514073 1_555
Li3 O4 1.902274 1_565
Li3 O3 1.902274 1_655
Li3 O1 2.021293 1_556
Li3 O7 2.474974 1_555
Li4 O6 1.886039 1_555
Li4 O1 1.923315 1_455
Li4 O2 2.026487 1_555
Li4 O3 2.047877 1_555
Li5 O5 1.886039 1_555
Li5 O1 1.923315 1_545
Li5 O2 2.026487 1_555
Li5 O4 2.047877 1_555
Li6 O8 2.080189 1_555
Li6 O5 2.251479 1_556
Li6 O6 2.251479 1_556
Li6 O3 2.362632 1_555
Li6 O4 2.362632 1_555
Li7 O7 1.861131 1_455
Li7 O8 1.928728 1_555
Li7 O6 1.971968 1_555
Li7 O3 2.016057 1_555
Li8 O7 1.861131 1_545
Li8 O8 1.928728 1_555
Li8 O5 1.971968 1_555
Li8 O4 2.016057 1_555
Li9 O10 1.853803 1_555
Li9 O8 2.045614 1_555
Li9 O6 2.051186 1_555
Li9 O5 2.051186 1_555
Li10 O7 1.853803 1_555
Li10 O9 2.045614 1_555
Li10 O11 2.051186 1_555
Li10 O12 2.051186 1_555
Li11 O10 1.861131 1_565
Li11 O9 1.928728 1_555
Li11 O11 1.971968 1_555
Li11 O13 2.016057 1_555
Li12 O10 1.861131 1_655
Li12 O9 1.928728 1_555
Li12 O12 1.971968 1_555
Li12 O14 2.016057 1_555
Li13 O9 2.080189 1_555
Li13 O12 2.251479 1_554
Li13 O11 2.251479 1_554
Li13 O13 2.362632 1_555
Li13 O14 2.362632 1_555
Li14 O11 1.886039 1_555
Li14 O16 1.923315 1_565
Li14 O15 2.026487 1_555
Li14 O13 2.047877 1_555
Li15 O12 1.886039 1_555
Li15 O16 1.923315 1_655
Li15 O15 2.026487 1_555
Li15 O14 2.047877 1_555
Li16 O13 1.902274 1_545
Li16 O14 1.902274 1_455
Li16 O16 2.021293 1_554
Li16 O10 2.474974 1_555
Li17 O17 1.990833 1_555
Li17 O16 2.049711 1_654
Li17 O15 2.106730 1_554
Li17 O19 2.163815 1_555
Li17 O14 2.514073 1_555
Li18 O17 1.990833 1_555
Li18 O16 2.049711 1_564
Li18 O15 2.106730 1_554
Li18 O18 2.163815 1_555
Li18 O13 2.514073 1_555
Li19 O17 1.980070 1_555
Li19 O0 2.052610 1_555
Li19 O18 2.071226 1_556
Li19 O19 2.071226 1_556
O0 Si0 1.645344 1_555
O1 V0 1.954420 1_555
O2 Si0 1.659653 1_555
O3 Si0 1.652197 1_555
O4 Si0 1.652197 1_555
O5 Si1 1.672708 1_545
O6 Si1 1.672708 1_455
O7 Si1 1.645198 1_556
O8 Si2 1.592761 1_555
O9 Si1 1.592761 1_555
O10 Si2 1.645198 1_554
O11 Si2 1.672708 1_565
O12 Si2 1.672708 1_655
O13 Si3 1.652197 1_555
O14 Si3 1.652197 1_555
O15 Si3 1.659653 1_555
O16 V1 1.954420 1_555
O17 Si3 1.645344 1_555
O18 V0 2.056835 1_455
O18 V1 2.056835 1_564
O19 V0 2.056835 1_545
O19 V1 2.056835 1_654
