# generated using pymatgen
data_Li8CrO6
_symmetry_space_group_name_H-M   'P 1'
_cell_length_a   5.46733335
_cell_length_b   5.46733467
_cell_length_c   10.64871009
_cell_angle_alpha   90.00000436
_cell_angle_beta   89.99991862
_cell_angle_gamma   119.99932876
_symmetry_Int_Tables_number   1
_chemical_formula_structural   Li8CrO6
_chemical_formula_sum   'Li16 Cr2 O12'
_cell_volume   275.66509949
_cell_formula_units_Z   2
loop_
 _symmetry_equiv_pos_site_id
 _symmetry_equiv_pos_as_xyz
  1  'x, y, z'
loop_
 _atom_site_type_symbol
 _atom_site_label
 _atom_site_symmetry_multiplicity
 _atom_site_fract_x
 _atom_site_fract_y
 _atom_site_fract_z
 _atom_site_occupancy
  Li  Li0  1  0.00005704  0.68738149  0.76704373  1
  Li  Li1  1  0.00000902  0.60905278  0.12883021  1
  Li  Li2  1  -0.00000748  0.39093845  0.62881818  1
  Li  Li3  1  -0.00005543  0.31262373  0.26705216  1
  Li  Li4  1  0.33333311  0.66666573  0.40722340  1
  Li  Li5  1  0.33333345  0.66666682  0.90722209  1
  Li  Li6  1  0.31268310  0.31268302  0.76705132  1
  Li  Li7  1  0.39095622  0.39095531  0.12883996  1
  Li  Li8  1  0.60905175  0.60905084  0.62882904  1
  Li  Li9  1  0.31262155  -0.00005534  0.26705239  1
  Li  Li10  1  0.68731654  0.68731607  0.26705929  1
  Li  Li11  1  0.39093522  -0.00001236  0.62881943  1
  Li  Li12  1  0.66666671  0.33333345  0.90722188  1
  Li  Li13  1  0.66666550  0.33333281  0.40722400  1
  Li  Li14  1  0.60905278  0.00000996  0.12883218  1
  Li  Li15  1  0.68738282  0.00005752  0.76704357  1
  Cr  Cr0  1  0.00000035  0.00000040  0.99464457  1
  Cr  Cr1  1  -0.00000150  -0.00000189  0.49464058  1
  O  O0  1  0.00000556  0.68986066  0.94975264  1
  O  O1  1  -0.00000598  0.31013981  0.44974818  1
  O  O2  1  0.33333045  0.66666214  0.21697897  1
  O  O3  1  -0.00000551  -0.00000537  0.16573394  1
  O  O4  1  0.00000621  0.00000564  0.66572561  1
  O  O5  1  0.33333808  0.66666896  0.71697033  1
  O  O6  1  0.31014141  0.31014149  0.94975336  1
  O  O7  1  0.31013928  -0.00000648  0.44974846  1
  O  O8  1  0.68985881  0.68985863  0.44974947  1
  O  O9  1  0.66666952  0.33333790  0.71697017  1
  O  O10  1  0.66666202  0.33333095  0.21697908  1
  O  O11  1  0.68986040  0.00000589  0.94975283  1
loop_
_geom_bond_atom_site_label_1
_geom_bond_atom_site_label_2
_geom_bond_distance
_geom_bond_site_symmetry_2
Li0 O0 1.945662 1_555
Li0 O5 1.955440 1_555
Li0 O9 1.955859 1_455
Li0 O4 2.021374 1_565
Li1 O2 1.930647 1_555
Li1 O10 1.930750 1_455
Li1 O0 1.957457 1_554
Li1 O3 2.173274 1_565
Li2 O9 1.930683 1_455
Li2 O5 1.930780 1_555
Li2 O1 1.957366 1_555
Li2 O4 2.173231 1_555
Li3 O1 1.945525 1_555
Li3 O10 1.955433 1_455
Li3 O2 1.955838 1_555
Li3 O3 2.021395 1_555
Li4 O7 1.942532 1_565
Li4 O8 1.942561 1_555
Li4 O1 1.942590 1_555
Li4 O2 2.025858 1_555
Li5 O0 1.942545 1_555
Li5 O6 1.942574 1_555
Li5 O11 1.942608 1_565
Li5 O5 2.025936 1_555
Li6 O6 1.945591 1_555
Li6 O5 1.955563 1_555
Li6 O9 1.955565 1_555
Li6 O4 2.021560 1_555
Li7 O10 1.930607 1_555
Li7 O2 1.930615 1_555
Li7 O6 1.957558 1_554
Li7 O3 2.173341 1_555
Li8 O9 1.930631 1_555
Li8 O5 1.930634 1_555
Li8 O8 1.957476 1_555
Li8 O4 2.173312 1_665
Li9 O7 1.945526 1_555
Li9 O2 1.955438 1_545
Li9 O10 1.955845 1_555
Li9 O3 2.021388 1_555
Li10 O8 1.945464 1_555
Li10 O10 1.955557 1_555
Li10 O2 1.955564 1_555
Li10 O3 2.021561 1_665
Li11 O5 1.930665 1_545
Li11 O9 1.930793 1_555
Li11 O7 1.957376 1_555
Li11 O4 2.173218 1_555
Li12 O11 1.942545 1_555
Li12 O6 1.942573 1_555
Li12 O0 1.942609 1_655
Li12 O9 2.025935 1_555
Li13 O1 1.942531 1_655
Li13 O8 1.942559 1_555
Li13 O7 1.942590 1_555
Li13 O10 2.025863 1_555
Li14 O10 1.930635 1_555
Li14 O2 1.930743 1_545
Li14 O11 1.957475 1_554
Li14 O3 2.173272 1_655
Li15 O11 1.945666 1_555
Li15 O9 1.955440 1_555
Li15 O5 1.955864 1_545
Li15 O4 2.021370 1_655
Cr0 O0 1.761749 1_545
Cr0 O11 1.761750 1_455
Cr0 O6 1.761756 1_555
Cr0 O3 1.821881 1_556
Cr1 O8 1.761749 1_445
Cr1 O7 1.761752 1_555
Cr1 O1 1.761759 1_555
Cr1 O4 1.821835 1_555
