# generated using pymatgen
data_Rb5FeO4
_symmetry_space_group_name_H-M   'P 1'
_cell_length_a   11.78626277
_cell_length_b   6.95816060
_cell_length_c   10.88918410
_cell_angle_alpha   82.49623427
_cell_angle_beta   90.00000000
_cell_angle_gamma   90.00000000
_symmetry_Int_Tables_number   1
_chemical_formula_structural   Rb5FeO4
_chemical_formula_sum   'Rb20 Fe4 O16'
_cell_volume   885.38205508
_cell_formula_units_Z   4
loop_
 _symmetry_equiv_pos_site_id
 _symmetry_equiv_pos_as_xyz
  1  'x, y, z'
loop_
 _atom_site_type_symbol
 _atom_site_label
 _atom_site_symmetry_multiplicity
 _atom_site_fract_x
 _atom_site_fract_y
 _atom_site_fract_z
 _atom_site_occupancy
  Rb  Rb0  1  0.91169409  0.22557630  0.01343374  1
  Rb  Rb1  1  0.58830591  0.72557630  0.01343374  1
  Rb  Rb2  1  0.17124225  0.17579654  0.14886627  1
  Rb  Rb3  1  0.32875775  0.67579654  0.14886627  1
  Rb  Rb4  1  0.70416340  -0.01464779  0.24089859  1
  Rb  Rb5  1  0.79583660  0.48535221  0.24089859  1
  Rb  Rb6  1  0.07036116  0.44603377  0.36777048  1
  Rb  Rb7  1  0.42963884  0.94603377  0.36777048  1
  Rb  Rb8  1  0.86114491  0.07822045  0.50660510  1
  Rb  Rb9  1  0.36114491  0.42177955  0.49339490  1
  Rb  Rb10  1  0.63885509  0.57822045  0.50660510  1
  Rb  Rb11  1  0.13885509  0.92177955  0.49339490  1
  Rb  Rb12  1  0.57036116  0.05396623  0.63222952  1
  Rb  Rb13  1  0.92963884  0.55396623  0.63222952  1
  Rb  Rb14  1  0.20416340  0.51464779  0.75910141  1
  Rb  Rb15  1  0.29583660  0.01464779  0.75910141  1
  Rb  Rb16  1  0.67124225  0.32420346  0.85113373  1
  Rb  Rb17  1  0.82875775  0.82420346  0.85113373  1
  Rb  Rb18  1  0.41169409  0.27442370  0.98656626  1
  Rb  Rb19  1  0.08830591  0.77442370  0.98656626  1
  Fe  Fe0  1  0.53276359  0.37569351  0.25317956  1
  Fe  Fe1  1  0.96723641  0.87569351  0.25317956  1
  Fe  Fe2  1  0.03276359  0.12430649  0.74682044  1
  Fe  Fe3  1  0.46723641  0.62430649  0.74682044  1
  O  O0  1  0.61233354  0.32951615  0.10610745  1
  O  O1  1  0.88766646  0.82951615  0.10610745  1
  O  O2  1  0.37613498  0.30516263  0.24276516  1
  O  O3  1  0.95930941  0.14519727  0.26935387  1
  O  O4  1  0.12386502  0.80516263  0.24276516  1
  O  O5  1  0.54069059  0.64519727  0.26935387  1
  O  O6  1  0.60257856  0.23585687  0.39511833  1
  O  O7  1  0.89742144  0.73585687  0.39511833  1
  O  O8  1  0.10257856  0.26414313  0.60488167  1
  O  O9  1  0.39742144  0.76414313  0.60488167  1
  O  O10  1  0.45930941  0.35480273  0.73064613  1
  O  O11  1  0.87613498  0.19483737  0.75723484  1
  O  O12  1  0.04069059  0.85480273  0.73064613  1
  O  O13  1  0.62386502  0.69483737  0.75723484  1
  O  O14  1  0.11233354  0.17048385  0.89389255  1
  O  O15  1  0.38766646  0.67048385  0.89389255  1
loop_
_geom_bond_atom_site_label_1
_geom_bond_atom_site_label_2
_geom_bond_distance
_geom_bond_site_symmetry_2
Fe0 O6 1.902609 1_555
Fe0 O5 1.908553 1_555
Fe0 O2 1.917344 1_555
Fe0 O0 1.918842 1_555
Fe1 O7 1.902609 1_555
Fe1 O3 1.908553 1_565
Fe1 O4 1.917344 1_655
Fe1 O1 1.918842 1_555
Fe2 O8 1.902609 1_555
Fe2 O12 1.908553 1_545
Fe2 O11 1.917344 1_455
Fe2 O14 1.918842 1_555
Fe3 O9 1.902609 1_555
Fe3 O10 1.908553 1_555
Fe3 O13 1.917344 1_555
Fe3 O15 1.918842 1_555
O0 Rb18 2.750263 1_554
O0 Rb1 2.822573 1_555
O0 Rb4 2.853516 1_555
O0 Rb16 2.866871 1_554
O0 Rb5 2.902338 1_555
O1 Rb19 2.750263 1_654
O1 Rb0 2.822573 1_565
O1 Rb5 2.853516 1_555
O1 Rb17 2.866871 1_554
O1 Rb4 2.902338 1_565
O2 Rb3 2.705448 1_555
O2 Rb7 2.757993 1_545
O2 Rb2 2.815664 1_555
O2 Rb18 2.856609 1_554
O2 Rb9 2.952343 1_555
O3 Rb6 2.798099 1_655
O3 Rb8 2.813483 1_555
O3 Rb2 2.816599 1_655
O3 Rb0 2.826078 1_555
O3 Rb5 3.036241 1_555
O3 Rb4 3.235186 1_555
O4 Rb2 2.705448 1_565
O4 Rb6 2.757993 1_555
O4 Rb3 2.815664 1_555
O4 Rb19 2.856609 1_554
O4 Rb11 2.952343 1_555
O5 Rb7 2.798099 1_555
O5 Rb10 2.813483 1_555
O5 Rb3 2.816599 1_555
O5 Rb1 2.826078 1_555
O5 Rb4 3.036241 1_565
O5 Rb5 3.235186 1_555
O6 Rb12 2.749356 1_555
O6 Rb4 2.838385 1_555
O6 Rb10 2.843752 1_555
O6 Rb7 2.909824 1_545
O6 Rb5 3.203252 1_555
O7 Rb13 2.749356 1_555
O7 Rb5 2.838385 1_555
O7 Rb8 2.843752 1_565
O7 Rb6 2.909824 1_655
O7 Rb4 3.203252 1_565
O8 Rb6 2.749356 1_555
O8 Rb14 2.838385 1_555
O8 Rb11 2.843752 1_545
O8 Rb13 2.909824 1_455
O8 Rb15 3.203252 1_555
O9 Rb7 2.749356 1_555
O9 Rb15 2.838385 1_565
O9 Rb9 2.843752 1_555
O9 Rb12 2.909824 1_565
O9 Rb14 3.203252 1_555
O10 Rb12 2.798099 1_555
O10 Rb9 2.813483 1_555
O10 Rb16 2.816599 1_555
O10 Rb18 2.826078 1_555
O10 Rb15 3.036241 1_555
O10 Rb14 3.235186 1_555
O11 Rb17 2.705448 1_545
O11 Rb13 2.757993 1_555
O11 Rb16 2.815664 1_555
O11 Rb0 2.856609 1_556
O11 Rb8 2.952343 1_555
O12 Rb13 2.798099 1_455
O12 Rb11 2.813483 1_555
O12 Rb17 2.816599 1_455
O12 Rb19 2.826078 1_555
O12 Rb14 3.036241 1_555
O12 Rb15 3.235186 1_565
O13 Rb16 2.705448 1_555
O13 Rb12 2.757993 1_565
O13 Rb17 2.815664 1_555
O13 Rb1 2.856609 1_556
O13 Rb10 2.952343 1_555
O14 Rb0 2.750263 1_456
O14 Rb19 2.822573 1_545
O14 Rb14 2.853516 1_555
O14 Rb2 2.866871 1_556
O14 Rb15 2.902338 1_555
O15 Rb1 2.750263 1_556
O15 Rb18 2.822573 1_555
O15 Rb15 2.853516 1_565
O15 Rb3 2.866871 1_556
O15 Rb14 2.902338 1_555
