# generated using pymatgen
data_Li3CoPCO7
_symmetry_space_group_name_H-M   'P 1'
_cell_length_a   6.38357914
_cell_length_b   8.59175271
_cell_length_c   9.82013188
_cell_angle_alpha   84.93015061
_cell_angle_beta   89.94589953
_cell_angle_gamma   90.03683867
_symmetry_Int_Tables_number   1
_chemical_formula_structural   Li3CoPCO7
_chemical_formula_sum   'Li12 Co4 P4 C4 O28'
_cell_volume   536.48873401
_cell_formula_units_Z   4
loop_
 _symmetry_equiv_pos_site_id
 _symmetry_equiv_pos_as_xyz
  1  'x, y, z'
loop_
 _atom_site_type_symbol
 _atom_site_label
 _atom_site_symmetry_multiplicity
 _atom_site_fract_x
 _atom_site_fract_y
 _atom_site_fract_z
 _atom_site_occupancy
  Li  Li0  1  0.26402800  0.10919800  0.38869600  1
  Li  Li1  1  0.26628500  0.10710600  0.88875100  1
  Li  Li2  1  0.76808900  0.89158200  0.11016400  1
  Li  Li3  1  0.76500100  0.89186500  0.61251300  1
  Li  Li4  1  0.47890800  0.28325400  0.12136800  1
  Li  Li5  1  0.47897500  0.28360800  0.62139700  1
  Li  Li6  1  0.98959900  0.71623600  0.37723100  1
  Li  Li7  1  0.98035400  0.71618800  0.87846900  1
  Li  Li8  1  0.74142200  0.35815600  0.39062100  1
  Li  Li9  1  0.74154700  0.35672500  0.88970200  1
  Li  Li10  1  0.24222100  0.64373900  0.11233300  1
  Li  Li11  1  0.24145100  0.64273600  0.60823700  1
  Co  Co0  1  0.99568200  0.26761400  0.62767300  1
  Co  Co1  1  0.49514300  0.73309700  0.87212900  1
  Co  Co2  1  0.99630800  0.26761800  0.12785000  1
  Co  Co3  1  0.50336000  0.74003500  0.37047400  1
  P  P0  1  0.24970000  0.40868700  0.36204300  1
  P  P1  1  0.24760400  0.40856000  0.86197400  1
  P  P2  1  0.74677100  0.59088300  0.13813600  1
  P  P3  1  0.74571200  0.59158500  0.63745100  1
  C  C0  1  0.76230900  0.04151800  0.35191800  1
  C  C1  1  0.76309200  0.04093900  0.85196400  1
  C  C2  1  0.25862100  0.95720800  0.14937300  1
  C  C3  1  0.26353100  0.95969200  0.64787700  1
  O  O0  1  0.76064700  0.06475300  0.47808800  1
  O  O1  1  0.75998300  0.06589200  0.97809600  1
  O  O2  1  0.25934600  0.93361800  0.02287700  1
  O  O3  1  0.26248500  0.93562900  0.52149100  1
  O  O4  1  0.24369900  0.10079300  0.18768700  1
  O  O5  1  0.24480800  0.10287100  0.68642000  1
  O  O6  1  0.74126600  0.89777500  0.31306100  1
  O  O7  1  0.74498200  0.89736800  0.81414400  1
  O  O8  1  0.78047600  0.15579200  0.25700900  1
  O  O9  1  0.77966900  0.15576400  0.75675500  1
  O  O10  1  0.26815200  0.84086600  0.24404000  1
  O  O11  1  0.27853800  0.84432300  0.74273300  1
  O  O12  1  0.05557700  0.31726100  0.42486700  1
  O  O13  1  0.05494100  0.31605600  0.92492000  1
  O  O14  1  0.55501000  0.68491300  0.07583900  1
  O  O15  1  0.55325300  0.68454000  0.57580600  1
  O  O16  1  0.44051800  0.30918500  0.41200000  1
  O  O17  1  0.43986300  0.31098300  0.91226200  1
  O  O18  1  0.93975800  0.68779600  0.08794000  1
  O  O19  1  0.93857100  0.68861800  0.58613100  1
  O  O20  1  0.74669100  0.42108300  0.09572700  1
  O  O21  1  0.74632500  0.42125000  0.59611600  1
  O  O22  1  0.25329900  0.57810700  0.40397000  1
  O  O23  1  0.24797700  0.57850500  0.90395500  1
  O  O24  1  0.23105900  0.41453900  0.20232100  1
  O  O25  1  0.22966100  0.41513300  0.70238200  1
  O  O26  1  0.72820500  0.58351700  0.29774500  1
  O  O27  1  0.72952200  0.58524100  0.79727300  1
loop_
_geom_bond_atom_site_label_1
_geom_bond_atom_site_label_2
_geom_bond_distance
_geom_bond_site_symmetry_2
Li0 O3 1.892298 1_545
Li0 O4 1.985986 1_555
Li0 O16 2.083632 1_555
Li0 O12 2.281849 1_555
Li1 O2 1.900371 1_546
Li1 O5 1.995306 1_555
Li1 O17 2.102108 1_555
Li1 O13 2.298723 1_555
Li2 O1 1.893284 1_564
Li2 O6 2.005047 1_555
Li2 O18 2.093722 1_555
Li2 O14 2.284788 1_555
Li3 O0 1.898254 1_565
Li3 O7 1.988772 1_555
Li3 O19 2.103822 1_555
Li3 O15 2.289398 1_555
Li4 O17 2.061580 1_554
Li4 O20 2.081272 1_555
Li4 O24 2.136804 1_555
Li4 O4 2.225041 1_555
Li4 O8 2.535593 1_555
Li5 O16 2.063519 1_555
Li5 O21 2.077863 1_555
Li5 O25 2.145023 1_555
Li5 O5 2.207606 1_555
Li5 O9 2.531271 1_555
Li6 O22 2.063823 1_655
Li6 O19 2.069629 1_555
Li6 O26 2.202540 1_555
Li6 O6 2.274700 1_555
Li6 O10 2.401006 1_655
Li7 O18 2.065980 1_556
Li7 O23 2.081266 1_655
Li7 O27 2.150360 1_555
Li7 O7 2.216022 1_555
Li7 O11 2.518954 1_655
Li8 O16 1.973154 1_555
Li8 O12 2.059031 1_655
Li8 O26 2.067909 1_555
Li8 O21 2.135545 1_555
Li8 O8 2.282499 1_555
Li9 O17 1.973617 1_555
Li9 O13 2.055444 1_655
Li9 O27 2.090422 1_555
Li9 O20 2.144286 1_556
Li9 O9 2.267867 1_555
Li10 O18 1.978491 1_455
Li10 O14 2.053235 1_555
Li10 O24 2.087102 1_555
Li10 O23 2.169196 1_554
Li10 O10 2.226195 1_555
Li11 O19 1.981775 1_455
Li11 O15 2.042019 1_555
Li11 O25 2.089153 1_555
Li11 O22 2.129420 1_555
Li11 O11 2.281363 1_555
Co0 O12 2.035373 1_655
Co0 O9 2.052188 1_555
Co0 O21 2.074505 1_555
Co0 O25 2.130624 1_655
Co0 O5 2.173861 1_655
Co1 O14 2.043171 1_556
Co1 O11 2.056737 1_555
Co1 O23 2.067440 1_555
Co1 O27 2.134969 1_555
Co1 O7 2.170984 1_555
Co2 O13 2.033802 1_654
Co2 O8 2.051763 1_555
Co2 O20 2.075394 1_555
Co2 O24 2.129952 1_655
Co2 O4 2.179333 1_655
Co3 O15 2.055744 1_555
Co3 O6 2.078876 1_555
Co3 O10 2.088436 1_555
Co3 O22 2.123006 1_555
Co3 O26 2.132817 1_555
C0 O0 1.272318 1_555
C0 O8 1.297685 1_555
C0 O6 1.331186 1_545
C1 O1 1.275720 1_555
C1 O9 1.302033 1_555
C1 O7 1.324295 1_545
C2 O2 1.276193 1_555
C2 O10 1.305009 1_555
C2 O4 1.324628 1_565
C3 O3 1.276146 1_555
C3 O11 1.302494 1_555
C3 O5 1.324096 1_565
O12 P0 1.563621 1_555
O13 P1 1.561038 1_555
O14 P2 1.562286 1_555
O15 P3 1.559140 1_555
O16 P0 1.543903 1_555
O17 P1 1.543463 1_555
O18 P2 1.542394 1_555
O19 P3 1.545298 1_555
O20 P2 1.552144 1_555
O21 P3 1.552914 1_555
O22 P0 1.547502 1_555
O23 P1 1.551875 1_555
O24 P0 1.569482 1_555
O25 P1 1.567538 1_555
O26 P2 1.567432 1_555
O27 P3 1.568906 1_555
