# generated using pymatgen
data_Mn2O3F
_symmetry_space_group_name_H-M   'P 1'
_cell_length_a   7.38926654
_cell_length_b   7.38926654
_cell_length_c   6.33003500
_cell_angle_alpha   90.00000000
_cell_angle_beta   90.00000000
_cell_angle_gamma   131.73551322
_symmetry_Int_Tables_number   1
_chemical_formula_structural   Mn2O3F
_chemical_formula_sum   'Mn8 O12 F4'
_cell_volume   257.91641668
_cell_formula_units_Z   4
loop_
 _symmetry_equiv_pos_site_id
 _symmetry_equiv_pos_as_xyz
  1  'x, y, z'
loop_
 _atom_site_type_symbol
 _atom_site_label
 _atom_site_symmetry_multiplicity
 _atom_site_fract_x
 _atom_site_fract_y
 _atom_site_fract_z
 _atom_site_occupancy
  Mn  Mn0  1  0.76207000  0.76207000  0.00000000  1
  Mn  Mn1  1  0.23793000  0.23793000  0.00000000  1
  Mn  Mn2  1  0.75735900  0.24264100  0.00000000  1
  Mn  Mn3  1  0.50000000  0.50000000  0.50000000  1
  Mn  Mn4  1  0.24264100  0.75735900  0.00000000  1
  Mn  Mn5  1  0.00000000  0.00000000  0.50000000  1
  Mn  Mn6  1  0.00000000  0.50000000  0.50000000  1
  Mn  Mn7  1  0.50000000  0.00000000  0.50000000  1
  O  O0  1  0.90822000  0.09178000  0.00000000  1
  O  O1  1  0.75109200  0.75109200  0.69462300  1
  O  O2  1  0.24890800  0.24890800  0.69462300  1
  O  O3  1  0.50000000  0.00000000  0.80626800  1
  O  O4  1  0.75109200  0.75109200  0.30537700  1
  O  O5  1  0.24890800  0.24890800  0.30537700  1
  O  O6  1  0.00000000  0.50000000  0.80626800  1
  O  O7  1  0.09178000  0.90822000  0.00000000  1
  O  O8  1  0.34456300  0.65543700  0.50000000  1
  O  O9  1  0.65543700  0.34456300  0.50000000  1
  O  O10  1  0.50000000  0.00000000  0.19373200  1
  O  O11  1  0.00000000  0.50000000  0.19373200  1
  F  F0  1  0.40661300  0.59338700  0.00000000  1
  F  F1  1  0.85884900  0.14115100  0.50000000  1
  F  F2  1  0.59338700  0.40661300  0.00000000  1
  F  F3  1  0.14115100  0.85884900  0.50000000  1
loop_
_geom_bond_atom_site_label_1
_geom_bond_atom_site_label_2
_geom_bond_distance
_geom_bond_site_symmetry_2
Mn0 O0 1.897083 1_565
Mn0 O7 1.897083 1_655
Mn0 O4 1.934185 1_555
Mn0 O1 1.934185 1_554
Mn1 O7 1.897083 1_545
Mn1 O0 1.897083 1_455
Mn1 O2 1.934185 1_554
Mn1 O5 1.934185 1_555
Mn2 O10 1.948188 1_555
Mn2 O11 1.948188 1_655
Mn2 O6 1.948188 1_654
Mn2 O3 1.948188 1_554
Mn2 O0 2.034655 1_555
Mn3 O2 1.954335 1_555
Mn3 O4 1.954335 1_555
Mn3 O1 1.954335 1_555
Mn3 O5 1.954335 1_555
Mn3 O9 2.096371 1_555
Mn3 O8 2.096371 1_555
Mn4 O10 1.948188 1_565
Mn4 O11 1.948188 1_555
Mn4 O3 1.948188 1_564
Mn4 O6 1.948188 1_554
Mn4 O7 2.034655 1_555
Mn5 O4 1.944109 1_445
Mn5 O1 1.944109 1_445
Mn5 O5 1.944109 1_555
Mn5 O2 1.944109 1_555
Mn6 O6 1.938687 1_555
Mn6 O11 1.938687 1_555
Mn6 O8 1.976931 1_555
Mn6 O9 1.976931 1_455
Mn7 O10 1.938687 1_555
Mn7 O3 1.938687 1_555
Mn7 O9 1.976931 1_555
Mn7 O8 1.976931 1_545
F0 Mn1 2.023288 1_555
F0 Mn0 2.023288 1_555
F0 Mn4 2.211482 1_555
F1 Mn5 1.903697 1_655
F1 Mn7 2.106381 1_555
F1 Mn6 2.106381 1_655
F2 Mn1 2.023288 1_555
F2 Mn0 2.023288 1_555
F2 Mn2 2.211482 1_555
F3 Mn5 1.903697 1_565
F3 Mn7 2.106381 1_565
F3 Mn6 2.106381 1_555
