# generated using pymatgen
data_Li5V3P8O29
_symmetry_space_group_name_H-M   'P 1'
_cell_length_a   9.78692500
_cell_length_b   9.80251059
_cell_length_c   14.08415730
_cell_angle_alpha   89.74092330
_cell_angle_beta   90.75809654
_cell_angle_gamma   119.68582406
_symmetry_Int_Tables_number   1
_chemical_formula_structural   Li5V3P8O29
_chemical_formula_sum   'Li10 V6 P16 O58'
_cell_volume   1173.74052043
_cell_formula_units_Z   2
loop_
 _symmetry_equiv_pos_site_id
 _symmetry_equiv_pos_as_xyz
  1  'x, y, z'
loop_
 _atom_site_type_symbol
 _atom_site_label
 _atom_site_symmetry_multiplicity
 _atom_site_fract_x
 _atom_site_fract_y
 _atom_site_fract_z
 _atom_site_occupancy
  Li  Li0  1  0.22750900  0.90846900  0.44353700  1
  Li  Li1  1  0.08322200  0.31383200  0.43909000  1
  Li  Li2  1  0.32266900  0.67073600  0.10903000  1
  Li  Li3  1  0.23042200  0.32048600  0.93827600  1
  Li  Li4  1  0.67209400  0.90527700  0.93588000  1
  Li  Li5  1  0.31887100  0.23082300  0.56409600  1
  Li  Li6  1  0.67692100  0.77207300  0.44228500  1
  Li  Li7  1  0.33147300  0.09519400  0.05910000  1
  Li  Li8  1  0.90528500  0.68134700  0.56468700  1
  Li  Li9  1  0.96438400  0.94508400  0.00005900  1
  V  V0  1  0.43359900  0.43715800  0.75432000  1
  V  V1  1  0.57319300  0.56747200  0.24818700  1
  V  V2  1  0.43346100  0.00049000  0.25413900  1
  V  V3  1  0.57211900  0.00474300  0.74807200  1
  V  V4  1  0.00382400  0.56756500  0.75573100  1
  V  V5  1  0.99544600  0.43336100  0.24324600  1
  P  P0  1  0.08614300  0.78145800  0.15908400  1
  P  P1  1  0.22985200  0.91212300  0.66170700  1
  P  P2  1  0.08566100  0.31996300  0.65588200  1
  P  P3  1  0.33923200  0.67223200  0.87202800  1
  P  P4  1  0.33179000  0.66197900  0.36928800  1
  P  P5  1  0.22819800  0.31716500  0.15793500  1
  P  P6  1  0.32035300  0.23401500  0.34283500  1
  P  P7  1  0.68201700  0.90892600  0.15491600  1
  P  P8  1  0.31760500  0.08767600  0.84439400  1
  P  P9  1  0.67657600  0.76727600  0.65741100  1
  P  P10  1  0.77755000  0.69079500  0.83879200  1
  P  P11  1  0.66245100  0.33479700  0.63052900  1
  P  P12  1  0.66048500  0.33149200  0.12733100  1
  P  P13  1  0.91604000  0.68159300  0.34372100  1
  P  P14  1  0.77486500  0.08572000  0.33798300  1
  P  P15  1  0.91894100  0.22257800  0.83942300  1
  O  O0  1  0.99832800  0.75830500  0.43530900  1
  O  O1  1  0.08321800  0.74802300  0.66060200  1
  O  O2  1  0.23637600  0.01027700  0.93414600  1
  O  O3  1  0.25978900  0.92194900  0.16471100  1
  O  O4  1  0.09931100  0.62950900  0.16510900  1
  O  O5  1  0.19721500  0.68024600  0.82985400  1
  O  O6  1  0.09452000  0.47853100  0.67973800  1
  O  O7  1  0.00737800  0.20112900  0.91991600  1
  O  O8  1  0.08860400  0.34477900  0.15636800  1
  O  O9  1  0.32804500  0.81310800  0.33338900  1
  O  O10  1  0.38137000  0.90161400  0.68026400  1
  O  O11  1  0.18326300  0.51647700  0.32360000  1
  O  O12  1  0.34936000  0.67582300  0.97902100  1
  O  O13  1  0.33597100  0.65595500  0.47474300  1
  O  O14  1  0.32766900  0.51370900  0.83712700  1
  O  O15  1  0.51828500  0.89312700  0.16882000  1
  O  O16  1  0.49442100  0.81670800  0.83274700  1
  O  O17  1  0.25341700  0.33924300  0.66554400  1
  O  O18  1  0.20991000  0.21278900  0.25138800  1
  O  O19  1  0.24658800  0.24987800  0.43156900  1
  O  O20  1  0.23817900  0.23378100  0.07126100  1
  O  O21  1  0.38111200  0.48066600  0.17244700  1
  O  O22  1  0.48219500  0.66431600  0.32598600  1
  O  O23  1  0.34107300  0.25571000  0.83994700  1
  O  O24  1  0.51793300  0.62249900  0.67716300  1
  O  O25  1  0.65804400  0.91536900  0.66586900  1
  O  O26  1  0.20933400  0.00117600  0.75151200  1
  O  O27  1  0.24427000  0.00225300  0.57199800  1
  O  O28  1  0.76139000  0.98780900  0.42109200  1
  O  O29  1  0.33591800  0.08450700  0.34383700  1
  O  O30  1  0.47960600  0.38199300  0.32188200  1
  O  O31  1  0.66005100  0.74049800  0.17023000  1
  O  O32  1  0.51226700  0.33126100  0.67137800  1
  O  O33  1  0.61838300  0.53652500  0.83081500  1
  O  O34  1  0.79094300  0.79488100  0.91943900  1
  O  O35  1  0.75025300  0.75777400  0.56667200  1
  O  O36  1  0.79754600  0.78713200  0.74156100  1
  O  O37  1  0.74771700  0.66390800  0.33991200  1
  O  O38  1  0.51268300  0.18500200  0.16669900  1
  O  O39  1  0.47385200  0.08742500  0.82806200  1
  O  O40  1  0.66361600  0.48057100  0.17724800  1
  O  O41  1  0.65733900  0.34234200  0.02276400  1
  O  O42  1  0.65110400  0.31672500  0.52552600  1
  O  O43  1  0.81270900  0.48331100  0.66790200  1
  O  O44  1  0.62044300  0.09355300  0.31927200  1
  O  O45  1  0.66175800  0.18487100  0.68014500  1
  O  O46  1  0.91287800  0.65373400  0.83577200  1
  O  O47  1  0.00979700  0.79710000  0.25739700  1
  O  O48  1  0.00193700  0.80066200  0.07718600  1
  O  O49  1  0.90417400  0.52305100  0.32550100  1
  O  O50  1  0.81194500  0.33604600  0.17111500  1
  O  O51  1  0.91861800  0.37791200  0.83368100  1
  O  O52  1  0.74522700  0.08158400  0.83790100  1
  O  O53  1  0.76076300  0.97376200  0.06292200  1
  O  O54  1  0.79593000  0.00971900  0.24042600  1
  O  O55  1  0.91720400  0.25219800  0.33814300  1
  O  O56  1  0.01160300  0.25355000  0.56273900  1
  O  O57  1  0.98786800  0.20111400  0.74001100  1
loop_
_geom_bond_atom_site_label_1
_geom_bond_atom_site_label_2
_geom_bond_distance
_geom_bond_site_symmetry_2
Li0 O0 1.983824 1_455
Li0 O27 2.000828 1_565
Li0 O29 2.068638 1_565
Li0 O9 2.283227 1_555
Li1 O56 1.867089 1_555
Li1 O19 1.989584 1_555
Li1 O55 2.000179 1_455
Li1 O11 2.374197 1_555
Li2 O12 1.849989 1_554
Li2 O4 2.175655 1_555
Li2 O15 2.228632 1_555
Li2 O21 2.371345 1_555
Li3 O7 1.912843 1_555
Li3 O23 2.054884 1_555
Li3 O20 2.069287 1_556
Li3 O14 2.179164 1_555
Li4 O53 1.948849 1_556
Li4 O34 1.958007 1_555
Li4 O52 2.045179 1_565
Li4 O16 2.082442 1_555
Li5 O27 1.986241 1_555
Li5 O19 2.027824 1_555
Li5 O17 2.072117 1_555
Li5 O32 2.219660 1_555
Li6 O28 1.874540 1_555
Li6 O35 1.915198 1_555
Li6 O37 2.109764 1_555
Li6 O22 2.317285 1_555
Li7 O2 1.964385 1_554
Li7 O20 1.985794 1_555
Li7 O3 2.100800 1_545
Li7 O38 2.147405 1_555
Li8 O35 1.997854 1_555
Li8 O0 2.017350 1_555
Li8 O1 2.025582 1_655
Li8 O43 2.229306 1_555
Li9 O48 1.951960 1_655
Li9 O34 1.956300 1_554
Li9 O53 2.331970 1_555
Li9 O7 2.586799 1_664
Li9 O2 2.594477 1_664
O0 P13 1.503141 1_555
O1 P1 1.536366 1_555
O1 V4 2.042718 1_555
O2 P8 1.491989 1_555
O3 P0 1.571712 1_555
O3 V2 1.929798 1_565
O4 P0 1.559186 1_555
O4 V5 2.003969 1_455
O5 P3 1.541661 1_555
O5 V4 1.944133 1_555
O6 P2 1.551426 1_555
O6 V4 1.869771 1_555
O7 P15 1.493550 1_455
O8 P5 1.518450 1_555
O8 V5 1.976291 1_455
O9 P4 1.580561 1_555
O9 V2 1.954237 1_565
O10 P1 1.555219 1_555
O10 V3 1.873875 1_565
O11 P4 1.578404 1_555
O11 V5 1.947642 1_455
O12 P3 1.508278 1_555
O13 P4 1.486979 1_555
O14 P3 1.581254 1_555
O14 V0 1.951547 1_555
O15 P7 1.546721 1_555
O15 V2 2.035668 1_565
O16 P3 1.582154 1_555
O16 V3 2.003435 1_565
O17 P2 1.561017 1_555
O17 V0 1.967309 1_555
O18 P6 1.616564 1_555
O18 P5 1.619857 1_555
O19 P6 1.498015 1_555
O20 P5 1.503025 1_555
O21 P5 1.571399 1_555
O21 V1 1.940793 1_555
O22 P4 1.590437 1_555
O22 V1 1.941035 1_555
O23 P8 1.547425 1_555
O23 V0 1.962694 1_555
O24 P9 1.525606 1_555
O24 V0 1.919252 1_555
O25 P9 1.554797 1_555
O25 V3 1.892034 1_565
O26 P1 1.610117 1_545
O26 P8 1.623732 1_555
O27 P1 1.505986 1_545
O28 P14 1.475544 1_565
O29 P6 1.546654 1_555
O29 V2 2.001419 1_555
O30 P6 1.545768 1_555
O30 V1 1.892237 1_555
O31 P7 1.570045 1_555
O31 V1 1.839736 1_555
O32 P11 1.569828 1_555
O32 V0 1.965027 1_555
O33 P10 1.545865 1_555
O33 V0 1.895574 1_555
O34 P10 1.490779 1_555
O35 P9 1.501281 1_555
O36 P9 1.606527 1_555
O36 P10 1.617941 1_555
O37 P13 1.568955 1_555
O37 V1 1.957896 1_555
O38 P12 1.555151 1_555
O38 V2 2.001309 1_555
O39 P8 1.550594 1_555
O39 V3 1.913118 1_555
O40 P12 1.610934 1_555
O40 V1 1.812406 1_555
O41 P12 1.477107 1_555
O42 P11 1.486383 1_555
O43 P11 1.557226 1_555
O43 V4 2.031920 1_655
O44 P14 1.569598 1_555
O44 V2 1.825423 1_555
O45 P11 1.621483 1_555
O45 V3 1.809766 1_555
O46 P10 1.538231 1_555
O46 V4 1.885838 1_655
O47 P13 1.609397 1_455
O47 P0 1.625378 1_555
O48 P0 1.473646 1_555
O49 P13 1.522710 1_555
O49 V5 1.930670 1_555
O50 P12 1.577998 1_555
O50 V5 1.852282 1_555
O51 P15 1.526008 1_555
O51 V4 1.956292 1_655
O52 P15 1.572576 1_555
O52 V3 1.930341 1_555
O53 P7 1.486753 1_555
O54 P7 1.598039 1_545
O54 P14 1.629205 1_555
O55 P14 1.533612 1_555
O55 V5 2.045744 1_555
O56 P2 1.478268 1_555
O57 P2 1.609457 1_655
O57 P15 1.621095 1_555
