# generated using pymatgen
data_Na5LiCo2P2(CO7)2
_symmetry_space_group_name_H-M   'P 1'
_cell_length_a   8.51666449
_cell_length_b   8.50060418
_cell_length_c   8.83872421
_cell_angle_alpha   91.32790356
_cell_angle_beta   88.22553786
_cell_angle_gamma   75.27741065
_symmetry_Int_Tables_number   1
_chemical_formula_structural   Na5LiCo2P2(CO7)2
_chemical_formula_sum   'Na10 Li2 Co4 P4 C4 O28'
_cell_volume   618.27019727
_cell_formula_units_Z   2
loop_
 _symmetry_equiv_pos_site_id
 _symmetry_equiv_pos_as_xyz
  1  'x, y, z'
loop_
 _atom_site_type_symbol
 _atom_site_label
 _atom_site_symmetry_multiplicity
 _atom_site_fract_x
 _atom_site_fract_y
 _atom_site_fract_z
 _atom_site_occupancy
  Na  Na0  1  0.48812000  0.26332100  0.91475300  1
  Na  Na1  1  0.98790200  0.76356600  0.91468900  1
  Na  Na2  1  0.13436200  0.87434200  0.26604200  1
  Na  Na3  1  0.63435700  0.37460600  0.26643600  1
  Na  Na4  1  0.37526400  0.11709100  0.26392500  1
  Na  Na5  1  0.87483800  0.61706300  0.26420800  1
  Na  Na6  1  0.86403900  0.12748400  0.72876500  1
  Na  Na7  1  0.36364800  0.62832300  0.72841300  1
  Na  Na8  1  0.62139200  0.88405800  0.73104100  1
  Na  Na9  1  0.12195700  0.38457200  0.73109900  1
  Li  Li0  1  0.51289500  0.73842600  0.10639500  1
  Li  Li1  1  0.01279600  0.23696400  0.10604100  1
  Co  Co0  1  0.76319600  0.98650400  0.34355200  1
  Co  Co1  1  0.26276800  0.48633300  0.34383000  1
  Co  Co2  1  0.73713700  0.51888100  0.64806100  1
  Co  Co3  1  0.23660800  0.02051700  0.64582000  1
  P  P0  1  0.48484100  0.76455100  0.41018200  1
  P  P1  1  0.98434300  0.26504500  0.41035200  1
  P  P2  1  0.51312600  0.23719400  0.58282800  1
  P  P3  1  0.01293300  0.73740500  0.58261200  1
  C  C0  1  0.73101700  0.01872600  0.05904500  1
  C  C1  1  0.23138700  0.51830900  0.05898800  1
  C  C2  1  0.27220800  0.97765300  0.94893700  1
  C  C3  1  0.77222800  0.47784400  0.94990600  1
  O  O0  1  0.32097700  0.93034100  0.08180800  1
  O  O1  1  0.82079800  0.42981200  0.08259400  1
  O  O2  1  0.84450600  0.90545100  0.11624800  1
  O  O3  1  0.34407900  0.40431600  0.11617400  1
  O  O4  1  0.63198700  0.11935300  0.15410400  1
  O  O5  1  0.13264800  0.61930600  0.15402100  1
  O  O6  1  0.44484000  0.30351800  0.43041200  1
  O  O7  1  0.94511400  0.80305600  0.42990600  1
  O  O8  1  0.33548400  0.91252600  0.44411100  1
  O  O9  1  0.83596200  0.41392200  0.44317300  1
  O  O10  1  0.66151800  0.08666200  0.55097700  1
  O  O11  1  0.16204800  0.58733600  0.55115300  1
  O  O12  1  0.55358200  0.69693800  0.56251900  1
  O  O13  1  0.05177600  0.19771000  0.56341200  1
  O  O14  1  0.34833400  0.89599700  0.82874800  1
  O  O15  1  0.84828500  0.39626000  0.82961100  1
  O  O16  1  0.15044700  0.10270400  0.93156000  1
  O  O17  1  0.65113500  0.60353500  0.93249900  1
  O  O18  1  0.71670700  0.03128200  0.91483100  1
  O  O19  1  0.21736700  0.53137200  0.91475100  1
  O  O20  1  0.43174500  0.63538300  0.30929500  1
  O  O21  1  0.93149500  0.13551500  0.30961400  1
  O  O22  1  0.61341900  0.81917600  0.30868000  1
  O  O23  1  0.11413200  0.31815000  0.30906700  1
  O  O24  1  0.38206600  0.18303500  0.68270600  1
  O  O25  1  0.88251700  0.68190300  0.68216900  1
  O  O26  1  0.56789900  0.36773300  0.68015900  1
  O  O27  1  0.06577100  0.86892400  0.67977800  1
loop_
_geom_bond_atom_site_label_1
_geom_bond_atom_site_label_2
_geom_bond_distance
_geom_bond_site_symmetry_2
Na0 O3 2.264823 1_556
Na0 O18 2.393538 1_555
Na0 O24 2.418960 1_555
Na0 O26 2.419389 1_555
Na0 O4 2.644419 1_556
Na0 O19 2.799753 1_555
Na1 O2 2.266491 1_556
Na1 O19 2.398866 1_655
Na1 O27 2.419877 1_655
Na1 O25 2.424048 1_555
Na1 O5 2.647964 1_656
Na1 O18 2.800302 1_565
Na2 O7 2.335644 1_455
Na2 O5 2.366030 1_555
Na2 O0 2.380011 1_555
Na2 O8 2.437702 1_555
Na2 O21 2.455993 1_465
Na2 O2 2.793515 1_455
Na2 O20 2.857966 1_555
Na3 O6 2.337175 1_555
Na3 O4 2.370212 1_555
Na3 O1 2.374069 1_555
Na3 O9 2.435903 1_555
Na3 O20 2.451834 1_555
Na3 O3 2.800180 1_555
Na3 O21 2.856916 1_555
Na4 O6 2.334770 1_555
Na4 O4 2.369352 1_555
Na4 O0 2.371849 1_545
Na4 O23 2.451083 1_555
Na4 O8 2.463626 1_545
Na4 O3 2.752635 1_555
Na4 O22 2.858162 1_545
Na5 O7 2.330413 1_555
Na5 O1 2.371065 1_555
Na5 O5 2.378990 1_655
Na5 O9 2.445090 1_555
Na5 O22 2.456319 1_555
Na5 O2 2.763035 1_555
Na5 O23 2.869085 1_655
Na6 O18 2.324646 1_555
Na6 O13 2.330171 1_655
Na6 O15 2.403127 1_555
Na6 O27 2.441430 1_645
Na6 O10 2.451841 1_555
Na7 O19 2.324129 1_555
Na7 O12 2.340761 1_555
Na7 O14 2.393608 1_555
Na7 O11 2.443238 1_555
Na7 O26 2.463039 1_555
Na8 O18 2.316875 1_565
Na8 O12 2.343647 1_555
Na8 O14 2.432255 1_555
Na8 O10 2.451215 1_565
Na8 O25 2.459483 1_555
Na9 O19 2.314226 1_555
Na9 O13 2.346370 1_555
Na9 O15 2.439903 1_455
Na9 O24 2.450245 1_555
Na9 O11 2.451461 1_555
Li0 O0 2.015779 1_555
Li0 O17 2.045348 1_554
Li0 O22 2.176576 1_555
Li0 O20 2.182855 1_555
Li1 O1 2.019505 1_455
Li1 O16 2.044906 1_554
Li1 O21 2.181506 1_455
Li1 O23 2.186910 1_555
Co0 O10 2.071379 1_565
Co0 O7 2.077296 1_555
Co0 O2 2.144253 1_555
Co0 O21 2.159343 1_565
Co0 O22 2.161388 1_555
Co0 O4 2.211339 1_565
Co1 O11 2.070344 1_555
Co1 O6 2.075804 1_555
Co1 O3 2.148911 1_555
Co1 O23 2.159719 1_555
Co1 O20 2.164966 1_555
Co1 O5 2.210586 1_555
Co2 O15 2.056116 1_555
Co2 O12 2.056703 1_555
Co2 O9 2.057426 1_555
Co2 O25 2.102421 1_555
Co2 O26 2.177534 1_555
Co3 O8 2.041722 1_545
Co3 O13 2.047920 1_555
Co3 O14 2.074295 1_545
Co3 O24 2.103218 1_555
Co3 O27 2.193497 1_545
C0 O18 1.288541 1_554
C0 O2 1.302618 1_545
C0 O4 1.305784 1_555
C1 O19 1.288850 1_554
C1 O3 1.302166 1_555
C1 O5 1.306010 1_555
C2 O0 1.296418 1_556
C2 O16 1.298491 1_565
C2 O14 1.313431 1_555
C3 O1 1.296015 1_556
C3 O17 1.298548 1_555
C3 O15 1.313732 1_555
O6 P2 1.545316 1_555
O7 P3 1.544724 1_655
O8 P0 1.560722 1_555
O9 P1 1.558885 1_555
O10 P2 1.566256 1_555
O11 P3 1.567074 1_555
O12 P0 1.549100 1_555
O13 P1 1.550675 1_455
O20 P0 1.561159 1_555
O21 P1 1.561743 1_555
O22 P0 1.560947 1_555
O23 P1 1.561453 1_455
O24 P2 1.567219 1_555
O25 P3 1.567055 1_655
O26 P2 1.559728 1_555
O27 P3 1.557284 1_555
