# generated using pymatgen
data_Lu(CuO2)2
_symmetry_space_group_name_H-M   'P 1'
_cell_length_a   6.13994829
_cell_length_b   6.14005230
_cell_length_c   6.13961817
_cell_angle_alpha   126.37871011
_cell_angle_beta   126.38722108
_cell_angle_gamma   79.26265549
_symmetry_Int_Tables_number   1
_chemical_formula_structural   Lu(CuO2)2
_chemical_formula_sum   'Lu2 Cu4 O8'
_cell_volume   145.04222597
_cell_formula_units_Z   2
loop_
 _symmetry_equiv_pos_site_id
 _symmetry_equiv_pos_as_xyz
  1  'x, y, z'
loop_
 _atom_site_type_symbol
 _atom_site_label
 _atom_site_symmetry_multiplicity
 _atom_site_fract_x
 _atom_site_fract_y
 _atom_site_fract_z
 _atom_site_occupancy
  Lu  Lu0  1  0.00000230  -0.00000431  -0.00000725  1
  Lu  Lu1  1  0.74999444  0.25000294  0.50000469  1
  Cu  Cu0  1  0.87500128  0.62499834  0.25000026  1
  Cu  Cu1  1  0.37499860  0.62500216  0.75000092  1
  Cu  Cu2  1  0.37499910  0.12499867  0.74999807  1
  Cu  Cu3  1  0.37500225  0.62500157  0.25000349  1
  O  O0  1  0.40475181  0.25523855  0.55378050  1
  O  O1  1  0.04856268  0.39906191  0.05380540  1
  O  O2  1  0.00529724  0.95152593  0.35057198  1
  O  O3  1  0.14903235  0.59527955  0.85058432  1
  O  O4  1  0.60094355  0.65472113  0.64940651  1
  O  O5  1  0.74471230  0.29845833  0.14943647  1
  O  O6  1  0.70145039  0.85096197  0.44621584  1
  O  O7  1  0.34525170  0.99475326  0.94619881  1
loop_
_geom_bond_atom_site_label_1
_geom_bond_atom_site_label_2
_geom_bond_distance
_geom_bond_site_symmetry_2
Lu0 O6 2.301544 1_444
Lu0 O0 2.301603 1_555
Lu0 O3 2.301840 1_544
Lu0 O5 2.301871 1_455
Lu0 O2 2.322885 1_545
Lu0 O4 2.322925 1_444
Lu0 O7 2.323008 1_544
Lu0 O1 2.323142 1_555
Lu1 O1 2.301605 1_656
Lu1 O7 2.301638 1_544
Lu1 O4 2.301906 1_555
Lu1 O2 2.301947 1_645
Lu1 O5 2.322802 1_555
Lu1 O3 2.322855 1_655
Lu1 O0 2.322902 1_555
Lu1 O6 2.323046 1_545
Cu0 O1 1.871097 1_655
Cu0 O6 1.871156 1_555
Cu0 O2 1.893125 1_655
Cu0 O5 1.893205 1_555
Cu1 O7 1.871112 1_555
Cu1 O0 1.871181 1_555
Cu1 O4 1.893122 1_555
Cu1 O3 1.893200 1_555
Cu2 O2 1.870494 1_545
Cu2 O5 1.870549 1_556
Cu2 O7 1.892663 1_545
Cu2 O0 1.892751 1_555
Cu3 O4 1.870380 1_555
Cu3 O3 1.870449 1_554
Cu3 O1 1.892626 1_555
Cu3 O6 1.892702 1_555
