# generated using pymatgen
data_Na2H2CO4
_symmetry_space_group_name_H-M   'P 1'
_cell_length_a   5.28193700
_cell_length_b   6.48907700
_cell_length_c   10.77706800
_cell_angle_alpha   90.00000000
_cell_angle_beta   90.00000000
_cell_angle_gamma   90.00000000
_symmetry_Int_Tables_number   1
_chemical_formula_structural   Na2H2CO4
_chemical_formula_sum   'Na8 H8 C4 O16'
_cell_volume   369.38288383
_cell_formula_units_Z   4
loop_
 _symmetry_equiv_pos_site_id
 _symmetry_equiv_pos_as_xyz
  1  'x, y, z'
loop_
 _atom_site_type_symbol
 _atom_site_label
 _atom_site_symmetry_multiplicity
 _atom_site_fract_x
 _atom_site_fract_y
 _atom_site_fract_z
 _atom_site_occupancy
  Na  Na0  1  0.86046500  0.99979300  0.69315600  1
  Na  Na1  1  0.13953500  0.49979300  0.30684400  1
  Na  Na2  1  0.86046500  0.49979300  0.80684400  1
  Na  Na3  1  0.13953500  0.99979300  0.19315600  1
  Na  Na4  1  0.37810000  0.06437900  0.50119500  1
  Na  Na5  1  0.62190000  0.56437900  0.49880500  1
  Na  Na6  1  0.37810000  0.56437900  0.99880500  1
  Na  Na7  1  0.62190000  0.06437900  0.00119500  1
  H  H0  1  0.83736600  0.14790200  0.43365300  1
  H  H1  1  0.16263400  0.64790200  0.56634700  1
  H  H2  1  0.83736600  0.64790200  0.06634700  1
  H  H3  1  0.16263400  0.14790200  0.93365300  1
  H  H4  1  0.89977000  0.91784100  0.40943000  1
  H  H5  1  0.10023000  0.41784100  0.59057000  1
  H  H6  1  0.89977000  0.41784100  0.09057000  1
  H  H7  1  0.10023000  0.91784100  0.90943000  1
  C  C0  1  0.39801400  0.78546500  0.75491000  1
  C  C1  1  0.60198600  0.28546500  0.24509000  1
  C  C2  1  0.39801400  0.28546500  0.74509000  1
  C  C3  1  0.60198600  0.78546500  0.25491000  1
  O  O0  1  0.45303400  0.79878800  0.63751200  1
  O  O1  1  0.54696600  0.29878800  0.36248800  1
  O  O2  1  0.45303400  0.29878800  0.86248800  1
  O  O3  1  0.54696600  0.79878800  0.13751200  1
  O  O4  1  0.57536900  0.79690900  0.83749900  1
  O  O5  1  0.42463100  0.29690900  0.16250100  1
  O  O6  1  0.57536900  0.29690900  0.66250100  1
  O  O7  1  0.42463100  0.79690900  0.33749900  1
  O  O8  1  0.16215700  0.76056000  0.78875400  1
  O  O9  1  0.83784300  0.26056000  0.21124600  1
  O  O10  1  0.16215700  0.26056000  0.71124600  1
  O  O11  1  0.83784300  0.76056000  0.28875400  1
  O  O12  1  0.93175000  0.03216300  0.47093600  1
  O  O13  1  0.06825000  0.53216300  0.52906400  1
  O  O14  1  0.93175000  0.53216300  0.02906400  1
  O  O15  1  0.06825000  0.03216300  0.97093600  1
loop_
_geom_bond_atom_site_label_1
_geom_bond_atom_site_label_2
_geom_bond_distance
_geom_bond_site_symmetry_2
Na0 O10 2.332517 1_665
Na0 O12 2.433381 1_565
Na0 O8 2.451673 1_655
Na0 O6 2.468598 1_565
Na0 O4 2.533917 1_555
Na0 O0 2.586913 1_555
Na1 O11 2.332517 1_455
Na1 O13 2.433381 1_555
Na1 O9 2.451673 1_455
Na1 O7 2.468598 1_555
Na1 O5 2.533917 1_555
Na1 O1 2.586913 1_555
Na2 O8 2.332517 1_655
Na2 O14 2.433381 1_556
Na2 O10 2.451673 1_655
Na2 O4 2.468598 1_555
Na2 O6 2.533917 1_555
Na2 O2 2.586913 1_555
Na3 O9 2.332517 1_465
Na3 O15 2.433381 1_564
Na3 O11 2.451673 1_455
Na3 O5 2.468598 1_565
Na3 O7 2.533917 1_555
Na3 O3 2.586913 1_555
Na4 O0 2.298945 1_545
Na4 O1 2.311685 1_555
Na4 O12 2.389203 1_455
Na4 O7 2.486986 1_545
Na4 O6 2.526764 1_555
Na5 O1 2.298945 1_555
Na5 O0 2.311685 1_555
Na5 O13 2.389203 1_655
Na5 O6 2.486986 1_555
Na5 O7 2.526764 1_555
Na6 O2 2.298945 1_555
Na6 O3 2.311685 1_556
Na6 O14 2.389203 1_456
Na6 O5 2.486986 1_556
Na6 O4 2.526764 1_555
Na7 O3 2.298945 1_545
Na7 O2 2.311685 1_554
Na7 O15 2.389203 1_654
Na7 O4 2.486986 1_544
Na7 O5 2.526764 1_555
H0 O12 0.986933 1_555
H1 O13 0.986933 1_555
H2 O14 0.986933 1_555
H3 O15 0.986933 1_555
H4 O12 1.009080 1_565
H5 O13 1.009080 1_555
H6 O14 1.009080 1_555
H7 O15 1.009080 1_565
C0 O4 1.294329 1_555
C0 O0 1.301029 1_555
C0 O8 1.308100 1_555
C1 O5 1.294329 1_555
C1 O1 1.301029 1_555
C1 O9 1.308100 1_555
C2 O6 1.294329 1_555
C2 O2 1.301029 1_555
C2 O10 1.308100 1_555
C3 O7 1.294329 1_555
C3 O3 1.301029 1_555
C3 O11 1.308100 1_555
