# generated using pymatgen
data_CrHSe3O8
_symmetry_space_group_name_H-M   'P 1'
_cell_length_a   14.02091000
_cell_length_b   7.72693900
_cell_length_c   10.71527520
_cell_angle_alpha   46.82178619
_cell_angle_beta   90.00000000
_cell_angle_gamma   90.00000000
_symmetry_Int_Tables_number   1
_chemical_formula_structural   CrHSe3O8
_chemical_formula_sum   'Cr4 H4 Se12 O32'
_cell_volume   846.54659519
_cell_formula_units_Z   4
loop_
 _symmetry_equiv_pos_site_id
 _symmetry_equiv_pos_as_xyz
  1  'x, y, z'
loop_
 _atom_site_type_symbol
 _atom_site_label
 _atom_site_symmetry_multiplicity
 _atom_site_fract_x
 _atom_site_fract_y
 _atom_site_fract_z
 _atom_site_occupancy
  Cr  Cr0  1  0.33405300  0.11383200  0.54886800  1
  Cr  Cr1  1  0.16594700  0.11383200  0.04886800  1
  Cr  Cr2  1  0.66594700  0.88616800  0.45113200  1
  Cr  Cr3  1  0.83405300  0.88616800  0.95113200  1
  H  H0  1  0.19960700  0.40950400  0.49823900  1
  H  H1  1  0.30039300  0.40950400  0.99823900  1
  H  H2  1  0.80039300  0.59049600  0.50176100  1
  H  H3  1  0.69960700  0.59049600  0.00176100  1
  Se  Se0  1  0.19757100  0.70834800  0.92556700  1
  Se  Se1  1  0.30242900  0.70834800  0.42556700  1
  Se  Se2  1  0.80242900  0.29165200  0.07443300  1
  Se  Se3  1  0.69757100  0.29165200  0.57443300  1
  Se  Se4  1  0.39386300  0.95201900  0.93953200  1
  Se  Se5  1  0.10613700  0.95201900  0.43953200  1
  Se  Se6  1  0.60613700  0.04798100  0.06046800  1
  Se  Se7  1  0.89386300  0.04798100  0.56046800  1
  Se  Se8  1  0.49144600  0.24803900  0.28919100  1
  Se  Se9  1  0.00855400  0.24803900  0.78919100  1
  Se  Se10  1  0.50855400  0.75196100  0.71080900  1
  Se  Se11  1  0.99144600  0.75196100  0.21080900  1
  O  O0  1  0.26795700  0.43693300  0.46776800  1
  O  O1  1  0.23204300  0.43693300  0.96776800  1
  O  O2  1  0.73204300  0.56306700  0.53223200  1
  O  O3  1  0.76795700  0.56306700  0.03223200  1
  O  O4  1  0.21471400  0.93118900  0.71430300  1
  O  O5  1  0.28528600  0.93118900  0.21430300  1
  O  O6  1  0.78528600  0.06881100  0.28569700  1
  O  O7  1  0.71471400  0.06881100  0.78569700  1
  O  O8  1  0.39832000  0.08973000  0.73134000  1
  O  O9  1  0.10168000  0.08973000  0.23134000  1
  O  O10  1  0.60168000  0.91027000  0.26866000  1
  O  O11  1  0.89832000  0.91027000  0.76866000  1
  O  O12  1  0.27155900  0.17174000  0.38951200  1
  O  O13  1  0.22844100  0.17174000  0.88951200  1
  O  O14  1  0.72844100  0.82826000  0.61048800  1
  O  O15  1  0.77155900  0.82826000  0.11048800  1
  O  O16  1  0.95338000  0.71772200  0.07603800  1
  O  O17  1  0.54662000  0.71772200  0.57603800  1
  O  O18  1  0.04662000  0.28227800  0.92396200  1
  O  O19  1  0.45338000  0.28227800  0.42396200  1
  O  O20  1  0.60961200  0.19218700  0.35060100  1
  O  O21  1  0.89038800  0.19218700  0.85060100  1
  O  O22  1  0.39038800  0.80781300  0.64939900  1
  O  O23  1  0.10961200  0.80781300  0.14939900  1
  O  O24  1  0.98790300  0.22772300  0.47227000  1
  O  O25  1  0.51209700  0.22772300  0.97227000  1
  O  O26  1  0.01209700  0.77227700  0.52773000  1
  O  O27  1  0.48790300  0.77227700  0.02773000  1
  O  O28  1  0.79741300  0.31130500  0.47036000  1
  O  O29  1  0.70258700  0.31130500  0.97036000  1
  O  O30  1  0.20258700  0.68869500  0.52964000  1
  O  O31  1  0.29741300  0.68869500  0.02964000  1
loop_
_geom_bond_atom_site_label_1
_geom_bond_atom_site_label_2
_geom_bond_distance
_geom_bond_site_symmetry_2
Cr0 O12 1.684654 1_555
Cr0 O22 1.972222 1_545
Cr0 O19 1.974981 1_555
Cr0 O8 2.042365 1_555
Cr0 O4 2.123700 1_545
Cr0 O0 2.208574 1_555
Cr1 O13 1.684654 1_554
Cr1 O23 1.972222 1_545
Cr1 O18 1.974981 1_554
Cr1 O9 2.042365 1_555
Cr1 O5 2.123700 1_545
Cr1 O1 2.208574 1_554
Cr2 O14 1.684654 1_555
Cr2 O20 1.972222 1_565
Cr2 O17 1.974981 1_555
Cr2 O10 2.042365 1_555
Cr2 O6 2.123700 1_565
Cr2 O2 2.208574 1_555
Cr3 O15 1.684654 1_556
Cr3 O21 1.972222 1_565
Cr3 O16 1.974981 1_556
Cr3 O11 2.042365 1_555
Cr3 O7 2.123700 1_565
Cr3 O3 2.208574 1_556
H0 O0 0.987531 1_555
H1 O1 0.987531 1_555
H2 O2 0.987531 1_555
H3 O3 0.987531 1_555
O0 Se1 1.881094 1_555
O1 Se0 1.881094 1_555
O2 Se3 1.881094 1_555
O3 Se2 1.881094 1_555
O4 Se0 1.677132 1_555
O5 Se1 1.677132 1_555
O6 Se2 1.677132 1_555
O7 Se3 1.677132 1_555
O8 Se4 1.692386 1_545
O9 Se5 1.692386 1_545
O10 Se6 1.692386 1_565
O11 Se7 1.692386 1_565
O16 Se11 1.721383 1_555
O17 Se10 1.721383 1_555
O18 Se9 1.721383 1_555
O19 Se8 1.721383 1_555
O20 Se8 1.724986 1_555
O21 Se9 1.724986 1_655
O22 Se10 1.724986 1_555
O23 Se11 1.724986 1_455
O24 Se7 1.662616 1_555
O25 Se6 1.662616 1_556
O26 Se5 1.662616 1_555
O27 Se4 1.662616 1_554
O28 Se3 1.730480 1_555
O28 Se7 2.052412 1_555
O29 Se2 1.730480 1_556
O29 Se6 2.052412 1_556
O30 Se1 1.730480 1_555
O30 Se5 2.052412 1_555
O31 Se0 1.730480 1_554
O31 Se4 2.052412 1_554
