# generated using pymatgen
data_PrP2(HO)7
_symmetry_space_group_name_H-M   'P 1'
_cell_length_a   6.75427200
_cell_length_b   7.22104700
_cell_length_c   16.95588900
_cell_angle_alpha   90.00000000
_cell_angle_beta   90.00000000
_cell_angle_gamma   90.00000000
_symmetry_Int_Tables_number   1
_chemical_formula_structural   PrP2(HO)7
_chemical_formula_sum   'Pr4 P8 H28 O28'
_cell_volume   826.98814249
_cell_formula_units_Z   4
loop_
 _symmetry_equiv_pos_site_id
 _symmetry_equiv_pos_as_xyz
  1  'x, y, z'
loop_
 _atom_site_type_symbol
 _atom_site_label
 _atom_site_symmetry_multiplicity
 _atom_site_fract_x
 _atom_site_fract_y
 _atom_site_fract_z
 _atom_site_occupancy
  Pr  Pr0  1  0.14680000  0.33826800  0.27432300  1
  Pr  Pr1  1  0.35320000  0.66173200  0.77432300  1
  Pr  Pr2  1  0.64680000  0.16173200  0.72567700  1
  Pr  Pr3  1  0.85320000  0.83826800  0.22567700  1
  P  P0  1  0.15648900  0.10882900  0.07848200  1
  P  P1  1  0.34351100  0.89117100  0.57848200  1
  P  P2  1  0.65648900  0.39117100  0.92151800  1
  P  P3  1  0.84351100  0.60882900  0.42151800  1
  P  P4  1  0.68895600  0.33603100  0.21173800  1
  P  P5  1  0.81104400  0.66396900  0.71173800  1
  P  P6  1  0.18895600  0.16396900  0.78826200  1
  P  P7  1  0.31104400  0.83603100  0.28826200  1
  H  H0  1  0.33616300  0.06784900  0.03899000  1
  H  H1  1  0.16383700  0.93215100  0.53899000  1
  H  H2  1  0.83616300  0.43215100  0.96101000  1
  H  H3  1  0.66383700  0.56784900  0.46101000  1
  H  H4  1  0.02514900  0.15933000  0.01677000  1
  H  H5  1  0.47485100  0.84067000  0.51677000  1
  H  H6  1  0.52514900  0.34067000  0.98323000  1
  H  H7  1  0.97485100  0.65933000  0.48323000  1
  H  H8  1  0.63961500  0.30378800  0.13180500  1
  H  H9  1  0.86038500  0.69621200  0.63180500  1
  H  H10  1  0.13961500  0.19621200  0.86819500  1
  H  H11  1  0.36038500  0.80378800  0.36819500  1
  H  H12  1  0.26149300  0.34243200  0.46045700  1
  H  H13  1  0.23850700  0.65756800  0.96045700  1
  H  H14  1  0.76149300  0.15756800  0.53954300  1
  H  H15  1  0.73850700  0.84243200  0.03954300  1
  H  H16  1  0.44139600  0.25045100  0.41235400  1
  H  H17  1  0.05860400  0.74954900  0.91235400  1
  H  H18  1  0.94139600  0.24954900  0.58764600  1
  H  H19  1  0.55860400  0.75045100  0.08764600  1
  H  H20  1  0.22350400  0.48598400  0.58760000  1
  H  H21  1  0.27649600  0.51401600  0.08760000  1
  H  H22  1  0.72350400  0.01401600  0.41240000  1
  H  H23  1  0.77649600  0.98598400  0.91240000  1
  H  H24  1  0.26278600  0.27145200  0.58507900  1
  H  H25  1  0.23721400  0.72854800  0.08507900  1
  H  H26  1  0.76278600  0.22854800  0.41492100  1
  H  H27  1  0.73721400  0.77145200  0.91492100  1
  O  O0  1  0.18833700  0.27764500  0.13077100  1
  O  O1  1  0.31166300  0.72235500  0.63077100  1
  O  O2  1  0.68833700  0.22235500  0.86922900  1
  O  O3  1  0.81166300  0.77764500  0.36922900  1
  O  O4  1  0.08238100  0.92858100  0.11539600  1
  O  O5  1  0.41761900  0.07141900  0.61539600  1
  O  O6  1  0.58238100  0.57141900  0.88460400  1
  O  O7  1  0.91761900  0.42858100  0.38460400  1
  O  O8  1  0.83008200  0.50501200  0.21310200  1
  O  O9  1  0.66991800  0.49498800  0.71310200  1
  O  O10  1  0.33008200  0.99498800  0.78689800  1
  O  O11  1  0.16991800  0.00501200  0.28689800  1
  O  O12  1  0.81930800  0.17069500  0.23926400  1
  O  O13  1  0.68069200  0.82930500  0.73926400  1
  O  O14  1  0.31930800  0.32930500  0.76073600  1
  O  O15  1  0.18069200  0.67069500  0.26073600  1
  O  O16  1  0.49854000  0.35957000  0.25767600  1
  O  O17  1  0.00146000  0.64043000  0.75767600  1
  O  O18  1  0.99854000  0.14043000  0.74232400  1
  O  O19  1  0.50146000  0.85957000  0.24232400  1
  O  O20  1  0.31374500  0.31648000  0.40700100  1
  O  O21  1  0.18625500  0.68352000  0.90700100  1
  O  O22  1  0.81374500  0.18352000  0.59299900  1
  O  O23  1  0.68625500  0.81648000  0.09299900  1
  O  O24  1  0.17916600  0.37000700  0.56216600  1
  O  O25  1  0.32083400  0.62999300  0.06216600  1
  O  O26  1  0.67916600  0.12999300  0.43783400  1
  O  O27  1  0.82083400  0.87000700  0.93783400  1
loop_
_geom_bond_atom_site_label_1
_geom_bond_atom_site_label_2
_geom_bond_distance
_geom_bond_site_symmetry_2
H0 P0 1.417288 1_555
H1 P1 1.417288 1_555
H2 P2 1.417288 1_555
H3 P3 1.417288 1_555
H4 P0 1.419456 1_555
H5 P1 1.419456 1_555
H6 P2 1.419456 1_555
H7 P3 1.419456 1_555
H8 P4 1.414993 1_555
H9 P5 1.414993 1_555
H10 P6 1.414993 1_555
H11 P7 1.414993 1_555
H12 O20 0.990568 1_555
H13 O21 0.990568 1_555
H14 O22 0.990568 1_555
H15 O23 0.990568 1_555
H16 O20 0.989417 1_555
H17 O21 0.989417 1_555
H18 O22 0.989417 1_555
H19 O23 0.989417 1_555
H20 O24 0.988448 1_555
H21 O25 0.988448 1_555
H22 O26 0.988448 1_555
H23 O27 0.988448 1_555
H24 O24 0.988132 1_555
H25 O25 0.988132 1_555
H26 O26 0.988132 1_555
H27 O27 0.988132 1_555
O0 P0 1.522621 1_555
O0 Pr0 2.488966 1_555
O1 P1 1.522621 1_555
O1 Pr1 2.488966 1_555
O2 P2 1.522621 1_555
O2 Pr2 2.488966 1_555
O3 P3 1.522621 1_555
O3 Pr3 2.488966 1_555
O4 P0 1.528534 1_565
O4 Pr3 2.513569 1_455
O5 P1 1.528534 1_545
O5 Pr2 2.513569 1_555
O6 P2 1.528534 1_555
O6 Pr1 2.513569 1_555
O7 P3 1.528534 1_555
O7 Pr0 2.513569 1_655
O8 P4 1.548570 1_555
O8 Pr3 2.420926 1_555
O8 Pr0 2.665241 1_655
O9 P5 1.548570 1_555
O9 Pr2 2.420926 1_555
O9 Pr1 2.665241 1_555
O10 P6 1.548570 1_565
O10 Pr1 2.420926 1_555
O10 Pr2 2.665241 1_565
O11 P7 1.548570 1_545
O11 Pr0 2.420926 1_555
O11 Pr3 2.665241 1_445
O12 P4 1.555118 1_555
O12 Pr3 2.422341 1_545
O12 Pr0 2.590447 1_655
O13 P5 1.555118 1_555
O13 Pr2 2.422341 1_565
O13 Pr1 2.590447 1_555
O14 P6 1.555118 1_555
O14 Pr1 2.422341 1_555
O14 Pr2 2.590447 1_555
O15 P7 1.555118 1_555
O15 Pr0 2.422341 1_555
O15 Pr3 2.590447 1_455
O16 P4 1.513181 1_555
O16 Pr0 2.397397 1_555
O17 P5 1.513181 1_455
O17 Pr1 2.397397 1_555
O18 P6 1.513181 1_655
O18 Pr2 2.397397 1_555
O19 P7 1.513181 1_555
O19 Pr3 2.397397 1_555
O20 Pr0 2.521358 1_555
O21 Pr1 2.521358 1_555
O22 Pr2 2.521358 1_555
O23 Pr3 2.521358 1_555
