# generated using pymatgen
data_Li4Mn3Cu3(SnO8)2
_symmetry_space_group_name_H-M   'P 1'
_cell_length_a   5.95631685
_cell_length_b   5.90008281
_cell_length_c   9.68288621
_cell_angle_alpha   89.97640245
_cell_angle_beta   89.09654226
_cell_angle_gamma   119.77388857
_symmetry_Int_Tables_number   1
_chemical_formula_structural   Li4Mn3Cu3(SnO8)2
_chemical_formula_sum   'Li4 Mn3 Cu3 Sn2 O16'
_cell_volume   295.31315766
_cell_formula_units_Z   1
loop_
 _symmetry_equiv_pos_site_id
 _symmetry_equiv_pos_as_xyz
  1  'x, y, z'
loop_
 _atom_site_type_symbol
 _atom_site_label
 _atom_site_symmetry_multiplicity
 _atom_site_fract_x
 _atom_site_fract_y
 _atom_site_fract_z
 _atom_site_occupancy
  Li  Li0  1  0.34025400  0.67002100  0.89658600  1
  Li  Li1  1  0.99831400  0.99919200  0.99650900  1
  Li  Li2  1  0.99859400  0.99915500  0.49215900  1
  Li  Li3  1  0.67361300  0.33663100  0.39007900  1
  Mn  Mn0  1  0.65939600  0.82931000  0.21534300  1
  Mn  Mn1  1  0.83051500  0.66130600  0.71492100  1
  Mn  Mn2  1  0.83012300  0.16899700  0.71494100  1
  Cu  Cu0  1  0.16797700  0.82806800  0.21419100  1
  Cu  Cu1  1  0.16853300  0.34030600  0.21387500  1
  Cu  Cu2  1  0.33929600  0.16968400  0.71518800  1
  Sn  Sn0  1  0.32561200  0.66294800  0.48925600  1
  Sn  Sn1  1  0.65671100  0.32839100  0.99528800  1
  O  O0  1  0.14733200  0.83189000  0.59999900  1
  O  O1  1  0.03559300  0.51870400  0.33989100  1
  O  O2  1  0.35076900  0.67524300  0.10793600  1
  O  O3  1  0.98523400  0.99391300  0.30560100  1
  O  O4  1  0.98373300  0.99169800  0.80826200  1
  O  O5  1  0.14780300  0.31527000  0.60057400  1
  O  O6  1  0.49939200  0.97041700  0.33942800  1
  O  O7  1  0.49905800  0.52824900  0.34002600  1
  O  O8  1  0.31023500  0.15423200  0.09682800  1
  O  O9  1  0.67691300  0.83866000  0.60625000  1
  O  O10  1  0.53384900  0.49747500  0.83722100  1
  O  O11  1  0.53277800  0.03623700  0.83703200  1
  O  O12  1  0.68534600  0.34241600  0.61030100  1
  O  O13  1  0.82712400  0.67711900  0.09959800  1
  O  O14  1  0.96850700  0.48430100  0.83083800  1
  O  O15  1  0.82739300  0.15046600  0.09971900  1
loop_
_geom_bond_atom_site_label_1
_geom_bond_atom_site_label_2
_geom_bond_distance
_geom_bond_site_symmetry_2
Li0 O11 1.957932 1_565
Li0 O10 1.960088 1_555
Li0 O14 2.035734 1_455
Li0 O2 2.048200 1_556
Li1 O4 1.825719 1_555
Li1 O8 1.897866 1_666
Li1 O13 1.920695 1_556
Li1 O15 1.924286 1_566
Li2 O3 1.809026 1_555
Li2 O0 1.935408 1_655
Li2 O5 1.937853 1_665
Li2 O9 1.979582 1_555
Li3 O1 1.924844 1_655
Li3 O6 1.943211 1_545
Li3 O7 1.943424 1_555
Li3 O12 2.134363 1_555
Mn0 O3 1.912041 1_555
Mn0 O2 1.920594 1_555
Mn0 O6 1.948777 1_555
Mn0 O7 1.949846 1_555
Mn0 O13 1.979118 1_555
Mn0 O15 1.981164 1_565
Mn1 O10 1.922458 1_555
Mn1 O4 1.926215 1_555
Mn1 O12 1.930621 1_555
Mn1 O0 1.964393 1_655
Mn1 O14 1.976524 1_555
Mn1 O9 2.004867 1_555
Mn2 O11 1.924392 1_555
Mn2 O12 1.928766 1_555
Mn2 O4 1.929713 1_545
Mn2 O5 1.965419 1_655
Mn2 O14 1.976755 1_555
Mn2 O9 2.001154 1_545
Cu0 O3 1.988411 1_455
Cu0 O1 1.993314 1_555
Cu0 O2 1.999356 1_555
Cu0 O8 2.015214 1_565
Cu0 O13 2.102925 1_455
Cu0 O6 2.121886 1_555
Cu1 O3 1.977273 1_445
Cu1 O2 1.992117 1_555
Cu1 O1 2.005520 1_555
Cu1 O8 2.023183 1_555
Cu1 O15 2.101585 1_455
Cu1 O7 2.122815 1_555
Cu2 O4 2.032360 1_445
Cu2 O12 2.040945 1_555
Cu2 O5 2.069441 1_555
Cu2 O11 2.069599 1_555
Cu2 O10 2.073330 1_555
Cu2 O0 2.074205 1_545
O0 Sn0 2.070559 1_555
O1 Sn0 2.102334 1_555
O5 Sn0 2.072667 1_555
O6 Sn0 2.133693 1_555
O7 Sn0 2.134514 1_555
O8 Sn1 2.027462 1_554
O9 Sn0 2.158187 1_555
O10 Sn1 2.152314 1_555
O11 Sn1 2.153710 1_555
O13 Sn1 2.060029 1_554
O14 Sn1 2.244917 1_555
O15 Sn1 2.061446 1_554
