# generated using pymatgen
data_K3(SeO4)2
_symmetry_space_group_name_H-M   'P 1'
_cell_length_a   8.17575357
_cell_length_b   8.17575357
_cell_length_c   10.27845892
_cell_angle_alpha   77.92407846
_cell_angle_beta   77.92407846
_cell_angle_gamma   42.98863105
_symmetry_Int_Tables_number   1
_chemical_formula_structural   K3(SeO4)2
_chemical_formula_sum   'K6 Se4 O16'
_cell_volume   456.46697751
_cell_formula_units_Z   2
loop_
 _symmetry_equiv_pos_site_id
 _symmetry_equiv_pos_as_xyz
  1  'x, y, z'
loop_
 _atom_site_type_symbol
 _atom_site_label
 _atom_site_symmetry_multiplicity
 _atom_site_fract_x
 _atom_site_fract_y
 _atom_site_fract_z
 _atom_site_occupancy
  K  K0  1  0.76288500  0.23711500  0.25000000  1
  K  K1  1  0.23711500  0.76288500  0.75000000  1
  K  K2  1  0.93035700  0.45901600  0.84844700  1
  K  K3  1  0.45901600  0.93035700  0.34844700  1
  K  K4  1  0.06964300  0.54098400  0.15155300  1
  K  K5  1  0.54098400  0.06964300  0.65155300  1
  Se  Se0  1  0.33875500  0.89026900  0.03773800  1
  Se  Se1  1  0.89026900  0.33875500  0.53773800  1
  Se  Se2  1  0.66124500  0.10973100  0.96226200  1
  Se  Se3  1  0.10973100  0.66124500  0.46226200  1
  O  O0  1  0.16595200  0.15137000  0.10122000  1
  O  O1  1  0.15137000  0.16595200  0.60122000  1
  O  O2  1  0.83404800  0.84863000  0.89878000  1
  O  O3  1  0.84863000  0.83404800  0.39878000  1
  O  O4  1  0.18376700  0.81643900  0.06588100  1
  O  O5  1  0.81643900  0.18376700  0.56588100  1
  O  O6  1  0.81623300  0.18356100  0.93411900  1
  O  O7  1  0.18356100  0.81623300  0.43411900  1
  O  O8  1  0.40361100  0.90604700  0.87378200  1
  O  O9  1  0.90604700  0.40361100  0.37378200  1
  O  O10  1  0.59638900  0.09395300  0.12621800  1
  O  O11  1  0.09395300  0.59638900  0.62621800  1
  O  O12  1  0.58819100  0.66629200  0.11765800  1
  O  O13  1  0.66629200  0.58819100  0.61765800  1
  O  O14  1  0.41180900  0.33370800  0.88234200  1
  O  O15  1  0.33370800  0.41180900  0.38234200  1
loop_
_geom_bond_atom_site_label_1
_geom_bond_atom_site_label_2
_geom_bond_distance
_geom_bond_site_symmetry_2
K0 O12 2.772419 1_555
K0 O15 2.772419 1_555
K0 O9 2.918951 1_555
K0 O10 2.918951 1_555
K0 O0 2.941051 1_655
K0 O3 2.941051 1_545
K0 O7 3.152088 1_645
K0 O4 3.152088 1_645
K0 O5 3.262876 1_555
K0 O6 3.262876 1_554
K1 O14 2.772419 1_555
K1 O13 2.772419 1_555
K1 O8 2.918951 1_555
K1 O11 2.918951 1_555
K1 O1 2.941051 1_565
K1 O2 2.941051 1_455
K1 O5 3.152088 1_465
K1 O6 3.152088 1_465
K1 O7 3.262876 1_555
K1 O4 3.262876 1_556
K2 O2 2.807850 1_555
K2 O11 2.848472 1_655
K2 O6 2.935697 1_555
K2 O8 2.978939 1_555
K2 O0 3.009749 1_656
K2 O13 3.026945 1_555
K2 O1 3.123397 1_655
K2 O8 3.132951 1_645
K2 O12 3.184642 1_556
K2 O14 3.345100 1_655
K3 O3 2.807850 1_555
K3 O10 2.848472 1_565
K3 O7 2.935697 1_555
K3 O9 2.978939 1_555
K3 O1 3.009749 1_565
K3 O12 3.026945 1_555
K3 O0 3.123397 1_565
K3 O9 3.132951 1_465
K3 O13 3.184642 1_555
K3 O15 3.345100 1_565
K4 O0 2.807850 1_555
K4 O9 2.848472 1_455
K4 O4 2.935697 1_555
K4 O10 2.978939 1_555
K4 O2 3.009749 1_454
K4 O15 3.026945 1_555
K4 O3 3.123397 1_455
K4 O10 3.132951 1_465
K4 O14 3.184642 1_554
K4 O12 3.345100 1_455
K5 O1 2.807850 1_555
K5 O8 2.848472 1_545
K5 O5 2.935697 1_555
K5 O11 2.978939 1_555
K5 O3 3.009749 1_545
K5 O14 3.026945 1_555
K5 O2 3.123397 1_545
K5 O11 3.132951 1_645
K5 O15 3.184642 1_555
K5 O13 3.345100 1_545
O0 Se0 1.662403 1_545
O1 Se1 1.662403 1_455
O2 Se2 1.662403 1_565
O3 Se3 1.662403 1_655
O4 Se0 1.716462 1_555
O5 Se1 1.716462 1_555
O6 Se2 1.716462 1_555
O7 Se3 1.716462 1_555
O8 Se0 1.665225 1_556
O9 Se1 1.665225 1_555
O10 Se2 1.665225 1_554
O11 Se3 1.665225 1_555
O12 Se0 1.671854 1_555
O13 Se1 1.671854 1_555
O14 Se2 1.671854 1_555
O15 Se3 1.671854 1_555
