# generated using pymatgen
data_Li4Nb3V3(SbO8)2
_symmetry_space_group_name_H-M   'P 1'
_cell_length_a   6.12984666
_cell_length_b   6.12984666
_cell_length_c   10.62909367
_cell_angle_alpha   89.58249026
_cell_angle_beta   89.58249026
_cell_angle_gamma   59.84293043
_symmetry_Int_Tables_number   1
_chemical_formula_structural   Li4Nb3V3(SbO8)2
_chemical_formula_sum   'Li4 Nb3 V3 Sb2 O16'
_cell_volume   345.31956490
_cell_formula_units_Z   1
loop_
 _symmetry_equiv_pos_site_id
 _symmetry_equiv_pos_as_xyz
  1  'x, y, z'
loop_
 _atom_site_type_symbol
 _atom_site_label
 _atom_site_symmetry_multiplicity
 _atom_site_fract_x
 _atom_site_fract_y
 _atom_site_fract_z
 _atom_site_occupancy
  Li  Li0  1  0.66656300  0.66656300  0.09827100  1
  Li  Li1  1  0.00377500  0.00377500  0.00784900  1
  Li  Li2  1  0.00228600  0.00228600  0.50604100  1
  Li  Li3  1  0.33906700  0.33906700  0.60767200  1
  Nb  Nb0  1  0.82482800  0.82482800  0.77366200  1
  Nb  Nb1  1  0.16991700  0.64372400  0.27871000  1
  Nb  Nb2  1  0.64372400  0.16991700  0.27871000  1
  V  V0  1  0.34016100  0.82582600  0.78471700  1
  V  V1  1  0.82582600  0.34016100  0.78471700  1
  V  V2  1  0.16984700  0.16984700  0.28920300  1
  Sb  Sb0  1  0.65891000  0.65891000  0.48945400  1
  Sb  Sb1  1  0.33020500  0.33020500  0.98338600  1
  O  O0  1  0.31745600  0.82870800  0.39644900  1
  O  O1  1  0.51346600  0.51346600  0.68453000  1
  O  O2  1  0.67623400  0.67623400  0.89267900  1
  O  O3  1  0.99477000  0.99477000  0.68761600  1
  O  O4  1  0.99805200  0.99805200  0.18914500  1
  O  O5  1  0.82870800  0.31745600  0.39644900  1
  O  O6  1  0.51510000  0.98478300  0.67994000  1
  O  O7  1  0.98478300  0.51510000  0.67994000  1
  O  O8  1  0.15676300  0.15676300  0.88803600  1
  O  O9  1  0.84461800  0.84461800  0.39740000  1
  O  O10  1  0.00978900  0.51036000  0.17743600  1
  O  O11  1  0.51036000  0.00978900  0.17743600  1
  O  O12  1  0.33767800  0.33767800  0.40430700  1
  O  O13  1  0.15664400  0.68878800  0.89559100  1
  O  O14  1  0.49103200  0.49103200  0.16724500  1
  O  O15  1  0.68878800  0.15664400  0.89559100  1
loop_
_geom_bond_atom_site_label_1
_geom_bond_atom_site_label_2
_geom_bond_distance
_geom_bond_site_symmetry_2
Li0 O14 1.998291 1_555
Li0 O10 2.010307 1_655
Li0 O11 2.010307 1_565
Li0 O2 2.186808 1_554
Li1 O4 1.927460 1_445
Li1 O13 2.056522 1_544
Li1 O15 2.056522 1_454
Li1 O8 2.056585 1_554
Li2 O3 1.930958 1_445
Li2 O0 2.035027 1_545
Li2 O5 2.035027 1_455
Li2 O9 2.042713 1_445
Li3 O7 2.025826 1_455
Li3 O6 2.025826 1_545
Li3 O1 2.031450 1_555
Li3 O12 2.161760 1_555
Nb0 O7 1.923880 1_555
Nb0 O6 1.923880 1_555
Nb0 O2 2.014863 1_555
Nb0 O3 2.017272 1_555
Nb0 O13 2.197852 1_655
Nb0 O15 2.197852 1_565
Nb1 O10 1.903936 1_555
Nb1 O14 2.070108 1_555
Nb1 O12 2.098635 1_555
Nb1 O4 2.102162 1_455
Nb1 O9 2.145452 1_455
Nb1 O0 2.176559 1_555
Nb2 O11 1.903936 1_555
Nb2 O14 2.070108 1_555
Nb2 O12 2.098635 1_555
Nb2 O4 2.102162 1_545
Nb2 O9 2.145452 1_545
Nb2 O5 2.176559 1_555
O0 Sb0 2.065861 1_555
O0 V2 2.137797 1_565
O1 V1 1.974390 1_555
O1 V0 1.974390 1_555
O1 Sb0 2.575615 1_555
O2 V0 2.126668 1_555
O2 V1 2.126668 1_555
O3 V1 2.105588 1_565
O3 V0 2.105588 1_655
O4 V2 2.120355 1_665
O5 Sb0 2.065861 1_555
O5 V2 2.137797 1_655
O6 V0 2.087166 1_555
O6 Sb0 2.670274 1_555
O7 V1 2.087166 1_555
O7 Sb0 2.670274 1_555
O8 V1 2.075606 1_455
O8 V0 2.075606 1_545
O8 Sb1 2.110670 1_555
O9 Sb0 2.195142 1_555
O10 V2 2.157298 1_555
O10 Sb1 2.669514 1_554
O11 V2 2.157298 1_555
O11 Sb1 2.669514 1_554
O12 V2 2.171105 1_555
O13 V0 2.067764 1_555
O13 Sb1 2.114034 1_555
O14 Sb1 2.606827 1_554
O15 V1 2.067764 1_555
O15 Sb1 2.114034 1_555
