# generated using pymatgen
data_LiTi3Nb(PO4)6
_symmetry_space_group_name_H-M   'P 1'
_cell_length_a   8.87309712
_cell_length_b   8.87309712
_cell_length_c   8.87309728
_cell_angle_alpha   58.48188577
_cell_angle_beta   58.48188577
_cell_angle_gamma   58.48188743
_symmetry_Int_Tables_number   1
_chemical_formula_structural   LiTi3Nb(PO4)6
_chemical_formula_sum   'Li1 Ti3 Nb1 P6 O24'
_cell_volume   476.82472476
_cell_formula_units_Z   1
loop_
 _symmetry_equiv_pos_site_id
 _symmetry_equiv_pos_as_xyz
  1  'x, y, z'
loop_
 _atom_site_type_symbol
 _atom_site_label
 _atom_site_symmetry_multiplicity
 _atom_site_fract_x
 _atom_site_fract_y
 _atom_site_fract_z
 _atom_site_occupancy
  Li  Li0  1  0.00536700  0.00536700  0.00536700  1
  Ti  Ti0  1  0.14522300  0.14522300  0.14522300  1
  Ti  Ti1  1  0.36030400  0.36030400  0.36030400  1
  Ti  Ti2  1  0.64033000  0.64033000  0.64033000  1
  Nb  Nb0  1  0.85619000  0.85619000  0.85619000  1
  P  P0  1  0.75061700  0.03457500  0.45668400  1
  P  P1  1  0.03457500  0.45668400  0.75061700  1
  P  P2  1  0.45668400  0.75061700  0.03457500  1
  P  P3  1  0.53240500  0.25494500  0.96740800  1
  P  P4  1  0.96740800  0.53240500  0.25494500  1
  P  P5  1  0.25494500  0.96740800  0.53240500  1
  O  O0  1  0.28111200  0.13866800  0.50327300  1
  O  O1  1  0.50327300  0.28111200  0.13866800  1
  O  O2  1  0.92351400  0.06064300  0.27609800  1
  O  O3  1  0.13866800  0.50327300  0.28111200  1
  O  O4  1  0.57805200  0.21402800  0.43595200  1
  O  O5  1  0.78625000  0.00335400  0.62815300  1
  O  O6  1  0.06064300  0.27609800  0.92351400  1
  O  O7  1  0.21402800  0.43595200  0.57805200  1
  O  O8  1  0.43595200  0.57805200  0.21402800  1
  O  O9  1  0.36696300  0.21451800  0.99794700  1
  O  O10  1  0.71779700  0.08078600  0.93976900  1
  O  O11  1  0.99794700  0.36696300  0.21451800  1
  O  O12  1  0.00335400  0.62815300  0.78625000  1
  O  O13  1  0.27609800  0.92351400  0.06064300  1
  O  O14  1  0.62815300  0.78625000  0.00335400  1
  O  O15  1  0.56081400  0.42382800  0.78706400  1
  O  O16  1  0.78706400  0.56081400  0.42382800  1
  O  O17  1  0.93976900  0.71779700  0.08078600  1
  O  O18  1  0.21451800  0.99794700  0.36696300  1
  O  O19  1  0.42382800  0.78706400  0.56081400  1
  O  O20  1  0.86208200  0.49513300  0.72015400  1
  O  O21  1  0.08078600  0.93976900  0.71779700  1
  O  O22  1  0.49513300  0.72015400  0.86208200  1
  O  O23  1  0.72015400  0.86208200  0.49513300  1
loop_
_geom_bond_atom_site_label_1
_geom_bond_atom_site_label_2
_geom_bond_distance
_geom_bond_site_symmetry_2
Li0 O6 2.360931 1_554
Li0 O13 2.360931 1_545
Li0 O2 2.360931 1_455
Li0 O17 2.580259 1_445
Li0 O10 2.580259 1_454
Li0 O21 2.580259 1_544
Nb0 O14 1.971676 1_556
Nb0 O12 1.971677 1_655
Nb0 O5 1.971677 1_565
Nb0 O21 2.015900 1_655
Nb0 O10 2.015900 1_565
Nb0 O17 2.015900 1_556
O0 P5 1.524920 1_545
O0 Ti1 1.968498 1_555
O1 P3 1.524920 1_554
O1 Ti1 1.968499 1_555
O2 P0 1.545298 1_555
O2 Ti0 2.006420 1_655
O3 P4 1.524920 1_455
O3 Ti1 1.968499 1_555
O4 P0 1.533920 1_555
O4 Ti1 1.921281 1_555
O5 P0 1.569156 1_555
O6 P1 1.545298 1_555
O6 Ti0 2.006420 1_556
O7 P1 1.533920 1_555
O7 Ti1 1.921281 1_555
O8 P2 1.533920 1_555
O8 Ti1 1.921281 1_555
O9 P3 1.545998 1_555
O9 Ti0 1.921830 1_556
O10 P3 1.571889 1_555
O11 P4 1.545998 1_555
O11 Ti0 1.921831 1_655
O12 P1 1.569156 1_555
O13 P2 1.545298 1_555
O13 Ti0 2.006420 1_565
O14 P2 1.569156 1_555
O15 P3 1.528342 1_555
O15 Ti2 1.930021 1_555
O16 P4 1.528342 1_555
O16 Ti2 1.930021 1_555
O17 P4 1.571889 1_555
O18 P5 1.545998 1_555
O18 Ti0 1.921831 1_565
O19 P5 1.528342 1_555
O19 Ti2 1.930021 1_555
O20 P1 1.523883 1_655
O20 Ti2 1.971212 1_555
O21 P5 1.571889 1_555
O22 P2 1.523883 1_556
O22 Ti2 1.971212 1_555
O23 P0 1.523883 1_565
O23 Ti2 1.971212 1_555
