# generated using pymatgen
data_Li2VCrO4
_symmetry_space_group_name_H-M   'P 1'
_cell_length_a   6.00266500
_cell_length_b   5.14486300
_cell_length_c   5.14759700
_cell_angle_alpha   71.00415139
_cell_angle_beta   90.00000000
_cell_angle_gamma   90.00000000
_symmetry_Int_Tables_number   1
_chemical_formula_structural   Li2VCrO4
_chemical_formula_sum   'Li4 V2 Cr2 O8'
_cell_volume   150.31535943
_cell_formula_units_Z   2
loop_
 _symmetry_equiv_pos_site_id
 _symmetry_equiv_pos_as_xyz
  1  'x, y, z'
loop_
 _atom_site_type_symbol
 _atom_site_label
 _atom_site_symmetry_multiplicity
 _atom_site_fract_x
 _atom_site_fract_y
 _atom_site_fract_z
 _atom_site_occupancy
  Li  Li0  1  0.12989000  0.00000000  0.75000000  1
  Li  Li1  1  0.62209200  0.00000000  0.75000000  1
  Li  Li2  1  0.37790800  0.00000000  0.25000000  1
  Li  Li3  1  0.87011000  0.00000000  0.25000000  1
  V  V0  1  0.87575900  0.50000000  0.75000000  1
  V  V1  1  0.12424100  0.50000000  0.25000000  1
  Cr  Cr0  1  0.37695000  0.50000000  0.75000000  1
  Cr  Cr1  1  0.62305000  0.50000000  0.25000000  1
  O  O0  1  0.13102300  0.72813000  0.50689200  1
  O  O1  1  0.62476000  0.72353600  0.51021200  1
  O  O2  1  0.37524000  0.27646400  0.48978800  1
  O  O3  1  0.37524000  0.72353600  0.01021200  1
  O  O4  1  0.86897700  0.27187000  0.49310800  1
  O  O5  1  0.13102300  0.27187000  0.99310800  1
  O  O6  1  0.86897700  0.72813000  0.00689200  1
  O  O7  1  0.62476000  0.27646400  0.98978800  1
loop_
_geom_bond_atom_site_label_1
_geom_bond_atom_site_label_2
_geom_bond_distance
_geom_bond_site_symmetry_2
Li0 O0 2.159183 1_545
Li0 O5 2.159183 1_555
Li0 O3 2.178535 1_546
Li0 O2 2.178535 1_555
Li0 O6 2.225739 1_446
Li0 O4 2.225739 1_455
Li1 O7 2.165620 1_555
Li1 O1 2.165620 1_545
Li1 O6 2.167312 1_546
Li1 O4 2.167312 1_555
Li1 O3 2.184640 1_546
Li1 O2 2.184640 1_555
Li2 O2 2.165620 1_555
Li2 O3 2.165620 1_545
Li2 O0 2.167312 1_545
Li2 O5 2.167312 1_554
Li2 O7 2.184640 1_554
Li2 O1 2.184640 1_545
Li3 O6 2.159183 1_545
Li3 O4 2.159183 1_555
Li3 O7 2.178535 1_554
Li3 O1 2.178535 1_545
Li3 O5 2.225739 1_654
Li3 O0 2.225739 1_645
Cr0 O2 2.029720 1_555
Cr0 O3 2.029720 1_556
Cr0 O1 2.033422 1_555
Cr0 O7 2.033422 1_555
Cr0 O0 2.041240 1_555
Cr0 O5 2.041240 1_555
Cr1 O7 2.029720 1_554
Cr1 O1 2.029720 1_555
Cr1 O2 2.033422 1_555
Cr1 O3 2.033422 1_555
Cr1 O6 2.041240 1_555
Cr1 O4 2.041240 1_555
O0 V1 2.034281 1_555
O0 V0 2.082132 1_455
O1 V0 2.047467 1_555
O2 V1 2.047467 1_555
O3 V1 2.047467 1_555
O4 V0 2.034281 1_555
O4 V1 2.082132 1_655
O5 V1 2.034281 1_556
O5 V0 2.082132 1_455
O6 V0 2.034281 1_554
O6 V1 2.082132 1_655
O7 V0 2.047467 1_555
