# generated using pymatgen
data_Li4Fe3Ni3(SbO8)2
_symmetry_space_group_name_H-M   'P 1'
_cell_length_a   5.87571399
_cell_length_b   5.87571399
_cell_length_c   9.64379544
_cell_angle_alpha   88.78201550
_cell_angle_beta   88.78201550
_cell_angle_gamma   59.66062608
_symmetry_Int_Tables_number   1
_chemical_formula_structural   Li4Fe3Ni3(SbO8)2
_chemical_formula_sum   'Li4 Fe3 Ni3 Sb2 O16'
_cell_volume   287.25932975
_cell_formula_units_Z   1
loop_
 _symmetry_equiv_pos_site_id
 _symmetry_equiv_pos_as_xyz
  1  'x, y, z'
loop_
 _atom_site_type_symbol
 _atom_site_label
 _atom_site_symmetry_multiplicity
 _atom_site_fract_x
 _atom_site_fract_y
 _atom_site_fract_z
 _atom_site_occupancy
  Li  Li0  1  0.66486700  0.66486700  0.10095500  1
  Li  Li1  1  0.00174800  0.00174800  0.01316300  1
  Li  Li2  1  0.00081700  0.00081700  0.51038500  1
  Li  Li3  1  0.33426200  0.33426200  0.59571900  1
  Fe  Fe0  1  0.82651700  0.34962500  0.78607400  1
  Fe  Fe1  1  0.34962500  0.82651700  0.78607400  1
  Fe  Fe2  1  0.17220900  0.17220900  0.28639600  1
  Ni  Ni0  1  0.82744400  0.82744400  0.78666700  1
  Ni  Ni1  1  0.65580800  0.17245200  0.28581800  1
  Ni  Ni2  1  0.17245200  0.65580800  0.28581800  1
  Sb  Sb0  1  0.66957300  0.66957300  0.50969200  1
  Sb  Sb1  1  0.33646300  0.33646300  0.01338800  1
  O  O0  1  0.84305200  0.33420600  0.40138800  1
  O  O1  1  0.51530100  0.51530100  0.64617800  1
  O  O2  1  0.65893100  0.65893100  0.89259800  1
  O  O3  1  0.00738500  0.00738500  0.70646700  1
  O  O4  1  0.00678400  0.00678400  0.20622700  1
  O  O5  1  0.33420600  0.84305200  0.40138800  1
  O  O6  1  0.96503000  0.51279600  0.65424300  1
  O  O7  1  0.51279600  0.96503000  0.65424300  1
  O  O8  1  0.17230500  0.17230500  0.90489600  1
  O  O9  1  0.84159500  0.84159500  0.40436900  1
  O  O10  1  0.47944100  0.03362800  0.15376700  1
  O  O11  1  0.03362800  0.47944100  0.15376700  1
  O  O12  1  0.32736600  0.32736600  0.38550000  1
  O  O13  1  0.67504000  0.17460500  0.90420800  1
  O  O14  1  0.48161800  0.48161800  0.15849500  1
  O  O15  1  0.17460500  0.67504000  0.90420800  1
loop_
_geom_bond_atom_site_label_1
_geom_bond_atom_site_label_2
_geom_bond_distance
_geom_bond_site_symmetry_2
Li0 O14 1.935707 1_555
Li0 O11 1.944128 1_655
Li0 O10 1.944128 1_565
Li0 O2 2.011745 1_554
Li1 O4 1.863834 1_555
Li1 O15 1.972652 1_544
Li1 O13 1.972652 1_454
Li1 O8 2.006079 1_554
Li2 O3 1.893799 1_555
Li2 O9 1.939409 1_445
Li2 O0 1.980129 1_455
Li2 O5 1.980129 1_545
Li3 O1 1.920151 1_555
Li3 O7 1.949276 1_545
Li3 O6 1.949276 1_455
Li3 O12 2.030248 1_555
Fe0 O2 1.885826 1_555
Fe0 O3 1.906443 1_655
Fe0 O6 1.972403 1_555
Fe0 O13 1.994833 1_555
Fe0 O1 2.088622 1_555
Fe0 O8 2.106253 1_655
Fe1 O2 1.885826 1_555
Fe1 O3 1.906443 1_565
Fe1 O7 1.972403 1_555
Fe1 O15 1.994833 1_555
Fe1 O1 2.088622 1_555
Fe1 O8 2.106253 1_565
Fe2 O12 1.867992 1_555
Fe2 O4 1.872325 1_555
Fe2 O0 1.992542 1_455
Fe2 O5 1.992542 1_545
Fe2 O10 2.004721 1_555
Fe2 O11 2.004721 1_555
Ni0 O3 1.973234 1_665
Ni0 O2 1.977057 1_555
Ni0 O7 2.061317 1_555
Ni0 O6 2.061317 1_555
Ni0 O13 2.111275 1_565
Ni0 O15 2.111275 1_655
Ni1 O12 1.913280 1_555
Ni1 O4 1.930284 1_655
Ni1 O14 1.983800 1_555
Ni1 O9 2.023030 1_545
Ni1 O10 2.077298 1_555
Ni1 O0 2.123540 1_555
Ni2 O12 1.913280 1_555
Ni2 O4 1.930284 1_565
Ni2 O14 1.983800 1_555
Ni2 O9 2.023030 1_455
Ni2 O11 2.077298 1_555
Ni2 O5 2.123540 1_555
O0 Sb0 2.006474 1_555
O1 Sb0 2.025948 1_555
O5 Sb0 2.006474 1_555
O6 Sb0 2.058727 1_555
O7 Sb0 2.058727 1_555
O8 Sb1 1.995261 1_556
O9 Sb0 2.004921 1_555
O10 Sb1 2.034810 1_555
O11 Sb1 2.034810 1_555
O13 Sb1 2.003222 1_556
O14 Sb1 2.061422 1_555
O15 Sb1 2.003222 1_556
