# generated using pymatgen
data_LiVFeP2(HO5)2
_symmetry_space_group_name_H-M   'P 1'
_cell_length_a   6.90545000
_cell_length_b   7.48422009
_cell_length_c   11.11918667
_cell_angle_alpha   99.28822077
_cell_angle_beta   107.44095590
_cell_angle_gamma   89.41952372
_symmetry_Int_Tables_number   1
_chemical_formula_structural   LiVFeP2(HO5)2
_chemical_formula_sum   'Li3 V3 Fe3 P6 H6 O30'
_cell_volume   540.60692238
_cell_formula_units_Z   3
loop_
 _symmetry_equiv_pos_site_id
 _symmetry_equiv_pos_as_xyz
  1  'x, y, z'
loop_
 _atom_site_type_symbol
 _atom_site_label
 _atom_site_symmetry_multiplicity
 _atom_site_fract_x
 _atom_site_fract_y
 _atom_site_fract_z
 _atom_site_occupancy
  Li  Li0  1  0.25083700  0.31158600  0.15889100  1
  Li  Li1  1  0.08349200  0.35343500  0.50709200  1
  Li  Li2  1  0.74931900  0.68798700  0.83997700  1
  V  V0  1  0.16918700  0.33304100  0.83437200  1
  V  V1  1  0.82903100  0.66441000  0.16641400  1
  V  V2  1  0.50241700  0.00011900  0.50106100  1
  Fe  Fe0  1  0.66605200  0.33117300  0.33273400  1
  Fe  Fe1  1  0.33100600  0.67274100  0.66588500  1
  Fe  Fe2  1  0.99943800  0.99818000  0.99939300  1
  P  P0  1  0.05497300  0.07312100  0.30025000  1
  P  P1  1  0.61329300  0.25801500  0.03107900  1
  P  P2  1  0.27877700  0.59256500  0.36511000  1
  P  P3  1  0.72143600  0.40623100  0.63568300  1
  P  P4  1  0.38687300  0.74062800  0.96748000  1
  P  P5  1  0.94560600  0.92484700  0.69963700  1
  H  H0  1  0.04269100  0.66922200  0.01858100  1
  H  H1  1  0.68964700  0.99823900  0.34120100  1
  H  H2  1  0.37567800  0.33671600  0.68480900  1
  H  H3  1  0.64261700  0.66697600  0.32576000  1
  H  H4  1  0.30880300  0.00254000  0.65842200  1
  H  H5  1  0.95667700  0.32995400  0.98140700  1
  O  O0  1  0.14069700  0.07914700  0.18822500  1
  O  O1  1  0.22779000  0.08877700  0.42949800  1
  O  O2  1  0.10557300  0.57924500  0.23585700  1
  O  O3  1  0.08217800  0.10086500  0.72154800  1
  O  O4  1  0.52136100  0.26995300  0.14248800  1
  O  O5  1  0.73923600  0.09102200  0.02102100  1
  O  O6  1  0.19412300  0.58435100  0.47734300  1
  O  O7  1  0.59735700  0.08471100  0.36981300  1
  O  O8  1  0.40215500  0.42290000  0.34483200  1
  O  O9  1  0.75626000  0.42995700  0.05050200  1
  O  O10  1  0.07278400  0.25551600  0.97213700  1
  O  O11  1  0.56182900  0.74606100  0.09451200  1
  O  O12  1  0.25873200  0.41012900  0.69390400  1
  O  O13  1  0.07475600  0.75989600  0.68581800  1
  O  O14  1  0.41734000  0.76475000  0.38664900  1
  O  O15  1  0.57624200  0.23780600  0.61561600  1
  O  O16  1  0.93049400  0.24227500  0.32042200  1
  O  O17  1  0.73562600  0.58115400  0.29691800  1
  O  O18  1  0.43899100  0.25497900  0.90365400  1
  O  O19  1  0.92662600  0.74359500  0.02721600  1
  O  O20  1  0.24457100  0.56806100  0.94813300  1
  O  O21  1  0.60042400  0.57784300  0.65228100  1
  O  O22  1  0.39960400  0.91535100  0.62907000  1
  O  O23  1  0.81198100  0.39682100  0.52428400  1
  O  O24  1  0.26055900  0.90748000  0.97791000  1
  O  O25  1  0.47819900  0.72588300  0.85557700  1
  O  O26  1  0.91733600  0.90002800  0.27848700  1
  O  O27  1  0.89327400  0.41974600  0.76556500  1
  O  O28  1  0.77077000  0.92010700  0.57302200  1
  O  O29  1  0.85796400  0.92159300  0.81164300  1
loop_
_geom_bond_atom_site_label_1
_geom_bond_atom_site_label_2
_geom_bond_distance
_geom_bond_site_symmetry_2
Li0 O4 1.947875 1_555
Li0 O0 2.017379 1_555
Li0 O10 2.049046 1_554
Li0 O8 2.055995 1_555
Li0 O2 2.381597 1_555
Li1 O23 1.959522 1_455
Li1 O6 2.010618 1_555
Li1 O12 2.044080 1_555
Li1 O16 2.064561 1_455
Li1 O1 2.363133 1_555
Li2 O25 1.945177 1_555
Li2 O29 2.016172 1_555
Li2 O19 2.051683 1_556
Li2 O21 2.065886 1_555
Li2 O27 2.370557 1_555
Fe0 O16 1.972778 1_555
Fe0 O8 1.975361 1_555
Fe0 O4 2.027930 1_555
Fe0 O7 2.043998 1_555
Fe0 O23 2.044237 1_555
Fe0 O17 2.064741 1_555
Fe1 O13 1.941868 1_555
Fe1 O22 2.015564 1_555
Fe1 O25 2.022966 1_555
Fe1 O21 2.023820 1_555
Fe1 O6 2.025647 1_555
Fe1 O12 2.125999 1_555
Fe2 O5 1.987201 1_566
Fe2 O24 1.987533 1_655
Fe2 O29 2.010887 1_555
Fe2 O0 2.025046 1_666
Fe2 O19 2.069272 1_556
Fe2 O10 2.087556 1_665
H0 O19 0.990585 1_455
H1 O7 0.986370 1_565
H2 O12 0.993126 1_555
H3 O17 0.988200 1_555
H4 O22 0.985453 1_545
H5 O10 0.992867 1_655
O0 P0 1.537766 1_555
O1 P0 1.556802 1_555
O1 V2 1.977431 1_555
O2 P2 1.559403 1_555
O2 V1 1.974726 1_455
O3 P5 1.571001 1_445
O3 V0 1.954454 1_555
O4 P1 1.542757 1_555
O5 P1 1.523832 1_555
O6 P2 1.538069 1_555
O7 V2 1.959742 1_555
O8 P2 1.545943 1_555
O9 P1 1.576551 1_555
O9 V1 1.972869 1_555
O10 V0 2.008070 1_555
O11 P4 1.554321 1_554
O11 V1 1.915143 1_555
O12 V0 2.007927 1_555
O13 P5 1.530246 1_455
O14 P2 1.556137 1_555
O14 V2 1.978935 1_565
O15 P3 1.563554 1_555
O15 V2 1.986084 1_555
O16 P0 1.547183 1_655
O17 V1 1.941920 1_555
O18 P1 1.557121 1_556
O18 V0 1.915425 1_555
O19 V1 2.032355 1_555
O20 P4 1.577738 1_555
O20 V0 1.967365 1_555
O21 P3 1.541486 1_555
O22 V2 1.959305 1_565
O23 P3 1.537987 1_555
O24 P4 1.524957 1_555
O25 P4 1.543616 1_555
O26 P0 1.557569 1_665
O26 V1 1.972641 1_555
O27 P3 1.559477 1_555
O27 V0 1.974340 1_655
O28 P5 1.551383 1_555
O28 V2 1.917332 1_565
O29 P5 1.542674 1_555
