# generated using pymatgen
data_BaCa2I6
_symmetry_space_group_name_H-M   'P 1'
_cell_length_a   8.08963100
_cell_length_b   8.08963100
_cell_length_c   24.00320100
_cell_angle_alpha   90.00000000
_cell_angle_beta   90.00000000
_cell_angle_gamma   90.00000000
_symmetry_Int_Tables_number   1
_chemical_formula_structural   BaCa2I6
_chemical_formula_sum   'Ba4 Ca8 I24'
_cell_volume   1570.82059345
_cell_formula_units_Z   4
loop_
 _symmetry_equiv_pos_site_id
 _symmetry_equiv_pos_as_xyz
  1  'x, y, z'
loop_
 _atom_site_type_symbol
 _atom_site_label
 _atom_site_symmetry_multiplicity
 _atom_site_fract_x
 _atom_site_fract_y
 _atom_site_fract_z
 _atom_site_occupancy
  Ba  Ba0  1  0.00000000  0.00000000  0.00000000  1
  Ba  Ba1  1  0.00000000  0.50000000  0.50000000  1
  Ba  Ba2  1  0.50000000  0.00000000  0.50000000  1
  Ba  Ba3  1  0.50000000  0.50000000  0.00000000  1
  Ca  Ca0  1  0.00000000  0.50000000  0.16915500  1
  Ca  Ca1  1  0.00000000  0.00000000  0.32614500  1
  Ca  Ca2  1  0.00000000  0.00000000  0.67385500  1
  Ca  Ca3  1  0.00000000  0.50000000  0.83084500  1
  Ca  Ca4  1  0.50000000  0.50000000  0.32614500  1
  Ca  Ca5  1  0.50000000  0.00000000  0.16915500  1
  Ca  Ca6  1  0.50000000  0.00000000  0.83084500  1
  Ca  Ca7  1  0.50000000  0.50000000  0.67385500  1
  I  I0  1  0.19528700  0.79569200  0.58625500  1
  I  I1  1  0.20990100  0.71478700  0.08787200  1
  I  I2  1  0.28521300  0.20990100  0.91212800  1
  I  I3  1  0.29569200  0.69528700  0.41374500  1
  I  I4  1  0.21179500  0.29464700  0.25265200  1
  I  I5  1  0.20535300  0.28820500  0.74734800  1
  I  I6  1  0.29464700  0.78820500  0.74734800  1
  I  I7  1  0.28820500  0.79464700  0.25265200  1
  I  I8  1  0.21478700  0.70990100  0.91212800  1
  I  I9  1  0.20430800  0.19528700  0.41374500  1
  I  I10  1  0.29009900  0.21478700  0.08787200  1
  I  I11  1  0.30471300  0.29569200  0.58625500  1
  I  I12  1  0.69528700  0.70430800  0.58625500  1
  I  I13  1  0.70990100  0.78521300  0.08787200  1
  I  I14  1  0.78521300  0.29009900  0.91212800  1
  I  I15  1  0.79569200  0.80471300  0.41374500  1
  I  I16  1  0.71179500  0.20535300  0.25265200  1
  I  I17  1  0.70535300  0.21179500  0.74734800  1
  I  I18  1  0.79464700  0.71179500  0.74734800  1
  I  I19  1  0.78820500  0.70535300  0.25265200  1
  I  I20  1  0.70430800  0.30471300  0.41374500  1
  I  I21  1  0.71478700  0.79009900  0.91212800  1
  I  I22  1  0.79009900  0.28521300  0.08787200  1
  I  I23  1  0.80471300  0.20430800  0.58625500  1
loop_
_geom_bond_atom_site_label_1
_geom_bond_atom_site_label_2
_geom_bond_distance
_geom_bond_site_symmetry_2
Ba0 I22 3.557461 1_455
Ba0 I1 3.557461 1_545
Ba0 I2 3.557461 1_554
Ba0 I21 3.557461 1_444
Ba0 I10 3.602121 1_555
Ba0 I13 3.602121 1_445
Ba0 I8 3.602121 1_544
Ba0 I14 3.602121 1_454
Ba1 I0 3.536122 1_555
Ba1 I23 3.536122 1_455
Ba1 I3 3.536122 1_555
Ba1 I20 3.536122 1_455
Ba1 I12 3.618634 1_455
Ba1 I11 3.618634 1_555
Ba1 I9 3.618634 1_555
Ba1 I15 3.618634 1_455
Ba2 I15 3.536122 1_545
Ba2 I11 3.536122 1_555
Ba2 I9 3.536122 1_555
Ba2 I12 3.536122 1_545
Ba2 I20 3.618634 1_555
Ba2 I23 3.618634 1_555
Ba2 I0 3.618634 1_545
Ba2 I3 3.618634 1_545
Ba3 I13 3.557461 1_555
Ba3 I10 3.557461 1_555
Ba3 I14 3.557461 1_554
Ba3 I8 3.557461 1_554
Ba3 I1 3.602121 1_555
Ba3 I22 3.602121 1_555
Ba3 I21 3.602121 1_554
Ba3 I2 3.602121 1_554
Ca0 I1 3.115919 1_555
Ca0 I22 3.115919 1_455
Ca0 I4 3.116413 1_555
Ca0 I19 3.116413 1_455
Ca0 I13 3.825903 1_455
Ca0 I10 3.825903 1_555
Ca1 I9 3.106236 1_555
Ca1 I15 3.106236 1_445
Ca1 I16 3.362645 1_455
Ca1 I7 3.362645 1_545
Ca1 I4 3.424757 1_555
Ca1 I19 3.424757 1_445
Ca2 I0 3.106236 1_545
Ca2 I23 3.106236 1_455
Ca2 I5 3.362645 1_555
Ca2 I18 3.362645 1_445
Ca2 I17 3.424757 1_455
Ca2 I6 3.424757 1_545
Ca3 I8 3.115919 1_555
Ca3 I14 3.115919 1_455
Ca3 I5 3.116413 1_555
Ca3 I18 3.116413 1_455
Ca3 I2 3.825903 1_555
Ca3 I21 3.825903 1_455
Ca4 I20 3.106236 1_555
Ca4 I3 3.106236 1_555
Ca4 I19 3.362645 1_555
Ca4 I4 3.362645 1_555
Ca4 I7 3.424757 1_555
Ca4 I16 3.424757 1_555
Ca5 I10 3.115919 1_555
Ca5 I13 3.115919 1_545
Ca5 I16 3.116413 1_555
Ca5 I7 3.116413 1_545
Ca5 I22 3.825903 1_555
Ca5 I1 3.825903 1_545
Ca6 I2 3.115919 1_555
Ca6 I21 3.115919 1_545
Ca6 I17 3.116413 1_555
Ca6 I6 3.116413 1_545
Ca6 I14 3.825903 1_555
Ca6 I8 3.825903 1_545
Ca7 I12 3.106236 1_555
Ca7 I11 3.106236 1_555
Ca7 I6 3.362645 1_555
Ca7 I17 3.362645 1_555
Ca7 I18 3.424757 1_555
Ca7 I5 3.424757 1_555
