# generated using pymatgen
data_Mn3(P2O7)2
_symmetry_space_group_name_H-M   'P 1'
_cell_length_a   5.33529384
_cell_length_b   6.49564063
_cell_length_c   16.28408385
_cell_angle_alpha   81.32794819
_cell_angle_beta   80.30372793
_cell_angle_gamma   72.56517539
_symmetry_Int_Tables_number   1
_chemical_formula_structural   Mn3(P2O7)2
_chemical_formula_sum   'Mn6 P8 O28'
_cell_volume   527.69720429
_cell_formula_units_Z   2
loop_
 _symmetry_equiv_pos_site_id
 _symmetry_equiv_pos_as_xyz
  1  'x, y, z'
loop_
 _atom_site_type_symbol
 _atom_site_label
 _atom_site_symmetry_multiplicity
 _atom_site_fract_x
 _atom_site_fract_y
 _atom_site_fract_z
 _atom_site_occupancy
  Mn  Mn0  1  0.17170500  0.28742800  0.58552000  1
  Mn  Mn1  1  0.95015300  0.39229400  0.17295900  1
  Mn  Mn2  1  0.25547200  0.97516700  0.32080700  1
  Mn  Mn3  1  0.04984700  0.60770600  0.82704100  1
  Mn  Mn4  1  0.74452800  0.02483300  0.67919300  1
  Mn  Mn5  1  0.82829500  0.71257200  0.41448000  1
  P  P0  1  0.55259200  0.22897300  0.07806200  1
  P  P1  1  0.28175400  0.78135900  0.54194400  1
  P  P2  1  0.60640300  0.56483100  0.68478100  1
  P  P3  1  0.16745900  0.10015400  0.79096500  1
  P  P4  1  0.71824600  0.21864100  0.45805600  1
  P  P5  1  0.83254100  0.89984600  0.20903500  1
  P  P6  1  0.39359700  0.43516900  0.31521900  1
  P  P7  1  0.44740800  0.77102700  0.92193800  1
  O  O0  1  0.74981400  0.67321600  0.91035300  1
  O  O1  1  0.33111600  0.13639200  0.70407400  1
  O  O2  1  0.35231400  0.85943800  0.00610600  1
  O  O3  1  0.39539200  0.97100200  0.84684700  1
  O  O4  1  0.20573700  0.65967000  0.33530100  1
  O  O5  1  0.66888400  0.86360800  0.29592600  1
  O  O6  1  0.57785300  0.15723900  0.54442600  1
  O  O7  1  0.79426300  0.34033000  0.66469900  1
  O  O8  1  0.53014800  0.68305800  0.59440600  1
  O  O9  1  0.99101500  0.95334500  0.78478300  1
  O  O10  1  0.01010300  0.31057300  0.82678400  1
  O  O11  1  0.76108700  0.69942800  0.71319900  1
  O  O12  1  0.98989700  0.68942700  0.17321600  1
  O  O13  1  0.35445300  0.54589900  0.73925200  1
  O  O14  1  0.09731500  0.97942300  0.58405600  1
  O  O15  1  0.42214700  0.84276100  0.45557400  1
  O  O16  1  0.29796300  0.61547200  0.90790000  1
  O  O17  1  0.00898500  0.04665500  0.21521700  1
  O  O18  1  0.90268500  0.02057700  0.41594400  1
  O  O19  1  0.23891300  0.30057200  0.28680100  1
  O  O20  1  0.86232900  0.38866800  0.45864100  1
  O  O21  1  0.70203700  0.38452800  0.09210000  1
  O  O22  1  0.13767100  0.61133200  0.54135900  1
  O  O23  1  0.64554800  0.45410100  0.26074800  1
  O  O24  1  0.46985200  0.31694200  0.40559400  1
  O  O25  1  0.64768600  0.14056200  0.99389400  1
  O  O26  1  0.25018600  0.32678400  0.08964700  1
  O  O27  1  0.60460800  0.02899800  0.15315300  1
loop_
_geom_bond_atom_site_label_1
_geom_bond_atom_site_label_2
_geom_bond_distance
_geom_bond_site_symmetry_2
Mn0 O22 2.082202 1_555
Mn0 O6 2.107743 1_555
Mn0 O14 2.157372 1_545
Mn0 O7 2.163351 1_455
Mn0 O1 2.212416 1_555
Mn0 O20 2.741235 1_455
Mn1 O26 1.902213 1_655
Mn1 O23 1.960987 1_555
Mn1 O12 2.004527 1_555
Mn1 O21 2.033677 1_555
Mn1 O17 2.190274 1_655
Mn1 O19 2.498809 1_655
Mn2 O19 2.081789 1_565
Mn2 O5 2.093798 1_555
Mn2 O4 2.117754 1_555
Mn2 O18 2.202886 1_465
Mn2 O17 2.248666 1_565
Mn2 O15 2.444680 1_555
Mn3 O0 1.902213 1_455
Mn3 O13 1.960990 1_555
Mn3 O10 2.004527 1_555
Mn3 O16 2.033677 1_555
Mn3 O9 2.190274 1_455
Mn3 O11 2.498809 1_455
Mn4 O11 2.081789 1_545
Mn4 O1 2.093798 1_555
Mn4 O7 2.117754 1_555
Mn4 O14 2.202886 1_645
Mn4 O9 2.248666 1_545
Mn4 O6 2.444680 1_555
Mn5 O20 2.082202 1_555
Mn5 O15 2.107743 1_555
Mn5 O18 2.157372 1_565
Mn5 O4 2.163351 1_655
Mn5 O5 2.212416 1_555
Mn5 O22 2.741235 1_655
O0 P7 1.536794 1_555
O1 P3 1.557700 1_555
O2 P7 1.514687 1_554
O3 P3 1.594349 1_565
O3 P7 1.636719 1_555
O4 P6 1.547784 1_555
O5 P5 1.557700 1_555
O6 P4 1.534030 1_555
O7 P2 1.547784 1_555
O8 P2 1.610823 1_555
O8 P1 1.613575 1_555
O9 P3 1.550658 1_665
O10 P3 1.516918 1_555
O11 P2 1.530576 1_555
O12 P5 1.516918 1_555
O13 P2 1.507773 1_555
O14 P1 1.540746 1_555
O15 P1 1.534030 1_555
O16 P7 1.524071 1_555
O17 P5 1.550658 1_445
O18 P4 1.540746 1_555
O19 P6 1.530576 1_555
O20 P4 1.524862 1_555
O21 P0 1.524071 1_555
O22 P1 1.524862 1_555
O23 P6 1.507778 1_555
O24 P6 1.610823 1_555
O24 P4 1.613575 1_555
O25 P0 1.514687 1_556
O26 P0 1.536794 1_555
O27 P5 1.594349 1_545
O27 P0 1.636719 1_555
