# generated using pymatgen
data_LuScO3
_symmetry_space_group_name_H-M   'P 1'
_cell_length_a   6.10901509
_cell_length_b   6.10901509
_cell_length_c   12.11425500
_cell_angle_alpha   90.00000000
_cell_angle_beta   90.00000000
_cell_angle_gamma   119.99999017
_symmetry_Int_Tables_number   1
_chemical_formula_structural   LuScO3
_chemical_formula_sum   'Lu6 Sc6 O18'
_cell_volume   391.53427110
_cell_formula_units_Z   6
loop_
 _symmetry_equiv_pos_site_id
 _symmetry_equiv_pos_as_xyz
  1  'x, y, z'
loop_
 _atom_site_type_symbol
 _atom_site_label
 _atom_site_symmetry_multiplicity
 _atom_site_fract_x
 _atom_site_fract_y
 _atom_site_fract_z
 _atom_site_occupancy
  Lu  Lu0  1  0.33333300  0.66666700  0.23265400  1
  Lu  Lu1  1  0.00000000  0.00000000  0.27083800  1
  Lu  Lu2  1  0.00000000  0.00000000  0.77083800  1
  Lu  Lu3  1  0.33333300  0.66666700  0.73265400  1
  Lu  Lu4  1  0.66666700  0.33333300  0.73265400  1
  Lu  Lu5  1  0.66666700  0.33333300  0.23265400  1
  Sc  Sc0  1  0.00000000  0.66655500  0.49871600  1
  Sc  Sc1  1  0.00000000  0.33344500  0.99871600  1
  Sc  Sc2  1  0.33344500  0.33344500  0.49871600  1
  Sc  Sc3  1  0.66655500  0.66655500  0.99871600  1
  Sc  Sc4  1  0.33344500  0.00000000  0.99871600  1
  Sc  Sc5  1  0.66655500  0.00000000  0.49871600  1
  O  O0  1  0.00000000  0.69372600  0.66904000  1
  O  O1  1  0.00000000  0.63869800  0.33012300  1
  O  O2  1  0.00000000  0.36130200  0.83012300  1
  O  O3  1  0.00000000  0.30627400  0.16904000  1
  O  O4  1  0.33333300  0.66666700  0.02178500  1
  O  O5  1  0.00000000  0.00000000  0.46992000  1
  O  O6  1  0.00000000  0.00000000  0.96992000  1
  O  O7  1  0.33333300  0.66666700  0.52178500  1
  O  O8  1  0.30627400  0.30627400  0.66904000  1
  O  O9  1  0.36130200  0.36130200  0.33012300  1
  O  O10  1  0.30627400  0.00000000  0.16904000  1
  O  O11  1  0.63869800  0.63869800  0.83012300  1
  O  O12  1  0.69372600  0.69372600  0.16904000  1
  O  O13  1  0.36130200  0.00000000  0.83012300  1
  O  O14  1  0.66666700  0.33333300  0.52178500  1
  O  O15  1  0.66666700  0.33333300  0.02178500  1
  O  O16  1  0.63869800  0.00000000  0.33012300  1
  O  O17  1  0.69372600  0.00000000  0.66904000  1
loop_
_geom_bond_atom_site_label_1
_geom_bond_atom_site_label_2
_geom_bond_distance
_geom_bond_site_symmetry_2
Lu0 O10 2.259311 1_565
Lu0 O3 2.259314 1_555
Lu0 O12 2.259317 1_555
Lu0 O1 2.285198 1_555
Lu0 O16 2.285200 1_565
Lu0 O9 2.285203 1_555
Lu0 O4 2.554521 1_555
Lu1 O3 2.240884 1_555
Lu1 O10 2.240884 1_555
Lu1 O12 2.240884 1_445
Lu1 O16 2.321106 1_455
Lu1 O1 2.321106 1_545
Lu1 O9 2.321106 1_555
Lu1 O5 2.411730 1_555
Lu2 O17 2.240884 1_455
Lu2 O0 2.240884 1_545
Lu2 O8 2.240884 1_555
Lu2 O2 2.321106 1_555
Lu2 O13 2.321106 1_555
Lu2 O11 2.321106 1_445
Lu2 O6 2.411730 1_555
Lu3 O0 2.259311 1_555
Lu3 O17 2.259314 1_565
Lu3 O8 2.259317 1_555
Lu3 O13 2.285198 1_565
Lu3 O2 2.285200 1_555
Lu3 O11 2.285203 1_555
Lu3 O7 2.554521 1_555
Lu4 O17 2.259311 1_555
Lu4 O0 2.259314 1_655
Lu4 O8 2.259317 1_555
Lu4 O2 2.285198 1_655
Lu4 O13 2.285200 1_555
Lu4 O11 2.285203 1_555
Lu4 O14 2.554521 1_555
Lu5 O3 2.259311 1_655
Lu5 O10 2.259314 1_555
Lu5 O12 2.259317 1_555
Lu5 O16 2.285198 1_555
Lu5 O1 2.285200 1_655
Lu5 O9 2.285203 1_555
Lu5 O15 2.554521 1_555
O0 Sc0 2.070014 1_555
O1 Sc0 2.049456 1_555
O2 Sc1 2.049456 1_555
O3 Sc1 2.070014 1_554
O4 Sc4 2.055085 1_564
O4 Sc1 2.055088 1_554
O4 Sc3 2.055091 1_554
O5 Sc0 2.066674 1_545
O5 Sc5 2.066674 1_455
O5 Sc2 2.066675 1_555
O6 Sc1 2.066674 1_555
O6 Sc4 2.066674 1_555
O6 Sc3 2.066675 1_445
O7 Sc0 2.055085 1_555
O7 Sc5 2.055088 1_565
O7 Sc2 2.055091 1_555
O8 Sc2 2.070014 1_555
O9 Sc2 2.049456 1_555
O10 Sc4 2.070014 1_554
O11 Sc3 2.049456 1_555
O12 Sc3 2.070014 1_554
O13 Sc4 2.049456 1_555
O14 Sc5 2.055085 1_555
O14 Sc0 2.055088 1_655
O14 Sc2 2.055091 1_555
O15 Sc1 2.055085 1_654
O15 Sc4 2.055088 1_554
O15 Sc3 2.055091 1_554
O16 Sc5 2.049456 1_555
O17 Sc5 2.070014 1_555
