# generated using pymatgen
data_Li4V2Cr3Ni3O16
_symmetry_space_group_name_H-M   'P 1'
_cell_length_a   5.87427687
_cell_length_b   5.87427687
_cell_length_c   9.44594777
_cell_angle_alpha   89.80250283
_cell_angle_beta   89.80250283
_cell_angle_gamma   59.93172817
_symmetry_Int_Tables_number   1
_chemical_formula_structural   Li4V2Cr3Ni3O16
_chemical_formula_sum   'Li4 V2 Cr3 Ni3 O16'
_cell_volume   282.08654635
_cell_formula_units_Z   1
loop_
 _symmetry_equiv_pos_site_id
 _symmetry_equiv_pos_as_xyz
  1  'x, y, z'
loop_
 _atom_site_type_symbol
 _atom_site_label
 _atom_site_symmetry_multiplicity
 _atom_site_fract_x
 _atom_site_fract_y
 _atom_site_fract_z
 _atom_site_occupancy
  Li  Li0  1  0.66192200  0.66192200  0.10189000  1
  Li  Li1  1  0.00388100  0.00388100  0.01257800  1
  Li  Li2  1  0.99980700  0.99980700  0.50443100  1
  Li  Li3  1  0.33582800  0.33582800  0.60043100  1
  V  V0  1  0.66458900  0.66458900  0.49745300  1
  V  V1  1  0.34749000  0.34749000  0.00693300  1
  Cr  Cr0  1  0.34941700  0.83980300  0.78021800  1
  Cr  Cr1  1  0.83980300  0.34941700  0.78021800  1
  Cr  Cr2  1  0.17710400  0.17710400  0.27038000  1
  Ni  Ni0  1  0.83015400  0.83015400  0.79181600  1
  Ni  Ni1  1  0.16695800  0.65376000  0.28957800  1
  Ni  Ni2  1  0.65376000  0.16695800  0.28957800  1
  O  O0  1  0.35090700  0.82694800  0.41081000  1
  O  O1  1  0.52249100  0.52249100  0.65720200  1
  O  O2  1  0.65227800  0.65227800  0.89522700  1
  O  O3  1  0.00660900  0.00660900  0.69868600  1
  O  O4  1  0.00559200  0.00559200  0.20543000  1
  O  O5  1  0.82694800  0.35090700  0.41081000  1
  O  O6  1  0.51284800  0.95791800  0.65754300  1
  O  O7  1  0.95791800  0.51284800  0.65754300  1
  O  O8  1  0.17295200  0.17295200  0.90121600  1
  O  O9  1  0.82428300  0.82428300  0.41843800  1
  O  O10  1  0.03672200  0.46554000  0.14776500  1
  O  O11  1  0.46554000  0.03672200  0.14776500  1
  O  O12  1  0.31713600  0.31713600  0.39564000  1
  O  O13  1  0.17584800  0.65715400  0.90907100  1
  O  O14  1  0.47329400  0.47329400  0.14495500  1
  O  O15  1  0.65715400  0.17584800  0.90907100  1
loop_
_geom_bond_atom_site_label_1
_geom_bond_atom_site_label_2
_geom_bond_distance
_geom_bond_site_symmetry_2
Li0 O2 1.954984 1_554
Li0 O10 1.955504 1_655
Li0 O11 1.955504 1_565
Li0 O14 1.960903 1_555
Li1 O4 1.821822 1_555
Li1 O8 2.013287 1_554
Li1 O15 2.017426 1_454
Li1 O13 2.017426 1_544
Li2 O3 1.836503 1_665
Li2 O9 1.965428 1_555
Li2 O5 1.990453 1_565
Li2 O0 1.990453 1_655
Li3 O12 1.944531 1_555
Li3 O1 1.976148 1_555
Li3 O6 1.995727 1_545
Li3 O7 1.995727 1_455
Cr0 O6 1.843947 1_555
Cr0 O2 1.897381 1_555
Cr0 O3 1.907004 1_565
Cr0 O1 1.991510 1_555
Cr0 O8 2.045769 1_565
Cr0 O13 2.179639 1_555
Cr1 O7 1.843947 1_555
Cr1 O2 1.897381 1_555
Cr1 O3 1.907004 1_655
Cr1 O1 1.991510 1_555
Cr1 O8 2.045769 1_655
Cr1 O15 2.179639 1_555
Cr2 O4 1.852630 1_555
Cr2 O12 1.855997 1_555
Cr2 O10 1.866887 1_555
Cr2 O11 1.866887 1_555
Cr2 O5 2.217883 1_455
Cr2 O0 2.217883 1_545
Ni0 O3 1.996697 1_665
Ni0 O2 2.053716 1_555
Ni0 O6 2.062562 1_555
Ni0 O7 2.062562 1_555
Ni0 O15 2.079194 1_565
Ni0 O13 2.079194 1_655
Ni1 O4 1.957690 1_565
Ni1 O12 1.984074 1_555
Ni1 O14 2.075983 1_555
Ni1 O10 2.113546 1_555
Ni1 O9 2.123204 1_455
Ni1 O0 2.152245 1_555
Ni2 O4 1.957690 1_655
Ni2 O12 1.984074 1_555
Ni2 O14 2.075983 1_555
Ni2 O11 2.113546 1_555
Ni2 O9 2.123204 1_545
Ni2 O5 2.152245 1_555
O0 V0 1.794100 1_555
O1 V0 2.085996 1_555
O5 V0 1.794100 1_555
O6 V0 2.126015 1_555
O7 V0 2.126015 1_555
O8 V1 2.041349 1_556
O9 V0 1.785848 1_555
O10 V1 2.074661 1_555
O11 V1 2.074661 1_555
O13 V1 1.826753 1_556
O14 V1 1.831002 1_555
O15 V1 1.826753 1_556
