# generated using pymatgen
data_Li3Mn2(FeO4)2
_symmetry_space_group_name_H-M   'P 1'
_cell_length_a   5.93866867
_cell_length_b   5.90097947
_cell_length_c   5.88394281
_cell_angle_alpha   59.06299150
_cell_angle_beta   59.62833017
_cell_angle_gamma   88.14758086
_symmetry_Int_Tables_number   1
_chemical_formula_structural   Li3Mn2(FeO4)2
_chemical_formula_sum   'Li3 Mn2 Fe2 O8'
_cell_volume   145.19334184
_cell_formula_units_Z   1
loop_
 _symmetry_equiv_pos_site_id
 _symmetry_equiv_pos_as_xyz
  1  'x, y, z'
loop_
 _atom_site_type_symbol
 _atom_site_label
 _atom_site_symmetry_multiplicity
 _atom_site_fract_x
 _atom_site_fract_y
 _atom_site_fract_z
 _atom_site_occupancy
  Li  Li0  1  0.00000000  0.50000000  0.00000000  1
  Li  Li1  1  0.50000000  0.00000000  0.50000000  1
  Li  Li2  1  0.50000000  0.50000000  0.00000000  1
  Mn  Mn0  1  0.00000000  0.50000000  0.50000000  1
  Mn  Mn1  1  0.50000000  0.00000000  0.00000000  1
  Fe  Fe0  1  0.00000000  0.00000000  0.50000000  1
  Fe  Fe1  1  0.00000000  0.00000000  0.00000000  1
  O  O0  1  0.22168300  0.73161000  0.03109800  1
  O  O1  1  0.76346500  0.79066000  0.98177800  1
  O  O2  1  0.23345300  0.74696700  0.48290600  1
  O  O3  1  0.21543400  0.23845900  0.52333100  1
  O  O4  1  0.78456600  0.76154100  0.47666900  1
  O  O5  1  0.76654700  0.25303300  0.51709400  1
  O  O6  1  0.23653500  0.20934000  0.01822200  1
  O  O7  1  0.77831700  0.26839000  0.96890100  1
loop_
_geom_bond_atom_site_label_1
_geom_bond_atom_site_label_2
_geom_bond_distance
_geom_bond_site_symmetry_2
Li0 O0 2.061953 1_555
Li0 O7 2.061957 1_454
Li0 O2 2.146895 1_554
Li0 O5 2.146895 1_455
Li0 O6 2.175770 1_555
Li0 O1 2.175770 1_454
Li1 O4 2.159881 1_545
Li1 O3 2.159881 1_555
Li1 O0 2.205236 1_546
Li1 O7 2.205240 1_554
Li1 O5 2.283306 1_555
Li1 O2 2.283306 1_545
Li2 O0 2.106784 1_555
Li2 O7 2.106784 1_554
Li2 O3 2.177105 1_555
Li2 O4 2.177105 1_554
Li2 O1 2.283897 1_554
Li2 O6 2.283897 1_555
Mn0 O7 1.944074 1_455
Mn0 O0 1.944079 1_555
Mn0 O3 1.967160 1_555
Mn0 O4 1.967160 1_455
Mn0 O5 1.973572 1_455
Mn0 O2 1.973572 1_555
Mn1 O1 1.956310 1_544
Mn1 O6 1.956310 1_555
Mn1 O2 2.012731 1_545
Mn1 O5 2.012731 1_554
Mn1 O7 2.199789 1_554
Mn1 O0 2.199793 1_545
Fe0 O6 2.005002 1_555
Fe0 O1 2.005002 1_445
Fe0 O2 2.010291 1_545
Fe0 O5 2.010291 1_455
Fe0 O4 2.031832 1_445
Fe0 O3 2.031832 1_555
Fe1 O6 1.977711 1_555
Fe1 O1 1.977711 1_444
Fe1 O4 1.978177 1_445
Fe1 O3 1.978177 1_554
Fe1 O0 2.021336 1_545
Fe1 O7 2.021336 1_454
