# generated using pymatgen
data_SrCrO3
_symmetry_space_group_name_H-M   'P 1'
_cell_length_a   5.50511573
_cell_length_b   5.50511573
_cell_length_c   13.53380400
_cell_angle_alpha   90.00000000
_cell_angle_beta   90.00000000
_cell_angle_gamma   119.99999681
_symmetry_Int_Tables_number   1
_chemical_formula_structural   SrCrO3
_chemical_formula_sum   'Sr6 Cr6 O18'
_cell_volume   355.20857015
_cell_formula_units_Z   6
loop_
 _symmetry_equiv_pos_site_id
 _symmetry_equiv_pos_as_xyz
  1  'x, y, z'
loop_
 _atom_site_type_symbol
 _atom_site_label
 _atom_site_symmetry_multiplicity
 _atom_site_fract_x
 _atom_site_fract_y
 _atom_site_fract_z
 _atom_site_occupancy
  Sr  Sr0  1  0.33333300  0.66666700  0.09122000  1
  Sr  Sr1  1  0.00000000  0.00000000  0.25000000  1
  Sr  Sr2  1  0.00000000  0.00000000  0.75000000  1
  Sr  Sr3  1  0.33333300  0.66666700  0.40878000  1
  Sr  Sr4  1  0.66666700  0.33333300  0.59122000  1
  Sr  Sr5  1  0.66666700  0.33333300  0.90878000  1
  Cr  Cr0  1  0.33333300  0.66666700  0.84285000  1
  Cr  Cr1  1  0.00000000  0.00000000  0.00000000  1
  Cr  Cr2  1  0.00000000  0.00000000  0.50000000  1
  Cr  Cr3  1  0.33333300  0.66666700  0.65715000  1
  Cr  Cr4  1  0.66666700  0.33333300  0.15715000  1
  Cr  Cr5  1  0.66666700  0.33333300  0.34285000  1
  O  O0  1  0.16433100  0.32866100  0.58240700  1
  O  O1  1  0.16433100  0.32866100  0.91759300  1
  O  O2  1  0.48746400  0.51253600  0.75000000  1
  O  O3  1  0.67133900  0.83566900  0.58240700  1
  O  O4  1  0.67133900  0.83566900  0.91759300  1
  O  O5  1  0.02507200  0.51253600  0.75000000  1
  O  O6  1  0.48746400  0.97492800  0.75000000  1
  O  O7  1  0.16433100  0.83566900  0.58240700  1
  O  O8  1  0.16433100  0.83566900  0.91759300  1
  O  O9  1  0.83566900  0.16433100  0.08240700  1
  O  O10  1  0.83566900  0.16433100  0.41759300  1
  O  O11  1  0.51253600  0.02507200  0.25000000  1
  O  O12  1  0.97492800  0.48746400  0.25000000  1
  O  O13  1  0.32866100  0.16433100  0.08240700  1
  O  O14  1  0.32866100  0.16433100  0.41759300  1
  O  O15  1  0.51253600  0.48746400  0.25000000  1
  O  O16  1  0.83566900  0.67133900  0.41759300  1
  O  O17  1  0.83566900  0.67133900  0.08240700  1
loop_
_geom_bond_atom_site_label_1
_geom_bond_atom_site_label_2
_geom_bond_distance
_geom_bond_site_symmetry_2
Cr0 O8 1.902641 1_555
Cr0 O4 1.902649 1_555
Cr0 O1 1.902649 1_555
Cr0 O6 1.933641 1_555
Cr0 O5 1.933641 1_555
Cr0 O2 1.933644 1_555
Cr1 O17 1.923297 1_445
Cr1 O13 1.923297 1_555
Cr1 O4 1.923297 1_444
Cr1 O1 1.923297 1_554
Cr1 O9 1.923301 1_455
Cr1 O8 1.923301 1_544
Cr2 O14 1.923297 1_555
Cr2 O3 1.923297 1_445
Cr2 O16 1.923297 1_445
Cr2 O0 1.923297 1_555
Cr2 O10 1.923301 1_455
Cr2 O7 1.923301 1_545
Cr3 O7 1.902641 1_555
Cr3 O0 1.902649 1_555
Cr3 O3 1.902649 1_555
Cr3 O6 1.933641 1_555
Cr3 O5 1.933641 1_555
Cr3 O2 1.933644 1_555
Cr4 O9 1.902641 1_555
Cr4 O13 1.902649 1_555
Cr4 O17 1.902649 1_555
Cr4 O12 1.933641 1_555
Cr4 O11 1.933641 1_555
Cr4 O15 1.933644 1_555
Cr5 O10 1.902641 1_555
Cr5 O14 1.902649 1_555
Cr5 O16 1.902649 1_555
Cr5 O12 1.933641 1_555
Cr5 O11 1.933641 1_555
Cr5 O15 1.933644 1_555
O0 Sr4 2.755231 1_455
O0 Sr4 2.755231 1_555
O0 Sr2 2.756777 1_555
O0 Sr3 2.849306 1_555
O1 Sr5 2.755231 1_455
O1 Sr5 2.755231 1_555
O1 Sr2 2.756777 1_555
O1 Sr0 2.849306 1_556
O2 Sr4 2.745451 1_555
O2 Sr5 2.745451 1_555
O2 Sr2 2.755152 1_555
O2 Sr2 2.755152 1_665
O3 Sr4 2.755231 1_565
O3 Sr4 2.755231 1_555
O3 Sr2 2.756777 1_665
O3 Sr3 2.849306 1_555
O4 Sr5 2.755231 1_565
O4 Sr5 2.755231 1_555
O4 Sr2 2.756777 1_665
O4 Sr0 2.849306 1_556
O5 Sr4 2.745449 1_455
O5 Sr5 2.745449 1_455
O5 Sr2 2.755152 1_565
O5 Sr2 2.755152 1_555
O6 Sr4 2.745449 1_565
O6 Sr5 2.745449 1_565
O6 Sr2 2.755152 1_565
O6 Sr2 2.755152 1_665
O7 Sr4 2.755231 1_455
O7 Sr4 2.755231 1_565
O7 Sr2 2.756780 1_565
O7 Sr3 2.849301 1_555
O8 Sr5 2.755231 1_455
O8 Sr5 2.755231 1_565
O8 Sr2 2.756780 1_565
O8 Sr0 2.849301 1_556
O9 Sr0 2.755231 1_545
O9 Sr0 2.755231 1_655
O9 Sr1 2.756780 1_655
O9 Sr5 2.849301 1_554
O10 Sr3 2.755231 1_545
O10 Sr3 2.755231 1_655
O10 Sr1 2.756780 1_655
O10 Sr4 2.849301 1_555
O11 Sr0 2.745449 1_545
O11 Sr3 2.745449 1_545
O11 Sr1 2.755152 1_655
O11 Sr1 2.755152 1_555
O12 Sr0 2.745449 1_655
O12 Sr3 2.745449 1_655
O12 Sr1 2.755152 1_655
O12 Sr1 2.755152 1_665
O13 Sr0 2.755231 1_545
O13 Sr0 2.755231 1_555
O13 Sr1 2.756777 1_555
O13 Sr5 2.849306 1_554
O14 Sr3 2.755231 1_545
O14 Sr3 2.755231 1_555
O14 Sr1 2.756777 1_555
O14 Sr4 2.849306 1_555
O15 Sr0 2.745451 1_555
O15 Sr3 2.745451 1_555
O15 Sr1 2.755152 1_555
O15 Sr1 2.755152 1_665
O16 Sr3 2.755231 1_655
O16 Sr3 2.755231 1_555
O16 Sr1 2.756777 1_665
O16 Sr4 2.849306 1_555
O17 Sr0 2.755231 1_655
O17 Sr0 2.755231 1_555
O17 Sr1 2.756777 1_665
O17 Sr5 2.849306 1_554
