# generated using pymatgen
data_Li3Fe2NiO6
_symmetry_space_group_name_H-M   'P 1'
_cell_length_a   6.73093323
_cell_length_b   6.73093323
_cell_length_c   5.90171675
_cell_angle_alpha   76.97454068
_cell_angle_beta   76.97454068
_cell_angle_gamma   25.09391916
_symmetry_Int_Tables_number   1
_chemical_formula_structural   Li3Fe2NiO6
_chemical_formula_sum   'Li3 Fe2 Ni1 O6'
_cell_volume   110.33252778
_cell_formula_units_Z   1
loop_
 _symmetry_equiv_pos_site_id
 _symmetry_equiv_pos_as_xyz
  1  'x, y, z'
loop_
 _atom_site_type_symbol
 _atom_site_label
 _atom_site_symmetry_multiplicity
 _atom_site_fract_x
 _atom_site_fract_y
 _atom_site_fract_z
 _atom_site_occupancy
  Li  Li0  1  0.50000000  0.50000000  0.50000000  1
  Li  Li1  1  0.16429400  0.16429400  0.16570400  1
  Li  Li2  1  0.83570600  0.83570600  0.83429600  1
  Fe  Fe0  1  0.16687600  0.16687600  0.67215000  1
  Fe  Fe1  1  0.83312400  0.83312400  0.32785000  1
  Ni  Ni0  1  0.50000000  0.50000000  0.00000000  1
  O  O0  1  0.66460100  0.66460100  0.90301700  1
  O  O1  1  0.33022000  0.33022000  0.56946000  1
  O  O2  1  0.33539900  0.33539900  0.09698300  1
  O  O3  1  0.99545700  0.99545700  0.23380500  1
  O  O4  1  0.00454300  0.00454300  0.76619500  1
  O  O5  1  0.66978000  0.66978000  0.43054000  1
loop_
_geom_bond_atom_site_label_1
_geom_bond_atom_site_label_2
_geom_bond_distance
_geom_bond_site_symmetry_2
Li0 O4 2.157091 1_655
Li0 O4 2.157091 1_565
Li0 O3 2.157091 1_455
Li0 O3 2.157091 1_545
Li0 O1 2.173235 1_555
Li0 O5 2.173235 1_555
Li1 O0 2.130417 1_454
Li1 O0 2.130417 1_544
Li1 O5 2.153662 1_545
Li1 O5 2.153662 1_455
Li1 O3 2.161450 1_445
Li1 O2 2.190574 1_555
Li2 O2 2.130417 1_656
Li2 O2 2.130417 1_566
Li2 O1 2.153662 1_655
Li2 O1 2.153662 1_565
Li2 O4 2.161450 1_665
Li2 O0 2.190574 1_555
Fe0 O0 1.994148 1_455
Fe0 O0 1.994148 1_545
Fe0 O5 2.036581 1_545
Fe0 O5 2.036581 1_455
Fe0 O4 2.076416 1_555
Fe0 O1 2.091319 1_555
Fe1 O2 1.994148 1_565
Fe1 O2 1.994148 1_655
Fe1 O1 2.036581 1_655
Fe1 O1 2.036581 1_565
Fe1 O3 2.076416 1_555
Fe1 O5 2.091319 1_555
Ni0 O3 2.001904 1_545
Ni0 O3 2.001904 1_455
Ni0 O4 2.001904 1_654
Ni0 O4 2.001904 1_564
Ni0 O2 2.105736 1_555
Ni0 O0 2.105736 1_554
