# generated using pymatgen
data_NaVPCO7
_symmetry_space_group_name_H-M   'P 1'
_cell_length_a   6.30323400
_cell_length_b   10.66919428
_cell_length_c   10.53054239
_cell_angle_alpha   117.91773969
_cell_angle_beta   90.00141554
_cell_angle_gamma   90.00053688
_symmetry_Int_Tables_number   1
_chemical_formula_structural   NaVPCO7
_chemical_formula_sum   'Na4 V4 P4 C4 O28'
_cell_volume   625.76559257
_cell_formula_units_Z   4
loop_
 _symmetry_equiv_pos_site_id
 _symmetry_equiv_pos_as_xyz
  1  'x, y, z'
loop_
 _atom_site_type_symbol
 _atom_site_label
 _atom_site_symmetry_multiplicity
 _atom_site_fract_x
 _atom_site_fract_y
 _atom_site_fract_z
 _atom_site_occupancy
  Na  Na0  1  0.46932300  0.22688000  0.22352200  1
  Na  Na1  1  0.46931400  0.72692200  0.22360800  1
  Na  Na2  1  0.96930800  0.77310100  0.77650800  1
  Na  Na3  1  0.96934300  0.27310900  0.77641700  1
  V  V0  1  0.77179400  0.06262600  0.33847100  1
  V  V1  1  0.27189400  0.93745500  0.66152200  1
  V  V2  1  0.77171500  0.56260300  0.33846300  1
  V  V3  1  0.27178100  0.43736200  0.66154300  1
  P  P0  1  0.26354200  0.58162200  0.44281000  1
  P  P1  1  0.26361300  0.08163000  0.44280400  1
  P  P2  1  0.76350900  0.41838300  0.55721500  1
  P  P3  1  0.76358000  0.91836100  0.55719200  1
  C  C0  1  0.73955400  0.40148900  0.08574700  1
  C  C1  1  0.73960000  0.90152200  0.08582100  1
  C  C2  1  0.23956800  0.59852000  0.91425100  1
  C  C3  1  0.23962800  0.09846600  0.91418300  1
  O  O0  1  0.24186600  0.18120200  0.04317700  1
  O  O1  1  0.24185200  0.68117500  0.04321500  1
  O  O2  1  0.74187700  0.81882400  0.95684700  1
  O  O3  1  0.74186500  0.31880700  0.95676800  1
  O  O4  1  0.74354600  0.54381900  0.14549200  1
  O  O5  1  0.74362600  0.04385500  0.14553100  1
  O  O6  1  0.24357100  0.45617100  0.85450700  1
  O  O7  1  0.24366800  0.95616900  0.85447900  1
  O  O8  1  0.73528900  0.36476900  0.19177300  1
  O  O9  1  0.73534800  0.86483300  0.19185800  1
  O  O10  1  0.23530900  0.63521800  0.80822100  1
  O  O11  1  0.23538100  0.13520100  0.80815700  1
  O  O12  1  0.06373200  0.56426600  0.34578800  1
  O  O13  1  0.06389100  0.06425500  0.34578800  1
  O  O14  1  0.56382900  0.43571400  0.65420600  1
  O  O15  1  0.56393400  0.93572700  0.65421600  1
  O  O16  1  0.45359700  0.57210100  0.34675100  1
  O  O17  1  0.45370000  0.07214600  0.34680100  1
  O  O18  1  0.95364500  0.42786900  0.65321400  1
  O  O19  1  0.95377900  0.92783100  0.65317000  1
  O  O20  1  0.75070500  0.27453800  0.42145700  1
  O  O21  1  0.75068800  0.77453500  0.42141700  1
  O  O22  1  0.25074300  0.72547100  0.57853900  1
  O  O23  1  0.25067600  0.22545500  0.57855800  1
  O  O24  1  0.26449500  0.45743300  0.47955300  1
  O  O25  1  0.26460800  0.95747200  0.47959400  1
  O  O26  1  0.76448900  0.54255500  0.52042700  1
  O  O27  1  0.76462100  0.04253600  0.52041900  1
loop_
_geom_bond_atom_site_label_1
_geom_bond_atom_site_label_2
_geom_bond_distance
_geom_bond_site_symmetry_2
Na0 O0 2.243416 1_555
Na0 O8 2.355236 1_555
Na0 O5 2.444476 1_555
Na0 O17 2.535216 1_555
Na0 O20 2.599267 1_555
Na0 O24 2.962556 1_555
Na1 O1 2.243681 1_555
Na1 O9 2.355708 1_555
Na1 O4 2.444643 1_555
Na1 O16 2.534896 1_555
Na1 O21 2.598376 1_555
Na1 O25 2.961961 1_555
Na2 O2 2.243244 1_555
Na2 O10 2.355192 1_655
Na2 O7 2.444977 1_655
Na2 O19 2.535661 1_555
Na2 O22 2.599879 1_655
Na2 O26 2.962697 1_555
Na3 O3 2.243575 1_555
Na3 O11 2.355666 1_655
Na3 O6 2.444300 1_655
Na3 O18 2.534827 1_555
Na3 O23 2.598572 1_655
Na3 O27 2.962092 1_555
C0 O3 1.225236 1_554
C0 O4 1.344548 1_555
C0 O8 1.345515 1_555
C1 O2 1.225227 1_554
C1 O5 1.344603 1_565
C1 O9 1.345400 1_555
C2 O1 1.225053 1_556
C2 O6 1.344735 1_555
C2 O10 1.345394 1_555
C3 O0 1.225467 1_556
C3 O7 1.344260 1_545
C3 O11 1.345620 1_555
O4 V2 1.954407 1_555
O5 V0 1.954136 1_555
O6 V3 1.954264 1_555
O7 V1 1.954590 1_555
O8 V2 1.959820 1_555
O9 V0 1.959295 1_565
O10 V3 1.959998 1_555
O11 V1 1.959068 1_545
O12 P0 1.577065 1_555
O12 V2 1.842003 1_455
O13 P1 1.576546 1_555
O13 V0 1.842507 1_455
O14 P2 1.576309 1_555
O14 V3 1.842208 1_555
O15 P3 1.576275 1_555
O15 V1 1.842137 1_555
O16 P0 1.540296 1_555
O16 V2 2.007569 1_555
O17 P1 1.540179 1_555
O17 V0 2.007434 1_555
O18 P2 1.540348 1_555
O18 V3 2.007683 1_655
O19 P3 1.540560 1_555
O19 V1 2.007598 1_655
O20 P2 1.533332 1_555
O20 V0 2.010725 1_555
O21 P3 1.533330 1_555
O21 V2 2.010927 1_555
O22 P0 1.533218 1_555
O22 V1 2.011456 1_555
O23 P1 1.533242 1_555
O23 V3 2.010678 1_555
O24 P0 1.544484 1_555
O24 V3 2.026092 1_555
O25 P1 1.544486 1_565
O25 V1 2.025126 1_555
O26 P2 1.544617 1_555
O26 V2 2.025678 1_555
O27 P3 1.544547 1_545
O27 V0 2.025749 1_555
