# generated using pymatgen
data_ZnIn2O4
_symmetry_space_group_name_H-M   'P 1'
_cell_length_a   3.33597000
_cell_length_b   10.54470300
_cell_length_c   10.70013800
_cell_angle_alpha   90.00000000
_cell_angle_beta   90.00000000
_cell_angle_gamma   90.00000000
_symmetry_Int_Tables_number   1
_chemical_formula_structural   ZnIn2O4
_chemical_formula_sum   'Zn4 In8 O16'
_cell_volume   376.39675208
_cell_formula_units_Z   4
loop_
 _symmetry_equiv_pos_site_id
 _symmetry_equiv_pos_as_xyz
  1  'x, y, z'
loop_
 _atom_site_type_symbol
 _atom_site_label
 _atom_site_symmetry_multiplicity
 _atom_site_fract_x
 _atom_site_fract_y
 _atom_site_fract_z
 _atom_site_occupancy
  Zn  Zn0  1  0.75000000  0.13148400  0.58402400  1
  Zn  Zn1  1  0.25000000  0.36851600  0.08402400  1
  Zn  Zn2  1  0.75000000  0.63148400  0.91597600  1
  Zn  Zn3  1  0.25000000  0.86851600  0.41597600  1
  In  In0  1  0.75000000  0.13777200  0.28474100  1
  In  In1  1  0.75000000  0.11223000  0.91782500  1
  In  In2  1  0.25000000  0.38777000  0.41782500  1
  In  In3  1  0.25000000  0.36222800  0.78474100  1
  In  In4  1  0.75000000  0.63777200  0.21525900  1
  In  In5  1  0.75000000  0.61223000  0.58217500  1
  In  In6  1  0.25000000  0.88777000  0.08217500  1
  In  In7  1  0.25000000  0.86222800  0.71525900  1
  O  O0  1  0.75000000  0.02374100  0.11246200  1
  O  O1  1  0.75000000  0.95961800  0.62623200  1
  O  O2  1  0.25000000  0.27244900  0.24240400  1
  O  O3  1  0.75000000  0.25994800  0.45994900  1
  O  O4  1  0.25000000  0.24005200  0.95994900  1
  O  O5  1  0.75000000  0.22755100  0.74240400  1
  O  O6  1  0.25000000  0.54038200  0.12623200  1
  O  O7  1  0.25000000  0.47625900  0.61246200  1
  O  O8  1  0.75000000  0.52374100  0.38753800  1
  O  O9  1  0.75000000  0.45961800  0.87376800  1
  O  O10  1  0.25000000  0.77244900  0.25759600  1
  O  O11  1  0.75000000  0.75994800  0.04005100  1
  O  O12  1  0.25000000  0.74005200  0.54005100  1
  O  O13  1  0.75000000  0.72755100  0.75759600  1
  O  O14  1  0.25000000  0.04038200  0.37376800  1
  O  O15  1  0.25000000  0.97625900  0.88753800  1
loop_
_geom_bond_atom_site_label_1
_geom_bond_atom_site_label_2
_geom_bond_distance
_geom_bond_site_symmetry_2
In0 O14 2.178129 1_555
In0 O14 2.178129 1_655
In0 O0 2.200904 1_555
In0 O2 2.236998 1_655
In0 O2 2.236998 1_555
In0 O3 2.274737 1_555
In1 O4 2.191351 1_555
In1 O4 2.191351 1_655
In1 O15 2.223265 1_545
In1 O15 2.223265 1_645
In1 O5 2.236505 1_555
In1 O0 2.282117 1_556
In2 O3 2.191351 1_455
In2 O3 2.191351 1_555
In2 O8 2.223265 1_555
In2 O8 2.223265 1_455
In2 O2 2.236505 1_555
In2 O7 2.282117 1_555
In3 O9 2.178129 1_455
In3 O9 2.178129 1_555
In3 O7 2.200904 1_555
In3 O5 2.236998 1_555
In3 O5 2.236998 1_455
In3 O4 2.274737 1_555
In4 O6 2.178129 1_655
In4 O6 2.178129 1_555
In4 O8 2.200904 1_555
In4 O10 2.236998 1_555
In4 O10 2.236998 1_655
In4 O11 2.274737 1_555
In5 O12 2.191351 1_555
In5 O12 2.191351 1_655
In5 O7 2.223265 1_655
In5 O7 2.223265 1_555
In5 O13 2.236505 1_555
In5 O8 2.282117 1_555
In6 O11 2.191351 1_555
In6 O11 2.191351 1_455
In6 O0 2.223265 1_565
In6 O0 2.223265 1_465
In6 O10 2.236505 1_555
In6 O15 2.282117 1_554
In7 O1 2.178129 1_455
In7 O1 2.178129 1_555
In7 O15 2.200904 1_555
In7 O13 2.236998 1_455
In7 O13 2.236998 1_555
In7 O12 2.274737 1_555
O1 Zn0 1.867703 1_565
O2 Zn1 1.974369 1_555
O3 Zn0 1.896722 1_555
O4 Zn1 1.896722 1_556
O5 Zn0 1.974369 1_555
O6 Zn1 1.867703 1_555
O9 Zn2 1.867703 1_555
O10 Zn3 1.974369 1_555
O11 Zn2 1.896722 1_554
O12 Zn3 1.896722 1_555
O13 Zn2 1.974369 1_555
O14 Zn3 1.867703 1_545
