# generated using pymatgen
data_ZrCd(CO2)8
_symmetry_space_group_name_H-M   'P 1'
_cell_length_a   9.15609536
_cell_length_b   9.15609536
_cell_length_c   24.01193400
_cell_angle_alpha   90.00000000
_cell_angle_beta   90.00000000
_cell_angle_gamma   119.99999540
_symmetry_Int_Tables_number   1
_chemical_formula_structural   ZrCd(CO2)8
_chemical_formula_sum   'Zr3 Cd3 C24 O48'
_cell_volume   1743.32519777
_cell_formula_units_Z   3
loop_
 _symmetry_equiv_pos_site_id
 _symmetry_equiv_pos_as_xyz
  1  'x, y, z'
loop_
 _atom_site_type_symbol
 _atom_site_label
 _atom_site_symmetry_multiplicity
 _atom_site_fract_x
 _atom_site_fract_y
 _atom_site_fract_z
 _atom_site_occupancy
  Zr  Zr0  1  0.50000000  0.50000000  0.66666700  1
  Zr  Zr1  1  0.50000000  0.00000000  0.00000000  1
  Zr  Zr2  1  0.00000000  0.50000000  0.33333300  1
  Cd  Cd0  1  0.00000000  0.50000000  0.83333300  1
  Cd  Cd1  1  0.50000000  0.50000000  0.16666700  1
  Cd  Cd2  1  0.50000000  0.00000000  0.50000000  1
  C  C0  1  0.32163100  0.62169000  0.74890700  1
  C  C1  1  0.37831000  0.69994100  0.08224000  1
  C  C2  1  0.30005900  0.67836900  0.41557300  1
  C  C3  1  0.32163100  0.69994100  0.91776000  1
  C  C4  1  0.37831000  0.67836900  0.58442700  1
  C  C5  1  0.30005900  0.62169000  0.25109300  1
  C  C6  1  0.20750000  0.41504000  0.74766400  1
  C  C7  1  0.58496000  0.79246000  0.08099700  1
  C  C8  1  0.20754000  0.79250000  0.41433000  1
  C  C9  1  0.20750000  0.79246000  0.91900300  1
  C  C10  1  0.58496000  0.79250000  0.58567000  1
  C  C11  1  0.20754000  0.41504000  0.25233600  1
  C  C12  1  0.79250000  0.58496000  0.74766400  1
  C  C13  1  0.41504000  0.20754000  0.08099700  1
  C  C14  1  0.79246000  0.20750000  0.41433000  1
  C  C15  1  0.79250000  0.20754000  0.91900300  1
  C  C16  1  0.41504000  0.20750000  0.58567000  1
  C  C17  1  0.79246000  0.58496000  0.25233600  1
  C  C18  1  0.67836900  0.37831000  0.74890700  1
  C  C19  1  0.62169000  0.30005900  0.08224000  1
  C  C20  1  0.69994100  0.32163100  0.41557300  1
  C  C21  1  0.67836900  0.30005900  0.91776000  1
  C  C22  1  0.62169000  0.32163100  0.58442700  1
  C  C23  1  0.69994100  0.37831000  0.25109300  1
  O  O0  1  0.45333000  0.67500800  0.71916300  1
  O  O1  1  0.32499200  0.77832200  0.05249700  1
  O  O2  1  0.22167800  0.54667000  0.38583000  1
  O  O3  1  0.45333000  0.77832200  0.94750300  1
  O  O4  1  0.32499200  0.54667000  0.61417000  1
  O  O5  1  0.22167800  0.67500800  0.28083700  1
  O  O6  1  0.26836000  0.69743900  0.77719000  1
  O  O7  1  0.30256100  0.57092000  0.11052300  1
  O  O8  1  0.42908000  0.73164000  0.44385600  1
  O  O9  1  0.26836000  0.57092000  0.88947700  1
  O  O10  1  0.30256100  0.73164000  0.55614400  1
  O  O11  1  0.42908000  0.69743900  0.22281000  1
  O  O12  1  0.91907700  0.65507100  0.77737000  1
  O  O13  1  0.34492900  0.26400700  0.11070400  1
  O  O14  1  0.73599300  0.08092300  0.44403700  1
  O  O15  1  0.91907700  0.26400700  0.88929600  1
  O  O16  1  0.34492900  0.08092300  0.55596300  1
  O  O17  1  0.73599300  0.65507100  0.22263000  1
  O  O18  1  0.26704200  0.35068700  0.71437600  1
  O  O19  1  0.64931300  0.91635500  0.04771000  1
  O  O20  1  0.08364500  0.73295800  0.38104300  1
  O  O21  1  0.26704200  0.91635500  0.95229000  1
  O  O22  1  0.64931300  0.73295800  0.61895700  1
  O  O23  1  0.08364500  0.35068700  0.28562400  1
  O  O24  1  0.08092300  0.34492900  0.77737000  1
  O  O25  1  0.65507100  0.73599300  0.11070400  1
  O  O26  1  0.26400700  0.91907700  0.44403700  1
  O  O27  1  0.08092300  0.73599300  0.88929600  1
  O  O28  1  0.65507100  0.91907700  0.55596300  1
  O  O29  1  0.26400700  0.34492900  0.22263000  1
  O  O30  1  0.54667000  0.32499200  0.71916300  1
  O  O31  1  0.67500800  0.22167800  0.05249700  1
  O  O32  1  0.77832200  0.45333000  0.38583000  1
  O  O33  1  0.54667000  0.22167800  0.94750300  1
  O  O34  1  0.67500800  0.45333000  0.61417000  1
  O  O35  1  0.77832200  0.32499200  0.28083700  1
  O  O36  1  0.73164000  0.30256100  0.77719000  1
  O  O37  1  0.69743900  0.42908000  0.11052300  1
  O  O38  1  0.57092000  0.26836000  0.44385600  1
  O  O39  1  0.73164000  0.42908000  0.88947700  1
  O  O40  1  0.69743900  0.26836000  0.55614400  1
  O  O41  1  0.57092000  0.30256100  0.22281000  1
  O  O42  1  0.73295800  0.64931300  0.71437600  1
  O  O43  1  0.35068700  0.08364500  0.04771000  1
  O  O44  1  0.91635500  0.26704200  0.38104300  1
  O  O45  1  0.73295800  0.08364500  0.95229000  1
  O  O46  1  0.35068700  0.26704200  0.61895700  1
  O  O47  1  0.91635500  0.64931300  0.28562400  1
loop_
_geom_bond_atom_site_label_1
_geom_bond_atom_site_label_2
_geom_bond_distance
_geom_bond_site_symmetry_2
Cd0 O15 2.328665 1_455
Cd0 O27 2.328665 1_555
Cd0 O24 2.328672 1_555
Cd0 O12 2.328672 1_455
Cd0 O6 2.584758 1_555
Cd0 O36 2.584758 1_455
Cd0 O39 2.584772 1_455
Cd0 O9 2.584772 1_555
Cd1 O25 2.328666 1_555
Cd1 O13 2.328666 1_555
Cd1 O29 2.328666 1_555
Cd1 O17 2.328666 1_555
Cd1 O11 2.584752 1_555
Cd1 O41 2.584752 1_555
Cd1 O37 2.584765 1_555
Cd1 O7 2.584765 1_555
Cd2 O26 2.328665 1_545
Cd2 O14 2.328665 1_555
Cd2 O16 2.328672 1_555
Cd2 O28 2.328672 1_545
Cd2 O40 2.584770 1_555
Cd2 O10 2.584770 1_545
Cd2 O8 2.584772 1_545
Cd2 O38 2.584772 1_555
C0 O6 1.232251 1_555
C0 O0 1.270360 1_555
C1 O7 1.232257 1_555
C1 O1 1.270347 1_555
C2 O8 1.232258 1_555
C2 O2 1.270347 1_555
C3 O9 1.232258 1_555
C3 O3 1.270347 1_555
C4 O10 1.232251 1_555
C4 O4 1.270347 1_555
C5 O11 1.232257 1_555
C5 O5 1.270360 1_555
C6 O24 1.232912 1_555
C6 O18 1.266696 1_555
C7 O25 1.232932 1_555
C7 O19 1.266681 1_555
C8 O26 1.232926 1_555
C8 O20 1.266681 1_555
C9 O27 1.232926 1_555
C9 O21 1.266681 1_555
C10 O28 1.232926 1_555
C10 O22 1.266681 1_555
C11 O29 1.232918 1_555
C11 O23 1.266696 1_555
C12 O12 1.232912 1_555
C12 O42 1.266696 1_555
C13 O13 1.232932 1_555
C13 O43 1.266681 1_555
C14 O14 1.232926 1_555
C14 O44 1.266681 1_555
C15 O15 1.232926 1_555
C15 O45 1.266681 1_555
C16 O16 1.232926 1_555
C16 O46 1.266681 1_555
C17 O17 1.232918 1_555
C17 O47 1.266696 1_555
C18 O36 1.232251 1_555
C18 O30 1.270360 1_555
C19 O37 1.232257 1_555
C19 O31 1.270347 1_555
C20 O38 1.232258 1_555
C20 O32 1.270347 1_555
C21 O39 1.232258 1_555
C21 O33 1.270347 1_555
C22 O40 1.232251 1_555
C22 O34 1.270347 1_555
C23 O41 1.232257 1_555
C23 O35 1.270360 1_555
O0 Zr0 2.241409 1_555
O1 Zr1 2.241423 1_565
O2 Zr2 2.241422 1_555
O3 Zr1 2.241422 1_566
O4 Zr0 2.241422 1_555
O5 Zr2 2.241409 1_555
O18 Zr0 2.194303 1_555
O19 Zr1 2.194316 1_565
O20 Zr2 2.194316 1_555
O21 Zr1 2.194316 1_566
O22 Zr0 2.194316 1_555
O23 Zr2 2.194303 1_555
O30 Zr0 2.241409 1_555
O31 Zr1 2.241423 1_555
O32 Zr2 2.241422 1_655
O33 Zr1 2.241422 1_556
O34 Zr0 2.241422 1_555
O35 Zr2 2.241409 1_655
O42 Zr0 2.194303 1_555
O43 Zr1 2.194316 1_555
O44 Zr2 2.194316 1_655
O45 Zr1 2.194316 1_556
O46 Zr0 2.194316 1_555
O47 Zr2 2.194303 1_655
