# generated using pymatgen
data_Li4Ti3(FeO4)3
_symmetry_space_group_name_H-M   'P 1'
_cell_length_a   6.01385000
_cell_length_b   6.04490543
_cell_length_c   6.70375330
_cell_angle_alpha   103.35015880
_cell_angle_beta   102.47564854
_cell_angle_gamma   91.10119711
_symmetry_Int_Tables_number   1
_chemical_formula_structural   Li4Ti3(FeO4)3
_chemical_formula_sum   'Li4 Ti3 Fe3 O12'
_cell_volume   230.90497459
_cell_formula_units_Z   1
loop_
 _symmetry_equiv_pos_site_id
 _symmetry_equiv_pos_as_xyz
  1  'x, y, z'
loop_
 _atom_site_type_symbol
 _atom_site_label
 _atom_site_symmetry_multiplicity
 _atom_site_fract_x
 _atom_site_fract_y
 _atom_site_fract_z
 _atom_site_occupancy
  Li  Li0  1  0.50000000  0.00000000  0.00000000  1
  Li  Li1  1  0.17388300  0.66528000  0.66522400  1
  Li  Li2  1  0.00000000  0.00000000  0.00000000  1
  Li  Li3  1  0.82611700  0.33472000  0.33477600  1
  Ti  Ti0  1  0.82807200  0.82598600  0.35247900  1
  Ti  Ti1  1  0.50000000  0.50000000  0.00000000  1
  Ti  Ti2  1  0.17192800  0.17401400  0.64752100  1
  Fe  Fe0  1  0.33619200  0.82346300  0.33768800  1
  Fe  Fe1  1  0.00000000  0.50000000  0.00000000  1
  Fe  Fe2  1  0.66380800  0.17653700  0.66231200  1
  O  O0  1  0.39953300  0.94899000  0.66168400  1
  O  O1  1  0.92910700  0.93468800  0.65332300  1
  O  O2  1  0.60046700  0.05101000  0.33831600  1
  O  O3  1  0.26041300  0.73031600  0.00671400  1
  O  O4  1  0.07089300  0.06531200  0.34667700  1
  O  O5  1  0.75163500  0.73312600  0.02230200  1
  O  O6  1  0.58970300  0.59148800  0.30983300  1
  O  O7  1  0.24836500  0.26687400  0.97769800  1
  O  O8  1  0.06473300  0.60510000  0.32254800  1
  O  O9  1  0.73958700  0.26968400  0.99328600  1
  O  O10  1  0.41029700  0.40851200  0.69016700  1
  O  O11  1  0.93526700  0.39490000  0.67745200  1
loop_
_geom_bond_atom_site_label_1
_geom_bond_atom_site_label_2
_geom_bond_distance
_geom_bond_site_symmetry_2
Li0 O0 2.163733 1_544
Li0 O2 2.163733 1_555
Li0 O9 2.169623 1_554
Li0 O3 2.169623 1_545
Li0 O7 2.241068 1_554
Li0 O5 2.241068 1_545
Li1 O10 2.135521 1_555
Li1 O0 2.174066 1_555
Li1 O3 2.174375 1_556
Li1 O11 2.181703 1_455
Li1 O8 2.189478 1_555
Li1 O1 2.219651 1_455
Li2 O4 2.209186 1_555
Li2 O1 2.209186 1_444
Li2 O5 2.229582 1_445
Li2 O7 2.229582 1_554
Li2 O9 2.283376 1_454
Li2 O3 2.283376 1_545
Li3 O6 2.135521 1_555
Li3 O2 2.174066 1_555
Li3 O9 2.174375 1_554
Li3 O8 2.181703 1_655
Li3 O11 2.189478 1_555
Li3 O4 2.219651 1_655
Fe0 O8 2.049750 1_555
Fe0 O0 2.075752 1_555
Fe0 O2 2.080465 1_565
Fe0 O6 2.099954 1_555
Fe0 O3 2.103329 1_555
Fe0 O4 2.185628 1_565
Fe1 O11 2.055008 1_454
Fe1 O8 2.055008 1_555
Fe1 O3 2.061499 1_555
Fe1 O9 2.061499 1_454
Fe1 O5 2.078289 1_455
Fe1 O7 2.078289 1_554
Fe2 O11 2.049750 1_555
Fe2 O2 2.075752 1_555
Fe2 O0 2.080465 1_545
Fe2 O10 2.099954 1_555
Fe2 O9 2.103329 1_555
Fe2 O1 2.185628 1_545
O0 Ti2 1.951388 1_565
O1 Ti0 1.926552 1_555
O1 Ti2 2.048470 1_665
O2 Ti0 1.951388 1_545
O3 Ti1 2.023007 1_555
O4 Ti2 1.926552 1_555
O4 Ti0 2.048470 1_445
O5 Ti1 2.005321 1_555
O5 Ti0 2.098180 1_555
O6 Ti0 1.924510 1_555
O6 Ti1 1.971026 1_555
O7 Ti1 2.005321 1_556
O7 Ti2 2.098180 1_555
O8 Ti0 1.980262 1_455
O9 Ti1 2.023007 1_556
O10 Ti2 1.924510 1_555
O10 Ti1 1.971026 1_556
O11 Ti2 1.980262 1_655
