# generated using pymatgen
data_Sr2VCO3F5
_symmetry_space_group_name_H-M   'P 1'
_cell_length_a   8.96146700
_cell_length_b   5.61930500
_cell_length_c   13.93346509
_cell_angle_alpha   74.99201397
_cell_angle_beta   90.00000000
_cell_angle_gamma   90.00000000
_symmetry_Int_Tables_number   1
_chemical_formula_structural   Sr2VCO3F5
_chemical_formula_sum   'Sr8 V4 C4 O12 F20'
_cell_volume   677.71703547
_cell_formula_units_Z   4
loop_
 _symmetry_equiv_pos_site_id
 _symmetry_equiv_pos_as_xyz
  1  'x, y, z'
loop_
 _atom_site_type_symbol
 _atom_site_label
 _atom_site_symmetry_multiplicity
 _atom_site_fract_x
 _atom_site_fract_y
 _atom_site_fract_z
 _atom_site_occupancy
  Sr  Sr0  1  0.89295600  0.69319400  0.09496700  1
  Sr  Sr1  1  0.35686900  0.69207700  0.08661500  1
  Sr  Sr2  1  0.85686900  0.30792300  0.41338500  1
  Sr  Sr3  1  0.39295600  0.30680600  0.40503300  1
  Sr  Sr4  1  0.60704400  0.69319400  0.59496700  1
  Sr  Sr5  1  0.14313100  0.69207700  0.58661500  1
  Sr  Sr6  1  0.64313100  0.30792300  0.91338500  1
  Sr  Sr7  1  0.10704400  0.30680600  0.90503300  1
  V  V0  1  0.87188600  0.19750700  0.67014100  1
  V  V1  1  0.37188600  0.80249300  0.82985900  1
  V  V2  1  0.62811400  0.19750700  0.17014100  1
  V  V3  1  0.12811400  0.80249300  0.32985900  1
  C  C0  1  0.37584200  0.18219800  0.63631300  1
  C  C1  1  0.87584200  0.81780200  0.86368700  1
  C  C2  1  0.12415800  0.18219800  0.13631300  1
  C  C3  1  0.62415800  0.81780200  0.36368700  1
  O  O0  1  0.37984100  0.41214500  0.58333800  1
  O  O1  1  0.37057100  0.13854600  0.73160500  1
  O  O2  1  0.87726500  0.99214300  0.90976600  1
  O  O3  1  0.12015900  0.41214500  0.08333800  1
  O  O4  1  0.37726500  0.00785700  0.59023400  1
  O  O5  1  0.87057100  0.86145400  0.76839500  1
  O  O6  1  0.12942900  0.13854600  0.23160500  1
  O  O7  1  0.62273500  0.99214300  0.40976600  1
  O  O8  1  0.87984100  0.58785500  0.91666200  1
  O  O9  1  0.12273500  0.00785700  0.09023400  1
  O  O10  1  0.62942900  0.86145400  0.26839500  1
  O  O11  1  0.62015900  0.58785500  0.41666200  1
  F  F0  1  0.96206800  0.67011800  0.27144000  1
  F  F1  1  0.28316000  0.66540200  0.26348000  1
  F  F2  1  0.12881900  0.46956300  0.43491000  1
  F  F3  1  0.62882000  0.53043700  0.06509000  1
  F  F4  1  0.51258600  0.92179600  0.91419500  1
  F  F5  1  0.71761900  0.10329300  0.58567100  1
  F  F6  1  0.78316000  0.33459800  0.23652000  1
  F  F7  1  0.46206800  0.32988200  0.22856000  1
  F  F8  1  0.21761900  0.89670700  0.91432900  1
  F  F9  1  0.01258600  0.07820400  0.58580500  1
  F  F10  1  0.98741400  0.92179600  0.41419500  1
  F  F11  1  0.78238100  0.10329300  0.08567100  1
  F  F12  1  0.53793200  0.67011800  0.77144000  1
  F  F13  1  0.21684000  0.66540200  0.76348000  1
  F  F14  1  0.28238100  0.89670700  0.41432900  1
  F  F15  1  0.48741400  0.07820400  0.08580500  1
  F  F16  1  0.37118100  0.46956300  0.93491000  1
  F  F17  1  0.87118100  0.53043700  0.56509000  1
  F  F18  1  0.71684000  0.33459800  0.73652000  1
  F  F19  1  0.03793200  0.32988200  0.72856000  1
loop_
_geom_bond_atom_site_label_1
_geom_bond_atom_site_label_2
_geom_bond_distance
_geom_bond_site_symmetry_2
C0 O1 1.287105 1_555
C0 O4 1.303035 1_555
C0 O0 1.312168 1_555
C1 O5 1.287105 1_555
C1 O2 1.303035 1_555
C1 O8 1.312168 1_555
C2 O6 1.287105 1_555
C2 O9 1.303035 1_555
C2 O3 1.312168 1_555
C3 O10 1.287105 1_555
C3 O7 1.303035 1_555
C3 O11 1.312168 1_555
O0 Sr4 2.607406 1_555
O0 Sr5 2.648295 1_555
O0 Sr3 2.701501 1_555
O1 V1 2.025200 1_545
O2 Sr0 2.693628 1_556
O2 Sr7 2.703807 1_665
O2 Sr6 2.756807 1_565
O3 Sr0 2.607406 1_455
O3 Sr1 2.648295 1_555
O3 Sr7 2.701501 1_554
O4 Sr3 2.693628 1_555
O4 Sr4 2.703807 1_545
O4 Sr5 2.756807 1_545
O5 V0 2.025200 1_565
O6 V3 2.025200 1_545
O7 Sr4 2.693628 1_555
O7 Sr3 2.703807 1_565
O7 Sr2 2.756807 1_565
O8 Sr7 2.607406 1_655
O8 Sr6 2.648295 1_555
O8 Sr0 2.701501 1_556
O9 Sr7 2.693628 1_554
O9 Sr0 2.703807 1_445
O9 Sr1 2.756807 1_545
O10 V2 2.025200 1_565
O11 Sr3 2.607406 1_555
O11 Sr2 2.648295 1_555
O11 Sr4 2.701501 1_555
F0 V3 1.934853 1_655
F0 Sr0 2.506265 1_555
F0 Sr2 2.618780 1_555
F1 V3 1.936083 1_555
F1 Sr1 2.518026 1_555
F1 Sr3 2.619219 1_555
F2 V3 2.055316 1_555
F2 Sr3 2.609576 1_555
F2 Sr2 2.644876 1_455
F2 Sr5 2.723375 1_555
F3 V2 2.055316 1_555
F3 Sr0 2.609568 1_555
F3 Sr1 2.644884 1_555
F3 Sr6 2.723374 1_554
F4 V1 1.956551 1_555
F4 Sr6 2.462506 1_565
F4 Sr1 2.789096 1_556
F5 V0 1.974694 1_555
F5 Sr4 2.480864 1_545
F5 Sr2 2.685598 1_555
F6 V2 1.936083 1_555
F6 Sr2 2.518026 1_555
F6 Sr0 2.619219 1_555
F7 V2 1.934853 1_555
F7 Sr3 2.506265 1_555
F7 Sr1 2.618780 1_555
F8 V1 1.974694 1_555
F8 Sr7 2.480864 1_565
F8 Sr1 2.685598 1_556
F9 V0 1.956551 1_455
F9 Sr5 2.462506 1_545
F9 Sr2 2.789096 1_455
F10 V3 1.956551 1_655
F10 Sr2 2.462506 1_565
F10 Sr5 2.789096 1_655
F11 V2 1.974694 1_555
F11 Sr0 2.480864 1_545
F11 Sr6 2.685598 1_554
F12 V1 1.934853 1_555
F12 Sr4 2.506265 1_555
F12 Sr6 2.618780 1_555
F13 V1 1.936083 1_555
F13 Sr5 2.518026 1_555
F13 Sr7 2.619219 1_555
F14 V3 1.974694 1_555
F14 Sr3 2.480864 1_565
F14 Sr5 2.685598 1_555
F15 V2 1.956551 1_555
F15 Sr1 2.462506 1_545
F15 Sr6 2.789096 1_554
F16 V1 2.055316 1_555
F16 Sr7 2.609576 1_555
F16 Sr6 2.644876 1_555
F16 Sr1 2.723375 1_556
F17 V0 2.055316 1_555
F17 Sr4 2.609576 1_555
F17 Sr5 2.644876 1_655
F17 Sr2 2.723375 1_555
F18 V0 1.936083 1_555
F18 Sr6 2.518026 1_555
F18 Sr4 2.619219 1_555
F19 V0 1.934853 1_455
F19 Sr7 2.506265 1_555
F19 Sr5 2.618780 1_555
