# generated using pymatgen
data_LiMn2F5
_symmetry_space_group_name_H-M   'P 1'
_cell_length_a   5.65629394
_cell_length_b   5.65629394
_cell_length_c   10.49180000
_cell_angle_alpha   90.00000000
_cell_angle_beta   90.00000000
_cell_angle_gamma   137.27811296
_symmetry_Int_Tables_number   1
_chemical_formula_structural   LiMn2F5
_chemical_formula_sum   'Li2 Mn4 F10'
_cell_volume   227.73281739
_cell_formula_units_Z   2
loop_
 _symmetry_equiv_pos_site_id
 _symmetry_equiv_pos_as_xyz
  1  'x, y, z'
loop_
 _atom_site_type_symbol
 _atom_site_label
 _atom_site_symmetry_multiplicity
 _atom_site_fract_x
 _atom_site_fract_y
 _atom_site_fract_z
 _atom_site_occupancy
  Li  Li0  1  0.82335300  0.17664700  0.25000000  1
  Li  Li1  1  0.17664700  0.82335300  0.75000000  1
  Mn  Mn0  1  0.86062500  0.13937500  0.56951800  1
  Mn  Mn1  1  0.86062500  0.13937500  0.93048200  1
  Mn  Mn2  1  0.13937500  0.86062500  0.06951800  1
  Mn  Mn3  1  0.13937500  0.86062500  0.43048200  1
  F  F0  1  0.69009700  0.30990300  0.43266000  1
  F  F1  1  0.94657100  0.05342900  0.11586100  1
  F  F2  1  0.94657100  0.05342900  0.38413900  1
  F  F3  1  0.69009700  0.30990300  0.06734000  1
  F  F4  1  0.76430300  0.23569700  0.75000000  1
  F  F5  1  0.23569700  0.76430300  0.25000000  1
  F  F6  1  0.05342900  0.94657100  0.61586100  1
  F  F7  1  0.30990300  0.69009700  0.56734000  1
  F  F8  1  0.30990300  0.69009700  0.93266000  1
  F  F9  1  0.05342900  0.94657100  0.88413900  1
loop_
_geom_bond_atom_site_label_1
_geom_bond_atom_site_label_2
_geom_bond_distance
_geom_bond_site_symmetry_2
F0 Mn3 2.128557 1_545
F0 Mn3 2.128557 1_655
F0 Mn0 2.299894 1_555
F0 Li0 2.375644 1_555
F1 Li0 1.914648 1_555
F1 Mn2 2.088661 1_645
F1 Mn1 2.145405 1_554
F2 Li0 1.914648 1_555
F2 Mn3 2.088661 1_645
F2 Mn0 2.145405 1_555
F3 Mn2 2.128557 1_545
F3 Mn2 2.128557 1_655
F3 Mn1 2.299894 1_554
F3 Li0 2.375644 1_555
F4 Mn1 2.148363 1_555
F4 Mn0 2.148363 1_555
F4 Li1 2.257768 1_655
F4 Li1 2.257768 1_545
F5 Mn3 2.148363 1_555
F5 Mn2 2.148363 1_555
F5 Li0 2.257768 1_455
F5 Li0 2.257768 1_565
F6 Li1 1.914648 1_555
F6 Mn0 2.088661 1_465
F6 Mn3 2.145405 1_555
F7 Mn0 2.128557 1_455
F7 Mn0 2.128557 1_565
F7 Mn3 2.299894 1_555
F7 Li1 2.375644 1_555
F8 Mn1 2.128557 1_565
F8 Mn1 2.128557 1_455
F8 Mn2 2.299894 1_556
F8 Li1 2.375644 1_555
F9 Li1 1.914648 1_555
F9 Mn1 2.088661 1_465
F9 Mn2 2.145405 1_556
