# generated using pymatgen
data_Li4Ti2Nb3Fe3O16
_symmetry_space_group_name_H-M   'P 1'
_cell_length_a   5.99740670
_cell_length_b   6.02968911
_cell_length_c   9.88860828
_cell_angle_alpha   90.15072799
_cell_angle_beta   89.49119895
_cell_angle_gamma   120.02915513
_symmetry_Int_Tables_number   1
_chemical_formula_structural   Li4Ti2Nb3Fe3O16
_chemical_formula_sum   'Li4 Ti2 Nb3 Fe3 O16'
_cell_volume   309.58398372
_cell_formula_units_Z   1
loop_
 _symmetry_equiv_pos_site_id
 _symmetry_equiv_pos_as_xyz
  1  'x, y, z'
loop_
 _atom_site_type_symbol
 _atom_site_label
 _atom_site_symmetry_multiplicity
 _atom_site_fract_x
 _atom_site_fract_y
 _atom_site_fract_z
 _atom_site_occupancy
  Li  Li0  1  0.33101100  0.66358800  0.90134700  1
  Li  Li1  1  0.00806800  0.00384100  0.99883900  1
  Li  Li2  1  0.02429300  0.01240900  0.48415400  1
  Li  Li3  1  0.67147600  0.33611500  0.39325900  1
  Ti  Ti0  1  0.28931600  0.63948900  0.48576600  1
  Ti  Ti1  1  0.65887600  0.32795400  0.00685800  1
  Nb  Nb0  1  0.63811100  0.81992900  0.22195700  1
  Nb  Nb1  1  0.81701400  0.65678800  0.71866400  1
  Nb  Nb2  1  0.80523600  0.16103300  0.71410300  1
  Fe  Fe0  1  0.18210900  0.83356700  0.21353500  1
  Fe  Fe1  1  0.18273600  0.34913600  0.21316000  1
  Fe  Fe2  1  0.36532000  0.16888900  0.71373700  1
  O  O0  1  0.16237700  0.82371700  0.59414700  1
  O  O1  1  0.04425800  0.52237200  0.34764300  1
  O  O2  1  0.33527700  0.66704900  0.09479300  1
  O  O3  1  0.99498400  0.99792400  0.29798900  1
  O  O4  1  0.00092900  0.00314200  0.81062300  1
  O  O5  1  0.15886700  0.33821600  0.59343300  1
  O  O6  1  0.49139000  0.96559900  0.35206700  1
  O  O7  1  0.49120200  0.52683100  0.35298600  1
  O  O8  1  0.34201200  0.17137200  0.09249300  1
  O  O9  1  0.66962000  0.83532100  0.59796900  1
  O  O10  1  0.52545500  0.48976400  0.84476300  1
  O  O11  1  0.52361900  0.03344000  0.85097000  1
  O  O12  1  0.69030700  0.35377000  0.58778900  1
  O  O13  1  0.81390400  0.65383000  0.09356900  1
  O  O14  1  0.96732800  0.48435800  0.83662100  1
  O  O15  1  0.81490500  0.16085500  0.09460300  1
loop_
_geom_bond_atom_site_label_1
_geom_bond_atom_site_label_2
_geom_bond_distance
_geom_bond_site_symmetry_2
Li0 O2 1.913229 1_556
Li0 O11 1.993266 1_565
Li0 O10 1.995042 1_555
Li0 O14 1.999229 1_455
Li1 O4 1.862012 1_555
Li1 O8 1.972914 1_556
Li1 O15 2.051512 1_456
Li1 O13 2.053976 1_446
Li2 O3 1.848519 1_445
Li2 O5 2.023815 1_555
Li2 O0 2.031974 1_545
Li2 O9 2.149880 1_445
Li3 O12 1.927483 1_555
Li3 O7 1.975957 1_555
Li3 O6 1.977771 1_545
Li3 O1 1.983656 1_655
Nb0 O6 1.987127 1_555
Nb0 O7 2.002927 1_555
Nb0 O3 2.005817 1_555
Nb0 O2 2.021981 1_555
Nb0 O15 2.178157 1_565
Nb0 O13 2.180095 1_555
Nb1 O10 1.957558 1_555
Nb1 O4 2.026634 1_665
Nb1 O12 2.050858 1_555
Nb1 O14 2.053629 1_555
Nb1 O9 2.083907 1_555
Nb1 O0 2.166562 1_655
Nb2 O11 1.985096 1_555
Nb2 O12 2.051957 1_555
Nb2 O9 2.059947 1_545
Nb2 O14 2.079710 1_555
Nb2 O4 2.082741 1_655
Nb2 O5 2.181113 1_655
Fe0 O3 2.007789 1_455
Fe0 O2 2.031866 1_555
Fe0 O1 2.098573 1_555
Fe0 O6 2.124236 1_555
Fe0 O8 2.130377 1_565
Fe0 O13 2.258922 1_455
Fe1 O3 2.015471 1_445
Fe1 O2 2.029558 1_555
Fe1 O1 2.095401 1_555
Fe1 O8 2.117307 1_555
Fe1 O7 2.129793 1_555
Fe1 O15 2.249919 1_455
Fe2 O11 2.052971 1_555
Fe2 O12 2.093388 1_555
Fe2 O4 2.115303 1_555
Fe2 O10 2.119809 1_555
Fe2 O0 2.165368 1_545
Fe2 O5 2.299694 1_555
O0 Ti0 1.946238 1_555
O1 Ti0 1.875115 1_555
O5 Ti0 1.902237 1_555
O6 Ti0 2.164085 1_555
O7 Ti0 2.107541 1_555
O8 Ti1 1.843828 1_555
O9 Ti0 2.273771 1_555
O10 Ti1 2.230220 1_556
O11 Ti1 2.180336 1_556
O13 Ti1 1.907197 1_555
O14 Ti1 2.313509 1_556
O15 Ti1 1.899048 1_555
