# generated using pymatgen
data_Li2Mn3SnO8
_symmetry_space_group_name_H-M   'P 1'
_cell_length_a   6.06575235
_cell_length_b   6.06575235
_cell_length_c   9.76400600
_cell_angle_alpha   90.00000000
_cell_angle_beta   90.00000000
_cell_angle_gamma   122.27920652
_symmetry_Int_Tables_number   1
_chemical_formula_structural   Li2Mn3SnO8
_chemical_formula_sum   'Li4 Mn6 Sn2 O16'
_cell_volume   303.73038856
_cell_formula_units_Z   2
loop_
 _symmetry_equiv_pos_site_id
 _symmetry_equiv_pos_as_xyz
  1  'x, y, z'
loop_
 _atom_site_type_symbol
 _atom_site_label
 _atom_site_symmetry_multiplicity
 _atom_site_fract_x
 _atom_site_fract_y
 _atom_site_fract_z
 _atom_site_occupancy
  Li  Li0  1  0.15721200  0.84278800  0.10432400  1
  Li  Li1  1  0.49479800  0.50520200  0.00759500  1
  Li  Li2  1  0.50520200  0.49479800  0.50759500  1
  Li  Li3  1  0.84278800  0.15721200  0.60432400  1
  Mn  Mn0  1  0.83717400  0.66993900  0.78486900  1
  Mn  Mn1  1  0.33006100  0.16282600  0.78486900  1
  Mn  Mn2  1  0.32927600  0.67072400  0.78584100  1
  Mn  Mn3  1  0.67072400  0.32927600  0.28584100  1
  Mn  Mn4  1  0.66993900  0.83717400  0.28486900  1
  Mn  Mn5  1  0.16282600  0.33006100  0.28486900  1
  Sn  Sn0  1  0.18016700  0.81983300  0.50951500  1
  Sn  Sn1  1  0.81983300  0.18016700  0.00951500  1
  O  O0  1  0.83076700  0.64134700  0.40475600  1
  O  O1  1  0.02576400  0.97423600  0.66099900  1
  O  O2  1  0.16978700  0.83021300  0.88538900  1
  O  O3  1  0.49414700  0.50585300  0.69581300  1
  O  O4  1  0.50585300  0.49414700  0.19581300  1
  O  O5  1  0.35865300  0.16923300  0.40475600  1
  O  O6  1  0.03740000  0.52282700  0.66040700  1
  O  O7  1  0.47717300  0.96260000  0.66040700  1
  O  O8  1  0.65021500  0.34978500  0.89847100  1
  O  O9  1  0.34978500  0.65021500  0.39847100  1
  O  O10  1  0.52282700  0.03740000  0.16040700  1
  O  O11  1  0.96260000  0.47717300  0.16040700  1
  O  O12  1  0.83021300  0.16978700  0.38538900  1
  O  O13  1  0.64134700  0.83076700  0.90475600  1
  O  O14  1  0.97423600  0.02576400  0.16099900  1
  O  O15  1  0.16923300  0.35865300  0.90475600  1
loop_
_geom_bond_atom_site_label_1
_geom_bond_atom_site_label_2
_geom_bond_distance
_geom_bond_site_symmetry_2
Li0 O10 1.953323 1_565
Li0 O11 1.953323 1_455
Li0 O14 2.021299 1_465
Li0 O2 2.141854 1_554
Li1 O4 1.841511 1_555
Li1 O15 1.955323 1_554
Li1 O13 1.955323 1_554
Li1 O8 1.965184 1_554
Li2 O3 1.841511 1_555
Li2 O5 1.955323 1_555
Li2 O0 1.955323 1_555
Li2 O9 1.965184 1_555
Li3 O6 1.953323 1_655
Li3 O7 1.953323 1_545
Li3 O1 2.021299 1_645
Li3 O12 2.141854 1_555
Mn0 O3 1.965746 1_555
Mn0 O2 1.970776 1_655
Mn0 O1 1.980683 1_655
Mn0 O8 1.983792 1_555
Mn0 O6 2.214890 1_655
Mn0 O13 2.229481 1_555
Mn1 O3 1.965746 1_555
Mn1 O2 1.970776 1_545
Mn1 O1 1.980683 1_545
Mn1 O8 1.983792 1_555
Mn1 O7 2.214890 1_545
Mn1 O15 2.229481 1_555
Mn2 O6 1.934642 1_555
Mn2 O7 1.934642 1_555
Mn2 O2 1.953508 1_555
Mn2 O3 1.959898 1_555
Mn2 O15 1.977630 1_555
Mn2 O13 1.977630 1_555
Mn3 O10 1.934642 1_555
Mn3 O11 1.934642 1_555
Mn3 O12 1.953508 1_555
Mn3 O4 1.959898 1_555
Mn3 O5 1.977630 1_555
Mn3 O0 1.977630 1_555
Mn4 O4 1.965746 1_555
Mn4 O12 1.970776 1_565
Mn4 O14 1.980683 1_565
Mn4 O9 1.983792 1_555
Mn4 O10 2.214890 1_565
Mn4 O0 2.229481 1_555
Mn5 O4 1.965746 1_555
Mn5 O12 1.970776 1_455
Mn5 O14 1.980683 1_455
Mn5 O9 1.983792 1_555
Mn5 O11 2.214890 1_455
Mn5 O5 2.229481 1_555
O0 Sn0 2.063821 1_655
O1 Sn0 2.208830 1_555
O5 Sn0 2.063821 1_545
O6 Sn0 2.121285 1_555
O7 Sn0 2.121285 1_555
O8 Sn1 2.103166 1_556
O9 Sn0 2.103166 1_555
O10 Sn1 2.121285 1_555
O11 Sn1 2.121285 1_555
O13 Sn1 2.063821 1_566
O14 Sn1 2.208830 1_555
O15 Sn1 2.063821 1_456
