# generated using pymatgen
data_BeH14(I2O9)2
_symmetry_space_group_name_H-M   'P 1'
_cell_length_a   7.88794000
_cell_length_b   8.65521700
_cell_length_c   24.87492600
_cell_angle_alpha   90.00000000
_cell_angle_beta   90.00000000
_cell_angle_gamma   90.00000000
_symmetry_Int_Tables_number   1
_chemical_formula_structural   BeH14(I2O9)2
_chemical_formula_sum   'Be4 H56 I16 O72'
_cell_volume   1698.25677841
_cell_formula_units_Z   4
loop_
 _symmetry_equiv_pos_site_id
 _symmetry_equiv_pos_as_xyz
  1  'x, y, z'
loop_
 _atom_site_type_symbol
 _atom_site_label
 _atom_site_symmetry_multiplicity
 _atom_site_fract_x
 _atom_site_fract_y
 _atom_site_fract_z
 _atom_site_occupancy
  Be  Be0  1  0.29805900  0.88130200  0.75000000  1
  Be  Be1  1  0.79805900  0.61869800  0.75000000  1
  Be  Be2  1  0.70194100  0.11869800  0.25000000  1
  Be  Be3  1  0.20194100  0.38130200  0.25000000  1
  H  H0  1  0.85164900  0.10949600  0.83202700  1
  H  H1  1  0.35164900  0.39050400  0.66797300  1
  H  H2  1  0.14835100  0.89050400  0.33202700  1
  H  H3  1  0.64835100  0.60949600  0.16797300  1
  H  H4  1  0.14835100  0.89050400  0.16797300  1
  H  H5  1  0.64835100  0.60949600  0.33202700  1
  H  H6  1  0.85164900  0.10949600  0.66797300  1
  H  H7  1  0.35164900  0.39050400  0.83202700  1
  H  H8  1  0.09098900  0.05277400  0.71737600  1
  H  H9  1  0.59098900  0.44722600  0.78262400  1
  H  H10  1  0.90901100  0.94722600  0.21737600  1
  H  H11  1  0.40901100  0.55277400  0.28262400  1
  H  H12  1  0.90901100  0.94722600  0.28262400  1
  H  H13  1  0.40901100  0.55277400  0.21737600  1
  H  H14  1  0.09098900  0.05277400  0.78262400  1
  H  H15  1  0.59098900  0.44722600  0.71737600  1
  H  H16  1  0.54162300  0.99945900  0.78269500  1
  H  H17  1  0.04162300  0.50054100  0.71730500  1
  H  H18  1  0.45837700  0.00054100  0.28269500  1
  H  H19  1  0.95837700  0.49945900  0.21730500  1
  H  H20  1  0.45837700  0.00054100  0.21730500  1
  H  H21  1  0.95837700  0.49945900  0.28269500  1
  H  H22  1  0.54162300  0.99945900  0.71730500  1
  H  H23  1  0.04162300  0.50054100  0.78269500  1
  H  H24  1  0.17556400  0.78819100  0.67124500  1
  H  H25  1  0.67556400  0.71180900  0.82875500  1
  H  H26  1  0.82443600  0.21180900  0.17124500  1
  H  H27  1  0.32443600  0.28819100  0.32875500  1
  H  H28  1  0.82443600  0.21180900  0.32875500  1
  H  H29  1  0.32443600  0.28819100  0.17124500  1
  H  H30  1  0.17556400  0.78819100  0.82875500  1
  H  H31  1  0.67556400  0.71180900  0.67124500  1
  H  H32  1  0.37593400  0.77180800  0.66645400  1
  H  H33  1  0.87593400  0.72819200  0.83354600  1
  H  H34  1  0.62406600  0.22819200  0.16645400  1
  H  H35  1  0.12406600  0.27180800  0.33354600  1
  H  H36  1  0.62406600  0.22819200  0.33354600  1
  H  H37  1  0.12406600  0.27180800  0.16645400  1
  H  H38  1  0.37593400  0.77180800  0.83354600  1
  H  H39  1  0.87593400  0.72819200  0.66645400  1
  H  H40  1  0.48887600  0.64608500  0.59921800  1
  H  H41  1  0.98887600  0.85391500  0.90078200  1
  H  H42  1  0.51112400  0.35391500  0.09921800  1
  H  H43  1  0.01112400  0.14608500  0.40078200  1
  H  H44  1  0.51112400  0.35391500  0.40078200  1
  H  H45  1  0.01112400  0.14608500  0.09921800  1
  H  H46  1  0.48887600  0.64608500  0.90078200  1
  H  H47  1  0.98887600  0.85391500  0.59921800  1
  H  H48  1  0.54232200  0.82380900  0.59729900  1
  H  H49  1  0.04232200  0.67619100  0.90270100  1
  H  H50  1  0.45767800  0.17619100  0.09729900  1
  H  H51  1  0.95767800  0.32380900  0.40270100  1
  H  H52  1  0.45767800  0.17619100  0.40270100  1
  H  H53  1  0.95767800  0.32380900  0.09729900  1
  H  H54  1  0.54232200  0.82380900  0.90270100  1
  H  H55  1  0.04232200  0.67619100  0.59729900  1
  I  I0  1  0.03476700  0.29159300  0.88344600  1
  I  I1  1  0.53476700  0.20840700  0.61655400  1
  I  I2  1  0.96523300  0.70840700  0.38344600  1
  I  I3  1  0.46523300  0.79159300  0.11655400  1
  I  I4  1  0.96523300  0.70840700  0.11655400  1
  I  I5  1  0.46523300  0.79159300  0.38344600  1
  I  I6  1  0.03476700  0.29159300  0.61655400  1
  I  I7  1  0.53476700  0.20840700  0.88344600  1
  I  I8  1  0.26516800  0.52018500  0.99243500  1
  I  I9  1  0.76516800  0.97981500  0.50756500  1
  I  I10  1  0.73483200  0.47981500  0.49243500  1
  I  I11  1  0.23483200  0.02018500  0.00756500  1
  I  I12  1  0.73483200  0.47981500  0.00756500  1
  I  I13  1  0.23483200  0.02018500  0.49243500  1
  I  I14  1  0.26516800  0.52018500  0.50756500  1
  I  I15  1  0.76516800  0.97981500  0.99243500  1
  O  O0  1  0.82150600  0.37131500  0.88318000  1
  O  O1  1  0.32150600  0.12868500  0.61682000  1
  O  O2  1  0.17849400  0.62868500  0.38318000  1
  O  O3  1  0.67849400  0.87131500  0.11682000  1
  O  O4  1  0.17849400  0.62868500  0.11682000  1
  O  O5  1  0.67849400  0.87131500  0.38318000  1
  O  O6  1  0.82150600  0.37131500  0.61682000  1
  O  O7  1  0.32150600  0.12868500  0.88318000  1
  O  O8  1  0.13925200  0.41336400  0.83343800  1
  O  O9  1  0.63925200  0.08663600  0.66656200  1
  O  O10  1  0.86074800  0.58663600  0.33343800  1
  O  O11  1  0.36074800  0.91336400  0.16656200  1
  O  O12  1  0.86074800  0.58663600  0.16656200  1
  O  O13  1  0.36074800  0.91336400  0.33343800  1
  O  O14  1  0.13925200  0.41336400  0.66656200  1
  O  O15  1  0.63925200  0.08663600  0.83343800  1
  O  O16  1  0.97844800  0.12834400  0.83090200  1
  O  O17  1  0.47844800  0.37165600  0.66909800  1
  O  O18  1  0.02155200  0.87165600  0.33090200  1
  O  O19  1  0.52155200  0.62834400  0.16909800  1
  O  O20  1  0.02155200  0.87165600  0.16909800  1
  O  O21  1  0.52155200  0.62834400  0.33090200  1
  O  O22  1  0.97844800  0.12834400  0.66909800  1
  O  O23  1  0.47844800  0.37165600  0.83090200  1
  O  O24  1  0.27715700  0.72983300  0.99353100  1
  O  O25  1  0.77715700  0.77016700  0.50646900  1
  O  O26  1  0.72284300  0.27016700  0.49353100  1
  O  O27  1  0.22284300  0.22983300  0.00646900  1
  O  O28  1  0.72284300  0.27016700  0.00646900  1
  O  O29  1  0.22284300  0.22983300  0.49353100  1
  O  O30  1  0.27715700  0.72983300  0.50646900  1
  O  O31  1  0.77715700  0.77016700  0.99353100  1
  O  O32  1  0.43742300  0.47980900  0.94399300  1
  O  O33  1  0.93742300  0.02019100  0.55600700  1
  O  O34  1  0.56257700  0.52019100  0.44399300  1
  O  O35  1  0.06257700  0.97980900  0.05600700  1
  O  O36  1  0.56257700  0.52019100  0.05600700  1
  O  O37  1  0.06257700  0.97980900  0.44399300  1
  O  O38  1  0.43742300  0.47980900  0.55600700  1
  O  O39  1  0.93742300  0.02019100  0.94399300  1
  O  O40  1  0.08271800  0.50333500  0.94433800  1
  O  O41  1  0.58271800  0.99666500  0.55566200  1
  O  O42  1  0.91728200  0.49666500  0.44433800  1
  O  O43  1  0.41728200  0.00333500  0.05566200  1
  O  O44  1  0.91728200  0.49666500  0.05566200  1
  O  O45  1  0.41728200  0.00333500  0.44433800  1
  O  O46  1  0.08271800  0.50333500  0.55566200  1
  O  O47  1  0.58271800  0.99666500  0.94433800  1
  O  O48  1  0.14032700  0.00190900  0.75000000  1
  O  O49  1  0.64032700  0.49809100  0.75000000  1
  O  O50  1  0.85967300  0.99809100  0.25000000  1
  O  O51  1  0.35967300  0.50190900  0.25000000  1
  O  O52  1  0.49108700  0.94905800  0.75000000  1
  O  O53  1  0.99108700  0.55094200  0.75000000  1
  O  O54  1  0.50891300  0.05094200  0.25000000  1
  O  O55  1  0.00891300  0.44905800  0.25000000  1
  O  O56  1  0.28129800  0.78682000  0.69340500  1
  O  O57  1  0.78129800  0.71318000  0.80659500  1
  O  O58  1  0.71870200  0.21318000  0.19340500  1
  O  O59  1  0.21870200  0.28682000  0.30659500  1
  O  O60  1  0.71870200  0.21318000  0.30659500  1
  O  O61  1  0.21870200  0.28682000  0.19340500  1
  O  O62  1  0.28129800  0.78682000  0.80659500  1
  O  O63  1  0.78129800  0.71318000  0.69340500  1
  O  O64  1  0.52015900  0.73590400  0.62213100  1
  O  O65  1  0.02015900  0.76409600  0.87786900  1
  O  O66  1  0.47984100  0.26409600  0.12213100  1
  O  O67  1  0.97984100  0.23590400  0.37786900  1
  O  O68  1  0.47984100  0.26409600  0.37786900  1
  O  O69  1  0.97984100  0.23590400  0.12213100  1
  O  O70  1  0.52015900  0.73590400  0.87786900  1
  O  O71  1  0.02015900  0.76409600  0.62213100  1
loop_
_geom_bond_atom_site_label_1
_geom_bond_atom_site_label_2
_geom_bond_distance
_geom_bond_site_symmetry_2
Be0 O48 1.624091 1_565
Be0 O52 1.631627 1_555
Be0 O62 1.633434 1_555
Be0 O56 1.633434 1_555
Be1 O49 1.624091 1_555
Be1 O53 1.631627 1_555
Be1 O57 1.633434 1_555
Be1 O63 1.633434 1_555
Be2 O50 1.624091 1_545
Be2 O54 1.631627 1_555
Be2 O60 1.633434 1_555
Be2 O58 1.633434 1_555
Be3 O51 1.624091 1_555
Be3 O55 1.631627 1_555
Be3 O61 1.633434 1_555
Be3 O59 1.633434 1_555
H0 O16 1.013786 1_555
H0 O15 1.687383 1_555
H1 O17 1.013786 1_555
H1 O14 1.687383 1_555
H2 O18 1.013786 1_555
H2 O13 1.687383 1_555
H3 O19 1.013786 1_555
H3 O12 1.687383 1_555
H4 O20 1.013786 1_555
H4 O11 1.687383 1_555
H5 O21 1.013786 1_555
H5 O10 1.687383 1_555
H6 O22 1.013786 1_555
H6 O9 1.687383 1_555
H7 O23 1.013786 1_555
H7 O8 1.687383 1_555
H8 O48 1.001918 1_555
H8 O22 1.630351 1_455
H9 O49 1.001918 1_555
H9 O23 1.630351 1_555
H10 O50 1.001918 1_555
H10 O20 1.630351 1_655
H11 O51 1.001918 1_555
H11 O21 1.630351 1_555
H12 O50 1.001918 1_555
H12 O18 1.630351 1_655
H13 O51 1.001918 1_555
H13 O19 1.630351 1_555
H14 O48 1.001918 1_555
H14 O16 1.630351 1_455
H15 O49 1.001918 1_555
H15 O17 1.630351 1_555
H16 O52 1.005303 1_555
H16 O15 1.659996 1_565
H17 O53 1.005303 1_455
H17 O14 1.659996 1_555
H18 O54 1.005303 1_555
H18 O13 1.659996 1_545
H19 O55 1.005303 1_655
H19 O12 1.659996 1_555
H20 O54 1.005303 1_555
H20 O11 1.659996 1_545
H21 O55 1.005303 1_655
H21 O10 1.659996 1_555
H22 O52 1.005303 1_555
H22 O9 1.659996 1_565
H23 O53 1.005303 1_455
H23 O8 1.659996 1_555
H24 O56 0.999794 1_555
H25 O57 0.999794 1_555
H26 O58 0.999794 1_555
H27 O59 0.999794 1_555
H28 O60 0.999794 1_555
H29 O61 0.999794 1_555
H30 O62 0.999794 1_555
H31 O63 0.999794 1_555
H32 O56 1.011712 1_555
H32 O64 1.614424 1_555
H33 O57 1.011712 1_555
H33 O65 1.614424 1_655
H34 O58 1.011712 1_555
H34 O66 1.614424 1_555
H35 O59 1.011712 1_555
H35 O67 1.614424 1_455
H36 O60 1.011712 1_555
H36 O68 1.614424 1_555
H37 O61 1.011712 1_555
H37 O69 1.614424 1_455
H38 O62 1.011712 1_555
H38 O70 1.614424 1_555
H39 O63 1.011712 1_555
H39 O71 1.614424 1_655
H40 O64 0.995037 1_555
H41 O65 0.995037 1_655
H42 O66 0.995037 1_555
H43 O67 0.995037 1_455
H44 O68 0.995037 1_555
H45 O69 0.995037 1_455
H46 O70 0.995037 1_555
H47 O71 0.995037 1_655
H48 O64 0.995480 1_555
H49 O65 0.995480 1_555
H50 O66 0.995480 1_555
H51 O67 0.995480 1_555
H52 O68 0.995480 1_555
H53 O69 0.995480 1_555
H54 O70 0.995480 1_555
H55 O71 0.995480 1_555
I0 O0 1.818220 1_455
I0 O8 1.826877 1_555
I0 O16 1.975377 1_455
I0 O40 2.407492 1_555
I0 O7 2.665296 1_555
I1 O1 1.818220 1_555
I1 O9 1.826877 1_555
I1 O17 1.975377 1_555
I1 O41 2.407492 1_545
I1 O6 2.665296 1_555
I2 O2 1.818220 1_655
I2 O10 1.826877 1_555
I2 O18 1.975377 1_655
I2 O42 2.407492 1_555
I2 O5 2.665296 1_555
I3 O3 1.818220 1_555
I3 O11 1.826877 1_555
I3 O19 1.975377 1_555
I3 O43 2.407492 1_565
I3 O4 2.665296 1_555
I4 O4 1.818220 1_655
I4 O12 1.826877 1_555
I4 O20 1.975377 1_655
I4 O44 2.407492 1_555
I4 O3 2.665296 1_555
I5 O5 1.818220 1_555
I5 O13 1.826877 1_555
I5 O21 1.975377 1_555
I5 O45 2.407492 1_565
I5 O2 2.665296 1_555
I6 O6 1.818220 1_455
I6 O14 1.826877 1_555
I6 O22 1.975377 1_455
I6 O46 2.407492 1_555
I6 O1 2.665296 1_555
I7 O7 1.818220 1_555
I7 O15 1.826877 1_555
I7 O23 1.975377 1_555
I7 O47 2.407492 1_545
I7 O0 2.665296 1_555
I8 O24 1.817216 1_555
I8 O32 1.849404 1_555
I8 O40 1.877187 1_555
I8 O27 2.559062 1_556
I9 O25 1.817216 1_555
I9 O33 1.849404 1_565
I9 O41 1.877187 1_555
I9 O26 2.559062 1_565
I10 O26 1.817216 1_555
I10 O34 1.849404 1_555
I10 O42 1.877187 1_555
I10 O25 2.559062 1_555
I11 O27 1.817216 1_555
I11 O35 1.849404 1_545
I11 O43 1.877187 1_555
I11 O24 2.559062 1_544
I12 O28 1.817216 1_555
I12 O36 1.849404 1_555
I12 O44 1.877187 1_555
I12 O31 2.559062 1_554
I13 O29 1.817216 1_555
I13 O37 1.849404 1_545
I13 O45 1.877187 1_555
I13 O30 2.559062 1_545
I14 O30 1.817216 1_555
I14 O38 1.849404 1_555
I14 O46 1.877187 1_555
I14 O29 2.559062 1_555
I15 O31 1.817216 1_555
I15 O39 1.849404 1_565
I15 O47 1.877187 1_555
I15 O28 2.559062 1_566
