# generated using pymatgen
data_LiFeP2O7
_symmetry_space_group_name_H-M   'P 1'
_cell_length_a   6.19619600
_cell_length_b   7.51117500
_cell_length_c   12.57885312
_cell_angle_alpha   62.78770669
_cell_angle_beta   90.00000000
_cell_angle_gamma   90.00000000
_symmetry_Int_Tables_number   1
_chemical_formula_structural   LiFeP2O7
_chemical_formula_sum   'Li4 Fe4 P8 O28'
_cell_volume   520.63252051
_cell_formula_units_Z   4
loop_
 _symmetry_equiv_pos_site_id
 _symmetry_equiv_pos_as_xyz
  1  'x, y, z'
loop_
 _atom_site_type_symbol
 _atom_site_label
 _atom_site_symmetry_multiplicity
 _atom_site_fract_x
 _atom_site_fract_y
 _atom_site_fract_z
 _atom_site_occupancy
  Li  Li0  1  0.11639500  0.32547200  0.04739400  1
  Li  Li1  1  0.61639500  0.67452800  0.45260600  1
  Li  Li2  1  0.38360500  0.32547200  0.54739400  1
  Li  Li3  1  0.88360500  0.67452800  0.95260600  1
  Fe  Fe0  1  0.37717600  0.20743200  0.26769700  1
  Fe  Fe1  1  0.12282400  0.20743200  0.76769700  1
  Fe  Fe2  1  0.87717600  0.79256800  0.23230300  1
  Fe  Fe3  1  0.62282400  0.79256800  0.73230300  1
  P  P0  1  0.11214000  0.68875900  0.71629600  1
  P  P1  1  0.64854100  0.22287200  0.04012000  1
  P  P2  1  0.14854100  0.77712800  0.45988000  1
  P  P3  1  0.61214000  0.31124100  0.78370400  1
  P  P4  1  0.38786000  0.68875900  0.21629600  1
  P  P5  1  0.85145900  0.22287200  0.54012000  1
  P  P6  1  0.35145900  0.77712800  0.95988000  1
  P  P7  1  0.88786000  0.31124100  0.28370400  1
  O  O0  1  0.78986300  0.40242000  0.01083700  1
  O  O1  1  0.68319500  0.19076000  0.29571200  1
  O  O2  1  0.03341100  0.75837700  0.58094500  1
  O  O3  1  0.06578500  0.24554600  0.22363500  1
  O  O4  1  0.29325700  0.96573100  0.40933500  1
  O  O5  1  0.64057100  0.53841500  0.72081300  1
  O  O6  1  0.44025100  0.20574800  0.11340100  1
  O  O7  1  0.14057100  0.46158500  0.77918700  1
  O  O8  1  0.53341100  0.24162300  0.91905500  1
  O  O9  1  0.94025100  0.79425200  0.38659900  1
  O  O10  1  0.79325700  0.03426900  0.09066500  1
  O  O11  1  0.71013700  0.40242000  0.51083700  1
  O  O12  1  0.56578500  0.75445400  0.27636500  1
  O  O13  1  0.81680500  0.19076000  0.79571200  1
  O  O14  1  0.18319500  0.80924000  0.20428800  1
  O  O15  1  0.43421500  0.24554600  0.72363500  1
  O  O16  1  0.28986300  0.59758000  0.48916300  1
  O  O17  1  0.20674300  0.96573100  0.90933500  1
  O  O18  1  0.05974900  0.20574800  0.61340100  1
  O  O19  1  0.46658900  0.75837700  0.08094500  1
  O  O20  1  0.85942900  0.53841500  0.22081300  1
  O  O21  1  0.55974900  0.79425200  0.88659900  1
  O  O22  1  0.35942900  0.46158500  0.27918700  1
  O  O23  1  0.70674300  0.03426900  0.59066500  1
  O  O24  1  0.93421500  0.75445400  0.77636500  1
  O  O25  1  0.96658900  0.24162300  0.41905500  1
  O  O26  1  0.31680500  0.80924000  0.70428800  1
  O  O27  1  0.21013700  0.59758000  0.98916300  1
loop_
_geom_bond_atom_site_label_1
_geom_bond_atom_site_label_2
_geom_bond_distance
_geom_bond_site_symmetry_2
Li0 O27 1.918864 1_554
Li0 O3 2.038682 1_555
Li0 O0 2.096664 1_455
Li0 O6 2.200441 1_555
Li1 O11 1.918864 1_555
Li1 O12 2.038682 1_555
Li1 O16 2.096664 1_555
Li1 O9 2.200441 1_555
Li2 O16 1.918864 1_555
Li2 O15 2.038682 1_555
Li2 O11 2.096664 1_555
Li2 O18 2.200441 1_555
Li3 O0 1.918864 1_556
Li3 O24 2.038682 1_555
Li3 O27 2.096664 1_655
Li3 O21 2.200441 1_555
Fe0 O1 1.922213 1_555
Fe0 O4 1.944819 1_545
Fe0 O22 1.982310 1_555
Fe0 O6 1.985528 1_555
Fe0 O3 1.991675 1_555
Fe1 O13 1.922213 1_455
Fe1 O17 1.944819 1_545
Fe1 O7 1.982310 1_555
Fe1 O18 1.985528 1_555
Fe1 O15 1.991675 1_555
Fe2 O14 1.922213 1_655
Fe2 O10 1.944819 1_565
Fe2 O20 1.982310 1_555
Fe2 O9 1.985528 1_555
Fe2 O12 1.991675 1_555
Fe3 O26 1.922213 1_555
Fe3 O23 1.944819 1_565
Fe3 O5 1.982310 1_555
Fe3 O21 1.985528 1_555
Fe3 O24 1.991675 1_555
O0 P1 1.505623 1_555
O1 P7 1.524773 1_555
O2 P0 1.611173 1_555
O2 P2 1.628394 1_555
O3 P7 1.539751 1_455
O4 P2 1.546409 1_555
O5 P3 1.527712 1_555
O6 P1 1.556750 1_555
O7 P0 1.527712 1_555
O8 P3 1.611173 1_555
O8 P1 1.628394 1_556
O9 P2 1.556750 1_655
O10 P1 1.546409 1_555
O11 P5 1.505623 1_555
O12 P4 1.539751 1_555
O13 P3 1.524773 1_555
O14 P4 1.524773 1_555
O15 P3 1.539751 1_555
O16 P2 1.505623 1_555
O17 P6 1.546409 1_555
O18 P5 1.556750 1_455
O19 P4 1.611173 1_555
O19 P6 1.628394 1_554
O20 P7 1.527712 1_555
O21 P6 1.556750 1_555
O22 P4 1.527712 1_555
O23 P5 1.546409 1_555
O24 P0 1.539751 1_655
O25 P7 1.611173 1_555
O25 P5 1.628394 1_555
O26 P0 1.524773 1_555
O27 P6 1.505623 1_555
