# generated using pymatgen
data_Na2BiBPO7
_symmetry_space_group_name_H-M   'P 1'
_cell_length_a   7.05963500
_cell_length_b   5.47747000
_cell_length_c   9.49918659
_cell_angle_alpha   87.47612610
_cell_angle_beta   90.00000000
_cell_angle_gamma   90.00000000
_symmetry_Int_Tables_number   1
_chemical_formula_structural   Na2BiBPO7
_chemical_formula_sum   'Na4 Bi2 B2 P2 O14'
_cell_volume   366.96714765
_cell_formula_units_Z   2
loop_
 _symmetry_equiv_pos_site_id
 _symmetry_equiv_pos_as_xyz
  1  'x, y, z'
loop_
 _atom_site_type_symbol
 _atom_site_label
 _atom_site_symmetry_multiplicity
 _atom_site_fract_x
 _atom_site_fract_y
 _atom_site_fract_z
 _atom_site_occupancy
  Na  Na0  1  0.00159800  0.24030700  0.78544100  1
  Na  Na1  1  0.49840200  0.24030700  0.78544100  1
  Na  Na2  1  0.50159800  0.75969300  0.21455900  1
  Na  Na3  1  0.99840200  0.75969300  0.21455900  1
  Bi  Bi0  1  0.75000000  0.78663900  0.63089300  1
  Bi  Bi1  1  0.25000000  0.21336100  0.36910700  1
  B  B0  1  0.75000000  0.73777800  0.91543700  1
  B  B1  1  0.25000000  0.26222200  0.08456300  1
  P  P0  1  0.25000000  0.72595300  0.59312500  1
  P  P1  1  0.75000000  0.27404700  0.40687500  1
  O  O0  1  0.25000000  0.29617600  0.94135100  1
  O  O1  1  0.75000000  0.95928000  0.84108600  1
  O  O2  1  0.75000000  0.52943800  0.83696900  1
  O  O3  1  0.07502800  0.84625000  0.66131900  1
  O  O4  1  0.42497200  0.84625000  0.66131900  1
  O  O5  1  0.75000000  0.20404700  0.57138700  1
  O  O6  1  0.25000000  0.44509500  0.61002900  1
  O  O7  1  0.75000000  0.55490500  0.38997100  1
  O  O8  1  0.25000000  0.79595300  0.42861300  1
  O  O9  1  0.57502800  0.15375000  0.33868100  1
  O  O10  1  0.92497200  0.15375000  0.33868100  1
  O  O11  1  0.25000000  0.47056200  0.16303100  1
  O  O12  1  0.25000000  0.04072000  0.15891400  1
  O  O13  1  0.75000000  0.70382400  0.05864900  1
loop_
_geom_bond_atom_site_label_1
_geom_bond_atom_site_label_2
_geom_bond_distance
_geom_bond_site_symmetry_2
Na0 O0 2.324261 1_555
Na0 O1 2.394178 1_445
Na0 O2 2.443529 1_455
Na0 O3 2.557710 1_545
Na0 O6 2.635396 1_555
Na0 O5 2.713730 1_455
Na1 O0 2.324261 1_555
Na1 O1 2.394178 1_545
Na1 O2 2.443529 1_555
Na1 O4 2.557710 1_545
Na1 O6 2.635396 1_555
Na1 O5 2.713730 1_555
Na2 O13 2.324261 1_555
Na2 O12 2.394178 1_565
Na2 O11 2.443529 1_555
Na2 O9 2.557710 1_565
Na2 O7 2.635396 1_555
Na2 O8 2.713730 1_555
Na3 O13 2.324261 1_555
Na3 O12 2.394178 1_665
Na3 O11 2.443529 1_655
Na3 O10 2.557710 1_565
Na3 O7 2.635396 1_555
Na3 O8 2.713730 1_655
Bi0 O1 2.246592 1_555
Bi0 O5 2.330890 1_565
Bi0 O3 2.337424 1_655
Bi0 O4 2.337424 1_555
Bi0 O2 2.360907 1_555
Bi0 O7 2.665431 1_555
Bi1 O12 2.246592 1_555
Bi1 O8 2.330890 1_545
Bi1 O9 2.337424 1_555
Bi1 O10 2.337424 1_455
Bi1 O11 2.360907 1_555
Bi1 O6 2.665431 1_555
B0 O13 1.364913 1_556
B0 O1 1.376728 1_555
B0 O2 1.390249 1_555
B1 O0 1.364913 1_554
B1 O12 1.376728 1_555
B1 O11 1.390249 1_555
O3 P0 1.554740 1_555
O4 P0 1.554740 1_555
O5 P1 1.592598 1_555
O6 P0 1.539700 1_555
O7 P1 1.539700 1_555
O8 P0 1.592598 1_555
O9 P1 1.554740 1_555
O10 P1 1.554740 1_555
