# generated using pymatgen
data_Li3MnNi3O8
_symmetry_space_group_name_H-M   'P 1'
_cell_length_a   5.84224297
_cell_length_b   5.84224297
_cell_length_c   5.86080209
_cell_angle_alpha   60.39439879
_cell_angle_beta   60.39439879
_cell_angle_gamma   58.63652549
_symmetry_Int_Tables_number   1
_chemical_formula_structural   Li3MnNi3O8
_chemical_formula_sum   'Li3 Mn1 Ni3 O8'
_cell_volume   140.74653255
_cell_formula_units_Z   1
loop_
 _symmetry_equiv_pos_site_id
 _symmetry_equiv_pos_as_xyz
  1  'x, y, z'
loop_
 _atom_site_type_symbol
 _atom_site_label
 _atom_site_symmetry_multiplicity
 _atom_site_fract_x
 _atom_site_fract_y
 _atom_site_fract_z
 _atom_site_occupancy
  Li  Li0  1  0.00000000  0.50000000  0.50000000  1
  Li  Li1  1  0.50000000  0.00000000  0.50000000  1
  Li  Li2  1  0.00000000  0.00000000  0.50000000  1
  Mn  Mn0  1  0.50000000  0.50000000  0.00000000  1
  Ni  Ni0  1  0.00000000  0.50000000  0.00000000  1
  Ni  Ni1  1  0.00000000  0.00000000  0.00000000  1
  Ni  Ni2  1  0.50000000  0.00000000  0.00000000  1
  O  O0  1  0.26835200  0.26835200  0.22260200  1
  O  O1  1  0.75635700  0.24218200  0.21947900  1
  O  O2  1  0.77611800  0.77611800  0.20544500  1
  O  O3  1  0.24218200  0.75635700  0.21947900  1
  O  O4  1  0.75781800  0.24364300  0.78052100  1
  O  O5  1  0.22388200  0.22388200  0.79455500  1
  O  O6  1  0.24364300  0.75781800  0.78052100  1
  O  O7  1  0.73164800  0.73164800  0.77739800  1
loop_
_geom_bond_atom_site_label_1
_geom_bond_atom_site_label_2
_geom_bond_distance
_geom_bond_site_symmetry_2
Li0 O7 2.092741 1_455
Li0 O0 2.092741 1_555
Li0 O3 2.102973 1_555
Li0 O4 2.102973 1_455
Li0 O2 2.139251 1_455
Li0 O5 2.139251 1_555
Li1 O7 2.092741 1_545
Li1 O0 2.092741 1_555
Li1 O1 2.102973 1_555
Li1 O6 2.102973 1_545
Li1 O5 2.139251 1_555
Li1 O2 2.139251 1_545
Li2 O4 2.156033 1_455
Li2 O6 2.156033 1_545
Li2 O1 2.156033 1_455
Li2 O3 2.156033 1_545
Li2 O0 2.254045 1_555
Li2 O7 2.254045 1_445
Mn0 O7 1.944892 1_554
Mn0 O0 1.944892 1_555
Mn0 O3 1.951257 1_555
Mn0 O1 1.951257 1_555
Mn0 O4 1.951257 1_554
Mn0 O6 1.951257 1_554
Ni0 O2 1.982317 1_455
Ni0 O5 1.982317 1_554
Ni0 O0 2.014781 1_555
Ni0 O7 2.014781 1_454
Ni0 O6 2.111350 1_554
Ni0 O1 2.111350 1_455
Ni1 O5 1.881498 1_554
Ni1 O2 1.881498 1_445
Ni1 O1 1.890872 1_455
Ni1 O3 1.890872 1_545
Ni1 O6 1.890872 1_544
Ni1 O4 1.890872 1_454
Ni2 O2 1.982317 1_545
Ni2 O5 1.982317 1_554
Ni2 O0 2.014781 1_555
Ni2 O7 2.014781 1_544
Ni2 O4 2.111350 1_554
Ni2 O3 2.111350 1_545
