# generated using pymatgen
data_Li4Fe3(SiO4)3
_symmetry_space_group_name_H-M   'P 1'
_cell_length_a   4.35753567
_cell_length_b   11.93668133
_cell_length_c   5.50935697
_cell_angle_alpha   83.57321509
_cell_angle_beta   66.57343026
_cell_angle_gamma   79.59892794
_symmetry_Int_Tables_number   1
_chemical_formula_structural   Li4Fe3(SiO4)3
_chemical_formula_sum   'Li4 Fe3 Si3 O12'
_cell_volume   258.36812437
_cell_formula_units_Z   1
loop_
 _symmetry_equiv_pos_site_id
 _symmetry_equiv_pos_as_xyz
  1  'x, y, z'
loop_
 _atom_site_type_symbol
 _atom_site_label
 _atom_site_symmetry_multiplicity
 _atom_site_fract_x
 _atom_site_fract_y
 _atom_site_fract_z
 _atom_site_occupancy
  Li  Li0  1  0.32530600  0.42453200  0.91490800  1
  Li  Li1  1  0.00762800  0.24900300  0.74535600  1
  Li  Li2  1  0.32862300  0.91772700  0.42497600  1
  Li  Li3  1  0.00351400  0.74471700  0.24577700  1
  Fe  Fe0  1  0.66719800  0.83327900  0.83514400  1
  Fe  Fe1  1  0.00310700  0.50535600  0.49202500  1
  Fe  Fe2  1  0.33118500  0.16371500  0.17273100  1
  Si  Si0  1  0.33057200  0.66873800  0.66285100  1
  Si  Si1  1  0.67437600  0.33071700  0.33400400  1
  Si  Si2  1  0.99468900  0.99912700  0.00385700  1
  O  O0  1  0.19278800  0.11083100  0.91780900  1
  O  O1  1  0.53568900  0.55870200  0.76230600  1
  O  O2  1  0.97515300  0.71870600  0.91646700  1
  O  O3  1  0.31732700  0.36340600  0.58807600  1
  O  O4  1  0.93720600  0.95482400  0.75222900  1
  O  O5  1  0.55699900  0.78074500  0.56531000  1
  O  O6  1  0.23485000  0.64422200  0.41984800  1
  O  O7  1  0.22716800  0.89137300  0.10728100  1
  O  O8  1  0.90965400  0.22181300  0.43293500  1
  O  O9  1  0.61922400  0.03136500  0.24126200  1
  O  O10  1  0.90087800  0.43312200  0.21356900  1
  O  O11  1  0.59353000  0.28731400  0.08461400  1
loop_
_geom_bond_atom_site_label_1
_geom_bond_atom_site_label_2
_geom_bond_distance
_geom_bond_site_symmetry_2
Li0 O10 1.920416 1_456
Li0 O1 1.930820 1_555
Li0 O3 2.031977 1_555
Li0 O11 2.181264 1_556
Li1 O3 1.976764 1_555
Li1 O8 2.002415 1_455
Li1 O0 2.013003 1_555
Li1 O11 2.042128 1_456
Li2 O9 1.939506 1_565
Li2 O4 1.953631 1_455
Li2 O5 2.000732 1_555
Li2 O7 2.036345 1_555
Li3 O6 1.857260 1_555
Li3 O2 1.929133 1_454
Li3 O5 2.052697 1_455
Li3 O7 2.079006 1_555
Fe0 O2 1.884177 1_555
Fe0 O5 1.928441 1_555
Fe0 O4 1.933537 1_555
Fe0 O7 1.967768 1_556
Fe1 O6 2.015702 1_555
Fe1 O1 2.025754 1_455
Fe1 O10 2.067270 1_455
Fe1 O3 2.136244 1_555
Fe2 O8 1.891775 1_455
Fe2 O11 1.930437 1_555
Fe2 O9 1.934184 1_555
Fe2 O0 1.934965 1_554
O0 Si2 1.642096 1_446
O1 Si0 1.621332 1_555
O2 Si0 1.684946 1_655
O3 Si1 1.644282 1_555
O4 Si2 1.659012 1_556
O5 Si0 1.715723 1_555
O6 Si0 1.621046 1_555
O7 Si2 1.682177 1_455
O8 Si1 1.685983 1_555
O9 Si2 1.649067 1_545
O10 Si1 1.625403 1_555
O11 Si1 1.700141 1_555
