# generated using pymatgen
data_K3MnCrO8
_symmetry_space_group_name_H-M   'P 1'
_cell_length_a   7.94864695
_cell_length_b   7.94864695
_cell_length_c   7.94864649
_cell_angle_alpha   43.44266341
_cell_angle_beta   43.44266341
_cell_angle_gamma   43.44266563
_symmetry_Int_Tables_number   1
_chemical_formula_structural   K3MnCrO8
_chemical_formula_sum   'K3 Mn1 Cr1 O8'
_cell_volume   215.42787811
_cell_formula_units_Z   1
loop_
 _symmetry_equiv_pos_site_id
 _symmetry_equiv_pos_as_xyz
  1  'x, y, z'
loop_
 _atom_site_type_symbol
 _atom_site_label
 _atom_site_symmetry_multiplicity
 _atom_site_fract_x
 _atom_site_fract_y
 _atom_site_fract_z
 _atom_site_occupancy
  K  K0  1  0.29534500  0.29534500  0.29534500  1
  K  K1  1  0.69981300  0.69981300  0.69981300  1
  K  K2  1  0.50456100  0.50456100  0.50456100  1
  Mn  Mn0  1  0.09491500  0.09491500  0.09491500  1
  Cr  Cr0  1  0.90895100  0.90895100  0.90895100  1
  O  O0  1  0.76927100  0.22009100  0.22009100  1
  O  O1  1  0.24366500  0.78108600  0.78108600  1
  O  O2  1  0.22009100  0.22009100  0.76927100  1
  O  O3  1  0.78108600  0.24366500  0.78108600  1
  O  O4  1  0.16943200  0.16943200  0.16943200  1
  O  O5  1  0.22009100  0.76927100  0.22009100  1
  O  O6  1  0.83170900  0.83170900  0.83170900  1
  O  O7  1  0.78108600  0.78108600  0.24366500  1
loop_
_geom_bond_atom_site_label_1
_geom_bond_atom_site_label_2
_geom_bond_distance
_geom_bond_site_symmetry_2
K0 O4 2.714537 1_555
K0 O2 2.980225 1_555
K0 O0 2.980225 1_555
K0 O5 2.980225 1_555
K0 O3 3.000353 1_554
K0 O1 3.000353 1_554
K0 O3 3.000353 1_455
K0 O1 3.000353 1_545
K0 O7 3.000353 1_545
K0 O7 3.000353 1_455
K1 O7 2.790025 1_555
K1 O1 2.790025 1_555
K1 O3 2.790025 1_555
K1 O6 2.843523 1_555
K1 O5 3.050697 1_556
K1 O0 3.050697 1_556
K1 O5 3.050697 1_655
K1 O0 3.050697 1_565
K1 O2 3.050697 1_565
K1 O2 3.050697 1_655
K2 O3 2.782164 1_555
K2 O1 2.782164 1_555
K2 O7 2.782164 1_555
K2 O0 2.873986 1_555
K2 O5 2.873986 1_555
K2 O2 2.873986 1_555
Mn0 O4 1.606499 1_555
Mn0 O2 1.624133 1_554
Mn0 O0 1.624133 1_455
Mn0 O5 1.624133 1_545
Cr0 O6 1.665247 1_555
Cr0 O7 1.670674 1_556
Cr0 O3 1.670674 1_565
Cr0 O1 1.670674 1_655
