# generated using pymatgen
data_LaHSe3O10
_symmetry_space_group_name_H-M   'P 1'
_cell_length_a   7.42524600
_cell_length_b   10.97962600
_cell_length_c   23.91112000
_cell_angle_alpha   90.00000000
_cell_angle_beta   90.00000000
_cell_angle_gamma   90.00000000
_symmetry_Int_Tables_number   1
_chemical_formula_structural   LaHSe3O10
_chemical_formula_sum   'La8 H8 Se24 O80'
_cell_volume   1949.38810834
_cell_formula_units_Z   8
loop_
 _symmetry_equiv_pos_site_id
 _symmetry_equiv_pos_as_xyz
  1  'x, y, z'
loop_
 _atom_site_type_symbol
 _atom_site_label
 _atom_site_symmetry_multiplicity
 _atom_site_fract_x
 _atom_site_fract_y
 _atom_site_fract_z
 _atom_site_occupancy
  La  La0  1  0.06112600  0.46168500  0.09070600  1
  La  La1  1  0.06112600  0.03831500  0.59070600  1
  La  La2  1  0.43887400  0.96168500  0.09070600  1
  La  La3  1  0.43887400  0.53831500  0.59070600  1
  La  La4  1  0.56112600  0.03831500  0.90929400  1
  La  La5  1  0.56112600  0.46168500  0.40929400  1
  La  La6  1  0.93887400  0.53831500  0.90929400  1
  La  La7  1  0.93887400  0.96168500  0.40929400  1
  H  H0  1  0.18211500  0.34365300  0.29096200  1
  H  H1  1  0.18211500  0.15634700  0.79096200  1
  H  H2  1  0.31788500  0.84365300  0.29096200  1
  H  H3  1  0.31788500  0.65634700  0.79096200  1
  H  H4  1  0.68211500  0.34365300  0.20903800  1
  H  H5  1  0.68211500  0.15634700  0.70903800  1
  H  H6  1  0.81788500  0.65634700  0.70903800  1
  H  H7  1  0.81788500  0.84365300  0.20903800  1
  Se  Se0  1  0.03701400  0.79277200  0.14344300  1
  Se  Se1  1  0.03701400  0.70722800  0.64344300  1
  Se  Se2  1  0.06339300  0.61856500  0.38054200  1
  Se  Se3  1  0.06339300  0.88143500  0.88054200  1
  Se  Se4  1  0.19481700  0.17569800  0.00635000  1
  Se  Se5  1  0.19481700  0.32430200  0.50635000  1
  Se  Se6  1  0.30518300  0.67569800  0.00635000  1
  Se  Se7  1  0.30518300  0.82430200  0.50635000  1
  Se  Se8  1  0.43660700  0.11856500  0.38054200  1
  Se  Se9  1  0.43660700  0.38143500  0.88054200  1
  Se  Se10  1  0.46298600  0.29277200  0.14344300  1
  Se  Se11  1  0.46298600  0.20722800  0.64344300  1
  Se  Se12  1  0.53701400  0.79277200  0.35655700  1
  Se  Se13  1  0.53701400  0.70722800  0.85655700  1
  Se  Se14  1  0.56339300  0.61856500  0.11945800  1
  Se  Se15  1  0.56339300  0.88143500  0.61945800  1
  Se  Se16  1  0.69481700  0.17569800  0.49365000  1
  Se  Se17  1  0.69481700  0.32430200  0.99365000  1
  Se  Se18  1  0.80518300  0.67569800  0.49365000  1
  Se  Se19  1  0.80518300  0.82430200  0.99365000  1
  Se  Se20  1  0.93660700  0.11856500  0.11945800  1
  Se  Se21  1  0.93660700  0.38143500  0.61945800  1
  Se  Se22  1  0.96298600  0.20722800  0.85655700  1
  Se  Se23  1  0.96298600  0.29277200  0.35655700  1
  O  O0  1  0.11064300  0.97455800  0.28672600  1
  O  O1  1  0.11064300  0.52544200  0.78672600  1
  O  O2  1  0.09967300  0.64455500  0.14624700  1
  O  O3  1  0.09967300  0.85544500  0.64624700  1
  O  O4  1  0.06652800  0.30126700  0.28706300  1
  O  O5  1  0.06652800  0.19873300  0.78706300  1
  O  O6  1  0.10608500  0.59751400  0.00579200  1
  O  O7  1  0.10608500  0.90248600  0.50579200  1
  O  O8  1  0.10662200  0.07469500  0.06449600  1
  O  O9  1  0.10662200  0.42530500  0.56449600  1
  O  O10  1  0.11408700  0.76416900  0.39828700  1
  O  O11  1  0.11408700  0.73583100  0.89828700  1
  O  O12  1  0.22648800  0.87540500  0.15704100  1
  O  O13  1  0.22648800  0.62459500  0.65704100  1
  O  O14  1  0.23979300  0.53431700  0.40195500  1
  O  O15  1  0.23979300  0.96568300  0.90195500  1
  O  O16  1  0.30221900  0.56050500  0.26800700  1
  O  O17  1  0.30221900  0.93949500  0.76800700  1
  O  O18  1  0.24819600  0.30513200  0.03994600  1
  O  O19  1  0.24819600  0.19486800  0.53994600  1
  O  O20  1  0.25180400  0.80513200  0.03994600  1
  O  O21  1  0.25180400  0.69486800  0.53994600  1
  O  O22  1  0.19778100  0.06050500  0.26800700  1
  O  O23  1  0.19778100  0.43949500  0.76800700  1
  O  O24  1  0.26020700  0.03431700  0.40195500  1
  O  O25  1  0.26020700  0.46568300  0.90195500  1
  O  O26  1  0.27351200  0.37540500  0.15704100  1
  O  O27  1  0.27351200  0.12459500  0.65704100  1
  O  O28  1  0.38591300  0.26416900  0.39828700  1
  O  O29  1  0.38591300  0.23583100  0.89828700  1
  O  O30  1  0.39337800  0.57469500  0.06449600  1
  O  O31  1  0.39337800  0.92530500  0.56449600  1
  O  O32  1  0.39391500  0.09751400  0.00579200  1
  O  O33  1  0.39391500  0.40248600  0.50579200  1
  O  O34  1  0.43347200  0.80126700  0.28706300  1
  O  O35  1  0.43347200  0.69873300  0.78706300  1
  O  O36  1  0.40032700  0.14455500  0.14624700  1
  O  O37  1  0.40032700  0.35544500  0.64624700  1
  O  O38  1  0.38935700  0.47455800  0.28672600  1
  O  O39  1  0.38935700  0.02544200  0.78672600  1
  O  O40  1  0.61064300  0.52544200  0.71327400  1
  O  O41  1  0.61064300  0.97455800  0.21327400  1
  O  O42  1  0.59967300  0.64455500  0.35375300  1
  O  O43  1  0.59967300  0.85544500  0.85375300  1
  O  O44  1  0.56652800  0.30126700  0.21293700  1
  O  O45  1  0.56652800  0.19873300  0.71293700  1
  O  O46  1  0.60608500  0.59751400  0.49420800  1
  O  O47  1  0.60608500  0.90248600  0.99420800  1
  O  O48  1  0.60662200  0.42530500  0.93550400  1
  O  O49  1  0.60662200  0.07469500  0.43550400  1
  O  O50  1  0.61408700  0.76416900  0.10171300  1
  O  O51  1  0.61408700  0.73583100  0.60171300  1
  O  O52  1  0.72648800  0.62459500  0.84295900  1
  O  O53  1  0.72648800  0.87540500  0.34295900  1
  O  O54  1  0.73979300  0.53431700  0.09804500  1
  O  O55  1  0.73979300  0.96568300  0.59804500  1
  O  O56  1  0.80221900  0.56050500  0.23199300  1
  O  O57  1  0.80221900  0.93949500  0.73199300  1
  O  O58  1  0.74819600  0.30513200  0.46005400  1
  O  O59  1  0.74819600  0.19486800  0.96005400  1
  O  O60  1  0.75180400  0.80513200  0.46005400  1
  O  O61  1  0.75180400  0.69486800  0.96005400  1
  O  O62  1  0.69778100  0.06050500  0.23199300  1
  O  O63  1  0.69778100  0.43949500  0.73199300  1
  O  O64  1  0.76020700  0.03431700  0.09804500  1
  O  O65  1  0.76020700  0.46568300  0.59804500  1
  O  O66  1  0.77351200  0.12459500  0.84295900  1
  O  O67  1  0.77351200  0.37540500  0.34295900  1
  O  O68  1  0.88591300  0.26416900  0.10171300  1
  O  O69  1  0.88591300  0.23583100  0.60171300  1
  O  O70  1  0.89337800  0.57469500  0.43550400  1
  O  O71  1  0.89337800  0.92530500  0.93550400  1
  O  O72  1  0.89391500  0.09751400  0.49420800  1
  O  O73  1  0.89391500  0.40248600  0.99420800  1
  O  O74  1  0.93347200  0.80126700  0.21293700  1
  O  O75  1  0.93347200  0.69873300  0.71293700  1
  O  O76  1  0.90032700  0.14455500  0.35375300  1
  O  O77  1  0.90032700  0.35544500  0.85375300  1
  O  O78  1  0.88935700  0.47455800  0.21327400  1
  O  O79  1  0.88935700  0.02544200  0.71327400  1
loop_
_geom_bond_atom_site_label_1
_geom_bond_atom_site_label_2
_geom_bond_distance
_geom_bond_site_symmetry_2
La0 O2 2.424267 1_555
La0 O26 2.429045 1_555
La0 O18 2.521342 1_555
La0 O54 2.521833 1_455
La0 O6 2.541270 1_555
La0 O68 2.542621 1_455
La0 O73 2.699627 1_454
La0 O30 2.831734 1_555
La0 O78 3.199362 1_455
La1 O3 2.424267 1_545
La1 O27 2.429045 1_555
La1 O19 2.521342 1_555
La1 O55 2.521833 1_445
La1 O7 2.541270 1_545
La1 O69 2.542621 1_455
La1 O72 2.699627 1_455
La1 O31 2.831734 1_545
La1 O79 3.199362 1_455
La2 O36 2.424267 1_565
La2 O12 2.429045 1_555
La2 O20 2.521342 1_555
La2 O64 2.521833 1_565
La2 O32 2.541270 1_565
La2 O50 2.542621 1_555
La2 O47 2.699627 1_554
La2 O8 2.831734 1_565
La2 O41 3.199362 1_555
La3 O37 2.424267 1_555
La3 O13 2.429045 1_555
La3 O21 2.521342 1_555
La3 O65 2.521833 1_555
La3 O33 2.541270 1_555
La3 O51 2.542621 1_555
La3 O46 2.699627 1_555
La3 O9 2.831734 1_555
La3 O40 3.199362 1_555
La4 O43 2.424267 1_545
La4 O66 2.429045 1_555
La4 O59 2.521342 1_555
La4 O15 2.521833 1_545
La4 O47 2.541270 1_545
La4 O29 2.542621 1_555
La4 O32 2.699627 1_556
La4 O71 2.831734 1_545
La4 O39 3.199362 1_555
La5 O42 2.424267 1_555
La5 O67 2.429045 1_555
La5 O58 2.521342 1_555
La5 O14 2.521833 1_555
La5 O46 2.541270 1_555
La5 O28 2.542621 1_555
La5 O33 2.699627 1_555
La5 O70 2.831734 1_555
La5 O38 3.199362 1_555
La6 O77 2.424267 1_555
La6 O52 2.429045 1_555
La6 O61 2.521342 1_555
La6 O25 2.521833 1_655
La6 O73 2.541270 1_555
La6 O11 2.542621 1_655
La6 O6 2.699627 1_656
La6 O48 2.831734 1_555
La6 O1 3.199362 1_655
La7 O76 2.424267 1_565
La7 O53 2.429045 1_555
La7 O60 2.521342 1_555
La7 O24 2.521833 1_665
La7 O72 2.541270 1_565
La7 O10 2.542621 1_655
La7 O7 2.699627 1_655
La7 O49 2.831734 1_565
La7 O0 3.199362 1_655
H0 O4 0.980758 1_555
H1 O5 0.980758 1_555
H2 O34 0.980758 1_555
H3 O35 0.980758 1_555
H4 O44 0.980758 1_555
H5 O45 0.980758 1_555
H6 O75 0.980758 1_555
H7 O74 0.980758 1_555
O0 O22 1.228609 1_565
O1 O23 1.228609 1_555
O2 Se0 1.693896 1_555
O3 Se1 1.693896 1_555
O4 Se23 1.833295 1_455
O5 Se22 1.833295 1_455
O6 Se6 1.709563 1_555
O7 Se7 1.709563 1_555
O8 Se20 1.884888 1_455
O8 Se4 1.895182 1_555
O9 Se21 1.884888 1_455
O9 Se5 1.895182 1_555
O10 Se2 1.696317 1_555
O11 Se3 1.696317 1_555
O12 Se0 1.705349 1_555
O13 Se1 1.705349 1_555
O14 Se2 1.683274 1_555
O15 Se3 1.683274 1_555
O16 O38 1.228609 1_555
O17 O39 1.228609 1_565
O18 Se4 1.679894 1_555
O19 Se5 1.679894 1_555
O20 Se6 1.679894 1_555
O21 Se7 1.679894 1_555
O24 Se8 1.683274 1_555
O25 Se9 1.683274 1_555
O26 Se10 1.705349 1_555
O27 Se11 1.705349 1_555
O28 Se8 1.696317 1_555
O29 Se9 1.696317 1_555
O30 Se14 1.884888 1_555
O30 Se6 1.895182 1_555
O31 Se15 1.884888 1_555
O31 Se7 1.895182 1_555
O32 Se4 1.709563 1_555
O33 Se5 1.709563 1_555
O34 Se12 1.833295 1_555
O35 Se13 1.833295 1_555
O36 Se10 1.693896 1_555
O37 Se11 1.693896 1_555
O40 O63 1.228609 1_555
O41 O62 1.228609 1_565
O42 Se12 1.693896 1_555
O43 Se13 1.693896 1_555
O44 Se10 1.833295 1_555
O45 Se11 1.833295 1_555
O46 Se18 1.709563 1_555
O47 Se19 1.709563 1_555
O48 Se9 1.884888 1_555
O48 Se17 1.895182 1_555
O49 Se8 1.884888 1_555
O49 Se16 1.895182 1_555
O50 Se14 1.696317 1_555
O51 Se15 1.696317 1_555
O52 Se13 1.705349 1_555
O53 Se12 1.705349 1_555
O54 Se14 1.683274 1_555
O55 Se15 1.683274 1_555
O56 O78 1.228609 1_555
O57 O79 1.228609 1_565
O58 Se16 1.679894 1_555
O59 Se17 1.679894 1_555
O60 Se18 1.679894 1_555
O61 Se19 1.679894 1_555
O64 Se20 1.683274 1_555
O65 Se21 1.683274 1_555
O66 Se22 1.705349 1_555
O67 Se23 1.705349 1_555
O68 Se20 1.696317 1_555
O69 Se21 1.696317 1_555
O70 Se2 1.884888 1_655
O70 Se18 1.895182 1_555
O71 Se3 1.884888 1_655
O71 Se19 1.895182 1_555
O72 Se16 1.709563 1_555
O73 Se17 1.709563 1_555
O74 Se0 1.833295 1_655
O75 Se1 1.833295 1_655
O76 Se23 1.693896 1_555
O77 Se22 1.693896 1_555
