# generated using pymatgen
data_Li3MnFeCo(PO4)3
_symmetry_space_group_name_H-M   'P 1'
_cell_length_a   10.47933939
_cell_length_b   6.08136900
_cell_length_c   14.33390551
_cell_angle_alpha   90.00000000
_cell_angle_beta   89.60521274
_cell_angle_gamma   90.00000000
_symmetry_Int_Tables_number   1
_chemical_formula_structural   Li3MnFeCo(PO4)3
_chemical_formula_sum   'Li12 Mn4 Fe4 Co4 P12 O48'
_cell_volume   913.45990535
_cell_formula_units_Z   4
loop_
 _symmetry_equiv_pos_site_id
 _symmetry_equiv_pos_as_xyz
  1  'x, y, z'
loop_
 _atom_site_type_symbol
 _atom_site_label
 _atom_site_symmetry_multiplicity
 _atom_site_fract_x
 _atom_site_fract_y
 _atom_site_fract_z
 _atom_site_occupancy
  Li  Li0  1  0.99926800  0.49979500  0.66532800  1
  Li  Li1  1  0.99619300  0.99772700  0.00099700  1
  Li  Li2  1  0.99619300  0.50227300  0.00099700  1
  Li  Li3  1  0.99818300  0.00104700  0.33343400  1
  Li  Li4  1  0.99818300  0.49895300  0.33343400  1
  Li  Li5  1  0.99926800  0.00020500  0.66532800  1
  Li  Li6  1  0.50197400  0.99991300  0.50014200  1
  Li  Li7  1  0.50197400  0.50008700  0.50014200  1
  Li  Li8  1  0.50204900  0.99939600  0.16636500  1
  Li  Li9  1  0.50204900  0.50060400  0.16636500  1
  Li  Li10  1  0.50174600  0.99935100  0.83324100  1
  Li  Li11  1  0.50174600  0.50064900  0.83324100  1
  Mn  Mn0  1  0.21799000  0.75000000  0.16150400  1
  Mn  Mn1  1  0.21816600  0.75000000  0.82735700  1
  Mn  Mn2  1  0.28169900  0.25000000  0.99480900  1
  Mn  Mn3  1  0.28393900  0.25000000  0.33013900  1
  Fe  Fe0  1  0.21778400  0.75000000  0.49558000  1
  Fe  Fe1  1  0.28001400  0.25000000  0.66160700  1
  Fe  Fe2  1  0.72082200  0.75000000  0.00641200  1
  Fe  Fe3  1  0.71945600  0.75000000  0.33879800  1
  Co  Co0  1  0.71766200  0.75000000  0.67004500  1
  Co  Co1  1  0.78226000  0.25000000  0.83834700  1
  Co  Co2  1  0.77976900  0.25000000  0.50522400  1
  Co  Co3  1  0.77833300  0.25000000  0.16981900  1
  P  P0  1  0.09292600  0.25000000  0.80530600  1
  P  P1  1  0.09015600  0.25000000  0.13929400  1
  P  P2  1  0.09327100  0.25000000  0.47432600  1
  P  P3  1  0.40636800  0.75000000  0.30603300  1
  P  P4  1  0.40521000  0.75000000  0.63859100  1
  P  P5  1  0.40710500  0.75000000  0.97205300  1
  P  P6  1  0.59928100  0.25000000  0.36055100  1
  P  P7  1  0.59849100  0.25000000  0.02821500  1
  P  P8  1  0.59840500  0.25000000  0.69347900  1
  P  P9  1  0.90223500  0.75000000  0.86000100  1
  P  P10  1  0.90264500  0.75000000  0.19441800  1
  P  P11  1  0.90250300  0.75000000  0.52667300  1
  O  O0  1  0.04018900  0.75000000  0.23509200  1
  O  O1  1  0.04018800  0.75000000  0.56707600  1
  O  O2  1  0.03931600  0.75000000  0.90136700  1
  O  O3  1  0.09699600  0.25000000  0.58126100  1
  O  O4  1  0.09781000  0.25000000  0.91226700  1
  O  O5  1  0.09569900  0.25000000  0.24670900  1
  O  O6  1  0.16001700  0.04774000  0.09389400  1
  O  O7  1  0.16001700  0.45226000  0.09389400  1
  O  O8  1  0.16366600  0.04656200  0.42977400  1
  O  O9  1  0.16366600  0.45343800  0.42977400  1
  O  O10  1  0.16367100  0.04917800  0.75906000  1
  O  O11  1  0.16367100  0.45082200  0.75906000  1
  O  O12  1  0.33602900  0.54652000  0.59379600  1
  O  O13  1  0.33602900  0.95348000  0.59379600  1
  O  O14  1  0.33790700  0.54696900  0.26104000  1
  O  O15  1  0.33790700  0.95303100  0.26104000  1
  O  O16  1  0.33741900  0.54740400  0.92736500  1
  O  O17  1  0.33741900  0.95259600  0.92736500  1
  O  O18  1  0.40054800  0.75000000  0.41380500  1
  O  O19  1  0.40163400  0.75000000  0.07946500  1
  O  O20  1  0.40026100  0.75000000  0.74562000  1
  O  O21  1  0.46237200  0.25000000  0.40239500  1
  O  O22  1  0.46058400  0.25000000  0.06926200  1
  O  O23  1  0.45986500  0.25000000  0.73335500  1
  O  O24  1  0.54500300  0.75000000  0.26608800  1
  O  O25  1  0.54500100  0.75000000  0.93184500  1
  O  O26  1  0.54404400  0.75000000  0.59817300  1
  O  O27  1  0.60380200  0.25000000  0.25325000  1
  O  O28  1  0.60362300  0.25000000  0.92069500  1
  O  O29  1  0.60302500  0.25000000  0.58585700  1
  O  O30  1  0.66798700  0.04700100  0.07371800  1
  O  O31  1  0.66890700  0.04652900  0.40592100  1
  O  O32  1  0.66798500  0.04614700  0.73849500  1
  O  O33  1  0.66798500  0.45385300  0.73849500  1
  O  O34  1  0.66798700  0.45299900  0.07371800  1
  O  O35  1  0.66890700  0.45347100  0.40592100  1
  O  O36  1  0.83201100  0.54666900  0.90559200  1
  O  O37  1  0.83201100  0.95333100  0.90559200  1
  O  O38  1  0.83364300  0.54548700  0.23922400  1
  O  O39  1  0.83214000  0.54692800  0.57237600  1
  O  O40  1  0.83364300  0.95451300  0.23922400  1
  O  O41  1  0.83214000  0.95307200  0.57237600  1
  O  O42  1  0.89925400  0.75000000  0.75270300  1
  O  O43  1  0.90030400  0.75000000  0.41961300  1
  O  O44  1  0.90079900  0.75000000  0.08693500  1
  O  O45  1  0.95462800  0.25000000  0.76598300  1
  O  O46  1  0.95178700  0.25000000  0.09897700  1
  O  O47  1  0.95518500  0.25000000  0.43409100  1
loop_
_geom_bond_atom_site_label_1
_geom_bond_atom_site_label_2
_geom_bond_distance
_geom_bond_site_symmetry_2
Li0 O1 2.115230 1_655
Li0 O45 2.144481 1_555
Li0 O3 2.188955 1_655
Li0 O11 2.212210 1_655
Li0 O39 2.226406 1_555
Li0 O42 2.228045 1_555
Li1 O2 2.122346 1_654
Li1 O46 2.129235 1_565
Li1 O44 2.183887 1_555
Li1 O6 2.200999 1_665
Li1 O37 2.221628 1_554
Li1 O4 2.255341 1_664
Li2 O2 2.122346 1_654
Li2 O46 2.129235 1_555
Li2 O44 2.183887 1_555
Li2 O7 2.200999 1_655
Li2 O36 2.221628 1_554
Li2 O4 2.255341 1_654
Li3 O0 2.122052 1_645
Li3 O47 2.137262 1_555
Li3 O5 2.205497 1_655
Li3 O43 2.211646 1_545
Li3 O40 2.215593 1_545
Li3 O8 2.241398 1_655
Li4 O0 2.122052 1_655
Li4 O47 2.137262 1_555
Li4 O5 2.205497 1_655
Li4 O43 2.211646 1_555
Li4 O38 2.215593 1_555
Li4 O9 2.241398 1_655
Li5 O1 2.115230 1_645
Li5 O45 2.144481 1_555
Li5 O3 2.188955 1_655
Li5 O10 2.212210 1_655
Li5 O41 2.226406 1_545
Li5 O42 2.228045 1_545
Li6 O21 2.111009 1_565
Li6 O26 2.118307 1_555
Li6 O13 2.207663 1_555
Li6 O31 2.220816 1_565
Li6 O29 2.227528 1_565
Li6 O18 2.233649 1_555
Li7 O21 2.111009 1_555
Li7 O26 2.118307 1_555
Li7 O12 2.207663 1_555
Li7 O35 2.220816 1_555
Li7 O29 2.227528 1_555
Li7 O18 2.233649 1_555
Li8 O22 2.111175 1_565
Li8 O24 2.134247 1_555
Li8 O30 2.199864 1_565
Li8 O15 2.201749 1_555
Li8 O19 2.230966 1_555
Li8 O27 2.242533 1_565
Li9 O22 2.111175 1_555
Li9 O24 2.134247 1_555
Li9 O34 2.199864 1_555
Li9 O14 2.201749 1_555
Li9 O19 2.230966 1_555
Li9 O27 2.242533 1_555
Li10 O25 2.124004 1_555
Li10 O23 2.138846 1_565
Li10 O17 2.198748 1_555
Li10 O32 2.219818 1_565
Li10 O20 2.241941 1_555
Li10 O28 2.247906 1_565
Li11 O25 2.124004 1_555
Li11 O23 2.138846 1_555
Li11 O16 2.198748 1_555
Li11 O33 2.219818 1_555
Li11 O20 2.241941 1_555
Li11 O28 2.247906 1_555
Mn0 O0 2.134755 1_555
Mn0 O7 2.143570 1_555
Mn0 O6 2.143570 1_565
Mn0 O19 2.248382 1_555
Mn0 O15 2.272436 1_555
Mn0 O14 2.272436 1_555
Mn1 O10 2.145333 1_565
Mn1 O11 2.145333 1_555
Mn1 O2 2.147265 1_555
Mn1 O20 2.232314 1_555
Mn1 O17 2.271416 1_555
Mn1 O16 2.271416 1_555
Mn2 O17 2.130462 1_545
Mn2 O16 2.130462 1_555
Mn2 O22 2.163470 1_556
Mn2 O6 2.265208 1_556
Mn2 O7 2.265208 1_556
Mn2 O4 2.268199 1_555
Mn3 O14 2.134172 1_555
Mn3 O15 2.134172 1_545
Mn3 O21 2.143773 1_555
Mn3 O9 2.265836 1_555
Mn3 O8 2.265836 1_555
Mn3 O5 2.313851 1_555
Fe0 O8 2.114558 1_565
Fe0 O9 2.114558 1_555
Fe0 O1 2.118400 1_555
Fe0 O18 2.238566 1_555
Fe0 O12 2.252262 1_555
Fe0 O13 2.252262 1_555
Fe1 O13 2.129128 1_545
Fe1 O12 2.129128 1_555
Fe1 O23 2.153264 1_555
Fe1 O11 2.214895 1_555
Fe1 O10 2.214895 1_555
Fe1 O3 2.243916 1_555
Fe2 O34 2.119484 1_555
Fe2 O30 2.119484 1_565
Fe2 O25 2.136425 1_554
Fe2 O44 2.217960 1_555
Fe2 O37 2.225288 1_554
Fe2 O36 2.225288 1_554
Fe3 O31 2.109783 1_565
Fe3 O35 2.109783 1_555
Fe3 O24 2.110596 1_555
Fe3 O43 2.227957 1_555
Fe3 O40 2.234346 1_555
Fe3 O38 2.234346 1_555
Co0 O26 2.096993 1_555
Co0 O32 2.114275 1_565
Co0 O33 2.114275 1_555
Co0 O41 2.213838 1_555
Co0 O39 2.213838 1_555
Co0 O42 2.248582 1_555
Co1 O45 2.076732 1_555
Co1 O36 2.112529 1_555
Co1 O37 2.112529 1_545
Co1 O28 2.206172 1_555
Co1 O32 2.245683 1_555
Co1 O33 2.245683 1_555
Co2 O47 2.095930 1_555
Co2 O39 2.120291 1_555
Co2 O41 2.120291 1_545
Co2 O29 2.176428 1_555
Co2 O35 2.220283 1_555
Co2 O31 2.220283 1_555
Co3 O46 2.075972 1_555
Co3 O38 2.136047 1_555
Co3 O40 2.136047 1_545
Co3 O27 2.178336 1_555
Co3 O30 2.186467 1_555
Co3 O34 2.186467 1_555
O0 P10 1.558537 1_455
O1 P11 1.558435 1_455
O2 P9 1.557850 1_455
O3 P2 1.533562 1_555
O4 P0 1.534375 1_555
O5 P1 1.541172 1_555
O6 P1 1.570297 1_555
O7 P1 1.570297 1_555
O8 P2 1.573573 1_555
O9 P2 1.573573 1_555
O10 P0 1.572822 1_555
O11 P0 1.572822 1_555
O12 P4 1.573380 1_555
O13 P4 1.573380 1_555
O14 P3 1.568918 1_555
O15 P3 1.568918 1_555
O16 P5 1.570991 1_555
O17 P5 1.570991 1_555
O18 P3 1.545577 1_555
O19 P5 1.540306 1_554
O20 P4 1.534663 1_555
O21 P6 1.551224 1_555
O22 P7 1.556593 1_555
O23 P8 1.556603 1_555
O24 P3 1.557886 1_555
O25 P5 1.552058 1_555
O26 P4 1.562283 1_555
O27 P6 1.538446 1_555
O28 P7 1.541749 1_556
O29 P8 1.543070 1_555
O30 P7 1.576819 1_555
O31 P6 1.578907 1_555
O32 P8 1.578408 1_555
O33 P8 1.578408 1_555
O34 P7 1.576819 1_555
O35 P6 1.578907 1_555
O36 P9 1.578287 1_555
O37 P9 1.578287 1_555
O38 P10 1.573462 1_555
O39 P11 1.578390 1_555
O40 P10 1.573462 1_555
O41 P11 1.578390 1_555
O42 P9 1.538532 1_555
O43 P11 1.534920 1_555
O44 P10 1.540906 1_555
O45 P0 1.558637 1_655
O46 P1 1.564628 1_655
O47 P2 1.561431 1_655
