# generated using pymatgen
data_LiV2(PO4)3
_symmetry_space_group_name_H-M   'P 1'
_cell_length_a   8.74363000
_cell_length_b   8.86734500
_cell_length_c   12.17461600
_cell_angle_alpha   90.00000000
_cell_angle_beta   90.00000000
_cell_angle_gamma   90.00000000
_symmetry_Int_Tables_number   1
_chemical_formula_structural   LiV2(PO4)3
_chemical_formula_sum   'Li4 V8 P12 O48'
_cell_volume   943.93186972
_cell_formula_units_Z   4
loop_
 _symmetry_equiv_pos_site_id
 _symmetry_equiv_pos_as_xyz
  1  'x, y, z'
loop_
 _atom_site_type_symbol
 _atom_site_label
 _atom_site_symmetry_multiplicity
 _atom_site_fract_x
 _atom_site_fract_y
 _atom_site_fract_z
 _atom_site_occupancy
  Li  Li0  1  0.18026100  0.68627800  0.25000000  1
  Li  Li1  1  0.18026100  0.81372200  0.75000000  1
  Li  Li2  1  0.81973900  0.18627800  0.25000000  1
  Li  Li3  1  0.81973900  0.31372200  0.75000000  1
  V  V0  1  0.24634600  0.02403100  0.10441400  1
  V  V1  1  0.24634600  0.02403100  0.39558600  1
  V  V2  1  0.24634600  0.47596900  0.60441400  1
  V  V3  1  0.24634600  0.47596900  0.89558600  1
  V  V4  1  0.75365400  0.97596900  0.89558600  1
  V  V5  1  0.75365400  0.52403100  0.10441400  1
  V  V6  1  0.75365400  0.52403100  0.39558600  1
  V  V7  1  0.75365400  0.97596900  0.60441400  1
  P  P0  1  0.02964900  0.75000000  0.00000000  1
  P  P1  1  0.02964900  0.75000000  0.50000000  1
  P  P2  1  0.39840400  0.37310300  0.12913700  1
  P  P3  1  0.39840400  0.12689700  0.62913700  1
  P  P4  1  0.39840400  0.12689700  0.87086300  1
  P  P5  1  0.39840400  0.37310300  0.37086300  1
  P  P6  1  0.60159600  0.62689700  0.87086300  1
  P  P7  1  0.60159600  0.62689700  0.62913700  1
  P  P8  1  0.60159600  0.87310300  0.12913700  1
  P  P9  1  0.60159600  0.87310300  0.37086300  1
  P  P10  1  0.97035100  0.25000000  0.00000000  1
  P  P11  1  0.97035100  0.25000000  0.50000000  1
  O  O0  1  0.06467000  0.14303400  0.42667900  1
  O  O1  1  0.06467000  0.35696600  0.57332100  1
  O  O2  1  0.06467000  0.14303400  0.07332100  1
  O  O3  1  0.06467000  0.35696600  0.92667900  1
  O  O4  1  0.13035500  0.83452900  0.41457300  1
  O  O5  1  0.13035500  0.83452900  0.08542700  1
  O  O6  1  0.13035500  0.66547100  0.91457300  1
  O  O7  1  0.13035500  0.66547100  0.58542700  1
  O  O8  1  0.21130600  0.01537400  0.25000000  1
  O  O9  1  0.21130600  0.48462700  0.75000000  1
  O  O10  1  0.29387100  0.03065100  0.55797700  1
  O  O11  1  0.29387100  0.46934900  0.05797700  1
  O  O12  1  0.29387100  0.46934900  0.44202300  1
  O  O13  1  0.29387100  0.03065100  0.94202300  1
  O  O14  1  0.34411400  0.06676900  0.75000000  1
  O  O15  1  0.34411400  0.43323100  0.25000000  1
  O  O16  1  0.37172800  0.20440500  0.37750100  1
  O  O17  1  0.37172800  0.29559500  0.62249900  1
  O  O18  1  0.37172800  0.29559500  0.87750100  1
  O  O19  1  0.37172800  0.20440500  0.12249900  1
  O  O20  1  0.43048600  0.60068500  0.61925200  1
  O  O21  1  0.43048600  0.89931500  0.11925200  1
  O  O22  1  0.43048600  0.89931500  0.38074800  1
  O  O23  1  0.43048600  0.60068500  0.88074800  1
  O  O24  1  0.56951400  0.10068500  0.88074800  1
  O  O25  1  0.56951400  0.39931500  0.38074800  1
  O  O26  1  0.56951400  0.39931500  0.11925200  1
  O  O27  1  0.56951400  0.10068500  0.61925200  1
  O  O28  1  0.62827200  0.70440500  0.12249900  1
  O  O29  1  0.62827200  0.70440500  0.37750100  1
  O  O30  1  0.62827200  0.79559500  0.87750100  1
  O  O31  1  0.62827200  0.79559500  0.62249900  1
  O  O32  1  0.65588600  0.56676900  0.75000000  1
  O  O33  1  0.65588600  0.93323100  0.25000000  1
  O  O34  1  0.70612900  0.53065100  0.55797700  1
  O  O35  1  0.70612900  0.53065100  0.94202300  1
  O  O36  1  0.70612900  0.96934900  0.05797700  1
  O  O37  1  0.70612900  0.96934900  0.44202300  1
  O  O38  1  0.78869400  0.51537400  0.25000000  1
  O  O39  1  0.78869400  0.98462600  0.75000000  1
  O  O40  1  0.86964500  0.16547100  0.58542700  1
  O  O41  1  0.86964500  0.33452900  0.08542700  1
  O  O42  1  0.86964500  0.33452900  0.41457300  1
  O  O43  1  0.86964500  0.16547100  0.91457300  1
  O  O44  1  0.93533000  0.85696600  0.92667900  1
  O  O45  1  0.93533000  0.64303400  0.07332100  1
  O  O46  1  0.93533000  0.64303400  0.42667900  1
  O  O47  1  0.93533000  0.85696600  0.57332100  1
loop_
_geom_bond_atom_site_label_1
_geom_bond_atom_site_label_2
_geom_bond_distance
_geom_bond_site_symmetry_2
Li0 O4 2.435781 1_555
Li0 O5 2.435781 1_555
Li0 O15 2.662223 1_555
Li1 O6 2.435781 1_555
Li1 O7 2.435781 1_555
Li1 O14 2.662223 1_565
Li2 O42 2.435781 1_555
Li2 O41 2.435781 1_555
Li2 O33 2.662223 1_545
Li3 O43 2.435781 1_555
Li3 O40 2.435781 1_555
Li3 O32 2.662223 1_555
O0 P11 1.541625 1_455
O0 V1 1.944270 1_555
O1 P11 1.541625 1_455
O1 V2 1.944270 1_555
O2 P10 1.541625 1_455
O2 V0 1.944270 1_555
O3 P10 1.541625 1_456
O3 V3 1.944270 1_555
O4 P1 1.555265 1_555
O4 V1 1.976278 1_565
O5 P0 1.555265 1_555
O5 V0 1.976278 1_565
O6 P0 1.555265 1_556
O6 V3 1.976278 1_555
O7 P1 1.555265 1_555
O7 V2 1.976278 1_555
O8 V1 1.800375 1_555
O8 V0 1.800375 1_555
O9 V3 1.800376 1_555
O9 V2 1.800376 1_555
O10 P3 1.521288 1_555
O10 V1 2.021099 1_555
O11 P2 1.521288 1_555
O11 V3 2.021099 1_554
O12 P5 1.521288 1_555
O12 V2 2.021099 1_555
O13 P4 1.521288 1_555
O13 V0 2.021099 1_556
O14 P4 1.635483 1_555
O14 P3 1.635483 1_555
O15 P5 1.635483 1_555
O15 P2 1.635483 1_555
O16 P5 1.516134 1_555
O16 V1 1.951549 1_555
O17 P3 1.516134 1_555
O17 V2 1.951549 1_555
O18 P4 1.516134 1_555
O18 V3 1.951549 1_555
O19 P2 1.516134 1_555
O19 V0 1.951549 1_555
O20 P7 1.518845 1_555
O20 V2 1.961610 1_555
O21 P8 1.518845 1_555
O21 V0 1.961610 1_565
O22 P9 1.518845 1_555
O22 V1 1.961610 1_565
O23 P6 1.518845 1_555
O23 V3 1.961610 1_555
O24 P4 1.518845 1_555
O24 V4 1.961610 1_545
O25 P5 1.518845 1_555
O25 V6 1.961610 1_555
O26 P2 1.518845 1_555
O26 V5 1.961610 1_555
O27 P3 1.518845 1_555
O27 V7 1.961610 1_545
O28 P8 1.516134 1_555
O28 V5 1.951549 1_555
O29 P9 1.516134 1_555
O29 V6 1.951549 1_555
O30 P6 1.516134 1_555
O30 V4 1.951549 1_555
O31 P7 1.516134 1_555
O31 V7 1.951549 1_555
O32 P6 1.635483 1_555
O32 P7 1.635483 1_555
O33 P9 1.635483 1_555
O33 P8 1.635483 1_555
O34 P7 1.521288 1_555
O34 V6 2.021099 1_555
O35 P6 1.521288 1_555
O35 V5 2.021099 1_556
O36 P8 1.521288 1_555
O36 V4 2.021099 1_554
O37 P9 1.521288 1_555
O37 V7 2.021099 1_555
O38 V5 1.800375 1_555
O38 V6 1.800375 1_555
O39 V4 1.800375 1_555
O39 V7 1.800375 1_555
O40 P11 1.555265 1_555
O40 V7 1.976278 1_545
O41 P10 1.555265 1_555
O41 V5 1.976278 1_555
O42 P11 1.555265 1_555
O42 V6 1.976278 1_555
O43 P10 1.555265 1_556
O43 V4 1.976278 1_545
O44 P0 1.541625 1_656
O44 V4 1.944270 1_555
O45 P0 1.541625 1_655
O45 V5 1.944270 1_555
O46 P1 1.541625 1_655
O46 V6 1.944270 1_555
O47 P1 1.541625 1_655
O47 V7 1.944270 1_555
