# generated using pymatgen
data_LiNbCrO4
_symmetry_space_group_name_H-M   'P 1'
_cell_length_a   6.30824400
_cell_length_b   6.30824400
_cell_length_c   8.46472200
_cell_angle_alpha   90.00000000
_cell_angle_beta   90.00000000
_cell_angle_gamma   90.00000000
_symmetry_Int_Tables_number   1
_chemical_formula_structural   LiNbCrO4
_chemical_formula_sum   'Li4 Nb4 Cr4 O16'
_cell_volume   336.84465939
_cell_formula_units_Z   4
loop_
 _symmetry_equiv_pos_site_id
 _symmetry_equiv_pos_as_xyz
  1  'x, y, z'
loop_
 _atom_site_type_symbol
 _atom_site_label
 _atom_site_symmetry_multiplicity
 _atom_site_fract_x
 _atom_site_fract_y
 _atom_site_fract_z
 _atom_site_occupancy
  Li  Li0  1  0.00000000  0.23171500  0.00000000  1
  Li  Li1  1  0.00000000  0.76828500  0.50000000  1
  Li  Li2  1  0.23171500  0.00000000  0.25000000  1
  Li  Li3  1  0.76828500  0.00000000  0.75000000  1
  Nb  Nb0  1  0.24949500  0.24949500  0.62500000  1
  Nb  Nb1  1  0.24949500  0.75050500  0.87500000  1
  Nb  Nb2  1  0.75050500  0.24949500  0.37500000  1
  Nb  Nb3  1  0.75050500  0.75050500  0.12500000  1
  Cr  Cr0  1  0.24239500  0.50000000  0.25000000  1
  Cr  Cr1  1  0.50000000  0.24239500  0.00000000  1
  Cr  Cr2  1  0.50000000  0.75760500  0.50000000  1
  Cr  Cr3  1  0.75760500  0.50000000  0.75000000  1
  O  O0  1  0.99733900  0.25181400  0.25346300  1
  O  O1  1  0.99733900  0.74818600  0.24653700  1
  O  O2  1  0.25181400  0.99733900  0.99653700  1
  O  O3  1  0.25181400  0.00266100  0.50346300  1
  O  O4  1  0.25415900  0.50366000  0.00690200  1
  O  O5  1  0.25415900  0.49634000  0.49309800  1
  O  O6  1  0.50366000  0.25415900  0.24309800  1
  O  O7  1  0.50366000  0.74584100  0.25690200  1
  O  O8  1  0.49634000  0.25415900  0.75690200  1
  O  O9  1  0.49634000  0.74584100  0.74309800  1
  O  O10  1  0.74584100  0.49634000  0.50690200  1
  O  O11  1  0.74584100  0.50366000  0.99309800  1
  O  O12  1  0.74818600  0.99733900  0.00346300  1
  O  O13  1  0.74818600  0.00266100  0.49653700  1
  O  O14  1  0.00266100  0.25181400  0.74653700  1
  O  O15  1  0.00266100  0.74818600  0.75346300  1
loop_
_geom_bond_atom_site_label_1
_geom_bond_atom_site_label_2
_geom_bond_distance
_geom_bond_site_symmetry_2
Li0 O0 2.149302 1_455
Li0 O14 2.149302 1_554
Li0 O2 2.170293 1_544
Li0 O12 2.170293 1_445
Li0 O4 2.348808 1_555
Li0 O11 2.348808 1_454
Li1 O15 2.149302 1_555
Li1 O1 2.149302 1_455
Li1 O3 2.170293 1_565
Li1 O13 2.170293 1_465
Li1 O10 2.348808 1_455
Li1 O5 2.348808 1_555
Li2 O3 2.149302 1_555
Li2 O2 2.149302 1_544
Li2 O1 2.170293 1_445
Li2 O0 2.170293 1_455
Li2 O7 2.348808 1_545
Li2 O6 2.348808 1_555
Li3 O13 2.149302 1_555
Li3 O12 2.149302 1_546
Li3 O14 2.170293 1_655
Li3 O15 2.170293 1_645
Li3 O8 2.348808 1_555
Li3 O9 2.348808 1_545
Nb0 O14 1.866313 1_555
Nb0 O3 1.866313 1_555
Nb0 O8 1.916301 1_555
Nb0 O5 1.916301 1_555
Nb1 O15 1.866313 1_555
Nb1 O2 1.866313 1_555
Nb1 O4 1.916301 1_556
Nb1 O9 1.916301 1_555
Nb2 O13 1.866313 1_555
Nb2 O0 1.866313 1_555
Nb2 O6 1.916301 1_555
Nb2 O10 1.916301 1_555
Nb3 O12 1.866313 1_555
Nb3 O1 1.866313 1_555
Nb3 O11 1.916301 1_554
Nb3 O7 1.916301 1_555
Cr0 O5 2.059224 1_555
Cr0 O4 2.059224 1_555
Cr0 O0 2.200396 1_455
Cr0 O1 2.200396 1_455
Cr0 O6 2.263798 1_555
Cr0 O7 2.263798 1_555
Cr1 O6 2.059224 1_555
Cr1 O8 2.059224 1_554
Cr1 O2 2.200396 1_544
Cr1 O12 2.200396 1_545
Cr1 O4 2.263798 1_555
Cr1 O11 2.263798 1_554
Cr2 O7 2.059224 1_555
Cr2 O9 2.059224 1_555
Cr2 O13 2.200396 1_565
Cr2 O3 2.200396 1_565
Cr2 O5 2.263798 1_555
Cr2 O10 2.263798 1_555
Cr3 O10 2.059224 1_555
Cr3 O11 2.059224 1_555
Cr3 O15 2.200396 1_655
Cr3 O14 2.200396 1_655
Cr3 O8 2.263798 1_555
Cr3 O9 2.263798 1_555
