# generated using pymatgen
data_Li2Ti3O6
_symmetry_space_group_name_H-M   'P 1'
_cell_length_a   5.09515321
_cell_length_b   5.09515321
_cell_length_c   5.27457118
_cell_angle_alpha   80.81778652
_cell_angle_beta   80.81778652
_cell_angle_gamma   119.90632139
_symmetry_Int_Tables_number   1
_chemical_formula_structural   Li2Ti3O6
_chemical_formula_sum   'Li2 Ti3 O6'
_cell_volume   112.50813537
_cell_formula_units_Z   1
loop_
 _symmetry_equiv_pos_site_id
 _symmetry_equiv_pos_as_xyz
  1  'x, y, z'
loop_
 _atom_site_type_symbol
 _atom_site_label
 _atom_site_symmetry_multiplicity
 _atom_site_fract_x
 _atom_site_fract_y
 _atom_site_fract_z
 _atom_site_occupancy
  Li  Li0  1  0.83262700  0.16737300  0.50000000  1
  Li  Li1  1  0.16737300  0.83262700  0.50000000  1
  Ti  Ti0  1  0.66252600  0.33747400  0.00000000  1
  Ti  Ti1  1  0.33747400  0.66252600  0.00000000  1
  Ti  Ti2  1  0.00000000  0.00000000  0.00000000  1
  O  O0  1  0.24831900  0.24831900  0.22656400  1
  O  O1  1  0.93559000  0.59289000  0.22122500  1
  O  O2  1  0.59289000  0.93559000  0.22122500  1
  O  O3  1  0.40711000  0.06441000  0.77877500  1
  O  O4  1  0.06441000  0.40711000  0.77877500  1
  O  O5  1  0.75168100  0.75168100  0.77343600  1
loop_
_geom_bond_atom_site_label_1
_geom_bond_atom_site_label_2
_geom_bond_distance
_geom_bond_site_symmetry_2
Li0 O0 2.168035 1_655
Li0 O5 2.168035 1_545
Li0 O4 2.176660 1_655
Li0 O2 2.176660 1_545
Li0 O3 2.177174 1_555
Li0 O1 2.177174 1_555
Li1 O0 2.168035 1_565
Li1 O5 2.168035 1_455
Li1 O3 2.176660 1_565
Li1 O1 2.176660 1_455
Li1 O4 2.177174 1_555
Li1 O2 2.177174 1_555
O0 Ti2 1.999628 1_555
O0 Ti0 2.038210 1_555
O0 Ti1 2.038210 1_555
O1 Ti1 2.015248 1_655
O1 Ti0 2.046505 1_555
O1 Ti2 2.049012 1_665
O2 Ti0 2.015248 1_565
O2 Ti1 2.046505 1_555
O2 Ti2 2.049012 1_665
O3 Ti1 2.015248 1_546
O3 Ti0 2.046505 1_556
O3 Ti2 2.049012 1_556
O4 Ti0 2.015248 1_456
O4 Ti1 2.046505 1_556
O4 Ti2 2.049012 1_556
O5 Ti2 1.999628 1_666
O5 Ti1 2.038210 1_556
O5 Ti0 2.038210 1_556
