# generated using pymatgen
data_LiTeO3
_symmetry_space_group_name_H-M   'P 1'
_cell_length_a   5.17812100
_cell_length_b   5.34144800
_cell_length_c   8.96091100
_cell_angle_alpha   90.00000000
_cell_angle_beta   90.00000000
_cell_angle_gamma   90.00000000
_symmetry_Int_Tables_number   1
_chemical_formula_structural   LiTeO3
_chemical_formula_sum   'Li4 Te4 O12'
_cell_volume   247.84682701
_cell_formula_units_Z   4
loop_
 _symmetry_equiv_pos_site_id
 _symmetry_equiv_pos_as_xyz
  1  'x, y, z'
loop_
 _atom_site_type_symbol
 _atom_site_label
 _atom_site_symmetry_multiplicity
 _atom_site_fract_x
 _atom_site_fract_y
 _atom_site_fract_z
 _atom_site_occupancy
  Li  Li0  1  0.00000000  0.00000000  0.31235000  1
  Li  Li1  1  0.50000000  0.00000000  0.17390900  1
  Li  Li2  1  0.00000000  0.50000000  0.67390900  1
  Li  Li3  1  0.50000000  0.50000000  0.81235000  1
  Te  Te0  1  0.00000000  0.00000000  0.89779700  1
  Te  Te1  1  0.50000000  0.00000000  0.58822600  1
  Te  Te2  1  0.00000000  0.50000000  0.08822600  1
  Te  Te3  1  0.50000000  0.50000000  0.39779700  1
  O  O0  1  0.28935900  0.17291300  0.73301600  1
  O  O1  1  0.29492200  0.15372200  0.42450800  1
  O  O2  1  0.20788100  0.18710300  0.07106500  1
  O  O3  1  0.70788100  0.31289700  0.57106500  1
  O  O4  1  0.79492200  0.34627800  0.92450800  1
  O  O5  1  0.78935900  0.32708700  0.23301600  1
  O  O6  1  0.21064100  0.67291300  0.23301600  1
  O  O7  1  0.20507800  0.65372200  0.92450800  1
  O  O8  1  0.29211900  0.68710300  0.57106500  1
  O  O9  1  0.79211900  0.81289700  0.07106500  1
  O  O10  1  0.70507800  0.84627800  0.42450800  1
  O  O11  1  0.71064100  0.82708700  0.73301600  1
loop_
_geom_bond_atom_site_label_1
_geom_bond_atom_site_label_2
_geom_bond_distance
_geom_bond_site_symmetry_2
Li0 O1 2.004112 1_555
Li0 O10 2.004112 1_445
Li0 O5 2.178873 1_455
Li0 O6 2.178873 1_545
Li1 O9 2.033752 1_545
Li1 O2 2.033752 1_555
Li1 O5 2.361771 1_555
Li1 O6 2.361771 1_545
Li1 O10 2.616213 1_545
Li1 O1 2.616213 1_555
Li2 O8 2.033752 1_555
Li2 O3 2.033752 1_455
Li2 O11 2.361771 1_455
Li2 O0 2.361771 1_555
Li2 O7 2.616213 1_555
Li2 O4 2.616213 1_455
Li3 O4 2.004112 1_555
Li3 O7 2.004112 1_555
Li3 O11 2.178873 1_555
Li3 O0 2.178873 1_555
O0 Te1 1.930312 1_555
O0 Te0 2.297470 1_555
O1 Te1 1.988503 1_555
O1 Te3 2.146178 1_555
O2 Te2 1.993910 1_555
O2 Te0 2.137334 1_554
O3 Te1 1.993910 1_555
O3 Te3 2.137334 1_555
O4 Te2 1.988503 1_656
O4 Te0 2.146178 1_655
O5 Te2 1.930312 1_655
O5 Te3 2.297470 1_555
O6 Te2 1.930312 1_555
O6 Te3 2.297470 1_555
O7 Te2 1.988503 1_556
O7 Te0 2.146178 1_565
O8 Te1 1.993910 1_565
O8 Te3 2.137334 1_555
O9 Te2 1.993910 1_655
O9 Te0 2.137334 1_664
O10 Te1 1.988503 1_565
O10 Te3 2.146178 1_555
O11 Te1 1.930312 1_565
O11 Te0 2.297470 1_665
