# generated using pymatgen
data_Li5Mn5(SeO3)8
_symmetry_space_group_name_H-M   'P 1'
_cell_length_a   8.50256900
_cell_length_b   10.64017715
_cell_length_c   13.89879938
_cell_angle_alpha   81.94029084
_cell_angle_beta   82.15058910
_cell_angle_gamma   73.70695954
_symmetry_Int_Tables_number   1
_chemical_formula_structural   Li5Mn5(SeO3)8
_chemical_formula_sum   'Li10 Mn10 Se16 O48'
_cell_volume   1188.71753354
_cell_formula_units_Z   2
loop_
 _symmetry_equiv_pos_site_id
 _symmetry_equiv_pos_as_xyz
  1  'x, y, z'
loop_
 _atom_site_type_symbol
 _atom_site_label
 _atom_site_symmetry_multiplicity
 _atom_site_fract_x
 _atom_site_fract_y
 _atom_site_fract_z
 _atom_site_occupancy
  Li  Li0  1  0.08224600  0.92826700  0.87490700  1
  Li  Li1  1  0.02859500  0.41557900  0.92600600  1
  Li  Li2  1  0.97140500  0.58442100  0.07399400  1
  Li  Li3  1  0.59931500  0.66967800  0.27877100  1
  Li  Li4  1  0.91775400  0.07173300  0.12509300  1
  Li  Li5  1  0.57994800  0.92335500  0.37255200  1
  Li  Li6  1  0.52996400  0.41821900  0.42454800  1
  Li  Li7  1  0.47003600  0.58178100  0.57545200  1
  Li  Li8  1  0.42005200  0.07664500  0.62744800  1
  Li  Li9  1  0.40068500  0.33032200  0.72122900  1
  Mn  Mn0  1  0.74939600  0.00180900  0.74954400  1
  Mn  Mn1  1  0.74937000  0.49831100  0.74879500  1
  Mn  Mn2  1  0.43595700  0.77970200  0.78049300  1
  Mn  Mn3  1  0.09877700  0.66528400  0.77895900  1
  Mn  Mn4  1  0.56404300  0.22029800  0.21950700  1
  Mn  Mn5  1  0.25060400  0.99819100  0.25045600  1
  Mn  Mn6  1  0.25063000  0.50168900  0.25120500  1
  Mn  Mn7  1  0.90122300  0.33471600  0.22104100  1
  Mn  Mn8  1  0.93331000  0.77739300  0.27999600  1
  Mn  Mn9  1  0.06669000  0.22260700  0.72000400  1
  Se  Se0  1  0.39562100  0.47405600  0.89382000  1
  Se  Se1  1  0.37295100  0.06822800  0.88083400  1
  Se  Se2  1  0.62704900  0.93177200  0.11916600  1
  Se  Se3  1  0.60437900  0.52594400  0.10618000  1
  Se  Se4  1  0.84620500  0.20392400  0.91263400  1
  Se  Se5  1  0.76789700  0.73697900  0.90944600  1
  Se  Se6  1  0.23210300  0.26302100  0.09055400  1
  Se  Se7  1  0.15379500  0.79607600  0.08736600  1
  Se  Se8  1  0.34691600  0.20380000  0.41287700  1
  Se  Se9  1  0.27083900  0.73580000  0.40812500  1
  Se  Se10  1  0.72916100  0.26420000  0.59187500  1
  Se  Se11  1  0.65308400  0.79620000  0.58712300  1
  Se  Se12  1  0.89165700  0.47932200  0.39501900  1
  Se  Se13  1  0.87340900  0.06687200  0.38301900  1
  Se  Se14  1  0.12659100  0.93312800  0.61698100  1
  Se  Se15  1  0.10834300  0.52067800  0.60498100  1
  O  O0  1  0.54292200  0.42629500  0.79905800  1
  O  O1  1  0.65598200  0.66325000  0.85189600  1
  O  O2  1  0.31886800  0.14800100  0.76890700  1
  O  O3  1  0.58954100  0.02086400  0.86598200  1
  O  O4  1  0.30566600  0.64142400  0.85818900  1
  O  O5  1  0.32711400  0.92026900  0.88352700  1
  O  O6  1  0.25138100  0.40645400  0.86395500  1
  O  O7  1  0.86573100  0.82400200  0.81107700  1
  O  O8  1  0.92699500  0.09544900  0.82108400  1
  O  O9  1  0.91311000  0.33787900  0.84641500  1
  O  O10  1  0.74861900  0.59354600  0.13604500  1
  O  O11  1  0.67288600  0.07973100  0.11647300  1
  O  O12  1  0.69433400  0.35857600  0.14181100  1
  O  O13  1  0.94440500  0.61178100  0.92468300  1
  O  O14  1  0.41045900  0.97913600  0.13401800  1
  O  O15  1  0.01245600  0.84918800  0.00632000  1
  O  O16  1  0.68113200  0.85199900  0.23109300  1
  O  O17  1  0.98754400  0.15081200  0.99368000  1
  O  O18  1  0.34401800  0.33675000  0.14810400  1
  O  O19  1  0.45707800  0.57370500  0.20094200  1
  O  O20  1  0.05559500  0.38821900  0.07531700  1
  O  O21  1  0.08689000  0.66212100  0.15358500  1
  O  O22  1  0.07300500  0.90455100  0.17891600  1
  O  O23  1  0.13426900  0.17599800  0.18892300  1
  O  O24  1  0.36637200  0.82418100  0.31082300  1
  O  O25  1  0.42616300  0.09564100  0.32074300  1
  O  O26  1  0.41361300  0.33755200  0.34558300  1
  O  O27  1  0.44062300  0.60998800  0.42846300  1
  O  O28  1  0.04245600  0.42688000  0.29883400  1
  O  O29  1  0.15559200  0.66251700  0.35028300  1
  O  O30  1  0.51156400  0.85013700  0.50681900  1
  O  O31  1  0.82050000  0.14979000  0.26911900  1
  O  O32  1  0.48843600  0.14986300  0.49318100  1
  O  O33  1  0.08859500  0.02347500  0.36672100  1
  O  O34  1  0.55937700  0.39001200  0.57153700  1
  O  O35  1  0.80271100  0.64109000  0.35836200  1
  O  O36  1  0.82674400  0.92121000  0.38266300  1
  O  O37  1  0.75838200  0.40048800  0.36215400  1
  O  O38  1  0.58638700  0.66244800  0.65441700  1
  O  O39  1  0.57383700  0.90435900  0.67925700  1
  O  O40  1  0.63362800  0.17581900  0.68917700  1
  O  O41  1  0.24161800  0.59951200  0.63784600  1
  O  O42  1  0.17325600  0.07879000  0.61733700  1
  O  O43  1  0.19728900  0.35891000  0.64163800  1
  O  O44  1  0.91140500  0.97652500  0.63327900  1
  O  O45  1  0.17950000  0.85021000  0.73088100  1
  O  O46  1  0.84440800  0.33748300  0.64971700  1
  O  O47  1  0.95754400  0.57312000  0.70116600  1
loop_
_geom_bond_atom_site_label_1
_geom_bond_atom_site_label_2
_geom_bond_distance
_geom_bond_site_symmetry_2
Li0 O15 1.987287 1_556
Li0 O8 2.011326 1_465
Li0 O5 2.078992 1_555
Li0 O45 2.238181 1_555
Li1 O6 1.953325 1_555
Li1 O9 1.969778 1_455
Li1 O13 2.006304 1_455
Li1 O20 2.089811 1_556
Li2 O10 1.953325 1_555
Li2 O21 1.969778 1_655
Li2 O20 2.006304 1_655
Li2 O13 2.089811 1_554
Li3 O35 2.107143 1_555
Li3 O16 2.226479 1_555
Li3 O24 2.227383 1_555
Li3 O19 2.244004 1_555
Li3 O10 2.321345 1_555
Li3 O27 2.428195 1_555
Li4 O17 1.987287 1_554
Li4 O22 2.011326 1_645
Li4 O11 2.078992 1_555
Li4 O31 2.238181 1_555
Li5 O30 1.994401 1_555
Li5 O25 2.032435 1_565
Li5 O36 2.115733 1_555
Li5 O16 2.184549 1_555
Li6 O27 1.973221 1_555
Li6 O37 1.984892 1_555
Li6 O26 1.989240 1_555
Li6 O34 2.062002 1_555
Li7 O34 1.973221 1_555
Li7 O41 1.984892 1_555
Li7 O38 1.989240 1_555
Li7 O27 2.062002 1_555
Li8 O32 1.994401 1_555
Li8 O39 2.032435 1_545
Li8 O42 2.115733 1_555
Li8 O2 2.184549 1_555
Li9 O43 2.107143 1_555
Li9 O2 2.226479 1_555
Li9 O40 2.227383 1_555
Li9 O0 2.244004 1_555
Li9 O6 2.321345 1_555
Li9 O34 2.428195 1_555
Mn0 O3 1.960638 1_555
Mn0 O40 1.966797 1_555
Mn0 O44 1.971575 1_545
Mn0 O7 2.004108 1_545
Mn0 O8 2.407016 1_555
Mn0 O39 2.410067 1_545
Mn1 O0 2.103822 1_555
Mn1 O47 2.127790 1_555
Mn1 O46 2.249127 1_555
Mn1 O38 2.277557 1_555
Mn1 O9 2.286069 1_555
Mn1 O1 2.318702 1_555
Mn2 O5 2.146199 1_555
Mn2 O4 2.168036 1_555
Mn2 O1 2.209445 1_555
Mn2 O39 2.238761 1_555
Mn2 O45 2.267335 1_555
Mn2 O38 2.317005 1_555
Mn3 O4 2.138134 1_555
Mn3 O47 2.210305 1_455
Mn3 O45 2.247896 1_555
Mn3 O41 2.251412 1_555
Mn3 O7 2.251611 1_455
Mn3 O13 2.349236 1_455
Mn4 O11 2.146199 1_555
Mn4 O12 2.168036 1_555
Mn4 O18 2.209445 1_555
Mn4 O25 2.238761 1_555
Mn4 O31 2.267335 1_555
Mn4 O26 2.317005 1_555
Mn5 O14 1.960638 1_555
Mn5 O24 1.966797 1_555
Mn5 O33 1.971575 1_565
Mn5 O23 2.004108 1_565
Mn5 O22 2.407016 1_555
Mn5 O25 2.410067 1_565
Mn6 O19 2.103822 1_555
Mn6 O28 2.127790 1_555
Mn6 O29 2.249127 1_555
Mn6 O26 2.277557 1_555
Mn6 O21 2.286069 1_555
Mn6 O18 2.318702 1_555
Mn7 O12 2.138134 1_555
Mn7 O28 2.210305 1_655
Mn7 O31 2.247896 1_555
Mn7 O37 2.251412 1_555
Mn7 O23 2.251611 1_655
Mn7 O20 2.349236 1_655
Mn8 O35 2.157091 1_555
Mn8 O36 2.163322 1_555
Mn8 O29 2.212151 1_655
Mn8 O16 2.231881 1_555
Mn8 O22 2.264507 1_655
Mn8 O21 2.318484 1_655
Mn9 O43 2.157091 1_555
Mn9 O42 2.163322 1_555
Mn9 O46 2.212151 1_455
Mn9 O2 2.231881 1_555
Mn9 O8 2.264507 1_455
Mn9 O9 2.318484 1_455
O0 Se0 1.715094 1_555
O1 Se5 1.721456 1_555
O2 Se1 1.719910 1_555
O3 Se1 1.758569 1_555
O4 Se0 1.758832 1_555
O5 Se1 1.719158 1_565
O6 Se0 1.706316 1_555
O7 Se5 1.784696 1_555
O8 Se4 1.775199 1_555
O9 Se4 1.773772 1_555
O10 Se3 1.706316 1_555
O11 Se2 1.719158 1_545
O12 Se3 1.758832 1_555
O13 Se5 1.719788 1_555
O14 Se2 1.758569 1_555
O15 Se7 1.686004 1_555
O16 Se2 1.719910 1_555
O17 Se4 1.686004 1_555
O18 Se6 1.721456 1_555
O19 Se3 1.715094 1_555
O20 Se6 1.719788 1_555
O21 Se7 1.773772 1_555
O22 Se7 1.775199 1_555
O23 Se6 1.784696 1_555
O24 Se9 1.773414 1_555
O25 Se8 1.777837 1_555
O26 Se8 1.776642 1_555
O27 Se9 1.696152 1_555
O28 Se12 1.755583 1_455
O29 Se9 1.741889 1_555
O30 Se11 1.680100 1_555
O31 Se13 1.751303 1_555
O32 Se8 1.680100 1_555
O33 Se13 1.747620 1_455
O34 Se10 1.696152 1_555
O35 Se12 1.709717 1_555
O36 Se13 1.705075 1_565
O37 Se12 1.725835 1_555
O38 Se11 1.776642 1_555
O39 Se11 1.777837 1_555
O40 Se10 1.773414 1_555
O41 Se15 1.725835 1_555
O42 Se14 1.705075 1_545
O43 Se15 1.709717 1_555
O44 Se14 1.747620 1_655
O45 Se14 1.751303 1_555
O46 Se10 1.741889 1_555
O47 Se15 1.755583 1_655
