# generated using pymatgen
data_LiMnF3
_symmetry_space_group_name_H-M   'P 1'
_cell_length_a   6.24089000
_cell_length_b   6.24089000
_cell_length_c   6.24089000
_cell_angle_alpha   90.00000000
_cell_angle_beta   90.00000000
_cell_angle_gamma   90.00000000
_symmetry_Int_Tables_number   1
_chemical_formula_structural   LiMnF3
_chemical_formula_sum   'Li4 Mn4 F12'
_cell_volume   243.07460222
_cell_formula_units_Z   4
loop_
 _symmetry_equiv_pos_site_id
 _symmetry_equiv_pos_as_xyz
  1  'x, y, z'
loop_
 _atom_site_type_symbol
 _atom_site_label
 _atom_site_symmetry_multiplicity
 _atom_site_fract_x
 _atom_site_fract_y
 _atom_site_fract_z
 _atom_site_occupancy
  Li  Li0  1  0.62965300  0.62965300  0.62965300  1
  Li  Li1  1  0.37034700  0.12965300  0.87034700  1
  Li  Li2  1  0.87034700  0.37034700  0.12965300  1
  Li  Li3  1  0.12965300  0.87034700  0.37034700  1
  Mn  Mn0  1  0.33724900  0.33724900  0.33724900  1
  Mn  Mn1  1  0.16275100  0.66275100  0.83724900  1
  Mn  Mn2  1  0.83724900  0.16275100  0.66275100  1
  Mn  Mn3  1  0.66275100  0.83724900  0.16275100  1
  F  F0  1  0.12607300  0.99039800  0.73445700  1
  F  F1  1  0.00960200  0.23445700  0.37392700  1
  F  F2  1  0.23445700  0.37392700  0.00960200  1
  F  F3  1  0.26554300  0.62607300  0.50960200  1
  F  F4  1  0.49039800  0.76554300  0.87392700  1
  F  F5  1  0.37392700  0.00960200  0.23445700  1
  F  F6  1  0.62607300  0.50960200  0.26554300  1
  F  F7  1  0.50960200  0.26554300  0.62607300  1
  F  F8  1  0.73445700  0.12607300  0.99039800  1
  F  F9  1  0.76554300  0.87392700  0.49039800  1
  F  F10  1  0.99039800  0.73445700  0.12607300  1
  F  F11  1  0.87392700  0.49039800  0.76554300  1
loop_
_geom_bond_atom_site_label_1
_geom_bond_atom_site_label_2
_geom_bond_distance
_geom_bond_site_symmetry_2
F0 Li1 1.948995 1_565
F0 Mn2 2.146237 1_465
F0 Mn1 2.155268 1_555
F0 Li3 2.392803 1_555
F1 Li2 1.948995 1_455
F1 Mn2 2.146237 1_455
F1 Mn0 2.155268 1_555
F1 Li3 2.392803 1_545
F2 Li1 1.948995 1_554
F2 Mn1 2.146237 1_554
F2 Mn0 2.155268 1_555
F2 Li2 2.392803 1_455
F3 Li3 1.948995 1_555
F3 Mn0 2.146237 1_555
F3 Mn1 2.155268 1_555
F3 Li0 2.392803 1_555
F4 Li0 1.948995 1_555
F4 Mn3 2.146237 1_556
F4 Mn1 2.155268 1_555
F4 Li1 2.392803 1_565
F5 Li3 1.948995 1_545
F5 Mn3 2.146237 1_545
F5 Mn0 2.155268 1_555
F5 Li1 2.392803 1_554
F6 Li2 1.948995 1_555
F6 Mn0 2.146237 1_555
F6 Mn3 2.155268 1_555
F6 Li0 2.392803 1_555
F7 Li1 1.948995 1_555
F7 Mn0 2.146237 1_555
F7 Mn2 2.155268 1_555
F7 Li0 2.392803 1_555
F8 Li2 1.948995 1_556
F8 Mn3 2.146237 1_546
F8 Mn2 2.155268 1_555
F8 Li1 2.392803 1_555
F9 Li0 1.948995 1_555
F9 Mn2 2.146237 1_565
F9 Mn3 2.155268 1_555
F9 Li3 2.392803 1_655
F10 Li3 1.948995 1_655
F10 Mn1 2.146237 1_654
F10 Mn3 2.155268 1_555
F10 Li2 2.392803 1_555
F11 Li0 1.948995 1_555
F11 Mn1 2.146237 1_655
F11 Mn2 2.155268 1_555
F11 Li2 2.392803 1_556
