# generated using pymatgen
data_NaCaB5(H5O7)2
_symmetry_space_group_name_H-M   'P 1'
_cell_length_a   12.67095300
_cell_length_b   6.63860700
_cell_length_c   13.60216762
_cell_angle_alpha   80.04285344
_cell_angle_beta   90.00000000
_cell_angle_gamma   90.00000000
_symmetry_Int_Tables_number   1
_chemical_formula_structural   NaCaB5(H5O7)2
_chemical_formula_sum   'Na4 Ca4 B20 H40 O56'
_cell_volume   1126.94564840
_cell_formula_units_Z   4
loop_
 _symmetry_equiv_pos_site_id
 _symmetry_equiv_pos_as_xyz
  1  'x, y, z'
loop_
 _atom_site_type_symbol
 _atom_site_label
 _atom_site_symmetry_multiplicity
 _atom_site_fract_x
 _atom_site_fract_y
 _atom_site_fract_z
 _atom_site_occupancy
  Na  Na0  1  0.99545400  0.88092700  0.82382100  1
  Na  Na1  1  0.49545400  0.11907300  0.67617900  1
  Na  Na2  1  0.00454600  0.11907300  0.17617900  1
  Na  Na3  1  0.50454600  0.88092700  0.32382100  1
  Ca  Ca0  1  0.08719900  0.64972500  0.59360100  1
  Ca  Ca1  1  0.58719900  0.35027500  0.90639900  1
  Ca  Ca2  1  0.91280100  0.35027500  0.40639900  1
  Ca  Ca3  1  0.41280100  0.64972500  0.09360100  1
  B  B0  1  0.74276800  0.66392800  0.44931300  1
  B  B1  1  0.24276800  0.33607200  0.05068700  1
  B  B2  1  0.25723200  0.33607200  0.55068700  1
  B  B3  1  0.75723200  0.66392800  0.94931300  1
  B  B4  1  0.85731500  0.50040700  0.60239100  1
  B  B5  1  0.35731500  0.49959300  0.89760900  1
  B  B6  1  0.14268500  0.49959300  0.39760900  1
  B  B7  1  0.64268500  0.50040700  0.10239100  1
  B  B8  1  0.84949900  0.88011400  0.54502800  1
  B  B9  1  0.34949900  0.11988600  0.95497200  1
  B  B10  1  0.15050100  0.11988600  0.45497200  1
  B  B11  1  0.65050100  0.88011400  0.04502800  1
  B  B12  1  0.93933300  0.14752600  0.63296900  1
  B  B13  1  0.43933300  0.85247400  0.86703100  1
  B  B14  1  0.06066700  0.85247400  0.36703100  1
  B  B15  1  0.56066700  0.14752600  0.13296900  1
  B  B16  1  0.80905400  0.24921400  0.75304200  1
  B  B17  1  0.30905400  0.75078600  0.74695800  1
  B  B18  1  0.19094600  0.75078600  0.24695800  1
  B  B19  1  0.69094600  0.24921400  0.25304200  1
  H  H0  1  0.75217600  0.65313800  0.29710700  1
  H  H1  1  0.25217600  0.34686200  0.20289300  1
  H  H2  1  0.24782400  0.34686200  0.70289300  1
  H  H3  1  0.74782400  0.65313800  0.79710700  1
  H  H4  1  0.60210900  0.52021700  0.43295600  1
  H  H5  1  0.10210900  0.47978300  0.06704400  1
  H  H6  1  0.39789100  0.47978300  0.56704400  1
  H  H7  1  0.89789100  0.52021700  0.93295600  1
  H  H8  1  0.75467900  0.07180600  0.88075200  1
  H  H9  1  0.25467900  0.92819400  0.61924800  1
  H  H10  1  0.24532100  0.92819400  0.11924800  1
  H  H11  1  0.74532100  0.07180600  0.38075200  1
  H  H12  1  0.09847900  0.12753400  0.65991200  1
  H  H13  1  0.59847900  0.87246600  0.84008800  1
  H  H14  1  0.90152100  0.87246600  0.34008800  1
  H  H15  1  0.40152100  0.12753400  0.15991200  1
  H  H16  1  0.14802800  0.54793800  0.79412200  1
  H  H17  1  0.64802800  0.45206200  0.70587800  1
  H  H18  1  0.85197200  0.45206200  0.20587800  1
  H  H19  1  0.35197200  0.54793800  0.29412200  1
  H  H20  1  0.03553000  0.44498200  0.80896900  1
  H  H21  1  0.53553000  0.55501800  0.69103100  1
  H  H22  1  0.96447000  0.55501800  0.19103100  1
  H  H23  1  0.46447000  0.44498200  0.30896900  1
  H  H24  1  0.94238900  0.19856700  0.95162100  1
  H  H25  1  0.44238900  0.80143300  0.54837900  1
  H  H26  1  0.05761100  0.80143300  0.04837900  1
  H  H27  1  0.55761100  0.19856700  0.45162100  1
  H  H28  1  0.06022900  0.24968300  0.95581500  1
  H  H29  1  0.56022900  0.75031700  0.54418500  1
  H  H30  1  0.93977100  0.75031700  0.04418500  1
  H  H31  1  0.43977100  0.24968300  0.45581500  1
  H  H32  1  0.17580800  0.95148800  0.94942400  1
  H  H33  1  0.67580800  0.04851200  0.55057600  1
  H  H34  1  0.82419200  0.04851200  0.05057600  1
  H  H35  1  0.32419200  0.95148800  0.44942400  1
  H  H36  1  0.19555000  0.71688300  0.94736500  1
  H  H37  1  0.69555000  0.28311700  0.55263500  1
  H  H38  1  0.80445000  0.28311700  0.05263500  1
  H  H39  1  0.30445000  0.71688300  0.44736500  1
  O  O0  1  0.79940300  0.67004300  0.35223100  1
  O  O1  1  0.29940300  0.32995700  0.14776900  1
  O  O2  1  0.20059700  0.32995700  0.64776900  1
  O  O3  1  0.70059700  0.67004300  0.85223100  1
  O  O4  1  0.62650500  0.65727400  0.43729900  1
  O  O5  1  0.12650500  0.34272600  0.06270100  1
  O  O6  1  0.37349500  0.34272600  0.56270100  1
  O  O7  1  0.87349500  0.65727400  0.93729900  1
  O  O8  1  0.76258300  0.85991100  0.48514700  1
  O  O9  1  0.26258300  0.14008900  0.01485300  1
  O  O10  1  0.23741700  0.14008900  0.51485300  1
  O  O11  1  0.73741700  0.85991100  0.98514700  1
  O  O12  1  0.78561700  0.48758900  0.51804600  1
  O  O13  1  0.28561700  0.51241100  0.98195400  1
  O  O14  1  0.21438300  0.51241100  0.48195400  1
  O  O15  1  0.71438300  0.48758900  0.01804600  1
  O  O16  1  0.89929800  0.71108900  0.59731500  1
  O  O17  1  0.39929800  0.28891100  0.90268500  1
  O  O18  1  0.10070200  0.28891100  0.40268500  1
  O  O19  1  0.60070200  0.71108900  0.09731500  1
  O  O20  1  0.95169800  0.36984900  0.59974200  1
  O  O21  1  0.45169800  0.63015100  0.90025800  1
  O  O22  1  0.04830200  0.63015100  0.40025800  1
  O  O23  1  0.54830200  0.36984900  0.09974200  1
  O  O24  1  0.79732900  0.44262000  0.69827600  1
  O  O25  1  0.29732900  0.55738000  0.80172400  1
  O  O26  1  0.20267100  0.55738000  0.30172400  1
  O  O27  1  0.70267100  0.44262000  0.19827600  1
  O  O28  1  0.88081500  0.07435600  0.55016700  1
  O  O29  1  0.38081500  0.92564400  0.94983300  1
  O  O30  1  0.11918500  0.92564400  0.44983300  1
  O  O31  1  0.61918500  0.07435600  0.05016700  1
  O  O32  1  0.87308000  0.10353400  0.72610300  1
  O  O33  1  0.37308000  0.89646600  0.77389700  1
  O  O34  1  0.12692000  0.89646600  0.27389700  1
  O  O35  1  0.62692000  0.10353400  0.22610300  1
  O  O36  1  0.74889800  0.21033800  0.84056400  1
  O  O37  1  0.24889800  0.78966200  0.65943600  1
  O  O38  1  0.25110200  0.78966200  0.15943600  1
  O  O39  1  0.75110200  0.21033800  0.34056400  1
  O  O40  1  0.03893200  0.03515700  0.65271700  1
  O  O41  1  0.53893200  0.96484300  0.84728300  1
  O  O42  1  0.96106800  0.96484300  0.34728300  1
  O  O43  1  0.46106800  0.03515700  0.15271700  1
  O  O44  1  0.07228000  0.57025100  0.77640900  1
  O  O45  1  0.57228000  0.42974900  0.72359100  1
  O  O46  1  0.92772000  0.42974900  0.22359100  1
  O  O47  1  0.42772000  0.57025100  0.27640900  1
  O  O48  1  0.00586900  0.21860000  0.90786700  1
  O  O49  1  0.50586900  0.78140000  0.59213300  1
  O  O50  1  0.99413100  0.78140000  0.09213300  1
  O  O51  1  0.49413100  0.21860000  0.40786700  1
  O  O52  1  0.14012500  0.82610100  0.93797700  1
  O  O53  1  0.64012500  0.17389900  0.56202300  1
  O  O54  1  0.85987500  0.17389900  0.06202300  1
  O  O55  1  0.35987500  0.82610100  0.43797700  1
loop_
_geom_bond_atom_site_label_1
_geom_bond_atom_site_label_2
_geom_bond_distance
_geom_bond_site_symmetry_2
Na0 O32 2.382365 1_565
Na0 O52 2.389236 1_655
Na0 O40 2.438126 1_665
Na0 O44 2.465203 1_655
Na0 O7 2.486467 1_555
Na0 O48 2.689926 1_665
Na1 O33 2.382365 1_545
Na1 O53 2.389236 1_555
Na1 O41 2.438126 1_545
Na1 O45 2.465203 1_555
Na1 O6 2.486467 1_555
Na1 O49 2.689926 1_545
Na2 O34 2.382365 1_545
Na2 O54 2.389236 1_455
Na2 O42 2.438126 1_445
Na2 O46 2.465203 1_455
Na2 O5 2.486467 1_555
Na2 O50 2.689926 1_445
Na3 O35 2.382365 1_565
Na3 O55 2.389236 1_555
Na3 O43 2.438126 1_565
Na3 O47 2.465203 1_555
Na3 O4 2.486467 1_555
Na3 O51 2.689926 1_565
Ca0 O16 2.417485 1_455
Ca0 O44 2.458355 1_555
Ca0 O30 2.470811 1_555
Ca0 O37 2.480028 1_555
Ca0 O14 2.492599 1_555
Ca0 O20 2.520567 1_455
Ca0 O2 2.563764 1_555
Ca0 O22 2.700790 1_555
Ca0 O40 2.877371 1_565
Ca1 O17 2.417485 1_555
Ca1 O45 2.458355 1_555
Ca1 O31 2.470811 1_556
Ca1 O36 2.480028 1_555
Ca1 O15 2.492599 1_556
Ca1 O21 2.520567 1_555
Ca1 O3 2.563764 1_555
Ca1 O23 2.700790 1_556
Ca1 O41 2.877371 1_545
Ca2 O18 2.417485 1_655
Ca2 O46 2.458355 1_555
Ca2 O28 2.470811 1_555
Ca2 O39 2.480028 1_555
Ca2 O12 2.492599 1_555
Ca2 O22 2.520567 1_655
Ca2 O0 2.563764 1_555
Ca2 O20 2.700790 1_555
Ca2 O42 2.877371 1_545
Ca3 O19 2.417485 1_555
Ca3 O47 2.458355 1_555
Ca3 O29 2.470811 1_554
Ca3 O38 2.480028 1_555
Ca3 O13 2.492599 1_554
Ca3 O23 2.520567 1_555
Ca3 O1 2.563764 1_555
Ca3 O21 2.700790 1_554
Ca3 O43 2.877371 1_565
B0 O12 1.469957 1_555
B0 O4 1.483699 1_555
B0 O8 1.487503 1_555
B0 O0 1.497289 1_555
B1 O13 1.469957 1_554
B1 O5 1.483699 1_555
B1 O9 1.487503 1_555
B1 O1 1.497289 1_555
B2 O14 1.469957 1_555
B2 O6 1.483699 1_555
B2 O10 1.487503 1_555
B2 O2 1.497289 1_555
B3 O15 1.469957 1_556
B3 O7 1.483699 1_555
B3 O11 1.487503 1_555
B3 O3 1.497289 1_555
B4 O12 1.477356 1_555
B4 O20 1.481060 1_555
B4 O16 1.486788 1_555
B4 O24 1.500970 1_555
B5 O13 1.477356 1_555
B5 O21 1.481060 1_555
B5 O17 1.486788 1_555
B5 O25 1.500970 1_555
B6 O14 1.477356 1_555
B6 O22 1.481060 1_555
B6 O18 1.486788 1_555
B6 O26 1.500970 1_555
B7 O15 1.477356 1_555
B7 O23 1.481060 1_555
B7 O19 1.486788 1_555
B7 O27 1.500970 1_555
B8 O28 1.362465 1_565
B8 O16 1.373715 1_555
B8 O8 1.389991 1_555
B9 O29 1.362465 1_545
B9 O17 1.373715 1_555
B9 O9 1.389991 1_556
B10 O30 1.362465 1_545
B10 O18 1.373715 1_555
B10 O10 1.389991 1_555
B11 O31 1.362465 1_565
B11 O19 1.373715 1_555
B11 O11 1.389991 1_554
B12 O40 1.466975 1_655
B12 O20 1.475282 1_555
B12 O28 1.497818 1_555
B12 O32 1.505633 1_555
B13 O41 1.466975 1_555
B13 O21 1.475282 1_555
B13 O29 1.497818 1_555
B13 O33 1.505633 1_555
B14 O42 1.466975 1_455
B14 O22 1.475282 1_555
B14 O30 1.497818 1_555
B14 O34 1.505633 1_555
B15 O43 1.466975 1_555
B15 O23 1.475282 1_555
B15 O31 1.497818 1_555
B15 O35 1.505633 1_555
B16 O32 1.360253 1_555
B16 O24 1.376501 1_555
B16 O36 1.399507 1_555
B17 O33 1.360253 1_555
B17 O25 1.376501 1_555
B17 O37 1.399507 1_555
B18 O34 1.360253 1_555
B18 O26 1.376501 1_555
B18 O38 1.399507 1_555
B19 O35 1.360253 1_555
B19 O27 1.376501 1_555
B19 O39 1.399507 1_555
H0 O0 0.980816 1_555
H1 O1 0.980816 1_555
H2 O2 0.980816 1_555
H3 O3 0.980816 1_555
H4 O4 0.972364 1_555
H5 O5 0.972364 1_555
H6 O6 0.972364 1_555
H7 O7 0.972364 1_555
H8 O36 0.987980 1_555
H9 O37 0.987980 1_555
H10 O38 0.987980 1_555
H11 O39 0.987980 1_555
H12 O40 0.987781 1_555
H13 O41 0.987781 1_555
H14 O42 0.987781 1_555
H15 O43 0.987781 1_555
H16 O44 0.994416 1_555
H17 O45 0.994416 1_555
H18 O46 0.994416 1_555
H19 O47 0.994416 1_555
H20 O44 0.988531 1_555
H21 O45 0.988531 1_555
H22 O46 0.988531 1_555
H23 O47 0.988531 1_555
H24 O48 0.995741 1_655
H25 O49 0.995741 1_555
H26 O50 0.995741 1_455
H27 O51 0.995741 1_555
H28 O48 0.994443 1_555
H29 O49 0.994443 1_555
H30 O50 0.994443 1_555
H31 O51 0.994443 1_555
H32 O52 0.983044 1_555
H33 O53 0.983044 1_555
H34 O54 0.983044 1_555
H35 O55 0.983044 1_555
H36 O52 1.001599 1_555
H37 O53 1.001599 1_555
H38 O54 1.001599 1_555
H39 O55 1.001599 1_555
