# generated using pymatgen
data_Li9Cu2(HO2)4
_symmetry_space_group_name_H-M   'P 1'
_cell_length_a   5.48216200
_cell_length_b   7.51679500
_cell_length_c   10.83688900
_cell_angle_alpha   90.00000000
_cell_angle_beta   90.00000000
_cell_angle_gamma   90.00000000
_symmetry_Int_Tables_number   1
_chemical_formula_structural   Li9Cu2(HO2)4
_chemical_formula_sum   'Li18 Cu4 H8 O16'
_cell_volume   446.56964197
_cell_formula_units_Z   2
loop_
 _symmetry_equiv_pos_site_id
 _symmetry_equiv_pos_as_xyz
  1  'x, y, z'
loop_
 _atom_site_type_symbol
 _atom_site_label
 _atom_site_symmetry_multiplicity
 _atom_site_fract_x
 _atom_site_fract_y
 _atom_site_fract_z
 _atom_site_occupancy
  Li  Li0  1  0.80519000  0.50000000  0.95017600  1
  Li  Li1  1  0.81244800  0.00000000  0.27611400  1
  Li  Li2  1  0.97261400  0.74974000  0.16145000  1
  Li  Li3  1  0.97261400  0.25026000  0.16145000  1
  Li  Li4  1  0.02738600  0.24974000  0.66145000  1
  Li  Li5  1  0.02738600  0.75026000  0.66145000  1
  Li  Li6  1  0.18755200  0.50000000  0.77611400  1
  Li  Li7  1  0.19481000  0.00000000  0.45017600  1
  Li  Li8  1  0.30173700  0.50000000  0.54417200  1
  Li  Li9  1  0.29901200  0.00000000  0.22819800  1
  Li  Li10  1  0.31961400  0.00000000  0.71920000  1
  Li  Li11  1  0.44839300  0.74594400  0.34003500  1
  Li  Li12  1  0.44839300  0.25405600  0.34003500  1
  Li  Li13  1  0.55160700  0.24594400  0.84003500  1
  Li  Li14  1  0.55160700  0.75405600  0.84003500  1
  Li  Li15  1  0.68038600  0.50000000  0.21920000  1
  Li  Li16  1  0.70098800  0.50000000  0.72819800  1
  Li  Li17  1  0.69826300  0.00000000  0.04417200  1
  Cu  Cu0  1  0.75479400  0.00000000  0.52378800  1
  Cu  Cu1  1  0.24520600  0.50000000  0.02378800  1
  Cu  Cu2  1  0.24035400  0.00000000  0.98078300  1
  Cu  Cu3  1  0.75964600  0.50000000  0.48078300  1
  H  H0  1  0.98467000  0.77683300  0.88261200  1
  H  H1  1  0.98467000  0.22316700  0.88261200  1
  H  H2  1  0.01533000  0.27683300  0.38261200  1
  H  H3  1  0.01533000  0.72316700  0.38261200  1
  H  H4  1  0.49979800  0.76229900  0.60900400  1
  H  H5  1  0.49979800  0.23770100  0.60900400  1
  H  H6  1  0.50020200  0.26229900  0.10900400  1
  H  H7  1  0.50020200  0.73770100  0.10900400  1
  O  O0  1  0.90915300  0.31250700  0.82926600  1
  O  O1  1  0.90915300  0.68749300  0.82926600  1
  O  O2  1  0.97468900  0.50000000  0.60248800  1
  O  O3  1  0.97325700  0.50000000  0.11427100  1
  O  O4  1  0.02674300  0.00000000  0.61427100  1
  O  O5  1  0.02531100  0.00000000  0.10248800  1
  O  O6  1  0.09084700  0.18749300  0.32926600  1
  O  O7  1  0.09084700  0.81250700  0.32926600  1
  O  O8  1  0.40105400  0.70782800  0.67463700  1
  O  O9  1  0.40105400  0.29217200  0.67463700  1
  O  O10  1  0.46751100  0.50000000  0.90491600  1
  O  O11  1  0.50505200  0.50000000  0.37935400  1
  O  O12  1  0.49494800  0.00000000  0.87935400  1
  O  O13  1  0.53248900  0.00000000  0.40491600  1
  O  O14  1  0.59894600  0.79217200  0.17463700  1
  O  O15  1  0.59894600  0.20782800  0.17463700  1
loop_
_geom_bond_atom_site_label_1
_geom_bond_atom_site_label_2
_geom_bond_distance
_geom_bond_site_symmetry_2
Li0 O10 1.915085 1_555
Li0 O3 2.002798 1_556
Li0 O0 2.006974 1_555
Li0 O1 2.006974 1_555
Li1 O13 2.074571 1_555
Li1 O6 2.155785 1_655
Li1 O7 2.155785 1_645
Li1 O5 2.214060 1_655
Li1 O15 2.240482 1_555
Li1 O14 2.240482 1_545
Li2 O3 1.945626 1_555
Li2 O7 1.987473 1_655
Li2 O5 2.007604 1_665
Li2 O14 2.078110 1_555
Li3 O3 1.945626 1_555
Li3 O6 1.987473 1_655
Li3 O5 2.007604 1_655
Li3 O15 2.078110 1_555
Li4 O4 1.945626 1_555
Li4 O0 1.987473 1_455
Li4 O2 2.007604 1_455
Li4 O9 2.078110 1_555
Li5 O4 1.945626 1_565
Li5 O1 1.987473 1_455
Li5 O2 2.007604 1_455
Li5 O8 2.078110 1_555
Li6 O10 2.074571 1_555
Li6 O0 2.155785 1_455
Li6 O1 2.155785 1_455
Li6 O2 2.214060 1_455
Li6 O9 2.240482 1_555
Li6 O8 2.240482 1_555
Li7 O13 1.915085 1_555
Li7 O4 2.002798 1_555
Li7 O7 2.006974 1_545
Li7 O6 2.006974 1_555
Li8 O2 1.901046 1_455
Li8 O11 2.105362 1_555
Li8 O8 2.176200 1_555
Li8 O9 2.176200 1_555
Li9 O5 2.026646 1_555
Li9 O6 2.118533 1_555
Li9 O7 2.118533 1_545
Li9 O13 2.303432 1_555
Li9 O15 2.341165 1_555
Li9 O14 2.341165 1_545
Li10 O4 1.967447 1_555
Li10 O12 1.983968 1_555
Li10 O8 2.292560 1_545
Li10 O9 2.292560 1_555
Li11 O11 1.922438 1_555
Li11 O14 2.003661 1_555
Li11 O7 2.026339 1_555
Li11 O13 2.086579 1_565
Li12 O11 1.922438 1_555
Li12 O15 2.003661 1_555
Li12 O6 2.026339 1_555
Li12 O13 2.086579 1_555
Li13 O12 1.922438 1_555
Li13 O9 2.003661 1_555
Li13 O0 2.026339 1_555
Li13 O10 2.086579 1_555
Li14 O12 1.922438 1_565
Li14 O8 2.003661 1_555
Li14 O1 2.026339 1_555
Li14 O10 2.086579 1_555
Li15 O3 1.967447 1_555
Li15 O11 1.983968 1_555
Li15 O14 2.292560 1_555
Li15 O15 2.292560 1_555
Li16 O2 2.026646 1_555
Li16 O1 2.118533 1_555
Li16 O0 2.118533 1_555
Li16 O10 2.303432 1_555
Li16 O9 2.341165 1_555
Li16 O8 2.341165 1_555
Li17 O5 1.901046 1_655
Li17 O12 2.105362 1_554
Li17 O15 2.176200 1_555
Li17 O14 2.176200 1_545
Cu0 O13 1.773337 1_555
Cu0 O4 1.784426 1_655
Cu1 O10 1.773337 1_554
Cu1 O3 1.784426 1_455
Cu2 O5 1.768986 1_556
Cu2 O12 1.776580 1_555
Cu3 O2 1.768986 1_555
Cu3 O11 1.776580 1_555
H0 O1 0.978048 1_555
H1 O0 0.978048 1_555
H2 O6 0.978048 1_555
H3 O7 0.978048 1_555
H4 O8 0.983145 1_555
H5 O9 0.983145 1_555
H6 O15 0.983145 1_555
H7 O14 0.983145 1_555
