# generated using pymatgen
data_As2HPbF13
_symmetry_space_group_name_H-M   'P 1'
_cell_length_a   10.95541000
_cell_length_b   11.17469100
_cell_length_c   15.99284000
_cell_angle_alpha   90.00000000
_cell_angle_beta   90.00000000
_cell_angle_gamma   90.00000000
_symmetry_Int_Tables_number   1
_chemical_formula_structural   As2HPbF13
_chemical_formula_sum   'As16 H8 Pb8 F104'
_cell_volume   1957.89659347
_cell_formula_units_Z   8
loop_
 _symmetry_equiv_pos_site_id
 _symmetry_equiv_pos_as_xyz
  1  'x, y, z'
loop_
 _atom_site_type_symbol
 _atom_site_label
 _atom_site_symmetry_multiplicity
 _atom_site_fract_x
 _atom_site_fract_y
 _atom_site_fract_z
 _atom_site_occupancy
  As  As0  1  0.00000000  0.25000000  0.34433100  1
  As  As1  1  0.00000000  0.75000000  0.24549700  1
  As  As2  1  0.00000000  0.25000000  0.75450300  1
  As  As3  1  0.00000000  0.75000000  0.65566900  1
  As  As4  1  0.18287200  0.41903900  0.07385700  1
  As  As5  1  0.18287200  0.91903900  0.92614300  1
  As  As6  1  0.31712800  0.91903900  0.42614300  1
  As  As7  1  0.31712800  0.41903900  0.57385700  1
  As  As8  1  0.50000000  0.25000000  0.25450300  1
  As  As9  1  0.50000000  0.25000000  0.84433100  1
  As  As10  1  0.50000000  0.75000000  0.15566900  1
  As  As11  1  0.50000000  0.75000000  0.74549700  1
  As  As12  1  0.68287200  0.58096100  0.42614300  1
  As  As13  1  0.68287200  0.08096100  0.57385700  1
  As  As14  1  0.81712800  0.08096100  0.07385700  1
  As  As15  1  0.81712800  0.58096100  0.92614300  1
  H  H0  1  0.03225000  0.02133900  0.58499600  1
  H  H1  1  0.03225000  0.52133900  0.41500400  1
  H  H2  1  0.46775000  0.02133900  0.08499600  1
  H  H3  1  0.46775000  0.52133900  0.91500400  1
  H  H4  1  0.53225000  0.47866100  0.08499600  1
  H  H5  1  0.53225000  0.97866100  0.91500400  1
  H  H6  1  0.96775000  0.97866100  0.41500400  1
  H  H7  1  0.96775000  0.47866100  0.58499600  1
  Pb  Pb0  1  0.19613000  0.04334300  0.15616500  1
  Pb  Pb1  1  0.19613000  0.54334300  0.84383500  1
  Pb  Pb2  1  0.30387000  0.04334300  0.65616500  1
  Pb  Pb3  1  0.30387000  0.54334300  0.34383500  1
  Pb  Pb4  1  0.69613000  0.95665700  0.34383500  1
  Pb  Pb5  1  0.69613000  0.45665700  0.65616500  1
  Pb  Pb6  1  0.80387000  0.95665700  0.84383500  1
  Pb  Pb7  1  0.80387000  0.45665700  0.15616500  1
  F  F0  1  0.00000000  0.75000000  0.13695200  1
  F  F1  1  0.00000000  0.25000000  0.64619500  1
  F  F2  1  0.00000000  0.75000000  0.35380500  1
  F  F3  1  0.00000000  0.25000000  0.86304800  1
  F  F4  1  0.02040600  0.42624400  0.08924700  1
  F  F5  1  0.02040600  0.92624400  0.91075300  1
  F  F6  1  0.05508900  0.90274400  0.24463800  1
  F  F7  1  0.05508900  0.40274400  0.75536200  1
  F  F8  1  0.07398400  0.16575700  0.26276500  1
  F  F9  1  0.07398400  0.66575700  0.73723500  1
  F  F10  1  0.07250600  0.16133700  0.41901700  1
  F  F11  1  0.07250600  0.66133700  0.58098300  1
  F  F12  1  0.10491200  0.06449700  0.57440700  1
  F  F13  1  0.10491200  0.56449700  0.42559300  1
  F  F14  1  0.12357700  0.35326700  0.34088900  1
  F  F15  1  0.12357700  0.85326700  0.65911100  1
  F  F16  1  0.15366100  0.69607300  0.24726100  1
  F  F17  1  0.15366100  0.19607300  0.75273900  1
  F  F18  1  0.15827100  0.87796300  0.03320100  1
  F  F19  1  0.15827100  0.37796300  0.96679900  1
  F  F20  1  0.15942000  0.40454700  0.56024500  1
  F  F21  1  0.15942000  0.90454700  0.43975500  1
  F  F22  1  0.17382000  0.26354500  0.10195800  1
  F  F23  1  0.17382000  0.76354500  0.89804200  1
  F  F24  1  0.18295700  0.56925100  0.04166100  1
  F  F25  1  0.18295700  0.06925100  0.95833900  1
  F  F26  1  0.20347200  0.45873700  0.18016300  1
  F  F27  1  0.20347200  0.95873700  0.81983700  1
  F  F28  1  0.29652800  0.95873700  0.31983700  1
  F  F29  1  0.29652800  0.45873700  0.68016300  1
  F  F30  1  0.31704300  0.06925100  0.45833900  1
  F  F31  1  0.31704300  0.56925100  0.54166100  1
  F  F32  1  0.32618000  0.26354500  0.60195800  1
  F  F33  1  0.32618000  0.76354500  0.39804200  1
  F  F34  1  0.34058000  0.40454700  0.06024500  1
  F  F35  1  0.34058000  0.90454700  0.93975500  1
  F  F36  1  0.34172900  0.87796300  0.53320100  1
  F  F37  1  0.34172900  0.37796300  0.46679900  1
  F  F38  1  0.34633900  0.19607300  0.25273900  1
  F  F39  1  0.34633900  0.69607300  0.74726100  1
  F  F40  1  0.37642300  0.85326700  0.15911100  1
  F  F41  1  0.37642300  0.35326700  0.84088900  1
  F  F42  1  0.39508800  0.06449700  0.07440700  1
  F  F43  1  0.39508800  0.56449700  0.92559300  1
  F  F44  1  0.42749400  0.66133700  0.08098300  1
  F  F45  1  0.42749400  0.16133700  0.91901700  1
  F  F46  1  0.42601600  0.66575700  0.23723500  1
  F  F47  1  0.42601600  0.16575700  0.76276500  1
  F  F48  1  0.44491100  0.40274400  0.25536200  1
  F  F49  1  0.44491100  0.90274400  0.74463800  1
  F  F50  1  0.47959400  0.92624400  0.41075300  1
  F  F51  1  0.47959400  0.42624400  0.58924700  1
  F  F52  1  0.50000000  0.25000000  0.36304800  1
  F  F53  1  0.50000000  0.25000000  0.14619500  1
  F  F54  1  0.50000000  0.75000000  0.63695200  1
  F  F55  1  0.50000000  0.75000000  0.85380500  1
  F  F56  1  0.52040600  0.57375600  0.41075300  1
  F  F57  1  0.52040600  0.07375600  0.58924700  1
  F  F58  1  0.55508900  0.09725600  0.25536200  1
  F  F59  1  0.55508900  0.59725600  0.74463800  1
  F  F60  1  0.57398400  0.33424300  0.76276500  1
  F  F61  1  0.57398400  0.83424300  0.23723500  1
  F  F62  1  0.57250600  0.33866300  0.91901700  1
  F  F63  1  0.57250600  0.83866300  0.08098300  1
  F  F64  1  0.60491200  0.43550300  0.07440700  1
  F  F65  1  0.60491200  0.93550300  0.92559300  1
  F  F66  1  0.62357700  0.64673300  0.15911100  1
  F  F67  1  0.62357700  0.14673300  0.84088900  1
  F  F68  1  0.65366100  0.30392700  0.25273900  1
  F  F69  1  0.65366100  0.80392700  0.74726100  1
  F  F70  1  0.65827100  0.12203700  0.46679900  1
  F  F71  1  0.65827100  0.62203700  0.53320100  1
  F  F72  1  0.65942000  0.09545300  0.06024500  1
  F  F73  1  0.65942000  0.59545300  0.93975500  1
  F  F74  1  0.67382000  0.73645500  0.39804200  1
  F  F75  1  0.67382000  0.23645500  0.60195800  1
  F  F76  1  0.68295700  0.43074900  0.45833900  1
  F  F77  1  0.68295700  0.93074900  0.54166100  1
  F  F78  1  0.70347200  0.54126300  0.31983700  1
  F  F79  1  0.70347200  0.04126300  0.68016300  1
  F  F80  1  0.79652800  0.04126300  0.18016300  1
  F  F81  1  0.79652800  0.54126300  0.81983700  1
  F  F82  1  0.81704300  0.93074900  0.04166100  1
  F  F83  1  0.81704300  0.43074900  0.95833900  1
  F  F84  1  0.82618000  0.23645500  0.10195800  1
  F  F85  1  0.82618000  0.73645500  0.89804200  1
  F  F86  1  0.84058000  0.59545300  0.43975500  1
  F  F87  1  0.84058000  0.09545300  0.56024500  1
  F  F88  1  0.84172900  0.62203700  0.03320100  1
  F  F89  1  0.84172900  0.12203700  0.96679900  1
  F  F90  1  0.84633900  0.30392700  0.75273900  1
  F  F91  1  0.84633900  0.80392700  0.24726100  1
  F  F92  1  0.87642300  0.14673300  0.34088900  1
  F  F93  1  0.87642300  0.64673300  0.65911100  1
  F  F94  1  0.89508800  0.93550300  0.42559300  1
  F  F95  1  0.89508800  0.43550300  0.57440700  1
  F  F96  1  0.92749400  0.33866300  0.41901700  1
  F  F97  1  0.92749400  0.83866300  0.58098300  1
  F  F98  1  0.92601600  0.33424300  0.26276500  1
  F  F99  1  0.92601600  0.83424300  0.73723500  1
  F  F100  1  0.94491100  0.59725600  0.24463800  1
  F  F101  1  0.94491100  0.09725600  0.75536200  1
  F  F102  1  0.97959400  0.57375600  0.91075300  1
  F  F103  1  0.97959400  0.07375600  0.08924700  1
loop_
_geom_bond_atom_site_label_1
_geom_bond_atom_site_label_2
_geom_bond_distance
_geom_bond_site_symmetry_2
As0 F96 1.743360 1_455
As0 F10 1.743360 1_555
As0 F14 1.779766 1_555
As0 F92 1.779766 1_455
As0 F8 1.801336 1_555
As0 F98 1.801336 1_455
As1 F2 1.732153 1_555
As1 F0 1.735943 1_555
As1 F91 1.788252 1_455
As1 F16 1.788252 1_555
As1 F6 1.810476 1_555
As1 F100 1.810476 1_455
As2 F1 1.732153 1_555
As2 F3 1.735943 1_555
As2 F17 1.788252 1_555
As2 F90 1.788252 1_455
As2 F7 1.810476 1_555
As2 F101 1.810476 1_455
As3 F97 1.743360 1_455
As3 F11 1.743360 1_555
As3 F15 1.779766 1_555
As3 F93 1.779766 1_455
As3 F99 1.801336 1_455
As3 F9 1.801336 1_555
As4 F34 1.748930 1_555
As4 F24 1.755772 1_555
As4 F26 1.771492 1_555
As4 F19 1.792994 1_554
As4 F22 1.797513 1_555
As4 F4 1.798622 1_555
As5 F35 1.748930 1_555
As5 F25 1.755772 1_565
As5 F27 1.771492 1_555
As5 F18 1.792994 1_556
As5 F23 1.797513 1_555
As5 F5 1.798622 1_555
As6 F21 1.748930 1_555
As6 F30 1.755772 1_565
As6 F28 1.771492 1_555
As6 F36 1.792994 1_555
As6 F33 1.797513 1_555
As6 F50 1.798622 1_555
As7 F20 1.748930 1_555
As7 F31 1.755772 1_555
As7 F29 1.771492 1_555
As7 F37 1.792994 1_555
As7 F32 1.797513 1_555
As7 F51 1.798622 1_555
As8 F53 1.732153 1_555
As8 F52 1.735943 1_555
As8 F68 1.788252 1_555
As8 F38 1.788252 1_555
As8 F58 1.810476 1_555
As8 F48 1.810476 1_555
As9 F62 1.743360 1_555
As9 F45 1.743360 1_555
As9 F67 1.779766 1_555
As9 F41 1.779766 1_555
As9 F60 1.801336 1_555
As9 F47 1.801336 1_555
As10 F63 1.743360 1_555
As10 F44 1.743360 1_555
As10 F66 1.779766 1_555
As10 F40 1.779766 1_555
As10 F61 1.801336 1_555
As10 F46 1.801336 1_555
As11 F55 1.732153 1_555
As11 F54 1.735943 1_555
As11 F69 1.788252 1_555
As11 F39 1.788252 1_555
As11 F59 1.810476 1_555
As11 F49 1.810476 1_555
As12 F86 1.748930 1_555
As12 F76 1.755772 1_555
As12 F78 1.771492 1_555
As12 F71 1.792994 1_555
As12 F74 1.797513 1_555
As12 F56 1.798622 1_555
As13 F87 1.748930 1_555
As13 F77 1.755772 1_545
As13 F79 1.771492 1_555
As13 F70 1.792994 1_555
As13 F75 1.797513 1_555
As13 F57 1.798622 1_555
As14 F72 1.748930 1_555
As14 F82 1.755772 1_545
As14 F80 1.771492 1_555
As14 F89 1.792994 1_554
As14 F84 1.797513 1_555
As14 F103 1.798622 1_555
As15 F73 1.748930 1_555
As15 F83 1.755772 1_555
As15 F81 1.771492 1_555
As15 F88 1.792994 1_556
As15 F85 1.797513 1_555
As15 F102 1.798622 1_555
F4 Pb7 2.624571 1_455
F5 Pb6 2.624571 1_455
F6 Pb0 2.618793 1_565
F7 Pb1 2.618793 1_555
F8 Pb0 2.562888 1_555
F9 Pb1 2.562888 1_555
F12 H0 0.946020 1_555
F12 Pb2 2.552742 1_555
F13 H1 0.946020 1_555
F13 Pb3 2.552742 1_555
F18 Pb0 2.730327 1_565
F19 Pb1 2.730327 1_555
F22 Pb0 2.620360 1_555
F23 Pb1 2.620360 1_555
F32 Pb2 2.620360 1_555
F33 Pb3 2.620360 1_555
F36 Pb2 2.730327 1_565
F37 Pb3 2.730327 1_555
F42 H2 0.946020 1_555
F42 Pb0 2.552742 1_555
F43 H3 0.946020 1_555
F43 Pb1 2.552742 1_555
F46 Pb3 2.562888 1_555
F47 Pb2 2.562888 1_555
F48 Pb3 2.618793 1_555
F49 Pb2 2.618793 1_565
F50 Pb4 2.624571 1_555
F51 Pb5 2.624571 1_555
F56 Pb3 2.624571 1_555
F57 Pb2 2.624571 1_555
F58 Pb4 2.618793 1_545
F59 Pb5 2.618793 1_555
F60 Pb5 2.562888 1_555
F61 Pb4 2.562888 1_555
F64 H4 0.946020 1_555
F64 Pb7 2.552742 1_555
F65 H5 0.946020 1_555
F65 Pb6 2.552742 1_555
F70 Pb4 2.730327 1_545
F71 Pb5 2.730327 1_555
F74 Pb4 2.620360 1_555
F75 Pb5 2.620360 1_555
F84 Pb7 2.620360 1_555
F85 Pb6 2.620360 1_555
F88 Pb7 2.730327 1_555
F89 Pb6 2.730327 1_545
F94 H6 0.946020 1_555
F94 Pb4 2.552742 1_555
F95 H7 0.946020 1_555
F95 Pb5 2.552742 1_555
F98 Pb7 2.562888 1_555
F99 Pb6 2.562888 1_555
F100 Pb7 2.618793 1_555
F101 Pb6 2.618793 1_545
F102 Pb1 2.624571 1_655
F103 Pb0 2.624571 1_655
