# generated using pymatgen
data_LaTa2NO5
_symmetry_space_group_name_H-M   'P 1'
_cell_length_a   5.52936300
_cell_length_b   7.74117530
_cell_length_c   11.30557777
_cell_angle_alpha   89.96804612
_cell_angle_beta   89.99773971
_cell_angle_gamma   89.98393889
_symmetry_Int_Tables_number   1
_chemical_formula_structural   LaTa2NO5
_chemical_formula_sum   'La4 Ta8 N4 O20'
_cell_volume   483.92123663
_cell_formula_units_Z   4
loop_
 _symmetry_equiv_pos_site_id
 _symmetry_equiv_pos_as_xyz
  1  'x, y, z'
loop_
 _atom_site_type_symbol
 _atom_site_label
 _atom_site_symmetry_multiplicity
 _atom_site_fract_x
 _atom_site_fract_y
 _atom_site_fract_z
 _atom_site_occupancy
  La  La0  1  0.55334100  0.75241100  0.96062400  1
  La  La1  1  0.04528600  0.24763200  0.54290500  1
  La  La2  1  0.95193500  0.75422800  0.46166100  1
  La  La3  1  0.44834800  0.24757200  0.03708600  1
  Ta  Ta0  1  0.03747700  0.99773000  0.85846200  1
  Ta  Ta1  1  0.03906400  0.50425700  0.85655500  1
  Ta  Ta2  1  0.54169500  0.00290200  0.64285300  1
  Ta  Ta3  1  0.53890700  0.49645100  0.64329700  1
  Ta  Ta4  1  0.44670900  0.00089400  0.35355100  1
  Ta  Ta5  1  0.45742900  0.49643500  0.35723000  1
  Ta  Ta6  1  0.96512100  0.49291800  0.14159800  1
  Ta  Ta7  1  0.96466800  0.99601800  0.14886200  1
  N  N0  1  0.95374800  0.74966400  0.85410000  1
  N  N1  1  0.45190600  0.25095200  0.64306700  1
  N  N2  1  0.12982800  0.94113400  0.29253000  1
  N  N3  1  0.04445100  0.25162600  0.14503400  1
  O  O0  1  0.76644200  0.03686600  0.97177800  1
  O  O1  1  0.77192600  0.46466100  0.97657000  1
  O  O2  1  0.15279800  0.25053400  0.87800100  1
  O  O3  1  0.37201300  0.55567200  0.78888800  1
  O  O4  1  0.37175700  0.94489700  0.78866400  1
  O  O5  1  0.87333200  0.05700200  0.71041100  1
  O  O6  1  0.87197400  0.44378400  0.71001500  1
  O  O7  1  0.64972200  0.74960000  0.62083700  1
  O  O8  1  0.27171200  0.53693700  0.52172500  1
  O  O9  1  0.27229700  0.96326300  0.52422600  1
  O  O10  1  0.72850100  0.03345600  0.47877200  1
  O  O11  1  0.72879100  0.46659500  0.47459700  1
  O  O12  1  0.35775500  0.25219100  0.37810500  1
  O  O13  1  0.54989800  0.74890300  0.35749900  1
  O  O14  1  0.13490700  0.55876700  0.28894700  1
  O  O15  1  0.62635300  0.05368400  0.21111000  1
  O  O16  1  0.62842400  0.44854000  0.21297100  1
  O  O17  1  0.84386600  0.75106000  0.12112700  1
  O  O18  1  0.23038500  0.53613500  0.02324600  1
  O  O19  1  0.22723700  0.96462900  0.02309400  1
loop_
_geom_bond_atom_site_label_1
_geom_bond_atom_site_label_2
_geom_bond_distance
_geom_bond_site_symmetry_2
La0 O17 2.423548 1_556
La0 O0 2.500995 1_565
La0 N0 2.520396 1_555
La0 O19 2.539394 1_556
La0 O1 2.540319 1_555
La0 O18 2.548216 1_556
La0 O4 2.646515 1_555
La0 O3 2.664355 1_555
La1 N1 2.517600 1_555
La1 O10 2.519093 1_455
La1 O12 2.541151 1_555
La1 O9 2.542652 1_545
La1 O11 2.555202 1_455
La1 O8 2.577092 1_555
La1 O5 2.581769 1_455
La1 O6 2.606843 1_455
La2 O7 2.455988 1_555
La2 O10 2.497001 1_565
La2 O9 2.501929 1_655
La2 O13 2.516058 1_555
La2 O8 2.532606 1_655
La2 O11 2.550049 1_555
La2 N2 2.591285 1_655
La2 O14 2.669849 1_655
La3 O2 2.430244 1_554
La3 O0 2.509759 1_554
La3 O19 2.513792 1_545
La3 O18 2.542643 1_555
La3 N3 2.545149 1_555
La3 O1 2.548278 1_554
La3 O15 2.662401 1_555
La3 O16 2.714821 1_555
N0 Ta1 1.957488 1_655
N0 Ta0 1.976111 1_655
N1 Ta3 1.960525 1_555
N1 Ta2 1.983211 1_555
N2 Ta7 1.910973 1_455
N2 Ta4 1.939298 1_565
N3 Ta6 1.918950 1_455
N3 Ta7 2.027845 1_445
O0 Ta0 1.994741 1_645
O0 Ta7 2.304077 1_546
O1 Ta1 2.028899 1_655
O1 Ta6 2.161183 1_556
O2 Ta0 2.070372 1_545
O2 Ta1 2.076248 1_555
O3 Ta3 1.942042 1_555
O3 Ta1 2.032950 1_555
O4 Ta2 1.949701 1_565
O4 Ta0 2.050902 1_555
O5 Ta0 1.958301 1_645
O5 Ta2 2.030335 1_555
O6 Ta1 1.954147 1_655
O6 Ta3 2.031301 1_555
O7 Ta2 2.064842 1_565
O7 Ta3 2.068898 1_555
O8 Ta3 2.041935 1_555
O8 Ta5 2.147479 1_555
O9 Ta2 2.027958 1_565
O9 Ta4 2.176595 1_565
O10 Ta4 2.120447 1_555
O10 Ta2 2.136235 1_555
O11 Ta5 2.016191 1_555
O11 Ta3 2.189427 1_555
O12 Ta5 1.983533 1_555
O12 Ta4 2.025677 1_555
O13 Ta5 2.020315 1_555
O13 Ta4 2.032751 1_565
O14 Ta6 1.979306 1_455
O14 Ta5 2.002073 1_555
O15 Ta4 1.935552 1_555
O15 Ta7 2.047855 1_545
O16 Ta5 1.921384 1_555
O16 Ta6 2.057926 1_555
O17 Ta7 2.035114 1_555
O17 Ta6 2.120170 1_555
O18 Ta6 2.013261 1_455
O18 Ta1 2.175390 1_554
O19 Ta7 2.046619 1_455
O19 Ta0 2.151824 1_554
