# generated using pymatgen
data_Na5LiFe2P2(CO7)2
_symmetry_space_group_name_H-M   'P 1'
_cell_length_a   6.60764800
_cell_length_b   8.98739100
_cell_length_c   10.38563990
_cell_angle_alpha   88.93684089
_cell_angle_beta   90.00000000
_cell_angle_gamma   90.00000000
_symmetry_Int_Tables_number   1
_chemical_formula_structural   Na5LiFe2P2(CO7)2
_chemical_formula_sum   'Na10 Li2 Fe4 P4 C4 O28'
_cell_volume   616.65041082
_cell_formula_units_Z   2
loop_
 _symmetry_equiv_pos_site_id
 _symmetry_equiv_pos_as_xyz
  1  'x, y, z'
loop_
 _atom_site_type_symbol
 _atom_site_label
 _atom_site_symmetry_multiplicity
 _atom_site_fract_x
 _atom_site_fract_y
 _atom_site_fract_z
 _atom_site_occupancy
  Na  Na0  1  0.24999400  0.08250000  0.62938000  1
  Na  Na1  1  0.25220800  0.08329300  0.13104900  1
  Na  Na2  1  0.00195200  0.25973700  0.37471400  1
  Na  Na3  1  0.00058200  0.26105000  0.87464300  1
  Na  Na4  1  0.49873000  0.26082000  0.87449600  1
  Na  Na5  1  0.50195200  0.74026300  0.62528600  1
  Na  Na6  1  0.50058200  0.73895000  0.12535700  1
  Na  Na7  1  0.99873000  0.73918000  0.12550400  1
  Na  Na8  1  0.74999400  0.91750000  0.37062000  1
  Na  Na9  1  0.75220800  0.91670700  0.86895100  1
  Li  Li0  1  0.49585900  0.26987700  0.37206200  1
  Li  Li1  1  0.99585900  0.73012300  0.62793800  1
  Fe  Fe0  1  0.74933500  0.35530100  0.64130100  1
  Fe  Fe1  1  0.74800600  0.35471300  0.14406900  1
  Fe  Fe2  1  0.24933500  0.64469900  0.35869900  1
  Fe  Fe3  1  0.24800600  0.64528700  0.85593100  1
  P  P0  1  0.24904600  0.41478000  0.59813700  1
  P  P1  1  0.24926300  0.41361700  0.10162100  1
  P  P2  1  0.74904600  0.58522000  0.40186300  1
  P  P3  1  0.74926300  0.58638300  0.89837900  1
  C  C0  1  0.75375200  0.05648100  0.61491000  1
  C  C1  1  0.74934200  0.05993300  0.11648600  1
  C  C2  1  0.25375200  0.94351900  0.38509000  1
  C  C3  1  0.24934200  0.94006700  0.88351400  1
  O  O0  1  0.26801200  0.08741000  0.39166400  1
  O  O1  1  0.24982300  0.08350500  0.89119100  1
  O  O2  1  0.74958800  0.12039500  0.72664500  1
  O  O3  1  0.74912200  0.12285400  0.22847500  1
  O  O4  1  0.74338700  0.13937800  0.51085700  1
  O  O5  1  0.74895900  0.14312200  0.01251300  1
  O  O6  1  0.06161800  0.31789300  0.63769400  1
  O  O7  1  0.43690500  0.32475300  0.64681800  1
  O  O8  1  0.06057600  0.31898600  0.14247500  1
  O  O9  1  0.43607000  0.31821000  0.14536500  1
  O  O10  1  0.26142700  0.42807300  0.44798100  1
  O  O11  1  0.73615500  0.42834000  0.34337400  1
  O  O12  1  0.25073300  0.43326500  0.95199400  1
  O  O13  1  0.74956000  0.43284600  0.83557400  1
  O  O14  1  0.23615500  0.57166000  0.65662600  1
  O  O15  1  0.76142700  0.57192700  0.55201900  1
  O  O16  1  0.24956000  0.56715400  0.16442600  1
  O  O17  1  0.75073300  0.56673500  0.04800600  1
  O  O18  1  0.56161800  0.68210700  0.36230600  1
  O  O19  1  0.93690500  0.67524700  0.35318200  1
  O  O20  1  0.56057600  0.68101400  0.85752500  1
  O  O21  1  0.93607000  0.68179000  0.85463500  1
  O  O22  1  0.24338700  0.86062200  0.48914300  1
  O  O23  1  0.24895900  0.85687800  0.98748700  1
  O  O24  1  0.24958800  0.87960500  0.27335500  1
  O  O25  1  0.24912200  0.87714600  0.77152500  1
  O  O26  1  0.76801200  0.91259000  0.60833600  1
  O  O27  1  0.74982300  0.91649500  0.10880900  1
loop_
_geom_bond_atom_site_label_1
_geom_bond_atom_site_label_2
_geom_bond_distance
_geom_bond_site_symmetry_2
Na0 O25 2.341905 1_545
Na0 O6 2.457478 1_555
Na0 O0 2.471278 1_555
Na0 O22 2.491462 1_545
Na0 O7 2.512580 1_555
Na0 O1 2.719258 1_555
Na1 O24 2.331391 1_545
Na1 O9 2.442801 1_555
Na1 O8 2.472612 1_555
Na1 O1 2.491094 1_554
Na1 O23 2.544959 1_544
Na1 O0 2.709606 1_555
Na2 O11 2.338448 1_455
Na2 O0 2.347388 1_555
Na2 O10 2.418713 1_555
Na2 O4 2.455920 1_455
Na2 O8 2.490672 1_555
Na2 O3 2.584653 1_455
Na2 O6 2.818001 1_555
Na3 O13 2.297061 1_455
Na3 O1 2.297342 1_555
Na3 O12 2.412297 1_555
Na3 O5 2.425202 1_456
Na3 O6 2.536308 1_555
Na3 O2 2.604457 1_455
Na3 O8 2.866941 1_556
Na4 O1 2.294422 1_555
Na4 O13 2.297279 1_555
Na4 O12 2.404441 1_555
Na4 O5 2.418906 1_556
Na4 O7 2.457208 1_555
Na4 O2 2.601945 1_555
Na4 O9 2.899156 1_556
Na5 O14 2.338448 1_555
Na5 O26 2.347388 1_555
Na5 O15 2.418713 1_555
Na5 O22 2.455920 1_555
Na5 O20 2.490672 1_555
Na5 O25 2.584653 1_555
Na5 O18 2.818001 1_555
Na6 O16 2.297061 1_555
Na6 O27 2.297342 1_555
Na6 O17 2.412297 1_555
Na6 O23 2.425202 1_554
Na6 O18 2.536308 1_555
Na6 O24 2.604457 1_555
Na6 O20 2.866941 1_554
Na7 O27 2.294422 1_555
Na7 O16 2.297279 1_655
Na7 O17 2.404441 1_555
Na7 O23 2.418906 1_654
Na7 O19 2.457208 1_555
Na7 O24 2.601945 1_655
Na7 O21 2.899156 1_554
Na8 O3 2.341905 1_565
Na8 O18 2.457478 1_555
Na8 O26 2.471278 1_555
Na8 O4 2.491462 1_565
Na8 O19 2.512580 1_555
Na8 O27 2.719258 1_555
Na9 O2 2.331391 1_565
Na9 O21 2.442801 1_555
Na9 O20 2.472612 1_555
Na9 O27 2.491094 1_556
Na9 O5 2.544959 1_566
Na9 O26 2.709606 1_555
Li0 O11 2.149968 1_555
Li0 O0 2.232703 1_555
Li0 O10 2.254827 1_555
Li0 O9 2.418674 1_555
Li0 O4 2.462883 1_555
Li0 O3 2.615992 1_555
Li1 O14 2.149968 1_655
Li1 O26 2.232703 1_555
Li1 O15 2.254827 1_555
Li1 O21 2.418674 1_555
Li1 O22 2.462883 1_655
Li1 O25 2.615992 1_655
Fe0 O7 2.083251 1_555
Fe0 O6 2.091113 1_655
Fe0 O15 2.142339 1_555
Fe0 O13 2.146812 1_555
Fe0 O2 2.274492 1_555
Fe0 O4 2.387531 1_555
Fe1 O9 2.087113 1_555
Fe1 O8 2.090276 1_655
Fe1 O17 2.134516 1_555
Fe1 O11 2.186173 1_555
Fe1 O3 2.245655 1_555
Fe1 O5 2.362095 1_555
Fe2 O19 2.083251 1_455
Fe2 O18 2.091113 1_555
Fe2 O10 2.142339 1_555
Fe2 O16 2.146812 1_555
Fe2 O24 2.274492 1_555
Fe2 O22 2.387531 1_555
Fe3 O21 2.087113 1_455
Fe3 O20 2.090276 1_555
Fe3 O12 2.134516 1_555
Fe3 O14 2.186173 1_555
Fe3 O25 2.245655 1_555
Fe3 O23 2.362095 1_555
C0 O26 1.299690 1_545
C0 O4 1.302958 1_555
C0 O2 1.304635 1_555
C1 O27 1.293076 1_545
C1 O5 1.301943 1_555
C1 O3 1.302668 1_555
C2 O0 1.299690 1_565
C2 O22 1.302958 1_555
C2 O24 1.304635 1_555
C3 O1 1.293076 1_565
C3 O23 1.301943 1_555
C3 O25 1.302668 1_555
O6 P0 1.564451 1_555
O7 P0 1.560747 1_555
O8 P1 1.563462 1_555
O9 P1 1.565507 1_555
O10 P0 1.563965 1_555
O11 P2 1.547890 1_555
O12 P1 1.560744 1_556
O13 P3 1.537198 1_555
O14 P0 1.547890 1_555
O15 P2 1.563965 1_555
O16 P1 1.537198 1_555
O17 P3 1.560744 1_554
O18 P2 1.564451 1_555
O19 P2 1.560747 1_555
O20 P3 1.563462 1_555
O21 P3 1.565507 1_555
