# generated using pymatgen
data_Li2MnF4
_symmetry_space_group_name_H-M   'P 1'
_cell_length_a   3.00681600
_cell_length_b   9.18006600
_cell_length_c   10.36827800
_cell_angle_alpha   90.00000000
_cell_angle_beta   90.00000000
_cell_angle_gamma   90.00000000
_symmetry_Int_Tables_number   1
_chemical_formula_structural   Li2MnF4
_chemical_formula_sum   'Li8 Mn4 F16'
_cell_volume   286.19318598
_cell_formula_units_Z   4
loop_
 _symmetry_equiv_pos_site_id
 _symmetry_equiv_pos_as_xyz
  1  'x, y, z'
loop_
 _atom_site_type_symbol
 _atom_site_label
 _atom_site_symmetry_multiplicity
 _atom_site_fract_x
 _atom_site_fract_y
 _atom_site_fract_z
 _atom_site_occupancy
  Li  Li0  1  0.75000000  0.07344600  0.38656800  1
  Li  Li1  1  0.75000000  0.06594100  0.88400600  1
  Li  Li2  1  0.25000000  0.43405900  0.38400600  1
  Li  Li3  1  0.25000000  0.42655400  0.88656800  1
  Li  Li4  1  0.75000000  0.57344600  0.11343200  1
  Li  Li5  1  0.75000000  0.56594100  0.61599400  1
  Li  Li6  1  0.25000000  0.93405900  0.11599400  1
  Li  Li7  1  0.25000000  0.92655400  0.61343200  1
  Mn  Mn0  1  0.75000000  0.25025600  0.65412600  1
  Mn  Mn1  1  0.25000000  0.24974400  0.15412600  1
  Mn  Mn2  1  0.75000000  0.75025600  0.84587400  1
  Mn  Mn3  1  0.25000000  0.74974400  0.34587400  1
  F  F0  1  0.25000000  0.03012100  0.27833900  1
  F  F1  1  0.75000000  0.09642800  0.06972700  1
  F  F2  1  0.25000000  0.12812000  0.53927100  1
  F  F3  1  0.25000000  0.21415500  0.80875000  1
  F  F4  1  0.75000000  0.28584500  0.30875000  1
  F  F5  1  0.75000000  0.37188000  0.03927100  1
  F  F6  1  0.25000000  0.40357200  0.56972700  1
  F  F7  1  0.75000000  0.46987900  0.77833900  1
  F  F8  1  0.25000000  0.53012100  0.22166100  1
  F  F9  1  0.75000000  0.59642800  0.43027300  1
  F  F10  1  0.25000000  0.62812000  0.96072900  1
  F  F11  1  0.25000000  0.71415500  0.69125000  1
  F  F12  1  0.75000000  0.78584500  0.19125000  1
  F  F13  1  0.75000000  0.87188000  0.46072900  1
  F  F14  1  0.25000000  0.90357200  0.93027300  1
  F  F15  1  0.75000000  0.96987900  0.72166100  1
loop_
_geom_bond_atom_site_label_1
_geom_bond_atom_site_label_2
_geom_bond_distance
_geom_bond_site_symmetry_2
F0 Li6 1.900253 1_545
F0 Li0 1.917717 1_455
F0 Li0 1.917717 1_555
F0 Mn1 2.392383 1_555
F0 Mn3 2.667427 1_545
F1 Li1 1.945839 1_554
F1 Li6 2.170742 1_545
F1 Li6 2.170742 1_645
F1 Mn1 2.237612 1_555
F1 Mn1 2.237612 1_655
F2 Li7 2.003792 1_545
F2 Mn0 2.221595 1_555
F2 Mn0 2.221595 1_455
F2 Li0 2.240287 1_555
F2 Li0 2.240287 1_455
F3 Li3 2.110178 1_555
F3 Li1 2.172633 1_455
F3 Li1 2.172633 1_555
F3 Mn0 2.222672 1_555
F3 Mn0 2.222672 1_455
F4 Li0 2.110178 1_555
F4 Li2 2.172633 1_555
F4 Li2 2.172633 1_655
F4 Mn1 2.222672 1_655
F4 Mn1 2.222672 1_555
F5 Li4 2.003792 1_555
F5 Mn1 2.221595 1_655
F5 Mn1 2.221595 1_555
F5 Li3 2.240287 1_554
F5 Li3 2.240287 1_654
F6 Li2 1.945839 1_555
F6 Li5 2.170742 1_455
F6 Li5 2.170742 1_555
F6 Mn0 2.237612 1_455
F6 Mn0 2.237612 1_555
F7 Li5 1.900253 1_555
F7 Li3 1.917717 1_555
F7 Li3 1.917717 1_655
F7 Mn0 2.392383 1_555
F7 Mn2 2.667427 1_555
F8 Li2 1.900253 1_555
F8 Li4 1.917717 1_455
F8 Li4 1.917717 1_555
F8 Mn3 2.392383 1_555
F8 Mn1 2.667427 1_555
F9 Li5 1.945839 1_555
F9 Li2 2.170742 1_655
F9 Li2 2.170742 1_555
F9 Mn3 2.237612 1_655
F9 Mn3 2.237612 1_555
F10 Li3 2.003792 1_555
F10 Mn2 2.221595 1_555
F10 Mn2 2.221595 1_455
F10 Li4 2.240287 1_456
F10 Li4 2.240287 1_556
F11 Li7 2.110178 1_555
F11 Li5 2.172633 1_455
F11 Li5 2.172633 1_555
F11 Mn2 2.222672 1_455
F11 Mn2 2.222672 1_555
F12 Li4 2.110178 1_555
F12 Li6 2.172633 1_555
F12 Li6 2.172633 1_655
F12 Mn3 2.222672 1_555
F12 Mn3 2.222672 1_655
F13 Li0 2.003792 1_565
F13 Mn3 2.221595 1_555
F13 Mn3 2.221595 1_655
F13 Li7 2.240287 1_655
F13 Li7 2.240287 1_555
F14 Li6 1.945839 1_556
F14 Li1 2.170742 1_565
F14 Li1 2.170742 1_465
F14 Mn2 2.237612 1_555
F14 Mn2 2.237612 1_455
F15 Li1 1.900253 1_565
F15 Li7 1.917717 1_555
F15 Li7 1.917717 1_655
F15 Mn2 2.392383 1_555
F15 Mn0 2.667427 1_565
