# generated using pymatgen
data_Sn2N2O
_symmetry_space_group_name_H-M   'P 1'
_cell_length_a   6.45457842
_cell_length_b   6.45457842
_cell_length_c   15.80929800
_cell_angle_alpha   90.00000000
_cell_angle_beta   90.00000000
_cell_angle_gamma   120.00000427
_symmetry_Int_Tables_number   1
_chemical_formula_structural   Sn2N2O
_chemical_formula_sum   'Sn16 N16 O8'
_cell_volume   570.39927086
_cell_formula_units_Z   8
loop_
 _symmetry_equiv_pos_site_id
 _symmetry_equiv_pos_as_xyz
  1  'x, y, z'
loop_
 _atom_site_type_symbol
 _atom_site_label
 _atom_site_symmetry_multiplicity
 _atom_site_fract_x
 _atom_site_fract_y
 _atom_site_fract_z
 _atom_site_occupancy
  Sn  Sn0  1  0.66666700  0.33333300  0.95507100  1
  Sn  Sn1  1  0.66666700  0.33333300  0.33137800  1
  Sn  Sn2  1  0.50000000  0.00000000  0.50000000  1
  Sn  Sn3  1  0.83190000  0.16810000  0.16521500  1
  Sn  Sn4  1  0.66380100  0.83190000  0.83478500  1
  Sn  Sn5  1  0.16810000  0.33619900  0.83478500  1
  Sn  Sn6  1  0.00000000  0.00000000  0.62867800  1
  Sn  Sn7  1  0.50000000  0.50000000  0.50000000  1
  Sn  Sn8  1  0.00000000  0.00000000  0.37132200  1
  Sn  Sn9  1  0.00000000  0.00000000  0.00000000  1
  Sn  Sn10  1  0.83190000  0.66380100  0.16521500  1
  Sn  Sn11  1  0.33619900  0.16810000  0.16521500  1
  Sn  Sn12  1  0.16810000  0.83190000  0.83478500  1
  Sn  Sn13  1  0.00000000  0.50000000  0.50000000  1
  Sn  Sn14  1  0.33333300  0.66666700  0.66862200  1
  Sn  Sn15  1  0.33333300  0.66666700  0.04492900  1
  N  N0  1  0.66666700  0.33333300  0.08855900  1
  N  N1  1  0.82150100  0.17849900  0.41762100  1
  N  N2  1  0.84525600  0.15474400  0.91270300  1
  N  N3  1  0.17849900  0.35699800  0.58237900  1
  N  N4  1  0.64300200  0.82150100  0.58237900  1
  N  N5  1  0.69051300  0.84525600  0.08729700  1
  N  N6  1  0.15474400  0.30948700  0.08729700  1
  N  N7  1  0.00000000  0.00000000  0.76138700  1
  N  N8  1  0.00000000  0.00000000  0.23861300  1
  N  N9  1  0.84525600  0.69051300  0.91270300  1
  N  N10  1  0.30948700  0.15474400  0.91270300  1
  N  N11  1  0.82150100  0.64300200  0.41762100  1
  N  N12  1  0.35699800  0.17849900  0.41762100  1
  N  N13  1  0.15474400  0.84525600  0.08729700  1
  N  N14  1  0.17849900  0.82150100  0.58237900  1
  N  N15  1  0.33333300  0.66666700  0.91144100  1
  O  O0  1  0.52319400  0.47680600  0.24249100  1
  O  O1  1  0.66666700  0.33333300  0.56366000  1
  O  O2  1  0.52319400  0.04638900  0.24249100  1
  O  O3  1  0.95361100  0.47680600  0.24249100  1
  O  O4  1  0.04638900  0.52319400  0.75750900  1
  O  O5  1  0.47680600  0.95361100  0.75750900  1
  O  O6  1  0.33333300  0.66666700  0.43634000  1
  O  O7  1  0.47680600  0.52319400  0.75750900  1
loop_
_geom_bond_atom_site_label_1
_geom_bond_atom_site_label_2
_geom_bond_distance
_geom_bond_site_symmetry_2
N0 Sn0 2.110352 1_554
N0 Sn3 2.209293 1_555
N0 Sn11 2.209302 1_555
N0 Sn10 2.209302 1_555
N1 Sn8 2.125561 1_655
N1 Sn1 2.203475 1_555
N1 Sn2 2.222374 1_555
N1 Sn13 2.222374 1_655
N2 Sn0 2.105923 1_555
N2 Sn5 2.188803 1_655
N2 Sn4 2.188803 1_545
N2 Sn9 2.213038 1_656
N3 Sn6 2.125561 1_555
N3 Sn14 2.203479 1_555
N3 Sn7 2.222374 1_555
N3 Sn13 2.222374 1_555
N4 Sn6 2.125561 1_665
N4 Sn14 2.203479 1_555
N4 Sn7 2.222374 1_555
N4 Sn2 2.222374 1_565
N5 Sn15 2.105933 1_555
N5 Sn10 2.188794 1_555
N5 Sn3 2.188803 1_565
N5 Sn9 2.213033 1_665
N6 Sn15 2.105933 1_555
N6 Sn11 2.188794 1_555
N6 Sn3 2.188803 1_455
N6 Sn9 2.213033 1_555
N7 Sn6 2.098036 1_555
N7 Sn4 2.208667 1_445
N7 Sn5 2.208667 1_555
N7 Sn12 2.208672 1_545
N8 Sn8 2.098036 1_555
N8 Sn10 2.208667 1_445
N8 Sn11 2.208667 1_555
N8 Sn3 2.208672 1_455
N9 Sn0 2.105933 1_555
N9 Sn4 2.188794 1_555
N9 Sn12 2.188803 1_655
N9 Sn9 2.213033 1_666
N10 Sn0 2.105933 1_555
N10 Sn5 2.188794 1_555
N10 Sn12 2.188803 1_545
N10 Sn9 2.213033 1_556
N11 Sn8 2.125561 1_665
N11 Sn1 2.203479 1_555
N11 Sn7 2.222374 1_555
N11 Sn13 2.222374 1_655
N12 Sn8 2.125561 1_555
N12 Sn1 2.203479 1_555
N12 Sn7 2.222374 1_555
N12 Sn2 2.222374 1_555
N13 Sn15 2.105923 1_555
N13 Sn11 2.188803 1_565
N13 Sn10 2.188803 1_455
N13 Sn9 2.213038 1_565
N14 Sn6 2.125561 1_565
N14 Sn14 2.203475 1_555
N14 Sn2 2.222374 1_565
N14 Sn13 2.222374 1_555
N15 Sn15 2.110352 1_556
N15 Sn12 2.209293 1_555
N15 Sn4 2.209302 1_555
N15 Sn5 2.209302 1_555
O0 Sn10 2.124767 1_555
O0 Sn11 2.124767 1_555
O0 Sn1 2.132475 1_555
O1 Sn2 2.117704 1_555
O1 Sn13 2.117704 1_655
O1 Sn7 2.117710 1_555
O2 Sn3 2.124767 1_555
O2 Sn11 2.124767 1_555
O2 Sn1 2.132467 1_555
O3 Sn3 2.124767 1_555
O3 Sn10 2.124767 1_555
O3 Sn1 2.132467 1_555
O4 Sn12 2.124767 1_555
O4 Sn5 2.124767 1_555
O4 Sn14 2.132467 1_555
O5 Sn12 2.124767 1_555
O5 Sn4 2.124767 1_555
O5 Sn14 2.132467 1_555
O6 Sn13 2.117704 1_555
O6 Sn2 2.117704 1_565
O6 Sn7 2.117710 1_555
O7 Sn4 2.124767 1_555
O7 Sn5 2.124767 1_555
O7 Sn14 2.132475 1_555
