# generated using pymatgen
data_FeS4Br4N5
_symmetry_space_group_name_H-M   'P 1'
_cell_length_a   10.05176711
_cell_length_b   10.05176711
_cell_length_c   12.05006924
_cell_angle_alpha   89.00740772
_cell_angle_beta   89.00740772
_cell_angle_gamma   138.39926203
_symmetry_Int_Tables_number   1
_chemical_formula_structural   FeS4Br4N5
_chemical_formula_sum   'Fe2 S8 Br8 N10'
_cell_volume   807.38957118
_cell_formula_units_Z   2
loop_
 _symmetry_equiv_pos_site_id
 _symmetry_equiv_pos_as_xyz
  1  'x, y, z'
loop_
 _atom_site_type_symbol
 _atom_site_label
 _atom_site_symmetry_multiplicity
 _atom_site_fract_x
 _atom_site_fract_y
 _atom_site_fract_z
 _atom_site_occupancy
  Fe  Fe0  1  0.92878900  0.56104800  0.80305300  1
  Fe  Fe1  1  0.56104800  0.92878900  0.30305300  1
  S  S0  1  0.25552200  0.35965900  0.11342000  1
  S  S1  1  0.35965900  0.25552200  0.61342000  1
  S  S2  1  0.59697900  0.46327300  0.09427200  1
  S  S3  1  0.46327300  0.59697900  0.59427200  1
  S  S4  1  0.36059700  0.28152300  0.28706700  1
  S  S5  1  0.28152300  0.36059700  0.78706700  1
  S  S6  1  0.21967300  0.06121100  0.10029100  1
  S  S7  1  0.06121100  0.21967300  0.60029100  1
  Br  Br0  1  0.16837200  0.63438100  0.90391400  1
  Br  Br1  1  0.63438100  0.16837200  0.40391400  1
  Br  Br2  1  0.09139500  0.67273600  0.59270200  1
  Br  Br3  1  0.67273600  0.09139500  0.09270200  1
  Br  Br4  1  0.63992600  0.22176700  0.79165200  1
  Br  Br5  1  0.22176700  0.63992600  0.29165200  1
  Br  Br6  1  0.89958100  0.76378000  0.82823700  1
  Br  Br7  1  0.76378000  0.89958100  0.32823700  1
  N  N0  1  0.69695900  0.98205400  0.99077200  1
  N  N1  1  0.98205400  0.69695900  0.49077200  1
  N  N2  1  0.48469800  0.51807800  0.06249100  1
  N  N3  1  0.51807800  0.48469800  0.56249100  1
  N  N4  1  0.58509600  0.44119000  0.22895100  1
  N  N5  1  0.44119000  0.58509600  0.72895100  1
  N  N6  1  0.23208100  0.06589700  0.23477600  1
  N  N7  1  0.06589700  0.23208100  0.73477600  1
  N  N8  1  0.13080700  0.14092900  0.06809900  1
  N  N9  1  0.14092900  0.13080700  0.56809900  1
loop_
_geom_bond_atom_site_label_1
_geom_bond_atom_site_label_2
_geom_bond_distance
_geom_bond_site_symmetry_2
Br0 Fe0 2.301658 1_455
Br1 Fe1 2.301658 1_545
Br2 N1 1.792347 1_455
Br2 Fe0 2.714838 1_455
Br3 N0 1.792347 1_544
Br3 Fe1 2.714838 1_545
Br4 Fe0 2.302323 1_555
Br5 Fe1 2.302323 1_555
Br6 Fe0 2.290000 1_555
Br7 Fe1 2.290000 1_555
N2 S0 1.627879 1_555
N2 S2 1.631398 1_555
N3 S1 1.627879 1_555
N3 S3 1.631398 1_555
N4 S2 1.624335 1_555
N4 S4 1.627354 1_555
N5 S3 1.624335 1_555
N5 S5 1.627354 1_555
N6 S6 1.626293 1_555
N6 S4 1.628367 1_555
N7 S7 1.626293 1_555
N7 S5 1.628367 1_555
N8 S0 1.626934 1_555
N8 S6 1.631631 1_555
N9 S1 1.626934 1_555
N9 S7 1.631631 1_555
