# generated using pymatgen
data_Li3Mn4(BO3)4
_symmetry_space_group_name_H-M   'P 1'
_cell_length_a   9.08967300
_cell_length_b   9.12175508
_cell_length_c   10.38581839
_cell_angle_alpha   88.45017295
_cell_angle_beta   88.66351661
_cell_angle_gamma   60.34795743
_symmetry_Int_Tables_number   1
_chemical_formula_structural   Li3Mn4(BO3)4
_chemical_formula_sum   'Li9 Mn12 B12 O36'
_cell_volume   748.03645450
_cell_formula_units_Z   3
loop_
 _symmetry_equiv_pos_site_id
 _symmetry_equiv_pos_as_xyz
  1  'x, y, z'
loop_
 _atom_site_type_symbol
 _atom_site_label
 _atom_site_symmetry_multiplicity
 _atom_site_fract_x
 _atom_site_fract_y
 _atom_site_fract_z
 _atom_site_occupancy
  Li  Li0  1  0.61506400  0.60940200  0.09390000  1
  Li  Li1  1  0.71289600  0.72940900  0.31959200  1
  Li  Li2  1  0.74806500  0.69086200  0.85065900  1
  Li  Li3  1  0.94131900  0.94779400  0.60332300  1
  Li  Li4  1  0.03563700  0.07811300  0.35454900  1
  Li  Li5  1  0.05754900  0.04261200  0.82160600  1
  Li  Li6  1  0.28687400  0.27940200  0.58554200  1
  Li  Li7  1  0.36578200  0.40193300  0.32483300  1
  Li  Li8  1  0.40294700  0.38030200  0.84122500  1
  Mn  Mn0  1  0.25686100  0.96322800  0.11943900  1
  Mn  Mn1  1  0.39443200  0.72716000  0.86528600  1
  Mn  Mn2  1  0.60988900  0.90592900  0.61528800  1
  Mn  Mn3  1  0.69126300  0.39925800  0.37536600  1
  Mn  Mn4  1  0.98035200  0.59995700  0.11636200  1
  Mn  Mn5  1  0.92708100  0.31316500  0.62171100  1
  Mn  Mn6  1  0.05041700  0.74076900  0.36666900  1
  Mn  Mn7  1  0.07770600  0.36509300  0.87956800  1
  Mn  Mn8  1  0.29976700  0.61052200  0.61216400  1
  Mn  Mn9  1  0.38701900  0.05691200  0.36103700  1
  Mn  Mn10  1  0.60400500  0.26573300  0.11967600  1
  Mn  Mn11  1  0.71300000  0.03863600  0.86712800  1
  B  B0  1  0.26791800  0.96011900  0.62079200  1
  B  B1  1  0.38379300  0.72993600  0.36898500  1
  B  B2  1  0.61466500  0.92995400  0.11152700  1
  B  B3  1  0.72684600  0.38162400  0.86907000  1
  B  B4  1  0.91817600  0.30030100  0.13872700  1
  B  B5  1  0.96597500  0.59941600  0.63207900  1
  B  B6  1  0.04964900  0.40431600  0.37542500  1
  B  B7  1  0.06657200  0.71707100  0.86932200  1
  B  B8  1  0.27834800  0.62296900  0.12231800  1
  B  B9  1  0.39077900  0.05023800  0.87436500  1
  B  B10  1  0.61850100  0.25498400  0.63292300  1
  B  B11  1  0.71677300  0.05369000  0.38199900  1
  O  O0  1  0.27531300  0.90014600  0.34100600  1
  O  O1  1  0.28072100  0.98808200  0.90625600  1
  O  O2  1  0.36121200  0.70820200  0.07782400  1
  O  O3  1  0.36244200  0.79193600  0.66082800  1
  O  O4  1  0.55551300  0.65857900  0.36485500  1
  O  O5  1  0.56158100  0.93391900  0.84290800  1
  O  O6  1  0.64772500  0.94861400  0.40941200  1
  O  O7  1  0.64958500  0.55010500  0.89264100  1
  O  O8  1  0.71269700  0.75837800  0.12540300  1
  O  O9  1  0.71297200  0.32333000  0.57772700  1
  O  O10  1  0.74607600  0.38484300  0.17056600  1
  O  O11  1  0.79903000  0.67360300  0.66361600  1
  O  O12  1  0.88607400  0.99361100  0.40461600  1
  O  O13  1  0.89247900  0.29647900  0.81427800  1
  O  O14  1  0.96655600  0.56291500  0.31097900  1
  O  O15  1  0.98861600  0.62706600  0.92366800  1
  O  O16  1  0.94629300  0.34273600  0.42951700  1
  O  O17  1  0.97209600  0.88758900  0.84877000  1
  O  O18  1  0.01891700  0.13658200  0.17136500  1
  O  O19  1  0.04290300  0.68474400  0.57694600  1
  O  O20  1  0.98478200  0.39034600  0.07198700  1
  O  O21  1  0.06473800  0.42279500  0.65992100  1
  O  O22  1  0.10308300  0.71984400  0.15412100  1
  O  O23  1  0.09339400  0.04623900  0.62932800  1
  O  O24  1  0.22072500  0.31788200  0.38789800  1
  O  O25  1  0.23595700  0.62300600  0.83382400  1
  O  O26  1  0.31255100  0.62677100  0.40270200  1
  O  O27  1  0.33468000  0.21821800  0.87166700  1
  O  O28  1  0.35721700  0.45248100  0.13879500  1
  O  O29  1  0.35544100  0.04197300  0.57733200  1
  O  O30  1  0.45140900  0.01710700  0.15942100  1
  O  O31  1  0.44687000  0.35079700  0.64229800  1
  O  O32  1  0.61123900  0.21740800  0.33453600  1
  O  O33  1  0.64745100  0.28784600  0.90140500  1
  O  O34  1  0.68331300  0.02545300  0.05256100  1
  O  O35  1  0.70348500  0.08447400  0.67558800  1
loop_
_geom_bond_atom_site_label_1
_geom_bond_atom_site_label_2
_geom_bond_distance
_geom_bond_site_symmetry_2
Li0 O10 1.946884 1_555
Li0 O8 1.993027 1_555
Li0 O2 2.028928 1_555
Li0 O7 2.150059 1_554
Li1 O4 1.884586 1_555
Li1 O8 2.026877 1_555
Li1 O6 2.030365 1_555
Li1 O14 2.040498 1_555
Li2 O7 1.930976 1_555
Li2 O11 1.978753 1_555
Li2 O5 2.018285 1_555
Li2 O15 2.118722 1_555
Li3 O23 2.012183 1_665
Li3 O35 2.024666 1_565
Li3 O12 2.116569 1_555
Li3 O19 2.125242 1_655
Li4 O12 1.922214 1_445
Li4 O18 1.950773 1_555
Li4 O0 1.974841 1_545
Li4 O16 2.285790 1_455
Li5 O17 1.933272 1_445
Li5 O23 2.017885 1_555
Li5 O13 2.043881 1_455
Li5 O1 2.048546 1_545
Li6 O21 1.937324 1_555
Li6 O29 1.938604 1_555
Li6 O31 1.970913 1_555
Li6 O24 2.123220 1_555
Li7 O24 1.920446 1_555
Li7 O28 1.968553 1_555
Li7 O32 2.026494 1_555
Li7 O26 2.045484 1_555
Li8 O27 1.882626 1_555
Li8 O25 1.970380 1_555
Li8 O33 2.054979 1_555
Li8 O31 2.094171 1_555
Mn0 O18 2.019123 1_565
Mn0 O2 2.085685 1_555
Mn0 O30 2.108643 1_565
Mn0 O1 2.235997 1_554
Mn0 O0 2.346366 1_555
Mn1 O7 2.089911 1_555
Mn1 O25 2.115960 1_555
Mn1 O1 2.124677 1_555
Mn1 O3 2.175709 1_555
Mn1 O2 2.234623 1_556
Mn2 O11 2.019024 1_555
Mn2 O29 2.054461 1_565
Mn2 O6 2.212443 1_555
Mn2 O35 2.284619 1_565
Mn2 O5 2.391628 1_555
Mn3 O4 2.057710 1_555
Mn3 O10 2.165777 1_555
Mn3 O32 2.169522 1_555
Mn3 O9 2.177403 1_555
Mn3 O16 2.195092 1_555
Mn4 O20 1.959710 1_555
Mn4 O22 1.960858 1_655
Mn4 O15 2.014083 1_554
Mn4 O14 2.051471 1_555
Mn4 O8 2.129332 1_555
Mn5 O9 1.966092 1_555
Mn5 O21 2.001472 1_655
Mn5 O16 2.022093 1_555
Mn5 O13 2.030643 1_555
Mn5 O23 2.138489 1_655
Mn6 O12 2.078185 1_455
Mn6 O26 2.113680 1_555
Mn6 O14 2.200574 1_455
Mn6 O19 2.236617 1_555
Mn6 O22 2.240910 1_555
Mn7 O27 2.039179 1_555
Mn7 O20 2.124584 1_456
Mn7 O15 2.168675 1_455
Mn7 O13 2.192052 1_455
Mn7 O21 2.319714 1_555
Mn8 O3 2.076026 1_555
Mn8 O31 2.084144 1_555
Mn8 O19 2.122699 1_555
Mn8 O26 2.180778 1_555
Mn8 O25 2.352803 1_555
Mn9 O24 2.117860 1_555
Mn9 O6 2.134551 1_545
Mn9 O0 2.140493 1_545
Mn9 O30 2.152369 1_555
Mn9 O29 2.267011 1_555
Mn10 O28 2.046902 1_555
Mn10 O34 2.074911 1_555
Mn10 O10 2.139781 1_555
Mn10 O32 2.259020 1_555
Mn10 O33 2.312553 1_554
Mn11 O34 1.947204 1_556
Mn11 O35 2.016649 1_555
Mn11 O5 2.049393 1_545
Mn11 O17 2.064892 1_545
Mn11 O33 2.083995 1_555
B0 O23 1.380461 1_565
B0 O3 1.393766 1_555
B0 O29 1.395311 1_565
B1 O4 1.361973 1_555
B1 O0 1.393371 1_555
B1 O26 1.414956 1_555
B2 O8 1.370448 1_555
B2 O30 1.378837 1_565
B2 O34 1.419299 1_565
B3 O7 1.363606 1_555
B3 O33 1.396181 1_555
B3 O13 1.421504 1_555
B4 O18 1.348207 1_655
B4 O10 1.395419 1_555
B4 O20 1.401182 1_555
B5 O11 1.356717 1_555
B5 O19 1.385054 1_655
B5 O21 1.428628 1_655
B6 O24 1.359142 1_555
B6 O16 1.412165 1_455
B6 O14 1.414723 1_455
B7 O17 1.367955 1_455
B7 O25 1.387861 1_555
B7 O15 1.423600 1_455
B8 O28 1.360114 1_555
B8 O2 1.388916 1_555
B8 O22 1.423462 1_555
B9 O27 1.354216 1_555
B9 O1 1.402692 1_545
B9 O5 1.417056 1_545
B10 O31 1.362187 1_555
B10 O9 1.393590 1_555
B10 O35 1.414941 1_555
B11 O12 1.378088 1_545
B11 O32 1.399351 1_555
B11 O6 1.402062 1_545
