# generated using pymatgen
data_Rb2SnO3
_symmetry_space_group_name_H-M   'P 1'
_cell_length_a   6.51978062
_cell_length_b   6.51978062
_cell_length_c   5.78056369
_cell_angle_alpha   90.00000000
_cell_angle_beta   90.00000000
_cell_angle_gamma   110.13046297
_symmetry_Int_Tables_number   1
_chemical_formula_structural   Rb2SnO3
_chemical_formula_sum   'Rb4 Sn2 O6'
_cell_volume   230.70699844
_cell_formula_units_Z   2
loop_
 _symmetry_equiv_pos_site_id
 _symmetry_equiv_pos_as_xyz
  1  'x, y, z'
loop_
 _atom_site_type_symbol
 _atom_site_label
 _atom_site_symmetry_multiplicity
 _atom_site_fract_x
 _atom_site_fract_y
 _atom_site_fract_z
 _atom_site_occupancy
  Rb  Rb0  1  0.48119727  0.80242542  0.25234451  1
  Rb  Rb1  1  0.19757458  0.51880273  0.75234451  1
  Rb  Rb2  1  0.51880273  0.19757458  0.75234451  1
  Rb  Rb3  1  0.80242542  0.48119727  0.25234451  1
  Sn  Sn0  1  0.91341046  0.91341046  0.73881808  1
  Sn  Sn1  1  0.08658954  0.08658954  0.23881808  1
  O  O0  1  0.13499279  0.88458606  0.49391911  1
  O  O1  1  0.11541394  0.86500721  0.99391911  1
  O  O2  1  0.65434556  0.65434556  0.70865169  1
  O  O3  1  0.34565444  0.34565444  0.20865169  1
  O  O4  1  0.86500721  0.11541394  0.99391911  1
  O  O5  1  0.88458606  0.13499279  0.49391911  1
loop_
_geom_bond_atom_site_label_1
_geom_bond_atom_site_label_2
_geom_bond_distance
_geom_bond_site_symmetry_2
O0 Sn1 2.072374 1_565
O0 Sn0 2.076857 1_455
O0 Rb0 2.857284 1_555
O0 Rb1 2.958923 1_555
O0 Rb2 3.023687 1_565
O0 Rb3 3.105347 1_455
O1 Sn0 2.072374 1_455
O1 Sn1 2.076857 1_566
O1 Rb1 2.857284 1_555
O1 Rb0 2.958923 1_556
O1 Rb3 3.023687 1_456
O1 Rb2 3.105347 1_565
O2 Sn0 1.942286 1_555
O2 Rb2 2.811055 1_555
O2 Rb1 2.811055 1_555
O2 Rb0 3.148681 1_555
O2 Rb3 3.148681 1_555
O3 Sn1 1.942286 1_555
O3 Rb0 2.811055 1_555
O3 Rb3 2.811055 1_555
O3 Rb1 3.148681 1_554
O3 Rb2 3.148681 1_554
O4 Sn0 2.072374 1_545
O4 Sn1 2.076857 1_656
O4 Rb2 2.857284 1_555
O4 Rb3 2.958923 1_556
O4 Rb0 3.023687 1_546
O4 Rb1 3.105347 1_655
O5 Sn1 2.072374 1_655
O5 Sn0 2.076857 1_545
O5 Rb3 2.857284 1_555
O5 Rb2 2.958923 1_555
O5 Rb1 3.023687 1_655
O5 Rb0 3.105347 1_545
