# generated using pymatgen
data_Ba2LaCl7
_symmetry_space_group_name_H-M   'P 1'
_cell_length_a   14.21327600
_cell_length_b   7.29198300
_cell_length_c   12.46936485
_cell_angle_alpha   87.43564524
_cell_angle_beta   90.00000000
_cell_angle_gamma   90.00000000
_symmetry_Int_Tables_number   1
_chemical_formula_structural   Ba2LaCl7
_chemical_formula_sum   'Ba8 La4 Cl28'
_cell_volume   1291.06779506
_cell_formula_units_Z   4
loop_
 _symmetry_equiv_pos_site_id
 _symmetry_equiv_pos_as_xyz
  1  'x, y, z'
loop_
 _atom_site_type_symbol
 _atom_site_label
 _atom_site_symmetry_multiplicity
 _atom_site_fract_x
 _atom_site_fract_y
 _atom_site_fract_z
 _atom_site_occupancy
  Ba  Ba0  1  0.53512200  0.76900600  0.73077900  1
  Ba  Ba1  1  0.14286700  0.72410800  0.61881400  1
  Ba  Ba2  1  0.77910300  0.73893500  0.12019300  1
  Ba  Ba3  1  0.37856800  0.70676800  0.21544400  1
  Ba  Ba4  1  0.87856800  0.29323200  0.78455600  1
  Ba  Ba5  1  0.27910300  0.26106500  0.87980700  1
  Ba  Ba6  1  0.64286700  0.27589200  0.38118600  1
  Ba  Ba7  1  0.03512200  0.23099400  0.26922100  1
  La  La0  1  0.84763300  0.80516200  0.54281100  1
  La  La1  1  0.07301800  0.78480200  0.03453500  1
  La  La2  1  0.57301800  0.21519800  0.96546500  1
  La  La3  1  0.34763300  0.19483800  0.45718900  1
  Cl  Cl0  1  0.69893100  0.95810700  0.88649800  1
  Cl  Cl1  1  0.42859000  0.95016200  0.97885000  1
  Cl  Cl2  1  0.50691800  0.97106800  0.50062800  1
  Cl  Cl3  1  0.15597600  0.89816600  0.84729600  1
  Cl  Cl4  1  0.24153800  0.89810300  0.38955200  1
  Cl  Cl5  1  0.76879400  0.90573100  0.34987900  1
  Cl  Cl6  1  0.92245300  0.80368900  0.74928300  1
  Cl  Cl7  1  0.00365000  0.78146300  0.24439300  1
  Cl  Cl8  1  0.33400500  0.60259200  0.72156700  1
  Cl  Cl9  1  0.58971600  0.60643700  0.21655900  1
  Cl  Cl10  1  0.69928900  0.56959600  0.60554200  1
  Cl  Cl11  1  0.70491200  0.48500900  0.90212600  1
  Cl  Cl12  1  0.96177900  0.49731300  0.53893100  1
  Cl  Cl13  1  0.44019400  0.48871700  0.98801100  1
  Cl  Cl14  1  0.94019400  0.51128300  0.01198900  1
  Cl  Cl15  1  0.46177900  0.50268700  0.46106900  1
  Cl  Cl16  1  0.20491200  0.51499100  0.09787400  1
  Cl  Cl17  1  0.19928900  0.43040400  0.39445800  1
  Cl  Cl18  1  0.08971600  0.39356300  0.78344100  1
  Cl  Cl19  1  0.83400500  0.39740800  0.27843300  1
  Cl  Cl20  1  0.50365000  0.21853700  0.75560700  1
  Cl  Cl21  1  0.42245300  0.19631100  0.25071700  1
  Cl  Cl22  1  0.26879400  0.09426900  0.65012100  1
  Cl  Cl23  1  0.74153800  0.10189700  0.61044800  1
  Cl  Cl24  1  0.65597600  0.10183400  0.15270400  1
  Cl  Cl25  1  0.00691800  0.02893200  0.49937200  1
  Cl  Cl26  1  0.92859000  0.04983800  0.02115000  1
  Cl  Cl27  1  0.19893100  0.04189300  0.11350200  1
loop_
_geom_bond_atom_site_label_1
_geom_bond_atom_site_label_2
_geom_bond_distance
_geom_bond_site_symmetry_2
Ba0 Cl8 3.109570 1_555
Ba0 Cl2 3.192066 1_555
Ba0 Cl10 3.193867 1_555
Ba0 Cl20 3.336443 1_565
Ba0 Cl0 3.366316 1_555
Ba0 Cl1 3.737885 1_555
Ba0 Cl11 3.779099 1_555
Ba1 Cl8 3.115389 1_555
Ba1 Cl3 3.175874 1_555
Ba1 Cl18 3.186157 1_555
Ba1 Cl12 3.240267 1_455
Ba1 Cl25 3.255211 1_565
Ba1 Cl22 3.276571 1_565
Ba1 Cl4 3.380015 1_555
Ba1 Cl6 3.589205 1_455
Ba1 Cl17 3.686801 1_555
Ba2 Cl9 3.085343 1_555
Ba2 Cl5 3.164683 1_555
Ba2 Cl14 3.165277 1_555
Ba2 Cl19 3.203854 1_555
Ba2 Cl24 3.213351 1_565
Ba2 Cl26 3.305871 1_565
Ba2 Cl0 3.453626 1_554
Ba2 Cl11 3.519208 1_554
Ba2 Cl7 3.567013 1_655
Ba3 Cl9 3.088878 1_555
Ba3 Cl16 3.221864 1_555
Ba3 Cl4 3.274797 1_555
Ba3 Cl13 3.426583 1_554
Ba3 Cl1 3.448260 1_554
Ba3 Cl15 3.547704 1_555
Ba3 Cl21 3.669612 1_565
Ba3 Cl27 3.718688 1_565
Ba3 Cl21 3.780359 1_555
Ba3 Cl17 3.890292 1_555
Ba4 Cl18 3.088878 1_655
Ba4 Cl11 3.221864 1_555
Ba4 Cl23 3.274797 1_555
Ba4 Cl14 3.426583 1_556
Ba4 Cl26 3.448260 1_556
Ba4 Cl12 3.547704 1_555
Ba4 Cl6 3.669612 1_545
Ba4 Cl0 3.718688 1_545
Ba4 Cl6 3.780359 1_555
Ba4 Cl10 3.890292 1_555
Ba5 Cl18 3.085343 1_555
Ba5 Cl22 3.164683 1_555
Ba5 Cl13 3.165277 1_555
Ba5 Cl8 3.203854 1_555
Ba5 Cl3 3.213351 1_545
Ba5 Cl1 3.305871 1_545
Ba5 Cl27 3.453626 1_556
Ba5 Cl16 3.519208 1_556
Ba5 Cl20 3.567013 1_555
Ba6 Cl19 3.115389 1_555
Ba6 Cl24 3.175874 1_555
Ba6 Cl9 3.186157 1_555
Ba6 Cl15 3.240267 1_555
Ba6 Cl2 3.255211 1_545
Ba6 Cl5 3.276571 1_545
Ba6 Cl23 3.380015 1_555
Ba6 Cl21 3.589205 1_555
Ba6 Cl10 3.686801 1_555
Ba7 Cl19 3.109570 1_455
Ba7 Cl25 3.192066 1_555
Ba7 Cl17 3.193867 1_555
Ba7 Cl7 3.336443 1_545
Ba7 Cl27 3.366316 1_555
Ba7 Cl26 3.737885 1_455
Ba7 Cl16 3.779099 1_555
Cl0 La2 2.802153 1_565
Cl1 La2 2.819229 1_565
Cl2 La3 2.828844 1_565
Cl3 La1 2.711456 1_556
Cl4 La3 2.798306 1_565
Cl5 La0 2.724549 1_555
Cl6 La0 2.785135 1_555
Cl7 La1 2.795461 1_555
Cl10 La0 2.808531 1_555
Cl11 La2 2.805337 1_555
Cl12 La0 2.771906 1_555
Cl13 La2 2.769703 1_555
Cl14 La1 2.769703 1_655
Cl15 La3 2.771906 1_555
Cl16 La1 2.805337 1_555
Cl17 La3 2.808531 1_555
Cl20 La2 2.795461 1_555
Cl21 La3 2.785135 1_555
Cl22 La3 2.724549 1_555
Cl23 La0 2.798306 1_545
Cl24 La2 2.711456 1_554
Cl25 La0 2.828844 1_445
Cl26 La1 2.819229 1_645
Cl27 La1 2.802153 1_545
