# generated using pymatgen
data_B5H2Pb2O11
_symmetry_space_group_name_H-M   'P 1'
_cell_length_a   11.51813000
_cell_length_b   6.70027100
_cell_length_c   13.07587265
_cell_angle_alpha   60.18042730
_cell_angle_beta   90.00000000
_cell_angle_gamma   90.00000000
_symmetry_Int_Tables_number   1
_chemical_formula_structural   B5H2Pb2O11
_chemical_formula_sum   'B20 H8 Pb8 O44'
_cell_volume   875.51256585
_cell_formula_units_Z   4
loop_
 _symmetry_equiv_pos_site_id
 _symmetry_equiv_pos_as_xyz
  1  'x, y, z'
loop_
 _atom_site_type_symbol
 _atom_site_label
 _atom_site_symmetry_multiplicity
 _atom_site_fract_x
 _atom_site_fract_y
 _atom_site_fract_z
 _atom_site_occupancy
  B  B0  1  0.22155700  0.22044100  0.46044400  1
  B  B1  1  0.72155700  0.77955900  0.03955600  1
  B  B2  1  0.77844300  0.77955900  0.53955600  1
  B  B3  1  0.27844300  0.22044100  0.96044400  1
  B  B4  1  0.00947600  0.73741600  0.75880000  1
  B  B5  1  0.50947600  0.26258400  0.74120000  1
  B  B6  1  0.99052400  0.26258400  0.24120000  1
  B  B7  1  0.49052400  0.73741600  0.25880000  1
  B  B8  1  0.80895100  0.48392800  0.22711300  1
  B  B9  1  0.30895100  0.51607200  0.27288700  1
  B  B10  1  0.19104900  0.51607200  0.77288700  1
  B  B11  1  0.69104900  0.48392800  0.72711300  1
  B  B12  1  0.78566400  0.84170300  0.71280100  1
  B  B13  1  0.28566400  0.15829700  0.78719900  1
  B  B14  1  0.21433600  0.15829700  0.28719900  1
  B  B15  1  0.71433600  0.84170300  0.21280100  1
  B  B16  1  0.20140700  0.94650400  0.68289000  1
  B  B17  1  0.70140700  0.05349600  0.81711000  1
  B  B18  1  0.79859300  0.05349600  0.31711000  1
  B  B19  1  0.29859300  0.94650400  0.18288900  1
  H  H0  1  0.93371000  0.19492500  0.49928500  1
  H  H1  1  0.43371000  0.80507500  0.00071500  1
  H  H2  1  0.06629000  0.80507500  0.50071500  1
  H  H3  1  0.56629000  0.19492500  0.99928500  1
  H  H4  1  0.47019500  0.20437100  0.48833000  1
  H  H5  1  0.97019500  0.79562900  0.01167000  1
  H  H6  1  0.52980500  0.79562900  0.51167000  1
  H  H7  1  0.02980500  0.20437100  0.98833000  1
  Pb  Pb0  1  0.28387900  0.65716400  0.51771100  1
  Pb  Pb1  1  0.78387900  0.34283600  0.98228900  1
  Pb  Pb2  1  0.71612100  0.34283600  0.48228900  1
  Pb  Pb3  1  0.21612100  0.65716400  0.01771100  1
  Pb  Pb4  1  0.47841700  0.70516900  0.81343100  1
  Pb  Pb5  1  0.97841700  0.29483100  0.68656900  1
  Pb  Pb6  1  0.52158300  0.29483100  0.18656900  1
  Pb  Pb7  1  0.02158300  0.70516900  0.31343100  1
  O  O0  1  0.76609700  0.26169200  0.32214300  1
  O  O1  1  0.26609700  0.73830800  0.17785700  1
  O  O2  1  0.23390300  0.73830800  0.67785700  1
  O  O3  1  0.73390300  0.26169200  0.82214300  1
  O  O4  1  0.30556700  0.33690500  0.23856200  1
  O  O5  1  0.80556700  0.66309500  0.26143800  1
  O  O6  1  0.69443300  0.66309500  0.76143800  1
  O  O7  1  0.19443300  0.33690500  0.73856200  1
  O  O8  1  0.22665600  0.15933900  0.57528400  1
  O  O9  1  0.72665600  0.84066100  0.92471600  1
  O  O10  1  0.77334400  0.84066100  0.42471600  1
  O  O11  1  0.27334400  0.15933900  0.07528400  1
  O  O12  1  0.26039500  0.95033100  0.78174500  1
  O  O13  1  0.76039500  0.04966900  0.71825500  1
  O  O14  1  0.73960500  0.04966900  0.21825500  1
  O  O15  1  0.23960500  0.95033100  0.28174500  1
  O  O16  1  0.93202700  0.46876900  0.19727900  1
  O  O17  1  0.43202700  0.53123100  0.30272100  1
  O  O18  1  0.06797300  0.53123100  0.80272100  1
  O  O19  1  0.56797300  0.46876900  0.69727900  1
  O  O20  1  0.06898700  0.94341700  0.69913700  1
  O  O21  1  0.56898700  0.05658300  0.80086300  1
  O  O22  1  0.93101300  0.05658300  0.30086300  1
  O  O23  1  0.43101300  0.94341700  0.19913700  1
  O  O24  1  0.73809500  0.54811200  0.11929500  1
  O  O25  1  0.23809500  0.45188800  0.38070500  1
  O  O26  1  0.26190500  0.45188800  0.88070500  1
  O  O27  1  0.76190500  0.54811200  0.61929500  1
  O  O28  1  0.79826200  0.92925300  0.58139000  1
  O  O29  1  0.29826200  0.07074700  0.91861000  1
  O  O30  1  0.20173800  0.07074700  0.41861000  1
  O  O31  1  0.70173800  0.92925300  0.08139000  1
  O  O32  1  0.42752200  0.65205100  0.00907100  1
  O  O33  1  0.92752200  0.34794900  0.49092900  1
  O  O34  1  0.57247800  0.34794900  0.99092900  1
  O  O35  1  0.07247800  0.65205100  0.50907100  1
  O  O36  1  0.89291100  0.72384600  0.77691300  1
  O  O37  1  0.39291100  0.27615400  0.72308700  1
  O  O38  1  0.10708900  0.27615400  0.22308700  1
  O  O39  1  0.60708900  0.72384600  0.27691300  1
  O  O40  1  0.52844100  0.09772000  0.54383900  1
  O  O41  1  0.02844100  0.90228000  0.95616100  1
  O  O42  1  0.47155900  0.90228000  0.45616100  1
  O  O43  1  0.97155900  0.09772000  0.04383900  1
loop_
_geom_bond_atom_site_label_1
_geom_bond_atom_site_label_2
_geom_bond_distance
_geom_bond_site_symmetry_2
B0 O8 1.347051 1_555
B0 O30 1.379487 1_555
B0 O25 1.385708 1_555
B1 O9 1.347051 1_554
B1 O31 1.379487 1_555
B1 O24 1.385708 1_555
B2 O10 1.347051 1_555
B2 O28 1.379487 1_555
B2 O27 1.385708 1_555
B3 O11 1.347051 1_556
B3 O29 1.379487 1_555
B3 O26 1.385708 1_555
B4 O36 1.358510 1_455
B4 O18 1.379587 1_555
B4 O20 1.382995 1_555
B5 O37 1.358510 1_555
B5 O19 1.379587 1_555
B5 O21 1.382995 1_555
B6 O38 1.358510 1_655
B6 O16 1.379587 1_555
B6 O22 1.382995 1_555
B7 O39 1.358510 1_555
B7 O17 1.379587 1_555
B7 O23 1.382995 1_555
B8 O0 1.471311 1_555
B8 O5 1.476466 1_555
B8 O16 1.487115 1_555
B8 O24 1.495194 1_555
B9 O1 1.471311 1_555
B9 O4 1.476466 1_555
B9 O17 1.487115 1_555
B9 O25 1.495194 1_555
B10 O2 1.471311 1_555
B10 O7 1.476466 1_555
B10 O18 1.487115 1_555
B10 O26 1.495194 1_555
B11 O3 1.471311 1_555
B11 O6 1.476466 1_555
B11 O19 1.487115 1_555
B11 O27 1.495194 1_555
B12 O13 1.459545 1_565
B12 O6 1.477796 1_555
B12 O36 1.481185 1_555
B12 O28 1.521608 1_555
B13 O12 1.459545 1_545
B13 O7 1.477796 1_555
B13 O37 1.481185 1_555
B13 O29 1.521608 1_555
B14 O15 1.459545 1_545
B14 O4 1.477796 1_555
B14 O38 1.481185 1_555
B14 O30 1.521608 1_555
B15 O14 1.459545 1_565
B15 O5 1.477796 1_555
B15 O39 1.481185 1_555
B15 O31 1.521608 1_555
B16 O8 1.449968 1_565
B16 O12 1.471769 1_555
B16 O2 1.477048 1_555
B16 O20 1.538674 1_555
B17 O9 1.449968 1_545
B17 O13 1.471769 1_555
B17 O3 1.477048 1_555
B17 O21 1.538674 1_555
B18 O10 1.449968 1_545
B18 O14 1.471769 1_555
B18 O0 1.477048 1_555
B18 O22 1.538674 1_555
B19 O11 1.449962 1_565
B19 O15 1.471780 1_555
B19 O1 1.477041 1_555
B19 O23 1.538676 1_555
H0 O33 0.978186 1_555
H1 O32 0.978186 1_555
H2 O35 0.978186 1_555
H3 O34 0.978186 1_555
H4 O40 0.985756 1_555
H5 O41 0.985756 1_654
H6 O42 0.985756 1_555
H7 O43 0.985756 1_456
O0 Pb2 2.478765 1_555
O1 Pb3 2.478765 1_555
O2 Pb0 2.478765 1_555
O3 Pb1 2.478765 1_555
O4 Pb6 2.631145 1_555
O4 Pb3 2.800456 1_555
O5 Pb7 2.631145 1_655
O5 Pb2 2.800456 1_555
O6 Pb4 2.631145 1_555
O6 Pb1 2.800456 1_555
O7 Pb5 2.631145 1_455
O7 Pb0 2.800456 1_555
O12 Pb3 2.758788 1_556
O13 Pb2 2.758788 1_555
O14 Pb1 2.758788 1_554
O15 Pb0 2.758788 1_555
O20 Pb5 2.504881 1_465
O21 Pb4 2.504881 1_545
O22 Pb7 2.504881 1_645
O23 Pb6 2.504881 1_565
O24 Pb1 2.798170 1_554
O25 Pb0 2.798170 1_555
O26 Pb3 2.798170 1_556
O27 Pb2 2.798170 1_555
O28 Pb2 2.584976 1_565
O29 Pb3 2.584976 1_546
O30 Pb0 2.584976 1_545
O31 Pb1 2.584976 1_564
O32 Pb3 2.438594 1_555
O32 Pb4 2.471644 1_554
O32 Pb6 2.600858 1_555
O33 Pb2 2.438594 1_555
O33 Pb5 2.471644 1_555
O33 Pb7 2.600858 1_655
O34 Pb1 2.438594 1_555
O34 Pb6 2.471644 1_556
O34 Pb4 2.600858 1_555
O35 Pb0 2.438594 1_555
O35 Pb7 2.471644 1_555
O35 Pb5 2.600858 1_455
O36 Pb1 2.913385 1_555
O37 Pb0 2.913385 1_555
O38 Pb3 2.913385 1_555
O39 Pb2 2.913385 1_555
O40 Pb2 2.589111 1_555
O41 Pb3 2.589111 1_556
O42 Pb0 2.589111 1_555
O43 Pb1 2.589111 1_554
