# generated using pymatgen
data_Li4Nb5V3O16
_symmetry_space_group_name_H-M   'P 1'
_cell_length_a   6.08566851
_cell_length_b   6.08566851
_cell_length_c   10.06849003
_cell_angle_alpha   89.86157994
_cell_angle_beta   89.86157994
_cell_angle_gamma   59.62882313
_symmetry_Int_Tables_number   1
_chemical_formula_structural   Li4Nb5V3O16
_chemical_formula_sum   'Li4 Nb5 V3 O16'
_cell_volume   321.71650172
_cell_formula_units_Z   1
loop_
 _symmetry_equiv_pos_site_id
 _symmetry_equiv_pos_as_xyz
  1  'x, y, z'
loop_
 _atom_site_type_symbol
 _atom_site_label
 _atom_site_symmetry_multiplicity
 _atom_site_fract_x
 _atom_site_fract_y
 _atom_site_fract_z
 _atom_site_occupancy
  Li  Li0  1  0.66749700  0.66749700  0.09275600  1
  Li  Li1  1  0.00016100  0.00016100  0.01282700  1
  Li  Li2  1  0.00402300  0.00402300  0.50859500  1
  Li  Li3  1  0.33342100  0.33342100  0.60828000  1
  Nb  Nb0  1  0.65592200  0.65592200  0.50620800  1
  Nb  Nb1  1  0.82311300  0.82311300  0.77685100  1
  Nb  Nb2  1  0.32677700  0.32677700  0.00226600  1
  Nb  Nb3  1  0.18952200  0.62645400  0.28586300  1
  Nb  Nb4  1  0.62645400  0.18952200  0.28586300  1
  V  V0  1  0.34041000  0.82957700  0.78807500  1
  V  V1  1  0.82957700  0.34041000  0.78807500  1
  V  V2  1  0.17345900  0.17345900  0.28620400  1
  O  O0  1  0.33678300  0.82878100  0.40519200  1
  O  O1  1  0.52514900  0.52514900  0.64672400  1
  O  O2  1  0.67594500  0.67594500  0.90094000  1
  O  O3  1  0.99379900  0.99379900  0.69143700  1
  O  O4  1  0.00055300  0.00055300  0.19607300  1
  O  O5  1  0.82878100  0.33678300  0.40519200  1
  O  O6  1  0.52453200  0.96494800  0.65468700  1
  O  O7  1  0.96494800  0.52453200  0.65468700  1
  O  O8  1  0.16793900  0.16793900  0.91069500  1
  O  O9  1  0.82976100  0.82976100  0.40837100  1
  O  O10  1  0.04036300  0.48667000  0.15354000  1
  O  O11  1  0.48667000  0.04036300  0.15354000  1
  O  O12  1  0.32303800  0.32303800  0.42054100  1
  O  O13  1  0.15803100  0.66058900  0.90317500  1
  O  O14  1  0.48654300  0.48654300  0.14241100  1
  O  O15  1  0.66058900  0.15803100  0.90317500  1
loop_
_geom_bond_atom_site_label_1
_geom_bond_atom_site_label_2
_geom_bond_distance
_geom_bond_site_symmetry_2
Li0 O2 1.933109 1_554
Li0 O14 1.973907 1_555
Li0 O10 2.052546 1_655
Li0 O11 2.052546 1_565
Li1 O4 1.845027 1_555
Li1 O8 2.046103 1_554
Li1 O13 2.100164 1_544
Li1 O15 2.100164 1_454
Li2 O3 1.843806 1_445
Li2 O0 2.033098 1_545
Li2 O5 2.033098 1_455
Li2 O9 2.101241 1_445
Li3 O12 1.893731 1_555
Li3 O6 1.989902 1_545
Li3 O7 1.989902 1_455
Li3 O1 2.062439 1_555
Nb0 O5 1.962527 1_555
Nb0 O0 1.962527 1_555
Nb0 O1 1.974314 1_555
Nb0 O9 2.080974 1_555
Nb0 O6 2.213199 1_555
Nb0 O7 2.213199 1_555
Nb1 O2 1.991363 1_555
Nb1 O7 1.994837 1_555
Nb1 O6 1.994837 1_555
Nb1 O3 1.994985 1_555
Nb1 O13 2.172136 1_655
Nb1 O15 2.172136 1_565
Nb2 O8 1.916319 1_554
Nb2 O15 2.015556 1_554
Nb2 O13 2.015556 1_554
Nb2 O11 2.141046 1_555
Nb2 O10 2.141046 1_555
Nb2 O14 2.202477 1_555
Nb3 O10 2.028495 1_555
Nb3 O12 2.093936 1_555
Nb3 O14 2.124958 1_555
Nb3 O4 2.161140 1_565
Nb3 O0 2.211541 1_555
Nb3 O9 2.258500 1_455
Nb4 O11 2.028495 1_555
Nb4 O12 2.093936 1_555
Nb4 O14 2.124958 1_555
Nb4 O4 2.161140 1_655
Nb4 O5 2.211541 1_555
Nb4 O9 2.258500 1_545
O0 V2 2.169903 1_565
O1 V1 2.149549 1_555
O1 V0 2.149549 1_555
O2 V0 2.100153 1_555
O2 V1 2.100153 1_555
O3 V0 2.066020 1_655
O3 V1 2.066020 1_565
O4 V2 2.041283 1_555
O5 V2 2.169903 1_655
O6 V0 2.158409 1_555
O7 V1 2.158409 1_555
O8 V0 2.164845 1_545
O8 V1 2.164845 1_455
O10 V2 2.122540 1_555
O11 V2 2.122540 1_555
O12 V2 2.082426 1_555
O13 V0 2.185117 1_555
O15 V1 2.185117 1_555
