# generated using pymatgen
data_CuH7C3SN3O4
_symmetry_space_group_name_H-M   'P 1'
_cell_length_a   14.11009300
_cell_length_b   6.98530800
_cell_length_c   9.79698413
_cell_angle_alpha   82.11735862
_cell_angle_beta   90.00000000
_cell_angle_gamma   90.00000000
_symmetry_Int_Tables_number   1
_chemical_formula_structural   CuH7C3SN3O4
_chemical_formula_sum   'Cu4 H28 C12 S4 N12 O16'
_cell_volume   956.49941153
_cell_formula_units_Z   4
loop_
 _symmetry_equiv_pos_site_id
 _symmetry_equiv_pos_as_xyz
  1  'x, y, z'
loop_
 _atom_site_type_symbol
 _atom_site_label
 _atom_site_symmetry_multiplicity
 _atom_site_fract_x
 _atom_site_fract_y
 _atom_site_fract_z
 _atom_site_occupancy
  Cu  Cu0  1  0.74146800  0.24149500  0.19378500  1
  Cu  Cu1  1  0.24146800  0.75850500  0.30621500  1
  Cu  Cu2  1  0.25853200  0.75850500  0.80621500  1
  Cu  Cu3  1  0.75853200  0.24149500  0.69378500  1
  H  H0  1  0.66308300  0.55406700  0.85464800  1
  H  H1  1  0.16308300  0.44593300  0.64535200  1
  H  H2  1  0.33691700  0.44593300  0.14535200  1
  H  H3  1  0.83691700  0.55406700  0.35464800  1
  H  H4  1  0.92512200  0.26308800  0.00625800  1
  H  H5  1  0.42512200  0.73691200  0.49374200  1
  H  H6  1  0.07487800  0.73691200  0.99374200  1
  H  H7  1  0.57487800  0.26308800  0.50625800  1
  H  H8  1  0.86312200  0.88396000  0.82668500  1
  H  H9  1  0.36312200  0.11604000  0.67331500  1
  H  H10  1  0.13687800  0.11604000  0.17331500  1
  H  H11  1  0.63687800  0.88396000  0.32668500  1
  H  H12  1  0.95722500  0.88997700  0.94185600  1
  H  H13  1  0.45722500  0.11002300  0.55814400  1
  H  H14  1  0.04277500  0.11002300  0.05814400  1
  H  H15  1  0.54277500  0.88997700  0.44185600  1
  H  H16  1  0.54147600  0.31316400  0.45155100  1
  H  H17  1  0.04147600  0.68683600  0.04844900  1
  H  H18  1  0.45852400  0.68683600  0.54844900  1
  H  H19  1  0.95852400  0.31316400  0.95155100  1
  H  H20  1  0.95250100  0.42573200  0.12552500  1
  H  H21  1  0.45250100  0.57426800  0.37447500  1
  H  H22  1  0.04749900  0.57426800  0.87447500  1
  H  H23  1  0.54749900  0.42573200  0.62552500  1
  H  H24  1  0.01227500  0.49616600  0.24135400  1
  H  H25  1  0.51227500  0.50383400  0.25864600  1
  H  H26  1  0.98772500  0.50383400  0.75864600  1
  H  H27  1  0.48772500  0.49616600  0.74135400  1
  C  C0  1  0.82570400  0.96142800  0.01165800  1
  C  C1  1  0.32570400  0.03857200  0.48834200  1
  C  C2  1  0.17429600  0.03857200  0.98834200  1
  C  C3  1  0.67429600  0.96142800  0.51165800  1
  C  C4  1  0.67439200  0.48337100  0.95967600  1
  C  C5  1  0.17439200  0.51662900  0.54032400  1
  C  C6  1  0.32560800  0.51662900  0.04032400  1
  C  C7  1  0.82560800  0.48337100  0.45967600  1
  C  C8  1  0.63895600  0.56466700  0.08116300  1
  C  C9  1  0.13895600  0.43533300  0.41883700  1
  C  C10  1  0.36104400  0.43533300  0.91883700  1
  C  C11  1  0.86104400  0.56466700  0.58116300  1
  S  S0  1  0.84854300  0.99411100  0.17500100  1
  S  S1  1  0.34854300  0.00588900  0.32499900  1
  S  S2  1  0.15145700  0.00588900  0.82499900  1
  S  S3  1  0.65145700  0.99411100  0.67500100  1
  N  N0  1  0.70766400  0.30689600  0.98738800  1
  N  N1  1  0.20766400  0.69310400  0.51261200  1
  N  N2  1  0.29233600  0.69310400  0.01261200  1
  N  N3  1  0.79233600  0.30689600  0.48738800  1
  N  N4  1  0.73995400  0.20574900  0.89620900  1
  N  N5  1  0.23995400  0.79425100  0.60379100  1
  N  N6  1  0.26004600  0.79425100  0.10379100  1
  N  N7  1  0.76004600  0.20574900  0.39620900  1
  N  N8  1  0.88680400  0.90834900  0.92119000  1
  N  N9  1  0.38680400  0.09165100  0.57881000  1
  N  N10  1  0.11319600  0.09165100  0.07881000  1
  N  N11  1  0.61319600  0.90834900  0.42119000  1
  O  O0  1  0.66171700  0.46782100  0.20244500  1
  O  O1  1  0.16171700  0.53217900  0.29755500  1
  O  O2  1  0.33828300  0.53217900  0.79755500  1
  O  O3  1  0.83828300  0.46782100  0.70244500  1
  O  O4  1  0.58643700  0.70801900  0.07032600  1
  O  O5  1  0.08643700  0.29198100  0.42967400  1
  O  O6  1  0.41356300  0.29198100  0.92967400  1
  O  O7  1  0.91356300  0.70801900  0.57032600  1
  O  O8  1  0.26378500  0.00040900  0.03860400  1
  O  O9  1  0.76378500  0.99959100  0.46139600  1
  O  O10  1  0.73621500  0.99959100  0.96139600  1
  O  O11  1  0.23621500  0.00040900  0.53860400  1
  O  O12  1  0.95452400  0.52501000  0.18626000  1
  O  O13  1  0.45452400  0.47499000  0.31374000  1
  O  O14  1  0.04547600  0.47499000  0.81374000  1
  O  O15  1  0.54547600  0.52501000  0.68626000  1
loop_
_geom_bond_atom_site_label_1
_geom_bond_atom_site_label_2
_geom_bond_distance
_geom_bond_site_symmetry_2
Cu0 O0 1.951845 1_555
Cu0 N7 1.981944 1_555
Cu0 N0 2.066784 1_554
Cu0 S0 2.321614 1_545
Cu1 O1 1.951845 1_555
Cu1 N6 1.981944 1_555
Cu1 N1 2.066784 1_555
Cu1 S1 2.321614 1_565
Cu2 O2 1.951845 1_555
Cu2 N5 1.981944 1_555
Cu2 N2 2.066784 1_556
Cu2 S2 2.321614 1_565
Cu3 O3 1.951845 1_555
Cu3 N4 1.981944 1_555
Cu3 N3 2.066784 1_555
Cu3 S3 2.321614 1_545
H8 N8 1.020379 1_555
H9 N9 1.020379 1_555
H10 N10 1.020379 1_555
H11 N11 1.020379 1_555
H12 N8 1.018660 1_555
H13 N9 1.018660 1_555
H14 N10 1.018660 1_555
H15 N11 1.018660 1_555
H16 H7 0.761787 1_555
H17 H6 0.761787 1_554
H18 H5 0.761787 1_555
H19 H4 0.761787 1_556
H20 O12 0.974151 1_555
H21 O13 0.974151 1_555
H22 O14 0.974151 1_555
H23 O15 0.974151 1_555
H24 O12 0.982913 1_455
H25 O13 0.982913 1_555
H26 O14 0.982913 1_655
H27 O15 0.982913 1_555
C0 N8 1.325301 1_554
C0 O10 1.368188 1_554
C0 S0 1.678405 1_555
C1 N9 1.325301 1_555
C1 O11 1.368188 1_555
C1 S1 1.678405 1_555
C2 N10 1.325301 1_556
C2 O8 1.368188 1_556
C2 S2 1.678405 1_555
C3 N11 1.325301 1_555
C3 O9 1.368188 1_555
C3 S3 1.678405 1_555
C4 H0 1.090281 1_555
C4 N0 1.312228 1_555
C5 H1 1.090281 1_555
C5 N1 1.312228 1_555
C6 H2 1.090281 1_555
C6 N2 1.312228 1_555
C7 H3 1.090281 1_555
C7 N3 1.312228 1_555
C8 O4 1.238540 1_555
C8 O0 1.323681 1_555
C9 O5 1.238540 1_555
C9 O1 1.323681 1_555
C10 O6 1.238540 1_555
C10 O2 1.323681 1_555
C11 O7 1.238540 1_555
C11 O3 1.323681 1_555
N0 N4 1.295319 1_555
N1 N5 1.295319 1_555
N2 N6 1.295319 1_555
N3 N7 1.295319 1_555
N4 O10 1.494056 1_545
N5 O11 1.494056 1_565
N6 O8 1.494056 1_565
N7 O9 1.494056 1_545
