# generated using pymatgen
data_Ca9Co(PO4)7
_symmetry_space_group_name_H-M   'P 1'
_cell_length_a   13.81825741
_cell_length_b   13.81825741
_cell_length_c   13.81825864
_cell_angle_alpha   44.49778781
_cell_angle_beta   44.49778781
_cell_angle_gamma   44.49778635
_symmetry_Int_Tables_number   1
_chemical_formula_structural   Ca9Co(PO4)7
_chemical_formula_sum   'Ca18 Co2 P14 O56'
_cell_volume   1178.46502136
_cell_formula_units_Z   2
loop_
 _symmetry_equiv_pos_site_id
 _symmetry_equiv_pos_as_xyz
  1  'x, y, z'
loop_
 _atom_site_type_symbol
 _atom_site_label
 _atom_site_symmetry_multiplicity
 _atom_site_fract_x
 _atom_site_fract_y
 _atom_site_fract_z
 _atom_site_occupancy
  Ca  Ca0  1  0.34602500  0.92038600  0.93557000  1
  Ca  Ca1  1  0.09130900  0.06600200  0.64784900  1
  Ca  Ca2  1  0.14784900  0.56600200  0.59130900  1
  Ca  Ca3  1  0.02780600  0.04761800  0.44962700  1
  Ca  Ca4  1  0.43557000  0.42038600  0.84602500  1
  Ca  Ca5  1  0.54761800  0.52780600  0.94962700  1
  Ca  Ca6  1  0.06600200  0.64784900  0.09130900  1
  Ca  Ca7  1  0.52780600  0.94962700  0.54761800  1
  Ca  Ca8  1  0.42038600  0.84602500  0.43557000  1
  Ca  Ca9  1  0.93557000  0.34602500  0.92038600  1
  Ca  Ca10  1  0.04761800  0.44962700  0.02780600  1
  Ca  Ca11  1  0.59130900  0.14784900  0.56600200  1
  Ca  Ca12  1  0.44962700  0.02780600  0.04761800  1
  Ca  Ca13  1  0.56600200  0.59130900  0.14784900  1
  Ca  Ca14  1  0.94962700  0.54761800  0.52780600  1
  Ca  Ca15  1  0.84602500  0.43557000  0.42038600  1
  Ca  Ca16  1  0.92038600  0.93557000  0.34602500  1
  Ca  Ca17  1  0.64784900  0.09130900  0.06600200  1
  Co  Co0  1  0.99970700  0.99970700  0.99970700  1
  Co  Co1  1  0.49970700  0.49970700  0.49970700  1
  P  P0  1  0.18000200  0.68860300  0.72189300  1
  P  P1  1  0.31563800  0.27985700  0.81192100  1
  P  P2  1  0.31192100  0.77985700  0.81563800  1
  P  P3  1  0.22189300  0.18860300  0.68000200  1
  P  P4  1  0.27985700  0.81192100  0.31563800  1
  P  P5  1  0.18860300  0.68000200  0.22189300  1
  P  P6  1  0.72824200  0.72824200  0.72824200  1
  P  P7  1  0.22824200  0.22824200  0.22824200  1
  P  P8  1  0.72189300  0.18000200  0.68860300  1
  P  P9  1  0.81563800  0.31192100  0.77985700  1
  P  P10  1  0.77985700  0.81563800  0.31192100  1
  P  P11  1  0.68000200  0.22189300  0.18860300  1
  P  P12  1  0.68860300  0.72189300  0.18000200  1
  P  P13  1  0.81192100  0.31563800  0.27985700  1
  O  O0  1  0.13307600  0.86784900  0.88755600  1
  O  O1  1  0.14803600  0.33318400  0.86320700  1
  O  O2  1  0.12333300  0.11792900  0.86007600  1
  O  O3  1  0.16661400  0.61436900  0.88196100  1
  O  O4  1  0.09722600  0.63992700  0.73802300  1
  O  O5  1  0.32419100  0.31833600  0.88531100  1
  O  O6  1  0.35215800  0.60714200  0.91050100  1
  O  O7  1  0.13010600  0.86168000  0.64202500  1
  O  O8  1  0.14202500  0.36168000  0.63010600  1
  O  O9  1  0.41050100  0.10714200  0.85215800  1
  O  O10  1  0.38531100  0.81833600  0.82419100  1
  O  O11  1  0.61208400  0.71787700  0.89289100  1
  O  O12  1  0.23802300  0.13992700  0.59722600  1
  O  O13  1  0.21787700  0.11208400  0.39289100  1
  O  O14  1  0.10714200  0.85215800  0.41050100  1
  O  O15  1  0.11436900  0.66661400  0.38196100  1
  O  O16  1  0.38196100  0.11436900  0.66661400  1
  O  O17  1  0.36007600  0.61792900  0.62333300  1
  O  O18  1  0.36320700  0.83318400  0.64803600  1
  O  O19  1  0.38755600  0.36784900  0.63307600  1
  O  O20  1  0.64202500  0.13010600  0.86168000  1
  O  O21  1  0.64803600  0.36320700  0.83318400  1
  O  O22  1  0.13992700  0.59722600  0.23802300  1
  O  O23  1  0.11208400  0.39289100  0.21787700  1
  O  O24  1  0.36784900  0.63307600  0.38755600  1
  O  O25  1  0.31833600  0.88531100  0.32419100  1
  O  O26  1  0.11792900  0.86007600  0.12333300  1
  O  O27  1  0.68653500  0.68653500  0.68653500  1
  O  O28  1  0.18653500  0.18653500  0.18653500  1
  O  O29  1  0.62333300  0.36007600  0.61792900  1
  O  O30  1  0.82419100  0.38531100  0.81833600  1
  O  O31  1  0.88755600  0.13307600  0.86784900  1
  O  O32  1  0.71787700  0.89289100  0.61208400  1
  O  O33  1  0.73802300  0.09722600  0.63992700  1
  O  O34  1  0.33318400  0.86320700  0.14803600  1
  O  O35  1  0.36168000  0.63010600  0.14202500  1
  O  O36  1  0.60714200  0.91050100  0.35215800  1
  O  O37  1  0.63010600  0.14202500  0.36168000  1
  O  O38  1  0.61792900  0.62333300  0.36007600  1
  O  O39  1  0.63307600  0.38755600  0.36784900  1
  O  O40  1  0.88196100  0.16661400  0.61436900  1
  O  O41  1  0.91050100  0.35215800  0.60714200  1
  O  O42  1  0.89289100  0.61208400  0.71787700  1
  O  O43  1  0.39289100  0.21787700  0.11208400  1
  O  O44  1  0.81833600  0.82419100  0.38531100  1
  O  O45  1  0.59722600  0.23802300  0.13992700  1
  O  O46  1  0.61436900  0.88196100  0.16661400  1
  O  O47  1  0.83318400  0.64803600  0.36320700  1
  O  O48  1  0.86320700  0.14803600  0.33318400  1
  O  O49  1  0.66661400  0.38196100  0.11436900  1
  O  O50  1  0.63992700  0.73802300  0.09722600  1
  O  O51  1  0.88531100  0.32419100  0.31833600  1
  O  O52  1  0.86784900  0.88755600  0.13307600  1
  O  O53  1  0.86007600  0.12333300  0.11792900  1
  O  O54  1  0.86168000  0.64202500  0.13010600  1
  O  O55  1  0.85215800  0.41050100  0.10714200  1
loop_
_geom_bond_atom_site_label_1
_geom_bond_atom_site_label_2
_geom_bond_distance
_geom_bond_site_symmetry_2
Ca0 O34 2.328731 1_556
Ca0 O10 2.337537 1_555
Ca0 O11 2.505939 1_555
Ca0 O16 2.509723 1_565
Ca0 O9 2.520668 1_565
Ca0 O26 2.521354 1_556
Ca0 O2 2.557939 1_565
Ca0 O35 2.755559 1_556
Ca1 O13 2.339826 1_555
Ca1 O12 2.356853 1_555
Ca1 O40 2.402001 1_455
Ca1 O31 2.472755 1_455
Ca1 O0 2.517237 1_545
Ca1 O7 2.523617 1_545
Ca1 O41 2.632995 1_455
Ca1 O18 2.687939 1_545
Ca2 O42 2.339826 1_455
Ca2 O4 2.356853 1_555
Ca2 O15 2.402001 1_555
Ca2 O24 2.472755 1_555
Ca2 O19 2.517237 1_555
Ca2 O8 2.523617 1_555
Ca2 O14 2.632995 1_555
Ca2 O1 2.687939 1_555
Ca3 O14 2.408882 1_545
Ca3 O40 2.452616 1_455
Ca3 O7 2.470504 1_545
Ca3 O51 2.498847 1_455
Ca3 O28 2.527454 1_555
Ca3 O25 2.631707 1_545
Ca3 O33 2.655860 1_455
Ca3 O48 2.687206 1_455
Ca3 O13 2.776751 1_555
Ca4 O21 2.328730 1_555
Ca4 O5 2.337536 1_555
Ca4 O43 2.505939 1_556
Ca4 O3 2.509723 1_555
Ca4 O6 2.520668 1_555
Ca4 O29 2.521354 1_555
Ca4 O17 2.557940 1_555
Ca4 O20 2.755559 1_555
Ca5 O6 2.408882 1_555
Ca5 O49 2.452616 1_556
Ca5 O35 2.470504 1_556
Ca5 O30 2.498847 1_555
Ca5 O27 2.527454 1_555
Ca5 O10 2.631707 1_555
Ca5 O45 2.655860 1_556
Ca5 O21 2.687206 1_555
Ca5 O11 2.776751 1_555
Ca6 O23 2.339826 1_555
Ca6 O22 2.356853 1_555
Ca6 O3 2.402001 1_554
Ca6 O0 2.472755 1_554
Ca6 O52 2.517237 1_455
Ca6 O54 2.523617 1_455
Ca6 O6 2.632995 1_554
Ca6 O47 2.687939 1_455
Ca7 O36 2.408882 1_555
Ca7 O16 2.452616 1_565
Ca7 O37 2.470504 1_565
Ca7 O10 2.498847 1_555
Ca7 O27 2.527454 1_555
Ca7 O44 2.631707 1_555
Ca7 O12 2.655860 1_565
Ca7 O18 2.687206 1_555
Ca7 O32 2.776751 1_555
Ca8 O18 2.328731 1_555
Ca8 O25 2.337537 1_555
Ca8 O13 2.505939 1_565
Ca8 O46 2.509723 1_555
Ca8 O36 2.520668 1_555
Ca8 O17 2.521354 1_555
Ca8 O38 2.557939 1_555
Ca8 O7 2.755559 1_555
Ca9 O1 2.328730 1_655
Ca9 O30 2.337536 1_555
Ca9 O42 2.505939 1_555
Ca9 O49 2.509723 1_556
Ca9 O55 2.520668 1_556
Ca9 O2 2.521354 1_655
Ca9 O53 2.557939 1_556
Ca9 O8 2.755559 1_655
Ca10 O55 2.408881 1_455
Ca10 O3 2.452616 1_554
Ca10 O54 2.470504 1_455
Ca10 O5 2.498847 1_554
Ca10 O28 2.527454 1_555
Ca10 O51 2.631707 1_455
Ca10 O4 2.655860 1_554
Ca10 O1 2.687206 1_554
Ca10 O23 2.776752 1_555
Ca11 O32 2.339826 1_545
Ca11 O33 2.356853 1_555
Ca11 O16 2.402001 1_555
Ca11 O19 2.472755 1_555
Ca11 O39 2.517237 1_555
Ca11 O37 2.523617 1_555
Ca11 O9 2.632995 1_555
Ca11 O48 2.687939 1_555
Ca12 O9 2.408882 1_554
Ca12 O46 2.452616 1_545
Ca12 O20 2.470504 1_554
Ca12 O25 2.498847 1_545
Ca12 O28 2.527454 1_555
Ca12 O5 2.631707 1_554
Ca12 O50 2.655860 1_545
Ca12 O34 2.687206 1_545
Ca12 O43 2.776751 1_555
Ca13 O11 2.339826 1_554
Ca13 O50 2.356853 1_555
Ca13 O49 2.402001 1_555
Ca13 O39 2.472755 1_555
Ca13 O24 2.517237 1_555
Ca13 O35 2.523617 1_555
Ca13 O55 2.632995 1_555
Ca13 O34 2.687939 1_555
Ca14 O41 2.408881 1_555
Ca14 O15 2.452616 1_655
Ca14 O8 2.470504 1_655
Ca14 O44 2.498847 1_555
Ca14 O27 2.527454 1_555
Ca14 O30 2.631707 1_555
Ca14 O22 2.655860 1_655
Ca14 O47 2.687206 1_555
Ca14 O42 2.776752 1_555
Ca15 O47 2.328730 1_555
Ca15 O51 2.337536 1_555
Ca15 O23 2.505939 1_655
Ca15 O40 2.509723 1_555
Ca15 O41 2.520668 1_555
Ca15 O38 2.521354 1_555
Ca15 O29 2.557939 1_555
Ca15 O54 2.755559 1_555
Ca16 O48 2.328730 1_565
Ca16 O44 2.337536 1_555
Ca16 O32 2.505939 1_555
Ca16 O15 2.509723 1_655
Ca16 O14 2.520668 1_655
Ca16 O53 2.521354 1_565
Ca16 O26 2.557940 1_655
Ca16 O37 2.755559 1_565
Ca17 O43 2.339826 1_555
Ca17 O45 2.356853 1_555
Ca17 O46 2.402001 1_545
Ca17 O52 2.472755 1_545
Ca17 O31 2.517237 1_554
Ca17 O20 2.523617 1_554
Ca17 O36 2.632995 1_545
Ca17 O21 2.687939 1_554
Co0 O2 2.022956 1_665
Co0 O53 2.022956 1_566
Co0 O26 2.022956 1_656
Co0 O52 2.069182 1_556
Co0 O0 2.069182 1_655
Co0 O31 2.069182 1_565
Co1 O38 2.022956 1_555
Co1 O29 2.022956 1_555
Co1 O17 2.022956 1_555
Co1 O19 2.069182 1_555
Co1 O24 2.069182 1_555
Co1 O39 2.069182 1_555
O0 P2 1.583362 1_555
O1 P1 1.542064 1_555
O2 P3 1.611391 1_555
O3 P0 1.558547 1_555
O4 P0 1.526559 1_555
O5 P1 1.534597 1_555
O6 P2 1.551508 1_555
O7 P0 1.543066 1_555
O8 P3 1.543066 1_555
O9 P1 1.551508 1_555
O10 P2 1.534597 1_555
O11 P6 1.557798 1_555
O12 P3 1.526559 1_555
O13 P7 1.557798 1_555
O14 P4 1.551508 1_555
O15 P5 1.558547 1_555
O16 P3 1.558547 1_555
O17 P0 1.611391 1_555
O18 P2 1.542064 1_555
O19 P1 1.583362 1_555
O20 P8 1.543066 1_555
O21 P9 1.542064 1_555
O22 P5 1.526559 1_555
O23 P7 1.557797 1_555
O24 P4 1.583362 1_555
O25 P4 1.534597 1_555
O26 P5 1.611391 1_555
O27 P6 1.554955 1_555
O28 P7 1.554955 1_555
O29 P8 1.611391 1_555
O30 P9 1.534597 1_555
O31 P9 1.583362 1_555
O32 P6 1.557797 1_555
O33 P8 1.526559 1_555
O34 P4 1.542064 1_555
O35 P5 1.543066 1_555
O36 P10 1.551508 1_555
O37 P11 1.543066 1_555
O38 P12 1.611391 1_555
O39 P13 1.583362 1_555
O40 P8 1.558547 1_555
O41 P9 1.551508 1_555
O42 P6 1.557797 1_555
O43 P7 1.557797 1_555
O44 P10 1.534597 1_555
O45 P11 1.526559 1_555
O46 P12 1.558547 1_555
O47 P10 1.542064 1_555
O48 P13 1.542064 1_555
O49 P11 1.558547 1_555
O50 P12 1.526559 1_555
O51 P13 1.534597 1_555
O52 P10 1.583362 1_555
O53 P11 1.611391 1_555
O54 P12 1.543066 1_555
O55 P13 1.551508 1_555
