# generated using pymatgen
data_Li24MnCr11O36
_symmetry_space_group_name_H-M   'P 1'
_cell_length_a   5.06131400
_cell_length_b   9.75481796
_cell_length_c   13.26408192
_cell_angle_alpha   88.37125324
_cell_angle_beta   100.87125648
_cell_angle_gamma   99.24517103
_symmetry_Int_Tables_number   1
_chemical_formula_structural   Li24MnCr11O36
_chemical_formula_sum   'Li24 Mn1 Cr11 O36'
_cell_volume   634.76865233
_cell_formula_units_Z   1
loop_
 _symmetry_equiv_pos_site_id
 _symmetry_equiv_pos_as_xyz
  1  'x, y, z'
loop_
 _atom_site_type_symbol
 _atom_site_label
 _atom_site_symmetry_multiplicity
 _atom_site_fract_x
 _atom_site_fract_y
 _atom_site_fract_z
 _atom_site_occupancy
  Li  Li0  1  0.72216200  0.00026400  0.94219200  1
  Li  Li1  1  0.66625200  0.50035200  0.83195600  1
  Li  Li2  1  0.21987900  0.50004400  0.94003000  1
  Li  Li3  1  0.41549800  0.75170000  0.83367000  1
  Li  Li4  1  0.61429100  0.00172200  0.72607000  1
  Li  Li5  1  0.16401700  0.00081400  0.83274200  1
  Li  Li6  1  0.92101200  0.24964600  0.83365100  1
  Li  Li7  1  0.11028600  0.49933600  0.72655000  1
  Li  Li8  1  0.54756300  0.49953100  0.60723500  1
  Li  Li9  1  0.05323600  0.99998500  0.60803600  1
  Li  Li10  1  0.50272800  0.99825500  0.50102100  1
  Li  Li11  1  0.25032900  0.25057600  0.50114600  1
  Li  Li12  1  0.99958100  0.50134500  0.50169900  1
  Li  Li13  1  0.74919000  0.74902300  0.50099800  1
  Li  Li14  1  0.94651400  0.00100800  0.39382100  1
  Li  Li15  1  0.45155800  0.50119900  0.39458900  1
  Li  Li16  1  0.88602500  0.49982900  0.27250400  1
  Li  Li17  1  0.08038800  0.74935500  0.16518000  1
  Li  Li18  1  0.38932600  0.00138200  0.27455400  1
  Li  Li19  1  0.83424300  0.99992600  0.16544700  1
  Li  Li20  1  0.58825300  0.25081700  0.16660500  1
  Li  Li21  1  0.77991200  0.50119900  0.06049600  1
  Li  Li22  1  0.33168800  0.50059200  0.16624600  1
  Li  Li23  1  0.27997300  0.99988800  0.05870500  1
  Mn  Mn0  1  0.97075800  0.75025100  0.94537100  1
  Cr  Cr0  1  0.48342000  0.24935900  0.94571700  1
  Cr  Cr1  1  0.36149300  0.24995000  0.72291800  1
  Cr  Cr2  1  0.29915900  0.75155500  0.61134600  1
  Cr  Cr3  1  0.85560700  0.75149900  0.72281200  1
  Cr  Cr4  1  0.81192200  0.24982500  0.61154000  1
  Cr  Cr5  1  0.19342300  0.74869900  0.38517800  1
  Cr  Cr6  1  0.13903000  0.25298500  0.28218400  1
  Cr  Cr7  1  0.68990700  0.25280000  0.38580300  1
  Cr  Cr8  1  0.64131500  0.74916000  0.28084900  1
  Cr  Cr9  1  0.03678500  0.24803000  0.05682800  1
  Cr  Cr10  1  0.52362400  0.75075700  0.05390400  1
  O  O0  1  0.83439300  0.36087000  0.95514900  1
  O  O1  1  0.62027100  0.63908800  0.95379900  1
  O  O2  1  0.12357700  0.13837000  0.95231200  1
  O  O3  1  0.81106700  0.86483100  0.83440200  1
  O  O4  1  0.33083900  0.86128400  0.95247400  1
  O  O5  1  0.52044700  0.13535400  0.83570700  1
  O  O6  1  0.31131200  0.36548100  0.83192100  1
  O  O7  1  0.50123200  0.63899400  0.71315300  1
  O  O8  1  0.02263500  0.63633600  0.83419600  1
  O  O9  1  0.45139700  0.13869000  0.61945100  1
  O  O10  1  0.00527800  0.13772000  0.71555800  1
  O  O11  1  0.20805000  0.86296000  0.71511700  1
  O  O12  1  0.16232600  0.36243500  0.61969200  1
  O  O13  1  0.71268600  0.36235500  0.71322500  1
  O  O14  1  0.95551800  0.63849800  0.62048300  1
  O  O15  1  0.35345400  0.63607900  0.49918700  1
  O  O16  1  0.14790600  0.86378300  0.50070200  1
  O  O17  1  0.66376600  0.86326200  0.61907800  1
  O  O18  1  0.32526000  0.13832700  0.37884800  1
  O  O19  1  0.85129900  0.13693900  0.50096200  1
  O  O20  1  0.64479500  0.36502800  0.49889300  1
  O  O21  1  0.05402500  0.36395600  0.38020000  1
  O  O22  1  0.28021700  0.63687400  0.28787500  1
  O  O23  1  0.82468200  0.63705600  0.37883600  1
  O  O24  1  0.78086700  0.13797800  0.28903300  1
  O  O25  1  0.00787100  0.86303600  0.28868000  1
  O  O26  1  0.55325200  0.86284300  0.37879500  1
  O  O27  1  0.98060800  0.36531200  0.16916800  1
  O  O28  1  0.50821300  0.36403300  0.28756700  1
  O  O29  1  0.68654300  0.63548500  0.16705000  1
  O  O30  1  0.48214600  0.86377900  0.16615100  1
  O  O31  1  0.67171400  0.13713400  0.04919700  1
  O  O32  1  0.18709800  0.13691700  0.16703000  1
  O  O33  1  0.88520600  0.86271400  0.04773900  1
  O  O34  1  0.38029300  0.36192600  0.04647800  1
  O  O35  1  0.16230800  0.63797500  0.04694800  1
loop_
_geom_bond_atom_site_label_1
_geom_bond_atom_site_label_2
_geom_bond_distance
_geom_bond_site_symmetry_2
Li0 O31 2.053348 1_556
Li0 O33 2.062648 1_546
Li0 O3 2.129097 1_545
Li0 O5 2.134565 1_555
Li0 O2 2.233528 1_655
Li0 O4 2.237853 1_545
Li1 O6 2.049018 1_555
Li1 O8 2.056031 1_655
Li1 O13 2.170085 1_555
Li1 O7 2.180638 1_555
Li1 O1 2.205675 1_555
Li1 O0 2.228619 1_555
Li2 O34 2.068562 1_556
Li2 O35 2.072867 1_556
Li2 O8 2.127579 1_555
Li2 O6 2.132120 1_555
Li2 O0 2.229574 1_455
Li2 O1 2.229587 1_555
Li3 O4 2.075370 1_555
Li3 O11 2.097483 1_555
Li3 O1 2.112632 1_555
Li3 O7 2.113583 1_555
Li3 O8 2.122735 1_555
Li3 O3 2.123606 1_555
Li4 O17 2.062192 1_545
Li4 O9 2.066784 1_555
Li4 O5 2.146371 1_555
Li4 O3 2.149011 1_545
Li4 O10 2.223846 1_655
Li4 O11 2.255030 1_545
Li5 O5 2.047883 1_555
Li5 O3 2.050127 1_445
Li5 O10 2.144928 1_555
Li5 O11 2.153812 1_545
Li5 O2 2.165511 1_555
Li5 O4 2.197323 1_545
Li6 O10 2.080000 1_655
Li6 O2 2.087685 1_655
Li6 O6 2.116137 1_655
Li6 O0 2.117833 1_555
Li6 O13 2.123540 1_555
Li6 O5 2.155661 1_555
Li7 O12 2.055036 1_555
Li7 O14 2.062314 1_455
Li7 O6 2.116674 1_555
Li7 O8 2.135272 1_555
Li7 O13 2.209444 1_455
Li7 O7 2.248444 1_555
Li8 O7 2.053036 1_555
Li8 O13 2.067533 1_555
Li8 O15 2.138745 1_555
Li8 O20 2.147141 1_555
Li8 O12 2.211027 1_555
Li8 O14 2.260349 1_555
Li9 O11 2.055910 1_555
Li9 O10 2.059712 1_565
Li9 O16 2.142690 1_555
Li9 O19 2.151704 1_465
Li9 O9 2.221524 1_565
Li9 O17 2.222389 1_455
Li10 O19 2.043583 1_565
Li10 O16 2.046057 1_555
Li10 O17 2.143989 1_555
Li10 O9 2.191443 1_565
Li10 O26 2.196636 1_555
Li10 O18 2.240376 1_565
Li11 O9 2.084811 1_555
Li11 O12 2.092694 1_555
Li11 O21 2.105937 1_555
Li11 O18 2.107294 1_555
Li11 O20 2.130218 1_555
Li11 O19 2.141631 1_455
Li12 O15 2.049402 1_655
Li12 O20 2.050475 1_555
Li12 O14 2.161100 1_555
Li12 O12 2.171607 1_655
Li12 O21 2.208665 1_655
Li12 O23 2.213980 1_555
Li13 O17 2.095542 1_555
Li13 O14 2.098827 1_555
Li13 O23 2.105411 1_555
Li13 O26 2.118662 1_555
Li13 O15 2.121438 1_555
Li13 O16 2.145342 1_655
Li14 O24 2.057861 1_555
Li14 O25 2.063282 1_645
Li14 O19 2.140292 1_555
Li14 O16 2.150844 1_645
Li14 O18 2.193598 1_655
Li14 O26 2.195825 1_545
Li15 O28 2.066994 1_555
Li15 O22 2.075206 1_555
Li15 O20 2.106568 1_555
Li15 O15 2.115680 1_555
Li15 O23 2.166869 1_555
Li15 O21 2.209345 1_555
Li16 O23 2.069680 1_555
Li16 O21 2.077654 1_655
Li16 O27 2.093154 1_555
Li16 O29 2.125647 1_555
Li16 O28 2.183211 1_555
Li16 O22 2.194155 1_655
Li17 O33 2.073133 1_455
Li17 O35 2.073313 1_555
Li17 O25 2.123372 1_555
Li17 O22 2.123579 1_555
Li17 O29 2.124525 1_455
Li17 O30 2.154645 1_555
Li18 O18 2.053494 1_555
Li18 O26 2.061021 1_545
Li18 O32 2.146321 1_555
Li18 O30 2.158020 1_545
Li18 O24 2.182215 1_555
Li18 O25 2.206515 1_545
Li19 O30 2.045674 1_555
Li19 O32 2.048482 1_665
Li19 O31 2.145627 1_565
Li19 O33 2.162710 1_555
Li19 O25 2.222243 1_655
Li19 O24 2.232285 1_565
Li20 O31 2.080931 1_555
Li20 O24 2.108329 1_555
Li20 O28 2.108966 1_555
Li20 O27 2.110955 1_555
Li20 O34 2.111210 1_555
Li20 O32 2.153143 1_555
Li21 O1 2.067526 1_554
Li21 O0 2.068278 1_554
Li21 O29 2.119640 1_555
Li21 O27 2.153689 1_555
Li21 O35 2.201396 1_655
Li21 O34 2.227281 1_555
Li22 O27 2.042060 1_455
Li22 O29 2.047320 1_555
Li22 O35 2.184437 1_555
Li22 O34 2.188697 1_555
Li22 O22 2.197646 1_555
Li22 O28 2.209200 1_555
Li23 O4 2.058339 1_554
Li23 O2 2.063196 1_564
Li23 O30 2.149397 1_555
Li23 O32 2.153612 1_565
Li23 O33 2.201412 1_455
Li23 O31 2.229640 1_565
Mn0 O33 1.921922 1_556
Mn0 O35 1.928555 1_656
Mn0 O1 1.945507 1_555
Mn0 O4 1.951976 1_655
Mn0 O8 1.952242 1_655
Mn0 O3 1.953723 1_555
Cr0 O0 1.912449 1_555
Cr0 O5 1.914016 1_555
Cr0 O31 1.935723 1_556
Cr0 O34 1.948118 1_556
Cr0 O2 1.979398 1_555
Cr0 O6 2.010997 1_555
Cr1 O9 1.935810 1_555
Cr1 O6 1.936007 1_555
Cr1 O10 1.940116 1_555
Cr1 O13 1.957104 1_555
Cr1 O12 1.960675 1_555
Cr1 O5 1.968480 1_555
Cr2 O16 1.921601 1_555
Cr2 O14 1.926556 1_455
Cr2 O11 1.942591 1_555
Cr2 O7 1.957234 1_555
Cr2 O17 1.972870 1_555
Cr2 O15 1.976499 1_555
Cr3 O7 1.930462 1_555
Cr3 O3 1.939793 1_555
Cr3 O17 1.943064 1_555
Cr3 O11 1.952894 1_655
Cr3 O14 1.958599 1_555
Cr3 O8 1.974614 1_655
Cr4 O12 1.916278 1_655
Cr4 O19 1.917335 1_555
Cr4 O13 1.947623 1_555
Cr4 O10 1.950893 1_655
Cr4 O20 1.985993 1_555
Cr4 O9 1.986468 1_555
Cr5 O22 1.869893 1_555
Cr5 O25 1.888448 1_555
Cr5 O15 1.969574 1_555
Cr5 O26 1.991223 1_555
Cr5 O23 1.992273 1_455
Cr5 O16 1.993842 1_555
Cr6 O21 1.867564 1_555
Cr6 O18 1.893331 1_555
Cr6 O27 1.956079 1_455
Cr6 O24 1.988935 1_455
Cr6 O28 1.993415 1_555
Cr6 O32 2.000273 1_555
Cr7 O28 1.873267 1_555
Cr7 O24 1.893239 1_555
Cr7 O20 1.950284 1_555
Cr7 O18 1.985217 1_555
Cr7 O21 1.995640 1_655
Cr7 O19 2.001414 1_555
Cr8 O23 1.880623 1_555
Cr8 O26 1.890877 1_555
Cr8 O29 1.966588 1_555
Cr8 O30 1.985971 1_555
Cr8 O25 1.989571 1_655
Cr8 O22 1.990948 1_555
Cr9 O32 1.909364 1_555
Cr9 O2 1.929795 1_554
Cr9 O34 1.933046 1_555
Cr9 O0 1.958742 1_454
Cr9 O31 1.971808 1_455
Cr9 O27 1.992820 1_455
Cr10 O4 1.919627 1_554
Cr10 O1 1.920251 1_554
Cr10 O30 1.939553 1_555
Cr10 O35 1.964385 1_555
Cr10 O29 1.982896 1_555
Cr10 O33 1.989414 1_555
