# generated using pymatgen
data_BiH3Ru3(CO)9
_symmetry_space_group_name_H-M   'P 1'
_cell_length_a   8.32366900
_cell_length_b   9.37787473
_cell_length_c   12.68639846
_cell_angle_alpha   87.94481996
_cell_angle_beta   108.11970541
_cell_angle_gamma   111.22675955
_symmetry_Int_Tables_number   1
_chemical_formula_structural   BiH3Ru3(CO)9
_chemical_formula_sum   'Bi2 H6 Ru6 C18 O18'
_cell_volume   874.01853571
_cell_formula_units_Z   2
loop_
 _symmetry_equiv_pos_site_id
 _symmetry_equiv_pos_as_xyz
  1  'x, y, z'
loop_
 _atom_site_type_symbol
 _atom_site_label
 _atom_site_symmetry_multiplicity
 _atom_site_fract_x
 _atom_site_fract_y
 _atom_site_fract_z
 _atom_site_occupancy
  Bi  Bi0  1  0.49284500  0.21508700  0.59714900  1
  Bi  Bi1  1  0.50715500  0.78491300  0.40285100  1
  H  H0  1  0.50748900  0.14549100  0.85882500  1
  H  H1  1  0.49251100  0.85450900  0.14117500  1
  H  H2  1  0.34314300  0.31425200  0.79472000  1
  H  H3  1  0.65685700  0.68574800  0.20528000  1
  H  H4  1  0.66224700  0.40609100  0.85289900  1
  H  H5  1  0.33775300  0.59390900  0.14710100  1
  Ru  Ru0  1  0.29848300  0.11978400  0.74925500  1
  Ru  Ru1  1  0.70151700  0.88021600  0.25074500  1
  Ru  Ru2  1  0.70932500  0.24082700  0.82090800  1
  Ru  Ru3  1  0.29067500  0.75917300  0.17909200  1
  Ru  Ru4  1  0.50853700  0.45329700  0.73464000  1
  Ru  Ru5  1  0.49146300  0.54670300  0.26536000  1
  C  C0  1  0.21274600  0.09267200  0.87598800  1
  C  C1  1  0.78725400  0.90732800  0.12401200  1
  C  C2  1  0.08042200  0.11027500  0.63822500  1
  C  C3  1  0.91957800  0.88972500  0.36177500  1
  C  C4  1  0.26485600  0.91253600  0.71277300  1
  C  C5  1  0.73514400  0.08746400  0.28722700  1
  C  C6  1  0.72619700  0.05010900  0.79224200  1
  C  C7  1  0.27380300  0.94989100  0.20775800  1
  C  C8  1  0.82751800  0.27157200  0.98082500  1
  C  C9  1  0.17248200  0.72842800  0.01917500  1
  C  C10  1  0.91662300  0.35714400  0.77841100  1
  C  C11  1  0.08337700  0.64285600  0.22158900  1
  C  C12  1  0.69866300  0.60038200  0.68999300  1
  C  C13  1  0.30133700  0.39961800  0.31000700  1
  C  C14  1  0.50594400  0.57991300  0.85042100  1
  C  C15  1  0.49405600  0.42008700  0.14957900  1
  C  C16  1  0.32077000  0.48405100  0.61455700  1
  C  C17  1  0.67923000  0.51594900  0.38544300  1
  O  O0  1  0.15329200  0.07639000  0.94899200  1
  O  O1  1  0.84670800  0.92361000  0.05100800  1
  O  O2  1  0.94457800  0.10723000  0.57344800  1
  O  O3  1  0.05542200  0.89277000  0.42655200  1
  O  O4  1  0.24571900  0.78646200  0.69342700  1
  O  O5  1  0.75428100  0.21353800  0.30657300  1
  O  O6  1  0.73664600  0.93325300  0.77663500  1
  O  O7  1  0.26335400  0.06674700  0.22336500  1
  O  O8  1  0.90735000  0.29037000  0.07554200  1
  O  O9  1  0.09265000  0.70963000  0.92445800  1
  O  O10  1  0.04332300  0.43111200  0.75387200  1
  O  O11  1  0.95667700  0.56888800  0.24612800  1
  O  O12  1  0.81523800  0.69226200  0.66506900  1
  O  O13  1  0.18476200  0.30773800  0.33493100  1
  O  O14  1  0.49549700  0.65417800  0.91711900  1
  O  O15  1  0.50450300  0.34582200  0.08288100  1
  O  O16  1  0.20574000  0.50286800  0.54280400  1
  O  O17  1  0.79426000  0.49713200  0.45719600  1
loop_
_geom_bond_atom_site_label_1
_geom_bond_atom_site_label_2
_geom_bond_distance
_geom_bond_site_symmetry_2
Bi0 Ru0 2.812619 1_555
Bi0 Ru2 2.813523 1_555
Bi0 Ru4 2.824239 1_555
Bi1 Ru1 2.812619 1_555
Bi1 Ru3 2.813523 1_555
Bi1 Ru5 2.824239 1_555
H0 Ru0 1.798072 1_555
H0 Ru2 1.799263 1_555
H1 Ru1 1.798072 1_555
H1 Ru3 1.799263 1_555
H2 Ru0 1.802197 1_555
H2 Ru4 1.859568 1_555
H3 Ru1 1.802197 1_555
H3 Ru5 1.859568 1_555
H4 Ru4 1.803418 1_555
H4 Ru2 1.817700 1_555
H5 Ru5 1.803418 1_555
H5 Ru3 1.817700 1_555
C0 O0 1.160263 1_555
C0 Ru0 1.926625 1_555
C1 O1 1.160263 1_555
C1 Ru1 1.926625 1_555
C2 O2 1.164047 1_455
C2 Ru0 1.894214 1_555
C3 O3 1.164047 1_655
C3 Ru1 1.894214 1_555
C4 O4 1.159129 1_555
C4 Ru0 1.913097 1_565
C5 O5 1.159129 1_555
C5 Ru1 1.913097 1_545
C6 O6 1.158865 1_545
C6 Ru2 1.900293 1_555
C7 O7 1.158865 1_565
C7 Ru3 1.900293 1_555
C8 O8 1.161995 1_556
C8 Ru2 1.939586 1_555
C9 O9 1.161995 1_554
C9 Ru3 1.939586 1_555
C10 O10 1.161586 1_655
C10 Ru2 1.905608 1_555
C11 O11 1.161586 1_455
C11 Ru3 1.905608 1_555
C12 O12 1.161820 1_555
C12 Ru4 1.910160 1_555
C13 O13 1.161820 1_555
C13 Ru5 1.910160 1_555
C14 O14 1.157787 1_555
C14 Ru4 1.931639 1_555
C15 O15 1.157787 1_555
C15 Ru5 1.931639 1_555
C16 O16 1.159834 1_555
C16 Ru4 1.913266 1_555
C17 O17 1.159834 1_555
C17 Ru5 1.913266 1_555
