# generated using pymatgen
data_NaLi2CoPCO7
_symmetry_space_group_name_H-M   'P 1'
_cell_length_a   8.33260373
_cell_length_b   8.52704782
_cell_length_c   8.33072373
_cell_angle_alpha   86.90672590
_cell_angle_beta   75.19653321
_cell_angle_gamma   93.05640785
_symmetry_Int_Tables_number   1
_chemical_formula_structural   NaLi2CoPCO7
_chemical_formula_sum   'Na4 Li8 Co4 P4 C4 O28'
_cell_volume   570.05580200
_cell_formula_units_Z   4
loop_
 _symmetry_equiv_pos_site_id
 _symmetry_equiv_pos_as_xyz
  1  'x, y, z'
loop_
 _atom_site_type_symbol
 _atom_site_label
 _atom_site_symmetry_multiplicity
 _atom_site_fract_x
 _atom_site_fract_y
 _atom_site_fract_z
 _atom_site_occupancy
  Na  Na0  1  0.10559300  0.26604800  0.37804200  1
  Na  Na1  1  0.60636600  0.26360300  0.87626000  1
  Na  Na2  1  0.12803500  0.73547400  0.85601300  1
  Na  Na3  1  0.62621400  0.73506700  0.35624700  1
  Li  Li0  1  0.72231500  0.10399100  0.50722200  1
  Li  Li1  1  0.22217100  0.10322000  0.00828800  1
  Li  Li2  1  0.25750900  0.89699100  0.47223000  1
  Li  Li3  1  0.75806600  0.89558100  0.97244400  1
  Li  Li4  1  0.36942300  0.27250400  0.63678000  1
  Li  Li5  1  0.87369000  0.27381900  0.13471800  1
  Li  Li6  1  0.88429600  0.72843400  0.62257400  1
  Li  Li7  1  0.38753600  0.72502700  0.12029900  1
  Co  Co0  1  0.48167600  0.33656900  0.26952300  1
  Co  Co1  1  0.52058500  0.65911800  0.72995300  1
  Co  Co2  1  0.97997500  0.34083100  0.77029300  1
  Co  Co3  1  0.01959500  0.66364500  0.23176600  1
  P  P0  1  0.75997700  0.41124000  0.48768500  1
  P  P1  1  0.25946100  0.41105500  0.98918600  1
  P  P2  1  0.23853300  0.58968500  0.50943100  1
  P  P3  1  0.73839000  0.58813300  0.00987300  1
  C  C0  1  0.02458100  0.04594300  0.71583500  1
  C  C1  1  0.52522700  0.04474100  0.21501600  1
  C  C2  1  0.96475300  0.95520200  0.27517400  1
  C  C3  1  0.46580300  0.95397000  0.77471700  1
  O  O0  1  0.91329100  0.09406300  0.30230100  1
  O  O1  1  0.41192000  0.09204300  0.80271100  1
  O  O2  1  0.05275600  0.90775300  0.66252700  1
  O  O3  1  0.55258100  0.90620600  0.16248500  1
  O  O4  1  0.90053700  0.06980300  0.84016000  1
  O  O5  1  0.40167800  0.07023800  0.33925400  1
  O  O6  1  0.08823700  0.92893300  0.15113100  1
  O  O7  1  0.59039300  0.93038400  0.65079000  1
  O  O8  1  0.12389000  0.16802100  0.64256300  1
  O  O9  1  0.62442300  0.16642200  0.14122200  1
  O  O10  1  0.89067400  0.83389000  0.37492000  1
  O  O11  1  0.39286100  0.83184700  0.87410200  1
  O  O12  1  0.61137600  0.30974500  0.45486000  1
  O  O13  1  0.11083400  0.31023000  0.95582500  1
  O  O14  1  0.20456000  0.69160800  0.36164500  1
  O  O15  1  0.70661200  0.68864900  0.86003300  1
  O  O16  1  0.81882600  0.30344000  0.61615700  1
  O  O17  1  0.31848700  0.30281000  0.11722500  1
  O  O18  1  0.36675100  0.69752800  0.56847300  1
  O  O19  1  0.86623000  0.69616000  0.06912700  1
  O  O20  1  0.30478500  0.42946600  0.45752400  1
  O  O21  1  0.80401300  0.42709800  0.95960100  1
  O  O22  1  0.70893300  0.57200200  0.55367600  1
  O  O23  1  0.20817700  0.57154200  0.05497600  1
  O  O24  1  0.90147100  0.44031000  0.32327800  1
  O  O25  1  0.40195800  0.43926600  0.82506000  1
  O  O26  1  0.07478400  0.56065800  0.65214200  1
  O  O27  1  0.57344100  0.55999100  0.15089500  1
loop_
_geom_bond_atom_site_label_1
_geom_bond_atom_site_label_2
_geom_bond_distance
_geom_bond_site_symmetry_2
Na0 O0 2.341447 1_455
Na0 O20 2.355768 1_555
Na0 O8 2.358920 1_555
Na0 O17 2.421523 1_555
Na0 O24 2.429402 1_455
Na0 O16 2.733809 1_455
Na1 O1 2.343493 1_555
Na1 O9 2.359495 1_556
Na1 O21 2.362602 1_555
Na1 O16 2.416797 1_555
Na1 O25 2.429200 1_555
Na1 O17 2.755521 1_556
Na2 O2 2.347138 1_555
Na2 O11 2.357419 1_555
Na2 O23 2.358470 1_556
Na2 O26 2.427201 1_555
Na2 O19 2.429412 1_456
Na2 O18 2.741674 1_555
Na3 O3 2.336442 1_555
Na3 O22 2.355481 1_555
Na3 O10 2.362545 1_555
Na3 O18 2.411300 1_555
Na3 O27 2.436945 1_555
Na3 O19 2.746459 1_555
Li0 O7 1.947776 1_545
Li0 O0 2.023750 1_555
Li0 O12 2.102240 1_555
Li0 O16 2.180909 1_555
Li1 O6 1.955465 1_545
Li1 O1 2.022859 1_554
Li1 O13 2.113324 1_554
Li1 O17 2.181156 1_555
Li2 O5 1.951098 1_565
Li2 O2 2.020582 1_555
Li2 O14 2.099973 1_555
Li2 O18 2.180627 1_555
Li3 O4 1.948717 1_565
Li3 O3 2.023161 1_556
Li3 O15 2.115927 1_555
Li3 O19 2.176979 1_556
Li4 O1 2.117262 1_555
Li4 O20 2.140954 1_555
Li4 O8 2.175437 1_555
Li4 O12 2.186490 1_555
Li4 O25 2.229946 1_555
Li5 O0 2.113241 1_555
Li5 O21 2.116976 1_554
Li5 O13 2.145198 1_654
Li5 O9 2.211333 1_555
Li5 O24 2.219924 1_555
Li6 O2 2.117546 1_655
Li6 O22 2.132438 1_555
Li6 O15 2.144249 1_555
Li6 O10 2.192401 1_555
Li6 O26 2.242922 1_655
Li7 O3 2.116749 1_555
Li7 O23 2.127564 1_555
Li7 O14 2.184862 1_555
Li7 O11 2.187647 1_554
Li7 O27 2.200119 1_555
Co0 O20 2.081279 1_555
Co0 O9 2.088998 1_555
Co0 O17 2.102596 1_555
Co0 O12 2.108356 1_555
Co0 O27 2.108592 1_555
Co0 O5 2.331873 1_555
Co1 O22 2.058100 1_555
Co1 O25 2.088341 1_555
Co1 O18 2.106765 1_555
Co1 O11 2.109277 1_555
Co1 O15 2.118185 1_555
Co1 O7 2.370561 1_555
Co2 O21 2.058317 1_555
Co2 O26 2.086191 1_655
Co2 O16 2.105514 1_555
Co2 O8 2.108861 1_655
Co2 O13 2.119909 1_655
Co2 O4 2.369131 1_555
Co3 O23 2.080611 1_555
Co3 O10 2.093351 1_455
Co3 O19 2.104226 1_455
Co3 O24 2.106341 1_455
Co3 O14 2.108028 1_555
Co3 O6 2.323205 1_555
C0 O2 1.293658 1_545
C0 O4 1.296369 1_455
C0 O8 1.312408 1_555
C1 O3 1.293234 1_545
C1 O5 1.296914 1_555
C1 O9 1.310628 1_555
C2 O0 1.292473 1_565
C2 O6 1.297291 1_655
C2 O10 1.310952 1_555
C3 O1 1.294078 1_565
C3 O7 1.296554 1_555
C3 O11 1.312108 1_555
O12 P0 1.562466 1_555
O13 P1 1.561499 1_555
O14 P2 1.562081 1_555
O15 P3 1.562235 1_556
O16 P0 1.562358 1_555
O17 P1 1.562644 1_554
O18 P2 1.562561 1_555
O19 P3 1.562071 1_555
O20 P2 1.542867 1_555
O21 P3 1.544363 1_556
O22 P0 1.544771 1_555
O23 P1 1.542518 1_554
O24 P0 1.560261 1_555
O25 P1 1.562571 1_555
O26 P2 1.561964 1_555
O27 P3 1.560821 1_555
