# generated using pymatgen
data_Mn3OF5
_symmetry_space_group_name_H-M   'P 1'
_cell_length_a   3.22193800
_cell_length_b   4.95099200
_cell_length_c   14.80539405
_cell_angle_alpha   87.50723286
_cell_angle_beta   90.00000000
_cell_angle_gamma   90.00000000
_symmetry_Int_Tables_number   1
_chemical_formula_structural   Mn3OF5
_chemical_formula_sum   'Mn6 O2 F10'
_cell_volume   235.94904047
_cell_formula_units_Z   2
loop_
 _symmetry_equiv_pos_site_id
 _symmetry_equiv_pos_as_xyz
  1  'x, y, z'
loop_
 _atom_site_type_symbol
 _atom_site_label
 _atom_site_symmetry_multiplicity
 _atom_site_fract_x
 _atom_site_fract_y
 _atom_site_fract_z
 _atom_site_occupancy
  Mn  Mn0  1  0.00000000  0.00000000  0.00000000  1
  Mn  Mn1  1  0.00000000  0.01579200  0.32778700  1
  Mn  Mn2  1  0.00000000  0.98420800  0.67221300  1
  Mn  Mn3  1  0.50000000  0.47614000  0.17474300  1
  Mn  Mn4  1  0.50000000  0.50000000  0.50000000  1
  Mn  Mn5  1  0.50000000  0.52386000  0.82525700  1
  O  O0  1  0.00000000  0.69709400  0.76651900  1
  O  O1  1  0.00000000  0.30290600  0.23348100  1
  F  F0  1  0.50000000  0.81190800  0.26827000  1
  F  F1  1  0.50000000  0.80435500  0.59912800  1
  F  F2  1  0.50000000  0.79946500  0.93791400  1
  F  F3  1  0.00000000  0.68103200  0.10708700  1
  F  F4  1  0.00000000  0.70726200  0.43091100  1
  F  F5  1  0.00000000  0.29273800  0.56908900  1
  F  F6  1  0.00000000  0.31896800  0.89291300  1
  F  F7  1  0.50000000  0.20053500  0.06208600  1
  F  F8  1  0.50000000  0.19564500  0.40087200  1
  F  F9  1  0.50000000  0.18809200  0.73173000  1
loop_
_geom_bond_atom_site_label_1
_geom_bond_atom_site_label_2
_geom_bond_distance
_geom_bond_site_symmetry_2
Mn1 O1 1.948716 1_555
Mn2 O0 1.948716 1_555
Mn3 O1 2.005549 1_555
Mn3 O1 2.005549 1_655
Mn5 O0 2.005549 1_555
Mn5 O0 2.005549 1_655
F0 Mn1 2.113765 1_565
F0 Mn1 2.113765 1_665
F0 Mn3 2.209336 1_555
F1 Mn4 2.148705 1_555
F1 Mn2 2.154710 1_655
F1 Mn2 2.154710 1_555
F2 Mn0 2.122568 1_566
F2 Mn0 2.122568 1_666
F2 Mn5 2.200427 1_555
F3 Mn3 2.130546 1_455
F3 Mn3 2.130546 1_555
F3 Mn0 2.188562 1_565
F4 Mn1 2.112242 1_565
F4 Mn4 2.145509 1_555
F4 Mn4 2.145509 1_455
F5 Mn2 2.112242 1_545
F5 Mn4 2.145509 1_555
F5 Mn4 2.145509 1_455
F6 Mn5 2.130546 1_555
F6 Mn5 2.130546 1_455
F6 Mn0 2.188562 1_556
F7 Mn0 2.122568 1_655
F7 Mn0 2.122568 1_555
F7 Mn3 2.200427 1_555
F8 Mn4 2.148705 1_555
F8 Mn1 2.154710 1_655
F8 Mn1 2.154710 1_555
F9 Mn2 2.113765 1_545
F9 Mn2 2.113765 1_645
F9 Mn5 2.209336 1_555
