# generated using pymatgen
data_Li4Ti2Nb3Cr3O16
_symmetry_space_group_name_H-M   'P 1'
_cell_length_a   6.05401773
_cell_length_b   6.05401773
_cell_length_c   9.75156805
_cell_angle_alpha   89.64802920
_cell_angle_beta   89.64802920
_cell_angle_gamma   59.47672787
_symmetry_Int_Tables_number   1
_chemical_formula_structural   Li4Ti2Nb3Cr3O16
_chemical_formula_sum   'Li4 Ti2 Nb3 Cr3 O16'
_cell_volume   307.87001721
_cell_formula_units_Z   1
loop_
 _symmetry_equiv_pos_site_id
 _symmetry_equiv_pos_as_xyz
  1  'x, y, z'
loop_
 _atom_site_type_symbol
 _atom_site_label
 _atom_site_symmetry_multiplicity
 _atom_site_fract_x
 _atom_site_fract_y
 _atom_site_fract_z
 _atom_site_occupancy
  Li  Li0  1  0.66738700  0.66738700  0.90447200  1
  Li  Li1  1  0.00988700  0.00988700  0.99257700  1
  Li  Li2  1  0.00621800  0.00621800  0.49536600  1
  Li  Li3  1  0.33404000  0.33404000  0.38610100  1
  Ti  Ti0  1  0.66280400  0.66280400  0.48846600  1
  Ti  Ti1  1  0.32918400  0.32918400  0.99626500  1
  Nb  Nb0  1  0.83238300  0.83238300  0.21795500  1
  Nb  Nb1  1  0.63739500  0.18662900  0.71330800  1
  Nb  Nb2  1  0.18662900  0.63739500  0.71330800  1
  Cr  Cr0  1  0.83026900  0.34160100  0.21435400  1
  Cr  Cr1  1  0.34160100  0.83026900  0.21435400  1
  Cr  Cr2  1  0.16552400  0.16552400  0.71098400  1
  O  O0  1  0.82702500  0.33453400  0.59684700  1
  O  O1  1  0.52376000  0.52376000  0.34103700  1
  O  O2  1  0.66996100  0.66996100  0.10630400  1
  O  O3  1  0.00316300  0.00316300  0.31130900  1
  O  O4  1  0.00167300  0.00167300  0.80831500  1
  O  O5  1  0.33453400  0.82702500  0.59684700  1
  O  O6  1  0.95991800  0.52024200  0.34092200  1
  O  O7  1  0.52024200  0.95991800  0.34092200  1
  O  O8  1  0.16949200  0.16949200  0.09762300  1
  O  O9  1  0.83141000  0.83141000  0.59137200  1
  O  O10  1  0.48034800  0.04246400  0.84115100  1
  O  O11  1  0.04246400  0.48034800  0.84115100  1
  O  O12  1  0.31851500  0.31851500  0.58623900  1
  O  O13  1  0.66951600  0.16119000  0.09974500  1
  O  O14  1  0.48389800  0.48389800  0.86080800  1
  O  O15  1  0.16119000  0.66951600  0.09974500  1
loop_
_geom_bond_atom_site_label_1
_geom_bond_atom_site_label_2
_geom_bond_distance
_geom_bond_site_symmetry_2
Li0 O2 1.968556 1_556
Li0 O14 1.978465 1_555
Li0 O11 2.049201 1_655
Li0 O10 2.049201 1_565
Li1 O4 1.799528 1_555
Li1 O8 1.972130 1_556
Li1 O13 2.060419 1_456
Li1 O15 2.060419 1_546
Li2 O3 1.795359 1_555
Li2 O0 1.981806 1_455
Li2 O5 1.981806 1_545
Li2 O9 2.056635 1_445
Li3 O12 1.957322 1_555
Li3 O6 2.001867 1_455
Li3 O7 2.001867 1_545
Li3 O1 2.039399 1_555
Nb0 O3 2.018813 1_665
Nb0 O6 2.026449 1_555
Nb0 O7 2.026449 1_555
Nb0 O2 2.031663 1_555
Nb0 O13 2.062902 1_565
Nb0 O15 2.062902 1_655
Nb1 O10 2.008693 1_555
Nb1 O12 2.085978 1_555
Nb1 O0 2.103608 1_555
Nb1 O4 2.116528 1_655
Nb1 O14 2.118454 1_555
Nb1 O9 2.206048 1_545
Nb2 O11 2.008693 1_555
Nb2 O12 2.085978 1_555
Nb2 O5 2.103608 1_555
Nb2 O4 2.116528 1_565
Nb2 O14 2.118454 1_555
Nb2 O9 2.206048 1_455
Cr0 O3 1.999361 1_655
Cr0 O2 2.007719 1_555
Cr0 O1 2.023731 1_555
Cr0 O6 2.049291 1_555
Cr0 O8 2.100290 1_655
Cr0 O13 2.120657 1_555
Cr1 O3 1.999361 1_565
Cr1 O2 2.007719 1_555
Cr1 O1 2.023731 1_555
Cr1 O7 2.049291 1_555
Cr1 O8 2.100290 1_565
Cr1 O15 2.120657 1_555
Cr2 O4 1.960911 1_555
Cr2 O12 2.009781 1_555
Cr2 O0 2.090314 1_455
Cr2 O5 2.090314 1_545
Cr2 O10 2.091565 1_555
Cr2 O11 2.091565 1_555
O0 Ti0 2.008760 1_555
O1 Ti0 2.057559 1_555
O5 Ti0 2.008760 1_555
O6 Ti0 2.111154 1_555
O7 Ti0 2.111154 1_555
O8 Ti1 1.942210 1_554
O9 Ti0 2.043126 1_555
O10 Ti1 2.130767 1_555
O11 Ti1 2.130767 1_555
O13 Ti1 2.045037 1_554
O14 Ti1 2.088098 1_555
O15 Ti1 2.045037 1_554
