# generated using pymatgen
data_Li4Cr3Cu3(TeO8)2
_symmetry_space_group_name_H-M   'P 1'
_cell_length_a   5.97263211
_cell_length_b   5.97263211
_cell_length_c   9.76651371
_cell_angle_alpha   87.20187520
_cell_angle_beta   87.20187520
_cell_angle_gamma   58.96833039
_symmetry_Int_Tables_number   1
_chemical_formula_structural   Li4Cr3Cu3(TeO8)2
_chemical_formula_sum   'Li4 Cr3 Cu3 Te2 O16'
_cell_volume   298.06320509
_cell_formula_units_Z   1
loop_
 _symmetry_equiv_pos_site_id
 _symmetry_equiv_pos_as_xyz
  1  'x, y, z'
loop_
 _atom_site_type_symbol
 _atom_site_label
 _atom_site_symmetry_multiplicity
 _atom_site_fract_x
 _atom_site_fract_y
 _atom_site_fract_z
 _atom_site_occupancy
  Li  Li0  1  0.66408100  0.66408100  0.91405400  1
  Li  Li1  1  0.99800500  0.99800500  0.98722700  1
  Li  Li2  1  0.00405500  0.00405500  0.47988600  1
  Li  Li3  1  0.34200200  0.34200200  0.41386500  1
  Cr  Cr0  1  0.82744500  0.82744500  0.21436500  1
  Cr  Cr1  1  0.65945100  0.16757300  0.71266500  1
  Cr  Cr2  1  0.16757300  0.65945100  0.71266500  1
  Cu  Cu0  1  0.82821800  0.33695700  0.20962200  1
  Cu  Cu1  1  0.33695700  0.82821800  0.20962200  1
  Cu  Cu2  1  0.16822400  0.16822400  0.71116500  1
  Te  Te0  1  0.67159200  0.67159200  0.48451100  1
  Te  Te1  1  0.32625700  0.32625700  0.98281500  1
  O  O0  1  0.82949500  0.33725300  0.58808100  1
  O  O1  1  0.52898900  0.52898900  0.35427800  1
  O  O2  1  0.66664100  0.66664100  0.11956700  1
  O  O3  1  0.99817500  0.99817500  0.29166600  1
  O  O4  1  0.99775500  0.99775500  0.80009000  1
  O  O5  1  0.33725300  0.82949500  0.58808100  1
  O  O6  1  0.97781200  0.53822900  0.36049500  1
  O  O7  1  0.53822900  0.97781200  0.36049500  1
  O  O8  1  0.15946400  0.15946400  0.08524900  1
  O  O9  1  0.83053200  0.83053200  0.59909700  1
  O  O10  1  0.48895800  0.03404900  0.85119600  1
  O  O11  1  0.03404900  0.48895800  0.85119600  1
  O  O12  1  0.33505800  0.33505800  0.61415800  1
  O  O13  1  0.64644400  0.16025600  0.08495200  1
  O  O14  1  0.47875100  0.47875100  0.84192100  1
  O  O15  1  0.16025600  0.64644400  0.08495200  1
loop_
_geom_bond_atom_site_label_1
_geom_bond_atom_site_label_2
_geom_bond_distance
_geom_bond_site_symmetry_2
Li0 O10 1.975074 1_565
Li0 O11 1.975074 1_655
Li0 O2 2.008814 1_556
Li0 O14 2.088617 1_555
Li1 O4 1.827824 1_555
Li1 O8 1.978746 1_666
Li1 O13 2.013871 1_566
Li1 O15 2.013871 1_656
Li2 O3 1.842693 1_445
Li2 O0 2.030398 1_455
Li2 O5 2.030398 1_545
Li2 O9 2.091781 1_445
Li3 O6 1.949182 1_455
Li3 O7 1.949182 1_545
Li3 O12 1.953446 1_555
Li3 O1 1.998053 1_555
Cr0 O2 1.956190 1_555
Cr0 O3 1.967730 1_555
Cr0 O6 2.027863 1_555
Cr0 O7 2.027863 1_555
Cr0 O15 2.095211 1_655
Cr0 O13 2.095211 1_565
Cr1 O12 1.941610 1_555
Cr1 O4 1.952275 1_545
Cr1 O10 2.025052 1_555
Cr1 O14 2.059267 1_555
Cr1 O9 2.076824 1_545
Cr1 O0 2.087857 1_555
Cr2 O12 1.941610 1_555
Cr2 O4 1.952275 1_455
Cr2 O11 2.025052 1_555
Cr2 O14 2.059267 1_555
Cr2 O9 2.076824 1_455
Cr2 O5 2.087857 1_555
Cu0 O2 1.880620 1_555
Cu0 O3 1.889480 1_545
Cu0 O8 2.059638 1_655
Cu0 O1 2.074551 1_555
Cu0 O13 2.282732 1_555
Cu0 O6 2.413186 1_555
Cu1 O2 1.880620 1_555
Cu1 O3 1.889480 1_455
Cu1 O8 2.059638 1_565
Cu1 O1 2.074551 1_555
Cu1 O15 2.282732 1_555
Cu1 O7 2.413186 1_555
Cu2 O12 1.929438 1_555
Cu2 O4 1.929675 1_445
Cu2 O0 2.137839 1_455
Cu2 O5 2.137839 1_545
Cu2 O10 2.179040 1_555
Cu2 O11 2.179040 1_555
O0 Te0 1.963261 1_555
O1 Te0 2.007009 1_555
O5 Te0 1.963261 1_555
O6 Te0 1.955098 1_555
O7 Te0 1.955098 1_555
O8 Te1 1.953005 1_554
O9 Te0 2.047255 1_555
O10 Te1 1.997779 1_555
O11 Te1 1.997779 1_555
O13 Te1 1.941649 1_554
O14 Te1 2.040373 1_555
O15 Te1 1.941649 1_554
