# generated using pymatgen
data_Sm2Pb2O7
_symmetry_space_group_name_H-M   'P 1'
_cell_length_a   7.17776200
_cell_length_b   7.59562800
_cell_length_c   12.68907688
_cell_angle_alpha   79.01141673
_cell_angle_beta   90.00000000
_cell_angle_gamma   90.00000000
_symmetry_Int_Tables_number   1
_chemical_formula_structural   Sm2Pb2O7
_chemical_formula_sum   'Sm8 Pb8 O28'
_cell_volume   679.11943330
_cell_formula_units_Z   4
loop_
 _symmetry_equiv_pos_site_id
 _symmetry_equiv_pos_as_xyz
  1  'x, y, z'
loop_
 _atom_site_type_symbol
 _atom_site_label
 _atom_site_symmetry_multiplicity
 _atom_site_fract_x
 _atom_site_fract_y
 _atom_site_fract_z
 _atom_site_occupancy
  Sm  Sm0  1  0.89929900  0.52766300  0.64427900  1
  Sm  Sm1  1  0.39929900  0.47233700  0.85572100  1
  Sm  Sm2  1  0.68566800  0.72952900  0.38711600  1
  Sm  Sm3  1  0.18566800  0.27047100  0.11288400  1
  Sm  Sm4  1  0.81433200  0.72952900  0.88711600  1
  Sm  Sm5  1  0.31433200  0.27047100  0.61288400  1
  Sm  Sm6  1  0.60070100  0.52766300  0.14427900  1
  Sm  Sm7  1  0.10070100  0.47233700  0.35572100  1
  Pb  Pb0  1  0.88532700  0.23295000  0.89805200  1
  Pb  Pb1  1  0.38532700  0.76705000  0.60194800  1
  Pb  Pb2  1  0.11099600  0.94264600  0.38807600  1
  Pb  Pb3  1  0.61099600  0.05735400  0.11192400  1
  Pb  Pb4  1  0.38900400  0.94264600  0.88807600  1
  Pb  Pb5  1  0.88900400  0.05735400  0.61192400  1
  Pb  Pb6  1  0.61467300  0.23295000  0.39805200  1
  Pb  Pb7  1  0.11467300  0.76705000  0.10194800  1
  O  O0  1  0.68911700  0.00153200  0.93507000  1
  O  O1  1  0.23480500  0.53075100  0.67621000  1
  O  O2  1  0.11589400  0.39309000  0.93246100  1
  O  O3  1  0.03572400  0.78514900  0.26268500  1
  O  O4  1  0.60645800  0.80222900  0.20603300  1
  O  O5  1  0.61589400  0.60691000  0.56753900  1
  O  O6  1  0.99375800  0.68204700  0.46894100  1
  O  O7  1  0.73480500  0.46924900  0.82379000  1
  O  O8  1  0.39253000  0.84419800  0.42388000  1
  O  O9  1  0.46427600  0.78514900  0.76268500  1
  O  O10  1  0.18911700  0.99846800  0.56493000  1
  O  O11  1  0.89354200  0.80222900  0.70603300  1
  O  O12  1  0.89253000  0.15580200  0.07612000  1
  O  O13  1  0.50624200  0.68204700  0.96894100  1
  O  O14  1  0.49375800  0.31795300  0.03105900  1
  O  O15  1  0.10747000  0.84419800  0.92388000  1
  O  O16  1  0.10645800  0.19777100  0.29396700  1
  O  O17  1  0.81088300  0.00153200  0.43507000  1
  O  O18  1  0.53572400  0.21485100  0.23731500  1
  O  O19  1  0.60747000  0.15580200  0.57612000  1
  O  O20  1  0.26519500  0.53075100  0.17621000  1
  O  O21  1  0.00624200  0.31795300  0.53105900  1
  O  O22  1  0.38410600  0.39309000  0.43246100  1
  O  O23  1  0.39354200  0.19777100  0.79396700  1
  O  O24  1  0.96427600  0.21485100  0.73731500  1
  O  O25  1  0.88410600  0.60691000  0.06753900  1
  O  O26  1  0.76519500  0.46924900  0.32379000  1
  O  O27  1  0.31088300  0.99846800  0.06493000  1
loop_
_geom_bond_atom_site_label_1
_geom_bond_atom_site_label_2
_geom_bond_distance
_geom_bond_site_symmetry_2
O0 Pb0 2.231381 1_555
O0 Pb4 2.301660 1_545
O0 Pb3 2.427548 1_556
O0 Sm4 2.434296 1_545
O1 Pb1 2.152191 1_555
O1 Sm5 2.342145 1_555
O1 Sm0 2.442884 1_455
O1 Sm1 2.528661 1_555
O2 Pb0 2.147444 1_455
O2 Sm1 2.285848 1_555
O2 Sm3 2.355153 1_556
O3 Pb7 2.146369 1_555
O3 Pb2 2.231643 1_555
O3 Sm7 2.487420 1_555
O3 Sm2 2.954727 1_455
O4 Pb3 2.073665 1_565
O4 Sm2 2.328999 1_555
O4 Sm6 2.363907 1_555
O5 Pb1 2.147444 1_555
O5 Sm0 2.285848 1_555
O5 Sm2 2.355153 1_555
O6 Pb2 2.214677 1_655
O6 Sm0 2.406293 1_555
O6 Sm2 2.440415 1_555
O6 Sm7 2.462292 1_655
O7 Pb0 2.152191 1_555
O7 Sm4 2.342145 1_555
O7 Sm1 2.442884 1_555
O7 Sm0 2.528661 1_555
O8 Pb2 2.172470 1_555
O8 Pb1 2.224121 1_555
O8 Sm2 2.357597 1_555
O9 Pb1 2.146369 1_555
O9 Pb4 2.231643 1_555
O9 Sm1 2.487420 1_555
O9 Sm4 2.954727 1_555
O10 Pb1 2.231381 1_555
O10 Pb5 2.301660 1_465
O10 Pb2 2.427548 1_555
O10 Sm5 2.434296 1_565
O11 Pb5 2.073665 1_565
O11 Sm4 2.328999 1_555
O11 Sm0 2.363907 1_555
O12 Pb3 2.172470 1_555
O12 Pb0 2.224121 1_554
O12 Sm3 2.357597 1_655
O13 Pb4 2.214677 1_555
O13 Sm6 2.406293 1_556
O13 Sm4 2.440415 1_555
O13 Sm1 2.462292 1_555
O14 Pb3 2.214677 1_555
O14 Sm1 2.406293 1_554
O14 Sm3 2.440415 1_555
O14 Sm6 2.462292 1_555
O15 Pb4 2.172470 1_555
O15 Pb7 2.224121 1_556
O15 Sm4 2.357597 1_455
O16 Pb2 2.073665 1_545
O16 Sm3 2.328999 1_555
O16 Sm7 2.363907 1_555
O17 Pb6 2.231381 1_555
O17 Pb2 2.301660 1_645
O17 Pb5 2.427548 1_555
O17 Sm2 2.434296 1_545
O18 Pb6 2.146369 1_555
O18 Pb3 2.231643 1_555
O18 Sm6 2.487420 1_555
O18 Sm3 2.954727 1_555
O19 Pb5 2.172470 1_555
O19 Pb6 2.224121 1_555
O19 Sm5 2.357597 1_555
O20 Pb7 2.152191 1_555
O20 Sm3 2.342145 1_555
O20 Sm6 2.442884 1_555
O20 Sm7 2.528661 1_555
O21 Pb5 2.214677 1_455
O21 Sm7 2.406293 1_555
O21 Sm5 2.440415 1_555
O21 Sm0 2.462292 1_455
O22 Pb6 2.147444 1_555
O22 Sm7 2.285848 1_555
O22 Sm5 2.355153 1_555
O23 Pb4 2.073665 1_545
O23 Sm5 2.328999 1_555
O23 Sm1 2.363907 1_555
O24 Pb0 2.146369 1_555
O24 Pb5 2.231643 1_555
O24 Sm0 2.487420 1_555
O24 Sm5 2.954727 1_655
O25 Pb7 2.147444 1_655
O25 Sm6 2.285848 1_555
O25 Sm4 2.355153 1_554
O26 Pb6 2.152191 1_555
O26 Sm2 2.342145 1_555
O26 Sm7 2.442884 1_655
O26 Sm6 2.528661 1_555
O27 Pb7 2.231381 1_555
O27 Pb3 2.301660 1_565
O27 Pb4 2.427548 1_554
O27 Sm3 2.434296 1_565
