# generated using pymatgen
data_Li2CoBO4
_symmetry_space_group_name_H-M   'P 1'
_cell_length_a   5.02602232
_cell_length_b   5.02602304
_cell_length_c   6.03497300
_cell_angle_alpha   90.00002461
_cell_angle_beta   89.99997539
_cell_angle_gamma   88.20404805
_symmetry_Int_Tables_number   1
_chemical_formula_structural   Li2CoBO4
_chemical_formula_sum   'Li4 Co2 B2 O8'
_cell_volume   152.37398717
_cell_formula_units_Z   2
loop_
 _symmetry_equiv_pos_site_id
 _symmetry_equiv_pos_as_xyz
  1  'x, y, z'
loop_
 _atom_site_type_symbol
 _atom_site_label
 _atom_site_symmetry_multiplicity
 _atom_site_fract_x
 _atom_site_fract_y
 _atom_site_fract_z
 _atom_site_occupancy
  Li  Li0  1  0.32668200  0.67331700  0.50000000  1
  Li  Li1  1  0.67331700  0.32668200  0.00000000  1
  Li  Li2  1  0.19281700  0.19281700  0.75000000  1
  Li  Li3  1  0.80718200  0.80718200  0.25000000  1
  Co  Co0  1  0.81765900  0.81765900  0.75000000  1
  Co  Co1  1  0.18233100  0.18233100  0.25000000  1
  B  B0  1  0.31492600  0.68507200  0.99999700  1
  B  B1  1  0.68507200  0.31492600  0.50000300  1
  O  O0  1  0.20562000  0.81155000  0.20556500  1
  O  O1  1  0.18845400  0.79438100  0.79443100  1
  O  O2  1  0.79438000  0.18845400  0.70556900  1
  O  O3  1  0.81155000  0.20562000  0.29443500  1
  O  O4  1  0.27799200  0.39071900  0.01050300  1
  O  O5  1  0.60928500  0.72201500  0.98950300  1
  O  O6  1  0.39071900  0.27799100  0.48949700  1
  O  O7  1  0.72201500  0.60928500  0.51049700  1
loop_
_geom_bond_atom_site_label_1
_geom_bond_atom_site_label_2
_geom_bond_distance
_geom_bond_site_symmetry_2
Li0 O1 1.995924 1_555
Li0 O0 1.995952 1_555
Li0 O6 2.003837 1_555
Li0 O7 2.003867 1_555
Li1 O2 1.995922 1_554
Li1 O3 1.995952 1_555
Li1 O4 2.003832 1_555
Li1 O5 2.003868 1_554
Li2 O6 1.915955 1_555
Li2 O4 1.915956 1_556
Li2 O1 2.021221 1_545
Li2 O2 2.021225 1_455
Li3 O5 1.915904 1_554
Li3 O7 1.915904 1_555
Li3 O0 2.021234 1_655
Li3 O3 2.021235 1_565
Co0 O5 1.857047 1_555
Co0 O7 1.857047 1_555
Co0 O1 1.882821 1_655
Co0 O2 1.882821 1_565
Co1 O6 1.857081 1_555
Co1 O4 1.857083 1_555
Co1 O3 1.882756 1_455
Co1 O0 1.882757 1_545
B0 O1 1.490988 1_555
B0 O0 1.491004 1_556
B0 O4 1.498129 1_556
B0 O5 1.498163 1_555
B1 O2 1.490986 1_555
B1 O3 1.491004 1_555
B1 O6 1.498130 1_555
B1 O7 1.498163 1_555
