# generated using pymatgen
data_Cr(PO3)5
_symmetry_space_group_name_H-M   'P 1'
_cell_length_a   9.72838700
_cell_length_b   5.21512400
_cell_length_c   13.11563781
_cell_angle_alpha   70.09582278
_cell_angle_beta   90.00000000
_cell_angle_gamma   90.00000000
_symmetry_Int_Tables_number   1
_chemical_formula_structural   Cr(PO3)5
_chemical_formula_sum   'Cr2 P10 O30'
_cell_volume   625.66863190
_cell_formula_units_Z   2
loop_
 _symmetry_equiv_pos_site_id
 _symmetry_equiv_pos_as_xyz
  1  'x, y, z'
loop_
 _atom_site_type_symbol
 _atom_site_label
 _atom_site_symmetry_multiplicity
 _atom_site_fract_x
 _atom_site_fract_y
 _atom_site_fract_z
 _atom_site_occupancy
  Cr  Cr0  1  0.99725600  0.00946600  0.99580900  1
  Cr  Cr1  1  0.00274400  0.00946600  0.49580900  1
  P  P0  1  0.52989600  0.47239300  0.14267300  1
  P  P1  1  0.82291200  0.43024600  0.08044400  1
  P  P2  1  0.53229100  0.52205100  0.36029600  1
  P  P3  1  0.98323600  0.01060400  0.24613200  1
  P  P4  1  0.01676400  0.01060400  0.74613200  1
  P  P5  1  0.17386300  0.58756200  0.91358500  1
  P  P6  1  0.17708800  0.43024600  0.58044400  1
  P  P7  1  0.82613700  0.58756200  0.41358500  1
  P  P8  1  0.46770900  0.52205100  0.86029600  1
  P  P9  1  0.47010400  0.47239300  0.64267300  1
  O  O0  1  0.15505200  0.73078900  0.55489400  1
  O  O1  1  0.48629200  0.24735900  0.43605100  1
  O  O2  1  0.93925000  0.04577700  0.83985400  1
  O  O3  1  0.47913600  0.74575700  0.06909000  1
  O  O4  1  0.87723400  0.75738500  0.29263900  1
  O  O5  1  0.66350200  0.64167200  0.40106200  1
  O  O6  1  0.58944300  0.27853000  0.66087300  1
  O  O7  1  0.66168800  0.36270100  0.09860500  1
  O  O8  1  0.86857800  0.30121600  0.99962200  1
  O  O9  1  0.87382000  0.71496100  0.49442400  1
  O  O10  1  0.33831200  0.36270100  0.59860500  1
  O  O11  1  0.94258800  0.97026200  0.65202800  1
  O  O12  1  0.40423800  0.49620000  0.75129800  1
  O  O13  1  0.41055700  0.27853000  0.16087300  1
  O  O14  1  0.13142200  0.30121600  0.49962200  1
  O  O15  1  0.84494800  0.73078900  0.05489400  1
  O  O16  1  0.85242000  0.28937400  0.43626600  1
  O  O17  1  0.33649800  0.64167200  0.90106200  1
  O  O18  1  0.58924400  0.71029700  0.84336200  1
  O  O19  1  0.14758000  0.28937400  0.93626600  1
  O  O20  1  0.12618000  0.71496100  0.99442400  1
  O  O21  1  0.05741200  0.97026200  0.15202800  1
  O  O22  1  0.41075600  0.71029700  0.34336200  1
  O  O23  1  0.51370800  0.24735900  0.93605100  1
  O  O24  1  0.12276600  0.75738500  0.79263900  1
  O  O25  1  0.06075000  0.04577700  0.33985400  1
  O  O26  1  0.52086400  0.74575700  0.56909000  1
  O  O27  1  0.59576200  0.49620000  0.25129800  1
  O  O28  1  0.11832700  0.27082300  0.70023600  1
  O  O29  1  0.88167300  0.27082300  0.20023600  1
loop_
_geom_bond_atom_site_label_1
_geom_bond_atom_site_label_2
_geom_bond_distance
_geom_bond_site_symmetry_2
Cr0 O8 1.984033 1_555
Cr0 O20 1.987795 1_645
Cr0 O19 2.025633 1_655
Cr0 O15 2.035024 1_546
Cr0 O2 2.067468 1_555
Cr0 O21 2.072943 1_646
Cr1 O14 1.984033 1_555
Cr1 O9 1.987795 1_445
Cr1 O16 2.025633 1_455
Cr1 O0 2.035024 1_545
Cr1 O25 2.067468 1_555
Cr1 O11 2.072943 1_445
O0 P6 1.502421 1_555
O1 P2 1.506818 1_555
O2 P4 1.505593 1_655
O3 P0 1.506932 1_555
O4 P7 1.609716 1_555
O4 P3 1.622014 1_565
O5 P2 1.591081 1_555
O5 P7 1.605718 1_555
O6 P9 1.504221 1_555
O7 P0 1.590686 1_555
O7 P1 1.607396 1_555
O8 P1 1.503171 1_556
O9 P7 1.503463 1_555
O10 P9 1.590686 1_555
O10 P6 1.607396 1_555
O11 P4 1.505035 1_665
O12 P8 1.604484 1_555
O12 P9 1.605046 1_555
O13 P0 1.504221 1_555
O14 P6 1.503171 1_555
O15 P1 1.502421 1_555
O16 P7 1.502393 1_555
O17 P8 1.591081 1_555
O17 P5 1.605718 1_555
O18 P8 1.504187 1_555
O19 P5 1.502393 1_555
O20 P5 1.503463 1_555
O21 P3 1.505035 1_465
O22 P2 1.504187 1_555
O23 P8 1.506818 1_555
O24 P5 1.609716 1_555
O24 P4 1.622014 1_565
O25 P3 1.505593 1_455
O26 P9 1.506932 1_555
O27 P2 1.604484 1_555
O27 P0 1.605046 1_555
O28 P6 1.611552 1_555
O28 P4 1.619879 1_555
O29 P1 1.611552 1_555
O29 P3 1.619879 1_555
