# generated using pymatgen
data_Mn6O5F7
_symmetry_space_group_name_H-M   'P 1'
_cell_length_a   4.73795402
_cell_length_b   5.75561950
_cell_length_c   15.57763954
_cell_angle_alpha   90.44714730
_cell_angle_beta   89.34591462
_cell_angle_gamma   93.24870814
_symmetry_Int_Tables_number   1
_chemical_formula_structural   Mn6O5F7
_chemical_formula_sum   'Mn12 O10 F14'
_cell_volume   424.07884746
_cell_formula_units_Z   2
loop_
 _symmetry_equiv_pos_site_id
 _symmetry_equiv_pos_as_xyz
  1  'x, y, z'
loop_
 _atom_site_type_symbol
 _atom_site_label
 _atom_site_symmetry_multiplicity
 _atom_site_fract_x
 _atom_site_fract_y
 _atom_site_fract_z
 _atom_site_occupancy
  Mn  Mn0  1  0.04293100  0.15509600  0.41393200  1
  Mn  Mn1  1  0.97813200  0.84590800  0.24881100  1
  Mn  Mn2  1  0.02889200  0.16543400  0.07966900  1
  Mn  Mn3  1  0.99515300  0.18874400  0.74613200  1
  Mn  Mn4  1  0.02096300  0.86314800  0.58131000  1
  Mn  Mn5  1  0.05657200  0.83642500  0.92092200  1
  Mn  Mn6  1  0.48754700  0.33677200  0.58392800  1
  Mn  Mn7  1  0.47739300  0.35504000  0.91854200  1
  Mn  Mn8  1  0.47805700  0.35077000  0.24722900  1
  Mn  Mn9  1  0.50170700  0.63839400  0.08847200  1
  Mn  Mn10  1  0.46336600  0.65646100  0.42353400  1
  Mn  Mn11  1  0.50433800  0.62368300  0.74909000  1
  O  O0  1  0.21516900  0.11512500  0.30314100  1
  O  O1  1  0.21391100  0.12121500  0.63700300  1
  O  O2  1  0.23819800  0.12085700  0.97418900  1
  O  O3  1  0.22353700  0.88572100  0.47360600  1
  O  O4  1  0.27608800  0.38152400  0.13907300  1
  O  O5  1  0.27934900  0.38725200  0.47669200  1
  O  O6  1  0.28286700  0.38683200  0.81362000  1
  O  O7  1  0.30402400  0.60863800  0.97828300  1
  O  O8  1  0.70698800  0.61407500  0.19504000  1
  O  O9  1  0.69693100  0.38357800  0.69087200  1
  F  F0  1  0.23044700  0.88462700  0.14054400  1
  F  F1  1  0.26069200  0.86855100  0.80043500  1
  F  F2  1  0.23387000  0.61452100  0.30899000  1
  F  F3  1  0.25054600  0.61528600  0.64040500  1
  F  F4  1  0.73880500  0.36917300  0.01888700  1
  F  F5  1  0.70811000  0.39597900  0.35723800  1
  F  F6  1  0.73814200  0.62134100  0.53367800  1
  F  F7  1  0.76179600  0.60679300  0.86569100  1
  F  F8  1  0.77497700  0.12015100  0.18478900  1
  F  F9  1  0.77473000  0.13028600  0.51606300  1
  F  F10  1  0.74159700  0.88773400  0.36349200  1
  F  F11  1  0.77816900  0.87978600  0.03383700  1
  F  F12  1  0.76967700  0.11252900  0.86140400  1
  F  F13  1  0.76632700  0.87255500  0.69145900  1
loop_
_geom_bond_atom_site_label_1
_geom_bond_atom_site_label_2
_geom_bond_distance
_geom_bond_site_symmetry_2
Mn0 O0 1.918437 1_555
Mn0 O5 1.957274 1_555
Mn0 O3 2.047236 1_545
Mn1 O8 1.986276 1_555
Mn1 O0 2.045127 1_665
Mn2 O4 1.901732 1_555
Mn2 O2 1.932405 1_554
Mn3 O6 2.025147 1_655
Mn3 O1 2.027400 1_655
Mn3 O9 2.053634 1_555
Mn4 O1 1.907540 1_565
Mn4 O3 1.924967 1_555
Mn5 O2 1.986080 1_565
Mn5 O7 2.026888 1_555
Mn6 O1 1.926887 1_555
Mn6 O9 1.957682 1_555
Mn6 O5 1.981328 1_555
Mn7 O6 1.900655 1_555
Mn7 O2 1.917083 1_555
Mn7 O7 1.941260 1_555
Mn8 O4 1.961197 1_555
Mn8 O8 1.986684 1_555
Mn8 O0 1.987889 1_555
Mn9 O4 1.941561 1_555
Mn9 O8 1.943539 1_555
Mn9 O7 1.966426 1_554
Mn10 O5 1.922791 1_555
Mn10 O3 1.942779 1_555
Mn11 O9 1.915563 1_555
Mn11 O6 1.950668 1_555
F0 Mn1 2.062244 1_455
F0 Mn9 2.117306 1_555
F0 Mn2 2.154736 1_565
F1 Mn11 2.025926 1_555
F1 Mn5 2.106173 1_555
F1 Mn3 2.450744 1_465
F2 Mn1 2.085403 1_455
F2 Mn10 2.105284 1_555
F2 Mn8 2.172435 1_555
F3 Mn4 2.070040 1_555
F3 Mn11 2.086453 1_555
F3 Mn6 2.182668 1_555
F4 Mn7 2.003707 1_554
F4 Mn2 2.095314 1_655
F4 Mn9 2.231872 1_555
F5 Mn8 2.048416 1_555
F5 Mn10 2.191899 1_555
F5 Mn0 2.349276 1_655
F6 Mn4 2.019483 1_655
F6 Mn6 2.117414 1_555
F6 Mn10 2.183093 1_555
F7 Mn5 2.058669 1_655
F7 Mn7 2.089286 1_555
F7 Mn11 2.205311 1_555
F8 Mn2 2.030480 1_655
F8 Mn1 2.152038 1_545
F8 Mn8 2.201652 1_555
F9 Mn0 2.025612 1_655
F9 Mn6 2.124211 1_555
F9 Mn4 2.238956 1_645
F10 Mn10 2.043736 1_555
F10 Mn1 2.117427 1_555
F10 Mn0 2.186657 1_665
F11 Mn9 2.038909 1_555
F11 Mn2 2.098466 1_665
F11 Mn5 2.207622 1_654
F12 Mn3 2.115060 1_555
F12 Mn7 2.197679 1_555
F12 Mn5 2.351444 1_645
F13 Mn11 2.047359 1_555
F13 Mn4 2.088380 1_655
F13 Mn3 2.232922 1_565
