# generated using pymatgen
data_LiNb8O10
_symmetry_space_group_name_H-M   'P 1'
_cell_length_a   13.59639451
_cell_length_b   13.59639451
_cell_length_c   13.59639451
_cell_angle_alpha   153.82467499
_cell_angle_beta   153.82467499
_cell_angle_gamma   37.35448599
_symmetry_Int_Tables_number   1
_chemical_formula_structural   LiNb8O10
_chemical_formula_sum   'Li2 Nb16 O20'
_cell_volume   488.36929513
_cell_formula_units_Z   2
loop_
 _symmetry_equiv_pos_site_id
 _symmetry_equiv_pos_as_xyz
  1  'x, y, z'
loop_
 _atom_site_type_symbol
 _atom_site_label
 _atom_site_symmetry_multiplicity
 _atom_site_fract_x
 _atom_site_fract_y
 _atom_site_fract_z
 _atom_site_occupancy
  Li  Li0  1  0.50000000  0.50000000  0.00000000  1
  Li  Li1  1  0.25000000  0.75000000  0.50000000  1
  Nb  Nb0  1  0.79965800  0.04555800  0.24590000  1
  Nb  Nb1  1  0.62608100  0.88200500  0.25592500  1
  Nb  Nb2  1  0.30375800  0.04965800  0.25410000  1
  Nb  Nb3  1  0.12015600  0.87608100  0.24407500  1
  Nb  Nb4  1  0.62984400  0.37391900  0.25592500  1
  Nb  Nb5  1  0.79555800  0.04965800  0.74590000  1
  Nb  Nb6  1  0.63200500  0.87608100  0.75592500  1
  Nb  Nb7  1  0.44624200  0.20034200  0.24590000  1
  Nb  Nb8  1  0.12391900  0.36799500  0.24407500  1
  Nb  Nb9  1  0.62608100  0.37015600  0.74407500  1
  Nb  Nb10  1  0.95034200  0.20444200  0.25410000  1
  Nb  Nb11  1  0.12391900  0.87984400  0.75592500  1
  Nb  Nb12  1  0.79965800  0.55375800  0.75410000  1
  Nb  Nb13  1  0.95444200  0.20034200  0.75410000  1
  Nb  Nb14  1  0.11799500  0.37391900  0.74407500  1
  Nb  Nb15  1  0.95034200  0.69624200  0.74590000  1
  O  O0  1  0.71195600  0.98469800  0.27274200  1
  O  O1  1  0.18921400  0.96195600  0.22725800  1
  O  O2  1  0.56078600  0.28804400  0.27274200  1
  O  O3  1  0.72555700  0.45752500  0.26803200  1
  O  O4  1  0.73469800  0.96195600  0.77274200  1
  O  O5  1  0.54247500  0.81050600  0.26803200  1
  O  O6  1  0.03804400  0.26530200  0.22725800  1
  O  O7  1  0.20752500  0.43949400  0.23196800  1
  O  O8  1  0.71195600  0.43921400  0.72725800  1
  O  O9  1  0.37500000  0.62500000  0.25000000  1
  O  O10  1  0.37500000  0.12500000  0.75000000  1
  O  O11  1  0.20752500  0.97555700  0.76803200  1
  O  O12  1  0.54247500  0.27444300  0.73196800  1
  O  O13  1  0.01530200  0.28804400  0.72725800  1
  O  O14  1  0.18949400  0.45752500  0.73196800  1
  O  O15  1  0.02444300  0.79247500  0.23196800  1
  O  O16  1  0.56050600  0.79247500  0.76803200  1
  O  O17  1  0.37500000  0.62500000  0.75000000  1
  O  O18  1  0.87500000  0.62500000  0.25000000  1
  O  O19  1  0.03804400  0.81078600  0.77274200  1
loop_
_geom_bond_atom_site_label_1
_geom_bond_atom_site_label_2
_geom_bond_distance
_geom_bond_site_symmetry_2
Li0 O5 1.980182 1_555
Li0 O14 1.980182 1_554
Li0 O12 1.980192 1_554
Li0 O3 1.980192 1_555
Li1 O7 1.980182 1_555
Li1 O16 1.980182 1_555
Li1 O11 1.980192 1_555
Li1 O15 1.980192 1_555
Nb0 O15 2.089761 1_645
Nb0 O16 2.089762 1_544
Nb0 O2 2.120334 1_555
Nb0 O13 2.120334 1_655
Nb0 O0 2.265307 1_545
Nb1 O5 2.155043 1_555
Nb1 O18 2.203153 1_555
Nb1 O17 2.203157 1_554
Nb1 O0 2.214640 1_555
Nb2 O12 2.089761 1_555
Nb2 O5 2.089766 1_545
Nb2 O6 2.120334 1_555
Nb2 O19 2.120334 1_544
Nb2 O1 2.265307 1_545
Nb3 O15 2.155043 1_555
Nb3 O10 2.203157 1_565
Nb3 O9 2.203157 1_555
Nb3 O1 2.214627 1_555
Nb4 O3 2.155043 1_555
Nb4 O9 2.203157 1_555
Nb4 O10 2.203157 1_554
Nb4 O2 2.214627 1_555
Nb5 O12 2.089761 1_555
Nb5 O5 2.089762 1_545
Nb5 O19 2.120334 1_645
Nb5 O6 2.120334 1_656
Nb5 O4 2.265307 1_545
Nb6 O16 2.155043 1_555
Nb6 O10 2.203153 1_565
Nb6 O9 2.203157 1_555
Nb6 O4 2.214640 1_555
Nb7 O11 2.089761 1_544
Nb7 O7 2.089766 1_555
Nb7 O0 2.120334 1_545
Nb7 O8 2.120334 1_555
Nb7 O2 2.265307 1_555
Nb8 O7 2.155043 1_555
Nb8 O18 2.203153 1_455
Nb8 O17 2.203157 1_555
Nb8 O6 2.214640 1_555
Nb9 O12 2.155043 1_555
Nb9 O17 2.203157 1_555
Nb9 O18 2.203157 1_556
Nb9 O8 2.214627 1_555
Nb10 O3 2.089761 1_555
Nb10 O14 2.089762 1_655
Nb10 O1 2.120334 1_645
Nb10 O4 2.120334 1_544
Nb10 O6 2.265307 1_655
Nb11 O11 2.155043 1_555
Nb11 O18 2.203157 1_455
Nb11 O17 2.203157 1_555
Nb11 O19 2.214627 1_555
Nb12 O15 2.089761 1_656
Nb12 O16 2.089766 1_555
Nb12 O2 2.120334 1_555
Nb12 O13 2.120334 1_655
Nb12 O8 2.265307 1_555
Nb13 O11 2.089761 1_645
Nb13 O7 2.089762 1_656
Nb13 O0 2.120334 1_545
Nb13 O8 2.120334 1_555
Nb13 O13 2.265307 1_655
Nb14 O14 2.155043 1_555
Nb14 O10 2.203153 1_555
Nb14 O9 2.203157 1_556
Nb14 O13 2.214640 1_555
Nb15 O3 2.089761 1_555
Nb15 O14 2.089766 1_655
Nb15 O4 2.120334 1_555
Nb15 O1 2.120334 1_656
Nb15 O19 2.265307 1_655
