# generated using pymatgen
data_K8V2(S2O9)3
_symmetry_space_group_name_H-M   'P 1'
_cell_length_a   14.14345800
_cell_length_b   13.77063400
_cell_length_c   14.26348105
_cell_angle_alpha   89.61140872
_cell_angle_beta   90.00000000
_cell_angle_gamma   90.00000000
_symmetry_Int_Tables_number   1
_chemical_formula_structural   K8V2(S2O9)3
_chemical_formula_sum   'K32 V8 S24 O108'
_cell_volume   2777.95420241
_cell_formula_units_Z   4
loop_
 _symmetry_equiv_pos_site_id
 _symmetry_equiv_pos_as_xyz
  1  'x, y, z'
loop_
 _atom_site_type_symbol
 _atom_site_label
 _atom_site_symmetry_multiplicity
 _atom_site_fract_x
 _atom_site_fract_y
 _atom_site_fract_z
 _atom_site_occupancy
  K  K0  1  0.78877200  0.15526200  0.22656200  1
  K  K1  1  0.57840000  0.86104300  0.71577400  1
  K  K2  1  0.17462600  0.53092200  0.01398100  1
  K  K3  1  0.71627000  0.04450000  0.48468300  1
  K  K4  1  0.21627000  0.95550000  0.51531700  1
  K  K5  1  0.58091400  0.36146800  0.24743700  1
  K  K6  1  0.85089800  0.18788300  0.94930400  1
  K  K7  1  0.35089800  0.81211700  0.05069600  1
  K  K8  1  0.75992200  0.64849900  0.74464400  1
  K  K9  1  0.99357900  0.67644900  0.45009000  1
  K  K10  1  0.57228200  0.67794400  0.19728800  1
  K  K11  1  0.67462600  0.46907800  0.98601900  1
  K  K12  1  0.79249000  0.84016700  0.29162600  1
  K  K13  1  0.56970100  0.16334600  0.79495500  1
  K  K14  1  0.69799400  0.53714200  0.47908000  1
  K  K15  1  0.37374700  0.31129200  0.95842100  1
  K  K16  1  0.29249000  0.15983300  0.70837400  1
  K  K17  1  0.07228200  0.32205600  0.80271200  1
  K  K18  1  0.28877200  0.84473800  0.77343800  1
  K  K19  1  0.27997400  0.66066500  0.29919600  1
  K  K20  1  0.99438100  0.17599200  0.55788400  1
  K  K21  1  0.07840000  0.13895700  0.28422600  1
  K  K22  1  0.14625100  0.05156600  0.01008700  1
  K  K23  1  0.06970100  0.83665400  0.20504500  1
  K  K24  1  0.49357900  0.32355100  0.54991000  1
  K  K25  1  0.49438100  0.82400800  0.44211600  1
  K  K26  1  0.25992200  0.35150100  0.25535600  1
  K  K27  1  0.64625100  0.94843400  0.98991300  1
  K  K28  1  0.08091400  0.63853200  0.75256300  1
  K  K29  1  0.19799400  0.46285800  0.52092000  1
  K  K30  1  0.77997400  0.33933500  0.70080400  1
  K  K31  1  0.87374700  0.68870800  0.04157900  1
  V  V0  1  0.42119500  0.09594600  0.12322700  1
  V  V1  1  0.41658000  0.58794400  0.87590800  1
  V  V2  1  0.91658000  0.41205600  0.12409200  1
  V  V3  1  0.91977900  0.89518900  0.63079500  1
  V  V4  1  0.92119500  0.90405400  0.87677300  1
  V  V5  1  0.93079700  0.40554700  0.36770500  1
  V  V6  1  0.43079700  0.59445300  0.63229500  1
  V  V7  1  0.41977900  0.10481100  0.36920500  1
  S  S0  1  0.95638000  0.96984800  0.41480100  1
  S  S1  1  0.24896900  0.71434200  0.54934900  1
  S  S2  1  0.10003200  0.28854200  0.04933300  1
  S  S3  1  0.60003200  0.71145800  0.95066700  1
  S  S4  1  0.57031900  0.44817300  0.75164700  1
  S  S5  1  0.42365300  0.51367200  0.09593400  1
  S  S6  1  0.28313500  0.94882100  0.23665300  1
  S  S7  1  0.93978400  0.47702900  0.58983700  1
  S  S8  1  0.24485000  0.22323400  0.46970900  1
  S  S9  1  0.78313500  0.05117900  0.76334700  1
  S  S10  1  0.78115500  0.55878800  0.24551300  1
  S  S11  1  0.74485000  0.77676600  0.53029100  1
  S  S12  1  0.92365300  0.48632800  0.90406600  1
  S  S13  1  0.28115500  0.44121200  0.75448700  1
  S  S14  1  0.45638000  0.03015200  0.58519900  1
  S  S15  1  0.40885800  0.02139400  0.91171500  1
  S  S16  1  0.60110200  0.22520800  0.03309400  1
  S  S17  1  0.74896900  0.28565800  0.45065100  1
  S  S18  1  0.43978400  0.52297100  0.41016300  1
  S  S19  1  0.08464400  0.02724300  0.73676000  1
  S  S20  1  0.58464400  0.97275700  0.26324000  1
  S  S21  1  0.90885800  0.97860600  0.08828500  1
  S  S22  1  0.10110200  0.77479200  0.96690600  1
  S  S23  1  0.07031900  0.55182700  0.24835300  1
  O  O0  1  0.82592500  0.85192300  0.91615700  1
  O  O1  1  0.05383300  0.98239100  0.82689300  1
  O  O2  1  0.52693700  0.51025900  0.11199300  1
  O  O3  1  0.85241600  0.54054000  0.32039700  1
  O  O4  1  0.17486600  0.28161900  0.41723000  1
  O  O5  1  0.18014200  0.99371500  0.71161000  1
  O  O6  1  0.95501800  0.97915400  0.98849200  1
  O  O7  1  0.87666600  0.57222800  0.86366200  1
  O  O8  1  0.19939300  0.15108700  0.53200300  1
  O  O9  1  0.57484900  0.34636200  0.72049800  1
  O  O10  1  0.30180000  0.50787100  0.83849000  1
  O  O11  1  0.85985500  0.02906300  0.83729200  1
  O  O12  1  0.16351400  0.51853100  0.21524200  1
  O  O13  1  0.81933600  0.02288000  0.66965500  1
  O  O14  1  0.08075300  0.13441300  0.74055900  1
  O  O15  1  0.90403200  0.96690000  0.51086100  1
  O  O16  1  0.69583200  0.99906600  0.78842500  1
  O  O17  1  0.31933600  0.97712000  0.33034500  1
  O  O18  1  0.89545600  0.87671300  0.11907600  1
  O  O19  1  0.19386600  0.76831400  0.61957200  1
  O  O20  1  0.84694200  0.50630800  0.62799600  1
  O  O21  1  0.81804600  0.03080100  0.07983600  1
  O  O22  1  0.17937100  0.33069000  0.99586100  1
  O  O23  1  0.51449600  0.45170500  0.39090000  1
  O  O24  1  0.16395900  0.73526600  0.89412300  1
  O  O25  1  0.68014200  0.00628500  0.28839000  1
  O  O26  1  0.02693700  0.48974100  0.88800700  1
  O  O27  1  0.92567800  0.37025600  0.24427200  1
  O  O28  1  0.67937100  0.66931000  0.00413900  1
  O  O29  1  0.53932900  0.77183000  0.01100400  1
  O  O30  1  0.42567800  0.62974400  0.75572800  1
  O  O31  1  0.98386100  0.31028300  0.40913500  1
  O  O32  1  0.26960300  0.84240500  0.23201500  1
  O  O33  1  0.40537700  0.50391600  0.98915500  1
  O  O34  1  0.00732400  0.80196700  0.91576700  1
  O  O35  1  0.01449600  0.54829500  0.60910000  1
  O  O36  1  0.50732400  0.19803300  0.08423300  1
  O  O37  1  0.04238100  0.37785700  0.08436400  1
  O  O38  1  0.63203300  0.76345300  0.86596400  1
  O  O39  1  0.49663800  0.45891400  0.82531900  1
  O  O40  1  0.81654900  0.22325300  0.50102100  1
  O  O41  1  0.35985500  0.97093700  0.16270800  1
  O  O42  1  0.28642700  0.33946000  0.78711700  1
  O  O43  1  0.69386600  0.23168600  0.38042800  1
  O  O44  1  0.97764600  0.02997000  0.14744900  1
  O  O45  1  0.36050700  0.68139700  0.91783800  1
  O  O46  1  0.96605900  0.37756900  0.61955600  1
  O  O47  1  0.99663800  0.54108600  0.17468100  1
  O  O48  1  0.67486600  0.71838100  0.58277000  1
  O  O49  1  0.91635300  0.86541800  0.75447900  1
  O  O50  1  0.07484900  0.65363800  0.27950200  1
  O  O51  1  0.48386100  0.68971700  0.59086500  1
  O  O52  1  0.07421200  0.70075100  0.03734000  1
  O  O53  1  0.03932900  0.22817000  0.98899600  1
  O  O54  1  0.13203300  0.23654700  0.13403600  1
  O  O55  1  0.54460600  0.51116300  0.66542500  1
  O  O56  1  0.37666600  0.42777200  0.13633800  1
  O  O57  1  0.66351400  0.48146900  0.78475800  1
  O  O58  1  0.66395900  0.26473400  0.10587700  1
  O  O59  1  0.39545600  0.12328700  0.88092400  1
  O  O60  1  0.39422800  0.97180600  0.64655900  1
  O  O61  1  0.54238100  0.62214300  0.91563600  1
  O  O62  1  0.96817600  0.86997200  0.37945900  1
  O  O63  1  0.92812900  0.48170200  0.48184400  1
  O  O64  1  0.38263500  0.60665100  0.12808400  1
  O  O65  1  0.48731200  0.19109300  0.40672900  1
  O  O66  1  0.86050700  0.31860300  0.08216200  1
  O  O67  1  0.98731200  0.80890700  0.59327100  1
  O  O68  1  0.18856400  0.65975400  0.48357900  1
  O  O69  1  0.58075300  0.86558700  0.25944100  1
  O  O70  1  0.78642700  0.66054000  0.21288300  1
  O  O71  1  0.68856400  0.34024600  0.51642100  1
  O  O72  1  0.88263500  0.39334900  0.87191600  1
  O  O73  1  0.45501800  0.02084600  0.01150800  1
  O  O74  1  0.54830400  0.98214500  0.56880000  1
  O  O75  1  0.89422800  0.02819400  0.35344100  1
  O  O76  1  0.31804600  0.96919900  0.92016400  1
  O  O77  1  0.14112200  0.86098700  0.01236400  1
  O  O78  1  0.79766300  0.83313700  0.60906300  1
  O  O79  1  0.40403200  0.03310000  0.48913900  1
  O  O80  1  0.55383300  0.01760900  0.17310700  1
  O  O81  1  0.64112200  0.13901300  0.98763600  1
  O  O82  1  0.31139600  0.28454100  0.52194800  1
  O  O83  1  0.32592500  0.14807700  0.08384300  1
  O  O84  1  0.76960300  0.15759500  0.76798500  1
  O  O85  1  0.18510000  0.46488400  0.72129200  1
  O  O86  1  0.31654900  0.77674700  0.49897900  1
  O  O87  1  0.80180000  0.49212900  0.16151000  1
  O  O88  1  0.51709500  0.00302900  0.34235900  1
  O  O89  1  0.90537700  0.49608400  0.01084500  1
  O  O90  1  0.41635300  0.13458200  0.24552100  1
  O  O91  1  0.46605900  0.62243100  0.38044400  1
  O  O92  1  0.35241600  0.45946000  0.67960300  1
  O  O93  1  0.42812900  0.51829800  0.51815600  1
  O  O94  1  0.81139600  0.71545900  0.47805200  1
  O  O95  1  0.19583200  0.00093400  0.21157500  1
  O  O96  1  0.29766300  0.16686300  0.39093700  1
  O  O97  1  0.57421200  0.29924900  0.96266000  1
  O  O98  1  0.46817600  0.13002800  0.62054100  1
  O  O99  1  0.34694200  0.49369200  0.37200400  1
  O  O100  1  0.04830400  0.01785500  0.43120000  1
  O  O101  1  0.30274400  0.63517700  0.60735600  1
  O  O102  1  0.80274400  0.36482300  0.39264400  1
  O  O103  1  0.69939300  0.84891300  0.46799700  1
  O  O104  1  0.04460600  0.48883700  0.33457500  1
  O  O105  1  0.68510000  0.53511600  0.27870800  1
  O  O106  1  0.01709500  0.99697100  0.65764100  1
  O  O107  1  0.47764600  0.97003000  0.85255100  1
loop_
_geom_bond_atom_site_label_1
_geom_bond_atom_site_label_2
_geom_bond_distance
_geom_bond_site_symmetry_2
K0 O25 2.705993 1_555
K0 O21 2.745445 1_555
K0 O43 2.785177 1_555
K0 O58 2.883881 1_555
K0 O75 2.918668 1_555
K0 O66 3.204383 1_555
K1 O38 2.632778 1_555
K1 O74 2.703619 1_555
K1 O16 2.733430 1_555
K1 O107 2.851123 1_555
K1 O48 3.061122 1_555
K1 O60 3.172670 1_555
K1 O51 3.253498 1_555
K2 O52 2.758233 1_555
K2 O22 2.771965 1_554
K2 O26 2.815533 1_554
K2 O12 2.878887 1_555
K2 O37 2.986697 1_555
K2 O10 3.100381 1_554
K2 O24 3.286108 1_554
K2 O33 3.304039 1_554
K3 O103 2.715969 1_545
K3 O74 2.793999 1_545
K3 O40 2.851811 1_555
K3 O15 2.885853 1_545
K3 O25 2.897760 1_555
K3 O43 2.983971 1_555
K3 O13 3.027171 1_555
K3 O75 3.145692 1_555
K4 O8 2.715969 1_565
K4 O100 2.793999 1_565
K4 O86 2.851811 1_555
K4 O79 2.885853 1_565
K4 O5 2.897760 1_555
K4 O19 2.983971 1_555
K4 O17 3.027171 1_555
K4 O60 3.145692 1_555
K5 O23 2.578430 1_555
K5 O58 2.695814 1_555
K5 O105 2.846543 1_555
K5 O2 2.908531 1_555
K5 O43 3.049331 1_555
K6 O66 2.626058 1_556
K6 O11 2.720152 1_555
K6 O53 2.781211 1_655
K6 O84 2.863434 1_555
K6 O21 2.882151 1_556
K6 O72 3.063174 1_555
K6 O81 3.090254 1_555
K7 O45 2.626058 1_554
K7 O41 2.720152 1_555
K7 O29 2.781211 1_555
K7 O32 2.863434 1_555
K7 O76 2.882151 1_554
K7 O64 3.063174 1_555
K7 O77 3.090254 1_555
K8 O7 2.585956 1_555
K8 O57 2.731167 1_555
K8 O48 2.770208 1_555
K8 O20 2.856785 1_555
K8 O38 2.968027 1_555
K8 O78 3.228430 1_555
K9 O94 2.662691 1_555
K9 O50 2.711201 1_655
K9 O67 2.748872 1_555
K9 O68 2.807986 1_655
K9 O62 2.865220 1_555
K9 O63 2.870115 1_555
K9 O35 2.879514 1_655
K9 O104 3.157212 1_655
K9 O3 3.310264 1_555
K10 O2 2.694739 1_555
K10 O69 2.740111 1_555
K10 O105 2.780683 1_555
K10 O29 2.983638 1_555
K10 O64 3.024213 1_555
K10 O70 3.046232 1_555
K10 O91 3.104712 1_555
K10 O28 3.146827 1_555
K11 O97 2.758233 1_555
K11 O28 2.771965 1_556
K11 O2 2.815533 1_556
K11 O57 2.878887 1_555
K11 O61 2.986697 1_555
K11 O87 3.100381 1_556
K11 O58 3.286108 1_556
K11 O89 3.304039 1_556
K12 O70 2.724902 1_555
K12 O25 2.785403 1_565
K12 O62 2.814110 1_555
K12 O103 2.842695 1_555
K12 O18 2.900792 1_555
K12 O69 3.049474 1_555
K12 O75 3.095656 1_565
K12 O94 3.166928 1_555
K13 O9 2.729197 1_555
K13 O59 2.805733 1_555
K13 O84 2.854527 1_555
K13 O16 2.882995 1_545
K13 O98 2.911485 1_555
K13 O81 2.945052 1_555
K13 O97 3.047808 1_555
K13 O107 3.070352 1_545
K14 O71 2.762874 1_555
K14 O105 2.864139 1_555
K14 O48 2.928028 1_555
K14 O94 2.932896 1_555
K14 O20 3.019540 1_555
K14 O102 3.063568 1_555
K14 O23 3.117977 1_555
K14 O3 3.145430 1_555
K14 O63 3.343411 1_555
K14 O55 3.447626 1_555
K15 O33 2.728391 1_555
K15 O42 2.762790 1_555
K15 O22 2.813590 1_555
K15 O59 2.838592 1_555
K15 O97 2.840734 1_555
K15 O83 2.941918 1_556
K15 O56 3.011602 1_556
K15 O36 3.030522 1_556
K15 O39 3.271914 1_555
K16 O42 2.724902 1_555
K16 O5 2.785403 1_545
K16 O98 2.814110 1_555
K16 O8 2.842695 1_555
K16 O59 2.900792 1_555
K16 O14 3.049474 1_555
K16 O60 3.095656 1_545
K16 O82 3.166928 1_555
K17 O26 2.694739 1_555
K17 O14 2.740111 1_555
K17 O85 2.780683 1_555
K17 O53 2.983638 1_555
K17 O72 3.024213 1_455
K17 O42 3.046232 1_555
K17 O46 3.104712 1_455
K17 O22 3.146827 1_555
K18 O5 2.705993 1_555
K18 O76 2.745445 1_555
K18 O19 2.785177 1_555
K18 O24 2.883881 1_555
K18 O60 2.918668 1_555
K18 O45 3.204383 1_555
K19 O32 2.677794 1_555
K19 O99 2.688882 1_555
K19 O12 2.830152 1_555
K19 O50 2.916413 1_555
K19 O91 2.922115 1_555
K19 O68 2.930492 1_555
K19 O64 2.939883 1_555
K19 O86 3.317361 1_555
K20 O40 2.720340 1_555
K20 O31 2.808958 1_555
K20 O106 2.856150 1_645
K20 O14 2.930692 1_655
K20 O100 2.939771 1_655
K20 O8 2.943326 1_655
K20 O46 2.944941 1_555
K20 O15 3.224823 1_545
K21 O54 2.632778 1_555
K21 O100 2.703619 1_555
K21 O95 2.733430 1_555
K21 O44 2.851123 1_455
K21 O4 3.061122 1_555
K21 O75 3.172670 1_455
K21 O31 3.253498 1_455
K22 O77 2.625377 1_545
K22 O53 2.877819 1_554
K22 O6 2.899784 1_444
K22 O76 2.975761 1_544
K22 O95 3.034818 1_555
K22 O83 3.057736 1_555
K22 O1 3.078539 1_544
K22 O44 3.099328 1_455
K22 O54 3.117037 1_555
K23 O50 2.729197 1_555
K23 O18 2.805733 1_455
K23 O32 2.854527 1_555
K23 O95 2.882995 1_565
K23 O62 2.911485 1_455
K23 O77 2.945052 1_555
K23 O52 3.047808 1_555
K23 O44 3.070352 1_465
K24 O82 2.662691 1_555
K24 O9 2.711201 1_555
K24 O65 2.748872 1_555
K24 O71 2.807986 1_555
K24 O98 2.865220 1_555
K24 O93 2.870115 1_555
K24 O23 2.879514 1_555
K24 O55 3.157212 1_555
K24 O92 3.310264 1_555
K25 O86 2.720340 1_555
K25 O51 2.808958 1_555
K25 O88 2.856150 1_565
K25 O69 2.930692 1_555
K25 O74 2.939771 1_555
K25 O103 2.943326 1_555
K25 O91 2.944941 1_555
K25 O79 3.224823 1_565
K26 O56 2.585956 1_555
K26 O12 2.731167 1_555
K26 O4 2.770208 1_555
K26 O99 2.856785 1_555
K26 O54 2.968027 1_555
K26 O96 3.228430 1_555
K27 O81 2.625377 1_565
K27 O29 2.877819 1_556
K27 O73 2.899784 1_566
K27 O21 2.975761 1_566
K27 O16 3.034818 1_555
K27 O0 3.057736 1_555
K27 O80 3.078539 1_566
K27 O107 3.099328 1_555
K27 O38 3.117037 1_555
K28 O35 2.578430 1_555
K28 O24 2.695814 1_555
K28 O85 2.846543 1_555
K28 O26 2.908531 1_555
K28 O19 3.049331 1_555
K29 O68 2.762874 1_555
K29 O85 2.864139 1_555
K29 O4 2.928028 1_555
K29 O82 2.932896 1_555
K29 O99 3.019540 1_555
K29 O101 3.063568 1_555
K29 O35 3.117977 1_555
K29 O92 3.145430 1_555
K29 O93 3.343411 1_555
K29 O104 3.447626 1_555
K30 O84 2.677794 1_555
K30 O20 2.688882 1_555
K30 O57 2.830152 1_555
K30 O9 2.916413 1_555
K30 O46 2.922115 1_555
K30 O71 2.930492 1_555
K30 O72 2.939883 1_555
K30 O40 3.317361 1_555
K31 O89 2.728391 1_555
K31 O70 2.762790 1_555
K31 O28 2.813590 1_555
K31 O18 2.838592 1_555
K31 O52 2.840734 1_655
K31 O0 2.941918 1_554
K31 O7 3.011602 1_554
K31 O34 3.030522 1_654
K31 O47 3.271914 1_555
O0 V4 1.625133 1_555
O1 S19 1.487751 1_565
O1 V4 2.275675 1_455
O2 S5 1.479340 1_555
O3 S10 1.488681 1_555
O3 V5 2.263385 1_555
O4 S8 1.475902 1_555
O5 S19 1.472554 1_565
O6 S21 1.565949 1_556
O6 V4 1.964678 1_555
O7 S12 1.470973 1_555
O8 S8 1.475777 1_555
O9 S4 1.474978 1_555
O10 S13 1.542209 1_555
O10 V1 2.035697 1_555
O11 S9 1.542150 1_555
O11 V4 2.005002 1_545
O12 S23 1.474313 1_555
O13 S9 1.485589 1_555
O13 V3 2.330344 1_545
O14 S19 1.478185 1_555
O15 S0 1.557681 1_555
O15 V3 1.981986 1_555
O16 S9 1.471090 1_565
O17 S6 1.485589 1_555
O17 V7 2.330344 1_565
O18 S21 1.479606 1_555
O19 S1 1.474151 1_555
O20 S7 1.478523 1_555
O21 S21 1.476358 1_545
O22 S2 1.473683 1_556
O23 S18 1.469298 1_555
O24 S22 1.473773 1_555
O25 S20 1.472554 1_545
O26 S12 1.479340 1_455
O27 V2 1.809125 1_555
O27 V5 1.831033 1_555
O28 S3 1.473683 1_554
O29 S3 1.476020 1_554
O30 V1 1.809125 1_555
O30 V6 1.831033 1_555
O31 V5 1.619535 1_555
O32 S6 1.479785 1_555
O33 S5 1.551545 1_556
O33 V1 1.986922 1_555
O34 S22 1.558070 1_555
O34 V4 1.938799 1_455
O35 S7 1.469298 1_455
O36 S16 1.558070 1_555
O36 V0 1.938799 1_555
O37 S2 1.560630 1_555
O37 V2 1.926728 1_455
O38 S3 1.471540 1_555
O39 S4 1.488015 1_555
O39 V1 2.230978 1_555
O40 S17 1.469651 1_555
O41 S6 1.542150 1_555
O41 V0 2.005002 1_565
O42 S13 1.475351 1_555
O43 S17 1.474151 1_555
O44 S21 1.472096 1_545
O45 V1 1.628867 1_555
O46 S7 1.478443 1_555
O47 S23 1.488015 1_655
O47 V2 2.230978 1_555
O48 S11 1.475902 1_555
O49 V3 1.809112 1_555
O49 V4 1.828404 1_555
O50 S23 1.474978 1_555
O51 V6 1.619535 1_555
O52 S22 1.476348 1_554
O53 S2 1.476020 1_556
O54 S2 1.471540 1_555
O55 S4 1.543587 1_555
O55 V6 2.030380 1_555
O56 S5 1.470973 1_555
O57 S4 1.474313 1_555
O58 S16 1.473773 1_555
O59 S15 1.479606 1_555
O60 S14 1.474693 1_565
O61 S3 1.560630 1_555
O61 V1 1.926728 1_555
O62 S0 1.477484 1_555
O63 S7 1.550054 1_555
O63 V5 1.942886 1_555
O64 S5 1.481277 1_555
O65 V7 1.618370 1_555
O66 V2 1.628867 1_555
O67 V3 1.618370 1_555
O68 S1 1.478030 1_555
O69 S20 1.478185 1_555
O70 S10 1.475351 1_555
O71 S17 1.478030 1_555
O72 S12 1.481277 1_555
O73 S15 1.565949 1_554
O73 V0 1.964678 1_555
O74 S14 1.477892 1_565
O75 S0 1.474693 1_545
O76 S15 1.476358 1_565
O77 S22 1.469728 1_554
O78 S11 1.560371 1_555
O78 V3 1.952655 1_555
O79 S14 1.557681 1_555
O79 V7 1.981986 1_555
O80 S20 1.487751 1_545
O80 V0 2.275675 1_555
O81 S16 1.469728 1_556
O82 S8 1.470475 1_555
O83 V0 1.625133 1_555
O84 S9 1.479785 1_555
O85 S13 1.474451 1_555
O86 S1 1.469651 1_555
O87 S10 1.542209 1_555
O87 V2 2.035697 1_555
O88 S20 1.538324 1_545
O88 V7 2.003205 1_555
O89 S12 1.551545 1_554
O89 V2 1.986922 1_555
O90 V7 1.809112 1_555
O90 V0 1.828404 1_555
O91 S18 1.478443 1_555
O92 S13 1.488681 1_555
O92 V6 2.263385 1_555
O93 S18 1.550054 1_555
O93 V6 1.942886 1_555
O94 S11 1.470475 1_555
O95 S6 1.471090 1_545
O96 S8 1.560371 1_555
O96 V7 1.952655 1_555
O97 S16 1.476348 1_556
O98 S14 1.477484 1_555
O99 S18 1.478523 1_555
O100 S0 1.477892 1_445
O101 S1 1.561799 1_555
O101 V6 1.928328 1_555
O102 S17 1.561799 1_555
O102 V5 1.928328 1_555
O103 S11 1.475777 1_555
O104 S23 1.543587 1_555
O104 V5 2.030380 1_455
O105 S10 1.474451 1_555
O106 S19 1.538324 1_565
O106 V3 2.003205 1_455
O107 S15 1.472096 1_565
