# generated using pymatgen
data_LiInSiO4
_symmetry_space_group_name_H-M   'P 1'
_cell_length_a   4.91256900
_cell_length_b   6.15251900
_cell_length_c   10.64097100
_cell_angle_alpha   90.00000000
_cell_angle_beta   90.00000000
_cell_angle_gamma   90.00000000
_symmetry_Int_Tables_number   1
_chemical_formula_structural   LiInSiO4
_chemical_formula_sum   'Li4 In4 Si4 O16'
_cell_volume   321.61988070
_cell_formula_units_Z   4
loop_
 _symmetry_equiv_pos_site_id
 _symmetry_equiv_pos_as_xyz
  1  'x, y, z'
loop_
 _atom_site_type_symbol
 _atom_site_label
 _atom_site_symmetry_multiplicity
 _atom_site_fract_x
 _atom_site_fract_y
 _atom_site_fract_z
 _atom_site_occupancy
  Li  Li0  1  0.00000000  0.00000000  0.00000000  1
  Li  Li1  1  0.50000000  0.00000000  0.50000000  1
  Li  Li2  1  0.00000000  0.50000000  0.00000000  1
  Li  Li3  1  0.50000000  0.50000000  0.50000000  1
  In  In0  1  0.02123500  0.75000000  0.27571400  1
  In  In1  1  0.47876500  0.75000000  0.77571400  1
  In  In2  1  0.97876500  0.25000000  0.72428600  1
  In  In3  1  0.52123500  0.25000000  0.22428600  1
  Si  Si0  1  0.57575000  0.75000000  0.08878500  1
  Si  Si1  1  0.92425000  0.75000000  0.58878500  1
  Si  Si2  1  0.42425000  0.25000000  0.91121500  1
  Si  Si3  1  0.07575000  0.25000000  0.41121500  1
  O  O0  1  0.77172100  0.54208200  0.66283500  1
  O  O1  1  0.22827900  0.45791800  0.33716500  1
  O  O2  1  0.72827900  0.54208200  0.16283500  1
  O  O3  1  0.77172100  0.95791800  0.66283500  1
  O  O4  1  0.27172100  0.04208200  0.83716500  1
  O  O5  1  0.75438800  0.25000000  0.90235700  1
  O  O6  1  0.27172100  0.45791800  0.83716500  1
  O  O7  1  0.22827900  0.04208200  0.33716500  1
  O  O8  1  0.24561200  0.75000000  0.09764300  1
  O  O9  1  0.74561200  0.25000000  0.40235700  1
  O  O10  1  0.70527000  0.75000000  0.94680200  1
  O  O11  1  0.25438800  0.75000000  0.59764300  1
  O  O12  1  0.79473000  0.75000000  0.44680200  1
  O  O13  1  0.20527000  0.25000000  0.55319800  1
  O  O14  1  0.29473000  0.25000000  0.05319800  1
  O  O15  1  0.72827900  0.95791800  0.16283500  1
loop_
_geom_bond_atom_site_label_1
_geom_bond_atom_site_label_2
_geom_bond_distance
_geom_bond_site_symmetry_2
Li0 O14 2.186927 1_555
Li0 O10 2.186927 1_444
Li0 O15 2.202540 1_445
Li0 O4 2.202540 1_554
Li0 O8 2.213876 1_545
Li0 O5 2.213876 1_454
Li1 O13 2.186927 1_555
Li1 O12 2.186927 1_545
Li1 O3 2.202540 1_545
Li1 O7 2.202540 1_555
Li1 O11 2.213876 1_545
Li1 O9 2.213876 1_555
Li2 O14 2.186927 1_555
Li2 O10 2.186927 1_454
Li2 O2 2.202540 1_455
Li2 O6 2.202540 1_554
Li2 O8 2.213876 1_555
Li2 O5 2.213876 1_454
Li3 O13 2.186927 1_555
Li3 O12 2.186927 1_555
Li3 O0 2.202540 1_555
Li3 O1 2.202540 1_555
Li3 O11 2.213876 1_555
Li3 O9 2.213876 1_555
In0 O12 2.133664 1_455
In0 O7 2.165979 1_565
In0 O1 2.165979 1_555
In0 O8 2.192132 1_555
In0 O15 2.269437 1_455
In0 O2 2.269437 1_455
In1 O10 2.133664 1_555
In1 O4 2.165979 1_565
In1 O6 2.165979 1_555
In1 O11 2.192132 1_555
In1 O3 2.269437 1_555
In1 O0 2.269437 1_555
In2 O13 2.133664 1_655
In2 O0 2.165979 1_555
In2 O3 2.165979 1_545
In2 O5 2.192132 1_555
In2 O6 2.269437 1_655
In2 O4 2.269437 1_655
In3 O14 2.133664 1_555
In3 O2 2.165979 1_555
In3 O15 2.165979 1_545
In3 O9 2.192132 1_555
In3 O7 2.269437 1_555
In3 O1 2.269437 1_555
O0 Si1 1.678914 1_555
O1 Si3 1.678914 1_555
O2 Si0 1.678914 1_555
O3 Si1 1.678914 1_555
O4 Si2 1.678914 1_555
O5 Si2 1.624562 1_555
O6 Si2 1.678914 1_555
O7 Si3 1.678914 1_555
O8 Si0 1.624562 1_555
O9 Si3 1.624562 1_655
O10 Si0 1.639352 1_556
O11 Si1 1.624562 1_455
O12 Si1 1.639352 1_555
O13 Si3 1.639352 1_555
O14 Si2 1.639352 1_554
O15 Si0 1.678914 1_555
