# generated using pymatgen
data_Li4Ti3Mn3V2O16
_symmetry_space_group_name_H-M   'P 1'
_cell_length_a   5.93313985
_cell_length_b   5.93313985
_cell_length_c   9.64198997
_cell_angle_alpha   88.89258513
_cell_angle_beta   88.89258513
_cell_angle_gamma   60.51827958
_symmetry_Int_Tables_number   1
_chemical_formula_structural   Li4Ti3Mn3V2O16
_chemical_formula_sum   'Li4 Ti3 Mn3 V2 O16'
_cell_volume   295.39438852
_cell_formula_units_Z   1
loop_
 _symmetry_equiv_pos_site_id
 _symmetry_equiv_pos_as_xyz
  1  'x, y, z'
loop_
 _atom_site_type_symbol
 _atom_site_label
 _atom_site_symmetry_multiplicity
 _atom_site_fract_x
 _atom_site_fract_y
 _atom_site_fract_z
 _atom_site_occupancy
  Li  Li0  1  0.33131900  0.33131900  0.89488300  1
  Li  Li1  1  0.00209000  0.00209000  0.99237300  1
  Li  Li2  1  0.00259400  0.00259400  0.49608600  1
  Li  Li3  1  0.66825100  0.66825100  0.39643900  1
  Ti  Ti0  1  0.16591800  0.66429500  0.21549600  1
  Ti  Ti1  1  0.66429500  0.16591800  0.21549600  1
  Ti  Ti2  1  0.82770100  0.82770100  0.71812800  1
  Mn  Mn0  1  0.16948600  0.16948600  0.21110400  1
  Mn  Mn1  1  0.34047900  0.81941500  0.71311100  1
  Mn  Mn2  1  0.81941500  0.34047900  0.71311100  1
  V  V0  1  0.32966100  0.32966100  0.49068500  1
  V  V1  1  0.65878600  0.65878600  0.98463600  1
  O  O0  1  0.16079000  0.67094500  0.59735500  1
  O  O1  1  0.48126000  0.48126000  0.33703500  1
  O  O2  1  0.33358900  0.33358900  0.10789000  1
  O  O3  1  0.00403500  0.00403500  0.30916400  1
  O  O4  1  0.00177000  0.00177000  0.80327700  1
  O  O5  1  0.67094500  0.16079000  0.59735500  1
  O  O6  1  0.04360200  0.49423900  0.34479000  1
  O  O7  1  0.49423900  0.04360200  0.34479000  1
  O  O8  1  0.83834200  0.83834200  0.10957900  1
  O  O9  1  0.17806300  0.17806300  0.58265000  1
  O  O10  1  0.52539400  0.95669900  0.83839800  1
  O  O11  1  0.95669900  0.52539400  0.83839800  1
  O  O12  1  0.66626500  0.66626500  0.60842200  1
  O  O13  1  0.32918000  0.82271300  0.09815800  1
  O  O14  1  0.51220500  0.51220500  0.85090500  1
  O  O15  1  0.82271300  0.32918000  0.09815800  1
loop_
_geom_bond_atom_site_label_1
_geom_bond_atom_site_label_2
_geom_bond_distance
_geom_bond_site_symmetry_2
Li0 O14 1.892603 1_555
Li0 O10 2.016480 1_545
Li0 O11 2.016480 1_455
Li0 O2 2.054464 1_556
Li1 O4 1.823338 1_555
Li1 O13 1.985152 1_546
Li1 O15 1.985152 1_456
Li1 O8 2.002271 1_446
Li2 O3 1.802030 1_555
Li2 O5 1.962036 1_455
Li2 O0 1.962036 1_545
Li2 O9 1.999586 1_555
Li3 O6 1.996842 1_655
Li3 O7 1.996842 1_565
Li3 O1 2.012574 1_555
Li3 O12 2.043584 1_555
Mn0 O3 1.923004 1_555
Mn0 O2 1.935087 1_555
Mn0 O15 2.108258 1_455
Mn0 O13 2.108258 1_545
Mn0 O6 2.138744 1_555
Mn0 O7 2.138744 1_555
Mn1 O4 1.947728 1_565
Mn1 O12 1.952447 1_555
Mn1 O0 2.041247 1_555
Mn1 O14 2.063100 1_555
Mn1 O10 2.072511 1_555
Mn1 O9 2.228000 1_565
Mn2 O4 1.947728 1_655
Mn2 O12 1.952447 1_555
Mn2 O5 2.041247 1_555
Mn2 O14 2.063100 1_555
Mn2 O11 2.072511 1_555
Mn2 O9 2.228000 1_655
O0 V0 2.050757 1_555
O0 Ti2 2.066497 1_455
O1 Ti0 2.022081 1_555
O1 Ti1 2.022081 1_555
O1 V0 2.122774 1_555
O2 Ti0 2.008376 1_555
O2 Ti1 2.008376 1_555
O3 Ti1 1.983061 1_455
O3 Ti0 1.983061 1_545
O4 Ti2 1.980586 1_445
O5 V0 2.050757 1_555
O5 Ti2 2.066497 1_545
O6 Ti0 1.932861 1_555
O6 V0 2.054474 1_555
O7 Ti1 1.932861 1_555
O7 V0 2.054474 1_555
O8 Ti1 1.986755 1_565
O8 Ti0 1.986755 1_655
O8 V1 2.222044 1_554
O9 V0 1.771711 1_555
O10 Ti2 1.936583 1_555
O10 V1 2.075734 1_555
O11 Ti2 1.936583 1_555
O11 V1 2.075734 1_555
O12 Ti2 1.983707 1_555
O13 Ti0 1.978491 1_555
O13 V1 2.013626 1_554
O14 V1 2.001626 1_555
O15 Ti1 1.978491 1_555
O15 V1 2.013626 1_554
