# generated using pymatgen
data_Li10Ti4O13
_symmetry_space_group_name_H-M   'P 1'
_cell_length_a   7.78479500
_cell_length_b   8.95331238
_cell_length_c   10.74095897
_cell_angle_alpha   66.11674182
_cell_angle_beta   71.97348981
_cell_angle_gamma   76.12303752
_symmetry_Int_Tables_number   1
_chemical_formula_structural   Li10Ti4O13
_chemical_formula_sum   'Li20 Ti8 O26'
_cell_volume   645.26223445
_cell_formula_units_Z   2
loop_
 _symmetry_equiv_pos_site_id
 _symmetry_equiv_pos_as_xyz
  1  'x, y, z'
loop_
 _atom_site_type_symbol
 _atom_site_label
 _atom_site_symmetry_multiplicity
 _atom_site_fract_x
 _atom_site_fract_y
 _atom_site_fract_z
 _atom_site_occupancy
  Li  Li0  1  0.51691600  0.61464000  0.09749700  1
  Li  Li1  1  0.14052200  0.53836400  0.11378200  1
  Li  Li2  1  0.19190900  0.20459100  0.03426700  1
  Li  Li3  1  0.79433300  0.06120500  0.09282900  1
  Li  Li4  1  0.48768200  0.95909000  0.13026900  1
  Li  Li5  1  0.98983000  0.30434400  0.42259300  1
  Li  Li6  1  0.39940000  0.50545800  0.37315600  1
  Li  Li7  1  0.10751900  0.02715500  0.38642000  1
  Li  Li8  1  0.63812900  0.21319600  0.52187400  1
  Li  Li9  1  0.75790900  0.92710600  0.39640700  1
  Li  Li10  1  0.24209100  0.07289400  0.60359300  1
  Li  Li11  1  0.36187100  0.78680400  0.47812600  1
  Li  Li12  1  0.89248100  0.97284500  0.61358000  1
  Li  Li13  1  0.60060000  0.49454200  0.62684400  1
  Li  Li14  1  0.01017000  0.69565600  0.57740700  1
  Li  Li15  1  0.51231800  0.04091000  0.86973100  1
  Li  Li16  1  0.20566700  0.93879500  0.90717100  1
  Li  Li17  1  0.80809100  0.79540900  0.96573300  1
  Li  Li18  1  0.85947800  0.46163600  0.88621800  1
  Li  Li19  1  0.48308400  0.38536000  0.90250300  1
  Ti  Ti0  1  0.75151600  0.67102000  0.27727500  1
  Ti  Ti1  1  0.81635200  0.31137900  0.21915200  1
  Ti  Ti2  1  0.40619500  0.24696300  0.24229500  1
  Ti  Ti3  1  0.15170000  0.79840600  0.23057600  1
  Ti  Ti4  1  0.84830000  0.20159400  0.76942400  1
  Ti  Ti5  1  0.59380500  0.75303700  0.75770500  1
  Ti  Ti6  1  0.18364800  0.68862100  0.78084800  1
  Ti  Ti7  1  0.24848400  0.32898000  0.72272500  1
  O  O0  1  0.62555700  0.74716000  0.14898100  1
  O  O1  1  0.25667500  0.60037100  0.22243700  1
  O  O2  1  0.30796500  0.34050000  0.09141600  1
  O  O3  1  0.91771600  0.27273300  0.05864200  1
  O  O4  1  0.89816400  0.47113800  0.25713000  1
  O  O5  1  0.56686400  0.38105800  0.24473500  1
  O  O6  1  0.26152200  0.96048500  0.07881300  1
  O  O7  1  0.55704300  0.06408600  0.22980200  1
  O  O8  1  0.22805900  0.18261200  0.40301300  1
  O  O9  1  0.85458900  0.13023500  0.36845300  1
  O  O10  1  0.89612500  0.83277200  0.24194900  1
  O  O11  1  0.17510900  0.80199100  0.39269000  1
  O  O12  1  0.41012900  0.35236800  0.55863200  1
  O  O13  1  0.58987100  0.64763200  0.44136800  1
  O  O14  1  0.82489100  0.19800900  0.60731000  1
  O  O15  1  0.10387500  0.16722800  0.75805100  1
  O  O16  1  0.14541100  0.86976500  0.63154700  1
  O  O17  1  0.77194100  0.81738800  0.59698700  1
  O  O18  1  0.44295700  0.93591400  0.77019800  1
  O  O19  1  0.73847800  0.03951500  0.92118700  1
  O  O20  1  0.43313600  0.61894200  0.75526500  1
  O  O21  1  0.10183600  0.52886200  0.74287000  1
  O  O22  1  0.08228400  0.72726700  0.94135800  1
  O  O23  1  0.69203500  0.65950000  0.90858400  1
  O  O24  1  0.74332500  0.39962900  0.77756300  1
  O  O25  1  0.37444300  0.25284000  0.85101900  1
loop_
_geom_bond_atom_site_label_1
_geom_bond_atom_site_label_2
_geom_bond_distance
_geom_bond_site_symmetry_2
Li0 O0 1.931564 1_555
Li0 O23 2.006927 1_554
Li0 O1 2.055296 1_555
Li0 O5 2.082859 1_555
Li1 O1 1.976472 1_555
Li1 O2 1.984521 1_555
Li1 O22 2.027670 1_554
Li1 O4 2.070986 1_455
Li2 O25 1.988666 1_554
Li2 O6 2.011182 1_545
Li2 O2 2.036948 1_555
Li2 O3 2.038579 1_455
Li3 O7 1.975688 1_555
Li3 O19 2.110023 1_554
Li3 O10 2.175285 1_545
Li3 O3 2.176084 1_555
Li4 O0 1.908044 1_555
Li4 O7 1.932036 1_565
Li4 O6 1.997866 1_555
Li4 O19 2.454577 1_564
Li5 O8 1.909496 1_655
Li5 O14 1.992897 1_555
Li5 O4 2.005628 1_555
Li5 O9 2.403500 1_555
Li6 O12 1.921319 1_555
Li6 O1 2.030702 1_555
Li6 O5 2.068170 1_555
Li7 O11 1.936152 1_545
Li7 O8 1.944339 1_555
Li7 O9 1.996316 1_455
Li7 O16 2.506369 1_545
Li8 O14 1.898504 1_555
Li8 O12 1.939763 1_555
Li8 O9 2.186076 1_555
Li9 O17 1.999727 1_555
Li9 O9 2.009662 1_565
Li9 O10 2.053622 1_555
Li9 O7 2.487248 1_565
Li10 O8 1.999727 1_555
Li10 O16 2.009662 1_545
Li10 O15 2.053622 1_555
Li10 O18 2.487248 1_545
Li11 O11 1.898504 1_555
Li11 O13 1.939763 1_555
Li11 O16 2.186076 1_555
Li12 O14 1.936152 1_565
Li12 O17 1.944339 1_555
Li12 O16 1.996316 1_655
Li12 O9 2.506369 1_565
Li13 O13 1.921319 1_555
Li13 O24 2.030702 1_555
Li13 O20 2.068170 1_555
Li14 O17 1.909496 1_455
Li14 O11 1.992897 1_555
Li14 O21 2.005628 1_555
Li14 O16 2.403500 1_555
Li15 O25 1.908044 1_555
Li15 O18 1.932036 1_545
Li15 O19 1.997866 1_555
Li15 O6 2.454577 1_546
Li16 O18 1.975688 1_555
Li16 O6 2.110023 1_556
Li16 O15 2.175285 1_565
Li16 O22 2.176084 1_555
Li17 O0 1.988666 1_556
Li17 O19 2.011182 1_565
Li17 O23 2.036948 1_555
Li17 O22 2.038579 1_655
Li18 O24 1.976472 1_555
Li18 O23 1.984521 1_555
Li18 O3 2.027670 1_556
Li18 O21 2.070986 1_655
Li19 O25 1.931564 1_555
Li19 O2 2.006927 1_556
Li19 O24 2.055296 1_555
Li19 O20 2.082859 1_555
O0 Ti0 1.755019 1_555
O1 Ti3 1.790394 1_555
O2 Ti2 1.809210 1_555
O3 Ti1 1.795763 1_555
O4 Ti1 1.920478 1_555
O4 Ti0 1.932223 1_555
O5 Ti1 1.861235 1_555
O5 Ti2 1.942327 1_555
O6 Ti3 1.819624 1_555
O7 Ti2 1.798900 1_555
O8 Ti2 1.825182 1_555
O9 Ti1 1.802347 1_555
O10 Ti0 1.892437 1_555
O10 Ti3 1.911665 1_655
O11 Ti3 1.819527 1_555
O12 Ti7 1.785683 1_555
O13 Ti0 1.785683 1_555
O14 Ti4 1.819527 1_555
O15 Ti7 1.892437 1_555
O15 Ti4 1.911665 1_455
O16 Ti6 1.802347 1_555
O17 Ti5 1.825182 1_555
O18 Ti5 1.798900 1_555
O19 Ti4 1.819624 1_555
O20 Ti6 1.861235 1_555
O20 Ti5 1.942327 1_555
O21 Ti6 1.920478 1_555
O21 Ti7 1.932223 1_555
O22 Ti6 1.795763 1_555
O23 Ti5 1.809210 1_555
O24 Ti4 1.790394 1_555
O25 Ti7 1.755019 1_555
