# generated using pymatgen
data_Li3V4NiO12
_symmetry_space_group_name_H-M   'P 1'
_cell_length_a   5.38967334
_cell_length_b   10.75277125
_cell_length_c   9.51789519
_cell_angle_alpha   27.80484233
_cell_angle_beta   50.29133654
_cell_angle_gamma   55.71940058
_symmetry_Int_Tables_number   1
_chemical_formula_structural   Li3V4NiO12
_chemical_formula_sum   'Li3 V4 Ni1 O12'
_cell_volume   197.93881497
_cell_formula_units_Z   1
loop_
 _symmetry_equiv_pos_site_id
 _symmetry_equiv_pos_as_xyz
  1  'x, y, z'
loop_
 _atom_site_type_symbol
 _atom_site_label
 _atom_site_symmetry_multiplicity
 _atom_site_fract_x
 _atom_site_fract_y
 _atom_site_fract_z
 _atom_site_occupancy
  Li  Li0  1  0.28708400  0.49908700  0.28723600  1
  Li  Li1  1  0.79119800  0.00190900  0.77993600  1
  Li  Li2  1  0.78136900  0.49637100  0.79175700  1
  V  V0  1  0.01766100  0.00107100  0.99994000  1
  V  V1  1  0.99008800  0.49149600  0.01712700  1
  V  V2  1  0.49086500  0.99359600  0.51911200  1
  V  V3  1  0.51278300  0.50247900  0.49847600  1
  Ni  Ni0  1  0.29171100  0.00246700  0.29415000  1
  O  O0  1  0.36049100  0.30463300  0.10851100  1
  O  O1  1  0.22585400  0.11737500  0.61822200  1
  O  O2  1  0.10952300  0.30907500  0.73097000  1
  O  O3  1  0.85464300  0.18145100  0.23427600  1
  O  O4  1  0.35067300  0.81039700  0.11047100  1
  O  O5  1  0.71467900  0.38567300  0.35386500  1
  O  O6  1  0.23172600  0.63139900  0.59401500  1
  O  O7  1  0.59779100  0.18931900  0.85552800  1
  O  O8  1  0.12938700  0.82483800  0.70852900  1
  O  O9  1  0.85176200  0.68982100  0.22927800  1
  O  O10  1  0.72973000  0.87697800  0.34779900  1
  O  O11  1  0.61058200  0.69056700  0.85039900  1
loop_
_geom_bond_atom_site_label_1
_geom_bond_atom_site_label_2
_geom_bond_distance
_geom_bond_site_symmetry_2
Li0 O1 2.050026 1_555
Li0 O11 2.050096 1_554
Li0 O9 2.060851 1_455
Li0 O5 2.129284 1_555
Li0 O2 2.167976 1_555
Li0 O4 2.178489 1_555
Li1 O8 2.050946 1_645
Li1 O5 2.063807 1_555
Li1 O4 2.068256 1_546
Li1 O1 2.164961 1_655
Li1 O9 2.195161 1_546
Li1 O7 2.214834 1_555
Li2 O0 2.004816 1_556
Li2 O2 2.064011 1_655
Li2 O10 2.075589 1_555
Li2 O3 2.179427 1_556
Li2 O11 2.181585 1_555
Li2 O6 2.200103 1_655
Ni0 O8 2.028682 1_545
Ni0 O0 2.044497 1_555
Ni0 O3 2.060531 1_455
Ni0 O7 2.069257 1_554
Ni0 O6 2.073307 1_545
Ni0 O10 2.094682 1_545
O0 V1 1.840522 1_455
O0 V2 2.165881 1_545
O1 V2 1.749120 1_545
O1 V0 2.087234 1_555
O2 V0 1.730861 1_555
O2 V3 2.179565 1_555
O3 V2 1.804390 1_545
O3 V1 2.131458 1_555
O4 V0 1.727221 1_564
O4 V3 2.144049 1_555
O5 V1 1.772673 1_555
O5 V3 2.064214 1_555
O6 V3 1.774159 1_555
O6 V1 2.228222 1_456
O7 V3 1.762084 1_555
O7 V0 2.236046 1_655
O8 V1 1.904542 1_456
O8 V2 2.011400 1_555
O9 V3 1.730407 1_555
O9 V0 2.172203 1_664
O10 V0 1.761413 1_664
O10 V2 2.237148 1_555
O11 V2 1.741028 1_555
O11 V1 2.118950 1_556
