# generated using pymatgen
data_Fe3O4
_symmetry_space_group_name_H-M   'P 1'
_cell_length_a   5.98854400
_cell_length_b   6.11678789
_cell_length_c   8.53488854
_cell_angle_alpha   90.10138956
_cell_angle_beta   90.00000000
_cell_angle_gamma   90.00000000
_symmetry_Int_Tables_number   1
_chemical_formula_structural   Fe3O4
_chemical_formula_sum   'Fe12 O16'
_cell_volume   312.63805459
_cell_formula_units_Z   4
loop_
 _symmetry_equiv_pos_site_id
 _symmetry_equiv_pos_as_xyz
  1  'x, y, z'
loop_
 _atom_site_type_symbol
 _atom_site_label
 _atom_site_symmetry_multiplicity
 _atom_site_fract_x
 _atom_site_fract_y
 _atom_site_fract_z
 _atom_site_occupancy
  Fe  Fe0  1  0.00000000  0.00000000  0.50000000  1
  Fe  Fe1  1  0.00000000  0.50000000  0.50000000  1
  Fe  Fe2  1  0.50000000  0.00000000  0.00000000  1
  Fe  Fe3  1  0.50000000  0.50000000  0.00000000  1
  Fe  Fe4  1  0.50000000  0.75403700  0.37358300  1
  Fe  Fe5  1  0.50000000  0.24596300  0.62641700  1
  Fe  Fe6  1  0.00000000  0.75439800  0.12495800  1
  Fe  Fe7  1  0.00000000  0.24560200  0.87504200  1
  Fe  Fe8  1  0.75252300  0.25449900  0.25126100  1
  Fe  Fe9  1  0.75252300  0.74550200  0.74873900  1
  Fe  Fe10  1  0.24747700  0.25449900  0.25126100  1
  Fe  Fe11  1  0.24747700  0.74550200  0.74873900  1
  O  O0  1  0.00000000  0.99057000  0.73858700  1
  O  O1  1  0.00000000  0.49085200  0.24498000  1
  O  O2  1  0.00000000  0.50914800  0.75502000  1
  O  O3  1  0.00000000  0.00943000  0.26141300  1
  O  O4  1  0.23852500  0.76095300  0.50563400  1
  O  O5  1  0.23852500  0.23904700  0.49436600  1
  O  O6  1  0.76147500  0.23904700  0.49436600  1
  O  O7  1  0.76147500  0.76095300  0.50563400  1
  O  O8  1  0.26201900  0.23757700  0.00737500  1
  O  O9  1  0.26201900  0.76242300  0.99262500  1
  O  O10  1  0.73798100  0.76242300  0.99262500  1
  O  O11  1  0.73798100  0.23757700  0.00737500  1
  O  O12  1  0.50000000  0.50897800  0.74652200  1
  O  O13  1  0.50000000  0.01118900  0.24117200  1
  O  O14  1  0.50000000  0.49102200  0.25347800  1
  O  O15  1  0.50000000  0.98881100  0.75882800  1
loop_
_geom_bond_atom_site_label_1
_geom_bond_atom_site_label_2
_geom_bond_distance
_geom_bond_site_symmetry_2
Fe0 O3 2.037232 1_555
Fe0 O0 2.037232 1_545
Fe0 O6 2.044741 1_455
Fe0 O7 2.044741 1_445
Fe0 O5 2.044741 1_555
Fe0 O4 2.044741 1_545
Fe1 O7 2.142488 1_455
Fe1 O4 2.142488 1_555
Fe1 O6 2.142488 1_455
Fe1 O5 2.142488 1_555
Fe1 O1 2.177187 1_555
Fe1 O2 2.177187 1_555
Fe2 O11 2.036304 1_555
Fe2 O9 2.036304 1_544
Fe2 O10 2.036304 1_544
Fe2 O8 2.036304 1_555
Fe2 O13 2.059393 1_555
Fe2 O15 2.059393 1_544
Fe3 O11 2.147562 1_555
Fe3 O10 2.147562 1_554
Fe3 O8 2.147562 1_555
Fe3 O9 2.147562 1_554
Fe3 O14 2.164201 1_555
Fe3 O12 2.164201 1_554
Fe4 O14 1.906100 1_555
Fe4 O4 1.929700 1_555
Fe4 O7 1.929700 1_555
Fe4 O13 1.938453 1_565
Fe5 O12 1.906100 1_555
Fe5 O6 1.929700 1_555
Fe5 O5 1.929700 1_555
Fe5 O15 1.938453 1_545
Fe6 O1 1.911520 1_555
Fe6 O9 1.934004 1_554
Fe6 O10 1.934004 1_454
Fe6 O3 1.945111 1_565
Fe7 O2 1.911520 1_555
Fe7 O8 1.934004 1_556
Fe7 O11 1.934004 1_456
Fe7 O0 1.945111 1_545
Fe8 O1 2.071150 1_655
Fe8 O6 2.077884 1_555
Fe8 O11 2.085748 1_555
Fe8 O14 2.092908 1_555
Fe8 O3 2.109852 1_655
Fe8 O13 2.123396 1_555
Fe9 O2 2.071154 1_655
Fe9 O7 2.077884 1_555
Fe9 O10 2.085747 1_555
Fe9 O12 2.092912 1_555
Fe9 O0 2.109848 1_655
Fe9 O15 2.123392 1_555
Fe10 O1 2.071150 1_555
Fe10 O5 2.077884 1_555
Fe10 O8 2.085748 1_555
Fe10 O14 2.092908 1_555
Fe10 O3 2.109852 1_555
Fe10 O13 2.123396 1_555
Fe11 O2 2.071154 1_555
Fe11 O4 2.077884 1_555
Fe11 O9 2.085747 1_555
Fe11 O12 2.092912 1_555
Fe11 O0 2.109848 1_555
Fe11 O15 2.123392 1_555
