# generated using pymatgen
data_KI(OF)2
_symmetry_space_group_name_H-M   'P 1'
_cell_length_a   6.00567000
_cell_length_b   8.73181800
_cell_length_c   8.80936600
_cell_angle_alpha   90.00000000
_cell_angle_beta   90.00000000
_cell_angle_gamma   90.00000000
_symmetry_Int_Tables_number   1
_chemical_formula_structural   KI(OF)2
_chemical_formula_sum   'K4 I4 O8 F8'
_cell_volume   461.96683014
_cell_formula_units_Z   4
loop_
 _symmetry_equiv_pos_site_id
 _symmetry_equiv_pos_as_xyz
  1  'x, y, z'
loop_
 _atom_site_type_symbol
 _atom_site_label
 _atom_site_symmetry_multiplicity
 _atom_site_fract_x
 _atom_site_fract_y
 _atom_site_fract_z
 _atom_site_occupancy
  K  K0  1  0.48227200  0.25739900  0.21717500  1
  K  K1  1  0.48227200  0.75739900  0.28282500  1
  K  K2  1  0.51772800  0.25739900  0.71717500  1
  K  K3  1  0.51772800  0.75739900  0.78282500  1
  I  I0  1  0.04659200  0.02038900  0.01758500  1
  I  I1  1  0.95340800  0.52038900  0.98241500  1
  I  I2  1  0.04659200  0.52038900  0.48241500  1
  I  I3  1  0.95340800  0.02038900  0.51758500  1
  O  O0  1  0.99036600  0.72622900  0.98898100  1
  O  O1  1  0.17812100  0.99709700  0.20041600  1
  O  O2  1  0.17812100  0.49709700  0.29958400  1
  O  O3  1  0.99036600  0.22622900  0.51101900  1
  O  O4  1  0.00963400  0.72622900  0.48898100  1
  O  O5  1  0.82187900  0.99709700  0.70041600  1
  O  O6  1  0.82187900  0.49709700  0.79958400  1
  O  O7  1  0.00963400  0.22622900  0.01101900  1
  F  F0  1  0.63833200  0.54069800  0.07918100  1
  F  F1  1  0.73980800  0.99478900  0.10860200  1
  F  F2  1  0.73980800  0.49478900  0.39139800  1
  F  F3  1  0.63833200  0.04069800  0.42082000  1
  F  F4  1  0.36166800  0.54069800  0.57918000  1
  F  F5  1  0.26019200  0.99478900  0.60860200  1
  F  F6  1  0.26019200  0.49478900  0.89139800  1
  F  F7  1  0.36166800  0.04069800  0.92082000  1
loop_
_geom_bond_atom_site_label_1
_geom_bond_atom_site_label_2
_geom_bond_distance
_geom_bond_site_symmetry_2
K0 O2 2.871282 1_555
K0 O1 2.919674 1_545
K1 O1 2.871282 1_555
K1 O2 2.919674 1_555
K2 O6 2.871282 1_555
K2 O5 2.919674 1_545
K3 O5 2.871282 1_555
K3 O6 2.919674 1_555
I0 O1 1.805395 1_545
I0 O7 1.811934 1_555
I0 O0 2.602879 1_444
I1 O6 1.805395 1_555
I1 O0 1.811934 1_555
I1 O7 2.602879 1_656
I2 O2 1.805395 1_555
I2 O4 1.811934 1_555
I2 O3 2.602879 1_455
I3 O5 1.805395 1_545
I3 O3 1.811934 1_555
I3 O4 2.602879 1_645
F0 I1 2.082953 1_554
F0 K1 2.770771 1_555
F0 K0 2.911267 1_555
F1 I0 2.021745 1_665
F1 K0 2.926629 1_565
F1 K1 3.007406 1_555
F2 I2 2.021745 1_655
F2 K1 2.926629 1_555
F2 K0 3.007406 1_555
F3 I3 2.082950 1_555
F3 K0 2.770776 1_555
F3 K1 2.911271 1_545
F4 I2 2.082950 1_555
F4 K3 2.770776 1_555
F4 K2 2.911271 1_555
F5 I3 2.021745 1_465
F5 K2 2.926629 1_565
F5 K3 3.007406 1_555
F6 I1 2.021745 1_455
F6 K3 2.926629 1_555
F6 K2 3.007406 1_555
F7 I0 2.082950 1_556
F7 K2 2.770776 1_555
F7 K3 2.911271 1_545
