# generated using pymatgen
data_Li2Sn(PO3)6
_symmetry_space_group_name_H-M   'P 1'
_cell_length_a   7.59079400
_cell_length_b   7.65430294
_cell_length_c   7.68790204
_cell_angle_alpha   106.45456168
_cell_angle_beta   101.24834131
_cell_angle_gamma   114.88806190
_symmetry_Int_Tables_number   1
_chemical_formula_structural   Li2Sn(PO3)6
_chemical_formula_sum   'Li2 Sn1 P6 O18'
_cell_volume   362.36533701
_cell_formula_units_Z   1
loop_
 _symmetry_equiv_pos_site_id
 _symmetry_equiv_pos_as_xyz
  1  'x, y, z'
loop_
 _atom_site_type_symbol
 _atom_site_label
 _atom_site_symmetry_multiplicity
 _atom_site_fract_x
 _atom_site_fract_y
 _atom_site_fract_z
 _atom_site_occupancy
  Li  Li0  1  0.51622100  0.96252200  0.42332900  1
  Li  Li1  1  0.72067200  0.86665900  0.16457000  1
  Sn  Sn0  1  0.24208800  0.09517800  0.83100400  1
  P  P0  1  0.96498500  0.29620900  0.73247600  1
  P  P1  1  0.31685500  0.67988500  0.79005500  1
  P  P2  1  0.22588100  0.28140100  0.50521200  1
  P  P3  1  0.81534200  0.74069900  0.51476700  1
  P  P4  1  0.00657900  0.68773800  0.22367000  1
  P  P5  1  0.67003500  0.31809200  0.23177500  1
  O  O0  1  0.10365700  0.27422900  0.89208900  1
  O  O1  1  0.47168700  0.71057800  0.96090900  1
  O  O2  1  0.07998800  0.54466600  0.77728600  1
  O  O3  1  0.74160100  0.20742800  0.69681500  1
  O  O4  1  0.34931900  0.22943200  0.65048100  1
  O  O5  1  0.00189000  0.20223700  0.53229700  1
  O  O6  1  0.33378500  0.87587500  0.76078200  1
  O  O7  1  0.93378000  0.84604100  0.73814400  1
  O  O8  1  0.31925500  0.53500400  0.59085000  1
  O  O9  1  0.20350000  0.19385900  0.30096000  1
  O  O10  1  0.70455200  0.48749600  0.43940700  1
  O  O11  1  0.63999100  0.12182500  0.25152700  1
  O  O12  1  0.00989300  0.79985500  0.44448100  1
  O  O13  1  0.66785100  0.80129600  0.43229500  1
  O  O14  1  0.22650900  0.75134100  0.24920900  1
  O  O15  1  0.88182100  0.43771400  0.19870800  1
  O  O16  1  0.49234000  0.29999200  0.07505200  1
  O  O17  1  0.86685700  0.71851800  0.08741300  1
loop_
_geom_bond_atom_site_label_1
_geom_bond_atom_site_label_2
_geom_bond_distance
_geom_bond_site_symmetry_2
Li0 O14 1.968428 1_555
Li0 O13 2.016248 1_555
Li0 O3 2.127466 1_565
Li0 O11 2.132194 1_565
Li1 O1 1.826527 1_554
Li1 O17 1.950330 1_555
Li1 O11 2.250220 1_565
Li1 O13 2.320326 1_555
O0 P0 1.550544 1_455
O0 Sn0 2.059873 1_555
O1 P1 1.467086 1_555
O2 P0 1.616053 1_455
O2 P1 1.618932 1_555
O3 P0 1.468142 1_555
O4 P2 1.562245 1_555
O4 Sn0 2.046771 1_555
O5 P2 1.625999 1_555
O5 P0 1.635522 1_455
O6 P1 1.535557 1_555
O6 Sn0 2.051909 1_565
O7 P3 1.552619 1_555
O7 Sn0 2.108029 1_665
O8 P2 1.624748 1_555
O8 P1 1.625204 1_555
O9 P2 1.465482 1_555
O10 P3 1.612776 1_555
O10 P5 1.635951 1_555
O11 P5 1.478617 1_555
O12 P3 1.601569 1_455
O12 P4 1.660941 1_555
O13 P3 1.482342 1_555
O14 P4 1.482057 1_555
O15 P5 1.593673 1_555
O15 P4 1.670848 1_655
O16 P5 1.550618 1_555
O16 Sn0 2.005763 1_554
O17 P4 1.481352 1_655
