# generated using pymatgen
data_La2SiO5
_symmetry_space_group_name_H-M   'P 1'
_cell_length_a   8.30057801
_cell_length_b   8.30057801
_cell_length_c   11.79375435
_cell_angle_alpha   84.12526395
_cell_angle_beta   84.12526395
_cell_angle_gamma   91.13912160
_symmetry_Int_Tables_number   1
_chemical_formula_structural   La2SiO5
_chemical_formula_sum   'La12 Si6 O30'
_cell_volume   803.69354040
_cell_formula_units_Z   6
loop_
 _symmetry_equiv_pos_site_id
 _symmetry_equiv_pos_as_xyz
  1  'x, y, z'
loop_
 _atom_site_type_symbol
 _atom_site_label
 _atom_site_symmetry_multiplicity
 _atom_site_fract_x
 _atom_site_fract_y
 _atom_site_fract_z
 _atom_site_occupancy
  La  La0  1  0.71402600  0.00177500  0.93135000  1
  La  La1  1  0.00177500  0.71402600  0.43135000  1
  La  La2  1  0.36032100  0.02035700  0.74491300  1
  La  La3  1  0.02035700  0.36032100  0.24491300  1
  La  La4  1  0.38535300  0.66311600  0.57031100  1
  La  La5  1  0.33688400  0.61464700  0.92968900  1
  La  La6  1  0.66311600  0.38535300  0.07031100  1
  La  La7  1  0.61464700  0.33688400  0.42968900  1
  La  La8  1  0.97964300  0.63967900  0.75508700  1
  La  La9  1  0.63967900  0.97964300  0.25508700  1
  La  La10  1  0.99822500  0.28597400  0.56865000  1
  La  La11  1  0.28597400  0.99822500  0.06865000  1
  Si  Si0  1  0.73128300  0.92794200  0.55149400  1
  Si  Si1  1  0.92794200  0.73128300  0.05149400  1
  Si  Si2  1  0.63229000  0.36771000  0.75000000  1
  Si  Si3  1  0.36771000  0.63229000  0.25000000  1
  Si  Si4  1  0.07205800  0.26871700  0.94850600  1
  Si  Si5  1  0.26871700  0.07205800  0.44850600  1
  O  O0  1  0.87516400  0.83532700  0.61788100  1
  O  O1  1  0.83532700  0.87516400  0.11788100  1
  O  O2  1  0.85117800  0.74454900  0.92520900  1
  O  O3  1  0.74454900  0.85117800  0.42520900  1
  O  O4  1  0.55017700  0.88276300  0.61838200  1
  O  O5  1  0.44843000  0.88448600  0.92317800  1
  O  O6  1  0.88276300  0.55017700  0.11838200  1
  O  O7  1  0.88448600  0.44843000  0.42317800  1
  O  O8  1  0.83017200  0.40116700  0.71811600  1
  O  O9  1  0.40116700  0.83017200  0.21811600  1
  O  O10  1  0.87451000  0.23577800  0.96910800  1
  O  O11  1  0.56752600  0.45793200  0.86540900  1
  O  O12  1  0.23577800  0.87451000  0.46910800  1
  O  O13  1  0.25725300  0.74274700  0.75000000  1
  O  O14  1  0.45793200  0.56752600  0.36540900  1
  O  O15  1  0.54206800  0.43247400  0.63459100  1
  O  O16  1  0.74274700  0.25725300  0.25000000  1
  O  O17  1  0.76422200  0.12549000  0.53089200  1
  O  O18  1  0.43247400  0.54206800  0.13459100  1
  O  O19  1  0.12549000  0.76422200  0.03089200  1
  O  O20  1  0.59883300  0.16982800  0.78188400  1
  O  O21  1  0.16982800  0.59883300  0.28188400  1
  O  O22  1  0.11551400  0.55157000  0.57682200  1
  O  O23  1  0.11723700  0.44982300  0.88161800  1
  O  O24  1  0.55157000  0.11551400  0.07682200  1
  O  O25  1  0.44982300  0.11723700  0.38161800  1
  O  O26  1  0.25545100  0.14882200  0.57479100  1
  O  O27  1  0.14882200  0.25545100  0.07479100  1
  O  O28  1  0.16467300  0.12483600  0.88211900  1
  O  O29  1  0.12483600  0.16467300  0.38211900  1
loop_
_geom_bond_atom_site_label_1
_geom_bond_atom_site_label_2
_geom_bond_distance
_geom_bond_site_symmetry_2
La0 O24 2.358349 1_556
La0 O5 2.407228 1_545
La0 O20 2.421188 1_555
La0 O10 2.437457 1_555
La0 O2 2.443660 1_545
La0 O1 2.641979 1_546
La1 O22 2.358349 1_555
La1 O7 2.407228 1_455
La1 O21 2.421188 1_555
La1 O12 2.437457 1_555
La1 O3 2.443660 1_455
La1 O0 2.641979 1_455
La2 O28 2.411069 1_555
La2 O20 2.416360 1_555
La2 O26 2.424215 1_555
La2 O13 2.434797 1_545
La2 O4 2.440052 1_545
La2 O5 2.467619 1_545
La3 O29 2.411069 1_555
La3 O21 2.416360 1_555
La3 O27 2.424215 1_555
La3 O16 2.434797 1_455
La3 O6 2.440052 1_455
La3 O7 2.467619 1_455
La4 O22 2.397447 1_555
La4 O4 2.405921 1_555
La4 O13 2.431454 1_555
La4 O15 2.436353 1_555
La4 O12 2.450766 1_555
La4 O14 2.635486 1_555
La5 O5 2.397447 1_555
La5 O23 2.405921 1_555
La5 O13 2.431454 1_555
La5 O11 2.436353 1_555
La5 O19 2.450766 1_556
La5 O18 2.635486 1_556
La6 O24 2.397447 1_555
La6 O6 2.405921 1_555
La6 O16 2.431454 1_555
La6 O18 2.436353 1_555
La6 O10 2.450766 1_554
La6 O11 2.635486 1_554
La7 O7 2.397447 1_555
La7 O25 2.405921 1_555
La7 O16 2.431454 1_555
La7 O14 2.436353 1_555
La7 O17 2.450766 1_555
La7 O15 2.635486 1_555
La8 O0 2.411069 1_555
La8 O8 2.416360 1_555
La8 O2 2.424215 1_555
La8 O13 2.434797 1_655
La8 O23 2.440052 1_655
La8 O22 2.467619 1_655
La9 O1 2.411069 1_555
La9 O9 2.416360 1_555
La9 O3 2.424215 1_555
La9 O16 2.434797 1_565
La9 O25 2.440052 1_565
La9 O24 2.467619 1_565
La10 O7 2.358349 1_555
La10 O22 2.407228 1_655
La10 O8 2.421188 1_555
La10 O17 2.437457 1_555
La10 O26 2.443660 1_655
La10 O29 2.641979 1_655
La11 O5 2.358349 1_554
La11 O24 2.407228 1_565
La11 O9 2.421188 1_555
La11 O19 2.437457 1_555
La11 O27 2.443660 1_565
La11 O28 2.641979 1_564
O0 Si0 1.653800 1_555
O1 Si1 1.653800 1_555
O2 Si1 1.673276 1_556
O3 Si0 1.673276 1_555
O4 Si0 1.642275 1_555
O6 Si1 1.642275 1_555
O8 Si2 1.658461 1_555
O9 Si3 1.658461 1_555
O10 Si4 1.646095 1_655
O11 Si2 1.666532 1_555
O12 Si5 1.646095 1_565
O14 Si3 1.666532 1_555
O15 Si2 1.666532 1_555
O17 Si0 1.646095 1_545
O18 Si3 1.666532 1_555
O19 Si1 1.646095 1_455
O20 Si2 1.658461 1_555
O21 Si3 1.658461 1_555
O23 Si4 1.642275 1_555
O25 Si5 1.642275 1_555
O26 Si5 1.673276 1_555
O27 Si4 1.673276 1_554
O28 Si4 1.653800 1_555
O29 Si5 1.653800 1_555
