# generated using pymatgen
data_Li4V2Cr3Sn3O16
_symmetry_space_group_name_H-M   'P 1'
_cell_length_a   6.09962717
_cell_length_b   6.09962717
_cell_length_c   9.63924380
_cell_angle_alpha   89.49260281
_cell_angle_beta   89.49260281
_cell_angle_gamma   60.35857093
_symmetry_Int_Tables_number   1
_chemical_formula_structural   Li4V2Cr3Sn3O16
_chemical_formula_sum   'Li4 V2 Cr3 Sn3 O16'
_cell_volume   311.68454451
_cell_formula_units_Z   1
loop_
 _symmetry_equiv_pos_site_id
 _symmetry_equiv_pos_as_xyz
  1  'x, y, z'
loop_
 _atom_site_type_symbol
 _atom_site_label
 _atom_site_symmetry_multiplicity
 _atom_site_fract_x
 _atom_site_fract_y
 _atom_site_fract_z
 _atom_site_occupancy
  Li  Li0  1  0.32944700  0.32944700  0.11254600  1
  Li  Li1  1  0.01291600  0.01291600  0.00932800  1
  Li  Li2  1  0.00697000  0.00697000  0.49868700  1
  Li  Li3  1  0.66504100  0.66504100  0.60130700  1
  V  V0  1  0.32290100  0.32290100  0.50285400  1
  V  V1  1  0.66134500  0.66134500  0.01532500  1
  Cr  Cr0  1  0.16959900  0.16959900  0.78545900  1
  Cr  Cr1  1  0.82267100  0.34401500  0.28503800  1
  Cr  Cr2  1  0.34401500  0.82267100  0.28503800  1
  Sn  Sn0  1  0.66183300  0.16937400  0.78635300  1
  Sn  Sn1  1  0.16937400  0.66183300  0.78635300  1
  Sn  Sn2  1  0.82961100  0.82961100  0.28598400  1
  O  O0  1  0.66594900  0.17085300  0.40634200  1
  O  O1  1  0.47853200  0.47853200  0.65059600  1
  O  O2  1  0.32838500  0.32838500  0.90130500  1
  O  O3  1  0.00524400  0.00524400  0.68381100  1
  O  O4  1  0.00547200  0.00547200  0.19469100  1
  O  O5  1  0.17085300  0.66594900  0.40634200  1
  O  O6  1  0.47280100  0.04358200  0.65468100  1
  O  O7  1  0.04358200  0.47280100  0.65468100  1
  O  O8  1  0.83745300  0.83745300  0.90546000  1
  O  O9  1  0.17656200  0.17656200  0.40320000  1
  O  O10  1  0.95967800  0.51278700  0.15788000  1
  O  O11  1  0.51278700  0.95967800  0.15788000  1
  O  O12  1  0.66144500  0.66144500  0.39657900  1
  O  O13  1  0.83810300  0.32762500  0.89996100  1
  O  O14  1  0.51998200  0.51998200  0.16449400  1
  O  O15  1  0.32762500  0.83810300  0.89996100  1
loop_
_geom_bond_atom_site_label_1
_geom_bond_atom_site_label_2
_geom_bond_distance
_geom_bond_site_symmetry_2
Li0 O10 2.006224 1_455
Li0 O11 2.006224 1_545
Li0 O2 2.036349 1_554
Li0 O14 2.075756 1_555
Li1 O4 1.787679 1_555
Li1 O13 1.972986 1_454
Li1 O15 1.972986 1_544
Li1 O8 2.112889 1_444
Li2 O3 1.784362 1_555
Li2 O9 2.003017 1_555
Li2 O0 2.019580 1_455
Li2 O5 2.019580 1_545
Li3 O12 1.974176 1_555
Li3 O1 2.018705 1_555
Li3 O7 2.074427 1_655
Li3 O6 2.074427 1_565
Cr0 O3 1.999738 1_555
Cr0 O2 2.022190 1_555
Cr0 O7 2.042067 1_555
Cr0 O6 2.042067 1_555
Cr0 O15 2.070568 1_545
Cr0 O13 2.070568 1_455
Cr1 O14 1.991660 1_555
Cr1 O4 2.000754 1_655
Cr1 O12 2.001678 1_555
Cr1 O10 2.017663 1_555
Cr1 O0 2.086555 1_555
Cr1 O9 2.200503 1_655
Cr2 O14 1.991660 1_555
Cr2 O4 2.000754 1_565
Cr2 O12 2.001678 1_555
Cr2 O11 2.017663 1_555
Cr2 O5 2.086555 1_555
Cr2 O9 2.200503 1_565
O0 V0 2.040897 1_555
O0 Sn2 2.154511 1_545
O1 Sn0 2.101250 1_555
O1 Sn1 2.101250 1_555
O1 V0 2.183961 1_555
O2 Sn1 2.081614 1_555
O2 Sn0 2.081614 1_555
O3 Sn1 2.067247 1_545
O3 Sn0 2.067247 1_455
O4 Sn2 2.044610 1_445
O5 V0 2.040897 1_555
O5 Sn2 2.154511 1_455
O6 V0 2.078276 1_555
O6 Sn0 2.108878 1_555
O7 V0 2.078276 1_555
O7 Sn1 2.108878 1_555
O8 Sn1 2.097620 1_655
O8 Sn0 2.097620 1_565
O8 V1 2.128464 1_556
O9 V0 1.826124 1_555
O10 Sn2 2.096948 1_555
O10 V1 2.100453 1_555
O11 Sn2 2.096948 1_555
O11 V1 2.100453 1_555
O12 Sn2 2.059805 1_555
O13 Sn0 2.086420 1_555
O13 V1 2.095370 1_556
O14 V1 2.060578 1_555
O15 Sn1 2.086420 1_555
O15 V1 2.095370 1_556
