# generated using pymatgen
data_Li5Mn12O24
_symmetry_space_group_name_H-M   'P 1'
_cell_length_a   5.83654949
_cell_length_b   6.02082901
_cell_length_c   54.01567563
_cell_angle_alpha   58.15566901
_cell_angle_beta   60.89672459
_cell_angle_gamma   61.02013233
_symmetry_Int_Tables_number   1
_chemical_formula_structural   Li5Mn12O24
_chemical_formula_sum   'Li15 Mn36 O72'
_cell_volume   1340.83083358
_cell_formula_units_Z   3
loop_
 _symmetry_equiv_pos_site_id
 _symmetry_equiv_pos_as_xyz
  1  'x, y, z'
loop_
 _atom_site_type_symbol
 _atom_site_label
 _atom_site_symmetry_multiplicity
 _atom_site_fract_x
 _atom_site_fract_y
 _atom_site_fract_z
 _atom_site_occupancy
  Li  Li0  1  0.10907728  0.13638768  0.01617206  1
  Li  Li1  1  0.13213111  0.11677799  0.12417897  1
  Li  Li2  1  0.11536814  0.13504891  0.34822349  1
  Li  Li3  1  0.11547382  0.13696566  0.45900470  1
  Li  Li4  1  0.86814249  0.88319168  0.20909054  1
  Li  Li5  1  0.12958651  0.11933732  0.56921428  1
  Li  Li6  1  0.89137362  0.86309049  0.31705542  1
  Li  Li7  1  0.13375229  0.11372414  0.67966611  1
  Li  Li8  1  0.88538495  0.86683027  0.42916353  1
  Li  Li9  1  0.13751904  0.11008117  0.79056743  1
  Li  Li10  1  0.87708804  0.87191643  0.54184802  1
  Li  Li11  1  0.86345390  0.88572293  0.65402265  1
  Li  Li12  1  0.86192588  0.88370665  0.76586427  1
  Li  Li13  1  0.86510618  0.88627235  0.87602797  1
  Li  Li14  1  0.89102360  0.86354812  0.98380330  1
  Mn  Mn0  1  0.99609113  0.50828428  0.05564284  1
  Mn  Mn1  1  0.49483121  0.50827815  0.05562035  1
  Mn  Mn2  1  0.00006261  0.49976315  0.16666728  1
  Mn  Mn3  1  0.50818704  0.48664850  0.11071623  1
  Mn  Mn4  1  0.49995461  0.00011189  0.16665426  1
  Mn  Mn5  1  0.49533164  0.00099215  0.05647224  1
  Mn  Mn6  1  0.50014472  0.49988596  0.16665556  1
  Mn  Mn7  1  0.00476977  0.49273612  0.27739471  1
  Mn  Mn8  1  0.49244796  0.51454953  0.22234151  1
  Mn  Mn9  1  0.50574016  0.49269016  0.27738709  1
  Mn  Mn10  1  0.00097828  0.50056525  0.38864659  1
  Mn  Mn11  1  0.50229320  0.50059393  0.33264109  1
  Mn  Mn12  1  0.50550137  0.00065784  0.27647963  1
  Mn  Mn13  1  0.00016900  0.50395660  0.50006721  1
  Mn  Mn14  1  0.50053621  0.50054395  0.38861667  1
  Mn  Mn15  1  0.49815613  -0.00099580  0.50053578  1
  Mn  Mn16  1  0.50117346  0.49810683  0.44418936  1
  Mn  Mn17  1  0.50057288  0.00092361  0.38866811  1
  Mn  Mn18  1  0.49581125  0.50411699  0.50003192  1
  Mn  Mn19  1  -0.00092746  0.50136267  0.61120322  1
  Mn  Mn20  1  0.50832726  0.48389700  0.55579103  1
  Mn  Mn21  1  0.49869908  0.50151258  0.61120372  1
  Mn  Mn22  1  -0.00136236  0.50102720  0.72236223  1
  Mn  Mn23  1  0.49896135  -0.00062782  0.72240960  1
  Mn  Mn24  1  0.49882057  0.49849448  0.66691421  1
  Mn  Mn25  1  0.49893607  -0.00207304  0.61162093  1
  Mn  Mn26  1  0.49862048  0.50091284  0.72235404  1
  Mn  Mn27  1  0.49847826  0.50071546  0.77805385  1
  Mn  Mn28  1  0.49730392  0.49658335  0.83430388  1
  Mn  Mn29  1  0.00354565  0.49192185  0.94440550  1
  Mn  Mn30  1  0.48861327  0.51806170  0.88951185  1
  Mn  Mn31  1  0.49972986  0.00250849  0.83310347  1
  Mn  Mn32  1  0.50483212  0.00018044  0.94337871  1
  Mn  Mn33  1  0.50503727  0.49201076  0.94441594  1
  Mn  Mn34  1  -0.00184378  0.49681499  0.83425383  1
  Mn  Mn35  1  0.50024167  0.50112331  -0.00016844  1
  O  O0  1  0.24556503  0.27768743  0.03102581  1
  O  O1  1  0.25025054  0.28345582  0.07952754  1
  O  O2  1  0.24698666  0.72442026  0.03130518  1
  O  O3  1  0.69745714  0.27791346  0.03099519  1
  O  O4  1  0.27543122  0.24942851  0.13945511  1
  O  O5  1  0.30317313  0.72171230  0.08109117  1
  O  O6  1  0.74674389  0.72605014  0.03119775  1
  O  O7  1  0.27787807  0.25500551  0.18771318  1
  O  O8  1  0.73110080  0.29907056  0.08196428  1
  O  O9  1  0.28110462  0.69959193  0.13743149  1
  O  O10  1  0.72036235  0.24861206  0.13910037  1
  O  O11  1  0.74451548  0.72175752  0.08109683  1
  O  O12  1  0.27997942  0.75167229  0.19415674  1
  O  O13  1  0.25554444  0.27904158  0.25206562  1
  O  O14  1  0.72227285  0.74553545  0.14552175  1
  O  O15  1  0.71882645  0.30095514  0.19584742  1
  O  O16  1  0.26901920  0.70212972  0.25116712  1
  O  O17  1  0.25236490  0.27675111  0.30198878  1
  O  O18  1  0.72455345  0.75081301  0.19381156  1
  O  O19  1  0.69723462  0.27908220  0.25207879  1
  O  O20  1  0.25089648  0.27527906  0.36364224  1
  O  O21  1  0.30271768  0.72293588  0.30211635  1
  O  O22  1  0.75388618  0.27511313  0.30183694  1
  O  O23  1  0.75138606  0.71545660  0.25352652  1
  O  O24  1  0.24871540  0.28219510  0.41332382  1
  O  O25  1  0.24953243  0.72124472  0.36438512  1
  O  O26  1  0.75453325  0.72290449  0.30212825  1
  O  O27  1  0.70069645  0.27600187  0.36359347  1
  O  O28  1  0.24682642  0.27417128  0.47538568  1
  O  O29  1  0.30044114  0.72520804  0.41383822  1
  O  O30  1  0.75137386  0.27893486  0.41311118  1
  O  O31  1  0.75243646  0.71945565  0.36397881  1
  O  O32  1  0.24884479  0.28486334  0.52427126  1
  O  O33  1  0.24813254  0.72375370  0.47550310  1
  O  O34  1  0.69920476  0.27409162  0.47528603  1
  O  O35  1  0.74902882  0.72530125  0.41386501  1
  O  O36  1  0.28153854  0.24496264  0.58366270  1
  O  O37  1  0.29780704  0.72468979  0.52585526  1
  O  O38  1  0.73881213  0.28842966  0.52609145  1
  O  O39  1  0.74968999  0.71995192  0.47562079  1
  O  O40  1  0.27655479  0.70208582  0.58291891  1
  O  O41  1  0.27311395  0.25092128  0.63354633  1
  O  O42  1  0.74715060  0.72473435  0.52586359  1
  O  O43  1  0.72233406  0.24384306  0.58375649  1
  O  O44  1  0.27920813  0.24943877  0.69439817  1
  O  O45  1  0.27735079  0.75091701  0.63915491  1
  O  O46  1  0.72658953  0.74986517  0.58867705  1
  O  O47  1  0.72470731  0.30088381  0.63869355  1
  O  O48  1  0.27357992  0.69905663  0.69469972  1
  O  O49  1  0.27448669  0.24966475  0.74457796  1
  O  O50  1  0.72037040  0.24933405  0.69424718  1
  O  O51  1  0.71861221  0.75035265  0.63916269  1
  O  O52  1  0.28044850  0.25142523  0.80517286  1
  O  O53  1  0.27772528  0.75206338  0.75022410  1
  O  O54  1  0.27629826  0.69817860  0.80562445  1
  O  O55  1  0.72493553  0.30056168  0.74995850  1
  O  O56  1  0.72377468  0.75066828  0.70003772  1
  O  O57  1  0.27843462  0.24898088  0.85491563  1
  O  O58  1  0.72258198  0.25111359  0.80508275  1
  O  O59  1  0.71911939  0.75235442  0.75005612  1
  O  O60  1  0.27728903  0.75785294  0.86089492  1
  O  O61  1  0.25501020  0.28003369  0.91889390  1
  O  O62  1  0.72562790  0.74420836  0.81170569  1
  O  O63  1  0.71585709  0.30166471  0.86304167  1
  O  O64  1  0.26677659  0.70245030  0.91833162  1
  O  O65  1  0.25354359  0.27281932  0.96888716  1
  O  O66  1  0.69571018  0.28035805  0.91887017  1
  O  O67  1  0.71812614  0.75815331  0.86079600  1
  O  O68  1  0.30252651  0.72202179  0.96913995  1
  O  O69  1  0.74920774  0.71669492  0.92059873  1
  O  O70  1  0.75269912  0.27492181  0.96883592  1
  O  O71  1  0.75321189  0.72230965  0.96911191  1
loop_
_geom_bond_atom_site_label_1
_geom_bond_atom_site_label_2
_geom_bond_distance
_geom_bond_site_symmetry_2
Li0 O0 2.000210 1_555
Li0 O3 2.000987 1_455
Li0 O2 2.008558 1_545
Li0 O65 2.066774 1_554
Li1 O1 1.948937 1_555
Li1 O10 1.999460 1_455
Li1 O4 2.008062 1_555
Li1 O9 2.041918 1_545
Li2 O25 2.015434 1_545
Li2 O20 2.015499 1_555
Li2 O27 2.016347 1_455
Li2 O17 2.018512 1_555
Li3 O24 1.993334 1_555
Li3 O33 2.012035 1_545
Li3 O28 2.024348 1_555
Li3 O34 2.025306 1_455
Li4 O23 1.939926 1_555
Li4 O12 1.999752 1_655
Li4 O18 2.008218 1_555
Li4 O15 2.044881 1_565
Li5 O32 1.961257 1_555
Li5 O43 1.976699 1_455
Li5 O36 1.978371 1_555
Li5 O40 2.040123 1_545
Li6 O21 1.999511 1_655
Li6 O26 1.999547 1_555
Li6 O22 2.008607 1_565
Li6 O31 2.048620 1_555
Li7 O50 2.007328 1_455
Li7 O44 2.009268 1_555
Li7 O41 2.014557 1_555
Li7 O48 2.022280 1_545
Li8 O30 2.007228 1_565
Li8 O29 2.018244 1_655
Li8 O35 2.020470 1_555
Li8 O39 2.027343 1_555
Li9 O49 2.008129 1_555
Li9 O54 2.008447 1_545
Li9 O58 2.015840 1_455
Li9 O52 2.019682 1_555
Li10 O38 2.029615 1_565
Li10 O37 2.048676 1_655
Li10 O42 2.049747 1_555
Li10 O46 2.052458 1_555
Li11 O45 2.010007 1_655
Li11 O51 2.010302 1_555
Li11 O56 2.010526 1_555
Li11 O47 2.023920 1_565
Li12 O62 2.001576 1_555
Li12 O53 2.019837 1_655
Li12 O59 2.023104 1_555
Li12 O55 2.030984 1_565
Li13 O69 1.946118 1_555
Li13 O60 2.001267 1_655
Li13 O67 2.001357 1_555
Li13 O63 2.034196 1_565
Li14 O71 1.998914 1_555
Li14 O68 2.000104 1_655
Li14 O70 2.006062 1_565
Li14 O6 2.071311 1_556
Mn0 O2 1.932531 1_655
Mn0 O1 1.941762 1_655
Mn0 O11 1.941780 1_555
Mn0 O6 1.942686 1_555
Mn0 O8 1.964458 1_555
Mn0 O0 1.980307 1_655
Mn1 O2 1.931714 1_555
Mn1 O5 1.941946 1_555
Mn1 O1 1.942240 1_555
Mn1 O6 1.943519 1_555
Mn1 O8 1.961492 1_555
Mn1 O3 1.979576 1_555
Mn2 O7 1.950153 1_555
Mn2 O14 1.953491 1_455
Mn2 O15 2.001935 1_455
Mn2 O9 2.004898 1_555
Mn2 O4 2.169739 1_555
Mn2 O18 2.170282 1_455
Mn3 O10 1.935642 1_555
Mn3 O4 1.945333 1_555
Mn3 O11 1.954874 1_555
Mn3 O5 1.956353 1_555
Mn3 O8 1.960009 1_555
Mn3 O9 1.981911 1_555
Mn4 O12 1.937386 1_545
Mn4 O10 1.939417 1_555
Mn4 O18 1.940044 1_545
Mn4 O4 1.941284 1_555
Mn4 O7 1.951799 1_555
Mn4 O14 1.953008 1_545
Mn5 O11 1.965622 1_545
Mn5 O5 1.967412 1_545
Mn5 O0 1.992309 1_555
Mn5 O3 1.992721 1_555
Mn5 O1 2.152675 1_555
Mn5 O6 2.199896 1_545
Mn6 O7 1.949063 1_555
Mn6 O14 1.951459 1_555
Mn6 O15 2.008358 1_555
Mn6 O9 2.010653 1_555
Mn6 O10 2.187946 1_555
Mn6 O12 2.188119 1_555
Mn7 O13 1.937599 1_555
Mn7 O23 1.938099 1_455
Mn7 O22 1.938341 1_455
Mn7 O17 1.941073 1_555
Mn7 O16 1.961919 1_555
Mn7 O26 1.983120 1_455
Mn8 O12 1.929048 1_555
Mn8 O18 1.938262 1_555
Mn8 O13 1.959135 1_555
Mn8 O19 1.959919 1_555
Mn8 O16 1.963095 1_555
Mn8 O15 1.975802 1_555
Mn9 O19 1.936005 1_555
Mn9 O22 1.937643 1_555
Mn9 O23 1.938382 1_555
Mn9 O17 1.942033 1_555
Mn9 O16 1.958471 1_555
Mn9 O21 1.983094 1_555
Mn10 O25 1.941213 1_555
Mn10 O24 1.944102 1_555
Mn10 O31 1.947128 1_455
Mn10 O30 1.949231 1_455
Mn10 O20 1.972621 1_555
Mn10 O35 1.979182 1_455
Mn11 O21 1.973739 1_555
Mn11 O26 1.973987 1_555
Mn11 O20 1.984668 1_555
Mn11 O27 1.986228 1_555
Mn11 O22 2.200685 1_555
Mn11 O25 2.219306 1_555
Mn12 O13 1.961219 1_555
Mn12 O19 1.962430 1_555
Mn12 O26 1.996839 1_545
Mn12 O21 1.998592 1_545
Mn12 O23 2.161735 1_545
Mn12 O17 2.213937 1_555
Mn13 O32 1.930481 1_555
Mn13 O33 1.934258 1_555
Mn13 O39 1.948256 1_455
Mn13 O38 1.973365 1_455
Mn13 O28 1.978205 1_555
Mn13 O42 1.984941 1_455
Mn14 O25 1.941327 1_555
Mn14 O24 1.944845 1_555
Mn14 O31 1.947648 1_555
Mn14 O30 1.950075 1_555
Mn14 O27 1.970079 1_555
Mn14 O29 1.978819 1_555
Mn15 O37 1.974282 1_545
Mn15 O34 1.980661 1_555
Mn15 O42 1.983749 1_545
Mn15 O28 1.987636 1_555
Mn15 O32 2.193223 1_555
Mn15 O39 2.205265 1_545
Mn16 O29 1.969937 1_555
Mn16 O35 1.973573 1_555
Mn16 O34 1.990935 1_555
Mn16 O28 1.992431 1_555
Mn16 O30 2.185746 1_555
Mn16 O33 2.222257 1_555
Mn17 O20 1.976601 1_555
Mn17 O27 1.977442 1_555
Mn17 O35 1.978346 1_545
Mn17 O29 1.980174 1_545
Mn17 O24 2.205837 1_555
Mn17 O31 2.207983 1_545
Mn18 O32 1.928404 1_555
Mn18 O33 1.938001 1_555
Mn18 O39 1.944260 1_555
Mn18 O38 1.976805 1_555
Mn18 O34 1.982607 1_555
Mn18 O37 1.986030 1_555
Mn19 O47 1.973518 1_455
Mn19 O46 1.975848 1_455
Mn19 O41 1.977103 1_555
Mn19 O40 1.989692 1_555
Mn19 O51 2.194106 1_455
Mn19 O36 2.210323 1_555
Mn20 O36 1.925982 1_555
Mn20 O43 1.926963 1_555
Mn20 O42 1.987942 1_555
Mn20 O37 1.989750 1_555
Mn20 O40 2.020869 1_555
Mn20 O38 2.031533 1_555
Mn21 O47 1.967918 1_555
Mn21 O46 1.979528 1_555
Mn21 O41 1.980959 1_555
Mn21 O40 1.984056 1_555
Mn21 O45 2.195111 1_555
Mn21 O43 2.211552 1_555
Mn22 O48 1.967467 1_555
Mn22 O55 1.970815 1_455
Mn22 O56 1.979809 1_455
Mn22 O49 1.981025 1_555
Mn22 O59 2.193513 1_455
Mn22 O44 2.205071 1_555
Mn23 O53 1.938295 1_545
Mn23 O59 1.940182 1_545
Mn23 O50 1.950752 1_555
Mn23 O44 1.952933 1_555
Mn23 O49 1.971345 1_555
Mn23 O56 1.971629 1_545
Mn24 O50 1.934579 1_555
Mn24 O44 1.938501 1_555
Mn24 O45 1.950914 1_555
Mn24 O51 1.951376 1_555
Mn24 O48 1.973276 1_555
Mn24 O47 1.978954 1_555
Mn25 O51 1.934570 1_545
Mn25 O45 1.937783 1_545
Mn25 O43 1.941076 1_555
Mn25 O36 1.941113 1_555
Mn25 O41 1.974784 1_555
Mn25 O46 1.990083 1_545
Mn26 O48 1.972176 1_555
Mn26 O55 1.974118 1_555
Mn26 O56 1.975434 1_555
Mn26 O49 1.978486 1_555
Mn26 O53 2.200002 1_555
Mn26 O50 2.211326 1_555
Mn27 O52 1.932708 1_555
Mn27 O58 1.933520 1_555
Mn27 O53 1.950419 1_555
Mn27 O54 1.951590 1_555
Mn27 O59 1.954286 1_555
Mn27 O55 1.984305 1_555
Mn28 O57 1.950442 1_555
Mn28 O62 1.977665 1_555
Mn28 O63 1.991800 1_555
Mn28 O54 1.994871 1_555
Mn28 O60 2.195259 1_555
Mn28 O58 2.228044 1_555
Mn29 O70 1.935647 1_455
Mn29 O61 1.937493 1_555
Mn29 O69 1.939740 1_455
Mn29 O65 1.946536 1_555
Mn29 O64 1.961898 1_555
Mn29 O71 1.983079 1_455
Mn30 O60 1.941454 1_555
Mn30 O67 1.943992 1_555
Mn30 O64 1.949970 1_555
Mn30 O66 1.953845 1_555
Mn30 O61 1.954479 1_555
Mn30 O63 1.986836 1_555
Mn31 O60 1.932032 1_545
Mn31 O67 1.934465 1_545
Mn31 O57 1.940593 1_555
Mn31 O52 1.947812 1_555
Mn31 O58 1.950368 1_555
Mn31 O62 1.979978 1_545
Mn32 O61 1.964180 1_555
Mn32 O66 1.967029 1_555
Mn32 O71 1.997185 1_545
Mn32 O68 1.998509 1_545
Mn32 O69 2.147463 1_545
Mn32 O65 2.198199 1_555
Mn33 O70 1.934543 1_555
Mn33 O66 1.937509 1_555
Mn33 O69 1.940158 1_555
Mn33 O65 1.947405 1_555
Mn33 O64 1.959391 1_555
Mn33 O68 1.982007 1_555
Mn34 O57 1.949758 1_555
Mn34 O62 1.976496 1_455
Mn34 O63 1.992222 1_455
Mn34 O54 1.995834 1_555
Mn34 O67 2.193542 1_455
Mn34 O52 2.222053 1_555
Mn35 O68 1.973843 1_554
Mn35 O71 1.974108 1_554
Mn35 O3 1.990807 1_555
Mn35 O0 1.991912 1_555
Mn35 O70 2.211526 1_554
Mn35 O2 2.219078 1_555
