# generated using pymatgen
data_Li2Co2OF6
_symmetry_space_group_name_H-M   'P 1'
_cell_length_a   5.21477500
_cell_length_b   6.83136188
_cell_length_c   8.45999117
_cell_angle_alpha   69.90939073
_cell_angle_beta   76.53968131
_cell_angle_gamma   85.07978750
_symmetry_Int_Tables_number   1
_chemical_formula_structural   Li2Co2OF6
_chemical_formula_sum   'Li4 Co4 O2 F12'
_cell_volume   275.25982532
_cell_formula_units_Z   2
loop_
 _symmetry_equiv_pos_site_id
 _symmetry_equiv_pos_as_xyz
  1  'x, y, z'
loop_
 _atom_site_type_symbol
 _atom_site_label
 _atom_site_symmetry_multiplicity
 _atom_site_fract_x
 _atom_site_fract_y
 _atom_site_fract_z
 _atom_site_occupancy
  Li  Li0  1  0.34354800  0.75713800  0.90277600  1
  Li  Li1  1  0.86881200  0.98398900  0.75106300  1
  Li  Li2  1  0.12627400  0.00869200  0.25924200  1
  Li  Li3  1  0.67137600  0.25368500  0.08809400  1
  Co  Co0  1  0.26883100  0.28416700  0.82388100  1
  Co  Co1  1  0.82332500  0.51946300  0.66480100  1
  Co  Co2  1  0.16168900  0.47755300  0.32985700  1
  Co  Co3  1  0.70568600  0.71126000  0.20393200  1
  O  O0  1  0.94284200  0.38822100  0.87424000  1
  O  O1  1  0.82194600  0.58225600  0.40816900  1
  F  F0  1  0.65093300  0.81101300  0.97482400  1
  F  F1  1  0.45718800  0.56624900  0.77600000  1
  F  F2  1  0.91185000  0.79152400  0.62873400  1
  F  F3  1  0.65260700  0.24462000  0.70418600  1
  F  F4  1  0.18956800  0.01768400  0.81144100  1
  F  F5  1  0.19671600  0.41807000  0.57076900  1
  F  F6  1  0.81495300  0.98613000  0.18838600  1
  F  F7  1  0.32831900  0.75386200  0.29652500  1
  F  F8  1  0.08640300  0.20689200  0.37197300  1
  F  F9  1  0.54450200  0.43799400  0.22208100  1
  F  F10  1  0.08027700  0.61840300  0.10134500  1
  F  F11  1  0.35235300  0.18113200  0.04768100  1
loop_
_geom_bond_atom_site_label_1
_geom_bond_atom_site_label_2
_geom_bond_distance
_geom_bond_site_symmetry_2
Li3 O0 2.002601 1_554
Co0 O0 1.800070 1_455
Co0 F11 1.919806 1_556
Co0 F4 1.943420 1_555
Co0 F3 2.062851 1_555
Co0 F1 2.108414 1_555
Co0 F5 2.129235 1_555
Co1 F2 1.858066 1_555
Co1 O0 1.912750 1_555
Co1 F1 1.974423 1_555
Co1 F3 2.036570 1_555
Co1 O1 2.065107 1_555
Co1 F5 2.080884 1_655
Co2 F8 1.818412 1_555
Co2 O1 1.910795 1_455
Co2 F10 1.969123 1_555
Co2 F5 1.985950 1_555
Co2 F9 2.029506 1_555
Co2 F7 2.049166 1_555
Co3 O1 1.865358 1_555
Co3 F0 1.902515 1_554
Co3 F6 1.961339 1_555
Co3 F7 1.977781 1_555
Co3 F9 2.055992 1_555
Co3 F10 2.085145 1_655
F0 Li0 1.945911 1_555
F0 Li1 1.990724 1_555
F1 Li0 1.932458 1_555
F2 Li1 1.904244 1_555
F3 Li1 1.994296 1_545
F4 Li0 1.873137 1_545
F4 Li1 1.912147 1_445
F6 Li2 1.891610 1_665
F6 Li3 1.901786 1_565
F7 Li2 1.924309 1_565
F8 Li2 1.879510 1_555
F9 Li3 1.948431 1_555
F10 Li0 1.913327 1_554
F11 Li3 1.911250 1_555
F11 Li2 1.946384 1_555
