# generated using pymatgen
data_Li4MnV(PO4)3
_symmetry_space_group_name_H-M   'P 1'
_cell_length_a   9.27267175
_cell_length_b   8.45098627
_cell_length_c   8.45237482
_cell_angle_alpha   60.61341675
_cell_angle_beta   63.21085659
_cell_angle_gamma   90.55454965
_symmetry_Int_Tables_number   1
_chemical_formula_structural   Li4MnV(PO4)3
_chemical_formula_sum   'Li8 Mn2 V2 P6 O24'
_cell_volume   491.97484921
_cell_formula_units_Z   2
loop_
 _symmetry_equiv_pos_site_id
 _symmetry_equiv_pos_as_xyz
  1  'x, y, z'
loop_
 _atom_site_type_symbol
 _atom_site_label
 _atom_site_symmetry_multiplicity
 _atom_site_fract_x
 _atom_site_fract_y
 _atom_site_fract_z
 _atom_site_occupancy
  Li  Li0  1  0.86381000  0.26384900  0.81017100  1
  Li  Li1  1  0.89923900  0.93759500  0.36945700  1
  Li  Li2  1  0.85513500  0.66449700  0.06676100  1
  Li  Li3  1  0.59295200  0.78991700  0.66691700  1
  Li  Li4  1  0.41276600  0.20001500  0.32486300  1
  Li  Li5  1  0.14770200  0.34347200  0.92821000  1
  Li  Li6  1  0.09725200  0.06066600  0.63132600  1
  Li  Li7  1  0.13701500  0.73174300  0.19730200  1
  Mn  Mn0  1  0.96622300  0.64858900  0.69001500  1
  Mn  Mn1  1  0.56210100  0.85144100  0.28654400  1
  V  V0  1  0.44086500  0.15139000  0.70609900  1
  V  V1  1  0.03494600  0.35163800  0.30819100  1
  P  P0  1  0.74894900  0.95754900  0.78163200  1
  P  P1  1  0.75023100  0.53762700  0.50853500  1
  P  P2  1  0.75838300  0.25190100  0.20233300  1
  P  P3  1  0.24189800  0.75351600  0.80633100  1
  P  P4  1  0.24950600  0.44784100  0.49802900  1
  P  P5  1  0.25181100  0.05552800  0.20247600  1
  O  O0  1  0.89371700  0.15350000  0.63618200  1
  O  O1  1  0.80388400  0.48562700  0.67105200  1
  O  O2  1  0.79888200  0.84207700  0.67751600  1
  O  O3  1  0.89816300  0.55114900  0.30558900  1
  O  O4  1  0.90090900  0.20741300  0.25988400  1
  O  O5  1  0.72489500  0.73859800  0.43048800  1
  O  O6  1  0.58006800  0.98924100  0.80119100  1
  O  O7  1  0.58702400  0.38861900  0.60674900  1
  O  O8  1  0.81055000  0.46541200  0.03390500  1
  O  O9  1  0.74857300  0.13092300  0.11607400  1
  O  O10  1  0.58640200  0.19071300  0.40390000  1
  O  O11  1  0.73970500  0.85553200  0.99612300  1
  O  O12  1  0.27570900  0.16078800  0.97718300  1
  O  O13  1  0.41004500  0.79279000  0.61694400  1
  O  O14  1  0.26478300  0.87823900  0.88664900  1
  O  O15  1  0.18009700  0.53712700  0.98721700  1
  O  O16  1  0.40863700  0.60154400  0.38325200  1
  O  O17  1  0.41444300  0.03503200  0.20280700  1
  O  O18  1  0.28200200  0.24569400  0.57283100  1
  O  O19  1  0.10030400  0.80082300  0.75387800  1
  O  O20  1  0.10242700  0.42752700  0.70236900  1
  O  O21  1  0.18692100  0.17274100  0.30667700  1
  O  O22  1  0.18121400  0.48761300  0.34652200  1
  O  O23  1  0.10986300  0.86250900  0.33982200  1
loop_
_geom_bond_atom_site_label_1
_geom_bond_atom_site_label_2
_geom_bond_distance
_geom_bond_site_symmetry_2
Li0 O1 1.910633 1_555
Li0 O9 1.929985 1_556
Li0 O0 2.023019 1_555
Li0 O20 2.127382 1_655
Li1 O4 1.992805 1_565
Li1 O23 2.004691 1_655
Li1 O2 2.008982 1_555
Li1 O5 2.012969 1_555
Li2 O8 1.904549 1_555
Li2 O11 1.942174 1_554
Li2 O3 1.996864 1_555
Li2 O19 2.242575 1_654
Li3 O13 1.921469 1_555
Li3 O2 2.006308 1_555
Li3 O5 2.082168 1_555
Li3 O6 2.428524 1_555
Li4 O10 1.991300 1_555
Li4 O17 2.099089 1_555
Li4 O18 2.127064 1_555
Li4 O21 2.185857 1_555
Li5 O20 1.929280 1_555
Li5 O12 1.953184 1_555
Li5 O15 1.985939 1_555
Li5 O4 2.328262 1_456
Li6 O19 1.921243 1_545
Li6 O18 2.012517 1_555
Li6 O0 2.041953 1_455
Li6 O21 2.120300 1_555
Li7 O23 1.942743 1_555
Li7 O14 1.951427 1_554
Li7 O22 1.985917 1_555
Li7 O3 2.192869 1_455
Mn0 O1 2.140634 1_555
Mn0 O8 2.165076 1_556
Mn0 O19 2.178953 1_655
Mn0 O23 2.225237 1_655
Mn0 O20 2.251500 1_655
Mn0 O2 2.262751 1_555
Mn1 O16 2.086220 1_555
Mn1 O17 2.149372 1_565
Mn1 O9 2.231524 1_565
Mn1 O11 2.238448 1_554
Mn1 O13 2.260815 1_555
Mn1 O5 2.283229 1_555
O0 P0 1.589665 1_545
O0 V1 2.081736 1_655
O1 P1 1.534729 1_555
O2 P0 1.557360 1_555
O3 P1 1.587682 1_555
O3 V1 2.117107 1_655
O4 P2 1.591928 1_555
O4 V1 2.028197 1_655
O5 P1 1.556537 1_555
O6 P0 1.539337 1_555
O6 V0 2.019514 1_565
O7 P1 1.539444 1_555
O7 V0 1.957180 1_555
O8 P2 1.535528 1_555
O9 P2 1.540990 1_555
O10 P2 1.543863 1_555
O10 V0 2.122992 1_555
O11 P0 1.536876 1_555
O12 P5 1.555632 1_556
O12 V0 2.149318 1_555
O13 P3 1.523936 1_555
O14 P3 1.563544 1_555
O14 V0 2.132414 1_565
O15 P3 1.567205 1_555
O15 V1 2.030534 1_556
O16 P4 1.497172 1_555
O17 P5 1.520710 1_555
O18 P4 1.590803 1_555
O18 V0 2.170581 1_555
O19 P3 1.562424 1_555
O20 P4 1.566431 1_555
O21 P5 1.583989 1_555
O21 V1 2.077433 1_555
O22 P4 1.570538 1_555
O22 V1 1.999075 1_555
O23 P5 1.569587 1_565
