# generated using pymatgen
data_Sr8Ga16S31
_symmetry_space_group_name_H-M   'P 1'
_cell_length_a   12.08139100
_cell_length_b   11.98422392
_cell_length_c   12.25468040
_cell_angle_alpha   104.64359447
_cell_angle_beta   104.94459639
_cell_angle_gamma   118.67668553
_symmetry_Int_Tables_number   1
_chemical_formula_structural   Sr8Ga16S31
_chemical_formula_sum   'Sr8 Ga16 S31'
_cell_volume   1347.47313180
_cell_formula_units_Z   1
loop_
 _symmetry_equiv_pos_site_id
 _symmetry_equiv_pos_as_xyz
  1  'x, y, z'
loop_
 _atom_site_type_symbol
 _atom_site_label
 _atom_site_symmetry_multiplicity
 _atom_site_fract_x
 _atom_site_fract_y
 _atom_site_fract_z
 _atom_site_occupancy
  Sr  Sr0  1  0.62105200  0.37054500  0.75168900  1
  Sr  Sr1  1  0.61495200  0.86726200  0.75372800  1
  Sr  Sr2  1  0.88160600  0.12302400  0.25091600  1
  Sr  Sr3  1  0.12656400  0.37748900  0.75034900  1
  Sr  Sr4  1  0.87416600  0.62320900  0.24976900  1
  Sr  Sr5  1  0.12704700  0.87480300  0.75121500  1
  Sr  Sr6  1  0.36932200  0.12641200  0.24891300  1
  Sr  Sr7  1  0.38001400  0.63114400  0.24770800  1
  Ga  Ga0  1  0.02170900  0.61279800  0.00456600  1
  Ga  Ga1  1  0.13771800  0.61053900  0.50005100  1
  Ga  Ga2  1  0.38620800  0.86260400  0.00060600  1
  Ga  Ga3  1  0.36239900  0.97021200  0.49838200  1
  Ga  Ga4  1  0.10480000  0.13709800  0.00204400  1
  Ga  Ga5  1  0.13772300  0.11132200  0.49976500  1
  Ga  Ga6  1  0.35961700  0.46703200  0.50048500  1
  Ga  Ga7  1  0.46743900  0.35989900  0.99992900  1
  Ga  Ga8  1  0.53475900  0.64282300  0.99856300  1
  Ga  Ga9  1  0.64010400  0.53287300  0.49921100  1
  Ga  Ga10  1  0.86215000  0.88893600  0.50103700  1
  Ga  Ga11  1  0.88848400  0.85782100  0.00235400  1
  Ga  Ga12  1  0.64123900  0.03453900  0.49820900  1
  Ga  Ga13  1  0.61087800  0.13433300  0.00195300  1
  Ga  Ga14  1  0.86603300  0.39282600  0.49839800  1
  Ga  Ga15  1  0.95667200  0.37004600  0.00987100  1
  S  S0  1  0.17641800  0.82651300  0.00411500  1
  S  S1  1  0.75838400  0.25804600  0.66180800  1
  S  S2  1  0.16542800  0.82147300  0.49390800  1
  S  S3  1  0.74339700  0.24377500  0.83787200  1
  S  S4  1  0.15365500  0.31023000  0.50169900  1
  S  S5  1  0.75478500  0.75411300  0.66375400  1
  S  S6  1  0.34652200  0.65664600  0.49679400  1
  S  S7  1  0.74750300  0.24547700  0.33324500  1
  S  S8  1  0.30670500  0.15479700  0.00103700  1
  S  S9  1  0.13518400  0.33416700  0.00780900  1
  S  S10  1  0.75239100  0.75289300  0.16491800  1
  S  S11  1  0.74557600  0.74509900  0.83595100  1
  S  S12  1  0.34860700  0.65731700  0.00132300  1
  S  S13  1  0.74463200  0.74466900  0.33603300  1
  S  S14  1  0.65910000  0.84858200  0.50052300  1
  S  S15  1  0.34135100  0.15154800  0.49986100  1
  S  S16  1  0.25574100  0.25576900  0.66366400  1
  S  S17  1  0.64735900  0.33924800  0.00131300  1
  S  S18  1  0.25444200  0.25520600  0.16427900  1
  S  S19  1  0.24262800  0.24292600  0.83855100  1
  S  S20  1  0.84269200  0.64561100  0.00655200  1
  S  S21  1  0.69345400  0.84642500  0.99865200  1
  S  S22  1  0.25590500  0.75698900  0.66155500  1
  S  S23  1  0.66395900  0.35366900  0.49720500  1
  S  S24  1  0.24433800  0.24535500  0.33700000  1
  S  S25  1  0.84365200  0.68827200  0.49951400  1
  S  S26  1  0.27316500  0.77441400  0.81836400  1
  S  S27  1  0.25455400  0.75446400  0.16374100  1
  S  S28  1  0.84775500  0.19239600  0.49679400  1
  S  S29  1  0.25041700  0.75099100  0.33458900  1
  S  S30  1  0.81434800  0.16563200  0.00286700  1
loop_
_geom_bond_atom_site_label_1
_geom_bond_atom_site_label_2
_geom_bond_distance
_geom_bond_site_symmetry_2
Ga0 S0 2.339113 1_555
Ga0 S27 2.347890 1_555
Ga0 S20 2.381464 1_455
Ga1 S22 1.848592 1_555
Ga1 S6 2.322918 1_555
Ga1 S2 2.409345 1_555
Ga2 S26 1.953982 1_554
Ga2 S12 2.280228 1_555
Ga2 S0 2.372004 1_555
Ga3 S2 2.157671 1_555
Ga3 S29 2.298555 1_555
Ga3 S15 2.302279 1_565
Ga4 S18 1.868694 1_555
Ga4 S9 2.188078 1_555
Ga4 S8 2.348528 1_555
Ga5 S16 1.860092 1_555
Ga5 S15 2.268160 1_555
Ga5 S4 2.290992 1_555
Ga6 S4 2.295367 1_555
Ga6 S24 2.308679 1_555
Ga6 S6 2.363065 1_555
Ga7 S8 2.293983 1_556
Ga7 S17 2.299096 1_556
Ga7 S19 2.329552 1_555
Ga8 S21 2.266573 1_555
Ga8 S10 2.314369 1_556
Ga8 S12 2.345289 1_556
Ga9 S25 2.261006 1_555
Ga9 S23 2.294978 1_555
Ga9 S5 2.312089 1_555
Ga10 S13 1.868031 1_555
Ga10 S14 2.259126 1_555
Ga10 S25 2.300594 1_555
Ga11 S11 1.875375 1_554
Ga11 S21 2.281544 1_554
Ga11 S20 2.346691 1_555
Ga12 S28 2.305026 1_555
Ga12 S1 2.319530 1_555
Ga12 S14 2.346087 1_545
Ga13 S17 2.279860 1_555
Ga13 S30 2.298329 1_555
Ga14 S7 1.880514 1_555
Ga14 S23 2.249257 1_555
Ga14 S28 2.298602 1_555
Ga15 S30 2.177179 1_555
Ga15 S3 2.283829 1_554
Ga15 S9 2.397784 1_655
S0 S27 2.479335 1_555
S0 Sr6 3.201868 1_565
S0 Sr5 3.252765 1_554
S1 S28 2.647843 1_555
S1 Sr0 2.849962 1_555
S2 S22 2.543235 1_555
S2 S29 2.571410 1_555
S2 Sr4 3.151276 1_455
S2 Sr5 3.253591 1_555
S3 Sr0 2.787397 1_555
S4 Sr2 3.083516 1_455
S4 Sr3 3.093145 1_555
S5 Sr1 2.883020 1_555
S6 Sr1 3.108241 1_555
S6 Sr7 3.139862 1_555
S7 Sr2 2.858790 1_555
S8 Sr6 3.082123 1_555
S8 Sr5 3.119618 1_544
S9 Sr7 3.190626 1_555
S9 Sr3 3.308418 1_554
S10 Sr4 2.807777 1_555
S11 S5 2.168384 1_555
S11 Sr1 2.791457 1_555
S12 Sr7 3.059595 1_555
S12 Sr3 3.130102 1_554
S13 S25 2.475088 1_555
S13 Sr4 2.819019 1_555
S14 Sr7 3.139340 1_555
S14 Sr1 3.252669 1_555
S15 Sr6 3.134907 1_555
S15 Sr0 3.137731 1_555
S16 S4 2.460003 1_555
S16 Sr3 2.819286 1_555
S17 Sr0 3.129317 1_554
S17 Sr4 3.141389 1_555
S18 S8 2.451966 1_555
S18 Sr6 2.739949 1_555
S19 S8 2.594736 1_556
S19 Sr3 2.829295 1_555
S20 Sr4 3.003054 1_555
S20 Sr0 3.130640 1_554
S21 Sr1 3.018061 1_555
S21 Sr2 3.110426 1_566
S22 S26 1.824403 1_555
S22 Sr5 2.798520 1_555
S23 Sr6 3.204079 1_555
S23 Sr0 3.263576 1_555
S24 S4 2.653865 1_555
S24 Sr6 2.757827 1_555
S25 S5 2.636456 1_555
S25 Sr4 3.124425 1_555
S25 Sr5 3.155172 1_655
S26 Sr5 2.651507 1_555
S27 S29 2.117497 1_555
S27 Sr7 2.766729 1_555
S28 S7 2.453705 1_555
S28 Sr2 3.103683 1_555
S28 Sr3 3.141235 1_655
S29 Sr7 2.809408 1_555
S30 Sr2 3.173358 1_555
S30 Sr1 3.214079 1_544
