# generated using pymatgen
data_K11Mn4O16
_symmetry_space_group_name_H-M   'P 1'
_cell_length_a   10.58549056
_cell_length_b   10.58561713
_cell_length_c   10.58555759
_cell_angle_alpha   137.44223997
_cell_angle_beta   137.44172913
_cell_angle_gamma   61.75794052
_symmetry_Int_Tables_number   1
_chemical_formula_structural   K11Mn4O16
_chemical_formula_sum   'K11 Mn4 O16'
_cell_volume   536.30755136
_cell_formula_units_Z   1
loop_
 _symmetry_equiv_pos_site_id
 _symmetry_equiv_pos_as_xyz
  1  'x, y, z'
loop_
 _atom_site_type_symbol
 _atom_site_label
 _atom_site_symmetry_multiplicity
 _atom_site_fract_x
 _atom_site_fract_y
 _atom_site_fract_z
 _atom_site_occupancy
  K  K0  1  0.56026502  0.56028936  0.33009794  1
  K  K1  1  0.74984683  0.24993180  0.49992868  1
  K  K2  1  0.49999728  0.00015651  0.50008069  1
  K  K3  1  0.78916506  0.78918729  0.00004462  1
  K  K4  1  0.00003525  0.99999180  0.99993761  1
  K  K5  1  0.21080129  0.21084475  0.99997112  1
  K  K6  1  0.76979607  0.43975798  0.00000771  1
  K  K7  1  0.23018498  0.23020852  0.66992579  1
  K  K8  1  0.43977875  0.76979063  -0.00000383  1
  K  K9  1  0.25000908  0.74990403  0.50005024  1
  K  K10  1  -0.00002925  0.50001550  0.49990503  1
  Mn  Mn0  1  0.88014670  0.88015982  0.52585928  1
  Mn  Mn1  1  0.35431539  0.35432203  0.47417234  1
  Mn  Mn2  1  0.11988323  0.64566676  -0.00000103  1
  Mn  Mn3  1  0.64568159  0.11986324  -0.00000051  1
  O  O0  1  0.72006256  0.72001925  0.36080905  1
  O  O1  1  0.52329005  0.52323058  0.66581262  1
  O  O2  1  0.09799801  0.84310721  0.70298638  1
  O  O3  1  0.90202296  0.60493596  0.74512779  1
  O  O4  1  0.64064208  0.28001897  0.99997360  1
  O  O5  1  0.85744478  0.85739300  0.33416492  1
  O  O6  1  0.47679461  0.14248400  0.00006360  1
  O  O7  1  0.60499625  0.90207859  0.74518212  1
  O  O8  1  0.84308122  0.09793823  0.70289865  1
  O  O9  1  0.39501683  0.14013339  0.29701826  1
  O  O10  1  0.15689101  0.85981196  0.25481917  1
  O  O11  1  0.14264003  0.47674652  0.00004622  1
  O  O12  1  0.35929002  0.35924987  0.63924641  1
  O  O13  1  0.27993261  0.64080671  0.99997347  1
  O  O14  1  0.85982625  0.15689609  0.25478788  1
  O  O15  1  0.14019646  0.39505962  0.29711215  1
loop_
_geom_bond_atom_site_label_1
_geom_bond_atom_site_label_2
_geom_bond_distance
_geom_bond_site_symmetry_2
K0 O0 2.629223 1_555
K0 O3 2.785199 1_555
K0 O7 2.785199 1_555
K0 O4 2.907820 1_554
K0 O13 2.908885 1_554
K0 O11 2.987707 1_555
K0 O6 2.989091 1_555
K1 O9 2.939554 1_555
K1 O8 2.940247 1_555
K1 O3 2.941760 1_555
K1 O14 2.942706 1_555
K1 O1 3.059123 1_555
K1 O6 3.059507 1_555
K1 O5 3.060434 1_545
K1 O11 3.061742 1_656
K2 O9 2.768718 1_555
K2 O8 2.769004 1_555
K2 O10 2.769791 1_545
K2 O7 2.769987 1_545
K2 O12 2.909055 1_555
K2 O4 2.909998 1_555
K2 O13 2.911026 1_544
K2 O0 2.911173 1_545
K3 O5 2.553225 1_555
K3 O1 2.553465 1_554
K3 O10 2.702365 1_655
K3 O14 2.702406 1_565
K3 O3 2.702461 1_554
K3 O7 2.702532 1_554
K4 O2 3.032487 1_555
K4 O8 3.032920 1_465
K4 O9 3.032966 1_566
K4 O15 3.033499 1_566
K4 O14 3.033771 1_466
K4 O7 3.033876 1_455
K4 O10 3.033992 1_556
K4 O3 3.034196 1_455
K5 O11 2.553203 1_556
K5 O6 2.553493 1_556
K5 O8 2.702267 1_455
K5 O15 2.702342 1_556
K5 O2 2.702343 1_545
K5 O9 2.702435 1_556
K6 O4 2.629566 1_554
K6 O15 2.785436 1_655
K6 O8 2.785440 1_554
K6 O12 2.907932 1_554
K6 O0 2.908111 1_555
K6 O5 2.987805 1_555
K6 O1 2.988059 1_554
K7 O12 2.629294 1_555
K7 O14 2.785393 1_455
K7 O10 2.785465 1_545
K7 O4 2.907550 1_555
K7 O13 2.908595 1_555
K7 O11 2.987951 1_556
K7 O6 2.989467 1_556
K8 O13 2.629189 1_554
K8 O2 2.785090 1_554
K8 O9 2.785161 1_565
K8 O12 2.908177 1_554
K8 O0 2.908488 1_555
K8 O5 2.987955 1_555
K8 O1 2.988159 1_554
K9 O15 2.939641 1_555
K9 O2 2.940219 1_555
K9 O7 2.941903 1_555
K9 O10 2.942512 1_555
K9 O1 3.059482 1_555
K9 O5 3.060250 1_455
K9 O6 3.060500 1_566
K9 O11 3.060815 1_555
K10 O15 2.768714 1_555
K10 O2 2.768904 1_555
K10 O14 2.769590 1_455
K10 O3 2.770319 1_455
K10 O0 2.909459 1_455
K10 O4 2.910399 1_454
K10 O13 2.910677 1_555
K10 O12 2.910716 1_555
Mn0 O0 1.670799 1_555
Mn0 O8 1.686152 1_565
Mn0 O2 1.686699 1_655
Mn0 O5 1.688028 1_555
Mn1 O12 1.670827 1_555
Mn1 O15 1.686282 1_555
Mn1 O9 1.686711 1_555
Mn1 O1 1.687991 1_555
Mn2 O13 1.670667 1_554
Mn2 O10 1.686361 1_555
Mn2 O3 1.686583 1_454
Mn2 O11 1.687870 1_555
Mn3 O4 1.670964 1_554
Mn3 O14 1.686139 1_555
Mn3 O7 1.686229 1_544
Mn3 O6 1.688136 1_555
