# generated using pymatgen
data_Li4Nb3Cr5O16
_symmetry_space_group_name_H-M   'P 1'
_cell_length_a   6.02065236
_cell_length_b   6.02065236
_cell_length_c   9.76293187
_cell_angle_alpha   89.69057354
_cell_angle_beta   89.69057354
_cell_angle_gamma   59.49778447
_symmetry_Int_Tables_number   1
_chemical_formula_structural   Li4Nb3Cr5O16
_chemical_formula_sum   'Li4 Nb3 Cr5 O16'
_cell_volume   304.90844627
_cell_formula_units_Z   1
loop_
 _symmetry_equiv_pos_site_id
 _symmetry_equiv_pos_as_xyz
  1  'x, y, z'
loop_
 _atom_site_type_symbol
 _atom_site_label
 _atom_site_symmetry_multiplicity
 _atom_site_fract_x
 _atom_site_fract_y
 _atom_site_fract_z
 _atom_site_occupancy
  Li  Li0  1  0.66740300  0.66740300  0.89701100  1
  Li  Li1  1  0.01111800  0.01111800  0.99543100  1
  Li  Li2  1  0.00537600  0.00537600  0.49490600  1
  Li  Li3  1  0.33400800  0.33400800  0.38645500  1
  Nb  Nb0  1  0.83175900  0.83175900  0.21154200  1
  Nb  Nb1  1  0.64451100  0.18731200  0.71129400  1
  Nb  Nb2  1  0.18731200  0.64451100  0.71129400  1
  Cr  Cr0  1  0.83174400  0.33983900  0.21451400  1
  Cr  Cr1  1  0.66618300  0.66618300  0.48071700  1
  Cr  Cr2  1  0.33983900  0.83174400  0.21451400  1
  Cr  Cr3  1  0.16686900  0.16686900  0.71396900  1
  Cr  Cr4  1  0.32871700  0.32871700  0.98963400  1
  O  O0  1  0.82949600  0.32925100  0.60133800  1
  O  O1  1  0.52112900  0.52112900  0.33842200  1
  O  O2  1  0.66988900  0.66988900  0.10320200  1
  O  O3  1  0.00016600  0.00016600  0.31210200  1
  O  O4  1  0.00360200  0.00360200  0.81297400  1
  O  O5  1  0.32925100  0.82949600  0.60133800  1
  O  O6  1  0.96033100  0.52184900  0.34012500  1
  O  O7  1  0.52184900  0.96033100  0.34012500  1
  O  O8  1  0.16286100  0.16286100  0.10171600  1
  O  O9  1  0.83299900  0.83299900  0.59931800  1
  O  O10  1  0.48013400  0.04189400  0.84069900  1
  O  O11  1  0.04189400  0.48013400  0.84069900  1
  O  O12  1  0.32009400  0.32009400  0.58849000  1
  O  O13  1  0.66925100  0.15923100  0.10352600  1
  O  O14  1  0.48334900  0.48334900  0.85897500  1
  O  O15  1  0.15923100  0.66925100  0.10352600  1
loop_
_geom_bond_atom_site_label_1
_geom_bond_atom_site_label_2
_geom_bond_distance
_geom_bond_site_symmetry_2
Li0 O14 1.961939 1_555
Li0 O2 2.013358 1_556
Li0 O10 2.017361 1_565
Li0 O11 2.017361 1_655
Li1 O4 1.783536 1_555
Li1 O8 1.900998 1_556
Li1 O15 2.066114 1_546
Li1 O13 2.066114 1_456
Li2 O3 1.785873 1_555
Li2 O5 1.979186 1_545
Li2 O0 1.979186 1_455
Li2 O9 2.064895 1_445
Li3 O12 1.976908 1_555
Li3 O6 1.991907 1_455
Li3 O7 1.991907 1_545
Li3 O1 2.008814 1_555
Nb0 O13 1.996748 1_565
Nb0 O15 1.996748 1_655
Nb0 O2 2.001183 1_555
Nb0 O3 2.021145 1_665
Nb0 O6 2.043411 1_555
Nb0 O7 2.043411 1_555
Nb1 O0 2.016534 1_555
Nb1 O10 2.048457 1_555
Nb1 O12 2.078788 1_555
Nb1 O14 2.110461 1_555
Nb1 O4 2.113467 1_655
Nb1 O9 2.141913 1_545
Nb2 O5 2.016534 1_555
Nb2 O11 2.048457 1_555
Nb2 O12 2.078788 1_555
Nb2 O14 2.110461 1_555
Nb2 O4 2.113467 1_565
Nb2 O9 2.141913 1_455
Cr0 O3 2.000616 1_655
Cr0 O1 2.017360 1_555
Cr0 O2 2.025244 1_555
Cr0 O8 2.038358 1_655
Cr0 O6 2.046957 1_555
Cr0 O13 2.101831 1_555
Cr1 O6 2.049349 1_555
Cr1 O7 2.049349 1_555
Cr1 O1 2.062945 1_555
Cr1 O9 2.099337 1_555
Cr1 O0 2.104876 1_555
Cr1 O5 2.104876 1_555
Cr2 O3 2.000616 1_565
Cr2 O1 2.017360 1_555
Cr2 O2 2.025244 1_555
Cr2 O8 2.038358 1_565
Cr2 O7 2.046957 1_555
Cr2 O15 2.101831 1_555
Cr3 O4 1.956296 1_555
Cr3 O12 2.010548 1_555
Cr3 O10 2.056382 1_555
Cr3 O11 2.056382 1_555
Cr3 O0 2.070596 1_455
Cr3 O5 2.070596 1_545
Cr4 O8 2.044566 1_556
Cr4 O14 2.053014 1_555
Cr4 O10 2.083762 1_555
Cr4 O11 2.083762 1_555
Cr4 O13 2.090377 1_556
Cr4 O15 2.090377 1_556
