# generated using pymatgen
data_VCr2O4
_symmetry_space_group_name_H-M   'P 1'
_cell_length_a   6.05646009
_cell_length_b   6.05646009
_cell_length_c   6.05646009
_cell_angle_alpha   60.00000000
_cell_angle_beta   60.00000000
_cell_angle_gamma   60.00000000
_symmetry_Int_Tables_number   1
_chemical_formula_structural   VCr2O4
_chemical_formula_sum   'V2 Cr4 O8'
_cell_volume   157.08748312
_cell_formula_units_Z   2
loop_
 _symmetry_equiv_pos_site_id
 _symmetry_equiv_pos_as_xyz
  1  'x, y, z'
loop_
 _atom_site_type_symbol
 _atom_site_label
 _atom_site_symmetry_multiplicity
 _atom_site_fract_x
 _atom_site_fract_y
 _atom_site_fract_z
 _atom_site_occupancy
  V  V0  1  0.75000000  0.75000000  0.75000000  1
  V  V1  1  0.50000000  0.50000000  0.50000000  1
  Cr  Cr0  1  0.62500000  0.12500000  0.12500000  1
  Cr  Cr1  1  0.12500000  0.12500000  0.12500000  1
  Cr  Cr2  1  0.12500000  0.12500000  0.62500000  1
  Cr  Cr3  1  0.12500000  0.62500000  0.12500000  1
  O  O0  1  0.90421100  0.36526300  0.36526300  1
  O  O1  1  0.88473700  0.88473700  0.34578900  1
  O  O2  1  0.36526300  0.90421100  0.36526300  1
  O  O3  1  0.36526300  0.36526300  0.36526300  1
  O  O4  1  0.88473700  0.88473700  0.88473700  1
  O  O5  1  0.88473700  0.34578900  0.88473700  1
  O  O6  1  0.36526300  0.36526300  0.90421100  1
  O  O7  1  0.34578900  0.88473700  0.88473700  1
loop_
_geom_bond_atom_site_label_1
_geom_bond_atom_site_label_2
_geom_bond_distance
_geom_bond_site_symmetry_2
Cr0 O5 2.061260 1_554
Cr0 O4 2.061260 1_544
Cr0 O6 2.061260 1_554
Cr0 O3 2.061260 1_555
Cr0 O1 2.061260 1_545
Cr0 O2 2.061260 1_545
Cr1 O1 2.061260 1_445
Cr1 O0 2.061260 1_455
Cr1 O7 2.061260 1_544
Cr1 O5 2.061260 1_454
Cr1 O6 2.061260 1_554
Cr1 O2 2.061260 1_545
Cr2 O0 2.061260 1_455
Cr2 O7 2.061260 1_545
Cr2 O3 2.061260 1_555
Cr2 O4 2.061260 1_445
Cr2 O2 2.061260 1_545
Cr2 O5 2.061260 1_455
Cr3 O0 2.061260 1_455
Cr3 O6 2.061260 1_554
Cr3 O3 2.061260 1_555
Cr3 O4 2.061260 1_454
Cr3 O1 2.061260 1_455
Cr3 O7 2.061260 1_554
O0 V1 1.998855 1_555
O1 V0 1.998855 1_555
O2 V1 1.998855 1_555
O3 V1 1.998855 1_555
O4 V0 1.998855 1_555
O5 V0 1.998855 1_555
O6 V1 1.998855 1_555
O7 V0 1.998855 1_555
