# generated using pymatgen
data_Cr(PO3)4
_symmetry_space_group_name_H-M   'P 1'
_cell_length_a   8.39695100
_cell_length_b   9.16489100
_cell_length_c   12.65641500
_cell_angle_alpha   90.00000000
_cell_angle_beta   90.00000000
_cell_angle_gamma   90.00000000
_symmetry_Int_Tables_number   1
_chemical_formula_structural   Cr(PO3)4
_chemical_formula_sum   'Cr4 P16 O48'
_cell_volume   974.00150925
_cell_formula_units_Z   4
loop_
 _symmetry_equiv_pos_site_id
 _symmetry_equiv_pos_as_xyz
  1  'x, y, z'
loop_
 _atom_site_type_symbol
 _atom_site_label
 _atom_site_symmetry_multiplicity
 _atom_site_fract_x
 _atom_site_fract_y
 _atom_site_fract_z
 _atom_site_occupancy
  Cr  Cr0  1  0.86042600  0.75000000  0.50000000  1
  Cr  Cr1  1  0.63957400  0.25000000  0.00000000  1
  Cr  Cr2  1  0.13957400  0.25000000  0.50000000  1
  Cr  Cr3  1  0.36042600  0.75000000  0.00000000  1
  P  P0  1  0.53343500  0.98680100  0.84995200  1
  P  P1  1  0.18132000  0.99527000  0.86078800  1
  P  P2  1  0.18132000  0.50473000  0.13921200  1
  P  P3  1  0.68132000  0.99527000  0.63921200  1
  P  P4  1  0.96656500  0.01319900  0.34995200  1
  P  P5  1  0.31868000  0.49527000  0.63921200  1
  P  P6  1  0.31868000  0.00473000  0.36078800  1
  P  P7  1  0.81868000  0.49527000  0.86078800  1
  P  P8  1  0.68132000  0.50473000  0.36078800  1
  P  P9  1  0.96656500  0.48680100  0.65004800  1
  P  P10  1  0.03343500  0.51319900  0.34995200  1
  P  P11  1  0.03343500  0.98680100  0.65004800  1
  P  P12  1  0.46656500  0.01319900  0.15004800  1
  P  P13  1  0.81868000  0.00473000  0.13921200  1
  P  P14  1  0.46656500  0.48680100  0.84995200  1
  P  P15  1  0.53343500  0.51319900  0.15004800  1
  O  O0  1  0.39193900  0.08032600  0.25430400  1
  O  O1  1  0.60806100  0.91967400  0.74569600  1
  O  O2  1  0.47195400  0.13273600  0.06766500  1
  O  O3  1  0.39193900  0.41967400  0.74569600  1
  O  O4  1  0.89193900  0.41967400  0.75430400  1
  O  O5  1  0.79947700  0.13557200  0.06594700  1
  O  O6  1  0.29947700  0.13557200  0.43405300  1
  O  O7  1  0.63173300  0.11956500  0.87875300  1
  O  O8  1  0.36826700  0.61956500  0.87875300  1
  O  O9  1  0.59222200  0.37575400  0.39572100  1
  O  O10  1  0.89193900  0.08032600  0.24569600  1
  O  O11  1  0.97195400  0.13273600  0.43233500  1
  O  O12  1  0.79947700  0.36442800  0.93405300  1
  O  O13  1  0.20052300  0.86442800  0.93405300  1
  O  O14  1  0.10806100  0.91967400  0.75430400  1
  O  O15  1  0.59222200  0.12424600  0.60427900  1
  O  O16  1  0.70052300  0.63557200  0.43405300  1
  O  O17  1  0.64071900  0.53802000  0.81787400  1
  O  O18  1  0.10806100  0.58032600  0.24569600  1
  O  O19  1  0.63173300  0.38043500  0.12124700  1
  O  O20  1  0.09222200  0.37575400  0.10427900  1
  O  O21  1  0.90777800  0.62424600  0.89572100  1
  O  O22  1  0.14071900  0.96198000  0.31787400  1
  O  O23  1  0.35928100  0.46198000  0.18212600  1
  O  O24  1  0.36826700  0.88043500  0.12124700  1
  O  O25  1  0.40777800  0.62424600  0.60427900  1
  O  O26  1  0.14071900  0.53802000  0.68212600  1
  O  O27  1  0.13173300  0.38043500  0.37875300  1
  O  O28  1  0.85928100  0.03802000  0.68212600  1
  O  O29  1  0.86826700  0.88043500  0.37875300  1
  O  O30  1  0.35928100  0.03802000  0.81787400  1
  O  O31  1  0.02804600  0.86726400  0.56766500  1
  O  O32  1  0.20052300  0.63557200  0.06594700  1
  O  O33  1  0.09222200  0.12424600  0.89572100  1
  O  O34  1  0.60806100  0.58032600  0.25430400  1
  O  O35  1  0.64071900  0.96198000  0.18212600  1
  O  O36  1  0.40777800  0.87575400  0.39572100  1
  O  O37  1  0.52804600  0.63273600  0.06766500  1
  O  O38  1  0.70052300  0.86442800  0.56594700  1
  O  O39  1  0.29947700  0.36442800  0.56594700  1
  O  O40  1  0.85928100  0.46198000  0.31787400  1
  O  O41  1  0.02804600  0.63273600  0.43233500  1
  O  O42  1  0.47195400  0.36726400  0.93233500  1
  O  O43  1  0.86826700  0.61956500  0.62124700  1
  O  O44  1  0.90777800  0.87575400  0.10427900  1
  O  O45  1  0.97195400  0.36726400  0.56766500  1
  O  O46  1  0.52804600  0.86726400  0.93233500  1
  O  O47  1  0.13173300  0.11956500  0.62124700  1
loop_
_geom_bond_atom_site_label_1
_geom_bond_atom_site_label_2
_geom_bond_distance
_geom_bond_site_symmetry_2
Cr0 O38 1.897181 1_555
Cr0 O16 1.897181 1_555
Cr0 O29 1.946335 1_555
Cr0 O43 1.946335 1_555
Cr0 O31 1.967096 1_655
Cr0 O41 1.967096 1_655
Cr1 O5 1.897181 1_555
Cr1 O12 1.897181 1_554
Cr1 O19 1.946335 1_555
Cr1 O7 1.946335 1_554
Cr1 O2 1.967096 1_555
Cr1 O42 1.967096 1_554
Cr2 O39 1.897181 1_555
Cr2 O6 1.897181 1_555
Cr2 O27 1.946335 1_555
Cr2 O47 1.946335 1_555
Cr2 O45 1.967096 1_455
Cr2 O11 1.967096 1_455
Cr3 O32 1.897181 1_555
Cr3 O13 1.897181 1_554
Cr3 O24 1.946335 1_555
Cr3 O8 1.946335 1_554
Cr3 O37 1.967096 1_555
Cr3 O46 1.967096 1_554
O0 P12 1.585008 1_555
O0 P6 1.635462 1_555
O1 P0 1.585008 1_555
O1 P3 1.635462 1_555
O2 P12 1.513087 1_555
O3 P14 1.585008 1_555
O3 P5 1.635462 1_555
O4 P9 1.585008 1_555
O4 P7 1.635462 1_555
O5 P13 1.524402 1_555
O6 P6 1.524402 1_555
O7 P0 1.514823 1_545
O8 P14 1.514823 1_555
O9 P8 1.467123 1_555
O10 P4 1.585008 1_555
O10 P13 1.635462 1_555
O11 P4 1.513087 1_555
O12 P7 1.524402 1_555
O13 P1 1.524402 1_555
O14 P11 1.585008 1_555
O14 P1 1.635462 1_555
O15 P3 1.467123 1_545
O16 P8 1.524402 1_555
O17 P14 1.588611 1_555
O17 P7 1.637537 1_555
O18 P10 1.585008 1_555
O18 P2 1.635462 1_555
O19 P15 1.514823 1_555
O20 P2 1.467123 1_555
O21 P7 1.467123 1_555
O22 P4 1.588611 1_465
O22 P6 1.637537 1_565
O23 P15 1.588611 1_555
O23 P2 1.637537 1_555
O24 P12 1.514823 1_565
O25 P5 1.467123 1_555
O26 P9 1.588611 1_455
O26 P5 1.637537 1_555
O27 P10 1.514823 1_555
O28 P11 1.588611 1_645
O28 P3 1.637537 1_545
O29 P4 1.514823 1_565
O30 P0 1.588611 1_545
O30 P1 1.637537 1_545
O31 P11 1.513087 1_555
O32 P2 1.524402 1_555
O33 P1 1.467123 1_545
O34 P15 1.585008 1_555
O34 P8 1.635462 1_555
O35 P12 1.588611 1_565
O35 P13 1.637537 1_565
O36 P6 1.467123 1_565
O37 P15 1.513087 1_555
O38 P3 1.524402 1_555
O39 P5 1.524402 1_555
O40 P10 1.588611 1_655
O40 P8 1.637537 1_555
O41 P10 1.513087 1_555
O42 P14 1.513087 1_555
O43 P9 1.514823 1_555
O44 P13 1.467123 1_565
O45 P9 1.513087 1_555
O46 P0 1.513087 1_555
O47 P11 1.514823 1_545
