# generated using pymatgen
data_Mn5SbO12
_symmetry_space_group_name_H-M   'P 1'
_cell_length_a   5.22049792
_cell_length_b   5.22049792
_cell_length_c   9.72361746
_cell_angle_alpha   89.80526869
_cell_angle_beta   89.80526869
_cell_angle_gamma   120.69678467
_symmetry_Int_Tables_number   1
_chemical_formula_structural   Mn5SbO12
_chemical_formula_sum   'Mn5 Sb1 O12'
_cell_volume   227.86613311
_cell_formula_units_Z   1
loop_
 _symmetry_equiv_pos_site_id
 _symmetry_equiv_pos_as_xyz
  1  'x, y, z'
loop_
 _atom_site_type_symbol
 _atom_site_label
 _atom_site_symmetry_multiplicity
 _atom_site_fract_x
 _atom_site_fract_y
 _atom_site_fract_z
 _atom_site_occupancy
  Mn  Mn0  1  0.16677000  0.83323000  0.50000000  1
  Mn  Mn1  1  0.33372600  0.66627400  0.00000000  1
  Mn  Mn2  1  0.50000000  0.50000000  0.50000000  1
  Mn  Mn3  1  0.66627400  0.33372600  0.00000000  1
  Mn  Mn4  1  0.83323000  0.16677000  0.50000000  1
  Sb  Sb0  1  0.00000000  0.00000000  0.00000000  1
  O  O0  1  0.33897500  0.00688100  0.10214400  1
  O  O1  1  0.99311900  0.66102500  0.89785600  1
  O  O2  1  0.50125200  0.83439100  0.40471000  1
  O  O3  1  0.16560900  0.49874800  0.59529000  1
  O  O4  1  0.83258500  0.83258500  0.59549100  1
  O  O5  1  0.66413100  0.66413100  0.10417700  1
  O  O6  1  0.33586900  0.33586900  0.89582300  1
  O  O7  1  0.16741500  0.16741500  0.40450900  1
  O  O8  1  0.83439100  0.50125200  0.40471000  1
  O  O9  1  0.49874800  0.16560900  0.59529000  1
  O  O10  1  0.00688100  0.33897500  0.10214400  1
  O  O11  1  0.66102500  0.99311900  0.89785600  1
loop_
_geom_bond_atom_site_label_1
_geom_bond_atom_site_label_2
_geom_bond_distance
_geom_bond_site_symmetry_2
Mn0 O9 1.955628 1_565
Mn0 O8 1.955628 1_455
Mn0 O2 1.971243 1_555
Mn0 O3 1.971243 1_555
Mn0 O7 1.972004 1_565
Mn0 O4 1.972004 1_455
Mn1 O10 1.953894 1_555
Mn1 O11 1.953894 1_554
Mn1 O5 2.008222 1_555
Mn1 O6 2.008222 1_554
Mn1 O1 2.027667 1_454
Mn1 O0 2.027667 1_565
Mn2 O4 1.958414 1_555
Mn2 O7 1.958414 1_555
Mn2 O9 1.970610 1_555
Mn2 O3 1.970610 1_555
Mn2 O8 1.970610 1_555
Mn2 O2 1.970610 1_555
Mn3 O0 1.953894 1_555
Mn3 O1 1.953894 1_554
Mn3 O5 2.008222 1_555
Mn3 O6 2.008222 1_554
Mn3 O11 2.027667 1_544
Mn3 O10 2.027667 1_655
Mn4 O3 1.955628 1_655
Mn4 O2 1.955628 1_545
Mn4 O8 1.971243 1_555
Mn4 O9 1.971243 1_555
Mn4 O7 1.972004 1_655
Mn4 O4 1.972004 1_545
O0 Sb0 2.016579 1_555
O1 Sb0 2.016579 1_666
O5 Sb0 2.002965 1_665
O6 Sb0 2.002965 1_556
O10 Sb0 2.016579 1_555
O11 Sb0 2.016579 1_666
