# generated using pymatgen
data_CdP4
_symmetry_space_group_name_H-M   'P 1'
_cell_length_a   5.17206495
_cell_length_b   5.28931194
_cell_length_c   7.65047280
_cell_angle_alpha   99.24475770
_cell_angle_beta   90.00000000
_cell_angle_gamma   90.00000000
_symmetry_Int_Tables_number   1
_chemical_formula_structural   CdP4
_chemical_formula_sum   'Cd2 P8'
_cell_volume   206.57294924
_cell_formula_units_Z   2
loop_
 _symmetry_equiv_pos_site_id
 _symmetry_equiv_pos_as_xyz
  1  'x, y, z'
loop_
 _atom_site_type_symbol
 _atom_site_label
 _atom_site_symmetry_multiplicity
 _atom_site_fract_x
 _atom_site_fract_y
 _atom_site_fract_z
 _atom_site_occupancy
  Cd  Cd0  1  0.50000000  -0.00000000  0.50000000  1
  Cd  Cd1  1  0.00000000  -0.00000000  -0.00000000  1
  P  P0  1  0.60127637  0.60002315  0.89923150  1
  P  P1  1  0.10127637  0.39997685  0.60076850  1
  P  P2  1  0.28937911  0.73645077  0.74753723  1
  P  P3  1  0.78937911  0.26354923  0.75246277  1
  P  P4  1  0.71062089  0.26354923  0.25246277  1
  P  P5  1  0.21062089  0.73645077  0.24753723  1
  P  P6  1  0.89872363  0.60002315  0.39923150  1
  P  P7  1  0.39872363  0.39997685  0.10076850  1
loop_
_geom_bond_atom_site_label_1
_geom_bond_atom_site_label_2
_geom_bond_distance
_geom_bond_site_symmetry_2
Cd0 P5 2.654945 1_545
Cd0 P3 2.654945 1_555
Cd0 P4 2.750363 1_555
Cd0 P2 2.750363 1_545
Cd0 P1 2.966282 1_555
Cd0 P6 2.966282 1_545
Cd1 P2 2.654945 1_544
Cd1 P4 2.654945 1_455
Cd1 P3 2.750363 1_454
Cd1 P5 2.750363 1_545
Cd1 P0 2.966282 1_444
Cd1 P7 2.966282 1_555
P0 P3 2.175453 1_555
P0 P2 2.176900 1_555
P0 P7 2.262431 1_556
P1 P2 2.175453 1_555
P1 P3 2.176900 1_455
P1 P6 2.262431 1_455
P4 P6 2.175453 1_555
P4 P7 2.176900 1_555
P5 P7 2.175453 1_555
P5 P6 2.176900 1_455
