# generated using pymatgen
data_Li4Cr3GaO8
_symmetry_space_group_name_H-M   'P 1'
_cell_length_a   5.13872600
_cell_length_b   5.92839440
_cell_length_c   10.26889340
_cell_angle_alpha   90.00376858
_cell_angle_beta   99.59056985
_cell_angle_gamma   106.77944173
_symmetry_Int_Tables_number   1
_chemical_formula_structural   Li4Cr3GaO8
_chemical_formula_sum   'Li8 Cr6 Ga2 O16'
_cell_volume   294.94526900
_cell_formula_units_Z   2
loop_
 _symmetry_equiv_pos_site_id
 _symmetry_equiv_pos_as_xyz
  1  'x, y, z'
loop_
 _atom_site_type_symbol
 _atom_site_label
 _atom_site_symmetry_multiplicity
 _atom_site_fract_x
 _atom_site_fract_y
 _atom_site_fract_z
 _atom_site_occupancy
  Li  Li0  1  0.00003000  0.75015200  0.74986300  1
  Li  Li1  1  0.00047000  0.75024200  0.24996500  1
  Li  Li2  1  0.00000000  0.50000000  0.50000000  1
  Li  Li3  1  0.00000000  0.50000000  0.00000000  1
  Li  Li4  1  0.99953000  0.24975800  0.75003500  1
  Li  Li5  1  0.99997000  0.24984800  0.25013700  1
  Li  Li6  1  0.00000000  0.00000000  0.50000000  1
  Li  Li7  1  0.00000000  0.00000000  0.00000000  1
  Cr  Cr0  1  0.49998300  0.62481800  0.37482400  1
  Cr  Cr1  1  0.50001700  0.37518200  0.62517600  1
  Cr  Cr2  1  0.50006000  0.12514300  0.37482900  1
  Cr  Cr3  1  0.50019900  0.12521300  0.87522400  1
  Cr  Cr4  1  0.49994000  0.87485700  0.62517100  1
  Cr  Cr5  1  0.49980100  0.87478700  0.12477600  1
  Ga  Ga0  1  0.49999400  0.62482100  0.87510500  1
  Ga  Ga1  1  0.50000600  0.37517900  0.12489500  1
  O  O0  1  0.27381400  0.56841700  0.68969300  1
  O  O1  1  0.27420800  0.56817900  0.18934300  1
  O  O2  1  0.72487600  0.68147900  0.56038000  1
  O  O3  1  0.72633000  0.68082700  0.06033200  1
  O  O4  1  0.27512400  0.31852100  0.43962000  1
  O  O5  1  0.72618600  0.43158300  0.31030700  1
  O  O6  1  0.27367000  0.31917300  0.93966800  1
  O  O7  1  0.72579200  0.43182100  0.81065700  1
  O  O8  1  0.27535200  0.06879800  0.68977100  1
  O  O9  1  0.72469400  0.18110300  0.56029800  1
  O  O10  1  0.27444800  0.06890100  0.18937100  1
  O  O11  1  0.72559200  0.18157900  0.06066100  1
  O  O12  1  0.27530600  0.81889700  0.43970200  1
  O  O13  1  0.72464800  0.93120200  0.31022900  1
  O  O14  1  0.27440800  0.81842100  0.93933900  1
  O  O15  1  0.72555200  0.93109900  0.81062900  1
loop_
_geom_bond_atom_site_label_1
_geom_bond_atom_site_label_2
_geom_bond_distance
_geom_bond_site_symmetry_2
Li0 O0 2.164875 1_555
Li0 O14 2.166530 1_555
Li0 O7 2.166781 1_455
Li0 O15 2.167097 1_455
Li0 O8 2.167704 1_565
Li0 O2 2.168370 1_455
Li1 O5 2.166381 1_455
Li1 O10 2.166701 1_565
Li1 O3 2.167261 1_455
Li1 O1 2.167839 1_555
Li1 O12 2.169697 1_555
Li1 O13 2.170931 1_455
Li2 O0 2.166996 1_555
Li2 O5 2.166996 1_455
Li2 O9 2.169516 1_455
Li2 O12 2.169516 1_555
Li2 O4 2.170481 1_555
Li2 O2 2.170481 1_455
Li3 O3 2.161353 1_455
Li3 O6 2.161353 1_554
Li3 O1 2.165061 1_555
Li3 O7 2.165061 1_454
Li3 O11 2.166995 1_455
Li3 O14 2.166995 1_554
Li4 O0 2.166381 1_655
Li4 O15 2.166701 1_545
Li4 O6 2.167261 1_655
Li4 O7 2.167839 1_555
Li4 O9 2.169697 1_555
Li4 O8 2.170931 1_655
Li5 O5 2.164875 1_555
Li5 O11 2.166530 1_555
Li5 O1 2.166781 1_655
Li5 O10 2.167097 1_655
Li5 O13 2.167704 1_545
Li5 O4 2.168370 1_655
Li6 O2 2.167907 1_445
Li6 O4 2.167907 1_555
Li6 O9 2.169413 1_455
Li6 O12 2.169413 1_545
Li6 O8 2.171159 1_555
Li6 O13 2.171159 1_445
Li7 O10 2.165838 1_555
Li7 O15 2.165838 1_444
Li7 O3 2.167022 1_445
Li7 O6 2.167022 1_554
Li7 O11 2.168929 1_455
Li7 O14 2.168929 1_544
Cr0 O13 2.028943 1_555
Cr0 O4 2.029802 1_555
Cr0 O2 2.030068 1_555
Cr0 O12 2.030731 1_555
Cr0 O1 2.031078 1_555
Cr0 O5 2.031694 1_555
Cr1 O8 2.028943 1_555
Cr1 O2 2.029802 1_555
Cr1 O4 2.030068 1_555
Cr1 O9 2.030731 1_555
Cr1 O7 2.031078 1_555
Cr1 O0 2.031694 1_555
Cr2 O4 2.028367 1_555
Cr2 O13 2.028568 1_545
Cr2 O9 2.028827 1_555
Cr2 O12 2.029719 1_545
Cr2 O10 2.030571 1_555
Cr2 O5 2.031622 1_555
Cr3 O8 2.029088 1_555
Cr3 O11 2.029976 1_556
Cr3 O14 2.030755 1_545
Cr3 O7 2.031537 1_555
Cr3 O15 2.032391 1_545
Cr3 O6 2.035836 1_555
Cr4 O2 2.028367 1_555
Cr4 O8 2.028568 1_565
Cr4 O12 2.028827 1_555
Cr4 O9 2.029719 1_565
Cr4 O15 2.030571 1_555
Cr4 O0 2.031622 1_555
Cr5 O13 2.029088 1_555
Cr5 O14 2.029976 1_554
Cr5 O11 2.030755 1_565
Cr5 O1 2.031537 1_555
Cr5 O10 2.032391 1_565
Cr5 O3 2.035836 1_555
Ga0 O7 2.028737 1_555
Ga0 O6 2.028755 1_555
Ga0 O14 2.029549 1_555
Ga0 O15 2.029649 1_555
Ga0 O3 2.029946 1_556
Ga0 O0 2.031247 1_555
Ga1 O1 2.028737 1_555
Ga1 O3 2.028755 1_555
Ga1 O11 2.029549 1_555
Ga1 O10 2.029649 1_555
Ga1 O6 2.029946 1_554
Ga1 O5 2.031247 1_555
