# generated using pymatgen
data_Li8Mn7Fe(BO3)8
_symmetry_space_group_name_H-M   'P 1'
_cell_length_a   5.24615100
_cell_length_b   5.25229725
_cell_length_c   21.00563884
_cell_angle_alpha   91.15033635
_cell_angle_beta   90.89048147
_cell_angle_gamma   119.81768941
_symmetry_Int_Tables_number   1
_chemical_formula_structural   Li8Mn7Fe(BO3)8
_chemical_formula_sum   'Li8 Mn7 Fe1 B8 O24'
_cell_volume   501.85227179
_cell_formula_units_Z   1
loop_
 _symmetry_equiv_pos_site_id
 _symmetry_equiv_pos_as_xyz
  1  'x, y, z'
loop_
 _atom_site_type_symbol
 _atom_site_label
 _atom_site_symmetry_multiplicity
 _atom_site_fract_x
 _atom_site_fract_y
 _atom_site_fract_z
 _atom_site_occupancy
  Li  Li0  1  0.34909800  0.32110800  0.66617000  1
  Li  Li1  1  0.32114700  0.34742200  0.91629100  1
  Li  Li2  1  0.34911700  0.32103300  0.16600900  1
  Li  Li3  1  0.32120300  0.34917100  0.41599400  1
  Li  Li4  1  0.66475400  0.65199200  0.79106900  1
  Li  Li5  1  0.65130300  0.66172400  0.54119600  1
  Li  Li6  1  0.66166000  0.65136300  0.29110000  1
  Li  Li7  1  0.65162700  0.66164800  0.04101000  1
  Mn  Mn0  1  0.99612400  0.32896100  0.55859000  1
  Mn  Mn1  1  0.99621200  0.32933500  0.05824300  1
  Mn  Mn2  1  0.99931800  0.67893800  0.93268000  1
  Mn  Mn3  1  0.99711300  0.67662000  0.43348400  1
  Mn  Mn4  1  0.67522300  0.99798800  0.68428500  1
  Mn  Mn5  1  0.67720300  0.99708100  0.18341000  1
  Mn  Mn6  1  0.32881200  0.99623200  0.30843900  1
  Fe  Fe0  1  0.32492100  0.00011000  0.80851800  1
  B  B0  1  0.65907900  0.00351800  0.93637400  1
  B  B1  1  0.65861100  0.00294400  0.43711400  1
  B  B2  1  0.99382300  0.33141000  0.81186700  1
  B  B3  1  0.99532000  0.33438200  0.31207800  1
  B  B4  1  0.00276600  0.65951400  0.68786500  1
  B  B5  1  0.00280600  0.65844600  0.18702300  1
  B  B6  1  0.33450200  0.99516900  0.56222500  1
  B  B7  1  0.33432200  0.99514000  0.06201500  1
  O  O0  1  0.74519800  0.06875100  0.79267700  1
  O  O1  1  0.75286400  0.07002300  0.29099400  1
  O  O2  1  0.93011000  0.25425300  0.95173900  1
  O  O3  1  0.42163500  0.03334200  0.91588300  1
  O  O4  1  0.92991700  0.25341100  0.45217900  1
  O  O5  1  0.42103300  0.03333300  0.41652100  1
  O  O6  1  0.97369400  0.58194300  0.82630500  1
  O  O7  1  0.35898800  0.26888200  0.56951700  1
  O  O8  1  0.96198200  0.57746600  0.32736300  1
  O  O9  1  0.35913300  0.26894500  0.06926800  1
  O  O10  1  0.26637300  0.34867600  0.81823700  1
  O  O11  1  0.26913100  0.35911700  0.31944300  1
  O  O12  1  0.72770700  0.63046400  0.69469200  1
  O  O13  1  0.72785500  0.62907800  0.19428500  1
  O  O14  1  0.62983100  0.72869000  0.94368100  1
  O  O15  1  0.03299300  0.42169400  0.66706500  1
  O  O16  1  0.62899900  0.72823200  0.44435300  1
  O  O17  1  0.03351400  0.42106700  0.16650500  1
  O  O18  1  0.57758900  0.96240900  0.57763900  1
  O  O19  1  0.57771400  0.96230900  0.07735400  1
  O  O20  1  0.07010700  0.75254500  0.54112500  1
  O  O21  1  0.07012400  0.75270100  0.04094300  1
  O  O22  1  0.25290800  0.93021900  0.70327700  1
  O  O23  1  0.25334400  0.93000600  0.20210900  1
loop_
_geom_bond_atom_site_label_1
_geom_bond_atom_site_label_2
_geom_bond_distance
_geom_bond_site_symmetry_2
Li0 O12 1.912746 1_555
Li0 O15 1.975192 1_555
Li0 O22 2.030625 1_545
Li0 O7 2.048158 1_555
Li1 O14 1.913997 1_555
Li1 O3 1.965637 1_555
Li1 O2 2.016452 1_455
Li1 O10 2.075802 1_555
Li2 O13 1.909479 1_555
Li2 O17 1.970519 1_555
Li2 O23 2.023286 1_545
Li2 O9 2.049965 1_555
Li3 O16 1.910879 1_555
Li3 O5 1.972519 1_555
Li3 O4 2.020287 1_455
Li3 O11 2.047396 1_555
Li4 O6 1.968926 1_555
Li4 O10 1.998507 1_555
Li4 O0 2.012117 1_565
Li4 O12 2.066162 1_555
Li5 O18 1.948775 1_555
Li5 O7 1.973284 1_555
Li5 O20 2.003169 1_655
Li5 O16 2.082226 1_555
Li6 O8 1.948304 1_555
Li6 O11 1.970402 1_555
Li6 O1 2.004528 1_565
Li6 O13 2.079156 1_555
Li7 O19 1.948507 1_555
Li7 O9 1.972602 1_555
Li7 O21 2.001218 1_655
Li7 O14 2.092500 1_554
Mn0 O7 2.088734 1_655
Mn0 O20 2.100804 1_655
Mn0 O18 2.131211 1_545
Mn0 O4 2.253341 1_555
Mn0 O15 2.305352 1_655
Mn1 O9 2.090224 1_655
Mn1 O21 2.099133 1_655
Mn1 O19 2.132371 1_545
Mn1 O2 2.255045 1_554
Mn1 O17 2.300093 1_655
Mn2 O14 2.096246 1_555
Mn2 O3 2.108881 1_665
Mn2 O2 2.121916 1_555
Mn2 O6 2.268774 1_555
Mn2 O21 2.292381 1_656
Mn3 O16 2.094496 1_555
Mn3 O4 2.116482 1_555
Mn3 O5 2.119165 1_665
Mn3 O8 2.262612 1_555
Mn3 O20 2.281033 1_655
Mn4 O12 2.096061 1_555
Mn4 O22 2.107922 1_555
Mn4 O15 2.122666 1_665
Mn4 O18 2.273315 1_555
Mn4 O0 2.293746 1_565
Mn5 O13 2.094128 1_555
Mn5 O23 2.115789 1_555
Mn5 O17 2.119435 1_665
Mn5 O19 2.263067 1_555
Mn5 O1 2.279796 1_565
Mn6 O11 2.088597 1_565
Mn6 O1 2.099311 1_565
Mn6 O8 2.132763 1_455
Mn6 O23 2.251835 1_555
Mn6 O5 2.297996 1_565
Fe0 O10 2.008460 1_555
Fe0 O0 2.083054 1_555
Fe0 O6 2.094840 1_445
Fe0 O22 2.228904 1_545
Fe0 O3 2.287946 1_555
B0 O14 1.385675 1_545
B0 O3 1.393407 1_555
B0 O2 1.402387 1_555
B1 O16 1.384109 1_545
B1 O5 1.396382 1_555
B1 O4 1.401349 1_555
B2 O10 1.391108 1_655
B2 O0 1.392409 1_555
B2 O6 1.399219 1_555
B3 O11 1.382356 1_655
B3 O1 1.394050 1_555
B3 O8 1.403965 1_555
B4 O12 1.383637 1_455
B4 O15 1.397684 1_555
B4 O22 1.400445 1_555
B5 O13 1.383545 1_455
B5 O17 1.395174 1_555
B5 O23 1.402459 1_555
B6 O7 1.383334 1_565
B6 O20 1.394520 1_555
B6 O18 1.402989 1_555
B7 O9 1.383016 1_565
B7 O21 1.393398 1_555
B7 O19 1.404408 1_555
