# generated using pymatgen
data_Ca2CeO4
_symmetry_space_group_name_H-M   'P 1'
_cell_length_a   3.53302400
_cell_length_b   5.84851000
_cell_length_c   10.02701600
_cell_angle_alpha   90.00000000
_cell_angle_beta   90.00000000
_cell_angle_gamma   90.00000000
_symmetry_Int_Tables_number   1
_chemical_formula_structural   Ca2CeO4
_chemical_formula_sum   'Ca4 Ce2 O8'
_cell_volume   207.18749156
_cell_formula_units_Z   2
loop_
 _symmetry_equiv_pos_site_id
 _symmetry_equiv_pos_as_xyz
  1  'x, y, z'
loop_
 _atom_site_type_symbol
 _atom_site_label
 _atom_site_symmetry_multiplicity
 _atom_site_fract_x
 _atom_site_fract_y
 _atom_site_fract_z
 _atom_site_occupancy
  Ca  Ca0  1  0.50000000  0.06141700  0.67850900  1
  Ca  Ca1  1  0.50000000  0.43858300  0.17850900  1
  Ca  Ca2  1  0.50000000  0.56141700  0.82149100  1
  Ca  Ca3  1  0.50000000  0.93858300  0.32149100  1
  Ce  Ce0  1  0.00000000  0.00000000  0.00000000  1
  Ce  Ce1  1  0.00000000  0.50000000  0.50000000  1
  O  O0  1  0.00000000  0.15250200  0.20165300  1
  O  O1  1  0.50000000  0.24032000  0.95927000  1
  O  O2  1  0.50000000  0.25968000  0.45927000  1
  O  O3  1  0.00000000  0.34749800  0.70165300  1
  O  O4  1  0.00000000  0.65250200  0.29834700  1
  O  O5  1  0.50000000  0.74032000  0.54073000  1
  O  O6  1  0.50000000  0.75968000  0.04073000  1
  O  O7  1  0.00000000  0.84749800  0.79834700  1
loop_
_geom_bond_atom_site_label_1
_geom_bond_atom_site_label_2
_geom_bond_distance
_geom_bond_site_symmetry_2
Ca0 O5 2.331358 1_545
Ca0 O3 2.444144 1_555
Ca0 O3 2.444144 1_655
Ca0 O7 2.475827 1_545
Ca0 O7 2.475827 1_645
Ca0 O2 2.485381 1_555
Ca1 O6 2.331358 1_555
Ca1 O0 2.444144 1_555
Ca1 O0 2.444144 1_655
Ca1 O4 2.475827 1_555
Ca1 O4 2.475827 1_655
Ca1 O1 2.485381 1_554
Ca2 O1 2.331358 1_555
Ca2 O7 2.444144 1_655
Ca2 O7 2.444144 1_555
Ca2 O3 2.475827 1_555
Ca2 O3 2.475827 1_655
Ca2 O6 2.485381 1_556
Ca3 O2 2.331358 1_565
Ca3 O4 2.444144 1_655
Ca3 O4 2.444144 1_555
Ca3 O0 2.475827 1_565
Ca3 O0 2.475827 1_665
Ca3 O5 2.485381 1_555
Ce0 O7 2.209954 1_544
Ce0 O0 2.209954 1_555
Ce0 O1 2.294085 1_454
Ce0 O1 2.294085 1_554
Ce0 O6 2.294085 1_545
Ce0 O6 2.294085 1_445
Ce1 O3 2.209954 1_555
Ce1 O4 2.209954 1_555
Ce1 O2 2.294085 1_455
Ce1 O5 2.294085 1_555
Ce1 O2 2.294085 1_555
Ce1 O5 2.294085 1_455
