# generated using pymatgen
data_Li2Bi2B2O7
_symmetry_space_group_name_H-M   'P 1'
_cell_length_a   8.60232383
_cell_length_b   8.60232383
_cell_length_c   7.77646231
_cell_angle_alpha   89.48537968
_cell_angle_beta   89.48537968
_cell_angle_gamma   61.63678083
_symmetry_Int_Tables_number   1
_chemical_formula_structural   Li2Bi2B2O7
_chemical_formula_sum   'Li6 Bi6 B6 O21'
_cell_volume   506.34872780
_cell_formula_units_Z   3
loop_
 _symmetry_equiv_pos_site_id
 _symmetry_equiv_pos_as_xyz
  1  'x, y, z'
loop_
 _atom_site_type_symbol
 _atom_site_label
 _atom_site_symmetry_multiplicity
 _atom_site_fract_x
 _atom_site_fract_y
 _atom_site_fract_z
 _atom_site_occupancy
  Li  Li0  1  0.33447300  0.32896800  0.27412000  1
  Li  Li1  1  0.01602700  0.98942400  0.25429700  1
  Li  Li2  1  0.01057600  0.98397300  0.74570300  1
  Li  Li3  1  0.31485900  0.34459900  0.80827900  1
  Li  Li4  1  0.67103200  0.66552700  0.72588000  1
  Li  Li5  1  0.65540100  0.68514100  0.19172100  1
  Bi  Bi0  1  0.62094600  0.06225600  0.99440000  1
  Bi  Bi1  1  0.74005700  0.98961100  0.49664600  1
  Bi  Bi2  1  0.93774400  0.37905400  0.00560000  1
  Bi  Bi3  1  0.01038900  0.25994300  0.50335400  1
  Bi  Bi4  1  0.30861300  0.69138700  0.50000000  1
  Bi  Bi5  1  0.40499100  0.59500900  0.00000000  1
  B  B0  1  0.33812300  0.00199600  0.74117600  1
  B  B1  1  0.64612400  0.34807600  0.69893700  1
  B  B2  1  0.00678100  0.66248200  0.76140200  1
  B  B3  1  0.99800400  0.66187700  0.25882400  1
  B  B4  1  0.65192400  0.35387600  0.30106300  1
  B  B5  1  0.33751800  0.99321900  0.23859800  1
  O  O0  1  0.73127700  0.17220000  0.75893700  1
  O  O1  1  0.43159500  0.08723900  0.80001300  1
  O  O2  1  0.57787400  0.25806400  0.37364400  1
  O  O3  1  0.15428700  0.10093200  0.74535400  1
  O  O4  1  0.23645800  0.16541100  0.29293000  1
  O  O5  1  0.46344200  0.45361400  0.71769300  1
  O  O6  1  0.42556200  0.33239700  0.04149900  1
  O  O7  1  0.98441500  0.01558500  0.50000000  1
  O  O8  1  0.06422500  0.48778100  0.81368300  1
  O  O9  1  0.16662400  0.57434200  0.32263900  1
  O  O10  1  0.82780000  0.26872300  0.24106300  1
  O  O11  1  0.91276100  0.56840500  0.19998700  1
  O  O12  1  0.74193600  0.42212600  0.62635600  1
  O  O13  1  0.12420100  0.73146500  0.76310600  1
  O  O14  1  0.89906800  0.84571300  0.25464600  1
  O  O15  1  0.83458900  0.76354200  0.70707000  1
  O  O16  1  0.54638600  0.53655800  0.28230700  1
  O  O17  1  0.66760300  0.57443800  0.95850100  1
  O  O18  1  0.51221900  0.93577500  0.18631700  1
  O  O19  1  0.42565800  0.83337600  0.67736100  1
  O  O20  1  0.26853500  0.87579900  0.23689400  1
loop_
_geom_bond_atom_site_label_1
_geom_bond_atom_site_label_2
_geom_bond_distance
_geom_bond_site_symmetry_2
Li0 O9 1.947152 1_555
Li0 O4 1.957827 1_555
Li0 O6 1.970474 1_555
Li0 O2 2.040173 1_555
Li1 O20 1.916198 1_555
Li1 O7 1.927593 1_465
Li1 O14 1.929315 1_455
Li1 O10 2.169621 1_465
Li2 O13 1.916198 1_555
Li2 O7 1.927593 1_465
Li2 O3 1.929315 1_565
Li2 O0 2.169621 1_465
Li3 O8 1.908799 1_555
Li3 O1 1.950122 1_555
Li3 O5 2.029819 1_555
Li3 O6 2.034643 1_556
Li4 O19 1.947152 1_555
Li4 O15 1.957827 1_555
Li4 O17 1.970474 1_555
Li4 O12 2.040173 1_555
Li5 O18 1.908799 1_555
Li5 O11 1.950122 1_555
Li5 O16 2.029819 1_555
Li5 O17 2.034643 1_554
Bi0 O6 2.156982 1_556
Bi0 O1 2.165693 1_555
Bi0 O18 2.280045 1_546
Bi0 O0 2.436931 1_555
Bi1 O7 2.217327 1_565
Bi1 O2 2.262186 1_565
Bi1 O14 2.309058 1_555
Bi1 O15 2.363273 1_555
Bi1 O0 2.564215 1_565
Bi2 O17 2.156982 1_554
Bi2 O11 2.165693 1_555
Bi2 O8 2.280045 1_654
Bi2 O10 2.436931 1_555
Bi3 O7 2.217327 1_455
Bi3 O12 2.262186 1_455
Bi3 O3 2.309058 1_555
Bi3 O4 2.363273 1_555
Bi3 O10 2.564215 1_455
Bi4 O9 2.373110 1_555
Bi4 O19 2.373110 1_555
Bi4 O5 2.492666 1_555
Bi4 O16 2.492666 1_555
Bi4 O20 2.501283 1_555
Bi4 O13 2.501283 1_555
Bi5 O6 2.201586 1_555
Bi5 O17 2.201586 1_554
Bi5 O16 2.449263 1_555
Bi5 O5 2.449263 1_554
B0 O19 1.373228 1_545
B0 O3 1.395374 1_555
B0 O1 1.402298 1_555
B1 O12 1.373928 1_555
B1 O5 1.399214 1_555
B1 O0 1.408461 1_555
B2 O15 1.381862 1_455
B2 O13 1.393725 1_555
B2 O8 1.398227 1_555
B3 O9 1.373228 1_655
B3 O14 1.395374 1_555
B3 O11 1.402298 1_555
B4 O2 1.373928 1_555
B4 O16 1.399214 1_555
B4 O10 1.408461 1_555
B5 O4 1.381862 1_565
B5 O20 1.393725 1_555
B5 O18 1.398227 1_555
