# generated using pymatgen
data_Li3VCr3O8
_symmetry_space_group_name_H-M   'P 1'
_cell_length_a   5.94278089
_cell_length_b   10.30879047
_cell_length_c   5.94175635
_cell_angle_alpha   106.43453580
_cell_angle_beta   120.14205174
_cell_angle_gamma   90.22135418
_symmetry_Int_Tables_number   1
_chemical_formula_structural   Li3VCr3O8
_chemical_formula_sum   'Li6 V2 Cr6 O16'
_cell_volume   297.21822371
_cell_formula_units_Z   2
loop_
 _symmetry_equiv_pos_site_id
 _symmetry_equiv_pos_as_xyz
  1  'x, y, z'
loop_
 _atom_site_type_symbol
 _atom_site_label
 _atom_site_symmetry_multiplicity
 _atom_site_fract_x
 _atom_site_fract_y
 _atom_site_fract_z
 _atom_site_occupancy
  Li  Li0  1  0.25038200  0.24992700  0.00052700  1
  Li  Li1  1  0.75062800  0.75010800  0.00047700  1
  Li  Li2  1  0.00091000  0.50011800  0.99976500  1
  Li  Li3  1  0.49981700  0.00053000  0.99991400  1
  Li  Li4  1  0.49963900  0.49989800  0.50082000  1
  Li  Li5  1  0.99942600  0.99950500  0.49935500  1
  V  V0  1  0.75097200  0.25021700  0.50076600  1
  V  V1  1  0.25049100  0.74978900  0.50074100  1
  Cr  Cr0  1  0.25048900  0.75074400  0.00150000  1
  Cr  Cr1  1  0.25078700  0.24923600  0.49974800  1
  Cr  Cr2  1  0.99834800  0.50001300  0.49834400  1
  Cr  Cr3  1  0.75046800  0.25067300  0.00129700  1
  Cr  Cr4  1  0.75055600  0.74930900  0.49974200  1
  Cr  Cr5  1  0.49732500  0.99997500  0.49726300  1
  O  O0  1  0.11391200  0.37158500  0.26034400  1
  O  O1  1  0.61340200  0.87167600  0.25962400  1
  O  O2  1  0.38813000  0.12828300  0.74178800  1
  O  O3  1  0.88888600  0.62842800  0.74248400  1
  O  O4  1  0.64884700  0.36581500  0.26790100  1
  O  O5  1  0.14800100  0.86605100  0.26725500  1
  O  O6  1  0.87491600  0.14073500  0.26593300  1
  O  O7  1  0.37570200  0.64071500  0.26660200  1
  O  O8  1  0.09880200  0.36623300  0.71546900  1
  O  O9  1  0.59801300  0.86560600  0.71395900  1
  O  O10  1  0.40097600  0.13386000  0.28174200  1
  O  O11  1  0.90182500  0.63415300  0.28290200  1
  O  O12  1  0.62582000  0.35929800  0.73499700  1
  O  O13  1  0.12507700  0.85923000  0.73407400  1
  O  O14  1  0.84828200  0.13443900  0.73222500  1
  O  O15  1  0.34919100  0.63385900  0.73242900  1
loop_
_geom_bond_atom_site_label_1
_geom_bond_atom_site_label_2
_geom_bond_distance
_geom_bond_site_symmetry_2
Li0 O10 2.159225 1_555
Li0 O4 2.164393 1_555
Li0 O8 2.177822 1_554
Li0 O14 2.178819 1_454
Li0 O0 2.187136 1_555
Li0 O2 2.187943 1_554
Li1 O5 2.159793 1_655
Li1 O11 2.163629 1_555
Li1 O9 2.177861 1_554
Li1 O15 2.178562 1_554
Li1 O3 2.187068 1_554
Li1 O1 2.187155 1_555
Li2 O3 2.158379 1_455
Li2 O7 2.168785 1_556
Li2 O12 2.170723 1_455
Li2 O0 2.174251 1_556
Li2 O8 2.184198 1_555
Li2 O11 2.184495 1_456
Li3 O2 2.157454 1_555
Li3 O6 2.168017 1_556
Li3 O13 2.171765 1_545
Li3 O1 2.173025 1_546
Li3 O10 2.174868 1_556
Li3 O9 2.197003 1_545
Li4 O0 2.159541 1_555
Li4 O12 2.168146 1_555
Li4 O7 2.169904 1_555
Li4 O3 2.175392 1_555
Li4 O15 2.184072 1_555
Li4 O4 2.184403 1_555
Li5 O1 2.158929 1_555
Li5 O13 2.167336 1_655
Li5 O6 2.170489 1_565
Li5 O2 2.173906 1_665
Li5 O5 2.175516 1_655
Li5 O14 2.196577 1_565
Cr0 O1 2.033029 1_555
Cr0 O3 2.033710 1_454
Cr0 O13 2.038057 1_554
Cr0 O7 2.040044 1_555
Cr0 O5 2.046144 1_555
Cr0 O15 2.051629 1_554
Cr1 O2 2.032933 1_555
Cr1 O0 2.033957 1_555
Cr1 O6 2.038509 1_455
Cr1 O12 2.040299 1_555
Cr1 O10 2.046146 1_555
Cr1 O8 2.051760 1_555
Cr2 O0 2.036481 1_655
Cr2 O3 2.036580 1_555
Cr2 O11 2.037206 1_555
Cr2 O4 2.037761 1_555
Cr2 O8 2.040178 1_655
Cr2 O15 2.040827 1_655
Cr3 O12 2.034246 1_554
Cr3 O0 2.035361 1_655
Cr3 O2 2.037111 1_554
Cr3 O6 2.037347 1_555
Cr3 O14 2.045587 1_554
Cr3 O4 2.045810 1_555
Cr4 O7 2.034404 1_555
Cr4 O3 2.035452 1_555
Cr4 O1 2.037055 1_555
Cr4 O13 2.037625 1_655
Cr4 O9 2.045226 1_555
Cr4 O11 2.045330 1_555
Cr5 O10 2.035304 1_565
Cr5 O5 2.035761 1_555
Cr5 O1 2.036518 1_555
Cr5 O2 2.036583 1_565
Cr5 O9 2.043627 1_555
Cr5 O14 2.044229 1_565
O4 V0 1.948866 1_555
O5 V1 1.957024 1_555
O6 V0 1.977565 1_555
O7 V1 1.978484 1_555
O8 V0 1.949333 1_455
O9 V1 1.947597 1_555
O10 V0 1.958980 1_555
O11 V1 1.950418 1_655
O12 V0 1.978654 1_555
O13 V1 1.977278 1_555
O14 V0 1.945690 1_555
O15 V1 1.947520 1_555
