# generated using pymatgen
data_LiSiBiO4
_symmetry_space_group_name_H-M   'P 1'
_cell_length_a   4.95598100
_cell_length_b   7.27778800
_cell_length_c   10.65511000
_cell_angle_alpha   90.00000000
_cell_angle_beta   90.00000000
_cell_angle_gamma   90.00000000
_symmetry_Int_Tables_number   1
_chemical_formula_structural   LiSiBiO4
_chemical_formula_sum   'Li4 Si4 Bi4 O16'
_cell_volume   384.31467732
_cell_formula_units_Z   4
loop_
 _symmetry_equiv_pos_site_id
 _symmetry_equiv_pos_as_xyz
  1  'x, y, z'
loop_
 _atom_site_type_symbol
 _atom_site_label
 _atom_site_symmetry_multiplicity
 _atom_site_fract_x
 _atom_site_fract_y
 _atom_site_fract_z
 _atom_site_occupancy
  Li  Li0  1  0.24107300  0.00614200  0.15674700  1
  Li  Li1  1  0.74107300  0.50614200  0.34325300  1
  Li  Li2  1  0.24107300  0.49385800  0.65674700  1
  Li  Li3  1  0.74107300  0.99385800  0.84325300  1
  Si  Si0  1  0.74820100  0.76627300  0.08928600  1
  Si  Si1  1  0.24820100  0.26627300  0.41071400  1
  Si  Si2  1  0.74820100  0.73372700  0.58928600  1
  Si  Si3  1  0.24820100  0.23372700  0.91071400  1
  Bi  Bi0  1  0.72529600  0.25883500  0.12158300  1
  Bi  Bi1  1  0.22529600  0.75883500  0.37841700  1
  Bi  Bi2  1  0.72529600  0.24116500  0.62158300  1
  Bi  Bi3  1  0.22529600  0.74116500  0.87841700  1
  O  O0  1  0.14307400  0.23424800  0.06045600  1
  O  O1  1  0.08370200  0.78411200  0.07221900  1
  O  O2  1  0.66876700  0.58090300  0.16598600  1
  O  O3  1  0.63224500  0.95219000  0.15735700  1
  O  O4  1  0.13224500  0.45219000  0.34264300  1
  O  O5  1  0.16876700  0.08090300  0.33401400  1
  O  O6  1  0.58370200  0.28411200  0.42778100  1
  O  O7  1  0.64307400  0.73424800  0.43954400  1
  O  O8  1  0.14307400  0.26575200  0.56045600  1
  O  O9  1  0.08370200  0.71588800  0.57221900  1
  O  O10  1  0.66876700  0.91909700  0.66598600  1
  O  O11  1  0.63224500  0.54781000  0.65735700  1
  O  O12  1  0.13224500  0.04781000  0.84264300  1
  O  O13  1  0.16876700  0.41909700  0.83401400  1
  O  O14  1  0.58370200  0.21588800  0.92778100  1
  O  O15  1  0.64307400  0.76575200  0.93954400  1
loop_
_geom_bond_atom_site_label_1
_geom_bond_atom_site_label_2
_geom_bond_distance
_geom_bond_site_symmetry_2
Li0 O3 1.978016 1_545
Li0 O5 1.998003 1_555
Li0 O1 2.007625 1_545
Li0 O0 2.011094 1_555
Li1 O4 1.978016 1_655
Li1 O2 1.998003 1_555
Li1 O6 2.007625 1_555
Li1 O7 2.011094 1_555
Li2 O11 1.978016 1_555
Li2 O13 1.998003 1_555
Li2 O9 2.007625 1_555
Li2 O8 2.011094 1_555
Li3 O12 1.978016 1_665
Li3 O10 1.998003 1_555
Li3 O14 2.007625 1_565
Li3 O15 2.011094 1_555
Bi0 O0 2.177889 1_655
Bi0 O14 2.203242 1_554
Bi0 O3 2.310505 1_545
Bi0 O2 2.407571 1_555
Bi1 O7 2.177889 1_555
Bi1 O9 2.203242 1_555
Bi1 O4 2.310505 1_555
Bi1 O5 2.407571 1_565
Bi2 O8 2.177889 1_655
Bi2 O6 2.203242 1_555
Bi2 O11 2.310505 1_555
Bi2 O10 2.407571 1_545
Bi3 O15 2.177889 1_555
Bi3 O1 2.203242 1_556
Bi3 O12 2.310505 1_565
Bi3 O13 2.407571 1_555
O0 Si3 1.678434 1_554
O1 Si0 1.677682 1_455
O2 Si0 1.625699 1_555
O3 Si0 1.639238 1_555
O4 Si1 1.639238 1_555
O5 Si1 1.625699 1_555
O6 Si1 1.677682 1_555
O7 Si2 1.678434 1_555
O8 Si1 1.678434 1_555
O9 Si2 1.677682 1_455
O10 Si2 1.625699 1_555
O11 Si2 1.639238 1_555
O12 Si3 1.639238 1_555
O13 Si3 1.625699 1_555
O14 Si3 1.677682 1_555
O15 Si0 1.678434 1_556
