# generated using pymatgen
data_Li2MnOF3
_symmetry_space_group_name_H-M   'P 1'
_cell_length_a   5.94913557
_cell_length_b   8.46034413
_cell_length_c   6.04209451
_cell_angle_alpha   89.99991325
_cell_angle_beta   90.00004847
_cell_angle_gamma   88.63317752
_symmetry_Int_Tables_number   1
_chemical_formula_structural   Li2MnOF3
_chemical_formula_sum   'Li8 Mn4 O4 F12'
_cell_volume   304.02256666
_cell_formula_units_Z   4
loop_
 _symmetry_equiv_pos_site_id
 _symmetry_equiv_pos_as_xyz
  1  'x, y, z'
loop_
 _atom_site_type_symbol
 _atom_site_label
 _atom_site_symmetry_multiplicity
 _atom_site_fract_x
 _atom_site_fract_y
 _atom_site_fract_z
 _atom_site_occupancy
  Li  Li0  1  0.99998600  0.99999900  0.50001200  1
  Li  Li1  1  0.49998300  0.50001200  0.00001200  1
  Li  Li2  1  0.49998100  0.99999600  0.50001800  1
  Li  Li3  1  0.99998800  0.50000900  0.00001800  1
  Li  Li4  1  0.71724300  0.37620900  0.50001400  1
  Li  Li5  1  0.21723600  0.87620900  0.00001300  1
  Li  Li6  1  0.78273600  0.12379900  0.00001500  1
  Li  Li7  1  0.28272600  0.62379200  0.50001300  1
  Mn  Mn0  1  0.75042700  0.74997000  0.74966100  1
  Mn  Mn1  1  0.74991500  0.74993800  0.25009100  1
  Mn  Mn2  1  0.25047400  0.24993400  0.25005500  1
  Mn  Mn3  1  0.24951200  0.25008900  0.74984400  1
  O  O0  1  0.05665300  0.25463300  0.00003300  1
  O  O1  1  0.55664300  0.75463000  0.50001300  1
  O  O2  1  0.44333500  0.24537600  0.50003100  1
  O  O3  1  0.94333200  0.74537200  0.00001000  1
  F  F0  1  0.51305600  0.25865700  0.00000900  1
  F  F1  1  0.01307300  0.75865200  0.50001100  1
  F  F2  1  0.98690700  0.24135000  0.50000900  1
  F  F3  1  0.48691400  0.74135400  0.00000800  1
  F  F4  1  0.25385200  0.48586300  0.76197100  1
  F  F5  1  0.75385800  0.98584800  0.26197600  1
  F  F6  1  0.25386000  0.48585500  0.23805900  1
  F  F7  1  0.75386500  0.98585000  0.73804800  1
  F  F8  1  0.24611600  0.01414600  0.26198000  1
  F  F9  1  0.74611400  0.51415200  0.76196600  1
  F  F10  1  0.24610700  0.01415300  0.73805100  1
  F  F11  1  0.74610900  0.51415100  0.23805900  1
loop_
_geom_bond_atom_site_label_1
_geom_bond_atom_site_label_2
_geom_bond_distance
_geom_bond_site_symmetry_2
Li2 O1 2.095120 1_555
Li2 O2 2.095224 1_565
Li3 O3 2.095090 1_555
Li3 O0 2.095206 1_655
Li4 O2 1.991628 1_555
Li5 O3 1.991627 1_455
Li6 O0 1.991677 1_655
Li7 O1 1.991696 1_555
Mn0 O1 1.898342 1_555
Mn0 O3 1.898543 1_556
Mn1 O1 1.897815 1_555
Mn1 O3 1.899095 1_555
Mn2 O2 1.896587 1_555
Mn2 O0 1.900273 1_555
Mn3 O0 1.897606 1_556
Mn3 O2 1.899279 1_555
F0 Li6 1.946384 1_555
F0 Li1 2.041572 1_555
F0 Mn2 2.175716 1_555
F0 Mn3 2.180264 1_554
F1 Li7 1.946263 1_555
F1 Li0 2.041506 1_455
F1 Mn0 2.174311 1_455
F1 Mn1 2.177647 1_455
F2 Li4 1.946311 1_555
F2 Li0 2.041539 1_545
F2 Mn3 2.174935 1_655
F2 Mn2 2.179487 1_655
F3 Li5 1.946360 1_555
F3 Li1 2.041462 1_555
F3 Mn1 2.177602 1_555
F3 Mn0 2.180915 1_554
F4 Li7 1.976350 1_555
F4 Mn3 1.996857 1_555
F4 Li1 2.058003 1_556
F4 Li3 2.086945 1_456
F5 Li6 1.976477 1_565
F5 Mn1 1.997868 1_555
F5 Li0 2.057970 1_555
F5 Li2 2.086980 1_555
F6 Li7 1.976369 1_555
F6 Mn2 1.997870 1_555
F6 Li1 2.058001 1_555
F6 Li3 2.086955 1_455
F7 Li6 1.976495 1_566
F7 Mn0 1.997451 1_555
F7 Li0 2.057941 1_555
F7 Li2 2.086958 1_555
F8 Li5 1.976440 1_545
F8 Mn2 1.996935 1_555
F8 Li0 2.057961 1_445
F8 Li2 2.086911 1_545
F9 Li4 1.976392 1_555
F9 Mn0 1.997262 1_555
F9 Li1 2.058020 1_556
F9 Li3 2.087005 1_556
F10 Li5 1.976443 1_546
F10 Mn3 1.997957 1_555
F10 Li0 2.057955 1_445
F10 Li2 2.086933 1_545
F11 Li4 1.976396 1_555
F11 Mn1 1.996832 1_555
F11 Li1 2.058000 1_555
F11 Li3 2.086983 1_555
