# generated using pymatgen
data_SrFeSn(PO4)3
_symmetry_space_group_name_H-M   'P 1'
_cell_length_a   9.19380454
_cell_length_b   9.19380454
_cell_length_c   9.19380485
_cell_angle_alpha   55.76947392
_cell_angle_beta   55.76947392
_cell_angle_gamma   55.76947914
_symmetry_Int_Tables_number   1
_chemical_formula_structural   SrFeSn(PO4)3
_chemical_formula_sum   'Sr2 Fe2 Sn2 P6 O24'
_cell_volume   495.59221639
_cell_formula_units_Z   2
loop_
 _symmetry_equiv_pos_site_id
 _symmetry_equiv_pos_as_xyz
  1  'x, y, z'
loop_
 _atom_site_type_symbol
 _atom_site_label
 _atom_site_symmetry_multiplicity
 _atom_site_fract_x
 _atom_site_fract_y
 _atom_site_fract_z
 _atom_site_occupancy
  Sr  Sr0  1  0.00000000  0.00000000  0.00000000  1
  Sr  Sr1  1  0.50000000  0.50000000  0.50000000  1
  Fe  Fe0  1  0.84842000  0.84842000  0.84842000  1
  Fe  Fe1  1  0.15158000  0.15158000  0.15158000  1
  Sn  Sn0  1  0.64937200  0.64937200  0.64937200  1
  Sn  Sn1  1  0.35062800  0.35062800  0.35062800  1
  P  P0  1  0.75456200  0.45936400  0.03945900  1
  P  P1  1  0.54063600  0.96054100  0.24543800  1
  P  P2  1  0.45936400  0.03945900  0.75456200  1
  P  P3  1  0.96054100  0.24543800  0.54063600  1
  P  P4  1  0.24543800  0.54063600  0.96054100  1
  P  P5  1  0.03945900  0.75456200  0.45936400  1
  O  O0  1  0.40642600  0.59344500  0.76760400  1
  O  O1  1  0.76760400  0.40642600  0.59344500  1
  O  O2  1  0.59344500  0.76760400  0.40642600  1
  O  O3  1  0.29216200  0.04469100  0.94209300  1
  O  O4  1  0.71993500  0.47569300  0.88256100  1
  O  O5  1  0.11743900  0.28006500  0.52430700  1
  O  O6  1  0.01667700  0.74688800  0.64106100  1
  O  O7  1  0.23239600  0.59357400  0.40655500  1
  O  O8  1  0.04469100  0.94209300  0.29216200  1
  O  O9  1  0.74688800  0.64106100  0.01667700  1
  O  O10  1  0.28006500  0.52430700  0.11743900  1
  O  O11  1  0.40655500  0.23239600  0.59357400  1
  O  O12  1  0.25311200  0.35893900  0.98332300  1
  O  O13  1  0.59357400  0.40655500  0.23239600  1
  O  O14  1  0.05790700  0.70783800  0.95530900  1
  O  O15  1  0.98332300  0.25311200  0.35893900  1
  O  O16  1  0.95530900  0.05790700  0.70783800  1
  O  O17  1  0.47569300  0.88256100  0.71993500  1
  O  O18  1  0.64106100  0.01667700  0.74688800  1
  O  O19  1  0.35893900  0.98332300  0.25311200  1
  O  O20  1  0.88256100  0.71993500  0.47569300  1
  O  O21  1  0.70783800  0.95530900  0.05790700  1
  O  O22  1  0.52430700  0.11743900  0.28006500  1
  O  O23  1  0.94209300  0.29216200  0.04469100  1
loop_
_geom_bond_atom_site_label_1
_geom_bond_atom_site_label_2
_geom_bond_distance
_geom_bond_site_symmetry_2
Fe0 O9 1.989583 1_556
Fe0 O6 1.989583 1_655
Fe0 O18 1.989583 1_565
Fe0 O16 2.060454 1_565
Fe0 O21 2.060454 1_556
Fe0 O14 2.060454 1_655
Fe1 O12 1.989583 1_554
Fe1 O15 1.989583 1_455
Fe1 O19 1.989583 1_545
Fe1 O8 2.060454 1_545
Fe1 O3 2.060454 1_554
Fe1 O23 2.060454 1_455
O0 P4 1.568018 1_555
O0 Sn0 2.089657 1_555
O0 Sr1 2.587753 1_555
O1 P3 1.568018 1_555
O1 Sn0 2.089657 1_555
O1 Sr1 2.587753 1_555
O2 P1 1.568018 1_555
O2 Sn0 2.089657 1_555
O2 Sr1 2.587753 1_555
O3 P2 1.538278 1_555
O3 Sr0 2.655936 1_556
O4 P0 1.556890 1_556
O4 Sn0 2.028489 1_555
O5 P3 1.556890 1_455
O5 Sn1 2.028489 1_555
O6 P5 1.526356 1_555
O7 P5 1.568018 1_555
O7 Sn1 2.089657 1_555
O7 Sr1 2.587753 1_555
O8 P5 1.538278 1_555
O8 Sr0 2.655937 1_565
O9 P0 1.526356 1_555
O10 P4 1.556890 1_554
O10 Sn1 2.028489 1_555
O11 P2 1.568018 1_555
O11 Sn1 2.089657 1_555
O11 Sr1 2.587753 1_555
O12 P4 1.526356 1_555
O13 P0 1.568018 1_555
O13 Sn1 2.089657 1_555
O13 Sr1 2.587753 1_555
O14 P4 1.538278 1_555
O14 Sr0 2.655937 1_566
O15 P3 1.526356 1_555
O16 P3 1.538278 1_555
O16 Sr0 2.655937 1_656
O17 P2 1.556890 1_565
O17 Sn0 2.028489 1_555
O18 P2 1.526356 1_555
O19 P1 1.526356 1_555
O20 P5 1.556890 1_655
O20 Sn0 2.028489 1_555
O21 P1 1.538278 1_555
O21 Sr0 2.655936 1_665
O22 P1 1.556890 1_545
O22 Sn1 2.028489 1_555
O23 P0 1.538278 1_555
O23 Sr0 2.655937 1_655
