# generated using pymatgen
data_Cd(BO2)2
_symmetry_space_group_name_H-M   'P 1'
_cell_length_a   7.80156062
_cell_length_b   7.80156062
_cell_length_c   7.80156083
_cell_angle_alpha   96.73042803
_cell_angle_beta   96.73042803
_cell_angle_gamma   96.73042075
_symmetry_Int_Tables_number   1
_chemical_formula_structural   Cd(BO2)2
_chemical_formula_sum   'Cd6 B12 O24'
_cell_volume   464.16960477
_cell_formula_units_Z   6
loop_
 _symmetry_equiv_pos_site_id
 _symmetry_equiv_pos_as_xyz
  1  'x, y, z'
loop_
 _atom_site_type_symbol
 _atom_site_label
 _atom_site_symmetry_multiplicity
 _atom_site_fract_x
 _atom_site_fract_y
 _atom_site_fract_z
 _atom_site_occupancy
  Cd  Cd0  1  0.83058400  0.19162200  0.48828900  1
  Cd  Cd1  1  0.69162200  0.33058400  0.98828900  1
  Cd  Cd2  1  0.98828900  0.69162200  0.33058400  1
  Cd  Cd3  1  0.19162200  0.48828900  0.83058400  1
  Cd  Cd4  1  0.48828900  0.83058400  0.19162200  1
  Cd  Cd5  1  0.33058400  0.98828900  0.69162200  1
  B  B0  1  0.81803500  0.00345000  0.05235700  1
  B  B1  1  0.80691200  0.56480600  0.71990000  1
  B  B2  1  0.50345000  0.31803500  0.55235700  1
  B  B3  1  0.21990000  0.06480600  0.30691200  1
  B  B4  1  0.30691200  0.21990000  0.06480600  1
  B  B5  1  0.55235700  0.50345000  0.31803500  1
  B  B6  1  0.00345000  0.05235700  0.81803500  1
  B  B7  1  0.71990000  0.80691200  0.56480600  1
  B  B8  1  0.56480600  0.71990000  0.80691200  1
  B  B9  1  0.31803500  0.55235700  0.50345000  1
  B  B10  1  0.06480600  0.30691200  0.21990000  1
  B  B11  1  0.05235700  0.81803500  0.00345000  1
  O  O0  1  0.86736600  0.09190300  0.91291300  1
  O  O1  1  0.69029000  0.05706200  0.13374400  1
  O  O2  1  0.93223600  0.39774500  0.23973300  1
  O  O3  1  0.89774500  0.43223600  0.73973300  1
  O  O4  1  0.55706200  0.19029000  0.63374400  1
  O  O5  1  0.32535000  0.09111200  0.17653900  1
  O  O6  1  0.59190300  0.36736600  0.41291300  1
  O  O7  1  0.39774500  0.23973300  0.93223600  1
  O  O8  1  0.82535000  0.67653900  0.59111200  1
  O  O9  1  0.63374400  0.55706200  0.19029000  1
  O  O10  1  0.67653900  0.59111200  0.82535000  1
  O  O11  1  0.91291300  0.86736600  0.09190300  1
  O  O12  1  0.36736600  0.41291300  0.59190300  1
  O  O13  1  0.09111200  0.17653900  0.32535000  1
  O  O14  1  0.05706200  0.13374400  0.69029000  1
  O  O15  1  0.17653900  0.32535000  0.09111200  1
  O  O16  1  0.73973300  0.89774500  0.43223600  1
  O  O17  1  0.41291300  0.59190300  0.36736600  1
  O  O18  1  0.59111200  0.82535000  0.67653900  1
  O  O19  1  0.43223600  0.73973300  0.89774500  1
  O  O20  1  0.19029000  0.63374400  0.55706200  1
  O  O21  1  0.13374400  0.69029000  0.05706200  1
  O  O22  1  0.23973300  0.93223600  0.39774500  1
  O  O23  1  0.09190300  0.91291300  0.86736600  1
loop_
_geom_bond_atom_site_label_1
_geom_bond_atom_site_label_2
_geom_bond_distance
_geom_bond_site_symmetry_2
Cd0 O16 2.293799 1_545
Cd0 O14 2.347429 1_655
Cd0 O6 2.494747 1_555
Cd0 O3 2.512326 1_555
Cd0 O13 2.527352 1_655
Cd0 O4 2.531107 1_555
Cd1 O7 2.293799 1_555
Cd1 O9 2.347429 1_556
Cd1 O0 2.494747 1_555
Cd1 O2 2.512326 1_556
Cd1 O10 2.527352 1_555
Cd1 O1 2.531107 1_556
Cd2 O2 2.293799 1_555
Cd2 O20 2.347429 1_655
Cd2 O11 2.494747 1_555
Cd2 O22 2.512326 1_655
Cd2 O8 2.527352 1_555
Cd2 O21 2.531107 1_655
Cd3 O3 2.293799 1_455
Cd3 O21 2.347429 1_556
Cd3 O12 2.494747 1_555
Cd3 O19 2.512326 1_555
Cd3 O15 2.527352 1_556
Cd3 O20 2.531107 1_555
Cd4 O19 2.293799 1_554
Cd4 O1 2.347429 1_565
Cd4 O17 2.494747 1_555
Cd4 O16 2.512326 1_555
Cd4 O5 2.527352 1_565
Cd4 O9 2.531107 1_555
Cd5 O22 2.293799 1_555
Cd5 O4 2.347429 1_565
Cd5 O23 2.494747 1_555
Cd5 O7 2.512326 1_565
Cd5 O18 2.527352 1_555
Cd5 O14 2.531107 1_565
B0 O1 1.324805 1_555
B0 O11 1.406293 1_545
B0 O0 1.421144 1_554
B1 O3 1.333938 1_555
B1 O10 1.399613 1_555
B1 O8 1.414154 1_555
B2 O4 1.324805 1_555
B2 O12 1.406293 1_555
B2 O6 1.421144 1_555
B3 O22 1.333938 1_545
B3 O5 1.399613 1_555
B3 O13 1.414154 1_555
B4 O7 1.333938 1_554
B4 O15 1.399613 1_555
B4 O5 1.414154 1_555
B5 O9 1.324805 1_555
B5 O6 1.406293 1_555
B5 O17 1.421144 1_555
B6 O14 1.324805 1_555
B6 O0 1.406293 1_455
B6 O23 1.421144 1_545
B7 O16 1.333938 1_555
B7 O8 1.399613 1_555
B7 O18 1.414154 1_555
B8 O19 1.333938 1_555
B8 O18 1.399613 1_555
B8 O10 1.414154 1_555
B9 O20 1.324805 1_555
B9 O17 1.406293 1_555
B9 O12 1.421144 1_555
B10 O2 1.333938 1_455
B10 O13 1.399613 1_555
B10 O15 1.414154 1_555
B11 O21 1.324805 1_555
B11 O23 1.406293 1_554
B11 O11 1.421144 1_455
