# generated using pymatgen
data_LiFe(Si2O5)2
_symmetry_space_group_name_H-M   'P 1'
_cell_length_a   4.85494600
_cell_length_b   7.15893100
_cell_length_c   11.44561100
_cell_angle_alpha   90.00000000
_cell_angle_beta   90.00000000
_cell_angle_gamma   90.00000000
_symmetry_Int_Tables_number   1
_chemical_formula_structural   LiFe(Si2O5)2
_chemical_formula_sum   'Li2 Fe2 Si8 O20'
_cell_volume   397.80621313
_cell_formula_units_Z   2
loop_
 _symmetry_equiv_pos_site_id
 _symmetry_equiv_pos_as_xyz
  1  'x, y, z'
loop_
 _atom_site_type_symbol
 _atom_site_label
 _atom_site_symmetry_multiplicity
 _atom_site_fract_x
 _atom_site_fract_y
 _atom_site_fract_z
 _atom_site_occupancy
  Li  Li0  1  0.50000000  0.50000000  0.27726000  1
  Li  Li1  1  0.50000000  0.00000000  0.77726000  1
  Fe  Fe0  1  0.00000000  0.50000000  0.38392700  1
  Fe  Fe1  1  0.00000000  0.00000000  0.88392700  1
  Si  Si0  1  0.03818200  0.21378900  0.16979600  1
  Si  Si1  1  0.03818200  0.28621100  0.66979600  1
  Si  Si2  1  0.45606900  0.71306600  0.01198200  1
  Si  Si3  1  0.45606900  0.78693400  0.51198200  1
  Si  Si4  1  0.54393100  0.21306600  0.51198200  1
  Si  Si5  1  0.54393100  0.28693400  0.01198200  1
  Si  Si6  1  0.96181800  0.71378900  0.66979600  1
  Si  Si7  1  0.96181800  0.78621100  0.16979600  1
  O  O0  1  0.00000000  0.00000000  0.21469600  1
  O  O1  1  0.00000000  0.50000000  0.71469600  1
  O  O2  1  0.23430500  0.20635600  0.05007600  1
  O  O3  1  0.23430500  0.29364400  0.55007600  1
  O  O4  1  0.17695400  0.15851700  0.77008200  1
  O  O5  1  0.17695400  0.34148300  0.27008200  1
  O  O6  1  0.31059700  0.65214500  0.41724900  1
  O  O7  1  0.31059700  0.84785500  0.91724900  1
  O  O8  1  0.26722000  0.70277100  0.13244200  1
  O  O9  1  0.26722000  0.79722900  0.63244200  1
  O  O10  1  0.50000000  0.50000000  0.96461700  1
  O  O11  1  0.50000000  0.00000000  0.46461700  1
  O  O12  1  0.73278000  0.20277100  0.63244200  1
  O  O13  1  0.73278000  0.29722900  0.13244200  1
  O  O14  1  0.68940300  0.34785500  0.41724900  1
  O  O15  1  0.68940300  0.15214500  0.91724900  1
  O  O16  1  0.82304600  0.84148300  0.77008200  1
  O  O17  1  0.82304600  0.65851700  0.27008200  1
  O  O18  1  0.76569500  0.70635600  0.55007600  1
  O  O19  1  0.76569500  0.79364400  0.05007600  1
loop_
_geom_bond_atom_site_label_1
_geom_bond_atom_site_label_2
_geom_bond_distance
_geom_bond_site_symmetry_2
Li0 O5 1.937611 1_555
Li0 O17 1.937611 1_555
Li0 O14 2.144560 1_555
Li0 O6 2.144560 1_555
Li0 O13 2.476252 1_555
Li0 O8 2.476252 1_555
Li1 O4 1.937611 1_555
Li1 O16 1.937611 1_545
Li1 O15 2.144560 1_555
Li1 O7 2.144560 1_545
Li1 O12 2.476252 1_555
Li1 O9 2.476252 1_545
Fe0 O14 1.898859 1_455
Fe0 O6 1.898859 1_555
Fe0 O5 1.929697 1_555
Fe0 O17 1.929697 1_455
Fe1 O7 1.898859 1_545
Fe1 O15 1.898859 1_455
Fe1 O16 1.929697 1_445
Fe1 O4 1.929697 1_555
O0 Si0 1.625083 1_555
O0 Si7 1.625083 1_445
O1 Si1 1.625083 1_555
O1 Si6 1.625083 1_455
O2 Si5 1.668090 1_555
O2 Si0 1.669458 1_555
O3 Si4 1.668090 1_555
O3 Si1 1.669458 1_555
O4 Si1 1.614655 1_555
O5 Si0 1.614655 1_555
O6 Si3 1.614180 1_555
O7 Si2 1.614180 1_556
O8 Si7 1.654701 1_455
O8 Si2 1.657398 1_555
O9 Si6 1.654701 1_455
O9 Si3 1.657398 1_555
O10 Si5 1.632789 1_556
O10 Si2 1.632789 1_556
O11 Si3 1.632789 1_545
O11 Si4 1.632789 1_555
O12 Si1 1.654701 1_655
O12 Si4 1.657398 1_555
O13 Si0 1.654701 1_655
O13 Si5 1.657398 1_555
O14 Si4 1.614180 1_555
O15 Si5 1.614180 1_556
O16 Si6 1.614655 1_555
O17 Si7 1.614655 1_555
O18 Si3 1.668090 1_555
O18 Si6 1.669458 1_555
O19 Si2 1.668090 1_555
O19 Si7 1.669458 1_555
