# generated using pymatgen
data_Li2FeCuO4
_symmetry_space_group_name_H-M   'P 1'
_cell_length_a   5.95397131
_cell_length_b   5.95400569
_cell_length_c   5.56778394
_cell_angle_alpha   117.87808606
_cell_angle_beta   117.87751767
_cell_angle_gamma   97.21384662
_symmetry_Int_Tables_number   1
_chemical_formula_structural   Li2FeCuO4
_chemical_formula_sum   'Li4 Fe2 Cu2 O8'
_cell_volume   138.45255382
_cell_formula_units_Z   2
loop_
 _symmetry_equiv_pos_site_id
 _symmetry_equiv_pos_as_xyz
  1  'x, y, z'
loop_
 _atom_site_type_symbol
 _atom_site_label
 _atom_site_symmetry_multiplicity
 _atom_site_fract_x
 _atom_site_fract_y
 _atom_site_fract_z
 _atom_site_occupancy
  Li  Li0  1  0.00065451  0.49939938  0.50016912  1
  Li  Li1  1  0.50012820  0.50000831  0.49996329  1
  Li  Li2  1  0.50060062  0.99934449  -0.00016912  1
  Li  Li3  1  0.49999169  0.49987180  0.00003771  1
  Fe  Fe0  1  -0.00011155  0.50015539  0.00002812  1
  Fe  Fe1  1  0.49984361  0.00011355  0.49997088  1
  Cu  Cu0  1  -0.00006071  -0.00000483  0.50006405  1
  Cu  Cu1  1  0.00000483  0.00006171  -0.00006405  1
  O  O0  1  0.26259624  0.73731605  0.01851631  1
  O  O1  1  0.27589157  0.20289610  0.48939235  1
  O  O2  1  0.26268394  0.73740476  0.48148469  1
  O  O3  1  0.79710490  0.72410843  0.01060765  1
  O  O4  1  0.20256620  0.27620292  0.98934239  1
  O  O5  1  0.73710890  0.26279803  0.51850769  1
  O  O6  1  0.72379608  0.79743380  0.51065760  1
  O  O7  1  0.73720196  0.26289011  0.98149231  1
loop_
_geom_bond_atom_site_label_1
_geom_bond_atom_site_label_2
_geom_bond_distance
_geom_bond_site_symmetry_2
Li0 O0 2.044720 1_556
Li0 O5 2.046053 1_455
Li0 O2 2.046294 1_555
Li0 O7 2.046772 1_454
Li0 O1 2.554438 1_555
Li0 O6 2.568509 1_455
Li1 O6 2.036653 1_555
Li1 O3 2.036868 1_556
Li1 O4 2.037434 1_554
Li1 O1 2.037481 1_555
Li1 O5 2.120582 1_555
Li1 O2 2.123425 1_555
Li2 O2 2.044715 1_554
Li2 O7 2.046054 1_564
Li2 O0 2.046292 1_555
Li2 O5 2.046771 1_565
Li2 O3 2.554438 1_555
Li2 O4 2.568509 1_564
Li3 O4 2.036648 1_554
Li3 O1 2.036868 1_554
Li3 O6 2.037427 1_555
Li3 O3 2.037486 1_555
Li3 O7 2.120585 1_554
Li3 O0 2.123419 1_555
Fe0 O0 1.899967 1_555
Fe0 O7 1.900080 1_454
Fe0 O2 1.900202 1_555
Fe0 O5 1.900424 1_454
Fe0 O4 1.906519 1_554
Fe0 O3 1.906984 1_455
Fe1 O2 1.899976 1_545
Fe1 O5 1.900069 1_555
Fe1 O0 1.900195 1_545
Fe1 O7 1.900425 1_555
Fe1 O6 1.906527 1_545
Fe1 O1 1.906975 1_555
Cu0 O4 1.954433 1_555
Cu0 O6 1.954603 1_445
Cu0 O3 1.954753 1_445
Cu0 O1 1.955093 1_555
Cu0 O2 2.348774 1_545
Cu0 O5 2.350056 1_455
Cu1 O6 1.954436 1_444
Cu1 O4 1.954598 1_554
Cu1 O1 1.954756 1_555
Cu1 O3 1.955098 1_445
Cu1 O0 2.348785 1_545
Cu1 O7 2.350048 1_454
