# generated using pymatgen
data_Li3Cr2(PO4)3
_symmetry_space_group_name_H-M   'P 1'
_cell_length_a   9.68065189
_cell_length_b   9.68065189
_cell_length_c   9.68750917
_cell_angle_alpha   86.46552405
_cell_angle_beta   86.46552405
_cell_angle_gamma   86.26946178
_symmetry_Int_Tables_number   1
_chemical_formula_structural   Li3Cr2(PO4)3
_chemical_formula_sum   'Li12 Cr8 P12 O48'
_cell_volume   902.70284850
_cell_formula_units_Z   4
loop_
 _symmetry_equiv_pos_site_id
 _symmetry_equiv_pos_as_xyz
  1  'x, y, z'
loop_
 _atom_site_type_symbol
 _atom_site_label
 _atom_site_symmetry_multiplicity
 _atom_site_fract_x
 _atom_site_fract_y
 _atom_site_fract_z
 _atom_site_occupancy
  Li  Li0  1  0.73219000  0.51778900  0.90469000  1
  Li  Li1  1  0.00296400  0.32365700  0.02643000  1
  Li  Li2  1  0.48221100  0.26781000  0.09531000  1
  Li  Li3  1  0.67634300  0.99703600  0.97357000  1
  Li  Li4  1  0.47473500  0.01436900  0.24718500  1
  Li  Li5  1  0.98563100  0.52526500  0.75281500  1
  Li  Li6  1  0.76635800  0.83740900  0.24977700  1
  Li  Li7  1  0.33472900  0.00851600  0.50759300  1
  Li  Li8  1  0.16259100  0.23364200  0.75022200  1
  Li  Li9  1  0.49305600  0.74047800  0.41129700  1
  Li  Li10  1  0.99148400  0.66527100  0.49240700  1
  Li  Li11  1  0.25952200  0.50694400  0.58870300  1
  Cr  Cr0  1  0.75087000  0.46782500  0.28334000  1
  Cr  Cr1  1  0.47138200  0.75226900  0.78181800  1
  Cr  Cr2  1  0.03358900  0.96641100  0.00000000  1
  Cr  Cr3  1  0.25119600  0.74880400  0.00000000  1
  Cr  Cr4  1  0.75054600  0.24945400  0.50000000  1
  Cr  Cr5  1  0.53217500  0.24913000  0.71666000  1
  Cr  Cr6  1  0.96769700  0.03230300  0.50000000  1
  Cr  Cr7  1  0.24773100  0.52861800  0.21818200  1
  P  P0  1  0.32857700  0.44793600  0.90124100  1
  P  P1  1  0.84819600  0.17407500  0.80341400  1
  P  P2  1  0.34878800  0.05158700  0.92045200  1
  P  P3  1  0.82592500  0.15180400  0.19658600  1
  P  P4  1  0.44871200  0.32286800  0.40265000  1
  P  P5  1  0.05202400  0.34823000  0.42556600  1
  P  P6  1  0.94841300  0.65121200  0.07954800  1
  P  P7  1  0.55206400  0.67142300  0.09875900  1
  P  P8  1  0.17712400  0.84316600  0.30217100  1
  P  P9  1  0.65177000  0.94797600  0.57443400  1
  P  P10  1  0.15683400  0.82287600  0.69782900  1
  P  P11  1  0.67713200  0.55128800  0.59735000  1
  O  O0  1  0.21003600  0.40443400  0.82053900  1
  O  O1  1  0.47313200  0.38332800  0.85587200  1
  O  O2  1  0.93113400  0.29197500  0.84544100  1
  O  O3  1  0.68940600  0.18885200  0.84075100  1
  O  O4  1  0.31477400  0.40940800  0.05956800  1
  O  O5  1  0.38959600  0.11733100  0.77472300  1
  O  O6  1  0.89233300  0.03048500  0.87081100  1
  O  O7  1  0.81114800  0.31059400  0.15924900  1
  O  O8  1  0.18997800  0.08921800  0.93565900  1
  O  O9  1  0.38226800  0.46637500  0.35474900  1
  O  O10  1  0.11066800  0.39602100  0.28017700  1
  O  O11  1  0.43702700  0.09323200  0.03388100  1
  O  O12  1  0.96951500  0.10766700  0.12918900  1
  O  O13  1  0.12213600  0.82809800  0.86115300  1
  O  O14  1  0.37909000  0.88735500  0.91807800  1
  O  O15  1  0.88678900  0.37913000  0.42039900  1
  O  O16  1  0.61280700  0.33288800  0.37213800  1
  O  O17  1  0.70802500  0.06886600  0.15455900  1
  O  O18  1  0.41159700  0.20055300  0.32495800  1
  O  O19  1  0.09236200  0.43445000  0.54203600  1
  O  O20  1  0.83353200  0.12275500  0.35969500  1
  O  O21  1  0.66711200  0.38719300  0.62786200  1
  O  O22  1  0.91078200  0.81002200  0.06434100  1
  O  O23  1  0.59059200  0.68522600  0.94043200  1
  O  O24  1  0.40874400  0.31381900  0.56146500  1
  O  O25  1  0.08923700  0.19194400  0.45241000  1
  O  O26  1  0.33284200  0.61168000  0.86988400  1
  O  O27  1  0.17190200  0.87786400  0.13884700  1
  O  O28  1  0.90676800  0.56297300  0.96611900  1
  O  O29  1  0.59556600  0.78996400  0.17946100  1
  O  O30  1  0.30498700  0.90681800  0.34849900  1
  O  O31  1  0.11264500  0.62091000  0.08192200  1
  O  O32  1  0.38832000  0.66715800  0.13011600  1
  O  O33  1  0.62087000  0.11321100  0.57960100  1
  O  O34  1  0.87724500  0.16646800  0.64030500  1
  O  O35  1  0.03498000  0.89592500  0.36641500  1
  O  O36  1  0.56555000  0.90763800  0.45796400  1
  O  O37  1  0.61667200  0.52686800  0.14412800  1
  O  O38  1  0.88266900  0.61040400  0.22527700  1
  O  O39  1  0.80805600  0.91076300  0.54759000  1
  O  O40  1  0.18110400  0.68378700  0.33915600  1
  O  O41  1  0.10407500  0.96502000  0.63358500  1
  O  O42  1  0.60397900  0.88933200  0.71982300  1
  O  O43  1  0.68618100  0.59125600  0.43853500  1
  O  O44  1  0.31621300  0.81889600  0.66084400  1
  O  O45  1  0.09318200  0.69501300  0.65150100  1
  O  O46  1  0.53362500  0.61773200  0.64525100  1
  O  O47  1  0.79944700  0.58840300  0.67504200  1
loop_
_geom_bond_atom_site_label_1
_geom_bond_atom_site_label_2
_geom_bond_distance
_geom_bond_site_symmetry_2
Li0 O28 1.911533 1_555
Li0 O23 2.085124 1_555
Li0 O47 2.352103 1_555
Li0 O37 2.516180 1_556
Li1 O2 1.973867 1_454
Li1 O7 2.198988 1_455
Li1 O12 2.293362 1_455
Li1 O28 2.489032 1_454
Li2 O11 1.911533 1_555
Li2 O4 2.085124 1_555
Li2 O18 2.352103 1_555
Li2 O1 2.516180 1_554
Li3 O17 1.973867 1_566
Li3 O3 2.198988 1_565
Li3 O6 2.293362 1_565
Li3 O11 2.489032 1_566
Li4 O18 2.038902 1_555
Li4 O30 2.155330 1_545
Li4 O11 2.201880 1_555
Li4 O36 2.419280 1_545
Li4 O17 2.455744 1_555
Li4 O29 2.503676 1_545
Li5 O47 2.038902 1_555
Li5 O45 2.155330 1_655
Li5 O28 2.201880 1_555
Li5 O19 2.419280 1_655
Li5 O2 2.455744 1_555
Li5 O0 2.503676 1_655
Li6 O29 1.919607 1_555
Li6 O22 2.225520 1_555
Li6 O17 2.415580 1_565
Li6 O38 2.421314 1_555
Li7 O30 1.925150 1_545
Li7 O44 2.297784 1_545
Li7 O36 2.412319 1_545
Li7 O41 2.525024 1_545
Li7 O18 2.598511 1_555
Li8 O0 1.919611 1_555
Li8 O8 2.225527 1_555
Li8 O2 2.415583 1_455
Li8 O5 2.421315 1_555
Li9 O36 1.895421 1_555
Li9 O43 2.305233 1_555
Li9 O30 2.431475 1_555
Li9 O29 2.431627 1_555
Li9 O46 2.533749 1_555
Li10 O45 1.925150 1_655
Li10 O40 2.297784 1_655
Li10 O19 2.412319 1_655
Li10 O35 2.525024 1_655
Li10 O47 2.598511 1_555
Li11 O19 1.895421 1_555
Li11 O24 2.305233 1_555
Li11 O45 2.431475 1_555
Li11 O0 2.431627 1_555
Li11 O9 2.533749 1_555
Cr0 O37 1.964063 1_555
Cr0 O38 1.973417 1_555
Cr0 O43 2.021966 1_555
Cr0 O7 2.031244 1_555
Cr0 O15 2.039436 1_555
Cr0 O16 2.044402 1_555
Cr1 O42 1.948658 1_555
Cr1 O46 1.954913 1_555
Cr1 O44 2.010882 1_555
Cr1 O23 2.027878 1_555
Cr1 O14 2.041132 1_555
Cr1 O26 2.081379 1_555
Cr2 O12 1.955988 1_465
Cr2 O6 1.955988 1_464
Cr2 O22 2.029879 1_455
Cr2 O8 2.029879 1_564
Cr2 O27 2.065764 1_555
Cr2 O13 2.065764 1_554
Cr3 O27 1.978521 1_555
Cr3 O13 1.978521 1_554
Cr3 O26 1.980564 1_554
Cr3 O32 1.980564 1_555
Cr3 O14 1.981263 1_554
Cr3 O31 1.981263 1_555
Cr4 O15 1.969973 1_555
Cr4 O33 1.969973 1_555
Cr4 O21 1.976049 1_555
Cr4 O16 1.976049 1_555
Cr4 O20 1.984917 1_555
Cr4 O34 1.984917 1_555
Cr5 O1 1.964063 1_555
Cr5 O5 1.973417 1_555
Cr5 O24 2.021966 1_555
Cr5 O3 2.031244 1_555
Cr5 O33 2.039436 1_555
Cr5 O21 2.044402 1_555
Cr6 O41 1.958772 1_645
Cr6 O35 1.958772 1_645
Cr6 O25 2.016715 1_655
Cr6 O39 2.016715 1_545
Cr6 O20 2.055236 1_555
Cr6 O34 2.055236 1_555
Cr7 O10 1.948658 1_555
Cr7 O9 1.954913 1_555
Cr7 O40 2.010882 1_555
Cr7 O4 2.027878 1_555
Cr7 O31 2.041132 1_555
Cr7 O32 2.081379 1_555
O0 P0 1.523004 1_555
O1 P0 1.544929 1_555
O2 P1 1.526409 1_555
O3 P1 1.556746 1_555
O4 P0 1.555690 1_554
O5 P2 1.551559 1_555
O6 P1 1.544761 1_555
O7 P3 1.556746 1_555
O8 P2 1.556848 1_555
O9 P4 1.549224 1_555
O10 P5 1.541213 1_555
O11 P2 1.521458 1_554
O12 P3 1.544761 1_555
O13 P10 1.600273 1_555
O14 P2 1.599144 1_565
O15 P5 1.611338 1_655
O16 P4 1.605890 1_555
O17 P3 1.526409 1_555
O18 P4 1.515328 1_555
O19 P5 1.528097 1_555
O20 P3 1.593156 1_555
O21 P11 1.605890 1_555
O22 P6 1.556848 1_555
O23 P7 1.555690 1_556
O24 P4 1.561673 1_555
O25 P5 1.542251 1_555
O26 P0 1.598211 1_555
O27 P8 1.600273 1_555
O28 P6 1.521458 1_556
O29 P7 1.523004 1_555
O30 P8 1.521547 1_555
O31 P6 1.599144 1_455
O32 P7 1.598211 1_555
O33 P9 1.611338 1_545
O34 P1 1.593156 1_555
O35 P8 1.543970 1_555
O36 P9 1.528097 1_555
O37 P7 1.544929 1_555
O38 P6 1.551559 1_555
O39 P9 1.542251 1_555
O40 P8 1.560827 1_555
O41 P10 1.543970 1_555
O42 P9 1.541213 1_555
O43 P11 1.561673 1_555
O44 P10 1.560827 1_555
O45 P10 1.521547 1_555
O46 P11 1.549224 1_555
O47 P11 1.515328 1_555
