# generated using pymatgen
data_NaMo4C4NO14
_symmetry_space_group_name_H-M   'P 1'
_cell_length_a   9.92329245
_cell_length_b   9.92329245
_cell_length_c   9.74136004
_cell_angle_alpha   80.63354368
_cell_angle_beta   80.63354368
_cell_angle_gamma   114.55047772
_symmetry_Int_Tables_number   1
_chemical_formula_structural   NaMo4C4NO14
_chemical_formula_sum   'Na2 Mo8 C8 N2 O28'
_cell_volume   832.05050184
_cell_formula_units_Z   2
loop_
 _symmetry_equiv_pos_site_id
 _symmetry_equiv_pos_as_xyz
  1  'x, y, z'
loop_
 _atom_site_type_symbol
 _atom_site_label
 _atom_site_symmetry_multiplicity
 _atom_site_fract_x
 _atom_site_fract_y
 _atom_site_fract_z
 _atom_site_occupancy
  Na  Na0  1  0.65544100  0.34455900  0.00000000  1
  Na  Na1  1  0.34455900  0.65544100  0.00000000  1
  Mo  Mo0  1  0.30497300  0.02583300  0.88906600  1
  Mo  Mo1  1  0.02583300  0.30497300  0.88906600  1
  Mo  Mo2  1  0.69502700  0.97416700  0.11093400  1
  Mo  Mo3  1  0.97416700  0.69502700  0.11093400  1
  Mo  Mo4  1  0.75967900  0.75967900  0.36896600  1
  Mo  Mo5  1  0.24032100  0.24032100  0.63103400  1
  Mo  Mo6  1  0.08627200  0.08627200  0.13610000  1
  Mo  Mo7  1  0.91372800  0.91372800  0.86390000  1
  C  C0  1  0.10733400  0.69028900  0.61594300  1
  C  C1  1  0.69028900  0.10733400  0.61594300  1
  C  C2  1  0.89266600  0.30971100  0.38405700  1
  C  C3  1  0.30971100  0.89266600  0.38405700  1
  C  C4  1  0.30374400  0.73878600  0.42270700  1
  C  C5  1  0.73878600  0.30374400  0.42270700  1
  C  C6  1  0.69625600  0.26121400  0.57729300  1
  C  C7  1  0.26121400  0.69625600  0.57729300  1
  N  N0  1  0.18787600  0.81212400  0.50000000  1
  N  N1  1  0.81212400  0.18787600  0.50000000  1
  O  O0  1  0.12983800  0.12983800  0.90695700  1
  O  O1  1  0.87016200  0.87016200  0.09304300  1
  O  O2  1  0.60344100  0.60344100  0.34841000  1
  O  O3  1  0.39655900  0.39655900  0.65159000  1
  O  O4  1  0.73224500  0.73224500  0.55212600  1
  O  O5  1  0.26775500  0.26775500  0.44787400  1
  O  O6  1  0.97740300  0.97740300  0.31669500  1
  O  O7  1  0.02259700  0.02259700  0.68330500  1
  O  O8  1  0.24021400  0.24021400  0.15395300  1
  O  O9  1  0.75978600  0.75978600  0.84604700  1
  O  O10  1  0.17790400  0.94840000  0.09521100  1
  O  O11  1  0.94840000  0.17790400  0.09521100  1
  O  O12  1  0.82209600  0.05160000  0.90478900  1
  O  O13  1  0.05160000  0.82209600  0.90478900  1
  O  O14  1  0.46019500  0.18514200  0.90484800  1
  O  O15  1  0.18514200  0.46019500  0.90484800  1
  O  O16  1  0.53980500  0.81485800  0.09515200  1
  O  O17  1  0.81485800  0.53980500  0.09515200  1
  O  O18  1  0.91347800  0.68939900  0.30985100  1
  O  O19  1  0.68939900  0.91347800  0.30985100  1
  O  O20  1  0.08652200  0.31060100  0.69014900  1
  O  O21  1  0.31060100  0.08652200  0.69014900  1
  O  O22  1  0.36867700  0.88807300  0.88015600  1
  O  O23  1  0.88807300  0.36867700  0.88015600  1
  O  O24  1  0.63132300  0.11192700  0.11984400  1
  O  O25  1  0.11192700  0.63132300  0.11984400  1
  O  O26  1  0.50687200  0.50687200  0.06072300  1
  O  O27  1  0.49312800  0.49312800  0.93927700  1
loop_
_geom_bond_atom_site_label_1
_geom_bond_atom_site_label_2
_geom_bond_distance
_geom_bond_site_symmetry_2
Na0 O24 2.306943 1_555
Na0 O23 2.306943 1_554
Na0 O17 2.372847 1_555
Na0 O14 2.372847 1_554
Na0 O27 2.667821 1_554
Na0 O26 2.667821 1_555
Na1 O22 2.306943 1_554
Na1 O25 2.306943 1_555
Na1 O16 2.372847 1_555
Na1 O15 2.372847 1_554
Na1 O27 2.667821 1_554
Na1 O26 2.667821 1_555
Mo0 O22 1.736321 1_545
Mo0 O14 1.740129 1_555
Mo0 O21 1.917695 1_555
Mo0 O10 2.020248 1_546
Mo0 O0 2.359315 1_555
Mo0 O13 2.445875 1_545
Mo1 O23 1.736321 1_455
Mo1 O15 1.740129 1_555
Mo1 O20 1.917695 1_555
Mo1 O11 2.020248 1_456
Mo1 O0 2.359315 1_555
Mo1 O12 2.445875 1_455
Mo2 O24 1.736321 1_565
Mo2 O16 1.740129 1_555
Mo2 O19 1.917695 1_555
Mo2 O12 2.020248 1_564
Mo2 O1 2.359315 1_555
Mo2 O11 2.445875 1_565
Mo3 O25 1.736321 1_655
Mo3 O17 1.740129 1_555
Mo3 O18 1.917695 1_555
Mo3 O13 2.020248 1_654
Mo3 O1 2.359315 1_555
Mo3 O10 2.445875 1_655
Mo4 O4 1.718691 1_555
Mo4 O2 1.747050 1_555
Mo4 O18 1.968857 1_555
Mo4 O19 1.968857 1_555
Mo4 O6 2.236058 1_555
Mo4 O1 2.590633 1_555
Mo5 O5 1.718691 1_555
Mo5 O3 1.747050 1_555
Mo5 O20 1.968857 1_555
Mo5 O21 1.968857 1_555
Mo5 O7 2.236058 1_555
Mo5 O0 2.590633 1_555
Mo6 O8 1.712073 1_555
Mo6 O6 1.795009 1_445
Mo6 O11 1.987601 1_455
Mo6 O10 1.987601 1_545
Mo6 O0 2.138418 1_554
Mo6 O1 2.477446 1_445
Mo7 O9 1.712073 1_555
Mo7 O7 1.795009 1_665
Mo7 O12 1.987601 1_565
Mo7 O13 1.987601 1_655
Mo7 O1 2.138418 1_556
Mo7 O0 2.477446 1_665
C0 N0 1.354568 1_555
C0 C7 1.485750 1_555
C1 N1 1.354568 1_555
C1 C6 1.485750 1_555
C2 N1 1.354568 1_555
C2 C5 1.485750 1_555
C3 N0 1.354568 1_555
C3 C4 1.485750 1_555
C4 C7 1.436021 1_555
C4 N0 1.735073 1_555
C5 C6 1.436021 1_555
C5 N1 1.735073 1_555
C6 N1 1.735073 1_555
C7 N0 1.735073 1_555
O26 O27 1.235471 1_554
