# generated using pymatgen
data_Li3CaPCO7
_symmetry_space_group_name_H-M   'P 1'
_cell_length_a   6.95336500
_cell_length_b   4.92766900
_cell_length_c   8.92130820
_cell_angle_alpha   85.90884521
_cell_angle_beta   90.00000000
_cell_angle_gamma   90.00000000
_symmetry_Int_Tables_number   1
_chemical_formula_structural   Li3CaPCO7
_chemical_formula_sum   'Li6 Ca2 P2 C2 O14'
_cell_volume   304.89971626
_cell_formula_units_Z   2
loop_
 _symmetry_equiv_pos_site_id
 _symmetry_equiv_pos_as_xyz
  1  'x, y, z'
loop_
 _atom_site_type_symbol
 _atom_site_label
 _atom_site_symmetry_multiplicity
 _atom_site_fract_x
 _atom_site_fract_y
 _atom_site_fract_z
 _atom_site_occupancy
  Li  Li0  1  0.75000000  0.25557300  0.92199000  1
  Li  Li1  1  0.95037900  0.76803300  0.73781200  1
  Li  Li2  1  0.54962100  0.76803300  0.73781200  1
  Li  Li3  1  0.45037900  0.23196700  0.26218800  1
  Li  Li4  1  0.04962100  0.23196700  0.26218800  1
  Li  Li5  1  0.25000000  0.74442700  0.07801000  1
  Ca  Ca0  1  0.25000000  0.23792900  0.65072300  1
  Ca  Ca1  1  0.75000000  0.76207100  0.34927700  1
  P  P0  1  0.75000000  0.28730900  0.59966200  1
  P  P1  1  0.25000000  0.71269100  0.40033800  1
  C  C0  1  0.25000000  0.28400400  0.96346500  1
  C  C1  1  0.75000000  0.71599600  0.03653500  1
  O  O0  1  0.25000000  0.03803700  0.92190000  1
  O  O1  1  0.75000000  0.66835000  0.89360400  1
  O  O2  1  0.25000000  0.49098300  0.86495600  1
  O  O3  1  0.92776000  0.16940200  0.68778200  1
  O  O4  1  0.57224000  0.16940200  0.68778200  1
  O  O5  1  0.75000000  0.60456900  0.60130500  1
  O  O6  1  0.25000000  0.77631900  0.56946700  1
  O  O7  1  0.75000000  0.22368100  0.43053300  1
  O  O8  1  0.25000000  0.39543100  0.39869500  1
  O  O9  1  0.42776000  0.83059800  0.31221800  1
  O  O10  1  0.07224000  0.83059800  0.31221800  1
  O  O11  1  0.75000000  0.50901700  0.13504400  1
  O  O12  1  0.25000000  0.33165000  0.10639600  1
  O  O13  1  0.75000000  0.96196300  0.07810000  1
loop_
_geom_bond_atom_site_label_1
_geom_bond_atom_site_label_2
_geom_bond_distance
_geom_bond_site_symmetry_2
Li0 O13 1.935299 1_546
Li0 O1 2.031725 1_555
Li0 O11 2.347588 1_556
Li0 O4 2.490068 1_555
Li0 O3 2.490068 1_555
Li1 O3 2.002433 1_565
Li1 O1 2.004223 1_555
Li1 O5 2.052606 1_555
Li1 O6 2.566893 1_655
Li2 O4 2.002433 1_565
Li2 O1 2.004223 1_555
Li2 O5 2.052606 1_555
Li2 O6 2.566893 1_555
Li3 O9 2.002433 1_545
Li3 O12 2.004223 1_555
Li3 O8 2.052606 1_555
Li3 O7 2.566893 1_555
Li4 O10 2.002433 1_545
Li4 O12 2.004223 1_555
Li4 O8 2.052606 1_555
Li4 O7 2.566893 1_455
Li5 O0 1.935299 1_564
Li5 O12 2.031725 1_555
Li5 O2 2.347588 1_554
Li5 O9 2.490068 1_555
Li5 O10 2.490068 1_555
Ca0 O4 2.286466 1_555
Ca0 O3 2.286466 1_455
Ca0 O8 2.325673 1_555
Ca0 O2 2.355380 1_555
Ca0 O6 2.436156 1_545
Ca0 O0 2.546173 1_555
Ca0 O6 2.699913 1_555
Ca1 O9 2.286466 1_555
Ca1 O10 2.286466 1_655
Ca1 O5 2.325673 1_555
Ca1 O11 2.355380 1_555
Ca1 O7 2.436156 1_565
Ca1 O13 2.546173 1_555
Ca1 O7 2.699913 1_555
C0 O0 1.292549 1_555
C0 O2 1.297956 1_555
C0 O12 1.312936 1_556
C1 O13 1.292549 1_555
C1 O11 1.297956 1_555
C1 O1 1.312936 1_554
O3 P0 1.555053 1_555
O4 P0 1.555053 1_555
O5 P0 1.564466 1_555
O6 P1 1.562832 1_555
O7 P0 1.562832 1_555
O8 P1 1.564466 1_555
O9 P1 1.555053 1_555
O10 P1 1.555053 1_555
