# generated using pymatgen
data_Fe5O3F7
_symmetry_space_group_name_H-M   'P 1'
_cell_length_a   4.82493200
_cell_length_b   4.83426700
_cell_length_c   16.36254810
_cell_angle_alpha   73.01393963
_cell_angle_beta   90.00000000
_cell_angle_gamma   90.00000000
_symmetry_Int_Tables_number   1
_chemical_formula_structural   Fe5O3F7
_chemical_formula_sum   'Fe10 O6 F14'
_cell_volume   365.00714981
_cell_formula_units_Z   2
loop_
 _symmetry_equiv_pos_site_id
 _symmetry_equiv_pos_as_xyz
  1  'x, y, z'
loop_
 _atom_site_type_symbol
 _atom_site_label
 _atom_site_symmetry_multiplicity
 _atom_site_fract_x
 _atom_site_fract_y
 _atom_site_fract_z
 _atom_site_occupancy
  Fe  Fe0  1  0.24550300  0.00340200  0.00047200  1
  Fe  Fe1  1  0.25992100  0.17141000  0.80599900  1
  Fe  Fe2  1  0.27066700  0.37627400  0.59998500  1
  Fe  Fe3  1  0.22758200  0.64947200  0.39277600  1
  Fe  Fe4  1  0.27566700  0.82331800  0.19824800  1
  Fe  Fe5  1  0.77241800  0.64947200  0.89277600  1
  Fe  Fe6  1  0.75449700  0.00340200  0.50047200  1
  Fe  Fe7  1  0.72433300  0.82331800  0.69824800  1
  Fe  Fe8  1  0.74007900  0.17141000  0.30599900  1
  Fe  Fe9  1  0.72933300  0.37627400  0.09998500  1
  O  O0  1  0.42927500  0.88537000  0.29896500  1
  O  O1  1  0.42451900  0.07781200  0.09641800  1
  O  O2  1  0.94064700  0.90101800  0.40938100  1
  O  O3  1  0.57072500  0.88537000  0.79896500  1
  O  O4  1  0.57548100  0.07781200  0.59641800  1
  O  O5  1  0.05935300  0.90101800  0.90938100  1
  F  F0  1  0.46561800  0.30668800  0.90817200  1
  F  F1  1  0.45697400  0.49357000  0.70134700  1
  F  F2  1  0.44775400  0.70497000  0.49588100  1
  F  F3  1  0.94872400  0.31436400  0.99392300  1
  F  F4  1  0.95320000  0.50893300  0.79789500  1
  F  F5  1  0.95030500  0.69568600  0.60173500  1
  F  F6  1  0.94909800  0.08771300  0.19880100  1
  F  F7  1  0.55224600  0.70497000  0.99588100  1
  F  F8  1  0.53438200  0.30668800  0.40817200  1
  F  F9  1  0.54302600  0.49357000  0.20134700  1
  F  F10  1  0.05127600  0.31436400  0.49392300  1
  F  F11  1  0.05090200  0.08771300  0.69880100  1
  F  F12  1  0.04969500  0.69568600  0.10173500  1
  F  F13  1  0.04680000  0.50893300  0.29789500  1
loop_
_geom_bond_atom_site_label_1
_geom_bond_atom_site_label_2
_geom_bond_distance
_geom_bond_site_symmetry_2
Fe0 O1 1.915739 1_555
Fe0 O5 1.924639 1_544
Fe1 O5 2.052969 1_545
Fe1 O3 2.065715 1_545
Fe2 O4 2.073015 1_555
Fe3 O0 1.892338 1_555
Fe3 O2 1.913713 1_455
Fe4 O1 1.899455 1_565
Fe4 O0 1.908923 1_555
Fe5 O3 1.892338 1_555
Fe5 O5 1.913713 1_655
Fe6 O4 1.915739 1_555
Fe6 O2 1.924639 1_545
Fe7 O4 1.899455 1_565
Fe7 O3 1.908923 1_555
Fe8 O2 2.052969 1_545
Fe8 O0 2.065715 1_545
Fe9 O1 2.073015 1_555
F0 Fe0 2.065115 1_556
F0 Fe5 2.181014 1_555
F0 Fe1 2.201461 1_555
F1 Fe7 2.039739 1_555
F1 Fe2 2.104718 1_555
F1 Fe1 2.168758 1_555
F2 Fe3 2.076325 1_555
F2 Fe6 2.083456 1_565
F2 Fe2 2.138950 1_555
F3 Fe0 2.056123 1_656
F3 Fe5 2.126171 1_555
F3 Fe9 2.127284 1_556
F4 Fe5 2.061297 1_555
F4 Fe7 2.177122 1_555
F4 Fe1 2.177995 1_655
F5 Fe6 2.100173 1_565
F5 Fe7 2.152354 1_555
F5 Fe2 2.190944 1_655
F6 Fe4 2.030583 1_645
F6 Fe9 2.089682 1_555
F6 Fe8 2.161501 1_555
F7 Fe5 2.076325 1_555
F7 Fe0 2.083456 1_566
F7 Fe9 2.138950 1_556
F8 Fe6 2.065115 1_555
F8 Fe3 2.181014 1_555
F8 Fe8 2.201461 1_555
F9 Fe4 2.039739 1_555
F9 Fe9 2.104718 1_555
F9 Fe8 2.168758 1_555
F10 Fe6 2.056123 1_455
F10 Fe3 2.126171 1_555
F10 Fe2 2.127284 1_555
F11 Fe7 2.030583 1_445
F11 Fe2 2.089682 1_555
F11 Fe1 2.161501 1_555
F12 Fe0 2.100173 1_565
F12 Fe4 2.152354 1_555
F12 Fe9 2.190944 1_455
F13 Fe3 2.061297 1_555
F13 Fe4 2.177122 1_555
F13 Fe8 2.177995 1_455
