# generated using pymatgen
data_V2OF5
_symmetry_space_group_name_H-M   'P 1'
_cell_length_a   5.06356600
_cell_length_b   4.71597100
_cell_length_c   18.04241585
_cell_angle_alpha   74.83782427
_cell_angle_beta   90.00000000
_cell_angle_gamma   90.00000000
_symmetry_Int_Tables_number   1
_chemical_formula_structural   V2OF5
_chemical_formula_sum   'V8 O4 F20'
_cell_volume   415.84819412
_cell_formula_units_Z   4
loop_
 _symmetry_equiv_pos_site_id
 _symmetry_equiv_pos_as_xyz
  1  'x, y, z'
loop_
 _atom_site_type_symbol
 _atom_site_label
 _atom_site_symmetry_multiplicity
 _atom_site_fract_x
 _atom_site_fract_y
 _atom_site_fract_z
 _atom_site_occupancy
  V  V0  1  0.46997900  0.73508900  0.28848500  1
  V  V1  1  0.00163900  0.28697100  0.71268600  1
  V  V2  1  0.99836100  0.28697100  0.21268600  1
  V  V3  1  0.01742600  0.91475500  0.55675600  1
  V  V4  1  0.50977900  0.05304900  0.45085000  1
  V  V5  1  0.53002100  0.73508900  0.78848500  1
  V  V6  1  0.98257400  0.91475500  0.05675600  1
  V  V7  1  0.49022100  0.05304900  0.95085000  1
  O  O0  1  0.20555600  0.95974200  0.28115900  1
  O  O1  1  0.11275200  0.61914700  0.62588400  1
  O  O2  1  0.88724800  0.61914700  0.12588400  1
  O  O3  1  0.79444400  0.95974200  0.78115900  1
  F  F0  1  0.68245500  0.17846200  0.03564300  1
  F  F1  1  0.64396000  0.87038400  0.37104100  1
  F  F2  1  0.13471200  0.12831100  0.12603900  1
  F  F3  1  0.68330200  0.02485400  0.21408000  1
  F  F4  1  0.16992200  0.24002600  0.96989600  1
  F  F5  1  0.67515800  0.53474700  0.71488100  1
  F  F6  1  0.67953500  0.74478600  0.53525000  1
  F  F7  1  0.18196800  0.81833900  0.46653900  1
  F  F8  1  0.19870300  0.47047400  0.78273200  1
  F  F9  1  0.63609800  0.39201700  0.87015600  1
  F  F10  1  0.83007800  0.24002600  0.46989600  1
  F  F11  1  0.32484200  0.53474700  0.21488100  1
  F  F12  1  0.31754500  0.17846200  0.53564300  1
  F  F13  1  0.32046500  0.74478600  0.03525000  1
  F  F14  1  0.80129700  0.47047400  0.28273200  1
  F  F15  1  0.36390200  0.39201700  0.37015600  1
  F  F16  1  0.35604000  0.87038400  0.87104100  1
  F  F17  1  0.86528800  0.12831100  0.62603900  1
  F  F18  1  0.31669800  0.02485400  0.71408000  1
  F  F19  1  0.81803200  0.81833900  0.96653900  1
loop_
_geom_bond_atom_site_label_1
_geom_bond_atom_site_label_2
_geom_bond_distance
_geom_bond_site_symmetry_2
O0 V0 1.690971 1_555
O0 V2 2.002783 1_465
O1 V3 1.680029 1_555
O1 V1 1.984925 1_555
O2 V6 1.680029 1_555
O2 V2 1.984925 1_555
O3 V5 1.690971 1_555
O3 V1 2.002783 1_665
F0 V6 1.937350 1_545
F0 V7 2.027589 1_554
F1 V0 1.974586 1_555
F1 V4 1.981423 1_565
F2 V6 1.956755 1_445
F2 V2 2.022969 1_455
F3 V0 1.968934 1_545
F3 V2 2.014312 1_555
F4 V7 1.919515 1_555
F4 V6 2.109850 1_446
F5 V5 1.962819 1_555
F5 V1 2.030791 1_655
F6 V3 1.970549 1_655
F6 V4 2.003275 1_565
F7 V4 1.973997 1_565
F7 V3 1.984337 1_555
F8 V1 1.978359 1_555
F8 V5 2.109583 1_555
F9 V5 1.957134 1_555
F9 V7 2.000812 1_555
F10 V4 1.919515 1_555
F10 V3 2.109850 1_645
F11 V0 1.962819 1_555
F11 V2 2.030791 1_455
F12 V3 1.937350 1_545
F12 V4 2.027589 1_555
F13 V6 1.970549 1_455
F13 V7 2.003275 1_564
F14 V2 1.978359 1_555
F14 V0 2.109583 1_555
F15 V0 1.957134 1_555
F15 V4 2.000812 1_555
F16 V5 1.974586 1_555
F16 V7 1.981423 1_565
F17 V3 1.956755 1_645
F17 V1 2.022969 1_655
F18 V5 1.968934 1_545
F18 V1 2.014312 1_555
F19 V7 1.973997 1_565
F19 V6 1.984337 1_556
