# generated using pymatgen
data_Cr3(PO4)4
_symmetry_space_group_name_H-M   'P 1'
_cell_length_a   7.75141900
_cell_length_b   8.79639526
_cell_length_c   13.16309602
_cell_angle_alpha   85.42595002
_cell_angle_beta   89.53649144
_cell_angle_gamma   89.63015794
_symmetry_Int_Tables_number   1
_chemical_formula_structural   Cr3(PO4)4
_chemical_formula_sum   'Cr9 P12 O48'
_cell_volume   894.61673510
_cell_formula_units_Z   3
loop_
 _symmetry_equiv_pos_site_id
 _symmetry_equiv_pos_as_xyz
  1  'x, y, z'
loop_
 _atom_site_type_symbol
 _atom_site_label
 _atom_site_symmetry_multiplicity
 _atom_site_fract_x
 _atom_site_fract_y
 _atom_site_fract_z
 _atom_site_occupancy
  Cr  Cr0  1  0.52440400  0.67375000  0.83406700  1
  Cr  Cr1  1  0.85806400  0.09437600  0.49783500  1
  Cr  Cr2  1  0.49244600  0.34089400  0.17138200  1
  Cr  Cr3  1  0.63700500  0.92773800  0.16375700  1
  Cr  Cr4  1  0.02426400  0.82769900  0.16273700  1
  Cr  Cr5  1  0.99865000  0.16052000  0.82816700  1
  Cr  Cr6  1  0.47143500  0.99448100  0.49984600  1
  Cr  Cr7  1  0.99961300  0.50588800  0.50303400  1
  Cr  Cr8  1  0.13969200  0.57288800  0.83547400  1
  P  P0  1  0.78479900  0.80761800  0.38934800  1
  P  P1  1  0.21021700  0.86049900  0.94434000  1
  P  P2  1  0.19362600  0.19773500  0.61387600  1
  P  P3  1  0.82371000  0.14507600  0.05190400  1
  P  P4  1  0.29805200  0.03018500  0.28086400  1
  P  P5  1  0.71099000  0.64013000  0.05321300  1
  P  P6  1  0.80421800  0.47038000  0.71808400  1
  P  P7  1  0.70109100  0.98193300  0.72311300  1
  P  P8  1  0.67302700  0.31110300  0.38602200  1
  P  P9  1  0.29768800  0.68492700  0.60971200  1
  P  P10  1  0.19200400  0.52074900  0.28104900  1
  P  P11  1  0.32383500  0.35678600  0.94818900  1
  O  O0  1  0.86304800  0.30389400  0.43931100  1
  O  O1  1  0.85590500  0.30193200  0.74402700  1
  O  O2  1  0.93889600  0.57671500  0.76323100  1
  O  O3  1  0.29505100  0.64921600  0.73415700  1
  O  O4  1  0.63621700  0.13514200  0.41891300  1
  O  O5  1  0.63249800  0.13868800  0.10555200  1
  O  O6  1  0.43408500  0.57859200  0.57084600  1
  O  O7  1  0.13964500  0.36521600  0.58941600  1
  O  O8  1  0.35447900  0.19582200  0.25599000  1
  O  O9  1  0.80963300  0.50142500  0.60149800  1
  O  O10  1  0.64176800  0.81578100  0.73772700  1
  O  O11  1  0.55635800  0.42716600  0.42783000  1
  O  O12  1  0.79211800  0.84801600  0.26754600  1
  O  O13  1  0.12334800  0.99760900  0.23362300  1
  O  O14  1  0.88351500  0.99822200  0.76376700  1
  O  O15  1  0.13791400  0.68688500  0.25533800  1
  O  O16  1  0.05956100  0.40724700  0.24330600  1
  O  O17  1  0.86076900  0.96931500  0.08520300  1
  O  O18  1  0.88925600  0.66265800  0.09846200  1
  O  O19  1  0.58315300  0.76370100  0.09938800  1
  O  O20  1  0.86435400  0.65094100  0.40884600  1
  O  O21  1  0.31286800  0.33464400  0.06462100  1
  O  O22  1  0.70269000  0.01661400  0.59821700  1
  O  O23  1  0.91369000  0.92899000  0.43016200  1
  O  O24  1  0.11691000  0.66908800  0.56634200  1
  O  O25  1  0.08261400  0.73941300  0.89881900  1
  O  O26  1  0.29224800  0.99674500  0.39766100  1
  O  O27  1  0.20639200  0.82742900  0.06056300  1
  O  O28  1  0.38898400  0.83833100  0.89774500  1
  O  O29  1  0.13234100  0.01804800  0.91706000  1
  O  O30  1  0.06138400  0.08976400  0.56725100  1
  O  O31  1  0.35632100  0.85160900  0.59593800  1
  O  O32  1  0.56605800  0.08948400  0.76212000  1
  O  O33  1  0.68437900  0.33101400  0.26959300  1
  O  O34  1  0.13476900  0.36189900  0.89424100  1
  O  O35  1  0.37202300  0.16463000  0.56984400  1
  O  O36  1  0.81594200  0.16799300  0.93560600  1
  O  O37  1  0.62685900  0.50397100  0.76348500  1
  O  O38  1  0.94017400  0.25921900  0.09370300  1
  O  O39  1  0.70555000  0.67397600  0.93699600  1
  O  O40  1  0.17960100  0.48473600  0.39825800  1
  O  O41  1  0.44316200  0.24123600  0.90763100  1
  O  O42  1  0.18735700  0.16690000  0.73048500  1
  O  O43  1  0.36063800  0.53209600  0.91451800  1
  O  O44  1  0.60626900  0.82979100  0.43367600  1
  O  O45  1  0.37528500  0.50047500  0.23793700  1
  O  O46  1  0.43717900  0.92249700  0.23800800  1
  O  O47  1  0.63127800  0.48487900  0.08314000  1
loop_
_geom_bond_atom_site_label_1
_geom_bond_atom_site_label_2
_geom_bond_distance
_geom_bond_site_symmetry_2
Cr0 O10 1.933907 1_555
Cr0 O39 1.959212 1_555
Cr0 O37 1.979475 1_555
Cr0 O28 2.014950 1_555
Cr0 O43 2.018343 1_555
Cr0 O3 2.241604 1_555
Cr1 O23 1.813351 1_545
Cr1 O30 1.826730 1_655
Cr1 O22 1.872181 1_555
Cr1 O0 1.940514 1_555
Cr1 O4 2.031370 1_555
Cr2 O45 1.931205 1_555
Cr2 O8 1.945294 1_555
Cr2 O47 1.968283 1_555
Cr2 O33 1.975784 1_555
Cr2 O21 1.990097 1_555
Cr2 O5 2.301911 1_555
Cr3 O19 1.784016 1_555
Cr3 O46 1.823684 1_555
Cr3 O12 1.914878 1_555
Cr3 O5 1.950465 1_565
Cr3 O17 2.032301 1_555
Cr4 O15 1.886418 1_555
Cr4 O27 1.942065 1_555
Cr4 O13 1.985745 1_555
Cr4 O17 1.999315 1_455
Cr4 O18 2.036775 1_455
Cr4 O12 2.273397 1_455
Cr5 O42 1.937827 1_655
Cr5 O14 1.942922 1_545
Cr5 O1 1.944374 1_555
Cr5 O29 1.944899 1_655
Cr5 O36 1.997834 1_555
Cr5 O34 2.300502 1_655
Cr6 O31 1.928265 1_555
Cr6 O26 1.940207 1_555
Cr6 O35 1.968867 1_565
Cr6 O4 2.021260 1_565
Cr6 O44 2.028950 1_555
Cr6 O22 2.238326 1_565
Cr7 O7 1.944346 1_655
Cr7 O24 1.949845 1_655
Cr7 O9 1.952367 1_555
Cr7 O40 1.972225 1_655
Cr7 O20 2.003958 1_555
Cr7 O0 2.292944 1_555
Cr8 O25 1.793646 1_555
Cr8 O2 1.829245 1_455
Cr8 O3 1.876504 1_555
Cr8 O34 1.953413 1_555
Cr8 O43 2.026283 1_555
O0 P8 1.635236 1_555
O1 P6 1.544836 1_555
O2 P6 1.558587 1_555
O3 P9 1.643130 1_555
O4 P8 1.600447 1_555
O5 P3 1.635990 1_555
O6 P9 1.519626 1_555
O7 P2 1.538739 1_555
O8 P4 1.533365 1_555
O9 P6 1.537432 1_555
O10 P7 1.531977 1_555
O11 P8 1.494207 1_555
O12 P0 1.614917 1_555
O13 P4 1.532879 1_565
O14 P7 1.527582 1_555
O15 P10 1.530201 1_555
O16 P10 1.548610 1_555
O17 P3 1.597865 1_565
O18 P5 1.529417 1_555
O19 P5 1.616971 1_555
O20 P0 1.510210 1_555
O21 P11 1.531188 1_554
O22 P7 1.647951 1_545
O23 P0 1.593922 1_555
O24 P9 1.528748 1_555
O25 P1 1.611468 1_555
O26 P4 1.542434 1_565
O27 P1 1.534390 1_554
O28 P1 1.528463 1_555
O29 P1 1.525546 1_545
O30 P2 1.563704 1_555
O31 P9 1.534291 1_555
O32 P7 1.519947 1_545
O33 P8 1.530485 1_555
O34 P11 1.632473 1_555
O35 P2 1.530263 1_555
O36 P3 1.529658 1_556
O37 P6 1.531050 1_555
O38 P3 1.494544 1_555
O39 P5 1.535861 1_556
O40 P10 1.552408 1_555
O41 P11 1.496694 1_555
O42 P2 1.537699 1_555
O43 P11 1.597030 1_555
O44 P0 1.514985 1_555
O45 P10 1.540139 1_555
O46 P4 1.562292 1_565
O47 P5 1.524175 1_555
