# generated using pymatgen
data_Hf3N2O3
_symmetry_space_group_name_H-M   'P 1'
_cell_length_a   5.67983701
_cell_length_b   5.67983701
_cell_length_c   10.73597700
_cell_angle_alpha   90.00000000
_cell_angle_beta   90.00000000
_cell_angle_gamma   139.21001800
_symmetry_Int_Tables_number   1
_chemical_formula_structural   Hf3N2O3
_chemical_formula_sum   'Hf6 N4 O6'
_cell_volume   226.26540488
_cell_formula_units_Z   2
loop_
 _symmetry_equiv_pos_site_id
 _symmetry_equiv_pos_as_xyz
  1  'x, y, z'
loop_
 _atom_site_type_symbol
 _atom_site_label
 _atom_site_symmetry_multiplicity
 _atom_site_fract_x
 _atom_site_fract_y
 _atom_site_fract_z
 _atom_site_occupancy
  Hf  Hf0  1  0.13739300  0.86260700  0.93984700  1
  Hf  Hf1  1  0.13488900  0.86511100  0.55327000  1
  Hf  Hf2  1  0.18585800  0.81414200  0.24910900  1
  Hf  Hf3  1  0.81414200  0.18585800  0.74910900  1
  Hf  Hf4  1  0.86511100  0.13488900  0.05327000  1
  Hf  Hf5  1  0.86260700  0.13739300  0.43984700  1
  N  N0  1  0.04674200  0.95325800  0.38494900  1
  N  N1  1  0.70460700  0.29539300  0.57559100  1
  N  N2  1  0.29539300  0.70460700  0.07559100  1
  N  N3  1  0.95325800  0.04674200  0.88494900  1
  O  O0  1  0.04497900  0.95502100  0.11695300  1
  O  O1  1  0.69158400  0.30841600  0.91924500  1
  O  O2  1  0.75507600  0.24492400  0.26103500  1
  O  O3  1  0.24492400  0.75507600  0.76103500  1
  O  O4  1  0.30841600  0.69158400  0.41924500  1
  O  O5  1  0.95502100  0.04497900  0.61695300  1
loop_
_geom_bond_atom_site_label_1
_geom_bond_atom_site_label_2
_geom_bond_distance
_geom_bond_site_symmetry_2
Hf0 N3 2.047262 1_465
Hf0 O1 2.073583 1_565
Hf0 O1 2.073583 1_455
Hf0 O0 2.140927 1_556
Hf0 N2 2.225767 1_556
Hf0 O3 2.235224 1_555
Hf1 O5 2.033536 1_465
Hf1 N0 2.036284 1_555
Hf1 N1 2.127527 1_565
Hf1 N1 2.127527 1_455
Hf1 O4 2.341832 1_555
Hf1 O3 2.519535 1_555
Hf2 O0 2.064731 1_555
Hf2 N0 2.078689 1_555
Hf2 O2 2.116001 1_565
Hf2 O2 2.116001 1_455
Hf2 N2 2.197852 1_555
Hf2 O4 2.244830 1_555
Hf3 O5 2.064731 1_555
Hf3 N3 2.078689 1_555
Hf3 O3 2.116001 1_655
Hf3 O3 2.116001 1_545
Hf3 N1 2.197852 1_555
Hf3 O1 2.244830 1_555
Hf4 O0 2.033536 1_645
Hf4 N3 2.036284 1_554
Hf4 N2 2.127527 1_545
Hf4 N2 2.127527 1_655
Hf4 O1 2.341832 1_554
Hf4 O2 2.519535 1_555
Hf5 N0 2.047262 1_645
Hf5 O4 2.073583 1_655
Hf5 O4 2.073583 1_545
Hf5 O5 2.140927 1_555
Hf5 N1 2.225767 1_555
Hf5 O2 2.235224 1_555
