# generated using pymatgen
data_Li4Mn5Ni3O16
_symmetry_space_group_name_H-M   'P 1'
_cell_length_a   5.80790997
_cell_length_b   5.74849032
_cell_length_c   9.36856890
_cell_angle_alpha   89.99862196
_cell_angle_beta   91.64162023
_cell_angle_gamma   119.66275649
_symmetry_Int_Tables_number   1
_chemical_formula_structural   Li4Mn5Ni3O16
_chemical_formula_sum   'Li4 Mn5 Ni3 O16'
_cell_volume   271.64859844
_cell_formula_units_Z   1
loop_
 _symmetry_equiv_pos_site_id
 _symmetry_equiv_pos_as_xyz
  1  'x, y, z'
loop_
 _atom_site_type_symbol
 _atom_site_label
 _atom_site_symmetry_multiplicity
 _atom_site_fract_x
 _atom_site_fract_y
 _atom_site_fract_z
 _atom_site_occupancy
  Li  Li0  1  0.32622200  0.66311400  0.89699900  1
  Li  Li1  1  0.98831700  0.99415000  0.99096300  1
  Li  Li2  1  0.00282600  0.00143800  0.49664800  1
  Li  Li3  1  0.66627700  0.33315200  0.39922100  1
  Mn  Mn0  1  0.17077800  0.83172400  0.21357900  1
  Mn  Mn1  1  0.34308700  0.67155900  0.48709800  1
  Mn  Mn2  1  0.17079300  0.33906200  0.21357600  1
  Mn  Mn3  1  0.34514900  0.17259000  0.71506900  1
  Mn  Mn4  1  0.67464700  0.33732200  0.98308600  1
  Ni  Ni0  1  0.65950500  0.82976300  0.21190700  1
  Ni  Ni1  1  0.83103200  0.66203800  0.71155500  1
  Ni  Ni2  1  0.83103200  0.16903800  0.71155700  1
  O  O0  1  0.18290000  0.84104600  0.59772700  1
  O  O1  1  0.03831900  0.51915200  0.33722600  1
  O  O2  1  0.31599600  0.65800900  0.10589400  1
  O  O3  1  0.01033500  0.00516700  0.30735400  1
  O  O4  1  0.00758900  0.00379300  0.80120000  1
  O  O5  1  0.18290400  0.34189500  0.59773000  1
  O  O6  1  0.46997300  0.96129900  0.34619300  1
  O  O7  1  0.46999000  0.50871700  0.34619400  1
  O  O8  1  0.32601400  0.16301100  0.10208100  1
  O  O9  1  0.67450900  0.83727600  0.59321600  1
  O  O10  1  0.50712600  0.47195600  0.84740200  1
  O  O11  1  0.50712000  0.03518300  0.84740100  1
  O  O12  1  0.66158900  0.33084600  0.61040900  1
  O  O13  1  0.84163100  0.66697100  0.09572200  1
  O  O14  1  0.95269900  0.47637500  0.84511800  1
  O  O15  1  0.84164100  0.17465100  0.09571600  1
loop_
_geom_bond_atom_site_label_1
_geom_bond_atom_site_label_2
_geom_bond_distance
_geom_bond_site_symmetry_2
Li0 O10 1.923043 1_555
Li0 O11 1.923044 1_565
Li0 O14 1.931178 1_455
Li0 O2 1.959427 1_556
Li1 O4 1.783664 1_665
Li1 O13 1.920481 1_556
Li1 O15 1.920493 1_566
Li1 O8 1.967584 1_666
Li2 O3 1.775067 1_555
Li2 O9 1.913838 1_445
Li2 O5 1.933467 1_555
Li2 O0 1.933472 1_545
Li3 O7 1.916066 1_555
Li3 O6 1.916079 1_545
Li3 O12 1.979450 1_555
Li3 O1 1.983602 1_655
Mn0 O3 1.897569 1_565
Mn0 O2 1.899675 1_555
Mn0 O6 1.926967 1_555
Mn0 O1 1.960876 1_555
Mn0 O13 1.964090 1_455
Mn0 O8 1.971080 1_565
Mn1 O9 1.917406 1_555
Mn1 O5 1.959892 1_555
Mn1 O0 1.959969 1_555
Mn1 O6 1.974980 1_555
Mn1 O7 1.975041 1_555
Mn1 O1 2.048141 1_555
Mn2 O3 1.897576 1_555
Mn2 O2 1.899673 1_555
Mn2 O7 1.927011 1_555
Mn2 O1 1.960907 1_555
Mn2 O15 1.964126 1_455
Mn2 O8 1.971051 1_555
Mn3 O12 1.901330 1_555
Mn3 O4 1.908921 1_555
Mn3 O10 1.927283 1_555
Mn3 O11 1.927294 1_555
Mn3 O5 1.972799 1_555
Mn3 O0 1.972814 1_545
Mn4 O14 1.938928 1_555
Mn4 O13 1.940999 1_556
Mn4 O15 1.941013 1_556
Mn4 O11 1.958516 1_555
Mn4 O10 1.958540 1_555
Mn4 O8 2.113732 1_556
Ni0 O3 1.957081 1_665
Ni0 O2 1.969363 1_555
Ni0 O15 2.055390 1_565
Ni0 O13 2.055530 1_555
Ni0 O7 2.066125 1_555
Ni0 O6 2.066260 1_555
Ni1 O4 1.890285 1_665
Ni1 O12 1.892948 1_555
Ni1 O14 1.974817 1_555
Ni1 O9 1.979627 1_555
Ni1 O0 2.101390 1_655
Ni1 O10 2.110736 1_555
Ni2 O4 1.890469 1_655
Ni2 O12 1.893191 1_555
Ni2 O14 1.974868 1_555
Ni2 O9 1.979668 1_545
Ni2 O5 2.101404 1_655
Ni2 O11 2.110738 1_555
