# generated using pymatgen
data_Li5Mn2(PO4)3
_symmetry_space_group_name_H-M   'P 1'
_cell_length_a   8.36030438
_cell_length_b   8.35954969
_cell_length_c   9.31206409
_cell_angle_alpha   90.15139385
_cell_angle_beta   116.21048240
_cell_angle_gamma   119.75651406
_symmetry_Int_Tables_number   1
_chemical_formula_structural   Li5Mn2(PO4)3
_chemical_formula_sum   'Li10 Mn4 P6 O24'
_cell_volume   485.90059112
_cell_formula_units_Z   2
loop_
 _symmetry_equiv_pos_site_id
 _symmetry_equiv_pos_as_xyz
  1  'x, y, z'
loop_
 _atom_site_type_symbol
 _atom_site_label
 _atom_site_symmetry_multiplicity
 _atom_site_fract_x
 _atom_site_fract_y
 _atom_site_fract_z
 _atom_site_occupancy
  Li  Li0  1  0.28980602  0.49827938  0.40036460  1
  Li  Li1  1  0.37343697  0.05643087  0.10549945  1
  Li  Li2  1  0.09966880  0.20894257  0.60314152  1
  Li  Li3  1  0.65609493  0.18625636  0.40428006  1
  Li  Li4  1  0.02318393  0.30807058  0.10068397  1
  Li  Li5  1  0.38054586  0.86120691  0.60238006  1
  Li  Li6  1  0.80354222  0.73176850  0.15064238  1
  Li  Li7  1  0.21257274  0.27082435  0.90434179  1
  Li  Li8  1  0.61154301  0.92481576  0.90193747  1
  Li  Li9  1  0.92468210  0.64871231  0.85669044  1
  Mn  Mn0  1  0.71798256  0.84543568  0.56457130  1
  Mn  Mn1  1  0.30073484  0.64542846  0.96599191  1
  Mn  Mn2  1  0.67805577  0.34386892  0.02791738  1
  Mn  Mn3  1  0.29354925  0.14178799  0.43695705  1
  P  P0  1  0.80662747  0.23677399  0.75609454  1
  P  P1  1  0.79350101  0.05903534  0.24919672  1
  P  P2  1  0.49152856  0.44018318  0.24886769  1
  P  P3  1  0.49057052  0.54716442  0.75643262  1
  P  P4  1  0.20045339  0.94756224  0.75415354  1
  P  P5  1  0.18574207  0.73471777  0.24027036  1
  O  O0  1  0.28486777  0.41619160  0.10438986  1
  O  O1  1  0.56507797  0.57679646  0.40468601  1
  O  O2  1  0.37433154  0.76939273  0.40722979  1
  O  O3  1  0.24808287  0.79528422  0.10581999  1
  O  O4  1  0.91738290  0.14091133  0.73881587  1
  O  O5  1  0.66364505  0.86536995  0.11581731  1
  O  O6  1  0.43000721  0.23962028  0.27902295  1
  O  O7  1  0.81048539  0.03706821  0.41826996  1
  O  O8  1  0.95803001  0.45469613  0.80533961  1
  O  O9  1  0.67608711  0.16167070  0.19122854  1
  O  O10  1  0.01966747  0.18036845  0.27299901  1
  O  O11  1  0.65524555  0.50387202  0.19399750  1
  O  O12  1  0.33122191  0.48523737  0.81816845  1
  O  O13  1  0.97777080  0.82333942  0.73243828  1
  O  O14  1  0.31376391  0.84022723  0.79354886  1
  O  O15  1  0.01809787  0.51716925  0.17796244  1
  O  O16  1  0.18667896  0.01071364  0.59785453  1
  O  O17  1  0.56442991  0.74817869  0.72918742  1
  O  O18  1  0.33349592  0.13029733  0.90318803  1
  O  O19  1  0.10309614  0.85188936  0.26912832  1
  O  O20  1  0.75310502  0.18087061  0.89559922  1
  O  O21  1  0.59659023  0.15770878  0.58930855  1
  O  O22  1  0.36468646  0.39654251  0.58839085  1
  O  O23  1  0.68823202  0.55251917  0.88849379  1
loop_
_geom_bond_atom_site_label_1
_geom_bond_atom_site_label_2
_geom_bond_distance
_geom_bond_site_symmetry_2
Li0 O22 1.936241 1_555
Li0 O2 2.002380 1_555
Li0 O1 2.036500 1_555
Li0 O10 2.286807 1_555
Li0 O15 2.382482 1_555
Li1 O3 1.896287 1_545
Li1 O18 1.922795 1_554
Li1 O6 1.942359 1_555
Li1 O9 1.953415 1_555
Li2 O7 1.932732 1_455
Li2 O22 2.051391 1_555
Li2 O16 2.122575 1_555
Li2 O4 2.255298 1_455
Li2 O12 2.281415 1_555
Li3 O21 1.978545 1_555
Li3 O6 2.006104 1_555
Li3 O9 2.081127 1_555
Li3 O7 2.165317 1_555
Li4 O0 1.890696 1_555
Li4 O15 1.915522 1_555
Li4 O20 1.916536 1_454
Li4 O10 1.932570 1_555
Li5 O2 1.940064 1_555
Li5 O14 2.072176 1_555
Li5 O17 2.120076 1_555
Li5 O21 2.274345 1_565
Li5 O16 2.478192 1_565
Li6 O11 1.852354 1_555
Li6 O19 1.885368 1_655
Li6 O5 1.919358 1_555
Li6 O23 2.366823 1_554
Li7 O0 1.891209 1_556
Li7 O18 1.894875 1_555
Li7 O4 1.901654 1_455
Li7 O12 1.945878 1_555
Li8 O20 1.879805 1_565
Li8 O14 1.935379 1_555
Li8 O17 1.942607 1_555
Li8 O5 1.963967 1_556
Li9 O13 1.867133 1_555
Li9 O8 1.870674 1_555
Li9 O23 1.892766 1_555
Li9 O3 2.312865 1_656
Mn0 O1 2.084595 1_555
Mn0 O13 2.143732 1_555
Mn0 O7 2.175514 1_565
Mn0 O4 2.239430 1_565
Mn0 O2 2.295410 1_555
Mn0 O17 2.316832 1_555
Mn1 O12 2.095727 1_555
Mn1 O3 2.122161 1_556
Mn1 O8 2.157723 1_455
Mn1 O14 2.287903 1_555
Mn1 O5 2.289617 1_556
Mn1 O0 2.294021 1_556
Mn2 O15 2.127272 1_655
Mn2 O9 2.154595 1_555
Mn2 O23 2.167355 1_554
Mn2 O11 2.172559 1_555
Mn2 O18 2.182446 1_554
Mn2 O20 2.300263 1_554
Mn3 O16 2.112619 1_555
Mn3 O6 2.166929 1_555
Mn3 O19 2.191412 1_545
Mn3 O22 2.205375 1_555
Mn3 O21 2.222260 1_555
Mn3 O10 2.307708 1_555
O0 P2 1.560993 1_555
O1 P2 1.514517 1_555
O2 P5 1.538095 1_555
O3 P5 1.553492 1_555
O4 P0 1.546914 1_555
O5 P1 1.547874 1_565
O6 P2 1.558369 1_555
O7 P1 1.537081 1_555
O8 P0 1.524835 1_555
O9 P1 1.536713 1_555
O10 P1 1.542081 1_455
O11 P2 1.521116 1_555
O12 P3 1.538432 1_555
O13 P4 1.527250 1_655
O14 P4 1.541287 1_555
O15 P5 1.534384 1_555
O16 P4 1.525350 1_545
O17 P3 1.542735 1_555
O18 P4 1.560569 1_545
O19 P5 1.530837 1_555
O20 P0 1.554134 1_555
O21 P0 1.538156 1_555
O22 P3 1.536600 1_555
O23 P3 1.541516 1_555
