# generated using pymatgen
data_Na13Zr7Si5P7O48
_symmetry_space_group_name_H-M   'P 1'
_cell_length_a   9.27763100
_cell_length_b   9.38505425
_cell_length_c   16.06773342
_cell_angle_alpha   106.68049355
_cell_angle_beta   89.97705706
_cell_angle_gamma   119.61637356
_symmetry_Int_Tables_number   1
_chemical_formula_structural   Na13Zr7Si5P7O48
_chemical_formula_sum   'Na13 Zr7 Si5 P7 O48'
_cell_volume   1148.14700600
_cell_formula_units_Z   1
loop_
 _symmetry_equiv_pos_site_id
 _symmetry_equiv_pos_as_xyz
  1  'x, y, z'
loop_
 _atom_site_type_symbol
 _atom_site_label
 _atom_site_symmetry_multiplicity
 _atom_site_fract_x
 _atom_site_fract_y
 _atom_site_fract_z
 _atom_site_occupancy
  Na  Na0  1  0.02785000  0.03248500  0.00986000  1
  Na  Na1  1  0.22739500  0.30289600  0.07578700  1
  Na  Na2  1  0.49852500  0.50444800  0.37122700  1
  Na  Na3  1  0.43631700  0.15365000  0.06938500  1
  Na  Na4  1  0.97120000  0.93299700  0.18162500  1
  Na  Na5  1  0.55199300  0.13179000  0.30225500  1
  Na  Na6  1  0.05832200  0.86515000  0.44061700  1
  Na  Na7  1  0.03588500  0.50217200  0.89883500  1
  Na  Na8  1  0.00932900  0.47254900  0.12543200  1
  Na  Na9  1  0.92927400  0.12423500  0.55788000  1
  Na  Na10  1  0.44282800  0.85979500  0.69407500  1
  Na  Na11  1  0.06231700  0.12521200  0.80934300  1
  Na  Na12  1  0.53274400  0.85677200  0.93631700  1
  Zr  Zr0  1  0.53194500  0.71343000  0.17489200  1
  Zr  Zr1  1  0.71905100  0.29232700  0.57337100  1
  Zr  Zr2  1  0.02949500  0.70461700  0.68100100  1
  Zr  Zr3  1  0.97156400  0.29421500  0.32638100  1
  Zr  Zr4  1  0.28228700  0.70691400  0.42621700  1
  Zr  Zr5  1  0.47277000  0.31005300  0.81575300  1
  Zr  Zr6  1  0.77625200  0.69746600  0.92645900  1
  Si  Si0  1  0.27178100  0.78547500  0.23154700  1
  Si  Si1  1  0.83760600  0.50075000  0.37502400  1
  Si  Si2  1  0.76106000  0.20487700  0.01624300  1
  Si  Si3  1  0.77454500  0.79595100  0.73064600  1
  Si  Si4  1  0.33395400  0.50053200  0.87223000  1
  P  P0  1  0.73023000  0.79107100  0.48080000  1
  P  P1  1  0.67509900  0.50387800  0.12341000  1
  P  P2  1  0.22753800  0.19922400  0.27536200  1
  P  P3  1  0.26762700  0.20849800  0.52147200  1
  P  P4  1  0.22307500  0.79876400  0.97577600  1
  P  P5  1  0.16154200  0.50297300  0.62311100  1
  P  P6  1  0.73057700  0.20591400  0.77154900  1
  O  O0  1  0.37990300  0.39158600  0.25666600  1
  O  O1  1  0.33297700  0.77542200  0.06304100  1
  O  O2  1  0.20111400  0.96638500  0.14195300  1
  O  O3  1  0.64405800  0.63060700  0.13653000  1
  O  O4  1  0.33248000  0.78980300  0.31829900  1
  O  O5  1  0.43191300  0.76987000  0.22352200  1
  O  O6  1  0.74785300  0.36720000  0.46096300  1
  O  O7  1  0.71997500  0.63845700  0.28656900  1
  O  O8  1  0.66501100  0.00929000  0.10251500  1
  O  O9  1  0.71801900  0.59759200  0.49709500  1
  O  O10  1  0.55435800  0.80060500  0.46332100  1
  O  O11  1  0.51446000  0.35645200  0.11255100  1
  O  O12  1  0.02590000  0.64621200  0.38721900  1
  O  O13  1  0.87870800  0.40339200  0.75233300  1
  O  O14  1  0.93601500  0.18711300  0.02958900  1
  O  O15  1  0.78146100  0.41074400  0.00349600  1
  O  O16  1  0.81299100  0.97592600  0.39693700  1
  O  O17  1  0.84396600  0.79709900  0.56028000  1
  O  O18  1  0.79614800  0.37674300  0.20715400  1
  O  O19  1  0.71705500  0.00124300  0.64343500  1
  O  O20  1  0.14374100  0.64310500  0.63330000  1
  O  O21  1  0.77038100  0.66041700  0.04242900  1
  O  O22  1  0.84185800  0.79549400  0.81789700  1
  O  O23  1  0.92938600  0.79985300  0.71093900  1
  O  O24  1  0.08612600  0.18850800  0.30141800  1
  O  O25  1  0.14968800  0.19245900  0.19659700  1
  O  O26  1  0.23652300  0.34221700  0.95356500  1
  O  O27  1  0.85522000  0.33569800  0.37423100  1
  O  O28  1  0.29548600  0.01299700  0.35936700  1
  O  O29  1  0.22531400  0.65930400  0.78165700  1
  O  O30  1  0.16748000  0.20255100  0.44132600  1
  O  O31  1  0.18804100  0.01553100  0.60438900  1
  O  O32  1  0.20173400  0.62364400  0.97909600  1
  O  O33  1  0.05128600  0.81013100  0.96820900  1
  O  O34  1  0.12510300  0.56646100  0.26154600  1
  O  O35  1  0.98030600  0.36899100  0.61047500  1
  O  O36  1  0.52318400  0.65020900  0.88648200  1
  O  O37  1  0.45012800  0.21474600  0.53681700  1
  O  O38  1  0.26763600  0.39630300  0.50443200  1
  O  O39  1  0.30332000  0.99963600  0.89310100  1
  O  O40  1  0.26046800  0.35608600  0.70523700  1
  O  O41  1  0.23935700  0.64033800  0.53965900  1
  O  O42  1  0.57743900  0.19351100  0.78766000  1
  O  O43  1  0.68061700  0.20014500  0.69195000  1
  O  O44  1  0.35735000  0.38516200  0.84613400  1
  O  O45  1  0.80019300  0.02480600  0.85624600  1
  O  O46  1  0.63905700  0.21797900  0.92789300  1
  O  O47  1  0.61022000  0.60447500  0.74399600  1
loop_
_geom_bond_atom_site_label_1
_geom_bond_atom_site_label_2
_geom_bond_distance
_geom_bond_site_symmetry_2
Na0 O14 1.972342 1_455
Na0 O33 2.120502 1_544
Na1 O26 2.094039 1_554
Na1 O14 2.382200 1_455
Na1 O25 2.403611 1_555
Na1 O11 2.490459 1_555
Na2 O0 1.857848 1_555
Na2 O7 2.465587 1_555
Na2 O9 2.496022 1_555
Na2 O10 2.529787 1_555
Na2 O38 3.048628 1_555
Na3 O11 1.583660 1_555
Na3 O2 2.567855 1_545
Na3 O39 2.743068 1_544
Na4 O25 2.099552 1_665
Na4 O2 2.123064 1_655
Na4 O24 2.327421 1_665
Na4 O21 2.650602 1_555
Na4 O3 2.845825 1_555
Na5 O28 2.389902 1_555
Na5 O27 2.514943 1_555
Na5 O6 2.736315 1_555
Na5 O5 2.858838 1_545
Na6 O12 1.850910 1_555
Na6 O28 2.547756 1_565
Na6 O31 2.560564 1_565
Na7 O32 1.659564 1_555
Na7 O13 2.437377 1_455
Na7 O29 2.799628 1_555
Na7 O15 2.821224 1_456
Na8 O34 2.161783 1_555
Na8 O18 2.315692 1_455
Na8 O14 2.417026 1_455
Na8 O15 2.604473 1_455
Na9 O35 2.006435 1_555
Na9 O19 2.400235 1_555
Na9 O16 2.498065 1_545
Na10 O20 2.464472 1_555
Na10 O19 2.485441 1_565
Na10 O42 2.657412 1_565
Na10 O41 2.681199 1_555
Na10 O29 2.712563 1_555
Na11 O45 2.347600 1_455
Na11 O26 2.483998 1_555
Na11 O44 2.523249 1_555
Na11 O23 2.617778 1_445
Na12 O36 1.829266 1_555
Na12 O8 2.599633 1_566
Na12 O45 2.755655 1_565
O0 P2 1.770970 1_555
O1 P4 1.857932 1_554
O3 P1 1.317766 1_555
O3 Zr0 1.609215 1_555
O4 Si0 1.485691 1_555
O4 Zr4 2.060201 1_555
O5 Zr0 1.414252 1_555
O5 Si0 1.565016 1_555
O6 Si1 2.032766 1_555
O6 Zr1 2.090438 1_555
O8 Si2 2.434756 1_555
O8 Zr0 3.008463 1_545
O9 P0 1.856916 1_555
O9 Si1 2.423974 1_555
O10 P0 1.705386 1_555
O10 Zr4 2.237545 1_555
O11 P1 1.410485 1_555
O12 Si1 1.563136 1_455
O12 Zr4 2.198212 1_555
O13 P6 1.797115 1_555
O14 Si2 1.731103 1_555
O15 O46 1.694505 1_554
O15 Si2 1.917388 1_555
O15 P1 2.309605 1_555
O16 P0 2.332306 1_555
O17 P0 1.627311 1_555
O17 O9 1.627622 1_555
O20 P5 1.369211 1_555
O20 Zr2 1.547350 1_555
O20 O41 1.746622 1_555
O21 Zr6 1.987254 1_554
O22 Si3 1.536952 1_555
O22 Zr6 2.150944 1_555
O23 Si3 1.455885 1_555
O23 Zr2 1.570413 1_655
O24 P2 1.341630 1_555
O24 Zr3 1.757317 1_455
O25 P2 1.427115 1_555
O26 Si4 2.125766 1_555
O27 Zr3 1.466504 1_555
O27 Si1 1.632543 1_555
O27 O6 1.753617 1_555
O28 Si0 2.417553 1_545
O29 P5 2.447424 1_555
O29 Zr2 2.694048 1_555
O30 P3 1.559863 1_555
O30 O38 1.571728 1_555
O31 P3 2.379618 1_555
O32 P4 1.572219 1_555
O33 P4 1.655898 1_555
O33 Zr6 2.237522 1_455
O34 O4 1.960853 1_555
O34 Si0 2.027983 1_555
O34 Zr4 2.639295 1_555
O34 Zr3 2.751752 1_455
O35 P5 1.487811 1_655
O35 Zr1 2.186157 1_555
O36 Si4 1.576710 1_555
O36 Zr6 2.220419 1_555
O37 P3 1.680768 1_555
O37 Zr1 2.249480 1_555
O38 P3 1.859696 1_555
O38 P5 2.341766 1_555
O39 P4 2.433622 1_555
O41 P5 2.013166 1_555
O41 Zr4 2.068508 1_555
O42 P6 1.397376 1_555
O42 Zr5 1.763251 1_555
O43 P6 1.337711 1_555
O43 Zr1 2.268604 1_555
O44 Si4 1.169134 1_555
O44 Zr5 1.558828 1_555
O45 Si3 2.397796 1_545
O46 Si2 1.884302 1_556
O47 Si3 1.764294 1_555
