# generated using pymatgen
data_Li2MnF5
_symmetry_space_group_name_H-M   'P 1'
_cell_length_a   5.21024727
_cell_length_b   5.21024727
_cell_length_c   9.49411306
_cell_angle_alpha   90.00000000
_cell_angle_beta   90.00000000
_cell_angle_gamma   134.65104339
_symmetry_Int_Tables_number   1
_chemical_formula_structural   Li2MnF5
_chemical_formula_sum   'Li4 Mn2 F10'
_cell_volume   183.35175499
_cell_formula_units_Z   2
loop_
 _symmetry_equiv_pos_site_id
 _symmetry_equiv_pos_as_xyz
  1  'x, y, z'
loop_
 _atom_site_type_symbol
 _atom_site_label
 _atom_site_symmetry_multiplicity
 _atom_site_fract_x
 _atom_site_fract_y
 _atom_site_fract_z
 _atom_site_occupancy
  Li  Li0  1  0.13463784  0.86536216  0.92760010  1
  Li  Li1  1  0.13463784  0.86536216  0.57239990  1
  Li  Li2  1  0.86536216  0.13463784  0.07239990  1
  Li  Li3  1  0.86536216  0.13463784  0.42760010  1
  Mn  Mn0  1  0.19547149  0.80452851  0.25000000  1
  Mn  Mn1  1  0.80452851  0.19547149  0.75000000  1
  F  F0  1  0.05808081  0.94191919  0.11605914  1
  F  F1  1  0.05808081  0.94191919  0.38394086  1
  F  F2  1  0.67941412  0.32058588  0.90447367  1
  F  F3  1  0.67941412  0.32058588  0.59552633  1
  F  F4  1  0.24731475  0.75268525  0.75000000  1
  F  F5  1  0.75268525  0.24731475  0.25000000  1
  F  F6  1  0.32058588  0.67941412  0.40447367  1
  F  F7  1  0.32058588  0.67941412  0.09552633  1
  F  F8  1  0.94191919  0.05808081  0.61605914  1
  F  F9  1  0.94191919  0.05808081  0.88394086  1
loop_
_geom_bond_atom_site_label_1
_geom_bond_atom_site_label_2
_geom_bond_distance
_geom_bond_site_symmetry_2
F0 Mn0 1.833630 1_555
F0 Li2 1.898803 1_465
F0 Li0 1.934753 1_554
F1 Mn0 1.833630 1_555
F1 Li3 1.898803 1_465
F1 Li1 1.934753 1_555
F2 Mn1 1.896856 1_555
F2 Li0 2.065850 1_655
F2 Li0 2.065850 1_545
F2 Li2 2.395504 1_556
F3 Mn1 1.896856 1_555
F3 Li1 2.065850 1_655
F3 Li1 2.065850 1_545
F3 Li3 2.395504 1_555
F4 Li1 2.004214 1_555
F4 Li0 2.004214 1_555
F4 Mn1 2.082498 1_455
F4 Mn1 2.082498 1_565
F5 Li3 2.004214 1_555
F5 Li2 2.004214 1_555
F5 Mn0 2.082498 1_545
F5 Mn0 2.082498 1_655
F6 Mn0 1.896856 1_555
F6 Li3 2.065850 1_565
F6 Li3 2.065850 1_455
F6 Li1 2.395504 1_555
F7 Mn0 1.896856 1_555
F7 Li2 2.065850 1_565
F7 Li2 2.065850 1_455
F7 Li0 2.395504 1_554
F8 Mn1 1.833630 1_555
F8 Li1 1.898803 1_645
F8 Li3 1.934753 1_555
F9 Mn1 1.833630 1_555
F9 Li0 1.898803 1_645
F9 Li2 1.934753 1_556
