# generated using pymatgen
data_Li6Nb3P8O29
_symmetry_space_group_name_H-M   'P 1'
_cell_length_a   10.02260900
_cell_length_b   10.02568704
_cell_length_c   13.97031299
_cell_angle_alpha   90.41587128
_cell_angle_beta   89.90214817
_cell_angle_gamma   119.91516972
_symmetry_Int_Tables_number   1
_chemical_formula_structural   Li6Nb3P8O29
_chemical_formula_sum   'Li12 Nb6 P16 O58'
_cell_volume   1216.71764387
_cell_formula_units_Z   2
loop_
 _symmetry_equiv_pos_site_id
 _symmetry_equiv_pos_as_xyz
  1  'x, y, z'
loop_
 _atom_site_type_symbol
 _atom_site_label
 _atom_site_symmetry_multiplicity
 _atom_site_fract_x
 _atom_site_fract_y
 _atom_site_fract_z
 _atom_site_occupancy
  Li  Li0  1  0.99118900  0.01847400  0.49706700  1
  Li  Li1  1  0.99931700  0.00092300  0.99863000  1
  Li  Li2  1  0.90668000  0.67501000  0.94028900  1
  Li  Li3  1  0.66819500  0.32859700  0.11567900  1
  Li  Li4  1  0.76836700  0.67201000  0.43922000  1
  Li  Li5  1  0.33060500  0.09813100  0.43940300  1
  Li  Li6  1  0.67001400  0.77024000  0.05752000  1
  Li  Li7  1  0.32626300  0.22812300  0.93868100  1
  Li  Li8  1  0.67090500  0.90656800  0.55958200  1
  Li  Li9  1  0.23041700  0.33407600  0.55934200  1
  Li  Li10  1  0.09466700  0.32704600  0.05876700  1
  Li  Li11  1  0.10062800  0.76893700  0.55992200  1
  Nb  Nb0  1  0.99826800  0.43200200  0.25452600  1
  Nb  Nb1  1  0.00084600  0.56613800  0.74850500  1
  Nb  Nb2  1  0.56920100  0.00367100  0.75532400  1
  Nb  Nb3  1  0.43209600  0.99396800  0.24623300  1
  Nb  Nb4  1  0.56260000  0.56618900  0.25067100  1
  Nb  Nb5  1  0.43182900  0.43200000  0.74978000  1
  P  P0  1  0.91963900  0.22300400  0.65696400  1
  P  P1  1  0.77856100  0.08325100  0.15670100  1
  P  P2  1  0.91214100  0.68862500  0.15322200  1
  P  P3  1  0.66685700  0.33599300  0.87942000  1
  P  P4  1  0.66344400  0.33262800  0.37862300  1
  P  P5  1  0.77299600  0.68790800  0.65503400  1
  P  P6  1  0.69020200  0.77416100  0.84427800  1
  P  P7  1  0.31001400  0.08150400  0.65423400  1
  P  P8  1  0.69196700  0.91846800  0.34843700  1
  P  P9  1  0.31188200  0.22293700  0.15539700  1
  P  P10  1  0.22565100  0.30917300  0.34532300  1
  P  P11  1  0.33006300  0.66227400  0.12029300  1
  P  P12  1  0.33545400  0.66982600  0.62093700  1
  P  P13  1  0.08452200  0.31063600  0.84775100  1
  P  P14  1  0.22349300  0.91752000  0.84373400  1
  P  P15  1  0.08406800  0.77558600  0.34362600  1
  O  O0  1  0.99603100  0.20655600  0.75531200  1
  O  O1  1  0.00744000  0.22506600  0.93766200  1
  O  O2  1  0.92341100  0.24435600  0.15447000  1
  O  O3  1  0.79252700  0.00717100  0.25540400  1
  O  O4  1  0.77901800  0.99763100  0.43835800  1
  O  O5  1  0.75671900  0.08251100  0.65573300  1
  O  O6  1  0.91305400  0.37416800  0.66860400  1
  O  O7  1  0.80665600  0.33338600  0.32975500  1
  O  O8  1  0.89199700  0.52536000  0.16517700  1
  O  O9  1  0.99242100  0.77202100  0.43130300  1
  O  O10  1  0.99832000  0.78770400  0.24847300  1
  O  O11  1  0.91913800  0.67244400  0.65251200  1
  O  O12  1  0.67399900  0.19553000  0.83385700  1
  O  O13  1  0.63651700  0.10767300  0.16616300  1
  O  O14  1  0.80713000  0.48675900  0.84106600  1
  O  O15  1  0.66440200  0.33478300  0.98683200  1
  O  O16  1  0.66418000  0.33698700  0.48449600  1
  O  O17  1  0.66884800  0.48223300  0.33585400  1
  O  O18  1  0.46576400  0.09040400  0.66573200  1
  O  O19  1  0.51616700  0.18804600  0.33535500  1
  O  O20  1  0.74958800  0.67201400  0.15562600  1
  O  O21  1  0.79226200  0.78873600  0.75001300  1
  O  O22  1  0.77842600  0.77132700  0.93190500  1
  O  O23  1  0.77032400  0.77629700  0.56775500  1
  O  O24  1  0.62767200  0.53137300  0.66701200  1
  O  O25  1  0.51292700  0.32178500  0.84068200  1
  O  O26  1  0.67475900  0.75599000  0.34298800  1
  O  O27  1  0.47606300  0.36621200  0.16615500  1
  O  O28  1  0.32886700  0.08046600  0.15533000  1
  O  O29  1  0.77467800  0.98390700  0.07488400  1
  O  O30  1  0.21668900  0.01082600  0.92604700  1
  O  O31  1  0.20525200  0.99550500  0.74575100  1
  O  O32  1  0.67045200  0.91477800  0.84355100  1
  O  O33  1  0.53418600  0.62511900  0.83220600  1
  O  O34  1  0.33002000  0.24585700  0.65443800  1
  O  O35  1  0.48050600  0.66874500  0.16327000  1
  O  O36  1  0.37540100  0.46523200  0.33695000  1
  O  O37  1  0.22728600  0.21948900  0.43217400  1
  O  O38  1  0.22638800  0.23191700  0.06838300  1
  O  O39  1  0.21332400  0.21149600  0.24943400  1
  O  O40  1  0.24934600  0.33001400  0.84267700  1
  O  O41  1  0.48501100  0.81280200  0.66512700  1
  O  O42  1  0.53532000  0.90960100  0.33608300  1
  O  O43  1  0.32280400  0.51756400  0.66241600  1
  O  O44  1  0.33208700  0.65833100  0.01457200  1
  O  O45  1  0.33745900  0.67030200  0.51405700  1
  O  O46  1  0.18607100  0.51597000  0.16462200  1
  O  O47  1  0.36835900  0.90363000  0.83329100  1
  O  O48  1  0.32969000  0.80546300  0.16755200  1
  O  O49  1  0.08497200  0.32872600  0.34370500  1
  O  O50  1  0.01507300  0.22099400  0.57448400  1
  O  O51  1  0.09535000  0.46664100  0.83353100  1
  O  O52  1  0.19252200  0.68043400  0.66088600  1
  O  O53  1  0.09949800  0.63121300  0.33371400  1
  O  O54  1  0.24332100  0.92211400  0.34431800  1
  O  O55  1  0.22153700  0.99525800  0.56504200  1
  O  O56  1  0.07949900  0.75260000  0.84169400  1
  O  O57  1  0.99565800  0.77268600  0.06471200  1
loop_
_geom_bond_atom_site_label_1
_geom_bond_atom_site_label_2
_geom_bond_distance
_geom_bond_site_symmetry_2
Li0 O4 2.190580 1_545
Li0 O50 2.198586 1_655
Li0 O37 2.396948 1_655
Li0 O23 2.537125 1_545
Li0 O55 2.613943 1_645
Li0 O9 2.635685 1_545
Li1 O30 2.358534 1_655
Li1 O1 2.372132 1_655
Li1 O29 2.417519 1_546
Li1 O22 2.441668 1_545
Li1 O57 2.456924 1_546
Li1 O38 2.492007 1_656
Li2 O22 1.959283 1_555
Li2 O57 1.971096 1_556
Li2 O56 2.041076 1_655
Li2 O14 2.137181 1_555
Li3 O15 1.802669 1_554
Li3 O13 2.196487 1_555
Li3 O8 2.230028 1_555
Li3 O27 2.250221 1_555
Li4 O9 1.953269 1_555
Li4 O26 2.050640 1_555
Li4 O23 2.066498 1_555
Li4 O17 2.184575 1_555
Li5 O37 1.954916 1_555
Li5 O54 2.018445 1_545
Li5 O55 2.057828 1_545
Li5 O19 2.173013 1_555
Li6 O29 1.870844 1_555
Li6 O22 2.059688 1_554
Li6 O20 2.071484 1_555
Li6 O35 2.215872 1_555
Li7 O30 1.895262 1_555
Li7 O40 2.060475 1_555
Li7 O38 2.077862 1_556
Li7 O25 2.124593 1_555
Li8 O4 1.976148 1_555
Li8 O23 2.003079 1_555
Li8 O5 2.027784 1_565
Li8 O41 2.189274 1_555
Li9 O50 1.884051 1_555
Li9 O37 2.100378 1_555
Li9 O34 2.108567 1_555
Li9 O43 2.140588 1_555
Li10 O1 1.939194 1_554
Li10 O38 1.982144 1_555
Li10 O2 2.002481 1_455
Li10 O46 2.201590 1_555
Li11 O55 1.969121 1_555
Li11 O11 2.042730 1_455
Li11 O9 2.108721 1_455
Li11 O52 2.112538 1_555
Nb0 O7 1.970918 1_555
Nb0 O53 2.047623 1_655
Nb0 O46 2.062989 1_655
Nb0 O49 2.073474 1_655
Nb0 O8 2.141138 1_555
Nb0 O2 2.147922 1_555
Nb1 O6 2.001863 1_455
Nb1 O51 2.065579 1_555
Nb1 O56 2.075885 1_555
Nb1 O52 2.078128 1_555
Nb1 O11 2.121329 1_455
Nb1 O14 2.130783 1_455
Nb2 O12 1.991223 1_555
Nb2 O47 2.058878 1_545
Nb2 O32 2.065328 1_545
Nb2 O18 2.077707 1_555
Nb2 O41 2.078393 1_545
Nb2 O5 2.148967 1_555
Nb3 O48 1.967819 1_555
Nb3 O42 2.062541 1_555
Nb3 O28 2.085819 1_565
Nb3 O19 2.092672 1_565
Nb3 O13 2.104658 1_565
Nb3 O54 2.149962 1_555
Nb4 O35 2.022510 1_555
Nb4 O36 2.028141 1_555
Nb4 O17 2.042434 1_555
Nb4 O26 2.093725 1_555
Nb4 O27 2.097780 1_555
Nb4 O20 2.104683 1_555
Nb5 O33 2.029189 1_555
Nb5 O40 2.054437 1_555
Nb5 O24 2.059329 1_555
Nb5 O34 2.089792 1_555
Nb5 O43 2.091473 1_555
Nb5 O25 2.100977 1_555
O0 P13 1.613823 1_655
O0 P0 1.622951 1_555
O1 P13 1.503941 1_555
O2 P1 1.542452 1_555
O3 P8 1.616846 1_545
O3 P1 1.620249 1_555
O4 P8 1.505926 1_555
O5 P0 1.535008 1_555
O6 P0 1.556843 1_555
O7 P4 1.585004 1_555
O8 P2 1.556324 1_555
O9 P15 1.519659 1_655
O10 P15 1.621985 1_655
O10 P2 1.622480 1_555
O11 P5 1.548206 1_555
O12 P3 1.575057 1_555
O13 P1 1.565496 1_555
O14 P3 1.561397 1_555
O15 P3 1.500777 1_555
O16 P4 1.479330 1_555
O17 P4 1.594203 1_555
O18 P7 1.527177 1_555
O19 P4 1.581632 1_555
O20 P2 1.553203 1_555
O21 P5 1.614460 1_555
O21 P6 1.628205 1_555
O22 P6 1.520049 1_555
O23 P5 1.520590 1_555
O24 P5 1.528204 1_555
O25 P3 1.573491 1_555
O26 P8 1.551468 1_555
O27 P9 1.560051 1_555
O28 P9 1.520439 1_555
O29 P1 1.498315 1_565
O30 P14 1.499944 1_545
O31 P7 1.609012 1_565
O31 P14 1.636289 1_555
O32 P6 1.518332 1_555
O33 P6 1.540467 1_555
O34 P7 1.557461 1_555
O35 P11 1.594742 1_555
O36 P10 1.540814 1_555
O37 P10 1.520366 1_555
O38 P9 1.517282 1_555
O39 P9 1.612309 1_555
O39 P10 1.621611 1_555
O40 P13 1.565709 1_555
O41 P12 1.590561 1_555
O42 P8 1.537568 1_555
O43 P12 1.581678 1_555
O44 P11 1.477573 1_555
O45 P12 1.493258 1_555
O46 P11 1.586345 1_555
O47 P14 1.532791 1_555
O48 P11 1.577450 1_555
O49 P10 1.517505 1_555
O50 P0 1.502713 1_455
O51 P13 1.527302 1_555
O52 P12 1.588510 1_555
O53 P15 1.535727 1_555
O54 P15 1.538471 1_555
O55 P7 1.519860 1_565
O56 P14 1.561033 1_555
O57 P2 1.499281 1_555
