# generated using pymatgen
data_KUP(H2O3)3
_symmetry_space_group_name_H-M   'P 1'
_cell_length_a   7.08863600
_cell_length_b   7.12814000
_cell_length_c   18.07864700
_cell_angle_alpha   90.00000000
_cell_angle_beta   90.00000000
_cell_angle_gamma   90.00000000
_symmetry_Int_Tables_number   1
_chemical_formula_structural   KUP(H2O3)3
_chemical_formula_sum   'K4 U4 P4 H24 O36'
_cell_volume   913.49215444
_cell_formula_units_Z   4
loop_
 _symmetry_equiv_pos_site_id
 _symmetry_equiv_pos_as_xyz
  1  'x, y, z'
loop_
 _atom_site_type_symbol
 _atom_site_label
 _atom_site_symmetry_multiplicity
 _atom_site_fract_x
 _atom_site_fract_y
 _atom_site_fract_z
 _atom_site_occupancy
  K  K0  1  0.02514800  0.64435500  0.18132800  1
  K  K1  1  0.97485200  0.14435500  0.81867200  1
  K  K2  1  0.52514800  0.14435500  0.31867200  1
  K  K3  1  0.47485200  0.64435500  0.68132800  1
  U  U0  1  0.74878300  0.74467900  0.44984200  1
  U  U1  1  0.25121700  0.24467900  0.55015800  1
  U  U2  1  0.24878300  0.24467900  0.05015800  1
  U  U3  1  0.75121700  0.74467900  0.94984200  1
  P  P0  1  0.74917900  0.24646700  0.50065700  1
  P  P1  1  0.25082100  0.74646700  0.49934300  1
  P  P2  1  0.24917900  0.74646700  0.99934300  1
  P  P3  1  0.75082100  0.24646700  0.00065700  1
  H  H0  1  0.53546100  0.71252400  0.18573400  1
  H  H1  1  0.46453900  0.21252400  0.81426600  1
  H  H2  1  0.03546100  0.21252400  0.31426600  1
  H  H3  1  0.96453900  0.71252400  0.68573400  1
  H  H4  1  0.70824200  0.95478800  0.18207600  1
  H  H5  1  0.29175800  0.45478800  0.81792400  1
  H  H6  1  0.20824200  0.45478800  0.31792400  1
  H  H7  1  0.79175800  0.95478800  0.68207600  1
  H  H8  1  0.42793900  0.85697400  0.13693900  1
  H  H9  1  0.57206100  0.35697400  0.86306100  1
  H  H10  1  0.92793900  0.35697400  0.36306100  1
  H  H11  1  0.07206100  0.85697400  0.63693900  1
  H  H12  1  0.64204900  0.40692400  0.14373900  1
  H  H13  1  0.35795100  0.90692400  0.85626100  1
  H  H14  1  0.14204900  0.90692400  0.35626100  1
  H  H15  1  0.85795100  0.40692400  0.64373900  1
  H  H16  1  0.85837100  0.09453600  0.14963000  1
  H  H17  1  0.14162900  0.59453600  0.85037000  1
  H  H18  1  0.35837100  0.59453600  0.35037000  1
  H  H19  1  0.64162900  0.09453600  0.64963000  1
  H  H20  1  0.63653900  0.44711800  0.22928000  1
  H  H21  1  0.36346100  0.94711800  0.77072000  1
  H  H22  1  0.13653900  0.94711800  0.27072000  1
  H  H23  1  0.86346100  0.44711800  0.72928000  1
  O  O0  1  0.75039100  0.75386200  0.34919500  1
  O  O1  1  0.24960900  0.25386200  0.65080500  1
  O  O2  1  0.25039100  0.25386200  0.15080500  1
  O  O3  1  0.74960900  0.75386200  0.84919500  1
  O  O4  1  0.74195900  0.73703400  0.55030100  1
  O  O5  1  0.25804100  0.23703400  0.44969900  1
  O  O6  1  0.24195900  0.23703400  0.94969900  1
  O  O7  1  0.75804100  0.73703400  0.05030100  1
  O  O8  1  0.74750800  0.41818900  0.44752500  1
  O  O9  1  0.25249200  0.91818900  0.55247500  1
  O  O10  1  0.24750800  0.91818900  0.05247500  1
  O  O11  1  0.75249200  0.41818900  0.94752500  1
  O  O12  1  0.42506400  0.74943300  0.44719600  1
  O  O13  1  0.57493600  0.24943300  0.55280400  1
  O  O14  1  0.92506400  0.24943300  0.05280400  1
  O  O15  1  0.07493600  0.74943300  0.94719600  1
  O  O16  1  0.07342500  0.75115200  0.44895000  1
  O  O17  1  0.92657500  0.25115200  0.55105000  1
  O  O18  1  0.57342500  0.25115200  0.05105000  1
  O  O19  1  0.42657500  0.75115200  0.94895000  1
  O  O20  1  0.74820500  0.06784600  0.45171400  1
  O  O21  1  0.25179500  0.56784600  0.54828600  1
  O  O22  1  0.24820500  0.56784600  0.04828600  1
  O  O23  1  0.75179500  0.06784600  0.95171400  1
  O  O24  1  0.48444200  0.84204200  0.18604900  1
  O  O25  1  0.51555800  0.34204200  0.81395100  1
  O  O26  1  0.98444200  0.34204200  0.31395100  1
  O  O27  1  0.01555800  0.84204200  0.68604900  1
  O  O28  1  0.67453300  0.49948700  0.18201800  1
  O  O29  1  0.32546700  0.99948700  0.81798200  1
  O  O30  1  0.17453300  0.99948700  0.31798200  1
  O  O31  1  0.82546700  0.49948700  0.68201800  1
  O  O32  1  0.83185200  0.01559000  0.19268300  1
  O  O33  1  0.16814800  0.51559000  0.80731700  1
  O  O34  1  0.33185200  0.51559000  0.30731700  1
  O  O35  1  0.66814800  0.01559000  0.69268300  1
loop_
_geom_bond_atom_site_label_1
_geom_bond_atom_site_label_2
_geom_bond_distance
_geom_bond_site_symmetry_2
K0 O28 2.691398 1_455
K0 O22 2.929608 1_555
K0 O32 2.986981 1_465
K0 O7 3.103652 1_455
K0 O26 3.236616 1_455
K0 O2 3.256018 1_555
K1 O29 2.691398 1_645
K1 O23 2.929608 1_555
K1 O33 2.986981 1_655
K1 O6 3.103652 1_655
K1 O27 3.236616 1_645
K1 O3 3.256018 1_545
K2 O30 2.691398 1_545
K2 O20 2.929608 1_555
K2 O34 2.986981 1_555
K2 O5 3.103652 1_555
K2 O24 3.236616 1_545
K2 O0 3.256018 1_545
K3 O31 2.691398 1_555
K3 O21 2.929608 1_555
K3 O35 2.986981 1_565
K3 O4 3.103652 1_555
K3 O25 3.236616 1_555
K3 O1 3.256018 1_555
H0 O24 0.991548 1_555
H1 O25 0.991548 1_555
H2 O26 0.991548 1_455
H3 O27 0.991548 1_655
H4 O32 0.996185 1_565
H5 O33 0.996185 1_555
H6 O34 0.996185 1_555
H7 O35 0.996185 1_565
H8 O24 0.979804 1_555
H9 O25 0.979804 1_555
H10 O26 0.979804 1_555
H11 O27 0.979804 1_555
H12 O28 0.983499 1_555
H13 O29 0.983499 1_555
H14 O30 0.983499 1_555
H15 O31 0.983499 1_555
H16 O32 0.978685 1_555
H17 O33 0.978685 1_555
H18 O34 0.978685 1_555
H19 O35 0.978685 1_555
H20 O28 0.970536 1_555
H20 K2 2.809408 1_555
H21 O29 0.970536 1_555
H21 K3 2.809408 1_555
H22 O30 0.970536 1_555
H22 K0 2.809408 1_555
H23 O31 0.970536 1_555
H23 K1 2.809408 1_555
O0 U0 1.820774 1_555
O1 U1 1.820774 1_555
O2 U2 1.820774 1_555
O3 U3 1.820774 1_555
O4 U0 1.817624 1_555
O5 U1 1.817624 1_555
O6 U2 1.817624 1_556
O7 U3 1.817624 1_554
O8 P0 1.555996 1_555
O8 U0 2.327661 1_555
O9 P1 1.555996 1_555
O9 U1 2.327661 1_565
O10 P2 1.555996 1_554
O10 U2 2.327661 1_565
O11 P3 1.555996 1_556
O11 U3 2.327661 1_555
O12 P1 1.553964 1_555
O12 U0 2.295475 1_555
O13 P0 1.553964 1_555
O13 U1 2.295475 1_555
O14 P3 1.553964 1_555
O14 U2 2.295475 1_655
O15 P2 1.553964 1_555
O15 U3 2.295475 1_455
O16 P1 1.553190 1_555
O16 U0 2.301788 1_455
O17 P0 1.553190 1_555
O17 U1 2.301788 1_655
O18 P3 1.553190 1_555
O18 U2 2.301788 1_555
O19 P2 1.553190 1_555
O19 U3 2.301788 1_555
O20 P0 1.550512 1_555
O20 U0 2.303832 1_545
O21 P1 1.550512 1_555
O21 U1 2.303832 1_555
O22 P2 1.550512 1_554
O22 U2 2.303832 1_555
O23 P3 1.550512 1_556
O23 U3 2.303832 1_545
