# generated using pymatgen
data_TiH10N3F5
_symmetry_space_group_name_H-M   'P 1'
_cell_length_a   6.95762137
_cell_length_b   6.95762137
_cell_length_c   12.41346814
_cell_angle_alpha   67.66335104
_cell_angle_beta   67.66335104
_cell_angle_gamma   62.89818823
_symmetry_Int_Tables_number   1
_chemical_formula_structural   TiH10N3F5
_chemical_formula_sum   'Ti2 H20 N6 F10'
_cell_volume   478.92131715
_cell_formula_units_Z   2
loop_
 _symmetry_equiv_pos_site_id
 _symmetry_equiv_pos_as_xyz
  1  'x, y, z'
loop_
 _atom_site_type_symbol
 _atom_site_label
 _atom_site_symmetry_multiplicity
 _atom_site_fract_x
 _atom_site_fract_y
 _atom_site_fract_z
 _atom_site_occupancy
  Ti  Ti0  1  0.89660000  0.14339200  0.97480400  1
  Ti  Ti1  1  0.14339200  0.89660000  0.47480400  1
  H  H0  1  0.70826100  0.83835100  0.94298400  1
  H  H1  1  0.73390500  0.91756100  0.79475100  1
  H  H2  1  0.81767200  0.63957700  0.86633000  1
  H  H3  1  0.54114100  0.80528700  0.88689400  1
  H  H4  1  0.83835100  0.70826100  0.44298400  1
  H  H5  1  0.91756100  0.73390500  0.29475100  1
  H  H6  1  0.80528700  0.54114100  0.38689400  1
  H  H7  1  0.74287300  0.17281100  0.50936200  1
  H  H8  1  0.63957700  0.81767200  0.36633000  1
  H  H9  1  0.38744400  0.19367700  0.62802700  1
  H  H10  1  0.13579500  0.26379800  0.72871900  1
  H  H11  1  0.17492100  0.42812600  0.59266600  1
  H  H12  1  0.15832700  0.18298900  0.60925400  1
  H  H13  1  0.42812600  0.17492100  0.09266600  1
  H  H14  1  0.07085400  0.11466200  0.54179500  1
  H  H15  1  0.17281100  0.74287300  0.00936200  1
  H  H16  1  0.19367700  0.38744400  0.12802700  1
  H  H17  1  0.26379800  0.13579500  0.22871900  1
  H  H18  1  0.18298900  0.15832700  0.10925400  1
  H  H19  1  0.11466200  0.07085400  0.04179500  1
  N  N0  1  0.69967600  0.79968000  0.87208000  1
  N  N1  1  0.80392600  0.21320000  0.82497900  1
  N  N2  1  0.79968000  0.69967600  0.37208000  1
  N  N3  1  0.21518300  0.26403600  0.64012600  1
  N  N4  1  0.21320000  0.80392600  0.32497900  1
  N  N5  1  0.26403600  0.21518300  0.14012600  1
  F  F0  1  0.94377300  0.73676200  0.54121400  1
  F  F1  1  0.65161600  0.14863400  0.59869300  1
  F  F2  1  0.17421600  0.88714500  0.90304000  1
  F  F3  1  0.73676200  0.94377300  0.04121400  1
  F  F4  1  0.88714500  0.17421600  0.40304000  1
  F  F5  1  0.32198200  0.68147500  0.57167200  1
  F  F6  1  0.00617800  0.38449300  0.87059500  1
  F  F7  1  0.68147500  0.32198200  0.07167200  1
  F  F8  1  0.14863400  0.65161600  0.09869300  1
  F  F9  1  0.38449300  0.00617800  0.37059500  1
loop_
_geom_bond_atom_site_label_1
_geom_bond_atom_site_label_2
_geom_bond_distance
_geom_bond_site_symmetry_2
H0 N0 1.041756 1_555
H1 N0 1.027925 1_555
H2 N0 1.050040 1_555
H3 N0 1.031540 1_555
H4 N2 1.041756 1_555
H5 N2 1.027925 1_555
H6 N2 1.031540 1_555
H8 N2 1.050040 1_555
H9 N3 1.040741 1_555
H10 N3 1.025801 1_555
H11 N3 1.025564 1_555
H12 N3 1.050742 1_555
H13 N5 1.025564 1_555
H14 Ti1 1.786181 1_545
H16 N5 1.040741 1_555
H17 N5 1.025801 1_555
H18 N5 1.050742 1_555
H19 Ti0 1.786181 1_454
N1 Ti0 2.012523 1_555
N4 Ti1 2.012523 1_555
F0 Ti1 1.919769 1_655
F1 H7 1.039939 1_555
F2 H15 1.319760 1_556
F2 Ti0 2.112986 1_465
F3 Ti0 1.919769 1_564
F4 H7 1.319760 1_555
F4 Ti1 2.112986 1_645
F5 Ti1 1.817492 1_555
F6 H2 1.653264 1_455
F6 Ti0 1.958280 1_455
F7 Ti0 1.817492 1_554
F8 H15 1.039939 1_555
F9 H8 1.653264 1_545
F9 Ti1 1.958280 1_545
