# generated using pymatgen
data_Mn3Co3(TeO8)2
_symmetry_space_group_name_H-M   'P 1'
_cell_length_a   5.93076800
_cell_length_b   5.97421554
_cell_length_c   9.27570519
_cell_angle_alpha   91.80316990
_cell_angle_beta   89.16206376
_cell_angle_gamma   119.75355316
_symmetry_Int_Tables_number   1
_chemical_formula_structural   Mn3Co3(TeO8)2
_chemical_formula_sum   'Mn3 Co3 Te2 O16'
_cell_volume   285.18531832
_cell_formula_units_Z   1
loop_
 _symmetry_equiv_pos_site_id
 _symmetry_equiv_pos_as_xyz
  1  'x, y, z'
loop_
 _atom_site_type_symbol
 _atom_site_label
 _atom_site_symmetry_multiplicity
 _atom_site_fract_x
 _atom_site_fract_y
 _atom_site_fract_z
 _atom_site_occupancy
  Mn  Mn0  1  0.16974600  0.82693500  0.79202100  1
  Mn  Mn1  1  0.82871500  0.65809900  0.28912100  1
  Mn  Mn2  1  0.33261400  0.16662600  0.29549700  1
  Co  Co0  1  0.66314600  0.82920300  0.78642800  1
  Co  Co1  1  0.17084900  0.33767600  0.78428100  1
  Co  Co2  1  0.82633300  0.16505600  0.28066300  1
  Te  Te0  1  0.33008200  0.66164700  0.51161900  1
  Te  Te1  1  0.67068900  0.33500000  0.01067700  1
  O  O0  1  0.65294900  0.82345400  0.40297600  1
  O  O1  1  0.47820500  0.52185100  0.64923400  1
  O  O2  1  0.33434700  0.67001600  0.88990300  1
  O  O3  1  0.00179700  0.99464400  0.70406300  1
  O  O4  1  0.99621000  0.99232700  0.20335900  1
  O  O5  1  0.16657500  0.33916300  0.40576100  1
  O  O6  1  0.46544200  0.95685000  0.65737300  1
  O  O7  1  0.03949400  0.53044700  0.65854000  1
  O  O8  1  0.83630800  0.17299500  0.90974000  1
  O  O9  1  0.16197400  0.80947700  0.40193500  1
  O  O10  1  0.96172000  0.48967400  0.15726400  1
  O  O11  1  0.51899800  0.04987300  0.15083800  1
  O  O12  1  0.66741600  0.34077400  0.38872000  1
  O  O13  1  0.83743700  0.65386500  0.90104400  1
  O  O14  1  0.54255600  0.50509600  0.15092700  1
  O  O15  1  0.34660000  0.16945000  0.90229200  1
loop_
_geom_bond_atom_site_label_1
_geom_bond_atom_site_label_2
_geom_bond_distance
_geom_bond_site_symmetry_2
Mn0 O2 1.908923 1_555
Mn0 O3 1.930652 1_555
Mn0 O7 1.949107 1_555
Mn0 O6 1.970720 1_555
Mn0 O13 1.990201 1_455
Mn0 O15 2.025566 1_565
Mn1 O12 1.909693 1_555
Mn1 O4 1.927370 1_555
Mn1 O14 1.951693 1_555
Mn1 O10 1.952618 1_555
Mn1 O9 2.011512 1_655
Mn1 O0 2.025363 1_555
Mn2 O12 1.927707 1_555
Mn2 O4 1.930573 1_445
Mn2 O5 1.997484 1_555
Mn2 O11 2.042519 1_555
Mn2 O9 2.124065 1_545
Mn2 O14 2.249506 1_555
Co0 O3 1.904421 1_655
Co0 O2 1.946869 1_555
Co0 O1 2.022096 1_555
Co0 O8 2.091502 1_565
Co0 O6 2.091740 1_555
Co0 O13 2.114941 1_555
Co1 O3 1.909238 1_545
Co1 O2 1.958745 1_555
Co1 O1 2.032693 1_555
Co1 O7 2.072473 1_555
Co1 O8 2.079865 1_455
Co1 O15 2.106447 1_555
Co2 O4 1.886342 1_545
Co2 O12 1.970569 1_555
Co2 O11 2.003285 1_555
Co2 O10 2.069574 1_555
Co2 O5 2.099893 1_655
Co2 O0 2.130292 1_545
O0 Te0 1.945324 1_555
O1 Te0 1.981599 1_555
O5 Te0 1.915914 1_555
O6 Te0 2.014709 1_555
O7 Te0 2.024720 1_555
O8 Te1 1.907299 1_556
O9 Te0 1.941464 1_555
O10 Te1 2.021974 1_555
O11 Te1 1.996330 1_555
O13 Te1 1.965627 1_556
O14 Te1 1.989190 1_555
O15 Te1 1.946914 1_556
