# generated using pymatgen
data_Li7Ni(O2F)2
_symmetry_space_group_name_H-M   'P 1'
_cell_length_a   5.35613700
_cell_length_b   5.63707400
_cell_length_c   10.07127862
_cell_angle_alpha   105.81951251
_cell_angle_beta   85.88191179
_cell_angle_gamma   115.99099197
_symmetry_Int_Tables_number   1
_chemical_formula_structural   Li7Ni(O2F)2
_chemical_formula_sum   'Li14 Ni2 O8 F4'
_cell_volume   262.57586632
_cell_formula_units_Z   2
loop_
 _symmetry_equiv_pos_site_id
 _symmetry_equiv_pos_as_xyz
  1  'x, y, z'
loop_
 _atom_site_type_symbol
 _atom_site_label
 _atom_site_symmetry_multiplicity
 _atom_site_fract_x
 _atom_site_fract_y
 _atom_site_fract_z
 _atom_site_occupancy
  Li  Li0  1  0.05710700  0.19014800  0.77304700  1
  Li  Li1  1  0.47374500  0.12405800  0.25404500  1
  Li  Li2  1  0.54228000  0.44102100  0.61567900  1
  Li  Li3  1  0.96602700  0.54251100  0.88494300  1
  Li  Li4  1  0.04843500  0.22519800  0.55776900  1
  Li  Li5  1  0.51709300  0.24208600  0.03791300  1
  Li  Li6  1  0.95633000  0.32834900  0.32322900  1
  Li  Li7  1  0.48421100  0.82189400  0.93942300  1
  Li  Li8  1  0.98034300  0.75251900  0.47293300  1
  Li  Li9  1  0.98184500  0.39773400  0.10737400  1
  Li  Li10  1  0.49503600  0.58664800  0.38358000  1
  Li  Li11  1  0.46748100  0.81508000  0.72098400  1
  Li  Li12  1  0.98769400  0.84792000  0.24881000  1
  Li  Li13  1  0.50324700  0.68758300  0.16327500  1
  Ni  Ni0  1  0.00249300  0.91713900  0.04287200  1
  Ni  Ni1  1  0.51108500  0.01462100  0.49164300  1
  O  O0  1  0.26165800  0.57326900  0.60237800  1
  O  O1  1  0.28024800  0.83887100  0.19774000  1
  O  O2  1  0.17146300  0.83527500  0.97102700  1
  O  O3  1  0.66748700  0.88490900  0.43462900  1
  O  O4  1  0.69571600  0.52271600  0.10774500  1
  O  O5  1  0.34236100  0.15289000  0.53735200  1
  O  O6  1  0.82040500  0.10215600  0.06221100  1
  O  O7  1  0.77879300  0.44846300  0.39197700  1
  F  F0  1  0.85459900  0.87993100  0.72121700  1
  F  F1  1  0.29688500  0.50108400  0.88943300  1
  F  F2  1  0.69714600  0.15947500  0.78654400  1
  F  F3  1  0.15879000  0.16645700  0.28022500  1
loop_
_geom_bond_atom_site_label_1
_geom_bond_atom_site_label_2
_geom_bond_distance
_geom_bond_site_symmetry_2
Li1 O1 1.451620 1_545
Li1 O7 2.065342 1_555
Li2 O5 1.518347 1_555
Li2 O0 1.974414 1_555
Li3 O2 1.565672 1_655
Li4 O0 1.727732 1_555
Li4 O5 1.776823 1_555
Li4 O3 2.239840 1_445
Li5 O4 1.440837 1_555
Li5 O6 2.146354 1_555
Li5 O2 2.180773 1_544
Li6 O7 1.433956 1_555
Li7 O2 1.712924 1_555
Li7 O6 2.007230 1_566
Li8 O7 1.584512 1_555
Li8 O5 2.195718 1_665
Li9 O6 1.453038 1_555
Li9 O4 1.946576 1_555
Li9 O1 2.249024 1_655
Li10 O3 1.476521 1_555
Li10 O0 2.456892 1_555
Li11 O0 1.576250 1_555
Li12 O1 1.631719 1_655
Li12 O4 2.052105 1_555
Li13 O4 1.647046 1_555
Li13 O1 1.716465 1_555
Ni0 O2 1.282782 1_554
Ni0 O6 1.682367 1_465
Ni1 O3 1.343495 1_545
Ni1 O5 1.413544 1_555
F0 Li0 1.558260 1_665
F0 Li11 1.941327 1_555
F0 Li2 2.289899 1_555
F0 Li8 2.534768 1_555
F1 Li7 1.586323 1_555
F1 Li0 1.794054 1_555
F1 Li3 1.891288 1_455
F2 Li11 1.744358 1_545
F2 Li0 1.857028 1_655
F2 Li3 2.007788 1_555
F3 Li12 1.566466 1_445
F3 Li6 1.667561 1_455
F3 Li1 1.796540 1_555
