# generated using pymatgen
data_Li5Fe8(BO3)8
_symmetry_space_group_name_H-M   'P 1'
_cell_length_a   5.26413400
_cell_length_b   9.10420462
_cell_length_c   11.36040898
_cell_angle_alpha   113.27511140
_cell_angle_beta   102.86607802
_cell_angle_gamma   90.06367594
_symmetry_Int_Tables_number   1
_chemical_formula_structural   Li5Fe8(BO3)8
_chemical_formula_sum   'Li5 Fe8 B8 O24'
_cell_volume   485.17098171
_cell_formula_units_Z   1
loop_
 _symmetry_equiv_pos_site_id
 _symmetry_equiv_pos_as_xyz
  1  'x, y, z'
loop_
 _atom_site_type_symbol
 _atom_site_label
 _atom_site_symmetry_multiplicity
 _atom_site_fract_x
 _atom_site_fract_y
 _atom_site_fract_z
 _atom_site_occupancy
  Li  Li0  1  0.02579800  0.03983200  0.40285200  1
  Li  Li1  1  0.48534100  0.50963600  0.66465300  1
  Li  Li2  1  0.26990800  0.24964600  0.16754400  1
  Li  Li3  1  0.98739000  0.01202600  0.66820500  1
  Li  Li4  1  0.77000400  0.74338300  0.15884400  1
  Fe  Fe0  1  0.01906900  0.35980000  0.38149100  1
  Fe  Fe1  1  0.27231700  0.93415400  0.88164200  1
  Fe  Fe2  1  0.46925000  0.15751800  0.63315800  1
  Fe  Fe3  1  0.24990100  0.55742200  0.12613000  1
  Fe  Fe4  1  0.77254800  0.43526700  0.88338300  1
  Fe  Fe5  1  0.52008900  0.84832400  0.38241900  1
  Fe  Fe6  1  0.96286500  0.65648500  0.62760500  1
  Fe  Fe7  1  0.74966000  0.06126400  0.12821900  1
  B  B0  1  0.02048500  0.69319200  0.37856900  1
  B  B1  1  0.26459600  0.60061800  0.87405800  1
  B  B2  1  0.47654900  0.81693000  0.63098300  1
  B  B3  1  0.24109800  0.89677800  0.13150300  1
  B  B4  1  0.51619500  0.17507200  0.37286400  1
  B  B5  1  0.76581400  0.10101200  0.87605600  1
  B  B6  1  0.97645200  0.31625400  0.62634700  1
  B  B7  1  0.73298000  0.39311700  0.12617400  1
  O  O0  1  0.01431800  0.07413500  0.85903400  1
  O  O1  1  0.14202200  0.71750200  0.83978600  1
  O  O2  1  0.13478200  0.51212200  0.92157200  1
  O  O3  1  0.08108800  0.17132200  0.60936900  1
  O  O4  1  0.09648800  0.42841900  0.59682800  1
  O  O5  1  0.24569700  0.85685200  0.67430700  1
  O  O6  1  0.25518000  0.67932400  0.33837100  1
  O  O7  1  0.51444200  0.57242300  0.85965000  1
  O  O8  1  0.64059500  0.21710700  0.83979100  1
  O  O9  1  0.42210600  0.06598500  0.41919200  1
  O  O10  1  0.36278000  0.28681300  0.35590500  1
  O  O11  1  0.63658000  0.01098100  0.92169600  1
  O  O12  1  0.33739400  0.00056700  0.08306700  1
  O  O13  1  0.59289100  0.68585500  0.63317600  1
  O  O14  1  0.58721200  0.92034000  0.58491400  1
  O  O15  1  0.41273900  0.79721800  0.17177900  1
  O  O16  1  0.47635800  0.38791000  0.12818200  1
  O  O17  1  0.74622300  0.34814000  0.67200200  1
  O  O18  1  0.75947900  0.15939000  0.34407900  1
  O  O19  1  0.93525600  0.59077400  0.42441500  1
  O  O20  1  0.87490800  0.81710400  0.36535400  1
  O  O21  1  0.83601800  0.50600400  0.08554800  1
  O  O22  1  0.89900100  0.29239100  0.16247200  1
  O  O23  1  0.98987700  0.89659300  0.14316400  1
loop_
_geom_bond_atom_site_label_1
_geom_bond_atom_site_label_2
_geom_bond_distance
_geom_bond_site_symmetry_2
Li0 O18 1.938274 1_455
Li0 O20 2.021700 1_445
Li0 O9 2.057901 1_555
Li0 O3 2.120752 1_555
Li1 O13 1.887809 1_555
Li1 O17 2.026122 1_555
Li1 O7 2.026196 1_555
Li1 O4 2.043160 1_555
Li2 O16 1.903633 1_555
Li2 O10 1.973323 1_555
Li2 O22 1.984022 1_455
Li2 O12 2.150178 1_555
Li3 O3 1.924738 1_655
Li3 O5 1.972123 1_645
Li3 O0 1.983379 1_655
Li3 O14 2.124620 1_545
Li4 O23 1.897792 1_555
Li4 O15 1.966474 1_555
Li4 O21 2.047692 1_555
Li4 O20 2.106452 1_555
Fe0 O10 1.970785 1_555
Fe0 O19 2.035156 1_455
Fe0 O18 2.121327 1_455
Fe0 O4 2.210992 1_555
Fe0 O22 2.249221 1_455
Fe1 O0 1.908357 1_565
Fe1 O1 1.922918 1_555
Fe1 O11 1.931350 1_565
Fe1 O12 2.067880 1_566
Fe1 O5 2.146073 1_555
Fe2 O3 2.011353 1_555
Fe2 O17 2.105944 1_555
Fe2 O14 2.137265 1_545
Fe2 O8 2.160523 1_555
Fe2 O9 2.189656 1_555
Fe3 O16 1.955372 1_555
Fe3 O2 2.133664 1_554
Fe3 O21 2.135045 1_455
Fe3 O15 2.161714 1_555
Fe3 O6 2.213913 1_555
Fe4 O7 1.893333 1_555
Fe4 O2 1.924210 1_655
Fe4 O8 1.933658 1_555
Fe4 O21 2.071228 1_556
Fe4 O17 2.182015 1_555
Fe5 O6 1.907458 1_555
Fe5 O20 1.930285 1_555
Fe5 O9 1.952287 1_565
Fe5 O14 2.071763 1_555
Fe5 O15 2.186172 1_555
Fe6 O13 1.977700 1_555
Fe6 O19 2.113390 1_555
Fe6 O4 2.113609 1_655
Fe6 O5 2.168676 1_655
Fe6 O1 2.221837 1_655
Fe7 O23 1.996304 1_545
Fe7 O22 2.100050 1_555
Fe7 O12 2.134458 1_555
Fe7 O11 2.144086 1_554
Fe7 O18 2.241974 1_555
B0 O19 1.352377 1_455
B0 O6 1.398893 1_555
B0 O20 1.402497 1_455
B1 O7 1.373285 1_555
B1 O2 1.383549 1_555
B1 O1 1.384699 1_555
B2 O13 1.348359 1_555
B2 O5 1.406100 1_555
B2 O14 1.422527 1_555
B3 O23 1.358178 1_455
B3 O12 1.409493 1_565
B3 O15 1.411664 1_555
B4 O10 1.345989 1_555
B4 O18 1.384730 1_555
B4 O9 1.427147 1_555
B5 O0 1.372779 1_655
B5 O11 1.376663 1_555
B5 O8 1.395036 1_555
B6 O4 1.384956 1_655
B6 O3 1.389049 1_655
B6 O17 1.408492 1_555
B7 O16 1.357245 1_555
B7 O22 1.383805 1_555
B7 O21 1.431288 1_555
