# generated using pymatgen
data_Li7Mn5O12
_symmetry_space_group_name_H-M   'P 1'
_cell_length_a   5.04181765
_cell_length_b   5.04183615
_cell_length_c   19.60135695
_cell_angle_alpha   93.75260013
_cell_angle_beta   93.75238033
_cell_angle_gamma   117.57774961
_symmetry_Int_Tables_number   1
_chemical_formula_structural   Li7Mn5O12
_chemical_formula_sum   'Li14 Mn10 O24'
_cell_volume   438.11888805
_cell_formula_units_Z   2
loop_
 _symmetry_equiv_pos_site_id
 _symmetry_equiv_pos_as_xyz
  1  'x, y, z'
loop_
 _atom_site_type_symbol
 _atom_site_label
 _atom_site_symmetry_multiplicity
 _atom_site_fract_x
 _atom_site_fract_y
 _atom_site_fract_z
 _atom_site_occupancy
  Li  Li0  1  0.33334000  0.66667700  0.99999700  1
  Li  Li1  1  0.33335100  0.66666500  0.49999700  1
  Li  Li2  1  0.08192200  0.41526300  0.12126700  1
  Li  Li3  1  0.08190300  0.41528200  0.62130200  1
  Li  Li4  1  0.58471100  0.91810700  0.37869800  1
  Li  Li5  1  0.58474400  0.91807600  0.87873000  1
  Li  Li6  1  0.41773400  0.07790300  0.12379500  1
  Li  Li7  1  0.41780600  0.07797100  0.62384800  1
  Li  Li8  1  0.92204900  0.58220000  0.37614600  1
  Li  Li9  1  0.92211500  0.58228700  0.87620100  1
  Li  Li10  1  0.74454800  0.75103600  0.12379200  1
  Li  Li11  1  0.74466300  0.75120100  0.62384700  1
  Li  Li12  1  0.24882300  0.25535500  0.37615200  1
  Li  Li13  1  0.24896900  0.25546900  0.87620000  1
  Mn  Mn0  1  0.83339400  0.16645800  0.25000700  1
  Mn  Mn1  1  0.83332700  0.16659400  0.75006200  1
  Mn  Mn2  1  0.00145300  0.99857200  0.99999600  1
  Mn  Mn3  1  0.66521700  0.33479400  0.99999300  1
  Mn  Mn4  1  0.66546900  0.33459400  0.49999900  1
  Mn  Mn5  1  0.00127700  0.99869200  0.49999600  1
  Mn  Mn6  1  0.50010500  0.49980900  0.24999700  1
  Mn  Mn7  1  0.50020500  0.49984800  0.74999200  1
  Mn  Mn8  1  0.16646700  0.83353200  0.24998500  1
  Mn  Mn9  1  0.16652200  0.83349800  0.75001300  1
  O  O0  1  0.72530500  0.05864200  0.05596100  1
  O  O1  1  0.72619300  0.05948700  0.55610800  1
  O  O2  1  0.94053300  0.27381600  0.44388400  1
  O  O3  1  0.94137300  0.27471800  0.94402700  1
  O  O4  1  0.23496200  0.56832500  0.31025400  1
  O  O5  1  0.23478800  0.56818700  0.81024300  1
  O  O6  1  0.43181900  0.76522100  0.18975400  1
  O  O7  1  0.43167700  0.76504400  0.68974000  1
  O  O8  1  0.99853200  0.68853400  0.05444400  1
  O  O9  1  0.99703000  0.68788600  0.55440700  1
  O  O10  1  0.35517400  0.33186900  0.05444900  1
  O  O11  1  0.35462700  0.33037800  0.55442700  1
  O  O12  1  0.31213000  0.00299000  0.44559000  1
  O  O13  1  0.31148300  0.00147800  0.94554300  1
  O  O14  1  0.66962800  0.64538500  0.44556300  1
  O  O15  1  0.66813800  0.64483600  0.94554000  1
  O  O16  1  0.56595700  0.23347300  0.30886200  1
  O  O17  1  0.56602400  0.23354700  0.80889900  1
  O  O18  1  0.90026700  0.89937000  0.30887900  1
  O  O19  1  0.90016700  0.89944600  0.80891600  1
  O  O20  1  0.76647200  0.43390700  0.19112100  1
  O  O21  1  0.76649700  0.43403400  0.69114200  1
  O  O22  1  0.10054100  0.09980600  0.19108900  1
  O  O23  1  0.10056800  0.09973800  0.69114500  1
loop_
_geom_bond_atom_site_label_1
_geom_bond_atom_site_label_2
_geom_bond_distance
_geom_bond_site_symmetry_2
Li0 O8 2.096011 1_456
Li0 O10 2.096029 1_556
Li0 O15 2.096045 1_555
Li0 O13 2.096066 1_565
Li0 O0 2.197875 1_566
Li0 O3 2.197910 1_455
Li1 O12 2.100930 1_565
Li1 O9 2.100937 1_455
Li1 O14 2.101124 1_555
Li1 O11 2.101124 1_555
Li1 O1 2.202910 1_565
Li1 O2 2.202932 1_455
Li2 O10 2.119107 1_555
Li2 O8 2.119243 1_455
Li2 O0 2.123318 1_455
Li2 O6 2.127303 1_555
Li2 O22 2.194968 1_555
Li2 O20 2.195393 1_455
Li3 O1 2.118609 1_455
Li3 O9 2.120967 1_455
Li3 O11 2.121251 1_555
Li3 O7 2.126151 1_555
Li3 O21 2.195219 1_455
Li3 O23 2.195665 1_555
Li4 O2 2.118586 1_565
Li4 O12 2.120854 1_565
Li4 O14 2.121154 1_555
Li4 O4 2.126202 1_555
Li4 O16 2.195021 1_565
Li4 O18 2.195513 1_555
Li5 O15 2.118965 1_555
Li5 O13 2.119097 1_565
Li5 O3 2.123300 1_565
Li5 O5 2.127283 1_555
Li5 O19 2.194739 1_555
Li5 O17 2.195313 1_565
Li6 O10 2.032816 1_555
Li6 O20 2.125777 1_555
Li6 O6 2.126114 1_545
Li6 O0 2.138809 1_555
Li6 O22 2.174900 1_555
Li6 O8 2.366801 1_445
Li7 O11 2.029252 1_555
Li7 O21 2.125488 1_555
Li7 O7 2.125876 1_545
Li7 O1 2.139489 1_555
Li7 O23 2.174879 1_555
Li7 O9 2.372726 1_445
Li8 O14 2.029254 1_555
Li8 O16 2.125521 1_555
Li8 O4 2.125818 1_655
Li8 O2 2.139459 1_555
Li8 O18 2.174257 1_555
Li8 O12 2.372779 1_665
Li9 O15 2.032732 1_555
Li9 O17 2.125725 1_555
Li9 O5 2.126082 1_655
Li9 O3 2.138699 1_555
Li9 O19 2.174737 1_555
Li9 O13 2.366692 1_665
Li10 O8 2.032786 1_555
Li10 O22 2.125526 1_665
Li10 O6 2.126503 1_555
Li10 O0 2.138886 1_565
Li10 O20 2.175135 1_555
Li10 O10 2.366656 1_555
Li11 O9 2.029632 1_555
Li11 O23 2.124885 1_665
Li11 O7 2.126070 1_555
Li11 O1 2.139059 1_565
Li11 O21 2.174695 1_555
Li11 O11 2.372556 1_555
Li12 O12 2.029588 1_555
Li12 O18 2.124842 1_445
Li12 O4 2.126108 1_555
Li12 O2 2.138960 1_455
Li12 O16 2.174574 1_555
Li12 O14 2.372419 1_555
Li13 O13 2.032775 1_555
Li13 O19 2.125524 1_445
Li13 O5 2.126396 1_555
Li13 O3 2.138796 1_455
Li13 O17 2.174468 1_555
Li13 O15 2.366619 1_555
Mn0 O18 1.957438 1_545
Mn0 O22 1.957729 1_655
Mn0 O16 1.958966 1_555
Mn0 O20 1.959188 1_555
Mn0 O6 2.273426 1_545
Mn0 O4 2.274774 1_655
Mn1 O19 1.957387 1_545
Mn1 O17 1.958060 1_555
Mn1 O23 1.958564 1_655
Mn1 O21 1.959357 1_555
Mn1 O5 2.273400 1_655
Mn1 O7 2.274840 1_545
Mn2 O0 1.944332 1_466
Mn2 O3 1.944401 1_465
Mn2 O8 1.944695 1_456
Mn2 O13 1.944737 1_565
Mn2 O10 1.971001 1_566
Mn2 O15 1.971099 1_455
Mn3 O3 1.944391 1_555
Mn3 O0 1.944433 1_556
Mn3 O15 1.944770 1_555
Mn3 O10 1.944795 1_556
Mn3 O13 1.971045 1_555
Mn3 O8 1.971066 1_556
Mn4 O1 1.943197 1_555
Mn4 O2 1.943204 1_555
Mn4 O14 1.945684 1_555
Mn4 O11 1.945703 1_555
Mn4 O9 1.966123 1_555
Mn4 O12 1.966330 1_555
Mn5 O1 1.943291 1_465
Mn5 O2 1.943348 1_465
Mn5 O9 1.945308 1_455
Mn5 O12 1.945355 1_565
Mn5 O14 1.966544 1_455
Mn5 O11 1.966704 1_565
Mn6 O16 1.951975 1_555
Mn6 O20 1.952342 1_555
Mn6 O4 1.970342 1_555
Mn6 O6 1.970738 1_555
Mn6 O22 2.255624 1_555
Mn6 O18 2.255774 1_555
Mn7 O21 1.951519 1_555
Mn7 O17 1.952273 1_555
Mn7 O7 1.970528 1_555
Mn7 O5 1.970970 1_555
Mn7 O23 2.255557 1_555
Mn7 O19 2.255732 1_555
Mn8 O18 1.951740 1_455
Mn8 O22 1.952271 1_565
Mn8 O6 1.970397 1_555
Mn8 O4 1.970709 1_555
Mn8 O16 2.255078 1_565
Mn8 O20 2.255402 1_455
Mn9 O23 1.951854 1_565
Mn9 O19 1.952729 1_455
Mn9 O5 1.970125 1_555
Mn9 O7 1.970448 1_555
Mn9 O21 2.255162 1_455
Mn9 O17 2.255418 1_565
