# generated using pymatgen
data_Cr4OF11
_symmetry_space_group_name_H-M   'P 1'
_cell_length_a   5.06381554
_cell_length_b   5.33284916
_cell_length_c   16.90726299
_cell_angle_alpha   91.03478005
_cell_angle_beta   97.95648949
_cell_angle_gamma   62.06799634
_symmetry_Int_Tables_number   1
_chemical_formula_structural   Cr4OF11
_chemical_formula_sum   'Cr8 O2 F22'
_cell_volume   398.92981741
_cell_formula_units_Z   2
loop_
 _symmetry_equiv_pos_site_id
 _symmetry_equiv_pos_as_xyz
  1  'x, y, z'
loop_
 _atom_site_type_symbol
 _atom_site_label
 _atom_site_symmetry_multiplicity
 _atom_site_fract_x
 _atom_site_fract_y
 _atom_site_fract_z
 _atom_site_occupancy
  Cr  Cr0  1  0.74456300  0.61603000  0.12876200  1
  Cr  Cr1  1  0.74905400  0.12234700  0.62597600  1
  Cr  Cr2  1  0.49175100  0.73893100  0.75284200  1
  Cr  Cr3  1  0.50824900  0.26106900  0.24715800  1
  Cr  Cr4  1  0.25094600  0.87765300  0.37402400  1
  Cr  Cr5  1  0.25543700  0.38397000  0.87123800  1
  Cr  Cr6  1  0.00000000  0.50000000  0.50000000  1
  Cr  Cr7  1  0.00000000  0.00000000  0.00000000  1
  O  O0  1  0.68655900  0.46815000  0.21810800  1
  O  O1  1  0.31344100  0.53185000  0.78189200  1
  F  F0  1  0.81568900  0.78075600  0.03497700  1
  F  F1  1  0.74376800  0.93739100  0.18707500  1
  F  F2  1  0.75463100  0.81145900  0.56281600  1
  F  F3  1  0.75237500  0.31267400  0.06248200  1
  F  F4  1  0.68174700  0.96184100  0.71860400  1
  F  F5  1  0.68565800  0.65852700  0.40719400  1
  F  F6  1  0.81627900  0.59197600  0.84337500  1
  F  F7  1  0.81439700  0.09140100  0.34132800  1
  F  F8  1  0.81296300  0.28042200  0.53208400  1
  F  F9  1  0.31482400  0.84254500  0.09286700  1
  F  F10  1  0.74308900  0.43820400  0.68816600  1
  F  F11  1  0.25691100  0.56179600  0.31183400  1
  F  F12  1  0.68517600  0.15745400  0.90713300  1
  F  F13  1  0.18560300  0.90859900  0.65867200  1
  F  F14  1  0.18372100  0.40802400  0.15662500  1
  F  F15  1  0.18703700  0.71957800  0.46791600  1
  F  F16  1  0.31434200  0.34147300  0.59280600  1
  F  F17  1  0.31825300  0.03815900  0.28139600  1
  F  F18  1  0.24762500  0.68732600  0.93751800  1
  F  F19  1  0.24536900  0.18854100  0.43718400  1
  F  F20  1  0.25623200  0.06260900  0.81292500  1
  F  F21  1  0.18431100  0.21924400  0.96502300  1
loop_
_geom_bond_atom_site_label_1
_geom_bond_atom_site_label_2
_geom_bond_distance
_geom_bond_site_symmetry_2
Cr0 O0 1.836564 1_555
Cr0 F9 1.939378 1_555
Cr0 F3 1.939407 1_555
Cr0 F14 1.953352 1_655
Cr0 F1 1.960269 1_555
Cr0 F0 1.980030 1_555
Cr1 F4 1.941892 1_545
Cr1 F8 1.944614 1_555
Cr1 F2 1.946885 1_545
Cr1 F16 1.948789 1_555
Cr1 F13 1.953317 1_645
Cr1 F10 1.959823 1_555
Cr2 O1 1.831008 1_555
Cr2 F20 1.943514 1_565
Cr2 F10 1.948656 1_555
Cr2 F6 1.948875 1_555
Cr2 F13 1.952330 1_555
Cr2 F4 1.981000 1_555
Cr3 O0 1.831008 1_555
Cr3 F1 1.943514 1_545
Cr3 F11 1.948656 1_555
Cr3 F14 1.948875 1_555
Cr3 F7 1.952330 1_555
Cr3 F17 1.981000 1_555
Cr4 F17 1.941892 1_565
Cr4 F15 1.944614 1_555
Cr4 F19 1.946885 1_565
Cr4 F5 1.948789 1_555
Cr4 F7 1.953317 1_465
Cr4 F11 1.959823 1_555
Cr5 O1 1.836564 1_555
Cr5 F12 1.939378 1_555
Cr5 F18 1.939407 1_555
Cr5 F6 1.953352 1_455
Cr5 F20 1.960269 1_555
Cr5 F21 1.980030 1_555
Cr6 F15 1.940791 1_555
Cr6 F8 1.940791 1_455
Cr6 F2 1.949037 1_455
Cr6 F19 1.949037 1_555
Cr6 F16 1.950963 1_555
Cr6 F5 1.950963 1_455
Cr7 F0 1.946252 1_445
Cr7 F21 1.946252 1_554
Cr7 F12 1.952545 1_454
Cr7 F9 1.952545 1_545
Cr7 F3 1.952682 1_455
Cr7 F18 1.952682 1_544
