# generated using pymatgen
data_LiMnF3
_symmetry_space_group_name_H-M   'P 1'
_cell_length_a   10.66651490
_cell_length_b   10.66651490
_cell_length_c   10.66651490
_cell_angle_alpha   109.72241793
_cell_angle_beta   109.72241793
_cell_angle_gamma   108.96998576
_symmetry_Int_Tables_number   1
_chemical_formula_structural   LiMnF3
_chemical_formula_sum   'Li16 Mn16 F48'
_cell_volume   934.15907962
_cell_formula_units_Z   16
loop_
 _symmetry_equiv_pos_site_id
 _symmetry_equiv_pos_as_xyz
  1  'x, y, z'
loop_
 _atom_site_type_symbol
 _atom_site_label
 _atom_site_symmetry_multiplicity
 _atom_site_fract_x
 _atom_site_fract_y
 _atom_site_fract_z
 _atom_site_occupancy
  Li  Li0  1  0.74864300  0.87196500  0.37136500  1
  Li  Li1  1  0.37500000  0.62500000  0.25000000  1
  Li  Li2  1  0.62196500  0.75060000  0.62332200  1
  Li  Li3  1  0.87500000  0.62500000  0.25000000  1
  Li  Li4  1  0.75000000  0.25000000  0.50000000  1
  Li  Li5  1  0.37500000  0.62500000  0.75000000  1
  Li  Li6  1  0.25000000  0.75000000  0.50000000  1
  Li  Li7  1  0.12727800  0.99864300  0.37667800  1
  Li  Li8  1  0.24940000  0.87272200  0.87136500  1
  Li  Li9  1  0.37500000  0.12500000  0.75000000  1
  Li  Li10  1  0.50060000  0.37727800  0.62863500  1
  Li  Li11  1  0.62272200  0.25135700  0.12332200  1
  Li  Li12  1  0.00000000  0.00000000  0.00000000  1
  Li  Li13  1  0.50000000  0.50000000  0.00000000  1
  Li  Li14  1  0.12803500  0.49940000  0.87667800  1
  Li  Li15  1  0.00135700  0.37803500  0.12863500  1
  Mn  Mn0  1  0.74466900  0.74466900  0.00000000  1
  Mn  Mn1  1  0.37500000  0.12500000  0.25000000  1
  Mn  Mn2  1  0.49466900  0.99466900  0.50000000  1
  Mn  Mn3  1  0.63339200  0.52168100  0.36591400  1
  Mn  Mn4  1  0.59423300  0.98252100  0.86591400  1
  Mn  Mn5  1  0.73252100  0.36660800  0.88828900  1
  Mn  Mn6  1  0.27168100  0.40576700  0.38828900  1
  Mn  Mn7  1  0.87500000  0.12500000  0.25000000  1
  Mn  Mn8  1  0.87500000  0.62500000  0.75000000  1
  Mn  Mn9  1  0.47831900  0.84423300  0.11171100  1
  Mn  Mn10  1  0.01747900  0.88339200  0.61171100  1
  Mn  Mn11  1  0.15576700  0.26747900  0.63408600  1
  Mn  Mn12  1  0.11660800  0.72831900  0.13408600  1
  Mn  Mn13  1  0.00533100  0.50533100  0.50000000  1
  Mn  Mn14  1  0.87500000  0.12500000  0.75000000  1
  Mn  Mn15  1  0.25533100  0.25533100  0.00000000  1
  F  F0  1  0.79974300  0.72682900  0.38511400  1
  F  F1  1  0.78254300  0.71533600  0.61823100  1
  F  F2  1  0.29058300  0.75726100  0.34492100  1
  F  F3  1  0.55664000  0.08258700  0.34551100  1
  F  F4  1  0.57974600  0.76097200  0.77934200  1
  F  F5  1  0.65097700  0.94102600  0.64751000  1
  F  F6  1  0.29351700  0.00346700  0.35249000  1
  F  F7  1  0.05433900  0.70941700  0.46667800  1
  F  F8  1  0.50726100  0.66234000  0.96667800  1
  F  F9  1  0.98163000  0.80040400  0.22065800  1
  F  F10  1  0.73707600  0.21112900  0.65448900  1
  F  F11  1  0.83258700  0.98707600  0.02594600  1
  F  F12  1  0.78887100  0.44336000  0.52594600  1
  F  F13  1  0.41234000  0.94566100  0.65507900  1
  F  F14  1  0.40828400  0.83537000  0.88511400  1
  F  F15  1  0.46533600  0.34710500  0.43279300  1
  F  F16  1  0.83568900  0.21745700  0.93279300  1
  F  F17  1  0.75346700  0.90097700  0.20995100  1
  F  F18  1  0.05897400  0.70648300  0.70995100  1
  F  F19  1  0.55040400  0.82974600  0.31877400  1
  F  F20  1  0.23902800  0.01837000  0.81877400  1
  F  F21  1  0.09710500  0.16431100  0.38176900  1
  F  F22  1  0.16463000  0.04974300  0.57291400  1
  F  F23  1  0.27317100  0.65828400  0.07291400  1
  F  F24  1  0.47682900  0.59171600  0.42708600  1
  F  F25  1  0.58537000  0.20025700  0.92708600  1
  F  F26  1  0.65289500  0.08568900  0.11823100  1
  F  F27  1  0.19959600  0.42025400  0.18122600  1
  F  F28  1  0.51097200  0.23163000  0.68122600  1
  F  F29  1  0.69102600  0.54351700  0.79004900  1
  F  F30  1  0.99653200  0.34902300  0.29004900  1
  F  F31  1  0.28466400  0.90289500  0.06720700  1
  F  F32  1  0.91431100  0.03254300  0.56720700  1
  F  F33  1  0.34171600  0.41463000  0.61488600  1
  F  F34  1  0.33766000  0.30433900  0.84492100  1
  F  F35  1  0.91741300  0.26292400  0.47405400  1
  F  F36  1  0.96112900  0.80664000  0.97405400  1
  F  F37  1  0.01292400  0.03887100  0.84551100  1
  F  F38  1  0.76837000  0.44959600  0.27934200  1
  F  F39  1  0.69566100  0.54058300  0.03332200  1
  F  F40  1  0.24273900  0.58766000  0.53332200  1
  F  F41  1  0.45648300  0.24653300  0.14751000  1
  F  F42  1  0.09902300  0.30897400  0.85249000  1
  F  F43  1  0.17025400  0.48902800  0.72065800  1
  F  F44  1  0.19336000  0.16741300  0.15448900  1
  F  F45  1  0.45941700  0.49273900  0.15507900  1
  F  F46  1  0.96745700  0.53466400  0.88176900  1
  F  F47  1  0.95025700  0.52317100  0.11488600  1
loop_
_geom_bond_atom_site_label_1
_geom_bond_atom_site_label_2
_geom_bond_distance
_geom_bond_site_symmetry_2
F0 Li0 1.833868 1_555
F0 Li3 2.047518 1_555
F0 Mn3 2.215085 1_555
F0 Mn10 2.233867 1_655
F1 Li2 1.883082 1_555
F1 Mn8 2.114917 1_555
F1 Mn3 2.294047 1_555
F1 Mn10 2.603686 1_655
F2 Li6 1.864820 1_555
F2 Li1 2.074439 1_555
F2 Mn12 2.222324 1_555
F2 Mn2 2.246376 1_555
F3 Li4 1.866452 1_555
F3 Mn1 2.131915 1_555
F3 Mn2 2.325284 1_545
F3 Mn9 2.512900 1_545
F4 Li2 1.843503 1_555
F4 Li5 2.035682 1_555
F4 Mn4 2.157441 1_555
F4 Mn0 2.518963 1_556
F5 Li2 1.863274 1_555
F5 Mn14 2.120440 1_565
F5 Mn2 2.245020 1_555
F5 Mn4 2.533621 1_555
F6 Li7 1.863284 1_545
F6 Mn1 2.120436 1_555
F6 Mn2 2.245012 1_545
F6 Mn12 2.533621 1_545
F7 Li6 1.864810 1_555
F7 Li3 2.074443 1_455
F7 Mn10 2.222324 1_555
F7 Mn13 2.246375 1_555
F8 Li13 1.864820 1_556
F8 Li5 2.074439 1_555
F8 Mn9 2.222324 1_556
F8 Mn0 2.246376 1_556
F9 Li7 1.843503 1_655
F9 Li3 2.035682 1_555
F9 Mn12 2.157451 1_655
F9 Mn0 2.518963 1_555
F10 Li4 1.866452 1_555
F10 Mn14 2.131915 1_555
F10 Mn2 2.325284 1_545
F10 Mn5 2.512906 1_555
F11 Li12 1.866447 1_665
F11 Mn7 2.131924 1_565
F11 Mn0 2.325289 1_555
F11 Mn4 2.512891 1_554
F12 Li4 1.866455 1_555
F12 Mn8 2.131922 1_555
F12 Mn13 2.325278 1_655
F12 Mn3 2.512894 1_555
F13 Li6 1.864815 1_555
F13 Li9 2.074447 1_565
F13 Mn4 2.222324 1_555
F13 Mn2 2.246379 1_555
F14 Li8 1.833863 1_555
F14 Li5 2.047514 1_555
F14 Mn4 2.215092 1_555
F14 Mn9 2.233857 1_556
F15 Li10 1.883082 1_555
F15 Mn1 2.114917 1_555
F15 Mn6 2.294047 1_555
F15 Mn3 2.603678 1_555
F16 Li15 1.883079 1_656
F16 Mn14 2.114910 1_555
F16 Mn5 2.294061 1_555
F16 Mn4 2.603690 1_545
F17 Li0 1.863274 1_555
F17 Mn7 2.120440 1_565
F17 Mn0 2.245020 1_555
F17 Mn9 2.533620 1_555
F18 Li8 1.863277 1_555
F18 Mn8 2.120438 1_455
F18 Mn13 2.245014 1_555
F18 Mn10 2.533627 1_555
F19 Li0 1.843503 1_555
F19 Li1 2.035682 1_555
F19 Mn9 2.157451 1_555
F19 Mn2 2.518963 1_555
F20 Li8 1.843503 1_545
F20 Li9 2.035682 1_555
F20 Mn10 2.157445 1_545
F20 Mn15 2.518963 1_556
F21 Li7 1.883071 1_545
F21 Mn7 2.114921 1_455
F21 Mn11 2.294047 1_555
F21 Mn6 2.603686 1_555
F22 Li7 1.833865 1_545
F22 Li9 2.047511 1_555
F22 Mn10 2.215085 1_545
F22 Mn11 2.233878 1_555
F23 Li14 1.833865 1_554
F23 Li1 2.047511 1_555
F23 Mn9 2.215090 1_555
F23 Mn12 2.233868 1_555
F24 Li2 1.833865 1_555
F24 Li1 2.047511 1_555
F24 Mn6 2.215090 1_555
F24 Mn3 2.233868 1_555
F25 Li11 1.833865 1_556
F25 Li9 2.047511 1_555
F25 Mn5 2.215085 1_555
F25 Mn4 2.233878 1_545
F26 Li11 1.883071 1_555
F26 Mn7 2.114921 1_555
F26 Mn4 2.294047 1_544
F26 Mn9 2.603686 1_545
F27 Li15 1.843503 1_555
F27 Li1 2.035682 1_555
F27 Mn6 2.157451 1_555
F27 Mn15 2.518963 1_555
F28 Li10 1.843503 1_555
F28 Li9 2.035682 1_555
F28 Mn5 2.157445 1_555
F28 Mn2 2.518963 1_545
F29 Li10 1.863277 1_555
F29 Mn8 2.120438 1_555
F29 Mn0 2.245014 1_556
F29 Mn5 2.533627 1_555
F30 Li15 1.863277 1_655
F30 Mn7 2.120438 1_555
F30 Mn13 2.245014 1_655
F30 Mn6 2.533630 1_655
F31 Li8 1.883082 1_554
F31 Mn1 2.114917 1_565
F31 Mn9 2.294047 1_555
F31 Mn12 2.603678 1_555
F32 Li0 1.883079 1_545
F32 Mn14 2.114910 1_555
F32 Mn10 2.294061 1_645
F32 Mn11 2.603690 1_655
F33 Li10 1.833863 1_555
F33 Li5 2.047514 1_555
F33 Mn11 2.215092 1_555
F33 Mn6 2.233857 1_555
F34 Li13 1.864815 1_556
F34 Li9 2.074447 1_555
F34 Mn11 2.222324 1_555
F34 Mn15 2.246379 1_556
F35 Li4 1.866447 1_555
F35 Mn7 2.131924 1_555
F35 Mn13 2.325289 1_655
F35 Mn11 2.512891 1_655
F36 Li12 1.866455 1_666
F36 Mn8 2.131922 1_555
F36 Mn0 2.325278 1_556
F36 Mn12 2.512894 1_656
F37 Li12 1.866452 1_556
F37 Mn14 2.131915 1_455
F37 Mn15 2.325284 1_556
F37 Mn10 2.512906 1_545
F38 Li11 1.843503 1_555
F38 Li3 2.035682 1_555
F38 Mn3 2.157451 1_555
F38 Mn13 2.518963 1_655
F39 Li13 1.864810 1_555
F39 Li3 2.074443 1_555
F39 Mn5 2.222324 1_554
F39 Mn0 2.246375 1_555
F40 Li6 1.864820 1_555
F40 Li5 2.074439 1_555
F40 Mn6 2.222324 1_555
F40 Mn13 2.246376 1_555
F41 Li11 1.863284 1_555
F41 Mn1 2.120436 1_555
F41 Mn15 2.245012 1_555
F41 Mn3 2.533621 1_555
F42 Li14 1.863274 1_555
F42 Mn14 2.120440 1_455
F42 Mn15 2.245020 1_556
F42 Mn11 2.533621 1_555
F43 Li14 1.843503 1_555
F43 Li5 2.035682 1_555
F43 Mn11 2.157441 1_555
F43 Mn13 2.518963 1_555
F44 Li12 1.866452 1_555
F44 Mn1 2.131915 1_555
F44 Mn15 2.325284 1_555
F44 Mn6 2.512900 1_555
F45 Li13 1.864820 1_555
F45 Li1 2.074439 1_555
F45 Mn3 2.222324 1_555
F45 Mn15 2.246376 1_555
F46 Li14 1.883082 1_655
F46 Mn8 2.114917 1_555
F46 Mn12 2.294047 1_656
F46 Mn5 2.603686 1_555
F47 Li15 1.833868 1_655
F47 Li3 2.047518 1_555
F47 Mn12 2.215085 1_655
F47 Mn5 2.233867 1_554
