# generated using pymatgen
data_CaV2P2(H4O7)2
_symmetry_space_group_name_H-M   'P 1'
_cell_length_a   6.39674500
_cell_length_b   6.42925296
_cell_length_c   6.66791174
_cell_angle_alpha   104.48703048
_cell_angle_beta   93.60593522
_cell_angle_gamma   89.77188579
_symmetry_Int_Tables_number   1
_chemical_formula_structural   CaV2P2(H4O7)2
_chemical_formula_sum   'Ca1 V2 P2 H8 O14'
_cell_volume   264.96201277
_cell_formula_units_Z   1
loop_
 _symmetry_equiv_pos_site_id
 _symmetry_equiv_pos_as_xyz
  1  'x, y, z'
loop_
 _atom_site_type_symbol
 _atom_site_label
 _atom_site_symmetry_multiplicity
 _atom_site_fract_x
 _atom_site_fract_y
 _atom_site_fract_z
 _atom_site_occupancy
  Ca  Ca0  1  0.52471300  0.46588900  0.15607300  1
  V  V0  1  0.82871500  0.49487800  0.69433000  1
  V  V1  1  0.32091100  0.94051500  0.52556000  1
  P  P0  1  0.33003600  0.46405200  0.61996400  1
  P  P1  1  0.83262700  0.96413600  0.60219200  1
  H  H0  1  0.97141900  0.47729000  0.09564500  1
  H  H1  1  0.89927200  0.71645800  0.17661900  1
  H  H2  1  0.41877000  0.88487700  0.05695600  1
  H  H3  1  0.22247500  0.73264700  0.01396500  1
  H  H4  1  0.18687200  0.24627100  0.23652100  1
  H  H5  1  0.16435600  0.17920200  0.98479500  1
  H  H6  1  0.66008100  0.06612600  0.27000200  1
  H  H7  1  0.78710100  0.08579500  0.07829700  1
  O  O0  1  0.78360300  0.44774900  0.44194100  1
  O  O1  1  0.32245600  0.00878100  0.77754000  1
  O  O2  1  0.35098900  0.61567300  0.47320800  1
  O  O3  1  0.14039300  0.52270500  0.75300300  1
  O  O4  1  0.30780100  0.23632700  0.46843300  1
  O  O5  1  0.52386700  0.48068900  0.77549000  1
  O  O6  1  0.85607200  0.19605000  0.73788100  1
  O  O7  1  0.01013900  0.90671900  0.44669100  1
  O  O8  1  0.82840700  0.81704100  0.75171700  1
  O  O9  1  0.62713700  0.93616400  0.45613300  1
  O  O10  1  0.86106000  0.58196800  0.07091900  1
  O  O11  1  0.33107400  0.79685500  0.12307000  1
  O  O12  1  0.16509400  0.30098600  0.10942500  1
  O  O13  1  0.64895900  0.10595500  0.13393200  1
loop_
_geom_bond_atom_site_label_1
_geom_bond_atom_site_label_2
_geom_bond_distance
_geom_bond_site_symmetry_2
Ca0 O13 2.416139 1_555
Ca0 O10 2.426291 1_555
Ca0 O2 2.429436 1_555
Ca0 O0 2.470245 1_555
Ca0 O12 2.505395 1_555
Ca0 O11 2.507891 1_555
Ca0 O5 2.562822 1_554
H0 O10 1.007747 1_555
H1 O10 0.989571 1_555
H2 O11 0.993853 1_555
H3 O11 0.985245 1_555
H4 O12 0.997630 1_555
H4 O4 1.700685 1_555
H5 O12 0.988771 1_556
H6 O13 1.000904 1_555
H6 O9 1.684058 1_545
H7 O13 0.975468 1_555
O0 V0 1.640653 1_555
O1 V1 1.626263 1_545
O2 P0 1.555824 1_555
O2 V1 2.039892 1_555
O3 P0 1.537886 1_555
O3 V0 2.007414 1_455
O4 P0 1.558258 1_555
O4 V1 2.031338 1_545
O5 P0 1.551780 1_555
O5 V0 2.064626 1_555
O6 P1 1.540789 1_545
O6 V0 2.018957 1_555
O7 P1 1.566518 1_455
O7 V1 2.022474 1_555
O8 P1 1.537688 1_555
O8 V0 2.009999 1_555
O9 P1 1.569040 1_555
O9 V1 2.039444 1_555
O10 V0 2.427730 1_554
