# generated using pymatgen
data_Na5Li3Ti5O14
_symmetry_space_group_name_H-M   'P 1'
_cell_length_a   5.22810700
_cell_length_b   7.03750954
_cell_length_c   8.19284408
_cell_angle_alpha   88.47939609
_cell_angle_beta   101.75013490
_cell_angle_gamma   97.62297738
_symmetry_Int_Tables_number   1
_chemical_formula_structural   Na5Li3Ti5O14
_chemical_formula_sum   'Na5 Li3 Ti5 O14'
_cell_volume   292.51327475
_cell_formula_units_Z   1
loop_
 _symmetry_equiv_pos_site_id
 _symmetry_equiv_pos_as_xyz
  1  'x, y, z'
loop_
 _atom_site_type_symbol
 _atom_site_label
 _atom_site_symmetry_multiplicity
 _atom_site_fract_x
 _atom_site_fract_y
 _atom_site_fract_z
 _atom_site_occupancy
  Na  Na0  1  0.64925000  0.29327800  0.79954800  1
  Na  Na1  1  0.07189700  0.13634500  0.63991900  1
  Na  Na2  1  0.51024400  0.00236900  0.49419000  1
  Na  Na3  1  0.90460300  0.85680500  0.35815600  1
  Na  Na4  1  0.35692700  0.72954000  0.22069400  1
  Li  Li0  1  0.22594700  0.43631600  0.93840200  1
  Li  Li1  1  0.86057500  0.70482100  0.71443600  1
  Li  Li2  1  0.77828200  0.57029600  0.06617800  1
  Ti  Ti0  1  0.00583800  0.99178500  0.99758400  1
  Ti  Ti1  1  0.43830500  0.85959600  0.86986200  1
  Ti  Ti2  1  0.28818800  0.57630700  0.58974900  1
  Ti  Ti3  1  0.70553800  0.42530100  0.41554600  1
  Ti  Ti4  1  0.13227900  0.28380200  0.26540200  1
  O  O0  1  0.11740300  0.74658600  0.95886700  1
  O  O1  1  0.29985300  0.09293200  0.89586800  1
  O  O2  1  0.49421900  0.58138800  0.81185800  1
  O  O3  1  0.74301500  0.98428500  0.78455500  1
  O  O4  1  0.20975200  0.82445800  0.62541300  1
  O  O5  1  0.97388700  0.44840600  0.64971800  1
  O  O6  1  0.39967500  0.31296700  0.51178100  1
  O  O7  1  0.59540800  0.67571400  0.48409300  1
  O  O8  1  0.02522000  0.54585400  0.33428000  1
  O  O9  1  0.84234600  0.18897700  0.38221700  1
  O  O10  1  0.19735300  0.02861500  0.23070000  1
  O  O11  1  0.46363600  0.42585500  0.20626500  1
  O  O12  1  0.68820200  0.84513600  0.07104000  1
  O  O13  1  0.95406000  0.28167400  0.04395500  1
loop_
_geom_bond_atom_site_label_1
_geom_bond_atom_site_label_2
_geom_bond_distance
_geom_bond_site_symmetry_2
Na0 O2 2.293105 1_555
Na0 O13 2.298245 1_556
Na0 O3 2.303377 1_545
Na0 O1 2.406696 1_555
Na0 O5 2.421803 1_555
Na0 O6 2.461269 1_555
Na1 O1 2.226123 1_555
Na1 O9 2.253786 1_455
Na1 O5 2.327374 1_455
Na1 O6 2.383712 1_555
Na1 O3 2.404197 1_445
Na1 O4 2.412386 1_545
Na2 O4 2.299153 1_545
Na2 O6 2.349190 1_555
Na2 O9 2.358111 1_555
Na2 O7 2.405492 1_545
Na2 O10 2.447634 1_555
Na2 O3 2.449963 1_545
Na3 O10 2.233347 1_665
Na3 O7 2.316201 1_555
Na3 O8 2.379861 1_655
Na3 O12 2.392011 1_555
Na3 O9 2.421142 1_565
Na3 O4 2.457329 1_655
Na4 O0 2.261892 1_554
Na4 O11 2.291151 1_555
Na4 O7 2.311059 1_555
Na4 O8 2.354398 1_555
Na4 O12 2.367036 1_555
Na4 O10 2.373930 1_565
Li0 O13 1.998261 1_456
Li0 O2 2.059250 1_555
Li0 O11 2.295802 1_556
Li0 O0 2.346245 1_555
Li0 O5 2.467259 1_455
Li0 O1 2.541219 1_555
Li1 O5 2.085837 1_555
Li1 O7 2.098775 1_555
Li1 O4 2.162249 1_655
Li1 O0 2.175089 1_655
Li1 O3 2.258378 1_555
Li1 O2 2.281366 1_555
Li2 O12 2.053744 1_555
Li2 O2 2.305401 1_554
Li2 O11 2.306504 1_555
Li2 O8 2.324845 1_655
Li2 O0 2.334298 1_654
Li2 O13 2.363553 1_555
O0 Ti0 1.946772 1_555
O0 Ti1 2.022983 1_555
O1 Ti1 1.913788 1_545
O1 Ti0 1.940079 1_545
O2 Ti2 1.915142 1_555
O2 Ti1 2.098197 1_555
O3 Ti1 1.961213 1_555
O3 Ti0 1.986420 1_655
O4 Ti2 1.889233 1_555
O4 Ti1 2.114970 1_555
O5 Ti2 1.914321 1_655
O5 Ti3 2.129618 1_555
O6 Ti3 1.987135 1_555
O6 Ti2 2.164115 1_555
O6 Ti4 2.206248 1_555
O7 Ti2 2.013590 1_555
O7 Ti3 2.050846 1_555
O8 Ti3 2.000864 1_455
O8 Ti4 2.119081 1_555
O8 Ti2 2.256202 1_555
O9 Ti3 1.942008 1_555
O9 Ti4 1.986833 1_655
O10 Ti4 1.910591 1_555
O10 Ti0 1.973809 1_544
O11 Ti3 1.912355 1_555
O11 Ti4 2.022848 1_555
O12 Ti1 1.892940 1_554
O12 Ti0 2.025928 1_654
O13 Ti4 1.862587 1_655
O13 Ti0 2.146892 1_644
