# generated using pymatgen
data_Li3Fe3P8O29
_symmetry_space_group_name_H-M   'P 1'
_cell_length_a   10.01200963
_cell_length_b   10.01200963
_cell_length_c   14.17934350
_cell_angle_alpha   88.29604189
_cell_angle_beta   88.29604189
_cell_angle_gamma   59.56883448
_symmetry_Int_Tables_number   1
_chemical_formula_structural   Li3Fe3P8O29
_chemical_formula_sum   'Li6 Fe6 P16 O58'
_cell_volume   1224.81614442
_cell_formula_units_Z   2
loop_
 _symmetry_equiv_pos_site_id
 _symmetry_equiv_pos_as_xyz
  1  'x, y, z'
loop_
 _atom_site_type_symbol
 _atom_site_label
 _atom_site_symmetry_multiplicity
 _atom_site_fract_x
 _atom_site_fract_y
 _atom_site_fract_z
 _atom_site_occupancy
  Li  Li0  1  0.00000000  0.00000000  0.00000000  1
  Li  Li1  1  0.00000000  0.00000000  0.50000000  1
  Li  Li2  1  0.22601500  0.09197400  0.43194600  1
  Li  Li3  1  0.09197400  0.22601500  0.93194600  1
  Li  Li4  1  0.77398500  0.90802600  0.56805400  1
  Li  Li5  1  0.90802600  0.77398500  0.06805400  1
  Fe  Fe0  1  0.00132800  0.44036000  0.74846400  1
  Fe  Fe1  1  0.55964000  0.99867200  0.75153600  1
  Fe  Fe2  1  0.43967300  0.56032700  0.75000000  1
  Fe  Fe3  1  0.56032700  0.43967300  0.25000000  1
  Fe  Fe4  1  0.99867200  0.55964000  0.25153600  1
  Fe  Fe5  1  0.44036000  0.00132800  0.24846400  1
  P  P0  1  0.32948200  0.33183600  0.36166500  1
  P  P1  1  0.22771700  0.09337800  0.65592700  1
  P  P2  1  0.77980600  0.30377200  0.83997300  1
  P  P3  1  0.77228300  0.90662200  0.34407300  1
  P  P4  1  0.09153700  0.69444900  0.66504500  1
  P  P5  1  0.30377200  0.77980600  0.33997300  1
  P  P6  1  0.69622800  0.22019400  0.66002700  1
  P  P7  1  0.30555100  0.90846300  0.83495500  1
  P  P8  1  0.66816400  0.67051800  0.13833500  1
  P  P9  1  0.69444900  0.09153700  0.16504500  1
  P  P10  1  0.22019400  0.69622800  0.16002700  1
  P  P11  1  0.67051800  0.66816400  0.63833500  1
  P  P12  1  0.33183600  0.32948200  0.86166500  1
  P  P13  1  0.09337800  0.22771700  0.15592700  1
  P  P14  1  0.90846300  0.30555100  0.33495500  1
  P  P15  1  0.90662200  0.77228300  0.84407300  1
  O  O0  1  0.45507200  0.91448700  0.83079100  1
  O  O1  1  0.51651500  0.68335300  0.67502900  1
  O  O2  1  0.79075900  0.96426700  0.43732700  1
  O  O3  1  0.66842900  0.65865000  0.52908900  1
  O  O4  1  0.66449600  0.08314700  0.66359100  1
  O  O5  1  0.18659100  0.31961700  0.83771100  1
  O  O6  1  0.08858800  0.25799800  0.66689300  1
  O  O7  1  0.08551300  0.54492800  0.66920900  1
  O  O8  1  0.21273100  0.98650300  0.73697000  1
  O  O9  1  0.03573300  0.20924100  0.06267300  1
  O  O10  1  0.25799800  0.08858800  0.16689300  1
  O  O11  1  0.37828900  0.55082100  0.16373500  1
  O  O12  1  0.68038300  0.81340900  0.66228900  1
  O  O13  1  0.99976600  0.19344800  0.41333800  1
  O  O14  1  0.80000300  0.18317300  0.57228600  1
  O  O15  1  0.62171100  0.44917900  0.83626500  1
  O  O16  1  0.65865000  0.66842900  0.02908900  1
  O  O17  1  0.68335300  0.51651500  0.17502900  1
  O  O18  1  0.25862000  0.66044700  0.66397800  1
  O  O19  1  0.81682700  0.19999700  0.92771400  1
  O  O20  1  0.54492800  0.08551300  0.16920900  1
  O  O21  1  0.19900900  0.80099100  0.25000000  1
  O  O22  1  0.08675900  0.38303100  0.16570900  1
  O  O23  1  0.80099100  0.19900900  0.75000000  1
  O  O24  1  0.80655200  0.00023400  0.08666200  1
  O  O25  1  0.81078700  0.51739900  0.67275200  1
  O  O26  1  0.91448700  0.45507200  0.33079100  1
  O  O27  1  0.19999700  0.81682700  0.42771400  1
  O  O28  1  0.51739900  0.81078700  0.17275200  1
  O  O29  1  0.74200200  0.91141200  0.83310700  1
  O  O30  1  0.44917900  0.62171100  0.33626500  1
  O  O31  1  0.48348500  0.31664700  0.32497100  1
  O  O32  1  0.31961700  0.18659100  0.33771100  1
  O  O33  1  0.78726900  0.01349700  0.26303000  1
  O  O34  1  0.91685300  0.33550400  0.83640900  1
  O  O35  1  0.38303100  0.08675900  0.66570900  1
  O  O36  1  0.81340900  0.68038300  0.16228900  1
  O  O37  1  0.19344800  0.99976600  0.91333800  1
  O  O38  1  0.55082100  0.37828900  0.66373500  1
  O  O39  1  0.18317300  0.80000300  0.07228600  1
  O  O40  1  0.33157100  0.34135000  0.47091100  1
  O  O41  1  0.34135000  0.33157100  0.97091100  1
  O  O42  1  0.91324100  0.61696900  0.83429100  1
  O  O43  1  0.20924100  0.03573300  0.56267300  1
  O  O44  1  0.66044700  0.25862000  0.16397800  1
  O  O45  1  0.08314700  0.66449600  0.16359100  1
  O  O46  1  0.48260100  0.18921300  0.82724800  1
  O  O47  1  0.33550400  0.91685300  0.33640900  1
  O  O48  1  0.74138000  0.33955300  0.33602200  1
  O  O49  1  0.00023400  0.80655200  0.58666200  1
  O  O50  1  0.18921300  0.48260100  0.32724800  1
  O  O51  1  0.98650300  0.21273100  0.23697000  1
  O  O52  1  0.91141200  0.74200200  0.33310700  1
  O  O53  1  0.31664700  0.48348500  0.82497100  1
  O  O54  1  0.01349700  0.78726900  0.76303000  1
  O  O55  1  0.33955300  0.74138000  0.83602200  1
  O  O56  1  0.96426700  0.79075900  0.93732700  1
  O  O57  1  0.61696900  0.91324100  0.33429100  1
loop_
_geom_bond_atom_site_label_1
_geom_bond_atom_site_label_2
_geom_bond_distance
_geom_bond_site_symmetry_2
Li0 O19 2.166360 1_454
Li0 O39 2.166360 1_545
Li0 O37 2.261686 1_544
Li0 O24 2.261686 1_455
Li0 O9 2.489028 1_555
Li0 O56 2.489028 1_444
Li1 O27 2.166360 1_545
Li1 O14 2.166360 1_455
Li1 O13 2.261686 1_455
Li1 O49 2.261686 1_545
Li1 O43 2.489028 1_555
Li1 O2 2.489028 1_445
Li2 O43 1.948435 1_555
Li2 O13 1.980219 1_455
Li2 O47 2.053486 1_545
Li2 O32 2.076197 1_555
Li3 O9 1.948435 1_556
Li3 O37 1.980219 1_545
Li3 O34 2.053486 1_455
Li3 O5 2.076197 1_555
Li4 O2 1.948435 1_555
Li4 O49 1.980219 1_655
Li4 O4 2.053486 1_565
Li4 O12 2.076197 1_555
Li5 O56 1.948435 1_554
Li5 O24 1.980219 1_565
Li5 O45 2.053486 1_655
Li5 O36 2.076197 1_555
Fe0 O7 1.958821 1_555
Fe0 O42 1.967184 1_455
Fe0 O6 1.970851 1_555
Fe0 O25 1.992165 1_455
Fe0 O34 2.032566 1_455
Fe0 O5 2.068920 1_555
Fe1 O0 1.958821 1_555
Fe1 O35 1.967184 1_565
Fe1 O29 1.970851 1_555
Fe1 O46 1.992165 1_565
Fe1 O4 2.032566 1_565
Fe1 O12 2.068920 1_555
Fe2 O55 1.999137 1_555
Fe2 O18 1.999137 1_555
Fe2 O15 2.013293 1_555
Fe2 O38 2.013293 1_555
Fe2 O1 2.018060 1_555
Fe2 O53 2.018060 1_555
Fe3 O48 1.999137 1_555
Fe3 O44 1.999137 1_555
Fe3 O30 2.013293 1_555
Fe3 O11 2.013293 1_555
Fe3 O17 2.018060 1_555
Fe3 O31 2.018060 1_555
Fe4 O26 1.958821 1_555
Fe4 O22 1.967184 1_655
Fe4 O52 1.970851 1_555
Fe4 O50 1.992165 1_655
Fe4 O45 2.032566 1_655
Fe4 O36 2.068920 1_555
Fe5 O20 1.958821 1_555
Fe5 O57 1.967184 1_545
Fe5 O10 1.970851 1_555
Fe5 O28 1.992165 1_545
Fe5 O47 2.032566 1_545
Fe5 O32 2.068920 1_555
O0 P7 1.527790 1_555
O1 P11 1.546188 1_555
O2 P3 1.511231 1_555
O3 P11 1.556196 1_555
O4 P6 1.556504 1_555
O5 P12 1.554563 1_555
O6 P1 1.535467 1_555
O7 P4 1.527790 1_555
O8 P1 1.602266 1_565
O8 P7 1.637412 1_555
O9 P13 1.511231 1_555
O10 P13 1.535467 1_555
O11 P10 1.514485 1_555
O12 P11 1.554563 1_555
O13 P14 1.509141 1_555
O14 P6 1.524841 1_555
O15 P2 1.514485 1_555
O16 P8 1.556196 1_555
O17 P8 1.546188 1_555
O18 P4 1.528534 1_555
O19 P2 1.524841 1_555
O20 P9 1.527790 1_555
O21 P5 1.615807 1_555
O21 P10 1.615807 1_555
O22 P13 1.532828 1_555
O23 P2 1.615807 1_555
O23 P6 1.615807 1_555
O24 P9 1.509141 1_555
O25 P11 1.529191 1_555
O26 P14 1.527790 1_555
O27 P5 1.524841 1_555
O28 P8 1.529191 1_555
O29 P15 1.535467 1_555
O30 P5 1.514485 1_555
O31 P0 1.546188 1_555
O32 P0 1.554563 1_555
O33 P3 1.602266 1_545
O33 P9 1.637412 1_555
O34 P2 1.556504 1_555
O35 P1 1.532828 1_555
O36 P8 1.554563 1_555
O37 P7 1.509141 1_555
O38 P6 1.514485 1_555
O39 P10 1.524841 1_555
O40 P0 1.556196 1_555
O41 P12 1.556196 1_555
O42 P15 1.532828 1_555
O43 P1 1.511231 1_555
O44 P9 1.528534 1_555
O45 P10 1.556504 1_555
O46 P12 1.529191 1_555
O47 P5 1.556504 1_555
O48 P14 1.528534 1_555
O49 P4 1.509141 1_555
O50 P0 1.529191 1_555
O51 P13 1.602266 1_655
O51 P14 1.637412 1_555
O52 P3 1.535467 1_555
O53 P12 1.546188 1_555
O54 P15 1.602266 1_455
O54 P4 1.637412 1_555
O55 P7 1.528534 1_555
O56 P15 1.511231 1_555
O57 P3 1.532828 1_555
