# generated using pymatgen
data_Li6MnV3(PO4)6
_symmetry_space_group_name_H-M   'P 1'
_cell_length_a   8.60654400
_cell_length_b   8.67873180
_cell_length_c   12.71367009
_cell_angle_alpha   105.85295306
_cell_angle_beta   106.15287939
_cell_angle_gamma   94.59609262
_symmetry_Int_Tables_number   1
_chemical_formula_structural   Li6MnV3(PO4)6
_chemical_formula_sum   'Li12 Mn2 V6 P12 O48'
_cell_volume   864.83523767
_cell_formula_units_Z   2
loop_
 _symmetry_equiv_pos_site_id
 _symmetry_equiv_pos_as_xyz
  1  'x, y, z'
loop_
 _atom_site_type_symbol
 _atom_site_label
 _atom_site_symmetry_multiplicity
 _atom_site_fract_x
 _atom_site_fract_y
 _atom_site_fract_z
 _atom_site_occupancy
  Li  Li0  1  0.99395600  0.99593500  0.87790100  1
  Li  Li1  1  0.99688400  0.00414000  0.37454700  1
  Li  Li2  1  0.71420500  0.29027900  0.12515900  1
  Li  Li3  1  0.50000000  0.50000000  0.00000000  1
  Li  Li4  1  0.71259100  0.29230200  0.62761600  1
  Li  Li5  1  0.49664400  0.49932200  0.24907100  1
  Li  Li6  1  0.28579500  0.70972100  0.87484100  1
  Li  Li7  1  0.50000000  0.50000000  0.50000000  1
  Li  Li8  1  0.50335600  0.50067800  0.75092900  1
  Li  Li9  1  0.28740900  0.70769800  0.37238400  1
  Li  Li10  1  0.00604400  0.00406500  0.12209900  1
  Li  Li11  1  0.00311600  0.99586000  0.62545300  1
  Mn  Mn0  1  0.94052300  0.62988700  0.93472100  1
  Mn  Mn1  1  0.05947700  0.37011300  0.06527900  1
  V  V0  1  0.94221600  0.62055900  0.42955900  1
  V  V1  1  0.62160800  0.94397200  0.18150700  1
  V  V2  1  0.37839200  0.05602800  0.81849300  1
  V  V3  1  0.62020600  0.94381500  0.68068400  1
  V  V4  1  0.37979400  0.05618500  0.31931600  1
  V  V5  1  0.05778400  0.37944100  0.57044100  1
  P  P0  1  0.71537200  0.28931200  0.87518000  1
  P  P1  1  0.85912600  0.66516300  0.18162700  1
  P  P2  1  0.66147400  0.86922200  0.93325800  1
  P  P3  1  0.71232500  0.28724500  0.37539300  1
  P  P4  1  0.86222200  0.66113500  0.68295000  1
  P  P5  1  0.66177300  0.86237000  0.43285400  1
  P  P6  1  0.33852600  0.13077800  0.06674200  1
  P  P7  1  0.14087400  0.33483700  0.81837300  1
  P  P8  1  0.28462800  0.71068800  0.12482000  1
  P  P9  1  0.33822700  0.13763000  0.56714600  1
  P  P10  1  0.13777800  0.33886500  0.31705000  1
  P  P11  1  0.28767500  0.71275500  0.62460700  1
  O  O0  1  0.98640900  0.66338700  0.79999700  1
  O  O1  1  0.94528000  0.61532300  0.08605300  1
  O  O2  1  0.74360600  0.17190000  0.76841300  1
  O  O3  1  0.98595400  0.65925900  0.29435800  1
  O  O4  1  0.82691100  0.26714200  0.98848000  1
  O  O5  1  0.84750500  0.85982400  0.94888400  1
  O  O6  1  0.73921300  0.46347700  0.86427500  1
  O  O7  1  0.83881600  0.84839600  0.20303100  1
  O  O8  1  0.95123200  0.60208400  0.58907100  1
  O  O9  1  0.73978000  0.17422500  0.26655100  1
  O  O10  1  0.82699800  0.26092100  0.48468500  1
  O  O11  1  0.84576200  0.84136200  0.44865900  1
  O  O12  1  0.70095700  0.54582300  0.14793500  1
  O  O13  1  0.59792100  0.95399900  0.83772300  1
  O  O14  1  0.65764700  0.99056300  0.04764100  1
  O  O15  1  0.53796600  0.26364600  0.88172700  1
  O  O16  1  0.73552200  0.46271900  0.36705600  1
  O  O17  1  0.54988200  0.70772100  0.89941900  1
  O  O18  1  0.84163600  0.84285100  0.69621400  1
  O  O19  1  0.70340300  0.54301300  0.64812500  1
  O  O20  1  0.60298500  0.95080600  0.33871300  1
  O  O21  1  0.45011800  0.29227900  0.10058100  1
  O  O22  1  0.66112700  0.98689200  0.54672800  1
  O  O23  1  0.53521300  0.26280000  0.38265900  1
  O  O24  1  0.46203400  0.73635400  0.11827300  1
  O  O25  1  0.34235300  0.00943700  0.95235900  1
  O  O26  1  0.54328400  0.70442600  0.39801300  1
  O  O27  1  0.40207900  0.04600100  0.16227700  1
  O  O28  1  0.29904300  0.45417700  0.85206500  1
  O  O29  1  0.16118400  0.15160400  0.79696900  1
  O  O30  1  0.45671600  0.29557400  0.60198700  1
  O  O31  1  0.26078700  0.53652300  0.13572500  1
  O  O32  1  0.46478700  0.73720000  0.61734100  1
  O  O33  1  0.33887300  0.01310800  0.45327200  1
  O  O34  1  0.39701500  0.04919400  0.66128700  1
  O  O35  1  0.29659700  0.45698700  0.35187500  1
  O  O36  1  0.15249500  0.14017600  0.05111600  1
  O  O37  1  0.17308900  0.73285800  0.01152000  1
  O  O38  1  0.25639400  0.82810000  0.23158700  1
  O  O39  1  0.05472000  0.38467700  0.91394700  1
  O  O40  1  0.15836400  0.15714900  0.30378600  1
  O  O41  1  0.26447800  0.53728100  0.63294400  1
  O  O42  1  0.15423800  0.15863800  0.55134100  1
  O  O43  1  0.17300200  0.73907900  0.51531500  1
  O  O44  1  0.01359100  0.33661300  0.20000300  1
  O  O45  1  0.26022000  0.82577500  0.73344900  1
  O  O46  1  0.04876800  0.39791600  0.41092900  1
  O  O47  1  0.01404600  0.34074100  0.70564200  1
loop_
_geom_bond_atom_site_label_1
_geom_bond_atom_site_label_2
_geom_bond_distance
_geom_bond_site_symmetry_2
Li0 O5 2.185230 1_555
Li0 O36 2.196990 1_666
Li0 O18 2.275679 1_555
Li0 O29 2.495444 1_665
Li1 O7 2.208430 1_545
Li1 O42 2.247846 1_655
Li1 O40 2.357287 1_655
Li1 O11 2.385340 1_545
Li2 O12 2.173365 1_555
Li2 O4 2.186150 1_554
Li2 O21 2.208626 1_555
Li2 O9 2.258066 1_555
Li2 O44 2.442766 1_655
Li2 O14 2.470594 1_545
Li3 O12 2.087599 1_555
Li3 O28 2.087599 1_554
Li3 O24 2.295893 1_555
Li3 O15 2.295893 1_554
Li3 O21 2.551535 1_555
Li3 O17 2.551535 1_554
Li4 O19 2.130180 1_555
Li4 O30 2.138337 1_555
Li4 O10 2.261414 1_555
Li4 O2 2.273361 1_555
Li4 O47 2.461195 1_655
Li4 O22 2.519620 1_545
Li5 O26 2.129888 1_555
Li5 O21 2.136316 1_555
Li5 O31 2.243440 1_555
Li5 O16 2.286234 1_555
Li5 O35 2.494121 1_555
Li5 O12 2.517151 1_555
Li6 O28 2.173365 1_555
Li6 O37 2.186150 1_556
Li6 O17 2.208626 1_555
Li6 O45 2.258066 1_555
Li6 O0 2.442766 1_455
Li6 O25 2.470594 1_565
Li7 O19 2.104116 1_555
Li7 O35 2.104116 1_555
Li7 O32 2.286684 1_555
Li7 O23 2.286684 1_555
Li7 O30 2.527313 1_555
Li7 O26 2.527313 1_555
Li8 O30 2.129888 1_555
Li8 O17 2.136316 1_555
Li8 O6 2.243440 1_555
Li8 O41 2.286234 1_555
Li8 O19 2.494121 1_555
Li8 O28 2.517151 1_555
Li9 O35 2.130180 1_555
Li9 O26 2.138337 1_555
Li9 O43 2.261414 1_555
Li9 O38 2.273361 1_555
Li9 O3 2.461195 1_455
Li9 O33 2.519620 1_565
Li10 O36 2.185230 1_555
Li10 O5 2.196990 1_444
Li10 O40 2.275679 1_555
Li10 O7 2.495444 1_445
Li11 O29 2.208430 1_565
Li11 O11 2.247846 1_455
Li11 O18 2.357287 1_455
Li11 O42 2.385340 1_565
Mn0 O0 1.950471 1_555
Mn0 O1 1.951726 1_556
Mn0 O37 1.976753 1_656
Mn0 O6 1.979569 1_555
Mn0 O5 2.189866 1_555
Mn0 O39 2.395235 1_655
Mn1 O44 1.950471 1_555
Mn1 O39 1.951726 1_554
Mn1 O4 1.976753 1_454
Mn1 O31 1.979569 1_555
Mn1 O36 2.189866 1_555
Mn1 O1 2.395235 1_455
O0 P4 1.566203 1_555
O1 P1 1.574459 1_555
O2 P0 1.551595 1_555
O2 V3 2.021905 1_545
O3 P1 1.557841 1_555
O3 V0 1.965783 1_555
O4 P0 1.563684 1_555
O5 P2 1.569201 1_555
O6 P0 1.557776 1_555
O7 P1 1.570996 1_555
O7 V1 2.084586 1_555
O8 P4 1.584782 1_555
O8 V0 2.058284 1_555
O8 V5 2.187576 1_655
O9 P3 1.552519 1_555
O9 V1 2.019570 1_545
O10 P3 1.550323 1_555
O10 V5 2.011699 1_655
O11 P5 1.571739 1_555
O11 V0 2.129115 1_555
O12 P1 1.522013 1_555
O13 P2 1.580777 1_555
O13 V3 2.037192 1_555
O13 V2 2.131434 1_565
O14 P2 1.555759 1_554
O14 V1 1.950862 1_555
O15 P0 1.553757 1_555
O15 V2 1.994205 1_555
O16 P3 1.556126 1_555
O16 V0 1.975026 1_555
O17 P2 1.515574 1_555
O18 P4 1.569416 1_555
O18 V3 2.142762 1_555
O19 P4 1.518570 1_555
O20 P5 1.582642 1_555
O20 V1 2.034421 1_555
O20 V4 2.174463 1_565
O21 P6 1.515574 1_555
O22 P5 1.553891 1_555
O22 V3 1.955695 1_555
O23 P3 1.553811 1_555
O23 V4 1.969890 1_555
O24 P8 1.553757 1_555
O24 V1 1.994205 1_555
O25 P6 1.555759 1_556
O25 V2 1.950862 1_555
O26 P5 1.519223 1_555
O27 P6 1.580777 1_555
O27 V4 2.037192 1_555
O27 V1 2.131434 1_545
O28 P7 1.522013 1_555
O29 P7 1.570996 1_555
O29 V2 2.084586 1_555
O30 P9 1.519223 1_555
O31 P8 1.557776 1_555
O32 P11 1.553811 1_555
O32 V3 1.969890 1_555
O33 P9 1.553891 1_555
O33 V4 1.955695 1_555
O34 P9 1.582642 1_555
O34 V2 2.034421 1_555
O34 V3 2.174463 1_545
O35 P10 1.518570 1_555
O36 P6 1.569201 1_555
O37 P8 1.563684 1_555
O38 P8 1.551595 1_555
O38 V4 2.021905 1_565
O39 P7 1.574459 1_555
O40 P10 1.569416 1_555
O40 V4 2.142762 1_555
O41 P11 1.556126 1_555
O41 V5 1.975026 1_555
O42 P9 1.571739 1_555
O42 V5 2.129115 1_555
O43 P11 1.550323 1_555
O43 V0 2.011699 1_455
O44 P10 1.566203 1_555
O45 P11 1.552519 1_555
O45 V2 2.019570 1_565
O46 P10 1.584782 1_555
O46 V5 2.058284 1_555
O46 V0 2.187576 1_455
O47 P7 1.557841 1_555
O47 V5 1.965783 1_555
