# generated using pymatgen
data_Li4Cr3GaO8
_symmetry_space_group_name_H-M   'P 1'
_cell_length_a   5.13967200
_cell_length_b   7.84165337
_cell_length_c   7.84369267
_cell_angle_alpha   81.78944406
_cell_angle_beta   83.76197997
_cell_angle_gamma   70.92540889
_symmetry_Int_Tables_number   1
_chemical_formula_structural   Li4Cr3GaO8
_chemical_formula_sum   'Li8 Cr6 Ga2 O16'
_cell_volume   295.05864993
_cell_formula_units_Z   2
loop_
 _symmetry_equiv_pos_site_id
 _symmetry_equiv_pos_as_xyz
  1  'x, y, z'
loop_
 _atom_site_type_symbol
 _atom_site_label
 _atom_site_symmetry_multiplicity
 _atom_site_fract_x
 _atom_site_fract_y
 _atom_site_fract_z
 _atom_site_occupancy
  Li  Li0  1  0.99953400  0.87508700  0.87503400  1
  Li  Li1  1  0.99997400  0.62505400  0.62467900  1
  Li  Li2  1  0.99954900  0.75007000  0.25005400  1
  Li  Li3  1  0.00045100  0.24993000  0.74994600  1
  Li  Li4  1  0.00002600  0.37494600  0.37532100  1
  Li  Li5  1  0.00000000  0.50000000  0.00000000  1
  Li  Li6  1  0.00000000  0.00000000  0.50000000  1
  Li  Li7  1  0.00046600  0.12491300  0.12496600  1
  Cr  Cr0  1  0.50002100  0.68726800  0.43754200  1
  Cr  Cr1  1  0.50028900  0.81209000  0.06241500  1
  Cr  Cr2  1  0.49997900  0.31273200  0.56245800  1
  Cr  Cr3  1  0.50009100  0.93729400  0.68755400  1
  Cr  Cr4  1  0.49990900  0.06270600  0.31244600  1
  Cr  Cr5  1  0.49971100  0.18791000  0.93758500  1
  Ga  Ga0  1  0.49995100  0.56244900  0.81264200  1
  Ga  Ga1  1  0.50004900  0.43755100  0.18735800  1
  O  O0  1  0.72579900  0.72363000  0.84472100  1
  O  O1  1  0.27417100  0.77611900  0.65518800  1
  O  O2  1  0.72430600  0.84901900  0.46982100  1
  O  O3  1  0.27438400  0.40124900  0.78012600  1
  O  O4  1  0.72565500  0.47389100  0.59503400  1
  O  O5  1  0.72561600  0.59875100  0.21987400  1
  O  O6  1  0.27434500  0.52610900  0.40496600  1
  O  O7  1  0.72424600  0.09932200  0.71999000  1
  O  O8  1  0.72582900  0.22388100  0.34481200  1
  O  O9  1  0.27344400  0.65076000  0.03005500  1
  O  O10  1  0.27569400  0.15098100  0.53017900  1
  O  O11  1  0.72655600  0.34924000  0.96994500  1
  O  O12  1  0.27420100  0.27637000  0.15527900  1
  O  O13  1  0.72412100  0.97421900  0.09473800  1
  O  O14  1  0.27575400  0.90067800  0.28001000  1
  O  O15  1  0.27587900  0.02578100  0.90526200  1
loop_
_geom_bond_atom_site_label_1
_geom_bond_atom_site_label_2
_geom_bond_distance
_geom_bond_site_symmetry_2
Li0 O0 2.166096 1_555
Li0 O9 2.167326 1_656
Li0 O1 2.169239 1_655
Li0 O7 2.170208 1_565
Li0 O13 2.170495 1_556
Li0 O15 2.172583 1_665
Li1 O4 2.165483 1_555
Li1 O1 2.166106 1_655
Li1 O6 2.167772 1_655
Li1 O3 2.168078 1_655
Li1 O0 2.168576 1_555
Li1 O2 2.169239 1_555
Li2 O5 2.165842 1_555
Li2 O6 2.167431 1_655
Li2 O9 2.169164 1_655
Li2 O2 2.170115 1_555
Li2 O14 2.170906 1_655
Li2 O13 2.171283 1_555
Li3 O3 2.165842 1_555
Li3 O4 2.167431 1_455
Li3 O11 2.169164 1_455
Li3 O10 2.170115 1_555
Li3 O7 2.170906 1_455
Li3 O15 2.171283 1_555
Li4 O6 2.165483 1_555
Li4 O8 2.166106 1_455
Li4 O4 2.167772 1_455
Li4 O5 2.168078 1_455
Li4 O12 2.168576 1_555
Li4 O10 2.169239 1_555
Li5 O9 2.160074 1_555
Li5 O11 2.160074 1_454
Li5 O12 2.166207 1_555
Li5 O0 2.166207 1_454
Li5 O5 2.168388 1_455
Li5 O3 2.168388 1_554
Li6 O1 2.166787 1_545
Li6 O8 2.166787 1_455
Li6 O2 2.171405 1_445
Li6 O10 2.171405 1_555
Li6 O14 2.173404 1_545
Li6 O7 2.173404 1_455
Li7 O12 2.166096 1_555
Li7 O11 2.167326 1_454
Li7 O8 2.169239 1_455
Li7 O14 2.170208 1_545
Li7 O15 2.170495 1_554
Li7 O13 2.172583 1_445
Cr0 O2 2.027948 1_555
Cr0 O14 2.028327 1_555
Cr0 O6 2.030376 1_555
Cr0 O4 2.030585 1_555
Cr0 O5 2.030616 1_555
Cr0 O1 2.031678 1_555
Cr1 O15 2.028171 1_564
Cr1 O14 2.028298 1_555
Cr1 O13 2.028672 1_555
Cr1 O5 2.029698 1_555
Cr1 O0 2.030502 1_554
Cr1 O9 2.035757 1_555
Cr2 O10 2.027948 1_555
Cr2 O7 2.028327 1_555
Cr2 O4 2.030376 1_555
Cr2 O6 2.030585 1_555
Cr2 O3 2.030616 1_555
Cr2 O8 2.031678 1_555
Cr3 O2 2.027916 1_555
Cr3 O15 2.028207 1_565
Cr3 O10 2.029091 1_565
Cr3 O7 2.029564 1_565
Cr3 O0 2.030558 1_555
Cr3 O1 2.031014 1_555
Cr4 O10 2.027916 1_555
Cr4 O13 2.028207 1_545
Cr4 O2 2.029091 1_545
Cr4 O14 2.029564 1_545
Cr4 O12 2.030558 1_555
Cr4 O8 2.031014 1_555
Cr5 O13 2.028171 1_546
Cr5 O7 2.028298 1_555
Cr5 O15 2.028672 1_555
Cr5 O3 2.029698 1_555
Cr5 O12 2.030502 1_556
Cr5 O11 2.035757 1_555
Ga0 O3 2.030071 1_555
Ga0 O0 2.030141 1_555
Ga0 O9 2.030250 1_556
Ga0 O4 2.030522 1_555
Ga0 O11 2.030884 1_555
Ga0 O1 2.031962 1_555
Ga1 O5 2.030071 1_555
Ga1 O12 2.030141 1_555
Ga1 O11 2.030250 1_554
Ga1 O6 2.030522 1_555
Ga1 O9 2.030884 1_555
Ga1 O8 2.031962 1_555
