# generated using pymatgen
data_LiMn10O20
_symmetry_space_group_name_H-M   'P 1'
_cell_length_a   10.14599043
_cell_length_b   10.14599043
_cell_length_c   10.14599043
_cell_angle_alpha   99.57878671
_cell_angle_beta   99.57878671
_cell_angle_gamma   131.85075968
_symmetry_Int_Tables_number   1
_chemical_formula_structural   LiMn10O20
_chemical_formula_sum   'Li2 Mn20 O40'
_cell_volume   710.31435498
_cell_formula_units_Z   2
loop_
 _symmetry_equiv_pos_site_id
 _symmetry_equiv_pos_as_xyz
  1  'x, y, z'
loop_
 _atom_site_type_symbol
 _atom_site_label
 _atom_site_symmetry_multiplicity
 _atom_site_fract_x
 _atom_site_fract_y
 _atom_site_fract_z
 _atom_site_occupancy
  Li  Li0  1  0.25000000  0.75000000  0.50000000  1
  Li  Li1  1  0.00000000  0.00000000  0.00000000  1
  Mn  Mn0  1  0.92405900  0.27393900  0.45059700  1
  Mn  Mn1  1  0.52458500  0.07592900  0.85152600  1
  Mn  Mn2  1  0.72606100  0.17665800  0.65012000  1
  Mn  Mn3  1  0.62500000  0.87500000  0.75000000  1
  Mn  Mn4  1  0.32694100  0.47541500  0.55134400  1
  Mn  Mn5  1  0.22440400  0.67305900  0.14847400  1
  Mn  Mn6  1  0.52653800  0.07594100  0.34988000  1
  Mn  Mn7  1  0.92305900  0.27458500  0.94865600  1
  Mn  Mn8  1  0.92407100  0.77559600  0.44865600  1
  Mn  Mn9  1  0.52393900  0.57334200  0.84988000  1
  Mn  Mn10  1  0.12500000  0.37500000  0.25000000  1
  Mn  Mn11  1  0.32594100  0.47606100  0.04940300  1
  Mn  Mn12  1  0.72541500  0.67407100  0.64847400  1
  Mn  Mn13  1  0.82334200  0.47346200  0.54940300  1
  Mn  Mn14  1  0.02559600  0.07694100  0.35152600  1
  Mn  Mn15  1  0.42665800  0.27653800  0.95059700  1
  Mn  Mn16  1  0.72346200  0.67405900  0.15012000  1
  Mn  Mn17  1  0.12500000  0.87500000  0.75000000  1
  Mn  Mn18  1  0.12500000  0.87500000  0.25000000  1
  Mn  Mn19  1  0.32592900  0.97440400  0.05134400  1
  O  O0  1  0.77242300  0.31611400  0.36830800  1
  O  O1  1  0.68388600  0.05219400  0.45630800  1
  O  O2  1  0.94780600  0.40411400  0.63169200  1
  O  O3  1  0.16769800  0.50220000  0.44697200  1
  O  O4  1  0.76531600  0.29770000  0.84382200  1
  O  O5  1  0.49780000  0.94477200  0.66549800  1
  O  O6  1  0.07850700  0.23468400  0.53238400  1
  O  O7  1  0.67798700  0.03476700  0.93134700  1
  O  O8  1  0.85327500  0.12266500  0.75609100  1
  O  O9  1  0.25336000  0.32201300  0.35677900  1
  O  O10  1  0.45387800  0.92149300  0.15617800  1
  O  O11  1  0.57201300  0.71523300  0.56865300  1
  O  O12  1  0.17149300  0.51531600  0.96761600  1
  O  O13  1  0.39672500  0.62733500  0.74390900  1
  O  O14  1  0.99664000  0.42798700  0.14322100  1
  O  O15  1  0.48468400  0.45230000  0.65617800  1
  O  O16  1  0.08230200  0.24780000  0.05302800  1
  O  O17  1  0.14658000  0.00336000  0.43134700  1
  O  O18  1  0.34718400  0.60327500  0.23061000  1
  O  O19  1  0.75220000  0.80522800  0.83450200  1
  O  O20  1  0.70230000  0.54612200  0.46761600  1
  O  O21  1  0.90281600  0.14672500  0.26939000  1
  O  O22  1  0.56611400  0.69780600  0.04369200  1
  O  O23  1  0.30219400  0.34588600  0.86830800  1
  O  O24  1  0.96523300  0.89658000  0.64322100  1
  O  O25  1  0.65411400  0.52242300  0.95630800  1
  O  O26  1  0.47757700  0.43388600  0.13169200  1
  O  O27  1  0.05522800  0.72072600  0.55302800  1
  O  O28  1  0.87733500  0.63342500  0.73061000  1
  O  O29  1  0.97072600  0.91769800  0.16549800  1
  O  O30  1  0.19477200  0.02927400  0.94697200  1
  O  O31  1  0.79612200  0.82850700  0.34382200  1
  O  O32  1  0.37266500  0.11657500  0.76939000  1
  O  O33  1  0.59588600  0.22757700  0.54369200  1
  O  O34  1  0.88342500  0.65281600  0.25609100  1
  O  O35  1  0.54770000  0.20387800  0.03238400  1
  O  O36  1  0.28476700  0.85342000  0.85677900  1
  O  O37  1  0.10342000  0.74664000  0.06865300  1
  O  O38  1  0.36657500  0.09718400  0.24390900  1
  O  O39  1  0.27927400  0.83230200  0.33450200  1
loop_
_geom_bond_atom_site_label_1
_geom_bond_atom_site_label_2
_geom_bond_distance
_geom_bond_site_symmetry_2
Li0 O5 1.976535 1_555
Li0 O3 1.976535 1_555
Li0 O27 1.976535 1_555
Li0 O39 1.976535 1_555
Li1 O29 1.976535 1_445
Li1 O19 1.976535 1_444
Li1 O16 1.976535 1_555
Li1 O30 1.976535 1_554
Mn0 O1 1.943663 1_555
Mn0 O2 1.949062 1_555
Mn0 O21 1.949287 1_555
Mn0 O6 1.952648 1_655
Mn0 O0 1.953720 1_555
Mn0 O3 1.973544 1_655
Mn1 O35 1.940398 1_556
Mn1 O36 1.942467 1_545
Mn1 O32 1.943060 1_555
Mn1 O7 1.952727 1_555
Mn1 O4 1.955307 1_555
Mn1 O5 1.979374 1_545
Mn2 O2 1.943663 1_555
Mn2 O33 1.949054 1_555
Mn2 O8 1.949287 1_555
Mn2 O4 1.952639 1_555
Mn2 O1 1.953729 1_555
Mn2 O5 1.973544 1_545
Mn3 O13 1.953710 1_555
Mn3 O8 1.953710 1_565
Mn3 O7 1.953809 1_565
Mn3 O11 1.953809 1_555
Mn3 O5 1.988619 1_555
Mn3 O19 1.988619 1_555
Mn4 O15 1.940398 1_555
Mn4 O11 1.942472 1_555
Mn4 O13 1.943052 1_555
Mn4 O9 1.952735 1_555
Mn4 O6 1.955303 1_555
Mn4 O3 1.979374 1_555
Mn5 O12 1.940389 1_554
Mn5 O14 1.942479 1_455
Mn5 O18 1.943043 1_555
Mn5 O37 1.952735 1_555
Mn5 O10 1.955299 1_555
Mn5 O39 1.979379 1_555
Mn6 O0 1.943668 1_555
Mn6 O1 1.949062 1_555
Mn6 O38 1.949279 1_555
Mn6 O10 1.952643 1_545
Mn6 O33 1.953725 1_555
Mn6 O39 1.973544 1_545
Mn7 O4 1.940398 1_555
Mn7 O7 1.942472 1_555
Mn7 O8 1.943052 1_555
Mn7 O14 1.952735 1_556
Mn7 O12 1.955303 1_655
Mn7 O16 1.979374 1_656
Mn8 O31 1.940414 1_555
Mn8 O17 1.942476 1_665
Mn8 O34 1.943044 1_555
Mn8 O24 1.952739 1_555
Mn8 O20 1.955303 1_555
Mn8 O27 1.979366 1_655
Mn9 O23 1.943663 1_555
Mn9 O25 1.949054 1_555
Mn9 O13 1.949287 1_555
Mn9 O15 1.952639 1_555
Mn9 O22 1.953729 1_556
Mn9 O19 1.973544 1_555
Mn10 O18 1.953710 1_555
Mn10 O21 1.953710 1_455
Mn10 O9 1.953804 1_555
Mn10 O14 1.953804 1_455
Mn10 O16 1.988619 1_555
Mn10 O3 1.988619 1_555
Mn11 O22 1.943663 1_555
Mn11 O23 1.949062 1_554
Mn11 O18 1.949287 1_555
Mn11 O12 1.952648 1_554
Mn11 O26 1.953720 1_555
Mn11 O16 1.973544 1_555
Mn12 O20 1.940398 1_555
Mn12 O24 1.942467 1_555
Mn12 O28 1.943060 1_555
Mn12 O11 1.952727 1_555
Mn12 O15 1.955307 1_555
Mn12 O19 1.979374 1_555
Mn13 O33 1.943668 1_555
Mn13 O0 1.949067 1_555
Mn13 O28 1.949282 1_555
Mn13 O20 1.952639 1_555
Mn13 O2 1.953729 1_555
Mn13 O27 1.973544 1_655
Mn14 O6 1.940389 1_555
Mn14 O9 1.942479 1_555
Mn14 O21 1.943043 1_455
Mn14 O17 1.952735 1_555
Mn14 O31 1.955299 1_445
Mn14 O29 1.979379 1_445
Mn15 O25 1.943668 1_555
Mn15 O26 1.949067 1_556
Mn15 O32 1.949282 1_555
Mn15 O35 1.952639 1_556
Mn15 O23 1.953729 1_555
Mn15 O30 1.973544 1_555
Mn16 O26 1.943668 1_555
Mn16 O22 1.949062 1_555
Mn16 O34 1.949279 1_555
Mn16 O31 1.952643 1_555
Mn16 O25 1.953725 1_554
Mn16 O29 1.973544 1_555
Mn17 O32 1.953714 1_565
Mn17 O28 1.953714 1_455
Mn17 O36 1.953805 1_555
Mn17 O24 1.953805 1_455
Mn17 O30 1.988619 1_565
Mn17 O27 1.988619 1_555
Mn18 O38 1.953715 1_565
Mn18 O34 1.953715 1_455
Mn18 O17 1.953809 1_565
Mn18 O37 1.953809 1_555
Mn18 O39 1.988619 1_555
Mn18 O29 1.988619 1_455
Mn19 O10 1.940414 1_555
Mn19 O37 1.942476 1_555
Mn19 O38 1.943044 1_565
Mn19 O36 1.952739 1_554
Mn19 O35 1.955303 1_565
Mn19 O30 1.979366 1_564
