# generated using pymatgen
data_Li4Cr3FeO8
_symmetry_space_group_name_H-M   'P 1'
_cell_length_a   5.12221700
_cell_length_b   7.77045429
_cell_length_c   7.79070226
_cell_angle_alpha   81.87376136
_cell_angle_beta   83.79320022
_cell_angle_gamma   71.01726840
_symmetry_Int_Tables_number   1
_chemical_formula_structural   Li4Cr3FeO8
_chemical_formula_sum   'Li8 Cr6 Fe2 O16'
_cell_volume   289.63729079
_cell_formula_units_Z   2
loop_
 _symmetry_equiv_pos_site_id
 _symmetry_equiv_pos_as_xyz
  1  'x, y, z'
loop_
 _atom_site_type_symbol
 _atom_site_label
 _atom_site_symmetry_multiplicity
 _atom_site_fract_x
 _atom_site_fract_y
 _atom_site_fract_z
 _atom_site_occupancy
  Li  Li0  1  0.50036000  0.87511500  0.87442700  1
  Li  Li1  1  0.49892600  0.62433700  0.62852400  1
  Li  Li2  1  0.50097100  0.74924300  0.25077600  1
  Li  Li3  1  0.49902900  0.25075700  0.74922400  1
  Li  Li4  1  0.50107400  0.37566300  0.37147600  1
  Li  Li5  1  0.50000000  0.50000000  0.00000000  1
  Li  Li6  1  0.50000000  0.00000000  0.50000000  1
  Li  Li7  1  0.49964000  0.12488500  0.12557300  1
  Cr  Cr0  1  0.00034700  0.68553400  0.43848800  1
  Cr  Cr1  1  0.99990300  0.80963100  0.06237200  1
  Cr  Cr2  1  0.99965300  0.31446600  0.56151200  1
  Cr  Cr3  1  0.00018700  0.93565100  0.68802300  1
  Cr  Cr4  1  0.99981300  0.06434900  0.31197700  1
  Cr  Cr5  1  0.00009700  0.19036900  0.93762800  1
  Fe  Fe0  1  0.00006800  0.56165400  0.81435300  1
  Fe  Fe1  1  0.99993200  0.43834600  0.18564700  1
  O  O0  1  0.22347800  0.72010900  0.84497100  1
  O  O1  1  0.77596700  0.77166200  0.65869300  1
  O  O2  1  0.22658000  0.84837300  0.46944400  1
  O  O3  1  0.77671800  0.40448500  0.78057300  1
  O  O4  1  0.22450400  0.47469400  0.59935500  1
  O  O5  1  0.22328200  0.59551500  0.21942700  1
  O  O6  1  0.77549600  0.52530600  0.40064500  1
  O  O7  1  0.22643600  0.09881600  0.71914900  1
  O  O8  1  0.22403300  0.22833800  0.34130700  1
  O  O9  1  0.77744300  0.64641500  0.02929400  1
  O  O10  1  0.77342000  0.15162700  0.53055600  1
  O  O11  1  0.22255700  0.35358500  0.97070600  1
  O  O12  1  0.77652200  0.27989100  0.15502900  1
  O  O13  1  0.22630700  0.97336900  0.09424500  1
  O  O14  1  0.77356400  0.90118400  0.28085100  1
  O  O15  1  0.77369300  0.02663100  0.90575500  1
loop_
_geom_bond_atom_site_label_1
_geom_bond_atom_site_label_2
_geom_bond_distance
_geom_bond_site_symmetry_2
Li0 O1 2.143501 1_555
Li0 O15 2.152537 1_565
Li0 O13 2.153786 1_556
Li0 O7 2.153952 1_565
Li0 O9 2.179771 1_556
Li0 O0 2.185103 1_555
Li1 O0 2.131953 1_555
Li1 O3 2.134780 1_555
Li1 O1 2.141158 1_555
Li1 O4 2.141657 1_555
Li1 O2 2.167169 1_555
Li1 O6 2.209991 1_555
Li2 O6 2.134781 1_555
Li2 O2 2.149380 1_555
Li2 O14 2.149385 1_555
Li2 O13 2.162425 1_555
Li2 O9 2.178650 1_555
Li2 O5 2.184652 1_555
Li3 O4 2.134781 1_555
Li3 O10 2.149380 1_555
Li3 O7 2.149385 1_555
Li3 O15 2.162425 1_555
Li3 O11 2.178650 1_555
Li3 O3 2.184652 1_555
Li4 O12 2.131953 1_555
Li4 O5 2.134780 1_555
Li4 O8 2.141158 1_555
Li4 O6 2.141657 1_555
Li4 O10 2.167169 1_555
Li4 O4 2.209991 1_555
Li5 O9 2.135756 1_555
Li5 O11 2.135756 1_554
Li5 O12 2.144790 1_555
Li5 O0 2.144790 1_554
Li5 O5 2.152351 1_555
Li5 O3 2.152351 1_554
Li6 O7 2.149740 1_555
Li6 O14 2.149740 1_545
Li6 O2 2.152018 1_545
Li6 O10 2.152018 1_555
Li6 O8 2.191085 1_555
Li6 O1 2.191085 1_545
Li7 O8 2.143501 1_555
Li7 O13 2.152537 1_545
Li7 O15 2.153786 1_554
Li7 O14 2.153952 1_545
Li7 O11 2.179771 1_554
Li7 O12 2.185103 1_555
Cr0 O6 2.018325 1_455
Cr0 O4 2.019903 1_555
Cr0 O5 2.025419 1_555
Cr0 O2 2.025512 1_555
Cr0 O1 2.027261 1_455
Cr0 O14 2.031236 1_455
Cr1 O0 2.014802 1_654
Cr1 O5 2.015736 1_655
Cr1 O9 2.017277 1_555
Cr1 O14 2.031360 1_555
Cr1 O15 2.031647 1_564
Cr1 O13 2.033920 1_655
Cr2 O4 2.018325 1_655
Cr2 O6 2.019903 1_555
Cr2 O3 2.025419 1_555
Cr2 O10 2.025512 1_555
Cr2 O8 2.027261 1_655
Cr2 O7 2.031236 1_655
Cr3 O0 2.021286 1_555
Cr3 O1 2.021436 1_455
Cr3 O2 2.022958 1_555
Cr3 O15 2.025593 1_465
Cr3 O7 2.028031 1_565
Cr3 O10 2.031882 1_465
Cr4 O12 2.021286 1_555
Cr4 O8 2.021436 1_655
Cr4 O10 2.022958 1_555
Cr4 O13 2.025593 1_645
Cr4 O14 2.028031 1_545
Cr4 O2 2.031882 1_645
Cr5 O12 2.014802 1_456
Cr5 O3 2.015736 1_455
Cr5 O11 2.017277 1_555
Cr5 O7 2.031360 1_555
Cr5 O13 2.031647 1_546
Cr5 O15 2.033920 1_455
Fe0 O3 1.983570 1_455
Fe0 O0 1.985239 1_555
Fe0 O11 1.985259 1_555
Fe0 O9 1.987089 1_456
Fe0 O1 1.993530 1_455
Fe0 O4 1.995496 1_555
Fe1 O5 1.983570 1_655
Fe1 O12 1.985239 1_555
Fe1 O9 1.985259 1_555
Fe1 O11 1.987089 1_654
Fe1 O8 1.993530 1_655
Fe1 O6 1.995496 1_555
