# generated using pymatgen
data_ZnCrO4
_symmetry_space_group_name_H-M   'P 1'
_cell_length_a   6.73715756
_cell_length_b   6.73714391
_cell_length_c   6.73218042
_cell_angle_alpha   79.53531164
_cell_angle_beta   79.53533108
_cell_angle_gamma   85.17460808
_symmetry_Int_Tables_number   1
_chemical_formula_structural   ZnCrO4
_chemical_formula_sum   'Zn4 Cr4 O16'
_cell_volume   295.07448617
_cell_formula_units_Z   4
loop_
 _symmetry_equiv_pos_site_id
 _symmetry_equiv_pos_as_xyz
  1  'x, y, z'
loop_
 _atom_site_type_symbol
 _atom_site_label
 _atom_site_symmetry_multiplicity
 _atom_site_fract_x
 _atom_site_fract_y
 _atom_site_fract_z
 _atom_site_occupancy
  Zn  Zn0  1  0.79517779  0.79518179  0.86463776  1
  Zn  Zn1  1  0.81789114  0.18211252  0.49999970  1
  Zn  Zn2  1  0.18210849  0.81788673  0.50000078  1
  Zn  Zn3  1  0.20482176  0.20481835  0.13536083  1
  Cr  Cr0  1  0.72460357  0.72459630  0.41162429  1
  Cr  Cr1  1  0.74472354  0.25527378  1.00000185  1
  Cr  Cr2  1  0.25527542  0.74472681  -0.00000120  1
  Cr  Cr3  1  0.27539703  0.27540354  0.58837441  1
  O  O0  1  0.85738273  0.85738467  0.53801999  1
  O  O1  1  0.78783998  0.78784054  0.16488457  1
  O  O2  1  0.48814397  0.78115123  0.89408214  1
  O  O3  1  0.78115227  0.48814574  0.89408147  1
  O  O4  1  0.78477739  0.48691138  0.47952427  1
  O  O5  1  0.48691000  0.78478143  0.47952284  1
  O  O6  1  0.11133548  0.80112731  0.81503536  1
  O  O7  1  0.80112712  0.11133759  0.81503546  1
  O  O8  1  0.19887091  0.88866216  0.18496556  1
  O  O9  1  0.88866497  0.19887291  0.18496399  1
  O  O10  1  0.51309107  0.21521934  0.52047555  1
  O  O11  1  0.21522256  0.51308814  0.52047561  1
  O  O12  1  0.21884740  0.51185419  0.10591786  1
  O  O13  1  0.51185614  0.21885130  0.10592242  1
  O  O14  1  0.21216186  0.21215756  0.83511429  1
  O  O15  1  0.14261741  0.14261566  0.46197920  1
loop_
_geom_bond_atom_site_label_1
_geom_bond_atom_site_label_2
_geom_bond_distance
_geom_bond_site_symmetry_2
Cr0 O4 1.621642 1_555
Cr0 O5 1.621713 1_555
Cr0 O1 1.624395 1_555
Cr0 O0 1.735598 1_555
Cr1 O13 1.620138 1_556
Cr1 O3 1.620169 1_555
Cr1 O7 1.685261 1_555
Cr1 O9 1.685262 1_556
Cr2 O2 1.620141 1_554
Cr2 O12 1.620170 1_555
Cr2 O8 1.685259 1_555
Cr2 O6 1.685262 1_554
Cr3 O11 1.621639 1_555
Cr3 O10 1.621715 1_555
Cr3 O14 1.624396 1_555
Cr3 O15 1.735596 1_555
O0 Zn0 2.132196 1_555
O0 Zn2 2.155428 1_655
O0 Zn1 2.155435 1_565
O1 Zn0 2.004596 1_554
O2 Zn0 2.050416 1_555
O3 Zn0 2.050424 1_555
O4 Zn1 2.028990 1_555
O5 Zn2 2.029008 1_555
O6 Zn2 2.071933 1_555
O6 Zn0 2.097892 1_455
O7 Zn1 2.071938 1_555
O7 Zn0 2.097877 1_545
O8 Zn2 2.071936 1_555
O8 Zn3 2.097880 1_565
O9 Zn1 2.071940 1_555
O9 Zn3 2.097886 1_655
O10 Zn1 2.029000 1_555
O11 Zn2 2.028989 1_555
O12 Zn3 2.050423 1_555
O13 Zn3 2.050426 1_555
O14 Zn3 2.004594 1_556
O15 Zn3 2.132200 1_555
O15 Zn1 2.155431 1_455
O15 Zn2 2.155441 1_545
