# generated using pymatgen
data_Li2Co3SbO8
_symmetry_space_group_name_H-M   'P 1'
_cell_length_a   5.88563070
_cell_length_b   5.88563070
_cell_length_c   5.88563087
_cell_angle_alpha   58.92428259
_cell_angle_beta   58.92428259
_cell_angle_gamma   58.92428721
_symmetry_Int_Tables_number   1
_chemical_formula_structural   Li2Co3SbO8
_chemical_formula_sum   'Li2 Co3 Sb1 O8'
_cell_volume   140.62734094
_cell_formula_units_Z   1
loop_
 _symmetry_equiv_pos_site_id
 _symmetry_equiv_pos_as_xyz
  1  'x, y, z'
loop_
 _atom_site_type_symbol
 _atom_site_label
 _atom_site_symmetry_multiplicity
 _atom_site_fract_x
 _atom_site_fract_y
 _atom_site_fract_z
 _atom_site_occupancy
  Li  Li0  1  0.12605800  0.12605800  0.12605800  1
  Li  Li1  1  0.87394200  0.87394200  0.87394200  1
  Co  Co0  1  0.50000000  0.50000000  0.00000000  1
  Co  Co1  1  0.00000000  0.50000000  0.50000000  1
  Co  Co2  1  0.50000000  0.00000000  0.50000000  1
  Sb  Sb0  1  0.50000000  0.50000000  0.50000000  1
  O  O0  1  0.71453500  0.25683300  0.25683300  1
  O  O1  1  0.25683300  0.25683300  0.71453500  1
  O  O2  1  0.73397800  0.73397800  0.73397800  1
  O  O3  1  0.25683300  0.71453500  0.25683300  1
  O  O4  1  0.74316700  0.28546500  0.74316700  1
  O  O5  1  0.26602200  0.26602200  0.26602200  1
  O  O6  1  0.74316700  0.74316700  0.28546500  1
  O  O7  1  0.28546500  0.74316700  0.74316700  1
loop_
_geom_bond_atom_site_label_1
_geom_bond_atom_site_label_2
_geom_bond_distance
_geom_bond_site_symmetry_2
Li0 O1 1.952893 1_554
Li0 O0 1.952893 1_455
Li0 O3 1.952893 1_545
Li0 O5 2.034081 1_555
Li1 O6 1.952893 1_556
Li1 O7 1.952893 1_655
Li1 O4 1.952893 1_565
Li1 O2 2.034081 1_555
Co0 O5 1.936567 1_555
Co0 O2 1.936567 1_554
Co0 O0 1.949132 1_555
Co0 O3 1.949132 1_555
Co0 O4 1.949132 1_554
Co0 O7 1.949132 1_554
Co1 O2 1.936567 1_455
Co1 O5 1.936567 1_555
Co1 O3 1.949132 1_555
Co1 O4 1.949132 1_455
Co1 O1 1.949132 1_555
Co1 O6 1.949132 1_455
Co2 O5 1.936567 1_555
Co2 O2 1.936567 1_545
Co2 O0 1.949132 1_555
Co2 O7 1.949132 1_545
Co2 O1 1.949132 1_555
Co2 O6 1.949132 1_545
O0 Sb0 2.018507 1_555
O1 Sb0 2.018507 1_555
O3 Sb0 2.018507 1_555
O4 Sb0 2.018507 1_555
O6 Sb0 2.018507 1_555
O7 Sb0 2.018507 1_555
