# generated using pymatgen
data_Li3Fe(BO3)2
_symmetry_space_group_name_H-M   'P 1'
_cell_length_a   8.91462800
_cell_length_b   5.19323700
_cell_length_c   11.04087800
_cell_angle_alpha   62.98604267
_cell_angle_beta   90.00000000
_cell_angle_gamma   90.00000000
_symmetry_Int_Tables_number   1
_chemical_formula_structural   Li3Fe(BO3)2
_chemical_formula_sum   'Li12 Fe4 B8 O24'
_cell_volume   455.37789120
_cell_formula_units_Z   4
loop_
 _symmetry_equiv_pos_site_id
 _symmetry_equiv_pos_as_xyz
  1  'x, y, z'
loop_
 _atom_site_type_symbol
 _atom_site_label
 _atom_site_symmetry_multiplicity
 _atom_site_fract_x
 _atom_site_fract_y
 _atom_site_fract_z
 _atom_site_occupancy
  Li  Li0  1  0.97604700  0.51037500  0.33268200  1
  Li  Li1  1  0.65812400  0.45047800  0.38028100  1
  Li  Li2  1  0.98794200  0.92524400  0.89866300  1
  Li  Li3  1  0.15812400  0.54952200  0.11971900  1
  Li  Li4  1  0.48794200  0.07475600  0.60133700  1
  Li  Li5  1  0.47604700  0.48962500  0.16731800  1
  Li  Li6  1  0.52395300  0.51037500  0.83268200  1
  Li  Li7  1  0.51205800  0.92524400  0.39866300  1
  Li  Li8  1  0.84187600  0.45047800  0.88028100  1
  Li  Li9  1  0.01205800  0.07475600  0.10133700  1
  Li  Li10  1  0.34187600  0.54952200  0.61971900  1
  Li  Li11  1  0.02395300  0.48962500  0.66731800  1
  Fe  Fe0  1  0.32684200  0.97280000  0.87647800  1
  Fe  Fe1  1  0.82684200  0.02720000  0.62352200  1
  Fe  Fe2  1  0.17315800  0.97280000  0.37647800  1
  Fe  Fe3  1  0.67315800  0.02720000  0.12352200  1
  B  B0  1  0.32333800  0.45301400  0.37954000  1
  B  B1  1  0.66441600  0.96637100  0.87009700  1
  B  B2  1  0.82333800  0.54698600  0.12046000  1
  B  B3  1  0.16441600  0.03362900  0.62990300  1
  B  B4  1  0.83558400  0.96637100  0.37009700  1
  B  B5  1  0.17666200  0.45301400  0.87954000  1
  B  B6  1  0.33558400  0.03362900  0.12990300  1
  B  B7  1  0.67666200  0.54698600  0.62046000  1
  O  O0  1  0.32789800  0.82426100  0.08368000  1
  O  O1  1  0.66770900  0.31009600  0.59271500  1
  O  O2  1  0.95033000  0.69661100  0.11966000  1
  O  O3  1  0.02656000  0.14816900  0.63947200  1
  O  O4  1  0.29294800  0.12918500  0.66902200  1
  O  O5  1  0.68281000  0.62735900  0.14958000  1
  O  O6  1  0.18281000  0.37264100  0.35042000  1
  O  O7  1  0.79294800  0.87081500  0.83097800  1
  O  O8  1  0.52656000  0.85183100  0.86052800  1
  O  O9  1  0.45033000  0.30338900  0.38034000  1
  O  O10  1  0.82789800  0.17573900  0.41632000  1
  O  O11  1  0.16770900  0.68990400  0.90728500  1
  O  O12  1  0.83229100  0.31009600  0.09271500  1
  O  O13  1  0.17210200  0.82426100  0.58368000  1
  O  O14  1  0.54967000  0.69661100  0.61966000  1
  O  O15  1  0.47344000  0.14816900  0.13947200  1
  O  O16  1  0.20705200  0.12918500  0.16902200  1
  O  O17  1  0.81719000  0.62735900  0.64958000  1
  O  O18  1  0.31719000  0.37264100  0.85042000  1
  O  O19  1  0.70705200  0.87081500  0.33097800  1
  O  O20  1  0.97344000  0.85183100  0.36052800  1
  O  O21  1  0.04967000  0.30338900  0.88034000  1
  O  O22  1  0.33229100  0.68990400  0.40728500  1
  O  O23  1  0.67210200  0.17573900  0.91632000  1
loop_
_geom_bond_atom_site_label_1
_geom_bond_atom_site_label_2
_geom_bond_distance
_geom_bond_site_symmetry_2
Li0 O20 1.932555 1_555
Li0 O6 1.954527 1_655
Li0 O10 2.039425 1_555
Li0 O2 2.110271 1_555
Li1 O10 1.992213 1_555
Li1 O9 2.003610 1_555
Li1 O19 2.042602 1_555
Li1 O1 2.118171 1_555
Li1 O5 2.292309 1_555
Li2 O21 1.959423 1_665
Li2 O7 1.962633 1_555
Li2 O11 1.991299 1_655
Li2 O2 2.200915 1_556
Li2 O3 2.576534 1_665
Li3 O0 1.992213 1_555
Li3 O2 2.003610 1_455
Li3 O16 2.042602 1_555
Li3 O11 2.118171 1_554
Li3 O6 2.292309 1_555
Li4 O14 1.959423 1_545
Li4 O4 1.962633 1_555
Li4 O1 1.991299 1_555
Li4 O9 2.200915 1_555
Li4 O8 2.576534 1_545
Li5 O15 1.932555 1_555
Li5 O5 1.954527 1_555
Li5 O0 2.039425 1_555
Li5 O9 2.110271 1_555
Li6 O8 1.932555 1_555
Li6 O18 1.954527 1_555
Li6 O23 2.039425 1_555
Li6 O14 2.110271 1_555
Li7 O9 1.959423 1_565
Li7 O19 1.962633 1_555
Li7 O22 1.991299 1_555
Li7 O14 2.200915 1_555
Li7 O15 2.576534 1_565
Li8 O23 1.992213 1_555
Li8 O21 2.003610 1_655
Li8 O7 2.042602 1_555
Li8 O12 2.118171 1_556
Li8 O17 2.292309 1_555
Li9 O2 1.959423 1_445
Li9 O16 1.962633 1_555
Li9 O12 1.991299 1_455
Li9 O21 2.200915 1_554
Li9 O20 2.576534 1_445
Li10 O13 1.992213 1_555
Li10 O14 2.003610 1_555
Li10 O4 2.042602 1_555
Li10 O22 2.118171 1_555
Li10 O18 2.292309 1_555
Li11 O3 1.932555 1_555
Li11 O17 1.954527 1_455
Li11 O13 2.039425 1_555
Li11 O21 2.110271 1_555
Fe0 O8 1.922508 1_555
Fe0 O11 1.957702 1_555
Fe0 O18 1.964486 1_565
Fe0 O0 2.055621 1_556
Fe0 O4 2.075428 1_565
Fe1 O3 1.922508 1_655
Fe1 O1 1.957702 1_555
Fe1 O17 1.964486 1_545
Fe1 O10 2.055621 1_555
Fe1 O7 2.075428 1_545
Fe2 O20 1.922508 1_455
Fe2 O22 1.957702 1_555
Fe2 O6 1.964486 1_565
Fe2 O13 2.055621 1_555
Fe2 O16 2.075428 1_565
Fe3 O15 1.922508 1_555
Fe3 O12 1.957702 1_555
Fe3 O5 1.964486 1_545
Fe3 O23 2.055621 1_554
Fe3 O19 2.075428 1_545
B0 O9 1.370858 1_555
B0 O22 1.398572 1_555
B0 O6 1.403171 1_555
B1 O8 1.390093 1_555
B1 O7 1.392982 1_555
B1 O23 1.396938 1_565
B2 O2 1.370858 1_555
B2 O12 1.398572 1_555
B2 O5 1.403171 1_555
B3 O3 1.390093 1_555
B3 O4 1.392982 1_555
B3 O13 1.396938 1_545
B4 O20 1.390093 1_555
B4 O19 1.392982 1_555
B4 O10 1.396938 1_565
B5 O21 1.370858 1_555
B5 O11 1.398572 1_555
B5 O18 1.403171 1_555
B6 O15 1.390093 1_555
B6 O16 1.392982 1_555
B6 O0 1.396938 1_545
B7 O14 1.370858 1_555
B7 O1 1.398572 1_555
B7 O17 1.403171 1_555
