# generated using pymatgen
data_Fe10O11F9
_symmetry_space_group_name_H-M   'P 1'
_cell_length_a   4.78080096
_cell_length_b   4.78080096
_cell_length_c   15.25679600
_cell_angle_alpha   90.00000000
_cell_angle_beta   90.00000000
_cell_angle_gamma   96.12396266
_symmetry_Int_Tables_number   1
_chemical_formula_structural   Fe10O11F9
_chemical_formula_sum   'Fe10 O11 F9'
_cell_volume   346.72026636
_cell_formula_units_Z   1
loop_
 _symmetry_equiv_pos_site_id
 _symmetry_equiv_pos_as_xyz
  1  'x, y, z'
loop_
 _atom_site_type_symbol
 _atom_site_label
 _atom_site_symmetry_multiplicity
 _atom_site_fract_x
 _atom_site_fract_y
 _atom_site_fract_z
 _atom_site_occupancy
  Fe  Fe0  1  0.98974500  0.01025500  0.59446400  1
  Fe  Fe1  1  0.98974500  0.01025500  0.40553600  1
  Fe  Fe2  1  0.00022800  0.99977200  0.20289500  1
  Fe  Fe3  1  0.99986800  0.00013200  0.00000000  1
  Fe  Fe4  1  0.00022800  0.99977200  0.79710500  1
  Fe  Fe5  1  0.53254400  0.46745600  0.50000000  1
  Fe  Fe6  1  0.49993700  0.50006300  0.10057200  1
  Fe  Fe7  1  0.49651900  0.50348100  0.30144800  1
  Fe  Fe8  1  0.49993700  0.50006300  0.89942800  1
  Fe  Fe9  1  0.49651900  0.50348100  0.69855200  1
  O  O0  1  0.81210200  0.18789800  0.50000000  1
  O  O1  1  0.30659800  0.30082800  0.60146800  1
  O  O2  1  0.30659800  0.30082800  0.39853200  1
  O  O3  1  0.29980700  0.30344300  0.20075000  1
  O  O4  1  0.30077900  0.30052900  0.00000000  1
  O  O5  1  0.29980700  0.30344300  0.79925000  1
  O  O6  1  0.69917200  0.69340200  0.60146800  1
  O  O7  1  0.69917200  0.69340200  0.39853200  1
  O  O8  1  0.69655700  0.70019300  0.20075000  1
  O  O9  1  0.69947100  0.69922100  0.00000000  1
  O  O10  1  0.69655700  0.70019300  0.79925000  1
  F  F0  1  0.80628800  0.19371200  0.29972000  1
  F  F1  1  0.80780000  0.19220000  0.10037700  1
  F  F2  1  0.80780000  0.19220000  0.89962300  1
  F  F3  1  0.80628800  0.19371200  0.70028000  1
  F  F4  1  0.19137600  0.80862400  0.50000000  1
  F  F5  1  0.19147200  0.80852800  0.10070600  1
  F  F6  1  0.18780700  0.81219300  0.30177800  1
  F  F7  1  0.18780700  0.81219300  0.69822200  1
  F  F8  1  0.19147200  0.80852800  0.89929400  1
loop_
_geom_bond_atom_site_label_1
_geom_bond_atom_site_label_2
_geom_bond_distance
_geom_bond_site_symmetry_2
Fe0 O0 1.916648 1_555
Fe0 O1 1.945993 1_655
Fe0 O6 1.945993 1_545
Fe1 O0 1.916648 1_555
Fe1 O2 1.945993 1_655
Fe1 O7 1.945993 1_545
Fe2 O8 1.927798 1_455
Fe2 O3 1.927798 1_565
Fe3 O4 1.921261 1_655
Fe3 O9 1.921261 1_545
Fe4 O10 1.927798 1_455
Fe4 O5 1.927798 1_565
Fe5 O0 1.988376 1_555
Fe5 O7 2.003591 1_555
Fe5 O6 2.003591 1_555
Fe5 O2 2.003591 1_555
Fe5 O1 2.003591 1_555
Fe6 O8 1.985733 1_555
Fe6 O3 1.985733 1_555
Fe6 O9 1.994282 1_555
Fe6 O4 1.994282 1_555
Fe7 O2 1.941472 1_555
Fe7 O7 1.941472 1_555
Fe7 O3 1.991842 1_555
Fe7 O8 1.991842 1_555
Fe8 O10 1.985733 1_555
Fe8 O5 1.985733 1_555
Fe8 O9 1.994282 1_556
Fe8 O4 1.994282 1_556
Fe9 O1 1.941472 1_555
Fe9 O6 1.941472 1_555
Fe9 O10 1.991842 1_555
Fe9 O5 1.991842 1_555
F0 Fe2 2.021142 1_645
F0 Fe1 2.075805 1_555
F0 Fe7 2.203412 1_555
F1 Fe3 2.052195 1_555
F1 Fe2 2.078370 1_645
F1 Fe6 2.189700 1_555
F2 Fe3 2.052195 1_556
F2 Fe4 2.078370 1_645
F2 Fe8 2.189700 1_555
F3 Fe4 2.021142 1_645
F3 Fe0 2.075805 1_555
F3 Fe9 2.203412 1_555
F4 Fe1 2.033174 1_465
F4 Fe0 2.033174 1_465
F4 Fe5 2.426582 1_555
F5 Fe3 2.053752 1_465
F5 Fe2 2.069049 1_555
F5 Fe6 2.193980 1_555
F6 Fe2 2.013950 1_555
F6 Fe1 2.119070 1_465
F6 Fe7 2.195742 1_555
F7 Fe4 2.013950 1_555
F7 Fe0 2.119070 1_465
F7 Fe9 2.195742 1_555
F8 Fe3 2.053752 1_466
F8 Fe4 2.069049 1_555
F8 Fe8 2.193980 1_555
