# generated using pymatgen
data_Rb3Nb20O34
_symmetry_space_group_name_H-M   'P 1'
_cell_length_a   6.08252400
_cell_length_b   10.53426100
_cell_length_c   13.56551942
_cell_angle_alpha   75.07502893
_cell_angle_beta   90.00000000
_cell_angle_gamma   90.00000000
_symmetry_Int_Tables_number   1
_chemical_formula_structural   Rb3Nb20O34
_chemical_formula_sum   'Rb3 Nb20 O34'
_cell_volume   839.88552672
_cell_formula_units_Z   1
loop_
 _symmetry_equiv_pos_site_id
 _symmetry_equiv_pos_as_xyz
  1  'x, y, z'
loop_
 _atom_site_type_symbol
 _atom_site_label
 _atom_site_symmetry_multiplicity
 _atom_site_fract_x
 _atom_site_fract_y
 _atom_site_fract_z
 _atom_site_occupancy
  Rb  Rb0  1  0.00000000  0.12896700  0.56071200  1
  Rb  Rb1  1  0.50000000  0.35730400  0.43078500  1
  Rb  Rb2  1  0.50000000  0.66224700  0.55834700  1
  Nb  Nb0  1  0.77219700  0.04630300  0.08803300  1
  Nb  Nb1  1  0.50000000  0.05486200  0.33023000  1
  Nb  Nb2  1  0.22780300  0.04630300  0.08803300  1
  Nb  Nb3  1  0.00000000  0.24038600  0.26974800  1
  Nb  Nb4  1  0.00000000  0.18060200  0.91231200  1
  Nb  Nb5  1  0.50000000  0.31780400  0.08880000  1
  Nb  Nb6  1  0.50000000  0.25516100  0.72923900  1
  Nb  Nb7  1  0.72844100  0.54682900  0.08919100  1
  Nb  Nb8  1  0.00000000  0.56011800  0.32912600  1
  Nb  Nb9  1  0.00000000  0.43999900  0.67135300  1
  Nb  Nb10  1  0.27155900  0.54682900  0.08919100  1
  Nb  Nb11  1  0.00000000  0.81925400  0.08874800  1
  Nb  Nb12  1  0.72847600  0.45277200  0.91141500  1
  Nb  Nb13  1  0.27152400  0.45277200  0.91141500  1
  Nb  Nb14  1  0.50000000  0.74630600  0.27073800  1
  Nb  Nb15  1  0.00000000  0.75741600  0.72788200  1
  Nb  Nb16  1  0.50000000  0.68163500  0.91174300  1
  Nb  Nb17  1  0.50000000  0.94650400  0.67379900  1
  Nb  Nb18  1  0.77312100  0.95267700  0.91279700  1
  Nb  Nb19  1  0.22687900  0.95267700  0.91279700  1
  O  O0  1  0.00000000  0.11118500  0.18441000  1
  O  O1  1  0.50000000  0.10495800  0.18391800  1
  O  O2  1  0.75155200  0.13422900  0.37020700  1
  O  O3  1  0.00000000  0.37450100  0.36677800  1
  O  O4  1  0.75365000  0.35556200  0.18391900  1
  O  O5  1  0.74715800  0.14534400  0.81392400  1
  O  O6  1  0.24844800  0.13422900  0.37020700  1
  O  O7  1  0.50000000  0.13147200  0.62280200  1
  O  O8  1  0.74508300  0.37103000  0.62448100  1
  O  O9  1  0.24635000  0.35556200  0.18391900  1
  O  O10  1  0.00000000  0.60702700  0.18317800  1
  O  O11  1  0.00000000  0.39269600  0.81781800  1
  O  O12  1  0.25284200  0.14534400  0.81392400  1
  O  O13  1  0.74948700  0.25078000  0.00015300  1
  O  O14  1  0.25491700  0.37103000  0.62448100  1
  O  O15  1  0.50000000  0.39202600  0.81589400  1
  O  O16  1  0.25051300  0.25078000  0.00015300  1
  O  O17  1  0.00000000  0.49963100  0.00032300  1
  O  O18  1  0.50000000  0.60734100  0.18462300  1
  O  O19  1  0.73922900  0.62431800  0.37205400  1
  O  O20  1  0.00000000  0.62486800  0.63281600  1
  O  O21  1  0.74293600  0.85265700  0.18497000  1
  O  O22  1  0.75372700  0.64504200  0.81635200  1
  O  O23  1  0.26077100  0.62431800  0.37205400  1
  O  O24  1  0.50000000  0.87010600  0.37005700  1
  O  O25  1  0.75381200  0.87301700  0.63169800  1
  O  O26  1  0.25706400  0.85265700  0.18497000  1
  O  O27  1  0.00000000  0.89117400  0.81572400  1
  O  O28  1  0.75004000  0.74871900  0.00074200  1
  O  O29  1  0.24627300  0.64504200  0.81635200  1
  O  O30  1  0.24618800  0.87301700  0.63169800  1
  O  O31  1  0.50000000  0.89402400  0.82019600  1
  O  O32  1  0.24996000  0.74871900  0.00074200  1
  O  O33  1  0.50000000  0.00034200  0.00030100  1
loop_
_geom_bond_atom_site_label_1
_geom_bond_atom_site_label_2
_geom_bond_distance
_geom_bond_site_symmetry_2
Nb0 O21 2.130820 1_545
Nb0 O0 2.134640 1_655
Nb0 O33 2.165364 1_555
Nb0 O13 2.181127 1_555
Nb0 O1 2.286665 1_555
Nb1 O24 1.881013 1_545
Nb1 O6 1.888859 1_555
Nb1 O2 1.888859 1_555
Nb1 O1 1.917910 1_555
Nb2 O26 2.130820 1_545
Nb2 O0 2.134640 1_555
Nb2 O33 2.165364 1_555
Nb2 O16 2.181127 1_555
Nb2 O1 2.286665 1_555
Nb3 O0 2.001048 1_555
Nb3 O4 2.084546 1_455
Nb3 O9 2.084546 1_555
Nb3 O2 2.146256 1_455
Nb3 O6 2.146256 1_555
Nb3 O3 2.164824 1_555
Nb4 O12 2.130698 1_555
Nb4 O5 2.130698 1_455
Nb4 O13 2.177624 1_456
Nb4 O16 2.177624 1_556
Nb4 O11 2.271516 1_555
Nb5 O9 2.113737 1_555
Nb5 O4 2.113737 1_555
Nb5 O13 2.164441 1_555
Nb5 O16 2.164441 1_555
Nb5 O1 2.280792 1_555
Nb6 O5 2.057545 1_555
Nb6 O12 2.057545 1_555
Nb6 O15 2.081724 1_555
Nb6 O7 2.179815 1_555
Nb6 O8 2.199574 1_555
Nb6 O14 2.199574 1_555
Nb7 O4 2.097802 1_555
Nb7 O18 2.106675 1_555
Nb7 O28 2.159994 1_555
Nb7 O17 2.176605 1_655
Nb7 O10 2.274316 1_655
Nb8 O23 1.874894 1_555
Nb8 O19 1.874894 1_455
Nb8 O3 1.889386 1_555
Nb8 O10 1.913133 1_555
Nb9 O20 1.881878 1_555
Nb9 O14 1.890578 1_555
Nb9 O8 1.890578 1_455
Nb9 O11 1.919891 1_555
Nb10 O9 2.097802 1_555
Nb10 O18 2.106675 1_555
Nb10 O32 2.159994 1_555
Nb10 O17 2.176605 1_555
Nb10 O10 2.274316 1_555
Nb11 O26 2.123454 1_555
Nb11 O21 2.123454 1_455
Nb11 O28 2.178505 1_455
Nb11 O32 2.178505 1_555
Nb11 O10 2.272421 1_555
Nb12 O22 2.107963 1_555
Nb12 O15 2.108788 1_555
Nb12 O13 2.161870 1_556
Nb12 O17 2.175453 1_656
Nb12 O11 2.270276 1_655
Nb13 O29 2.107963 1_555
Nb13 O15 2.108788 1_555
Nb13 O16 2.161870 1_556
Nb13 O17 2.175453 1_556
Nb13 O11 2.270276 1_555
Nb14 O21 2.029999 1_555
Nb14 O26 2.029999 1_555
Nb14 O18 2.094888 1_555
Nb14 O24 2.102648 1_555
Nb14 O19 2.178976 1_555
Nb14 O23 2.178976 1_555
Nb15 O27 2.066459 1_555
Nb15 O29 2.086562 1_555
Nb15 O22 2.086562 1_455
Nb15 O20 2.130800 1_555
Nb15 O30 2.146928 1_555
Nb15 O25 2.146928 1_455
Nb16 O22 2.112304 1_555
Nb16 O29 2.112304 1_555
Nb16 O32 2.170151 1_556
Nb16 O28 2.170151 1_556
Nb16 O31 2.262037 1_555
Nb17 O25 1.880578 1_555
Nb17 O30 1.880578 1_555
Nb17 O7 1.892325 1_565
Nb17 O31 1.919399 1_555
Nb18 O27 2.120780 1_655
Nb18 O5 2.130957 1_565
Nb18 O33 2.174396 1_566
Nb18 O28 2.176902 1_556
Nb18 O31 2.262598 1_555
Nb19 O27 2.120780 1_555
Nb19 O12 2.130957 1_565
Nb19 O33 2.174396 1_566
Nb19 O32 2.176902 1_556
Nb19 O31 2.262598 1_555
O2 Rb0 2.981876 1_655
O2 Rb1 3.087609 1_555
O3 Rb1 3.155153 1_555
O3 Rb1 3.155153 1_455
O3 Rb0 3.179016 1_555
O6 Rb0 2.981876 1_555
O6 Rb1 3.087609 1_555
O7 Rb1 3.041799 1_555
O7 Rb0 3.157667 1_555
O7 Rb0 3.157667 1_655
O8 Rb1 3.056645 1_555
O8 Rb0 3.284970 1_655
O8 Rb2 3.319723 1_555
O14 Rb1 3.056645 1_555
O14 Rb0 3.284970 1_555
O14 Rb2 3.319723 1_555
O19 Rb2 3.030458 1_555
O19 Rb1 3.083761 1_555
O20 Rb2 3.196865 1_455
O20 Rb2 3.196865 1_555
O23 Rb2 3.030458 1_555
O23 Rb1 3.083761 1_555
O24 Rb2 2.904787 1_555
O25 Rb0 3.016944 1_665
O25 Rb2 3.072666 1_555
O30 Rb0 3.016944 1_565
O30 Rb2 3.072666 1_555
