# generated using pymatgen
data_Li7Fe2P7O24
_symmetry_space_group_name_H-M   'P 1'
_cell_length_a   5.08712100
_cell_length_b   12.11112600
_cell_length_c   15.06291843
_cell_angle_alpha   83.73476590
_cell_angle_beta   90.00000000
_cell_angle_gamma   90.00000000
_symmetry_Int_Tables_number   1
_chemical_formula_structural   Li7Fe2P7O24
_chemical_formula_sum   'Li14 Fe4 P14 O48'
_cell_volume   922.49506481
_cell_formula_units_Z   2
loop_
 _symmetry_equiv_pos_site_id
 _symmetry_equiv_pos_as_xyz
  1  'x, y, z'
loop_
 _atom_site_type_symbol
 _atom_site_label
 _atom_site_symmetry_multiplicity
 _atom_site_fract_x
 _atom_site_fract_y
 _atom_site_fract_z
 _atom_site_occupancy
  Li  Li0  1  0.25542900  0.48341900  0.05295300  1
  Li  Li1  1  0.20213400  0.11484400  0.13698400  1
  Li  Li2  1  0.74457100  0.98341900  0.05295300  1
  Li  Li3  1  0.79786600  0.61484400  0.13698400  1
  Li  Li4  1  0.83108100  0.43075400  0.40692500  1
  Li  Li5  1  0.16891900  0.93075400  0.40692500  1
  Li  Li6  1  0.30013700  0.25000000  0.50000000  1
  Li  Li7  1  0.69986300  0.75000000  0.50000000  1
  Li  Li8  1  0.83108100  0.06924600  0.59307500  1
  Li  Li9  1  0.16891900  0.56924600  0.59307500  1
  Li  Li10  1  0.20213400  0.38515600  0.86301600  1
  Li  Li11  1  0.25542900  0.01658100  0.94704700  1
  Li  Li12  1  0.79786600  0.88515600  0.86301600  1
  Li  Li13  1  0.74457100  0.51658100  0.94704700  1
  Fe  Fe0  1  0.36872600  0.29604800  0.28219400  1
  Fe  Fe1  1  0.63127400  0.79604800  0.28219400  1
  Fe  Fe2  1  0.36872600  0.20395200  0.71780600  1
  Fe  Fe3  1  0.63127400  0.70395200  0.71780600  1
  P  P0  1  0.54846400  0.25000000  0.00000000  1
  P  P1  1  0.45153600  0.75000000  0.00000000  1
  P  P2  1  0.86862900  0.34089000  0.13997300  1
  P  P3  1  0.13137100  0.84089000  0.13997300  1
  P  P4  1  0.61764200  0.04683500  0.27375200  1
  P  P5  1  0.38235800  0.54683500  0.27375200  1
  P  P6  1  0.86629800  0.19106100  0.39391600  1
  P  P7  1  0.13370200  0.69106100  0.39391600  1
  P  P8  1  0.86629800  0.30893900  0.60608400  1
  P  P9  1  0.13370200  0.80893900  0.60608400  1
  P  P10  1  0.61764200  0.45316500  0.72624800  1
  P  P11  1  0.38235800  0.95316500  0.72624800  1
  P  P12  1  0.86862900  0.15911000  0.86002700  1
  P  P13  1  0.13137100  0.65911000  0.86002700  1
  O  O0  1  0.40031200  0.14151500  0.01543100  1
  O  O1  1  0.59968800  0.64151500  0.01543100  1
  O  O2  1  0.75003200  0.24622700  0.08203900  1
  O  O3  1  0.87406400  0.45078500  0.08031300  1
  O  O4  1  0.24996800  0.74622700  0.08203900  1
  O  O5  1  0.12593600  0.95078500  0.08031300  1
  O  O6  1  0.13655800  0.28993600  0.16799000  1
  O  O7  1  0.72436000  0.00925200  0.18899700  1
  O  O8  1  0.68530600  0.34295200  0.21937000  1
  O  O9  1  0.86344200  0.78993600  0.16799000  1
  O  O10  1  0.27564000  0.50925200  0.18899700  1
  O  O11  1  0.39820100  0.13474200  0.25659500  1
  O  O12  1  0.31469400  0.84295200  0.21937000  1
  O  O13  1  0.60179900  0.63474200  0.25659500  1
  O  O14  1  0.86655300  0.10621700  0.31823200  1
  O  O15  1  0.13344700  0.60621700  0.31823200  1
  O  O16  1  0.05196000  0.28829700  0.35890700  1
  O  O17  1  0.46650500  0.45065000  0.34396800  1
  O  O18  1  0.58320700  0.23480000  0.40124900  1
  O  O19  1  0.94804000  0.78829700  0.35890700  1
  O  O20  1  0.53349500  0.95065000  0.34396800  1
  O  O21  1  0.41679300  0.73480000  0.40124900  1
  O  O22  1  0.97899200  0.12824200  0.47763800  1
  O  O23  1  0.02100800  0.62824200  0.47763800  1
  O  O24  1  0.97899200  0.37175800  0.52236200  1
  O  O25  1  0.02100800  0.87175800  0.52236200  1
  O  O26  1  0.58320700  0.26520000  0.59875100  1
  O  O27  1  0.46650500  0.04935000  0.65603200  1
  O  O28  1  0.05196000  0.21170300  0.64109300  1
  O  O29  1  0.41679300  0.76520000  0.59875100  1
  O  O30  1  0.53349500  0.54935000  0.65603200  1
  O  O31  1  0.94804000  0.71170300  0.64109300  1
  O  O32  1  0.86655300  0.39378300  0.68176800  1
  O  O33  1  0.13344700  0.89378300  0.68176800  1
  O  O34  1  0.39820100  0.36525800  0.74340500  1
  O  O35  1  0.68530600  0.15704800  0.78063000  1
  O  O36  1  0.60179900  0.86525800  0.74340500  1
  O  O37  1  0.72436000  0.49074800  0.81100300  1
  O  O38  1  0.13655800  0.21006400  0.83201000  1
  O  O39  1  0.31469400  0.65704800  0.78063000  1
  O  O40  1  0.27564000  0.99074800  0.81100300  1
  O  O41  1  0.86344200  0.71006400  0.83201000  1
  O  O42  1  0.87406400  0.04921500  0.91968700  1
  O  O43  1  0.75003200  0.25377300  0.91796100  1
  O  O44  1  0.12593600  0.54921500  0.91968700  1
  O  O45  1  0.24996800  0.75377300  0.91796100  1
  O  O46  1  0.40031200  0.35848500  0.98456900  1
  O  O47  1  0.59968800  0.85848500  0.98456900  1
loop_
_geom_bond_atom_site_label_1
_geom_bond_atom_site_label_2
_geom_bond_distance
_geom_bond_site_symmetry_2
Li0 O3 2.013528 1_455
Li0 O46 2.057639 1_554
Li0 O10 2.108955 1_555
Li0 O44 2.179302 1_554
Li1 O0 2.084222 1_555
Li1 O11 2.096132 1_555
Li1 O6 2.245519 1_555
Li1 O5 2.279707 1_545
Li2 O5 2.013528 1_655
Li2 O47 2.057639 1_554
Li2 O7 2.108955 1_565
Li2 O42 2.179302 1_564
Li3 O1 2.084222 1_555
Li3 O13 2.096132 1_555
Li3 O9 2.245519 1_555
Li3 O3 2.279707 1_555
Li4 O24 1.956785 1_555
Li4 O17 2.084991 1_555
Li4 O16 2.243835 1_655
Li5 O25 1.956785 1_555
Li5 O20 2.084991 1_555
Li5 O19 2.243835 1_455
Li6 O26 2.092816 1_555
Li6 O18 2.092816 1_555
Li6 O24 2.250640 1_455
Li6 O22 2.250640 1_455
Li6 O16 2.471980 1_555
Li6 O28 2.471980 1_555
Li7 O29 2.092816 1_555
Li7 O21 2.092816 1_555
Li7 O25 2.250640 1_655
Li7 O23 2.250640 1_655
Li7 O19 2.471980 1_555
Li7 O31 2.471980 1_555
Li8 O22 1.956785 1_555
Li8 O27 2.084991 1_555
Li8 O28 2.243835 1_655
Li9 O23 1.956785 1_555
Li9 O30 2.084991 1_555
Li9 O31 2.243835 1_455
Li10 O46 2.084222 1_555
Li10 O34 2.096132 1_555
Li10 O38 2.245519 1_555
Li10 O44 2.279707 1_555
Li11 O42 2.013528 1_455
Li11 O0 2.057639 1_556
Li11 O40 2.108955 1_545
Li11 O5 2.179302 1_546
Li12 O47 2.084222 1_555
Li12 O36 2.096132 1_555
Li12 O41 2.245519 1_555
Li12 O42 2.279707 1_565
Li13 O44 2.013528 1_655
Li13 O1 2.057639 1_556
Li13 O37 2.108955 1_555
Li13 O3 2.179302 1_556
Fe0 O8 1.922113 1_555
Fe0 O16 1.979157 1_555
Fe0 O11 2.037677 1_555
Fe0 O6 2.094621 1_555
Fe0 O18 2.160175 1_555
Fe0 O17 2.235937 1_555
Fe1 O12 1.922113 1_555
Fe1 O19 1.979157 1_555
Fe1 O13 2.037677 1_555
Fe1 O9 2.094621 1_555
Fe1 O21 2.160175 1_555
Fe1 O20 2.235937 1_555
Fe2 O35 1.922113 1_555
Fe2 O28 1.979157 1_555
Fe2 O34 2.037677 1_555
Fe2 O38 2.094621 1_555
Fe2 O26 2.160175 1_555
Fe2 O27 2.235937 1_555
Fe3 O39 1.922113 1_555
Fe3 O31 1.979157 1_555
Fe3 O36 2.037677 1_555
Fe3 O41 2.094621 1_555
Fe3 O29 2.160175 1_555
Fe3 O30 2.235937 1_555
O0 P0 1.510514 1_555
O1 P1 1.510514 1_555
O2 P0 1.602585 1_555
O2 P2 1.630427 1_555
O3 P2 1.522735 1_555
O4 P1 1.602585 1_555
O4 P3 1.630427 1_555
O5 P3 1.522735 1_555
O6 P2 1.536169 1_455
O7 P4 1.502862 1_555
O8 P2 1.518933 1_555
O9 P3 1.536169 1_655
O10 P5 1.502862 1_555
O11 P4 1.544797 1_555
O12 P3 1.518933 1_555
O13 P5 1.544797 1_555
O14 P6 1.615922 1_555
O14 P4 1.635438 1_555
O15 P7 1.615922 1_555
O15 P5 1.635438 1_555
O16 P6 1.556092 1_455
O17 P5 1.545955 1_555
O18 P6 1.542571 1_555
O19 P7 1.556092 1_655
O20 P4 1.545955 1_565
O21 P7 1.542571 1_555
O22 P6 1.512760 1_555
O23 P7 1.512760 1_555
O24 P8 1.512760 1_555
O25 P9 1.512760 1_555
O26 P8 1.542571 1_555
O27 P11 1.545955 1_545
O28 P8 1.556092 1_455
O29 P9 1.542571 1_555
O30 P10 1.545955 1_555
O31 P9 1.556092 1_655
O32 P8 1.615922 1_555
O32 P10 1.635438 1_555
O33 P9 1.615922 1_555
O33 P11 1.635438 1_555
O34 P10 1.544797 1_555
O35 P12 1.518933 1_555
O36 P11 1.544797 1_555
O37 P10 1.502862 1_555
O38 P12 1.536169 1_455
O39 P13 1.518933 1_555
O40 P11 1.502862 1_555
O41 P13 1.536169 1_655
O42 P12 1.522735 1_555
O43 P0 1.602585 1_556
O43 P12 1.630427 1_555
O44 P13 1.522735 1_555
O45 P1 1.602585 1_556
O45 P13 1.630427 1_555
O46 P0 1.510514 1_556
O47 P1 1.510514 1_556
