# generated using pymatgen
data_Mn2PO5
_symmetry_space_group_name_H-M   'P 1'
_cell_length_a   7.30761921
_cell_length_b   7.30761921
_cell_length_c   9.74046943
_cell_angle_alpha   62.55562623
_cell_angle_beta   62.55562623
_cell_angle_gamma   52.93347707
_symmetry_Int_Tables_number   1
_chemical_formula_structural   Mn2PO5
_chemical_formula_sum   'Mn8 P4 O20'
_cell_volume   355.81458806
_cell_formula_units_Z   4
loop_
 _symmetry_equiv_pos_site_id
 _symmetry_equiv_pos_as_xyz
  1  'x, y, z'
loop_
 _atom_site_type_symbol
 _atom_site_label
 _atom_site_symmetry_multiplicity
 _atom_site_fract_x
 _atom_site_fract_y
 _atom_site_fract_z
 _atom_site_occupancy
  Mn  Mn0  1  0.74584265  0.52535589  0.16544573  1
  Mn  Mn1  1  0.21718524  0.69770337  0.48341364  1
  Mn  Mn2  1  0.30229663  0.78281476  0.01658636  1
  Mn  Mn3  1  0.52535589  0.74584265  0.66544573  1
  Mn  Mn4  1  0.47464411  0.25415735  0.33455427  1
  Mn  Mn5  1  0.69770337  0.21718524  0.98341364  1
  Mn  Mn6  1  0.78281476  0.30229663  0.51658636  1
  Mn  Mn7  1  0.25415735  0.47464411  0.83455427  1
  P  P0  1  0.73187539  0.90807526  0.80927019  1
  P  P1  1  0.09192474  0.26812461  0.69072981  1
  P  P2  1  0.90807526  0.73187539  0.30927019  1
  P  P3  1  0.26812461  0.09192474  0.19072981  1
  O  O0  1  0.89528793  0.94211729  0.64253362  1
  O  O1  1  0.12568145  0.29287921  0.06819273  1
  O  O2  1  0.41198955  0.85791573  0.14249015  1
  O  O3  1  0.14900936  0.43677319  0.69539648  1
  O  O4  1  0.56322681  0.85099064  0.80460352  1
  O  O5  1  0.58337853  0.38644168  0.38663724  1
  O  O6  1  0.61355832  0.41662147  0.11336276  1
  O  O7  1  0.05788271  0.10471207  0.85746638  1
  O  O8  1  0.29287921  0.12568145  0.56819273  1
  O  O9  1  0.14208427  0.58801045  0.35750985  1
  O  O10  1  0.85791573  0.41198955  0.64249015  1
  O  O11  1  0.70712079  0.87431855  0.43180727  1
  O  O12  1  0.94211729  0.89528793  0.14253362  1
  O  O13  1  0.38644168  0.58337853  0.88663724  1
  O  O14  1  0.41662147  0.61355832  0.61336276  1
  O  O15  1  0.43677319  0.14900936  0.19539648  1
  O  O16  1  0.85099064  0.56322681  0.30460352  1
  O  O17  1  0.58801045  0.14208427  0.85750985  1
  O  O18  1  0.87431855  0.70712079  0.93180727  1
  O  O19  1  0.10471207  0.05788271  0.35746638  1
loop_
_geom_bond_atom_site_label_1
_geom_bond_atom_site_label_2
_geom_bond_distance
_geom_bond_site_symmetry_2
Mn0 O6 1.890182 1_555
Mn0 O16 2.016540 1_555
Mn0 O5 2.039835 1_555
Mn0 O18 2.138286 1_554
Mn0 O2 2.182355 1_555
Mn0 O1 2.205280 1_655
Mn1 O14 2.001744 1_555
Mn1 O19 2.110323 1_565
Mn1 O9 2.122396 1_555
Mn1 O3 2.171462 1_555
Mn1 O0 2.291715 1_455
Mn1 O5 2.353078 1_555
Mn2 O13 2.001744 1_554
Mn2 O12 2.110323 1_455
Mn2 O2 2.122396 1_555
Mn2 O4 2.171462 1_554
Mn2 O7 2.291715 1_564
Mn2 O6 2.353078 1_555
Mn3 O14 1.890182 1_555
Mn3 O4 2.016540 1_555
Mn3 O13 2.039835 1_555
Mn3 O11 2.138286 1_555
Mn3 O10 2.182355 1_555
Mn3 O8 2.205280 1_565
Mn4 O5 1.890182 1_555
Mn4 O15 2.016540 1_555
Mn4 O6 2.039835 1_555
Mn4 O8 2.138286 1_555
Mn4 O9 2.182355 1_555
Mn4 O11 2.205280 1_545
Mn5 O6 2.001744 1_556
Mn5 O7 2.110323 1_655
Mn5 O17 2.122396 1_555
Mn5 O15 2.171462 1_556
Mn5 O12 2.291715 1_546
Mn5 O13 2.353078 1_555
Mn6 O5 2.001744 1_555
Mn6 O0 2.110323 1_545
Mn6 O10 2.122396 1_555
Mn6 O16 2.171462 1_555
Mn6 O19 2.291715 1_655
Mn6 O14 2.353078 1_555
Mn7 O13 1.890182 1_555
Mn7 O3 2.016540 1_555
Mn7 O14 2.039835 1_555
Mn7 O1 2.138286 1_556
Mn7 O17 2.182355 1_555
Mn7 O18 2.205280 1_455
O0 P0 1.524321 1_555
O1 P3 1.533459 1_555
O2 P3 1.538964 1_565
O3 P1 1.543958 1_555
O4 P0 1.543958 1_555
O7 P1 1.524321 1_555
O8 P1 1.533459 1_555
O9 P2 1.538964 1_455
O10 P1 1.538964 1_655
O11 P2 1.533459 1_555
O12 P2 1.524321 1_555
O15 P3 1.543958 1_555
O16 P2 1.543958 1_555
O17 P0 1.538964 1_545
O18 P0 1.533459 1_555
O19 P3 1.524321 1_555
