# generated using pymatgen
data_LiCoPO4F
_symmetry_space_group_name_H-M   'P 1'
_cell_length_a   13.31976700
_cell_length_b   5.11787900
_cell_length_c   11.28037439
_cell_angle_alpha   89.66798317
_cell_angle_beta   90.00000000
_cell_angle_gamma   90.00000000
_symmetry_Int_Tables_number   1
_chemical_formula_structural   LiCoPO4F
_chemical_formula_sum   'Li8 Co8 P8 O32 F8'
_cell_volume   768.95843284
_cell_formula_units_Z   8
loop_
 _symmetry_equiv_pos_site_id
 _symmetry_equiv_pos_as_xyz
  1  'x, y, z'
loop_
 _atom_site_type_symbol
 _atom_site_label
 _atom_site_symmetry_multiplicity
 _atom_site_fract_x
 _atom_site_fract_y
 _atom_site_fract_z
 _atom_site_occupancy
  Li  Li0  1  0.77012500  0.21182800  0.82014100  1
  Li  Li1  1  0.22987500  0.21182800  0.32014100  1
  Li  Li2  1  0.75719700  0.67240900  0.18562100  1
  Li  Li3  1  0.24280300  0.67240900  0.68562100  1
  Li  Li4  1  0.35734300  0.78505400  0.89425500  1
  Li  Li5  1  0.64265700  0.78505400  0.39425500  1
  Li  Li6  1  0.22394100  0.79086500  0.18619500  1
  Li  Li7  1  0.77605900  0.79086500  0.68619500  1
  Co  Co0  1  0.48030200  0.21891600  0.83064300  1
  Co  Co1  1  0.51969800  0.21891600  0.33064300  1
  Co  Co2  1  0.01863700  0.28391100  0.32911300  1
  Co  Co3  1  0.98136300  0.28391100  0.82911300  1
  Co  Co4  1  0.01511500  0.71609600  0.16927900  1
  Co  Co5  1  0.98488500  0.71609600  0.66927900  1
  Co  Co6  1  0.47602400  0.78690900  0.66201600  1
  Co  Co7  1  0.52397600  0.78690900  0.16201600  1
  P  P0  1  0.87688300  0.20627400  0.09186300  1
  P  P1  1  0.12311700  0.20627400  0.59186300  1
  P  P2  1  0.61903700  0.28938200  0.59545200  1
  P  P3  1  0.38096300  0.28938200  0.09545200  1
  P  P4  1  0.62036200  0.70503500  0.90262000  1
  P  P5  1  0.37963800  0.70503500  0.40262000  1
  P  P6  1  0.88205900  0.80681800  0.40875800  1
  P  P7  1  0.11794100  0.80681800  0.90875800  1
  O  O0  1  0.90752500  0.10101200  0.39038300  1
  O  O1  1  0.09247500  0.10101200  0.89038300  1
  O  O2  1  0.52847100  0.15005000  0.66068500  1
  O  O3  1  0.47152900  0.15005000  0.16068500  1
  O  O4  1  0.71749600  0.19779700  0.64629800  1
  O  O5  1  0.28250400  0.19779700  0.14629800  1
  O  O6  1  0.39278800  0.20453900  0.96295200  1
  O  O7  1  0.60721200  0.20453900  0.46295200  1
  O  O8  1  0.88822500  0.23273500  0.95454700  1
  O  O9  1  0.11177500  0.23273500  0.45454700  1
  O  O10  1  0.77838900  0.31899900  0.12983800  1
  O  O11  1  0.22161100  0.31899900  0.62983800  1
  O  O12  1  0.03214900  0.35544600  0.65153900  1
  O  O13  1  0.96785100  0.35544600  0.15153900  1
  O  O14  1  0.60413100  0.40936700  0.87382800  1
  O  O15  1  0.39586900  0.40936700  0.37382800  1
  O  O16  1  0.40024600  0.59209900  0.10414300  1
  O  O17  1  0.59975400  0.59209900  0.60414300  1
  O  O18  1  0.96566100  0.64862800  0.34210500  1
  O  O19  1  0.03433900  0.64862800  0.84210500  1
  O  O20  1  0.77932100  0.73806100  0.36247000  1
  O  O21  1  0.22067900  0.73806100  0.86247000  1
  O  O22  1  0.88972900  0.73898500  0.54338100  1
  O  O23  1  0.11027100  0.73898500  0.04338100  1
  O  O24  1  0.61506300  0.73840300  0.04094200  1
  O  O25  1  0.38493700  0.73840300  0.54094200  1
  O  O26  1  0.71624700  0.81524300  0.85264400  1
  O  O27  1  0.28375300  0.81524300  0.35264400  1
  O  O28  1  0.52576800  0.85217400  0.85244800  1
  O  O29  1  0.47423200  0.85217400  0.35244800  1
  O  O30  1  0.89201400  0.91002900  0.12730000  1
  O  O31  1  0.10798600  0.91002900  0.62730000  1
  F  F0  1  0.90758200  0.00152900  0.74541200  1
  F  F1  1  0.37099300  0.99321000  0.74939100  1
  F  F2  1  0.62900700  0.99321000  0.24939100  1
  F  F3  1  0.09241800  0.00152900  0.24541200  1
  F  F4  1  0.41062200  0.51486500  0.76076200  1
  F  F5  1  0.86872200  0.50300600  0.75166000  1
  F  F6  1  0.58937800  0.51486500  0.26076200  1
  F  F7  1  0.13127800  0.50300600  0.25166000  1
loop_
_geom_bond_atom_site_label_1
_geom_bond_atom_site_label_2
_geom_bond_distance
_geom_bond_site_symmetry_2
Li0 O4 2.084172 1_555
Li0 O26 2.181832 1_545
Li0 O8 2.187824 1_555
Li0 O14 2.506884 1_555
Li1 O5 2.084172 1_555
Li1 O27 2.181832 1_545
Li1 O9 2.187824 1_555
Li1 O15 2.506884 1_555
Li2 O10 1.939139 1_555
Li2 O20 2.046270 1_555
Li2 O30 2.264313 1_555
Li2 O24 2.520991 1_555
Li3 O11 1.939139 1_555
Li3 O21 2.046270 1_555
Li3 O31 2.264313 1_555
Li3 O25 2.520991 1_555
Li4 O21 1.871098 1_555
Li4 O28 2.317604 1_555
Li4 O6 2.334900 1_565
Li4 O16 2.623026 1_556
Li5 O20 1.871098 1_555
Li5 O29 2.317604 1_555
Li5 O7 2.334900 1_565
Li5 O17 2.623026 1_555
Li6 O27 2.044111 1_555
Li6 O23 2.227809 1_555
Li6 O5 2.266605 1_565
Li7 O26 2.044111 1_555
Li7 O22 2.227809 1_555
Li7 O4 2.266605 1_565
Co0 O6 1.894851 1_555
Co0 F4 1.939864 1_555
Co0 O14 1.978205 1_555
Co0 O28 1.986153 1_545
Co0 O2 2.054098 1_555
Co0 F1 2.075218 1_545
Co1 O7 1.894851 1_555
Co1 F6 1.939864 1_555
Co1 O15 1.978205 1_555
Co1 O29 1.986153 1_545
Co1 O3 2.054098 1_555
Co1 F2 2.075218 1_545
Co2 O0 1.880624 1_455
Co2 O9 1.898788 1_555
Co2 F3 1.990395 1_555
Co2 O18 2.001667 1_455
Co2 F7 2.064066 1_555
Co2 O13 2.143722 1_455
Co3 O1 1.880624 1_655
Co3 O8 1.898788 1_555
Co3 F0 1.990395 1_555
Co3 O19 2.001667 1_655
Co3 F5 2.064066 1_555
Co3 O12 2.143722 1_655
Co4 O23 1.906604 1_555
Co4 O13 1.961503 1_455
Co4 O30 1.972926 1_455
Co4 F3 1.986519 1_565
Co4 O18 2.084717 1_455
Co4 F7 2.105991 1_555
Co5 O22 1.906604 1_555
Co5 O12 1.961503 1_655
Co5 O31 1.972926 1_655
Co5 F0 1.986519 1_565
Co5 O19 2.084717 1_655
Co5 F5 2.105991 1_555
Co6 O25 1.844682 1_555
Co6 F4 1.979932 1_555
Co6 O2 1.985443 1_565
Co6 F1 2.013813 1_555
Co6 O17 2.035645 1_555
Co6 O28 2.274515 1_555
Co7 O24 1.844682 1_555
Co7 F6 1.979932 1_555
Co7 O3 1.985443 1_565
Co7 F2 2.013813 1_555
Co7 O16 2.035645 1_555
Co7 O29 2.274515 1_555
O0 P6 1.556080 1_545
O1 P7 1.556080 1_545
O2 P2 1.580851 1_555
O3 P3 1.580851 1_555
O4 P2 1.505145 1_555
O5 P3 1.505145 1_555
O6 P3 1.566796 1_556
O7 P2 1.566796 1_555
O8 P0 1.561428 1_556
O9 P1 1.561428 1_555
O10 P0 1.496771 1_555
O11 P1 1.496771 1_555
O12 P1 1.584332 1_555
O13 P0 1.584332 1_555
O14 P4 1.564504 1_555
O15 P5 1.564504 1_555
O16 P3 1.574032 1_555
O17 P2 1.574032 1_555
O18 P6 1.570932 1_555
O19 P7 1.570932 1_555
O20 P6 1.507063 1_555
O21 P7 1.507063 1_555
O22 P6 1.559162 1_555
O23 P7 1.559162 1_554
O24 P4 1.572210 1_554
O25 P5 1.572210 1_555
O26 P4 1.504464 1_555
O27 P5 1.504464 1_555
O28 P4 1.571612 1_555
O29 P5 1.571612 1_555
O30 P0 1.578635 1_565
O31 P1 1.578635 1_565
F0 Li7 2.164710 1_545
F0 Li0 2.287287 1_555
F1 Li4 1.954004 1_555
F1 Li3 2.478336 1_555
F2 Li5 1.954004 1_555
F2 Li2 2.478336 1_555
F3 Li6 2.164710 1_545
F3 Li1 2.287287 1_555
F4 Li4 2.169669 1_555
F4 Li3 2.521359 1_555
F5 Li7 2.055845 1_555
F5 Li0 2.128113 1_555
F6 Li5 2.169669 1_555
F6 Li2 2.521359 1_555
F7 Li6 2.055845 1_555
F7 Li1 2.128113 1_555
