# generated using pymatgen
data_V4O7F5
_symmetry_space_group_name_H-M   'P 1'
_cell_length_a   5.26107700
_cell_length_b   5.37429257
_cell_length_c   7.35116584
_cell_angle_alpha   88.32222852
_cell_angle_beta   89.94148183
_cell_angle_gamma   89.56545009
_symmetry_Int_Tables_number   1
_chemical_formula_structural   V4O7F5
_chemical_formula_sum   'V4 O7 F5'
_cell_volume   207.75588240
_cell_formula_units_Z   1
loop_
 _symmetry_equiv_pos_site_id
 _symmetry_equiv_pos_as_xyz
  1  'x, y, z'
loop_
 _atom_site_type_symbol
 _atom_site_label
 _atom_site_symmetry_multiplicity
 _atom_site_fract_x
 _atom_site_fract_y
 _atom_site_fract_z
 _atom_site_occupancy
  V  V0  1  0.50064500  0.53204600  0.46801100  1
  V  V1  1  0.46590400  0.46530200  0.97616800  1
  V  V2  1  0.02058600  0.00588700  0.52706700  1
  V  V3  1  0.95686400  0.97460100  0.02355300  1
  O  O0  1  0.92706700  0.99794600  0.25114000  1
  O  O1  1  0.72064900  0.78662000  0.96767300  1
  O  O2  1  0.57702700  0.50039900  0.24862800  1
  O  O3  1  0.42970100  0.49603800  0.74989700  1
  O  O4  1  0.30528900  0.78459200  0.46130500  1
  O  O5  1  0.28992300  0.21862800  0.03361600  1
  O  O6  1  0.07419100  0.00243500  0.75228200  1
  F  F0  1  0.79867500  0.70360300  0.54419200  1
  F  F1  1  0.79373900  0.29242300  0.95935000  1
  F  F2  1  0.70955800  0.21895100  0.53663300  1
  F  F3  1  0.21701300  0.71524300  0.04485600  1
  F  F4  1  0.21316900  0.30528500  0.45563000  1
loop_
_geom_bond_atom_site_label_1
_geom_bond_atom_site_label_2
_geom_bond_distance
_geom_bond_site_symmetry_2
O0 V3 1.688432 1_555
O0 V2 2.089418 1_665
O1 V3 1.666788 1_556
O1 V1 2.193349 1_555
O2 V0 1.674808 1_555
O2 V1 2.101227 1_554
O3 V1 1.677616 1_555
O3 V0 2.108736 1_555
O4 V0 1.695859 1_555
O4 V2 1.974044 1_565
O5 V1 1.666750 1_554
O5 V3 2.199230 1_445
O6 V2 1.679269 1_555
O6 V3 2.088416 1_446
F0 V0 1.917330 1_555
F0 V2 2.008626 1_665
F1 V3 1.951452 1_546
F1 V1 1.958396 1_555
F2 V2 1.992436 1_655
F2 V0 2.053593 1_555
F3 V1 1.945663 1_554
F3 V3 1.949191 1_455
F4 V0 1.953370 1_555
F4 V2 1.966101 1_555
