# generated using pymatgen
data_Ti3Sb2(PO4)6
_symmetry_space_group_name_H-M   'P 1'
_cell_length_a   8.80751224
_cell_length_b   8.80751224
_cell_length_c   8.80751195
_cell_angle_alpha   59.31900788
_cell_angle_beta   59.31900788
_cell_angle_gamma   59.31900911
_symmetry_Int_Tables_number   1
_chemical_formula_structural   Ti3Sb2(PO4)6
_chemical_formula_sum   'Ti3 Sb2 P6 O24'
_cell_volume   475.61823850
_cell_formula_units_Z   1
loop_
 _symmetry_equiv_pos_site_id
 _symmetry_equiv_pos_as_xyz
  1  'x, y, z'
loop_
 _atom_site_type_symbol
 _atom_site_label
 _atom_site_symmetry_multiplicity
 _atom_site_fract_x
 _atom_site_fract_y
 _atom_site_fract_z
 _atom_site_occupancy
  Ti  Ti0  1  0.13728200  0.13728200  0.13728200  1
  Ti  Ti1  1  0.34989000  0.34989000  0.34989000  1
  Ti  Ti2  1  0.65584700  0.65584700  0.65584700  1
  Sb  Sb0  1  0.96837900  0.96837900  0.96837900  1
  Sb  Sb1  1  0.49761200  0.49761200  0.49761200  1
  P  P0  1  0.52677400  0.25941800  0.95543800  1
  P  P1  1  0.95543800  0.52677400  0.25941800  1
  P  P2  1  0.25941800  0.95543800  0.52677400  1
  P  P3  1  0.75171200  0.05275500  0.46831700  1
  P  P4  1  0.05275500  0.46831700  0.75171200  1
  P  P5  1  0.46831700  0.75171200  0.05275500  1
  O  O0  1  0.32381400  0.11211500  0.48220100  1
  O  O1  1  0.48220100  0.32381400  0.11211500  1
  O  O2  1  0.91585700  0.06346700  0.27487200  1
  O  O3  1  0.11211500  0.48220100  0.32381400  1
  O  O4  1  0.78053900  0.04774100  0.62165600  1
  O  O5  1  0.58047800  0.23882300  0.41977100  1
  O  O6  1  0.06346700  0.27487200  0.91585700  1
  O  O7  1  0.23882300  0.41977100  0.58047800  1
  O  O8  1  0.36750000  0.20725300  0.99280600  1
  O  O9  1  0.41977100  0.58047800  0.23882300  1
  O  O10  1  0.71269300  0.09363400  0.94510800  1
  O  O11  1  0.99280600  0.36750000  0.20725300  1
  O  O12  1  0.04774100  0.62165600  0.78053900  1
  O  O13  1  0.27487200  0.91585700  0.06346700  1
  O  O14  1  0.55012600  0.42844800  0.76737600  1
  O  O15  1  0.62165600  0.78053900  0.04774100  1
  O  O16  1  0.76737600  0.55012600  0.42844800  1
  O  O17  1  0.94510800  0.71269300  0.09363400  1
  O  O18  1  0.42844800  0.76737600  0.55012600  1
  O  O19  1  0.20725300  0.99280600  0.36750000  1
  O  O20  1  0.88094900  0.50935200  0.70260700  1
  O  O21  1  0.09363400  0.94510800  0.71269300  1
  O  O22  1  0.50935200  0.70260700  0.88094900  1
  O  O23  1  0.70260700  0.88094900  0.50935200  1
loop_
_geom_bond_atom_site_label_1
_geom_bond_atom_site_label_2
_geom_bond_distance
_geom_bond_site_symmetry_2
O0 P2 1.548760 1_545
O0 Ti1 1.877136 1_555
O1 P0 1.548760 1_554
O1 Ti1 1.877136 1_555
O2 P3 1.569481 1_555
O2 Ti0 1.942312 1_655
O3 P1 1.548760 1_455
O3 Ti1 1.877136 1_555
O4 P3 1.472406 1_555
O5 P3 1.601161 1_555
O5 Ti1 2.023381 1_555
O5 Sb1 2.363106 1_555
O6 P4 1.569481 1_555
O6 Ti0 1.942312 1_556
O7 P4 1.601161 1_555
O7 Ti1 2.023381 1_555
O7 Sb1 2.363106 1_555
O8 P0 1.523002 1_555
O8 Ti0 1.988017 1_556
O9 P5 1.601161 1_555
O9 Ti1 2.023381 1_555
O9 Sb1 2.363106 1_555
O10 P0 1.537912 1_555
O10 Sb0 2.008813 1_545
O11 P1 1.523002 1_555
O11 Ti0 1.988017 1_655
O12 P4 1.472406 1_555
O13 P5 1.569482 1_555
O13 Ti0 1.942312 1_565
O14 P0 1.565409 1_555
O14 Ti2 2.192085 1_555
O14 Sb1 2.363692 1_555
O15 P5 1.472406 1_555
O16 P1 1.565409 1_555
O16 Ti2 2.192085 1_555
O16 Sb1 2.363692 1_555
O17 P1 1.537912 1_555
O17 Sb0 2.008813 1_554
O18 P2 1.565409 1_555
O18 Ti2 2.192085 1_555
O18 Sb1 2.363692 1_555
O19 P2 1.523002 1_555
O19 Ti0 1.988017 1_565
O20 P4 1.599262 1_655
O20 Ti2 1.856201 1_555
O21 P2 1.537912 1_555
O21 Sb0 2.008813 1_455
O22 P5 1.599262 1_556
O22 Ti2 1.856201 1_555
O23 P3 1.599262 1_565
O23 Ti2 1.856201 1_555
