# generated using pymatgen
data_Li2Cr3Ni(SO4)6
_symmetry_space_group_name_H-M   'P 1'
_cell_length_a   9.05025988
_cell_length_b   8.93145382
_cell_length_c   8.96618873
_cell_angle_alpha   55.91625993
_cell_angle_beta   55.42672569
_cell_angle_gamma   55.15093651
_symmetry_Int_Tables_number   1
_chemical_formula_structural   Li2Cr3Ni(SO4)6
_chemical_formula_sum   'Li2 Cr3 Ni1 S6 O24'
_cell_volume   458.86109820
_cell_formula_units_Z   1
loop_
 _symmetry_equiv_pos_site_id
 _symmetry_equiv_pos_as_xyz
  1  'x, y, z'
loop_
 _atom_site_type_symbol
 _atom_site_label
 _atom_site_symmetry_multiplicity
 _atom_site_fract_x
 _atom_site_fract_y
 _atom_site_fract_z
 _atom_site_occupancy
  Li  Li0  1  0.18210100  0.42591500  0.76581500  1
  Li  Li1  1  0.76522200  0.18349600  0.42805100  1
  Cr  Cr0  1  0.35653100  0.35673400  0.34613100  1
  Cr  Cr1  1  0.64138500  0.64397700  0.64508200  1
  Cr  Cr2  1  0.84634400  0.84963500  0.85339000  1
  Ni  Ni0  1  0.16230400  0.14804800  0.15568300  1
  S  S0  1  0.03593300  0.74702100  0.46448000  1
  S  S1  1  0.54106000  0.95384300  0.25637200  1
  S  S2  1  0.25117900  0.54934700  0.94825300  1
  S  S3  1  0.75646300  0.46447500  0.03335800  1
  S  S4  1  0.46077000  0.03610600  0.75527400  1
  S  S5  1  0.95152600  0.25049300  0.54737300  1
  O  O0  1  0.00052100  0.95507500  0.34458800  1
  O  O1  1  0.02599500  0.70697100  0.65886200  1
  O  O2  1  0.35395100  0.96859400  0.29092800  1
  O  O3  1  0.04574500  0.68421000  0.97654300  1
  O  O4  1  0.48978900  0.89618000  0.69390300  1
  O  O5  1  0.23222000  0.62059200  0.37737600  1
  O  O6  1  0.67413700  0.97964300  0.05025000  1
  O  O7  1  0.37927900  0.63653600  0.75200300  1
  O  O8  1  0.29623400  0.51654600  0.09843300  1
  O  O9  1  0.10082200  0.29465200  0.51550500  1
  O  O10  1  0.63399400  0.75703500  0.38211100  1
  O  O11  1  0.28095100  0.36309100  0.95295400  1
  O  O12  1  0.71791500  0.65640100  0.02255000  1
  O  O13  1  0.37521500  0.23722100  0.62944800  1
  O  O14  1  0.88917600  0.69666300  0.49501600  1
  O  O15  1  0.69426100  0.49177900  0.89590000  1
  O  O16  1  0.64210800  0.36933600  0.23279200  1
  O  O17  1  0.33917400  0.00313900  0.95924700  1
  O  O18  1  0.75321800  0.38127100  0.63485900  1
  O  O19  1  0.51987900  0.10339200  0.29960300  1
  O  O20  1  0.96577800  0.33821900  0.99315200  1
  O  O21  1  0.65632600  0.02372800  0.71138300  1
  O  O22  1  0.95765000  0.27783100  0.36245100  1
  O  O23  1  0.97514000  0.04600000  0.68218000  1
loop_
_geom_bond_atom_site_label_1
_geom_bond_atom_site_label_2
_geom_bond_distance
_geom_bond_site_symmetry_2
Li0 O13 1.976851 1_555
Li0 O1 2.000867 1_555
Li0 O11 2.001331 1_555
Li0 O20 2.008791 1_455
Li1 O16 1.976082 1_555
Li1 O22 2.011883 1_555
Li1 O21 2.040565 1_555
Li1 O0 2.048050 1_645
Cr0 O19 2.003647 1_555
Cr0 O8 2.049361 1_555
Cr0 O5 2.061598 1_555
Cr0 O9 2.122129 1_555
Cr0 O13 2.205238 1_555
Cr0 O16 2.224562 1_555
Cr1 O18 1.989953 1_555
Cr1 O10 2.004207 1_555
Cr1 O4 2.009867 1_555
Cr1 O7 2.019481 1_555
Cr1 O14 2.032931 1_555
Cr1 O15 2.045956 1_555
Cr2 O12 1.996971 1_556
Cr2 O6 1.999925 1_556
Cr2 O3 2.011166 1_655
Cr2 O23 2.019685 1_565
Cr2 O21 2.050977 1_565
Cr2 O1 2.052826 1_655
Ni0 O2 2.019737 1_545
Ni0 O22 2.066184 1_455
Ni0 O17 2.080163 1_554
Ni0 O11 2.091601 1_554
Ni0 O0 2.186486 1_545
Ni0 O20 2.210655 1_454
O0 S0 1.477435 1_555
O1 S0 1.527658 1_555
O2 S1 1.475207 1_555
O3 S2 1.489903 1_555
O4 S4 1.471487 1_565
O5 S0 1.470435 1_555
O6 S1 1.494290 1_555
O7 S2 1.492468 1_555
O8 S2 1.452499 1_554
O9 S5 1.451689 1_455
O10 S1 1.494548 1_555
O11 S2 1.504586 1_555
O12 S3 1.496079 1_555
O13 S4 1.493132 1_555
O14 S0 1.474217 1_655
O15 S3 1.479539 1_556
O16 S3 1.480660 1_555
O17 S4 1.457764 1_555
O18 S5 1.494695 1_555
O19 S1 1.474585 1_545
O20 S3 1.493126 1_556
O21 S4 1.527774 1_555
O22 S5 1.506395 1_555
O23 S5 1.488367 1_555
