# generated using pymatgen
data_Mn6O7F5
_symmetry_space_group_name_H-M   'P 1'
_cell_length_a   4.55933400
_cell_length_b   5.63795463
_cell_length_c   15.33124171
_cell_angle_alpha   89.78975134
_cell_angle_beta   89.74227870
_cell_angle_gamma   89.86082427
_symmetry_Int_Tables_number   1
_chemical_formula_structural   Mn6O7F5
_chemical_formula_sum   'Mn12 O14 F10'
_cell_volume   394.08666015
_cell_formula_units_Z   2
loop_
 _symmetry_equiv_pos_site_id
 _symmetry_equiv_pos_as_xyz
  1  'x, y, z'
loop_
 _atom_site_type_symbol
 _atom_site_label
 _atom_site_symmetry_multiplicity
 _atom_site_fract_x
 _atom_site_fract_y
 _atom_site_fract_z
 _atom_site_occupancy
  Mn  Mn0  1  0.02991800  0.15961800  0.41008600  1
  Mn  Mn1  1  0.00177200  0.84396100  0.24257200  1
  Mn  Mn2  1  0.00253700  0.15238800  0.07625700  1
  Mn  Mn3  1  0.01728000  0.16639300  0.74541500  1
  Mn  Mn4  1  0.00177100  0.85092900  0.57595600  1
  Mn  Mn5  1  0.05475100  0.85180100  0.91194300  1
  Mn  Mn6  1  0.49536500  0.34600200  0.58636000  1
  Mn  Mn7  1  0.49032100  0.35626100  0.92499000  1
  Mn  Mn8  1  0.51030900  0.35085200  0.25797700  1
  Mn  Mn9  1  0.50148600  0.64822400  0.08670000  1
  Mn  Mn10  1  0.50310900  0.63725700  0.42726000  1
  Mn  Mn11  1  0.49347600  0.63448600  0.75413800  1
  O  O0  1  0.22041900  0.11617000  0.30064600  1
  O  O1  1  0.21392300  0.10813300  0.63501600  1
  O  O2  1  0.24242300  0.11556500  0.97007400  1
  O  O3  1  0.21401800  0.88585200  0.13325800  1
  O  O4  1  0.23535900  0.88818600  0.46880200  1
  O  O5  1  0.23674700  0.88922700  0.80327800  1
  O  O6  1  0.28156400  0.39361300  0.47868900  1
  O  O7  1  0.28534000  0.39695000  0.81699400  1
  O  O8  1  0.28688100  0.60969300  0.97786200  1
  O  O9  1  0.72320700  0.37874200  0.02949900  1
  O  O10  1  0.71422300  0.61704200  0.19716800  1
  O  O11  1  0.73254200  0.38920700  0.36411600  1
  O  O12  1  0.72071900  0.62042700  0.53053400  1
  O  O13  1  0.71766400  0.37892200  0.69448400  1
  F  F0  1  0.24879800  0.38261600  0.15374200  1
  F  F1  1  0.25837700  0.62032000  0.32063500  1
  F  F2  1  0.23397200  0.60879900  0.64455800  1
  F  F3  1  0.76345900  0.61644500  0.86660400  1
  F  F4  1  0.74641100  0.11427000  0.18125500  1
  F  F5  1  0.77213300  0.12246500  0.51560800  1
  F  F6  1  0.75373700  0.87348700  0.35678900  1
  F  F7  1  0.77979700  0.87583200  0.01194900  1
  F  F8  1  0.76962900  0.12896100  0.85850800  1
  F  F9  1  0.74656100  0.87090500  0.69027600  1
loop_
_geom_bond_atom_site_label_1
_geom_bond_atom_site_label_2
_geom_bond_distance
_geom_bond_site_symmetry_2
Mn0 O0 1.902223 1_555
Mn0 O11 2.000970 1_455
Mn0 O4 2.005017 1_545
Mn0 O6 2.047297 1_555
Mn1 O3 1.945391 1_555
Mn1 O10 1.965455 1_455
Mn1 O0 2.041385 1_565
Mn2 O9 1.938572 1_455
Mn2 O2 1.968451 1_554
Mn2 O3 1.985564 1_545
Mn3 O1 1.940476 1_555
Mn3 O13 1.976442 1_455
Mn3 O5 2.054338 1_545
Mn3 O7 2.101881 1_555
Mn4 O12 1.959226 1_455
Mn4 O4 1.964683 1_555
Mn4 O1 1.970434 1_565
Mn5 O5 1.869317 1_555
Mn5 O2 1.939234 1_565
Mn5 O8 1.999291 1_555
Mn6 O6 1.938332 1_555
Mn6 O13 1.956496 1_555
Mn6 O1 1.998491 1_555
Mn6 O12 2.042578 1_555
Mn7 O8 1.885282 1_555
Mn7 O2 1.894807 1_555
Mn7 O7 1.917690 1_555
Mn7 O9 1.930844 1_556
Mn8 O11 1.933857 1_555
Mn8 O0 1.979866 1_555
Mn8 O10 1.993620 1_555
Mn9 O8 1.951217 1_554
Mn9 O10 1.962593 1_555
Mn9 O3 2.003072 1_555
Mn9 O9 2.023284 1_555
Mn10 O12 1.874259 1_555
Mn10 O6 1.876309 1_555
Mn10 O4 1.971945 1_555
Mn10 O11 1.995225 1_555
Mn11 O7 1.900302 1_555
Mn11 O13 1.987814 1_555
Mn11 O5 1.998060 1_555
F0 Mn8 2.005358 1_555
F0 Mn2 2.094539 1_555
F0 Mn9 2.147709 1_555
F1 Mn10 1.986066 1_555
F1 Mn1 2.094107 1_555
F1 Mn8 2.131338 1_555
F2 Mn4 2.020643 1_555
F2 Mn11 2.064884 1_555
F2 Mn6 2.098392 1_555
F3 Mn5 2.007830 1_655
F3 Mn7 2.119698 1_555
F3 Mn11 2.125036 1_555
F4 Mn2 1.995726 1_655
F4 Mn8 2.077163 1_555
F4 Mn1 2.133663 1_645
F5 Mn0 2.006016 1_655
F5 Mn4 2.070368 1_645
F5 Mn6 2.085011 1_555
F6 Mn10 2.057328 1_555
F6 Mn1 2.087177 1_655
F6 Mn0 2.210079 1_665
F7 Mn5 1.980921 1_654
F7 Mn2 2.112461 1_665
F7 Mn9 2.134072 1_555
F8 Mn7 2.071910 1_555
F8 Mn3 2.075229 1_655
F8 Mn5 2.189321 1_645
F9 Mn11 2.013577 1_555
F9 Mn4 2.102601 1_655
F9 Mn3 2.245708 1_665
