# generated using pymatgen
data_BaTi6O12
_symmetry_space_group_name_H-M   'P 1'
_cell_length_a   8.45469703
_cell_length_b   8.45473669
_cell_length_c   8.45468127
_cell_angle_alpha   106.06169275
_cell_angle_beta   106.06127101
_cell_angle_gamma   116.53033029
_symmetry_Int_Tables_number   1
_chemical_formula_structural   BaTi6O12
_chemical_formula_sum   'Ba2 Ti12 O24'
_cell_volume   459.87432132
_cell_formula_units_Z   2
loop_
 _symmetry_equiv_pos_site_id
 _symmetry_equiv_pos_as_xyz
  1  'x, y, z'
loop_
 _atom_site_type_symbol
 _atom_site_label
 _atom_site_symmetry_multiplicity
 _atom_site_fract_x
 _atom_site_fract_y
 _atom_site_fract_z
 _atom_site_occupancy
  Ba  Ba0  1  0.22044327  0.22044006  0.00000917  1
  Ba  Ba1  1  0.77956173  0.77955932  -0.00000505  1
  Ti  Ti0  1  0.31017901  0.82780474  0.81494750  1
  Ti  Ti1  1  0.65215327  0.16688175  0.81903366  1
  Ti  Ti2  1  0.68982825  0.17219507  0.18506577  1
  Ti  Ti3  1  0.49523286  0.31017559  0.48236057  1
  Ti  Ti4  1  0.83311370  0.65214397  0.48527038  1
  Ti  Ti5  1  0.17219548  0.98713719  0.48236980  1
  Ti  Ti6  1  0.50476749  0.68981277  0.51762470  1
  Ti  Ti7  1  0.16688457  0.34785365  0.51472507  1
  Ti  Ti8  1  0.82780657  0.01287526  0.51763756  1
  Ti  Ti9  1  0.98712251  0.50476199  0.81493118  1
  Ti  Ti10  1  0.34784660  0.83311647  0.18096768  1
  Ti  Ti11  1  0.01286668  0.49523883  0.18505804  1
  O  O0  1  0.80641115  0.84856853  0.65499334  1
  O  O1  1  0.50313296  0.87259195  0.71058708  1
  O  O2  1  0.83799122  0.20745625  0.71058805  1
  O  O3  1  0.82008573  0.46162245  0.95590541  1
  O  O4  1  0.49428041  0.13582631  0.95590385  1
  O  O5  1  0.53586149  0.83686580  0.37273334  1
  O  O6  1  0.46415403  0.16314935  0.62726920  1
  O  O7  1  0.79254097  0.50312869  0.63054474  1
  O  O8  1  0.50572464  0.86418038  0.04409625  1
  O  O9  1  0.49687809  0.12741622  0.28942057  1
  O  O10  1  0.13582899  0.17992888  0.64154657  1
  O  O11  1  0.46162750  0.50572170  0.64154445  1
  O  O12  1  0.19359513  0.15143926  0.34500634  1
  O  O13  1  0.53837421  0.49427661  0.35846540  1
  O  O14  1  0.16311921  0.53586132  0.69898154  1
  O  O15  1  0.15142591  0.80641556  0.95784204  1
  O  O16  1  0.20745851  0.49686469  0.36945548  1
  O  O17  1  0.87259574  0.16200890  0.36946442  1
  O  O18  1  0.12739838  0.83799207  0.63054204  1
  O  O19  1  0.84856253  0.19357471  0.04215762  1
  O  O20  1  0.17991488  0.53837045  0.04408367  1
  O  O21  1  0.83685617  0.46412460  0.30100528  1
  O  O22  1  0.16201239  0.79254493  0.28941241  1
  O  O23  1  0.86416776  0.82007573  0.35845591  1
loop_
_geom_bond_atom_site_label_1
_geom_bond_atom_site_label_2
_geom_bond_distance
_geom_bond_site_symmetry_2
Ba0 O13 2.796530 1_555
Ba0 O4 2.796559 1_554
Ba0 O20 2.796592 1_555
Ba0 O10 2.796638 1_554
Ba0 O12 3.176394 1_555
Ba0 O15 3.176551 1_544
Ba0 O0 3.176594 1_444
Ba0 O19 3.176626 1_455
Ba1 O11 2.796511 1_554
Ba1 O8 2.796585 1_555
Ba1 O3 2.796612 1_554
Ba1 O23 2.796618 1_555
Ba1 O0 3.176462 1_554
Ba1 O15 3.176529 1_654
Ba1 O19 3.176532 1_565
Ba1 O12 3.176603 1_665
O0 Ti4 2.015835 1_555
O0 Ti6 2.023605 1_555
O0 Ti8 2.023749 1_565
O1 Ti6 1.919993 1_555
O1 Ti1 1.979103 1_565
O1 Ti0 2.003185 1_555
O2 Ti8 1.919845 1_555
O2 Ti1 1.979060 1_555
O2 Ti9 2.003142 1_555
O3 Ti1 1.974658 1_555
O3 Ti11 2.006264 1_656
O3 Ti9 2.063943 1_555
O4 Ti1 1.974677 1_555
O4 Ti2 2.006378 1_556
O4 Ti0 2.064001 1_545
O5 Ti10 1.912329 1_555
O5 Ti8 1.960744 1_565
O5 Ti6 1.960745 1_555
O6 Ti1 1.912329 1_555
O6 Ti3 1.960695 1_555
O6 Ti5 1.960827 1_545
O7 Ti9 1.919791 1_555
O7 Ti4 1.979115 1_555
O7 Ti3 2.003145 1_555
O8 Ti10 1.974719 1_555
O8 Ti0 2.006263 1_554
O8 Ti2 2.063959 1_565
O9 Ti3 1.919833 1_555
O9 Ti10 1.979166 1_545
O9 Ti2 2.003128 1_555
O10 Ti7 1.974708 1_555
O10 Ti5 2.006349 1_545
O10 Ti8 2.064008 1_455
O11 Ti7 1.974671 1_555
O11 Ti3 2.006338 1_555
O11 Ti6 2.063942 1_555
O12 Ti7 2.015804 1_555
O12 Ti3 2.023569 1_555
O12 Ti5 2.023767 1_545
O13 Ti4 1.974647 1_555
O13 Ti6 2.006187 1_555
O13 Ti3 2.063852 1_555
O14 Ti7 1.912317 1_555
O14 Ti0 1.960723 1_555
O14 Ti9 1.960754 1_455
O15 Ti10 2.015812 1_556
O15 Ti0 2.023640 1_555
O15 Ti9 2.023677 1_455
O16 Ti11 1.919937 1_555
O16 Ti7 1.979055 1_555
O16 Ti6 2.003140 1_555
O17 Ti2 1.919879 1_555
O17 Ti7 1.979085 1_655
O17 Ti8 2.003156 1_555
O18 Ti0 1.919987 1_555
O18 Ti4 1.979066 1_455
O18 Ti5 2.003225 1_555
O19 Ti1 2.015787 1_554
O19 Ti2 2.023610 1_555
O19 Ti11 2.023742 1_655
O20 Ti10 1.974697 1_555
O20 Ti9 2.006342 1_454
O20 Ti11 2.064016 1_555
O21 Ti4 1.912302 1_555
O21 Ti2 1.960648 1_555
O21 Ti11 1.960829 1_655
O22 Ti5 1.919945 1_555
O22 Ti10 1.979029 1_555
O22 Ti11 2.003131 1_555
O23 Ti4 1.974710 1_555
O23 Ti8 2.006384 1_565
O23 Ti5 2.064042 1_655
