# generated using pymatgen
data_Mn3NiO4
_symmetry_space_group_name_H-M   'P 1'
_cell_length_a   3.14062467
_cell_length_b   5.42842392
_cell_length_c   5.42842392
_cell_angle_alpha   109.56767332
_cell_angle_beta   90.00000000
_cell_angle_gamma   90.00000000
_symmetry_Int_Tables_number   1
_chemical_formula_structural   Mn3NiO4
_chemical_formula_sum   'Mn3 Ni1 O4'
_cell_volume   87.20233463
_cell_formula_units_Z   1
loop_
 _symmetry_equiv_pos_site_id
 _symmetry_equiv_pos_as_xyz
  1  'x, y, z'
loop_
 _atom_site_type_symbol
 _atom_site_label
 _atom_site_symmetry_multiplicity
 _atom_site_fract_x
 _atom_site_fract_y
 _atom_site_fract_z
 _atom_site_occupancy
  Mn  Mn0  1  0.00000000  0.50000000  0.50000000  1
  Mn  Mn1  1  0.50000000  0.50000000  0.00000000  1
  Mn  Mn2  1  0.50000000  0.00000000  0.50000000  1
  Ni  Ni0  1  0.00000000  0.00000000  0.00000000  1
  O  O0  1  0.00000000  0.24688200  0.75311800  1
  O  O1  1  0.50000000  0.24088200  0.24088200  1
  O  O2  1  0.50000000  0.75911800  0.75911800  1
  O  O3  1  0.00000000  0.75311800  0.24688200  1
loop_
_geom_bond_atom_site_label_1
_geom_bond_atom_site_label_2
_geom_bond_distance
_geom_bond_site_symmetry_2
Mn0 O3 2.245119 1_555
Mn0 O0 2.245119 1_555
Mn0 O2 2.257796 1_455
Mn0 O2 2.257796 1_555
Mn0 O1 2.257796 1_555
Mn0 O1 2.257796 1_455
Mn1 O3 2.217307 1_555
Mn1 O3 2.217307 1_655
Mn1 O0 2.217307 1_654
Mn1 O0 2.217307 1_554
Mn1 O1 2.218198 1_555
Mn1 O2 2.218198 1_554
Mn2 O0 2.217307 1_555
Mn2 O0 2.217307 1_655
Mn2 O3 2.217307 1_545
Mn2 O3 2.217307 1_645
Mn2 O2 2.218198 1_545
Mn2 O1 2.218198 1_555
Ni0 O1 2.177210 1_455
Ni0 O1 2.177210 1_555
Ni0 O2 2.177210 1_544
Ni0 O2 2.177210 1_444
Ni0 O0 2.189807 1_554
Ni0 O3 2.189807 1_545
