# generated using pymatgen
data_Al2Si2O7
_symmetry_space_group_name_H-M   'P 1'
_cell_length_a   5.15134096
_cell_length_b   5.15134096
_cell_length_c   9.39517040
_cell_angle_alpha   75.81251330
_cell_angle_beta   75.81251330
_cell_angle_gamma   95.92718610
_symmetry_Int_Tables_number   1
_chemical_formula_structural   Al2Si2O7
_chemical_formula_sum   'Al4 Si4 O14'
_cell_volume   230.77112075
_cell_formula_units_Z   2
loop_
 _symmetry_equiv_pos_site_id
 _symmetry_equiv_pos_as_xyz
  1  'x, y, z'
loop_
 _atom_site_type_symbol
 _atom_site_label
 _atom_site_symmetry_multiplicity
 _atom_site_fract_x
 _atom_site_fract_y
 _atom_site_fract_z
 _atom_site_occupancy
  Al  Al0  1  0.39867755  0.25000135  0.97856812  1
  Al  Al1  1  0.74999865  0.60132245  0.52143188  1
  Al  Al2  1  0.25000135  0.39867755  0.47856812  1
  Al  Al3  1  0.60132245  0.74999865  0.02143188  1
  Si  Si0  1  0.48634148  0.99226822  0.70458953  1
  Si  Si1  1  0.99226822  0.48634148  0.20458953  1
  Si  Si2  1  0.00773178  0.51365852  0.79541047  1
  Si  Si3  1  0.51365852  0.00773178  0.29541047  1
  O  O0  1  0.13483453  0.29204156  0.89432504  1
  O  O1  1  0.48237301  0.30248936  0.60530330  1
  O  O2  1  0.81716281  0.18283719  0.25000000  1
  O  O3  1  0.70795844  0.86516547  0.60567496  1
  O  O4  1  0.55005410  0.01285093  0.86605999  1
  O  O5  1  0.69751064  0.51762699  0.89469670  1
  O  O6  1  0.01285093  0.55005410  0.36605999  1
  O  O7  1  0.98714907  0.44994590  0.63394001  1
  O  O8  1  0.30248936  0.48237301  0.10530330  1
  O  O9  1  0.44994590  0.98714907  0.13394001  1
  O  O10  1  0.29204156  0.13483453  0.39432504  1
  O  O11  1  0.18283719  0.81716281  0.75000000  1
  O  O12  1  0.51762699  0.69751064  0.39469670  1
  O  O13  1  0.86516547  0.70795844  0.10567496  1
loop_
_geom_bond_atom_site_label_1
_geom_bond_atom_site_label_2
_geom_bond_distance
_geom_bond_site_symmetry_2
Al0 O0 1.739166 1_555
Al0 O5 1.823688 1_555
Al0 O9 1.824275 1_546
Al0 O8 1.904760 1_556
Al0 O4 1.908794 1_555
Al1 O3 1.739166 1_555
Al1 O1 1.823688 1_555
Al1 O6 1.824275 1_655
Al1 O12 1.904760 1_555
Al1 O7 1.908794 1_555
Al2 O10 1.739166 1_555
Al2 O12 1.823688 1_555
Al2 O7 1.824275 1_455
Al2 O1 1.904760 1_555
Al2 O6 1.908794 1_555
Al3 O13 1.739166 1_555
Al3 O8 1.823688 1_555
Al3 O4 1.824275 1_564
Al3 O5 1.904760 1_554
Al3 O9 1.908794 1_555
O0 Si2 1.590038 1_555
O1 Si0 1.646119 1_545
O2 Si3 1.622708 1_555
O2 Si1 1.622708 1_555
O3 Si0 1.590038 1_555
O4 Si0 1.654118 1_545
O5 Si2 1.646119 1_655
O6 Si1 1.654118 1_455
O7 Si2 1.654118 1_655
O8 Si1 1.646119 1_455
O9 Si3 1.654118 1_565
O10 Si3 1.590038 1_555
O11 Si0 1.622708 1_555
O11 Si2 1.622708 1_555
O12 Si3 1.646119 1_565
O13 Si1 1.590038 1_555
