# generated using pymatgen
data_CaH16C4(NO)10
_symmetry_space_group_name_H-M   'P 1'
_cell_length_a   12.79816800
_cell_length_b   7.74757000
_cell_length_c   9.32090807
_cell_angle_alpha   66.48462528
_cell_angle_beta   90.00000000
_cell_angle_gamma   90.00000000
_symmetry_Int_Tables_number   1
_chemical_formula_structural   CaH16C4(NO)10
_chemical_formula_sum   'Ca2 H32 C8 N20 O20'
_cell_volume   847.45888133
_cell_formula_units_Z   2
loop_
 _symmetry_equiv_pos_site_id
 _symmetry_equiv_pos_as_xyz
  1  'x, y, z'
loop_
 _atom_site_type_symbol
 _atom_site_label
 _atom_site_symmetry_multiplicity
 _atom_site_fract_x
 _atom_site_fract_y
 _atom_site_fract_z
 _atom_site_occupancy
  Ca  Ca0  1  0.00000000  0.00000000  0.00000000  1
  Ca  Ca1  1  0.50000000  0.50000000  0.00000000  1
  H  H0  1  0.80626700  0.31741600  0.17405100  1
  H  H1  1  0.30626700  0.18258400  0.82594900  1
  H  H2  1  0.19373300  0.68258400  0.82594900  1
  H  H3  1  0.69373300  0.81741600  0.17405100  1
  H  H4  1  0.74824500  0.53118000  0.04689300  1
  H  H5  1  0.24824500  0.96882000  0.95310700  1
  H  H6  1  0.25175500  0.46882000  0.95310700  1
  H  H7  1  0.75175500  0.03118000  0.04689300  1
  H  H8  1  0.97045900  0.32162600  0.27825900  1
  H  H9  1  0.47045900  0.17837400  0.72174100  1
  H  H10  1  0.02954100  0.67837400  0.72174100  1
  H  H11  1  0.52954100  0.82162600  0.27825900  1
  H  H12  1  0.03560100  0.53661400  0.23124100  1
  H  H13  1  0.53560100  0.96338600  0.76875900  1
  H  H14  1  0.96439900  0.46338600  0.76875900  1
  H  H15  1  0.46439900  0.03661400  0.23124100  1
  H  H16  1  0.32879100  0.59805300  0.35563400  1
  H  H17  1  0.82879100  0.90194700  0.64436600  1
  H  H18  1  0.67120900  0.40194700  0.64436600  1
  H  H19  1  0.17120900  0.09805300  0.35563400  1
  H  H20  1  0.32717300  0.71030000  0.14827300  1
  H  H21  1  0.82717300  0.78970000  0.85172700  1
  H  H22  1  0.67282700  0.28970000  0.85172700  1
  H  H23  1  0.17282700  0.21030000  0.14827300  1
  H  H24  1  0.18105200  0.59989300  0.49708200  1
  H  H25  1  0.68105200  0.90010700  0.50291800  1
  H  H26  1  0.81894800  0.40010700  0.50291800  1
  H  H27  1  0.31894800  0.09989300  0.49708200  1
  H  H28  1  0.06687300  0.71619700  0.39964100  1
  H  H29  1  0.56687300  0.78380300  0.60035900  1
  H  H30  1  0.93312700  0.28380300  0.60035900  1
  H  H31  1  0.43312700  0.21619700  0.39964100  1
  C  C0  1  0.89224400  0.55879300  0.12941900  1
  C  C1  1  0.39224400  0.94120700  0.87058100  1
  C  C2  1  0.10775600  0.44120700  0.87058100  1
  C  C3  1  0.60775600  0.05879300  0.12941900  1
  C  C4  1  0.19092800  0.72750200  0.25635600  1
  C  C5  1  0.69092800  0.77249800  0.74364400  1
  C  C6  1  0.80907200  0.27249800  0.74364400  1
  C  C7  1  0.30907200  0.22750200  0.25635600  1
  N  N0  1  0.80870100  0.45986700  0.11688700  1
  N  N1  1  0.30870100  0.04013300  0.88311300  1
  N  N2  1  0.19129900  0.54013300  0.88311300  1
  N  N3  1  0.69129900  0.95986700  0.11688700  1
  N  N4  1  0.97214700  0.46389400  0.22174000  1
  N  N5  1  0.47214700  0.03610600  0.77826000  1
  N  N6  1  0.02785300  0.53610600  0.77826000  1
  N  N7  1  0.52785300  0.96389400  0.22174000  1
  N  N8  1  0.29095700  0.67513900  0.25385200  1
  N  N9  1  0.79095700  0.82486100  0.74614800  1
  N  N10  1  0.70904300  0.32486100  0.74614800  1
  N  N11  1  0.20904300  0.17513900  0.25385200  1
  N  N12  1  0.14235300  0.67559400  0.39613900  1
  N  N13  1  0.64235300  0.82440600  0.60386100  1
  N  N14  1  0.85764700  0.32440600  0.60386100  1
  N  N15  1  0.35764700  0.17559400  0.39613900  1
  N  N16  1  0.90271000  0.96574000  0.35091500  1
  N  N17  1  0.40271000  0.53426000  0.64908500  1
  N  N18  1  0.09729000  0.03426000  0.64908500  1
  N  N19  1  0.59729000  0.46574000  0.35091500  1
  O  O0  1  0.95199800  0.05773000  0.22272500  1
  O  O1  1  0.45199800  0.44227000  0.77727500  1
  O  O2  1  0.04800200  0.94227000  0.77727500  1
  O  O3  1  0.54800200  0.55773000  0.22272500  1
  O  O4  1  0.83893000  0.05643200  0.39915800  1
  O  O5  1  0.33893000  0.44356800  0.60084200  1
  O  O6  1  0.16107000  0.94356800  0.60084200  1
  O  O7  1  0.66107000  0.55643200  0.39915800  1
  O  O8  1  0.91934800  0.79367900  0.42619100  1
  O  O9  1  0.41934800  0.70632100  0.57380900  1
  O  O10  1  0.08065200  0.20632100  0.57380900  1
  O  O11  1  0.58065200  0.29367900  0.42619100  1
  O  O12  1  0.89450700  0.73708500  0.05625500  1
  O  O13  1  0.39450700  0.76291500  0.94374500  1
  O  O14  1  0.10549300  0.26291500  0.94374500  1
  O  O15  1  0.60549300  0.23708500  0.05625500  1
  O  O16  1  0.14231700  0.82090200  0.12928900  1
  O  O17  1  0.64231700  0.67909800  0.87071100  1
  O  O18  1  0.85768300  0.17909800  0.87071100  1
  O  O19  1  0.35768300  0.32090200  0.12928900  1
loop_
_geom_bond_atom_site_label_1
_geom_bond_atom_site_label_2
_geom_bond_distance
_geom_bond_site_symmetry_2
Ca0 O18 2.315325 1_454
Ca0 O16 2.315325 1_545
Ca0 O12 2.322632 1_445
Ca0 O14 2.322632 1_554
Ca0 O2 2.372380 1_544
Ca0 O0 2.372380 1_455
Ca1 O17 2.315325 1_554
Ca1 O19 2.315325 1_555
Ca1 O15 2.322632 1_555
Ca1 O13 2.322632 1_554
Ca1 O3 2.372380 1_555
Ca1 O1 2.372380 1_554
H0 N0 1.016688 1_555
H1 N1 1.016688 1_555
H2 N2 1.016688 1_555
H3 N3 1.016688 1_555
H4 N0 1.020738 1_555
H5 N1 1.020738 1_565
H6 N2 1.020738 1_555
H7 N3 1.020738 1_545
H8 N4 1.014664 1_555
H9 N5 1.014664 1_555
H10 N6 1.014664 1_555
H11 N7 1.014664 1_555
H12 N4 1.012215 1_455
H13 N5 1.012215 1_565
H14 N6 1.012215 1_655
H15 N7 1.012215 1_545
H16 N8 1.019331 1_555
H17 N9 1.019331 1_555
H18 N10 1.019331 1_555
H19 N11 1.019331 1_555
H20 N8 1.021544 1_555
H21 N9 1.021544 1_555
H22 N10 1.021544 1_555
H23 N11 1.021544 1_555
H24 N12 1.016949 1_555
H25 N13 1.016949 1_555
H26 N14 1.016949 1_555
H27 N15 1.016949 1_555
H28 N12 1.020482 1_555
H29 N13 1.020482 1_555
H30 N14 1.020482 1_555
H31 N15 1.020482 1_555
C0 O12 1.273681 1_555
C0 N0 1.347477 1_555
C0 N4 1.349785 1_555
C1 O13 1.273681 1_555
C1 N1 1.347477 1_565
C1 N5 1.349785 1_565
C2 O14 1.273681 1_555
C2 N2 1.347477 1_555
C2 N6 1.349785 1_555
C3 O15 1.273681 1_555
C3 N3 1.347477 1_545
C3 N7 1.349785 1_545
C4 O16 1.276527 1_555
C4 N8 1.345943 1_555
C4 N12 1.351902 1_555
C5 O17 1.276527 1_555
C5 N9 1.345943 1_555
C5 N13 1.351902 1_555
C6 O18 1.276527 1_555
C6 N10 1.345943 1_555
C6 N14 1.351902 1_555
C7 O19 1.276527 1_555
C7 N11 1.345943 1_555
C7 N15 1.351902 1_555
N16 O8 1.252316 1_555
N16 O4 1.270563 1_565
N16 O0 1.286064 1_565
N17 O9 1.252316 1_555
N17 O5 1.270563 1_555
N17 O1 1.286064 1_555
N18 O10 1.252316 1_555
N18 O6 1.270563 1_545
N18 O2 1.286064 1_545
N19 O11 1.252316 1_555
N19 O7 1.270563 1_555
N19 O3 1.286064 1_555
