# generated using pymatgen
data_Cu2H2Se2O7
_symmetry_space_group_name_H-M   'P 1'
_cell_length_a   7.63796700
_cell_length_b   8.55119800
_cell_length_c   10.63132469
_cell_angle_alpha   68.37700188
_cell_angle_beta   90.00000000
_cell_angle_gamma   90.00000000
_symmetry_Int_Tables_number   1
_chemical_formula_structural   Cu2H2Se2O7
_chemical_formula_sum   'Cu8 H8 Se8 O28'
_cell_volume   645.50798821
_cell_formula_units_Z   4
loop_
 _symmetry_equiv_pos_site_id
 _symmetry_equiv_pos_as_xyz
  1  'x, y, z'
loop_
 _atom_site_type_symbol
 _atom_site_label
 _atom_site_symmetry_multiplicity
 _atom_site_fract_x
 _atom_site_fract_y
 _atom_site_fract_z
 _atom_site_occupancy
  Cu  Cu0  1  0.69784200  0.07911600  0.47301900  1
  Cu  Cu1  1  0.19784200  0.92088400  0.02698100  1
  Cu  Cu2  1  0.30215800  0.92088400  0.52698100  1
  Cu  Cu3  1  0.80215800  0.07911600  0.97301900  1
  Cu  Cu4  1  0.70972900  0.34188700  0.11065000  1
  Cu  Cu5  1  0.20972900  0.65811300  0.38935000  1
  Cu  Cu6  1  0.29027100  0.65811300  0.88935000  1
  Cu  Cu7  1  0.79027100  0.34188700  0.61065000  1
  H  H0  1  0.74127500  0.72771100  0.57463800  1
  H  H1  1  0.24127500  0.27228900  0.92536200  1
  H  H2  1  0.25872500  0.27228900  0.42536200  1
  H  H3  1  0.75872500  0.72771100  0.07463800  1
  H  H4  1  0.91331500  0.82703100  0.60353000  1
  H  H5  1  0.41331500  0.17296900  0.89647000  1
  H  H6  1  0.08668500  0.17296900  0.39647000  1
  H  H7  1  0.58668500  0.82703100  0.10353000  1
  Se  Se0  1  0.59808400  0.94105300  0.78529500  1
  Se  Se1  1  0.09808400  0.05894700  0.71470500  1
  Se  Se2  1  0.40191600  0.05894700  0.21470500  1
  Se  Se3  1  0.90191600  0.94105300  0.28529500  1
  Se  Se4  1  0.56172800  0.48736500  0.32902900  1
  Se  Se5  1  0.06172800  0.51263500  0.17097100  1
  Se  Se6  1  0.43827200  0.51263500  0.67097100  1
  Se  Se7  1  0.93827200  0.48736500  0.82902900  1
  O  O0  1  0.40129000  0.87104600  0.87144500  1
  O  O1  1  0.90129000  0.12895400  0.62855500  1
  O  O2  1  0.59871000  0.12895400  0.12855500  1
  O  O3  1  0.09871000  0.87104600  0.37144500  1
  O  O4  1  0.51754700  0.02912500  0.61986100  1
  O  O5  1  0.01754700  0.97087500  0.88013900  1
  O  O6  1  0.48245300  0.97087500  0.38013900  1
  O  O7  1  0.98245300  0.02912500  0.11986100  1
  O  O8  1  0.62604500  0.12428700  0.82308000  1
  O  O9  1  0.12604500  0.87571300  0.67692000  1
  O  O10  1  0.37395500  0.87571300  0.17692000  1
  O  O11  1  0.87395500  0.12428700  0.32308000  1
  O  O12  1  0.52166900  0.39920100  0.21078400  1
  O  O13  1  0.02166900  0.60079900  0.28921600  1
  O  O14  1  0.47833100  0.60079900  0.78921600  1
  O  O15  1  0.97833100  0.39920100  0.71078400  1
  O  O16  1  0.35400900  0.46110100  0.40243900  1
  O  O17  1  0.85400900  0.53889900  0.09756100  1
  O  O18  1  0.64599100  0.53889900  0.59756100  1
  O  O19  1  0.14599100  0.46110100  0.90243900  1
  O  O20  1  0.68190500  0.32260900  0.44754700  1
  O  O21  1  0.18190500  0.67739100  0.05245300  1
  O  O22  1  0.31809500  0.67739100  0.55245300  1
  O  O23  1  0.81809500  0.32260900  0.94754700  1
  O  O24  1  0.79826500  0.83858200  0.55932300  1
  O  O25  1  0.29826500  0.16141800  0.94067700  1
  O  O26  1  0.20173500  0.16141800  0.44067700  1
  O  O27  1  0.70173500  0.83858200  0.05932300  1
loop_
_geom_bond_atom_site_label_1
_geom_bond_atom_site_label_2
_geom_bond_distance
_geom_bond_site_symmetry_2
Cu0 O20 2.001992 1_555
Cu0 O4 2.006087 1_555
Cu0 O11 2.011424 1_555
Cu0 O24 2.066389 1_545
Cu0 O6 2.282937 1_545
Cu0 O1 2.418661 1_555
Cu1 O21 2.001992 1_555
Cu1 O5 2.006087 1_554
Cu1 O10 2.011424 1_555
Cu1 O25 2.066389 1_564
Cu1 O7 2.282937 1_465
Cu1 O0 2.418661 1_554
Cu2 O22 2.001992 1_555
Cu2 O6 2.006087 1_555
Cu2 O9 2.011424 1_555
Cu2 O26 2.066389 1_565
Cu2 O4 2.282937 1_565
Cu2 O3 2.418661 1_555
Cu3 O23 2.001992 1_555
Cu3 O7 2.006087 1_556
Cu3 O8 2.011424 1_555
Cu3 O27 2.066389 1_546
Cu3 O5 2.282937 1_645
Cu3 O2 2.418661 1_556
Cu4 O2 1.953268 1_555
Cu4 O12 1.954799 1_555
Cu4 O17 1.974635 1_555
Cu4 O23 1.982343 1_554
Cu5 O3 1.953268 1_555
Cu5 O13 1.954799 1_555
Cu5 O16 1.974635 1_555
Cu5 O22 1.982343 1_555
Cu6 O0 1.953268 1_555
Cu6 O14 1.954799 1_555
Cu6 O19 1.974635 1_555
Cu6 O21 1.982343 1_556
Cu7 O1 1.953268 1_555
Cu7 O15 1.954799 1_555
Cu7 O18 1.974635 1_555
Cu7 O20 1.982343 1_555
H0 O24 1.000537 1_555
H0 O18 1.704668 1_555
H1 O25 1.000537 1_555
H1 O19 1.704668 1_555
H2 O26 1.000537 1_555
H2 O16 1.704668 1_555
H3 O27 1.000537 1_555
H3 O17 1.704668 1_555
H4 O24 0.984186 1_555
H5 O25 0.984186 1_555
H6 O26 0.984186 1_555
H7 O27 0.984186 1_555
O0 Se0 1.747131 1_555
O1 Se1 1.747131 1_655
O2 Se2 1.747131 1_555
O3 Se3 1.747131 1_455
O4 Se0 1.750056 1_545
O5 Se1 1.750056 1_565
O6 Se2 1.750056 1_565
O7 Se3 1.750056 1_545
O8 Se0 1.768032 1_545
O9 Se1 1.768032 1_565
O10 Se2 1.768032 1_565
O11 Se3 1.768032 1_545
O12 Se4 1.714869 1_555
O13 Se5 1.714869 1_555
O14 Se6 1.714869 1_555
O15 Se7 1.714869 1_555
O16 Se4 1.745709 1_555
O17 Se5 1.745709 1_655
O18 Se6 1.745709 1_555
O19 Se7 1.745709 1_455
O20 Se4 1.762601 1_555
O21 Se5 1.762601 1_555
O22 Se6 1.762601 1_555
O23 Se7 1.762601 1_555
