# generated using pymatgen
data_Li6Fe3Sb3O16
_symmetry_space_group_name_H-M   'P 1'
_cell_length_a   6.08322942
_cell_length_b   6.08322942
_cell_length_c   10.04007075
_cell_angle_alpha   89.57385225
_cell_angle_beta   89.57385225
_cell_angle_gamma   60.39329279
_symmetry_Int_Tables_number   1
_chemical_formula_structural   Li6Fe3Sb3O16
_chemical_formula_sum   'Li6 Fe3 Sb3 O16'
_cell_volume   323.01839326
_cell_formula_units_Z   1
loop_
 _symmetry_equiv_pos_site_id
 _symmetry_equiv_pos_as_xyz
  1  'x, y, z'
loop_
 _atom_site_type_symbol
 _atom_site_label
 _atom_site_symmetry_multiplicity
 _atom_site_fract_x
 _atom_site_fract_y
 _atom_site_fract_z
 _atom_site_occupancy
  Li  Li0  1  0.33507200  0.33507200  0.49877400  1
  Li  Li1  1  0.33225000  0.33225000  0.12482100  1
  Li  Li2  1  0.00903400  0.00903400  0.00087900  1
  Li  Li3  1  0.00707700  0.00707700  0.49541500  1
  Li  Li4  1  0.65797300  0.65797300  0.99981000  1
  Li  Li5  1  0.67330500  0.67330500  0.61077800  1
  Fe  Fe0  1  0.16764200  0.16764200  0.78210400  1
  Fe  Fe1  1  0.83041500  0.33496300  0.28365400  1
  Fe  Fe2  1  0.33496300  0.83041500  0.28365400  1
  Sb  Sb0  1  0.66165900  0.16813900  0.78462100  1
  Sb  Sb1  1  0.16813900  0.66165900  0.78462100  1
  Sb  Sb2  1  0.82938000  0.82938000  0.28535100  1
  O  O0  1  0.69617700  0.15732200  0.39049600  1
  O  O1  1  0.48826700  0.48826700  0.67308800  1
  O  O2  1  0.33482300  0.33482300  0.89978600  1
  O  O3  1  0.99697300  0.99697300  0.67676500  1
  O  O4  1  0.99132800  0.99132800  0.17795500  1
  O  O5  1  0.15732200  0.69617700  0.39049600  1
  O  O6  1  0.49158000  0.03105100  0.67512200  1
  O  O7  1  0.03105100  0.49158000  0.67512200  1
  O  O8  1  0.84459400  0.84459400  0.89571800  1
  O  O9  1  0.15086500  0.15086500  0.37824200  1
  O  O10  1  0.96660900  0.50895800  0.17759500  1
  O  O11  1  0.50895800  0.96660900  0.17759500  1
  O  O12  1  0.67266000  0.67266000  0.40172900  1
  O  O13  1  0.83859400  0.30599300  0.89055900  1
  O  O14  1  0.51807300  0.51807300  0.18683700  1
  O  O15  1  0.30599300  0.83859400  0.89055900  1
loop_
_geom_bond_atom_site_label_1
_geom_bond_atom_site_label_2
_geom_bond_distance
_geom_bond_site_symmetry_2
Li0 O0 2.193500 1_555
Li0 O5 2.193500 1_555
Li0 O9 2.292793 1_555
Li0 O6 2.387094 1_555
Li0 O7 2.387094 1_555
Li0 O1 2.388837 1_555
Li1 O10 2.003026 1_455
Li1 O11 2.003026 1_545
Li1 O14 2.055929 1_555
Li1 O2 2.259296 1_554
Li2 O4 1.785984 1_445
Li2 O13 1.924007 1_454
Li2 O15 1.924007 1_544
Li2 O8 2.033771 1_444
Li3 O3 1.822951 1_445
Li3 O9 1.907754 1_555
Li3 O5 1.956845 1_545
Li3 O0 1.956845 1_455
Li4 O15 2.165055 1_555
Li4 O13 2.165055 1_555
Li4 O8 2.215400 1_555
Li4 O14 2.375427 1_556
Li4 O11 2.424251 1_556
Li4 O10 2.424251 1_556
Li5 O6 2.002159 1_565
Li5 O7 2.002159 1_655
Li5 O1 2.038737 1_555
Li5 O12 2.098936 1_555
Fe0 O6 2.022684 1_555
Fe0 O7 2.022684 1_555
Fe0 O13 2.053618 1_455
Fe0 O15 2.053618 1_545
Fe0 O3 2.090947 1_445
Fe0 O2 2.126575 1_555
Fe1 O14 1.927681 1_555
Fe1 O10 1.943503 1_555
Fe1 O9 1.952107 1_655
Fe1 O0 1.956258 1_555
Fe1 O4 2.109475 1_545
Fe1 O12 2.148903 1_555
Fe2 O14 1.927681 1_555
Fe2 O11 1.943503 1_555
Fe2 O9 1.952107 1_565
Fe2 O5 1.956258 1_555
Fe2 O4 2.109475 1_455
Fe2 O12 2.148903 1_555
O0 Sb2 2.042590 1_545
O1 Sb1 2.028407 1_555
O1 Sb0 2.028407 1_555
O2 Sb1 2.075900 1_555
O2 Sb0 2.075900 1_555
O3 Sb0 2.074336 1_565
O3 Sb1 2.074336 1_655
O4 Sb2 2.007772 1_555
O5 Sb2 2.042590 1_455
O6 Sb0 1.964087 1_555
O7 Sb1 1.964087 1_555
O8 Sb0 2.044014 1_565
O8 Sb1 2.044014 1_655
O10 Sb2 2.019124 1_555
O11 Sb2 2.019124 1_555
O12 Sb2 2.011964 1_555
O13 Sb0 1.978687 1_555
O15 Sb1 1.978687 1_555
