# generated using pymatgen
data_Sc2SO2
_symmetry_space_group_name_H-M   'P 1'
_cell_length_a   3.53640232
_cell_length_b   3.53640228
_cell_length_c   12.56449726
_cell_angle_alpha   90.00000000
_cell_angle_beta   90.00000000
_cell_angle_gamma   119.99999088
_symmetry_Int_Tables_number   1
_chemical_formula_structural   Sc2SO2
_chemical_formula_sum   'Sc4 S2 O4'
_cell_volume   136.08150876
_cell_formula_units_Z   2
loop_
 _symmetry_equiv_pos_site_id
 _symmetry_equiv_pos_as_xyz
  1  'x, y, z'
loop_
 _atom_site_type_symbol
 _atom_site_label
 _atom_site_symmetry_multiplicity
 _atom_site_fract_x
 _atom_site_fract_y
 _atom_site_fract_z
 _atom_site_occupancy
  Sc  Sc0  1  0.33333300  0.66666700  0.60689620  1
  Sc  Sc1  1  0.66666700  0.33333300  0.10689620  1
  Sc  Sc2  1  0.66666700  0.33333300  0.39310380  1
  Sc  Sc3  1  0.33333300  0.66666700  0.89310380  1
  S  S0  1  0.00000000  0.00000000  0.25000000  1
  S  S1  1  0.00000000  0.00000000  0.75000000  1
  O  O0  1  0.66666700  0.33333300  0.56535085  1
  O  O1  1  0.33333300  0.66666700  0.06535085  1
  O  O2  1  0.33333300  0.66666700  0.43464915  1
  O  O3  1  0.66666700  0.33333300  0.93464915  1
loop_
_geom_bond_atom_site_label_1
_geom_bond_atom_site_label_2
_geom_bond_distance
_geom_bond_site_symmetry_2
S0 Sc2 2.720589 1_455
S0 Sc1 2.720589 1_455
S0 Sc1 2.720592 1_445
S0 Sc2 2.720592 1_445
S0 Sc2 2.720592 1_555
S0 Sc1 2.720592 1_555
S1 Sc0 2.720589 1_545
S1 Sc3 2.720589 1_545
S1 Sc3 2.720592 1_555
S1 Sc0 2.720592 1_555
S1 Sc3 2.720592 1_445
S1 Sc0 2.720592 1_445
O0 Sc0 2.107412 1_545
O0 Sc0 2.107412 1_655
O0 Sc0 2.107418 1_555
O0 Sc2 2.164198 1_555
O1 Sc1 2.107412 1_565
O1 Sc1 2.107412 1_455
O1 Sc1 2.107418 1_555
O1 Sc3 2.164198 1_554
O2 Sc2 2.107412 1_565
O2 Sc2 2.107412 1_455
O2 Sc2 2.107418 1_555
O2 Sc0 2.164198 1_555
O3 Sc3 2.107412 1_545
O3 Sc3 2.107412 1_655
O3 Sc3 2.107418 1_555
O3 Sc1 2.164198 1_556
