# generated using pymatgen
data_Ti2N2O
_symmetry_space_group_name_H-M   'P 1'
_cell_length_a   8.21096400
_cell_length_b   8.22237683
_cell_length_c   8.22249689
_cell_angle_alpha   109.60630720
_cell_angle_beta   109.41157774
_cell_angle_gamma   109.31778795
_symmetry_Int_Tables_number   1
_chemical_formula_structural   Ti2N2O
_chemical_formula_sum   'Ti16 N16 O8'
_cell_volume   427.74850680
_cell_formula_units_Z   8
loop_
 _symmetry_equiv_pos_site_id
 _symmetry_equiv_pos_as_xyz
  1  'x, y, z'
loop_
 _atom_site_type_symbol
 _atom_site_label
 _atom_site_symmetry_multiplicity
 _atom_site_fract_x
 _atom_site_fract_y
 _atom_site_fract_z
 _atom_site_occupancy
  Ti  Ti0  1  0.46428700  0.70654900  0.24664400  1
  Ti  Ti1  1  0.00912500  0.02045300  0.48958800  1
  Ti  Ti2  1  0.79294600  0.83618600  0.96193600  1
  Ti  Ti3  1  0.69756600  0.15406100  0.54114800  1
  Ti  Ti4  1  0.67174600  0.96108100  0.78504000  1
  Ti  Ti5  1  0.67896500  0.46299100  0.28879000  1
  Ti  Ti6  1  0.51050400  0.02028700  0.98737600  1
  Ti  Ti7  1  0.50546000  0.50257500  0.50352700  1
  Ti  Ti8  1  0.99708500  0.49476900  0.00384600  1
  Ti  Ti9  1  0.94414000  0.19798400  0.25515100  1
  Ti  Ti10  1  0.03735900  0.77734600  0.75975100  1
  Ti  Ti11  1  0.33541100  0.05134200  0.20590900  1
  Ti  Ti12  1  0.32710800  0.53786100  0.70684400  1
  Ti  Ti13  1  0.28306300  0.83221800  0.46134000  1
  Ti  Ti14  1  0.21925100  0.17430500  0.04215500  1
  Ti  Ti15  1  0.54757400  0.30009800  0.74684300  1
  N  N0  1  0.96481200  0.19069400  0.54245400  1
  N  N1  1  0.25239700  0.47612700  0.98572400  1
  N  N2  1  0.56055900  0.28517100  0.48813100  1
  N  N3  1  0.21545500  0.67521800  0.77605700  1
  N  N4  1  0.80963600  0.08299300  0.96459200  1
  N  N5  1  0.83047400  0.06613400  0.44620700  1
  N  N6  1  0.30812900  0.25461100  0.73334600  1
  N  N7  1  0.59431000  0.32885900  0.94678100  1
  N  N8  1  0.18363700  0.91113100  0.04155800  1
  N  N9  1  0.77933600  0.32097900  0.22650000  1
  N  N10  1  0.43674700  0.71116500  0.51144700  1
  N  N11  1  0.75172800  0.52582000  0.01166500  1
  N  N12  1  0.82278200  0.31090000  0.72621900  1
  N  N13  1  0.50691600  0.49624900  0.22723100  1
  N  N14  1  0.03099000  0.80429400  0.46084100  1
  N  N15  1  0.99632900  0.95412000  0.27593300  1
  O  O0  1  0.99473700  0.03787800  0.72860700  1
  O  O1  1  0.18075300  0.68930800  0.27567700  1
  O  O2  1  0.49066800  0.49892300  0.77364000  1
  O  O3  1  0.68863600  0.74442500  0.26609300  1
  O  O4  1  0.41318600  0.67640100  0.04844000  1
  O  O5  1  0.45152900  0.00272000  0.77103300  1
  O  O6  1  0.17063400  0.93407000  0.55278400  1
  O  O7  1  0.54403600  0.99170500  0.23314900  1
loop_
_geom_bond_atom_site_label_1
_geom_bond_atom_site_label_2
_geom_bond_distance
_geom_bond_site_symmetry_2
N0 N5 1.010106 1_555
N0 Ti1 1.521346 1_655
N0 Ti9 2.334164 1_555
N1 O4 1.503270 1_556
N1 Ti0 1.956908 1_556
N1 Ti8 2.201209 1_456
N1 Ti14 2.618787 1_556
N2 Ti3 1.846488 1_555
N2 Ti7 1.958930 1_555
N2 Ti11 2.074073 1_555
N2 Ti15 2.129755 1_555
N3 Ti12 1.743675 1_555
N3 Ti10 1.902433 1_555
N3 Ti6 2.506817 1_565
N4 Ti4 1.269333 1_545
N4 Ti9 1.964910 1_556
N4 Ti2 1.980341 1_545
N5 Ti1 1.589575 1_655
N5 Ti3 1.741424 1_555
N5 Ti9 2.441804 1_555
N6 Ti15 1.832553 1_555
N6 O2 1.903374 1_555
N6 Ti1 2.182583 1_555
N7 Ti15 1.471594 1_555
N8 Ti11 1.262070 1_565
N8 Ti10 1.893986 1_554
N8 Ti14 2.083585 1_565
N9 Ti5 1.679557 1_555
N9 Ti9 1.939797 1_555
N9 Ti6 2.256790 1_554
N10 Ti13 1.874423 1_555
N10 Ti7 1.963119 1_555
N10 Ti4 2.096563 1_555
N10 Ti0 2.251863 1_555
N10 Ti12 2.659219 1_555
N11 N7 1.467960 1_554
N11 Ti15 1.949166 1_554
N11 Ti8 2.131522 1_555
N11 Ti2 2.648589 1_554
N12 Ti3 1.342246 1_555
N12 Ti8 1.904135 1_556
N12 Ti15 2.296744 1_555
N13 Ti5 1.483191 1_555
N13 Ti0 1.841292 1_555
N13 O3 1.929639 1_555
N13 Ti7 2.259044 1_555
N13 Ti14 2.381751 1_555
N14 O6 1.047767 1_555
N14 Ti1 1.790091 1_565
N14 Ti10 2.525917 1_555
N15 Ti1 1.609702 1_665
N15 Ti2 2.185746 1_554
N15 Ti9 2.232306 1_565
O0 Ti1 1.968140 1_655
O0 Ti14 2.198944 1_656
O0 Ti10 2.362549 1_645
O0 Ti4 2.748484 1_545
O1 Ti13 1.306750 1_555
O1 Ti8 1.895469 1_455
O1 Ti0 2.381356 1_555
O2 Ti12 1.456010 1_555
O2 Ti15 1.808749 1_555
O2 Ti7 2.273799 1_555
O2 Ti2 2.501603 1_555
O3 Ti0 1.705043 1_555
O3 Ti1 2.342665 1_665
O4 Ti0 1.448812 1_555
O5 Ti6 1.621256 1_555
O5 Ti4 1.922933 1_545
O5 Ti13 2.083991 1_545
O5 Ti15 2.407307 1_555
O6 Ti13 1.633767 1_555
O6 Ti1 1.716391 1_565
O7 Ti11 1.897222 1_565
O7 Ti6 2.051009 1_564
O7 Ti3 2.068944 1_565
O7 Ti0 2.268400 1_555
