# generated using pymatgen
data_LiPWO5
_symmetry_space_group_name_H-M   'P 1'
_cell_length_a   7.53937714
_cell_length_b   7.53937714
_cell_length_c   10.86446164
_cell_angle_alpha   68.40581396
_cell_angle_beta   68.40581396
_cell_angle_gamma   42.43914429
_symmetry_Int_Tables_number   1
_chemical_formula_structural   LiPWO5
_chemical_formula_sum   'Li4 P4 W4 O20'
_cell_volume   382.88162152
_cell_formula_units_Z   4
loop_
 _symmetry_equiv_pos_site_id
 _symmetry_equiv_pos_as_xyz
  1  'x, y, z'
loop_
 _atom_site_type_symbol
 _atom_site_label
 _atom_site_symmetry_multiplicity
 _atom_site_fract_x
 _atom_site_fract_y
 _atom_site_fract_z
 _atom_site_occupancy
  Li  Li0  1  0.50000000  0.00000000  0.50000000  1
  Li  Li1  1  0.50000000  0.50000000  0.50000000  1
  Li  Li2  1  0.50000000  0.50000000  0.00000000  1
  Li  Li3  1  0.00000000  0.50000000  0.00000000  1
  P  P0  1  0.88111000  0.86906800  0.68903100  1
  P  P1  1  0.11889000  0.13093200  0.31096900  1
  P  P2  1  0.86906800  0.88111000  0.18903100  1
  P  P3  1  0.13093200  0.11889000  0.81096900  1
  W  W0  1  0.50598500  0.49401500  0.75000000  1
  W  W1  1  0.00000000  0.50000000  0.50000000  1
  W  W2  1  0.49401500  0.50598500  0.25000000  1
  W  W3  1  0.50000000  0.00000000  0.00000000  1
  O  O0  1  0.20620400  0.18861400  0.66059400  1
  O  O1  1  0.82815800  0.80207900  0.59598700  1
  O  O2  1  0.34212900  0.40863000  0.42342200  1
  O  O3  1  0.18324000  0.70516500  0.65728700  1
  O  O4  1  0.70580200  0.17230200  0.65521100  1
  O  O5  1  0.65787100  0.59137000  0.57657800  1
  O  O6  1  0.79379600  0.81138600  0.33940600  1
  O  O7  1  0.17184200  0.19792100  0.40401300  1
  O  O8  1  0.17230200  0.70580200  0.15521100  1
  O  O9  1  0.29419800  0.82769800  0.34478900  1
  O  O10  1  0.70516500  0.18324000  0.15728700  1
  O  O11  1  0.81676000  0.29483500  0.34271300  1
  O  O12  1  0.18861400  0.20620400  0.16059400  1
  O  O13  1  0.80207900  0.82815800  0.09598700  1
  O  O14  1  0.29483500  0.81676000  0.84271300  1
  O  O15  1  0.82769800  0.29419800  0.84478900  1
  O  O16  1  0.59137000  0.65787100  0.07657800  1
  O  O17  1  0.40863000  0.34212900  0.92342200  1
  O  O18  1  0.19792100  0.17184200  0.90401300  1
  O  O19  1  0.81138600  0.79379600  0.83940600  1
loop_
_geom_bond_atom_site_label_1
_geom_bond_atom_site_label_2
_geom_bond_distance
_geom_bond_site_symmetry_2
Li0 O0 2.074900 1_555
Li0 O6 2.074900 1_545
Li0 O7 2.177144 1_555
Li0 O1 2.177144 1_545
Li0 O2 2.242808 1_555
Li0 O5 2.242808 1_545
Li1 O3 2.122611 1_555
Li1 O11 2.122611 1_555
Li1 O9 2.134537 1_555
Li1 O4 2.134537 1_555
Li1 O5 2.223597 1_555
Li1 O2 2.223597 1_555
Li2 O14 2.122611 1_554
Li2 O10 2.122611 1_555
Li2 O15 2.134537 1_554
Li2 O8 2.134537 1_555
Li2 O16 2.223597 1_555
Li2 O17 2.223597 1_554
Li3 O19 2.074900 1_454
Li3 O12 2.074900 1_555
Li3 O13 2.177144 1_455
Li3 O18 2.177144 1_554
Li3 O17 2.242808 1_554
Li3 O16 2.242808 1_455
O0 P3 1.547013 1_555
O0 W1 2.137096 1_555
O1 P0 1.551378 1_555
O1 W1 2.086040 1_655
O2 W2 2.008629 1_555
O2 W1 2.009923 1_555
O3 P0 1.554175 1_455
O3 W0 2.091919 1_555
O4 P0 1.545247 1_545
O4 W0 2.125214 1_555
O5 W0 2.008629 1_555
O5 W1 2.009923 1_655
O6 P2 1.547013 1_555
O6 W1 2.137096 1_655
O7 P1 1.551378 1_555
O7 W1 2.086040 1_555
O8 P2 1.545247 1_455
O8 W2 2.125214 1_555
O9 P1 1.545247 1_565
O9 W2 2.125214 1_555
O10 P2 1.554175 1_545
O10 W2 2.091919 1_555
O11 P1 1.554175 1_655
O11 W2 2.091919 1_555
O12 P1 1.547013 1_555
O12 W3 2.137096 1_555
O13 P2 1.551378 1_555
O13 W3 2.086040 1_565
O14 P3 1.554175 1_565
O14 W0 2.091919 1_555
O15 P3 1.545247 1_655
O15 W0 2.125214 1_555
O16 W2 2.008629 1_555
O16 W3 2.009923 1_565
O17 W0 2.008629 1_555
O17 W3 2.009923 1_556
O18 P3 1.551378 1_555
O18 W3 2.086040 1_556
O19 P0 1.547013 1_555
O19 W3 2.137096 1_566
