# generated using pymatgen
data_Sr2LaCl7
_symmetry_space_group_name_H-M   'P 1'
_cell_length_a   15.48724400
_cell_length_b   6.90341700
_cell_length_c   10.42071075
_cell_angle_alpha   89.08639236
_cell_angle_beta   90.00000000
_cell_angle_gamma   90.00000000
_symmetry_Int_Tables_number   1
_chemical_formula_structural   Sr2LaCl7
_chemical_formula_sum   'Sr8 La4 Cl28'
_cell_volume   1113.98764885
_cell_formula_units_Z   4
loop_
 _symmetry_equiv_pos_site_id
 _symmetry_equiv_pos_as_xyz
  1  'x, y, z'
loop_
 _atom_site_type_symbol
 _atom_site_label
 _atom_site_symmetry_multiplicity
 _atom_site_fract_x
 _atom_site_fract_y
 _atom_site_fract_z
 _atom_site_occupancy
  Sr  Sr0  1  0.43736800  0.72393400  0.67566900  1
  Sr  Sr1  1  0.77875600  0.72177300  0.55266400  1
  Sr  Sr2  1  0.06263200  0.72393400  0.17566900  1
  Sr  Sr3  1  0.72124400  0.72177300  0.05266400  1
  Sr  Sr4  1  0.27875600  0.27822700  0.94733600  1
  Sr  Sr5  1  0.93736800  0.27606600  0.82433100  1
  Sr  Sr6  1  0.22124400  0.27822700  0.44733600  1
  Sr  Sr7  1  0.56263200  0.27606600  0.32433100  1
  La  La0  1  0.12687100  0.78174500  0.71724100  1
  La  La1  1  0.37312900  0.78174500  0.21724100  1
  La  La2  1  0.62687100  0.21825500  0.78275900  1
  La  La3  1  0.87312900  0.21825500  0.28275900  1
  Cl  Cl0  1  0.78076400  0.99362500  0.79180200  1
  Cl  Cl1  1  0.60229400  0.99420500  0.56100300  1
  Cl  Cl2  1  0.71923600  0.99362500  0.29180200  1
  Cl  Cl3  1  0.89770600  0.99420500  0.06100300  1
  Cl  Cl4  1  0.57180600  0.84433900  0.87682100  1
  Cl  Cl5  1  0.92819400  0.84433900  0.37682100  1
  Cl  Cl6  1  0.35518100  0.70257700  0.95402500  1
  Cl  Cl7  1  0.14481900  0.70257700  0.45402500  1
  Cl  Cl8  1  0.95235700  0.68642300  0.70892300  1
  Cl  Cl9  1  0.54764300  0.68642300  0.20892300  1
  Cl  Cl10  1  0.10317300  0.49981300  0.92578900  1
  Cl  Cl11  1  0.26095000  0.49723400  0.69146500  1
  Cl  Cl12  1  0.39682700  0.49981300  0.42578900  1
  Cl  Cl13  1  0.23905000  0.49723400  0.19146500  1
  Cl  Cl14  1  0.76095000  0.50276600  0.80853500  1
  Cl  Cl15  1  0.60317300  0.50018700  0.57421100  1
  Cl  Cl16  1  0.73905000  0.50276600  0.30853500  1
  Cl  Cl17  1  0.89682700  0.50018700  0.07421100  1
  Cl  Cl18  1  0.45235700  0.31357700  0.79107700  1
  Cl  Cl19  1  0.04764300  0.31357700  0.29107700  1
  Cl  Cl20  1  0.85518100  0.29742300  0.54597500  1
  Cl  Cl21  1  0.64481900  0.29742300  0.04597500  1
  Cl  Cl22  1  0.07180600  0.15566100  0.62317900  1
  Cl  Cl23  1  0.42819400  0.15566100  0.12317900  1
  Cl  Cl24  1  0.10229400  0.00579500  0.93899700  1
  Cl  Cl25  1  0.28076400  0.00637500  0.70819800  1
  Cl  Cl26  1  0.39770600  0.00579500  0.43899700  1
  Cl  Cl27  1  0.21923600  0.00637500  0.20819800  1
loop_
_geom_bond_atom_site_label_1
_geom_bond_atom_site_label_2
_geom_bond_distance
_geom_bond_site_symmetry_2
Cl0 La2 2.844192 1_565
Cl0 Sr5 3.133708 1_565
Cl0 Sr1 3.143587 1_555
Cl0 Sr3 3.405669 1_556
Cl1 La2 2.826875 1_565
Cl1 Sr7 3.176951 1_565
Cl1 Sr1 3.319433 1_555
Cl1 Sr0 3.370767 1_555
Cl2 La3 2.844192 1_565
Cl2 Sr7 3.133708 1_565
Cl2 Sr3 3.143587 1_555
Cl2 Sr1 3.405669 1_555
Cl3 La3 2.826875 1_565
Cl3 Sr5 3.176951 1_564
Cl3 Sr3 3.319433 1_555
Cl3 Sr2 3.370767 1_655
Cl4 La2 2.875842 1_565
Cl4 Sr3 3.062772 1_556
Cl4 Sr0 3.078202 1_555
Cl5 La3 2.875842 1_565
Cl5 Sr1 3.062772 1_555
Cl5 Sr2 3.078202 1_655
Cl6 La1 2.819087 1_556
Cl6 Sr4 3.161341 1_555
Cl6 Sr0 3.168930 1_555
Cl7 La0 2.819087 1_555
Cl7 Sr6 3.161341 1_555
Cl7 Sr2 3.168930 1_555
Cl8 La0 2.783373 1_655
Cl8 Sr5 3.068664 1_555
Cl8 Sr1 3.150701 1_555
Cl9 La1 2.783373 1_555
Cl9 Sr7 3.068664 1_555
Cl9 Sr3 3.150701 1_555
Cl10 La0 2.917320 1_555
Cl10 Sr2 3.113995 1_556
Cl10 Sr4 3.126343 1_555
Cl10 Sr5 3.185852 1_455
Cl11 La0 2.873772 1_555
Cl11 Sr6 3.042788 1_555
Cl11 Sr4 3.056597 1_555
Cl11 Sr0 3.151697 1_555
Cl12 La1 2.917320 1_555
Cl12 Sr0 3.113995 1_555
Cl12 Sr6 3.126343 1_555
Cl12 Sr7 3.185852 1_555
Cl13 La1 2.873772 1_555
Cl13 Sr4 3.042788 1_554
Cl13 Sr6 3.056597 1_555
Cl13 Sr2 3.151697 1_555
Cl14 La2 2.873772 1_555
Cl14 Sr3 3.042788 1_556
Cl14 Sr1 3.056597 1_555
Cl14 Sr5 3.151697 1_555
Cl15 La2 2.917320 1_555
Cl15 Sr7 3.113995 1_555
Cl15 Sr1 3.126343 1_555
Cl15 Sr0 3.185852 1_555
Cl16 La3 2.873772 1_555
Cl16 Sr1 3.042788 1_555
Cl16 Sr3 3.056597 1_555
Cl16 Sr7 3.151697 1_555
Cl17 La3 2.917320 1_555
Cl17 Sr5 3.113995 1_554
Cl17 Sr3 3.126343 1_555
Cl17 Sr2 3.185852 1_655
Cl18 La2 2.783373 1_555
Cl18 Sr0 3.068664 1_555
Cl18 Sr4 3.150701 1_555
Cl19 La3 2.783373 1_455
Cl19 Sr2 3.068664 1_555
Cl19 Sr6 3.150701 1_555
Cl20 La3 2.819087 1_555
Cl20 Sr1 3.161341 1_555
Cl20 Sr5 3.168930 1_555
Cl21 La2 2.819087 1_554
Cl21 Sr3 3.161341 1_555
Cl21 Sr7 3.168930 1_555
Cl22 La0 2.875842 1_545
Cl22 Sr6 3.062772 1_555
Cl22 Sr5 3.078202 1_455
Cl23 La1 2.875842 1_545
Cl23 Sr4 3.062772 1_554
Cl23 Sr7 3.078202 1_555
Cl24 La0 2.826875 1_545
Cl24 Sr2 3.176951 1_546
Cl24 Sr4 3.319433 1_555
Cl24 Sr5 3.370767 1_455
Cl25 La0 2.844192 1_545
Cl25 Sr0 3.133708 1_545
Cl25 Sr4 3.143587 1_555
Cl25 Sr6 3.405669 1_555
Cl26 La1 2.826875 1_545
Cl26 Sr0 3.176951 1_545
Cl26 Sr6 3.319433 1_555
Cl26 Sr7 3.370767 1_555
Cl27 La1 2.844192 1_545
Cl27 Sr2 3.133708 1_545
Cl27 Sr6 3.143587 1_555
Cl27 Sr4 3.405669 1_554
