# generated using pymatgen
data_Cd(AsO3)2
_symmetry_space_group_name_H-M   'P 1'
_cell_length_a   4.85315831
_cell_length_b   4.85315924
_cell_length_c   4.89477796
_cell_angle_alpha   90.00000000
_cell_angle_beta   90.00000000
_cell_angle_gamma   120.00000043
_symmetry_Int_Tables_number   1
_chemical_formula_structural   Cd(AsO3)2
_chemical_formula_sum   'Cd1 As2 O6'
_cell_volume   99.84185127
_cell_formula_units_Z   1
loop_
 _symmetry_equiv_pos_site_id
 _symmetry_equiv_pos_as_xyz
  1  'x, y, z'
loop_
 _atom_site_type_symbol
 _atom_site_label
 _atom_site_symmetry_multiplicity
 _atom_site_fract_x
 _atom_site_fract_y
 _atom_site_fract_z
 _atom_site_occupancy
  Cd  Cd0  1  0.00000000  -0.00000000  -0.00000000  1
  As  As0  1  0.66666700  0.33333300  0.50000000  1
  As  As1  1  0.33333300  0.66666700  0.50000000  1
  O  O0  1  0.62393742  0.62393742  0.70896518  1
  O  O1  1  0.37606258  0.00000000  0.70896518  1
  O  O2  1  -0.00000000  0.37606258  0.70896518  1
  O  O3  1  0.62393742  -0.00000000  0.29103482  1
  O  O4  1  0.00000000  0.62393742  0.29103482  1
  O  O5  1  0.37606258  0.37606258  0.29103482  1
loop_
_geom_bond_atom_site_label_1
_geom_bond_atom_site_label_2
_geom_bond_distance
_geom_bond_site_symmetry_2
Cd0 O1 2.315233 1_554
Cd0 O3 2.315233 1_455
Cd0 O5 2.315233 1_555
Cd0 O0 2.315233 1_444
Cd0 O2 2.315233 1_554
Cd0 O4 2.315233 1_545
As0 O2 1.835958 1_655
As0 O3 1.835958 1_555
As0 O4 1.835959 1_655
As0 O1 1.835959 1_555
As0 O5 1.835962 1_555
As0 O0 1.835962 1_555
As1 O4 1.835958 1_555
As1 O1 1.835958 1_565
As1 O2 1.835959 1_555
As1 O3 1.835959 1_565
As1 O0 1.835962 1_555
As1 O5 1.835962 1_555
