# generated using pymatgen
data_LiMn2F9
_symmetry_space_group_name_H-M   'P 1'
_cell_length_a   5.22234100
_cell_length_b   5.26049537
_cell_length_c   14.59818153
_cell_angle_alpha   92.04736841
_cell_angle_beta   93.58591976
_cell_angle_gamma   118.71798806
_symmetry_Int_Tables_number   1
_chemical_formula_structural   LiMn2F9
_chemical_formula_sum   'Li2 Mn4 F18'
_cell_volume   350.03133167
_cell_formula_units_Z   2
loop_
 _symmetry_equiv_pos_site_id
 _symmetry_equiv_pos_as_xyz
  1  'x, y, z'
loop_
 _atom_site_type_symbol
 _atom_site_label
 _atom_site_symmetry_multiplicity
 _atom_site_fract_x
 _atom_site_fract_y
 _atom_site_fract_z
 _atom_site_occupancy
  Li  Li0  1  0.71209600  0.02503000  0.45950200  1
  Li  Li1  1  0.54004700  0.21638600  0.96207000  1
  Mn  Mn0  1  0.17249900  0.17207700  0.15525700  1
  Mn  Mn1  1  0.67205000  0.67650400  0.65631800  1
  Mn  Mn2  1  0.33546500  0.31441200  0.33927500  1
  Mn  Mn3  1  0.81871800  0.83885500  0.84002600  1
  F  F0  1  0.23181700  0.96990100  0.26139600  1
  F  F1  1  0.64835500  0.31499700  0.39765600  1
  F  F2  1  0.13542700  0.41669100  0.08407700  1
  F  F3  1  0.58933800  0.88816400  0.57833100  1
  F  F4  1  0.42821100  0.66777300  0.38870300  1
  F  F5  1  0.52517700  0.47340100  0.23152300  1
  F  F6  1  0.01261000  0.28242300  0.25847300  1
  F  F7  1  0.83805900  0.87306000  0.11341800  1
  F  F8  1  0.39191900  0.09745500  0.08069200  1
  F  F9  1  0.97183700  0.02928600  0.73156800  1
  F  F10  1  0.92336900  0.64851800  0.58794900  1
  F  F11  1  0.09969800  0.12150000  0.42578100  1
  F  F12  1  0.17884200  0.93549200  0.88993200  1
  F  F13  1  0.37584900  0.34146500  0.61460300  1
  F  F14  1  0.63021200  0.60171600  0.92706700  1
  F  F15  1  0.78921800  0.52141400  0.76152900  1
  F  F16  1  0.46765200  0.73112100  0.76101000  1
  F  F17  1  0.81802600  0.14633300  0.89694100  1
loop_
_geom_bond_atom_site_label_1
_geom_bond_atom_site_label_2
_geom_bond_distance
_geom_bond_site_symmetry_2
F0 Mn2 1.924326 1_565
F0 Mn0 2.000541 1_565
F1 Mn2 1.793640 1_555
F1 Li0 1.949729 1_555
F2 Mn0 1.755796 1_555
F3 Mn1 1.792674 1_555
F3 Li0 1.929582 1_565
F4 Mn2 1.790476 1_555
F4 Li0 1.946813 1_565
F5 Mn2 1.909971 1_555
F5 Mn0 1.989010 1_555
F6 Mn2 1.930506 1_555
F6 Mn0 1.966008 1_555
F7 Mn0 1.748010 1_665
F8 Mn0 1.791586 1_555
F8 Li1 1.941232 1_554
F9 Mn3 1.910929 1_545
F9 Mn1 1.987188 1_545
F10 Mn1 1.754833 1_555
F11 Mn2 1.796074 1_555
F11 Li0 1.937144 1_455
F12 Mn3 1.791524 1_455
F12 Li1 1.952533 1_565
F13 Mn1 1.747980 1_555
F14 Mn3 1.797052 1_555
F14 Li1 1.943841 1_555
F15 Mn3 1.928567 1_555
F15 Mn1 1.962318 1_555
F16 Mn3 1.924387 1_555
F16 Mn1 2.006273 1_555
F17 Mn3 1.793479 1_545
F17 Li1 1.951645 1_555
