# generated using pymatgen
data_SrCl2O
_symmetry_space_group_name_H-M   'P 1'
_cell_length_a   4.77533500
_cell_length_b   8.02516600
_cell_length_c   10.56693600
_cell_angle_alpha   90.00000000
_cell_angle_beta   90.00000000
_cell_angle_gamma   90.00000000
_symmetry_Int_Tables_number   1
_chemical_formula_structural   SrCl2O
_chemical_formula_sum   'Sr4 Cl8 O4'
_cell_volume   404.95516754
_cell_formula_units_Z   4
loop_
 _symmetry_equiv_pos_site_id
 _symmetry_equiv_pos_as_xyz
  1  'x, y, z'
loop_
 _atom_site_type_symbol
 _atom_site_label
 _atom_site_symmetry_multiplicity
 _atom_site_fract_x
 _atom_site_fract_y
 _atom_site_fract_z
 _atom_site_occupancy
  Sr  Sr0  1  0.25000000  0.39009800  0.68602800  1
  Sr  Sr1  1  0.25000000  0.10990200  0.18602800  1
  Sr  Sr2  1  0.75000000  0.60990200  0.31397200  1
  Sr  Sr3  1  0.75000000  0.89009800  0.81397200  1
  Cl  Cl0  1  0.75000000  0.62102900  0.60666900  1
  Cl  Cl1  1  0.75000000  0.87897100  0.10666900  1
  Cl  Cl2  1  0.25000000  0.37897100  0.39333100  1
  Cl  Cl3  1  0.25000000  0.12102900  0.89333100  1
  Cl  Cl4  1  0.75000000  0.16322600  0.61707000  1
  Cl  Cl5  1  0.75000000  0.33677400  0.11707000  1
  Cl  Cl6  1  0.25000000  0.83677400  0.38293000  1
  Cl  Cl7  1  0.25000000  0.66322600  0.88293000  1
  O  O0  1  0.75000000  0.39182100  0.76692200  1
  O  O1  1  0.75000000  0.10817900  0.26692200  1
  O  O2  1  0.25000000  0.60817900  0.23307800  1
  O  O3  1  0.25000000  0.89182100  0.73307800  1
loop_
_geom_bond_atom_site_label_1
_geom_bond_atom_site_label_2
_geom_bond_distance
_geom_bond_site_symmetry_2
Cl0 Sr3 3.075910 1_555
Cl0 Sr2 3.094199 1_555
Cl0 Sr0 3.136678 1_655
Cl0 Sr0 3.136678 1_555
Cl1 Sr2 3.075910 1_555
Cl1 Sr3 3.094199 1_554
Cl1 Sr1 3.136678 1_665
Cl1 Sr1 3.136678 1_565
Cl2 Sr1 3.075910 1_555
Cl2 Sr0 3.094199 1_555
Cl2 Sr2 3.136678 1_455
Cl2 Sr2 3.136678 1_555
Cl3 Sr0 3.075910 1_555
Cl3 Sr1 3.094199 1_556
Cl3 Sr3 3.136678 1_545
Cl3 Sr3 3.136678 1_445
Cl4 O0 2.423393 1_555
Cl4 Sr3 3.022172 1_545
Cl4 Sr0 3.089793 1_655
Cl4 Sr0 3.089793 1_555
Cl5 O1 2.423393 1_555
Cl5 Sr2 3.022172 1_555
Cl5 Sr1 3.089793 1_555
Cl5 Sr1 3.089793 1_655
Cl6 O2 2.423393 1_555
Cl6 Sr1 3.022172 1_565
Cl6 Sr2 3.089793 1_555
Cl6 Sr2 3.089793 1_455
Cl7 O3 2.423393 1_555
Cl7 Sr0 3.022172 1_555
Cl7 Sr3 3.089793 1_455
Cl7 Sr3 3.089793 1_555
O0 Sr0 2.536106 1_555
O0 Sr0 2.536106 1_655
O1 Sr1 2.536106 1_655
O1 Sr1 2.536106 1_555
O2 Sr2 2.536106 1_455
O2 Sr2 2.536106 1_555
O3 Sr3 2.536106 1_555
O3 Sr3 2.536106 1_455
