# generated using pymatgen
data_FeOF
_symmetry_space_group_name_H-M   'P 1'
_cell_length_a   9.50637166
_cell_length_b   14.34589473
_cell_length_c   3.09677400
_cell_angle_alpha   90.00000000
_cell_angle_beta   90.00000000
_cell_angle_gamma   90.67531202
_symmetry_Int_Tables_number   1
_chemical_formula_structural   FeOF
_chemical_formula_sum   'Fe12 O12 F12'
_cell_volume   422.30067410
_cell_formula_units_Z   12
loop_
 _symmetry_equiv_pos_site_id
 _symmetry_equiv_pos_as_xyz
  1  'x, y, z'
loop_
 _atom_site_type_symbol
 _atom_site_label
 _atom_site_symmetry_multiplicity
 _atom_site_fract_x
 _atom_site_fract_y
 _atom_site_fract_z
 _atom_site_occupancy
  Fe  Fe0  1  0.02095700  0.00039200  0.00000000  1
  Fe  Fe1  1  0.00969300  0.33815100  0.00000000  1
  Fe  Fe2  1  0.01893200  0.66620300  0.00000000  1
  Fe  Fe3  1  0.26089800  0.14468300  0.50000000  1
  Fe  Fe4  1  0.22909200  0.49932900  0.50000000  1
  Fe  Fe5  1  0.22854200  0.83357300  0.50000000  1
  Fe  Fe6  1  0.51957700  0.33036200  0.00000000  1
  Fe  Fe7  1  0.51002300  0.00361300  0.00000000  1
  Fe  Fe8  1  0.52089000  0.66960100  0.00000000  1
  Fe  Fe9  1  0.72892000  0.16396800  0.50000000  1
  Fe  Fe10  1  0.72193600  0.50220800  0.50000000  1
  Fe  Fe11  1  0.72423000  0.83935600  0.50000000  1
  O  O0  1  0.09646800  0.59921000  0.50000000  1
  O  O1  1  0.09742400  0.93652100  0.50000000  1
  O  O2  1  0.15161000  0.10546200  0.00000000  1
  O  O3  1  0.15202100  0.76804000  0.00000000  1
  O  O4  1  0.14842600  0.43080600  0.00000000  1
  O  O5  1  0.40815400  0.06213700  0.50000000  1
  O  O6  1  0.59907800  0.26954400  0.50000000  1
  O  O7  1  0.59636200  0.93657300  0.50000000  1
  O  O8  1  0.59313600  0.60386000  0.50000000  1
  O  O9  1  0.66009900  0.10340800  0.00000000  1
  O  O10  1  0.65339600  0.43529600  0.00000000  1
  O  O11  1  0.65320100  0.77066800  0.00000000  1
  F  F0  1  0.09440100  0.27006400  0.50000000  1
  F  F1  1  0.34609400  0.23565600  0.00000000  1
  F  F2  1  0.34313700  0.56210600  0.00000000  1
  F  F3  1  0.34487700  0.89335100  0.00000000  1
  F  F4  1  0.40051100  0.39977700  0.50000000  1
  F  F5  1  0.40108500  0.73029300  0.50000000  1
  F  F6  1  0.85757500  0.23757600  0.00000000  1
  F  F7  1  0.84874000  0.90048700  0.00000000  1
  F  F8  1  0.84691700  0.56386900  0.00000000  1
  F  F9  1  0.90496800  0.06750400  0.50000000  1
  F  F10  1  0.90373000  0.39744100  0.50000000  1
  F  F11  1  0.90490000  0.72891300  0.50000000  1
loop_
_geom_bond_atom_site_label_1
_geom_bond_atom_site_label_2
_geom_bond_distance
_geom_bond_site_symmetry_2
Fe0 O2 1.941789 1_555
Fe0 O1 1.944531 1_544
Fe0 O1 1.944531 1_545
Fe1 O4 1.861413 1_555
Fe2 O3 1.921327 1_555
Fe2 O0 1.970066 1_555
Fe2 O0 1.970066 1_554
Fe3 O5 1.844189 1_555
Fe3 O2 1.944142 1_556
Fe3 O2 1.944142 1_555
Fe4 O0 1.919710 1_555
Fe4 O4 1.983460 1_555
Fe4 O4 1.983460 1_556
Fe5 O1 1.943766 1_555
Fe5 O3 1.947919 1_555
Fe5 O3 1.947919 1_556
Fe6 O6 1.935320 1_554
Fe6 O6 1.935320 1_555
Fe6 O10 1.959420 1_555
Fe7 O7 2.003680 1_544
Fe7 O7 2.003680 1_545
Fe7 O9 2.009199 1_555
Fe7 O5 2.014787 1_554
Fe7 O5 2.014787 1_555
Fe8 O11 1.908210 1_555
Fe8 O8 1.942659 1_554
Fe8 O8 1.942659 1_555
Fe9 O9 1.888630 1_555
Fe9 O9 1.888630 1_556
Fe9 O6 1.965093 1_555
Fe10 O8 1.915177 1_555
Fe10 O10 1.930992 1_556
Fe10 O10 1.930992 1_555
Fe11 O7 1.860817 1_555
Fe11 O11 1.951601 1_556
Fe11 O11 1.951601 1_555
F0 Fe1 2.004638 1_556
F0 Fe1 2.004638 1_555
F0 Fe3 2.409905 1_555
F1 Fe6 2.124366 1_555
F1 Fe3 2.175268 1_555
F1 Fe3 2.175268 1_554
F2 Fe4 2.088287 1_555
F2 Fe4 2.088287 1_554
F2 Fe8 2.274216 1_555
F3 Fe5 2.081739 1_554
F3 Fe5 2.081739 1_555
F3 Fe7 2.215465 1_565
F4 Fe6 2.167232 1_556
F4 Fe6 2.167232 1_555
F4 Fe4 2.179453 1_555
F5 Fe8 2.115675 1_556
F5 Fe8 2.115675 1_555
F5 Fe5 2.223286 1_555
F6 Fe1 2.030708 1_655
F6 Fe9 2.231136 1_554
F6 Fe9 2.231136 1_555
F7 Fe11 2.131461 1_555
F7 Fe11 2.131461 1_554
F7 Fe0 2.163127 1_665
F8 Fe10 2.137015 1_555
F8 Fe10 2.137015 1_554
F8 Fe2 2.184640 1_655
F9 Fe0 2.136651 1_655
F9 Fe0 2.136651 1_656
F9 Fe9 2.184155 1_555
F10 Fe1 2.038594 1_655
F10 Fe1 2.038594 1_656
F10 Fe10 2.303659 1_555
F11 Fe2 2.098797 1_655
F11 Fe2 2.098797 1_656
F11 Fe11 2.350392 1_555
