# generated using pymatgen
data_MnOF
_symmetry_space_group_name_H-M   'P 1'
_cell_length_a   4.82005446
_cell_length_b   14.32606312
_cell_length_c   3.06228500
_cell_angle_alpha   90.00000000
_cell_angle_beta   90.00000000
_cell_angle_gamma   96.51111974
_symmetry_Int_Tables_number   1
_chemical_formula_structural   MnOF
_chemical_formula_sum   'Mn6 O6 F6'
_cell_volume   210.09420923
_cell_formula_units_Z   6
loop_
 _symmetry_equiv_pos_site_id
 _symmetry_equiv_pos_as_xyz
  1  'x, y, z'
loop_
 _atom_site_type_symbol
 _atom_site_label
 _atom_site_symmetry_multiplicity
 _atom_site_fract_x
 _atom_site_fract_y
 _atom_site_fract_z
 _atom_site_occupancy
  Mn  Mn0  1  0.05487800  0.99834300  0.00000000  1
  Mn  Mn1  1  0.00815700  0.33350900  0.00000000  1
  Mn  Mn2  1  0.96908200  0.66663600  0.00000000  1
  Mn  Mn3  1  0.52847700  0.16838100  0.50000000  1
  Mn  Mn4  1  0.49060400  0.49897300  0.50000000  1
  Mn  Mn5  1  0.45146700  0.83176200  0.50000000  1
  O  O0  1  0.20165000  0.93594100  0.50000000  1
  O  O1  1  0.33893100  0.10236600  0.00000000  1
  O  O2  1  0.26602400  0.76807900  0.00000000  1
  O  O3  1  0.30119600  0.43416600  0.00000000  1
  O  O4  1  0.71658700  0.23309100  0.00000000  1
  O  O5  1  0.67608100  0.56638000  0.00000000  1
  F  F0  1  0.19926800  0.27011300  0.50000000  1
  F  F1  1  0.16414600  0.60630500  0.50000000  1
  F  F2  1  0.69346200  0.89829000  0.00000000  1
  F  F3  1  0.85019800  0.05647300  0.50000000  1
  F  F4  1  0.81616200  0.39648400  0.50000000  1
  F  F5  1  0.77363100  0.73470700  0.50000000  1
loop_
_geom_bond_atom_site_label_1
_geom_bond_atom_site_label_2
_geom_bond_distance
_geom_bond_site_symmetry_2
Mn0 O1 1.905952 1_565
Mn0 O0 1.946151 1_554
Mn0 O0 1.946151 1_555
Mn1 O4 1.893709 1_455
Mn1 O3 1.900669 1_555
Mn2 O5 1.896679 1_555
Mn2 O2 1.920634 1_655
Mn3 O4 1.958386 1_556
Mn3 O4 1.958386 1_555
Mn3 O1 1.969152 1_555
Mn3 O1 1.969152 1_556
Mn4 O3 1.961539 1_555
Mn4 O3 1.961539 1_556
Mn4 O5 1.969870 1_555
Mn4 O5 1.969870 1_556
Mn5 O2 1.946986 1_556
Mn5 O2 1.946986 1_555
Mn5 O0 2.021136 1_555
F0 Mn1 2.051228 1_556
F0 Mn1 2.051228 1_555
F0 Mn3 2.272996 1_555
F1 Mn2 2.039542 1_456
F1 Mn2 2.039542 1_455
F1 Mn4 2.321451 1_555
F2 Mn5 2.088348 1_554
F2 Mn5 2.088348 1_555
F2 Mn0 2.126725 1_655
F3 Mn0 2.048794 1_645
F3 Mn0 2.048794 1_646
F3 Mn3 2.353464 1_555
F4 Mn1 2.050389 1_656
F4 Mn1 2.050389 1_655
F4 Mn4 2.267320 1_555
F5 Mn2 2.095536 1_556
F5 Mn2 2.095536 1_555
F5 Mn5 2.198695 1_555
