# generated using pymatgen
data_Co2OF3
_symmetry_space_group_name_H-M   'P 1'
_cell_length_a   4.71620100
_cell_length_b   5.68490596
_cell_length_c   13.30007103
_cell_angle_alpha   78.72763205
_cell_angle_beta   89.55685171
_cell_angle_gamma   89.46919391
_symmetry_Int_Tables_number   1
_chemical_formula_structural   Co2OF3
_chemical_formula_sum   'Co10 O5 F15'
_cell_volume   349.68996651
_cell_formula_units_Z   5
loop_
 _symmetry_equiv_pos_site_id
 _symmetry_equiv_pos_as_xyz
  1  'x, y, z'
loop_
 _atom_site_type_symbol
 _atom_site_label
 _atom_site_symmetry_multiplicity
 _atom_site_fract_x
 _atom_site_fract_y
 _atom_site_fract_z
 _atom_site_occupancy
  Co  Co0  1  0.47683500  0.51714500  0.00362400  1
  Co  Co1  1  0.50283400  0.30384300  0.60289700  1
  Co  Co2  1  0.55694500  0.68299300  0.39957100  1
  Co  Co3  1  0.46129600  0.90289700  0.78272300  1
  Co  Co4  1  0.50483900  0.09693600  0.20053100  1
  Co  Co5  1  0.99073200  0.78161800  0.59373000  1
  Co  Co6  1  0.01533200  0.59959500  0.19795300  1
  Co  Co7  1  0.95973000  0.39946700  0.81753100  1
  Co  Co8  1  0.00035900  0.21539700  0.39981400  1
  Co  Co9  1  0.99697700  0.99511300  0.99791200  1
  O  O0  1  0.78935600  0.33430100  0.93916200  1
  O  O1  1  0.81770600  0.52355600  0.33787700  1
  O  O2  1  0.71615400  0.61818800  0.54318700  1
  O  O3  1  0.29375400  0.96580100  0.66035200  1
  O  O4  1  0.20193400  0.68044700  0.05783300  1
  F  F0  1  0.79684300  0.71331800  0.74122000  1
  F  F1  1  0.80663000  0.91690800  0.13909700  1
  F  F2  1  0.81263600  0.11469200  0.54146400  1
  F  F3  1  0.70242800  0.01840200  0.34293200  1
  F  F4  1  0.67858400  0.83168500  0.92761900  1
  F  F5  1  0.69665100  0.41970900  0.13861300  1
  F  F6  1  0.69495600  0.20833200  0.74337400  1
  F  F7  1  0.31737100  0.77810100  0.26518100  1
  F  F8  1  0.30120800  0.18282900  0.05921900  1
  F  F9  1  0.29227000  0.59054100  0.85715400  1
  F  F10  1  0.31682400  0.38828200  0.46131800  1
  F  F11  1  0.19234000  0.09234600  0.85663700  1
  F  F12  1  0.21627900  0.87877100  0.45937600  1
  F  F13  1  0.20378600  0.27820200  0.26001700  1
  F  F14  1  0.18641200  0.47058300  0.67208100  1
loop_
_geom_bond_atom_site_label_1
_geom_bond_atom_site_label_2
_geom_bond_distance
_geom_bond_site_symmetry_2
Co0 O4 1.813135 1_555
Co0 F5 2.057730 1_555
Co0 O0 2.070843 1_554
Co0 F8 2.077309 1_555
Co0 F9 2.104387 1_554
Co0 F4 2.105846 1_554
Co1 F10 2.051857 1_555
Co1 F6 2.055974 1_555
Co1 F2 2.062659 1_555
Co1 F14 2.065363 1_555
Co1 O2 2.074225 1_555
Co1 O3 2.167643 1_545
Co2 O1 1.806021 1_555
Co2 O2 2.022366 1_555
Co2 F3 2.031921 1_565
Co2 F10 2.060762 1_555
Co2 F7 2.099013 1_555
Co2 F12 2.178513 1_555
Co3 O3 1.785568 1_555
Co3 F9 2.023709 1_555
Co3 F11 2.025987 1_565
Co3 F0 2.039119 1_555
Co3 F6 2.043163 1_565
Co3 F4 2.155395 1_555
Co4 F13 1.994490 1_555
Co4 F1 2.005690 1_545
Co4 F7 2.053047 1_545
Co4 F5 2.071709 1_555
Co4 F3 2.084166 1_555
Co4 F8 2.086516 1_555
Co5 O2 1.808852 1_555
Co5 F12 2.055548 1_655
Co5 F2 2.058888 1_565
Co5 F14 2.080488 1_655
Co5 O3 2.081793 1_655
Co5 F0 2.125081 1_555
Co6 O4 2.026335 1_555
Co6 O1 2.045732 1_455
Co6 F13 2.049687 1_555
Co6 F7 2.063887 1_555
Co6 F1 2.064602 1_455
Co6 F5 2.071211 1_455
Co7 O0 1.775093 1_555
Co7 F0 2.020490 1_555
Co7 F11 2.034866 1_655
Co7 F6 2.043508 1_555
Co7 F9 2.045829 1_655
Co7 F14 2.172305 1_655
Co8 O1 1.976987 1_455
Co8 F3 2.043931 1_455
Co8 F2 2.054945 1_455
Co8 F10 2.055010 1_555
Co8 F13 2.055283 1_555
Co8 F12 2.170352 1_545
Co9 F1 2.045609 1_556
Co9 O4 2.047436 1_656
Co9 F8 2.061310 1_666
Co9 F11 2.064364 1_665
Co9 F4 2.092648 1_555
Co9 O0 2.162249 1_565
