# generated using pymatgen
data_Ti17(NO4)6
_symmetry_space_group_name_H-M   'P 1'
_cell_length_a   10.04244000
_cell_length_b   10.39471800
_cell_length_c   11.47014674
_cell_angle_alpha   68.41621130
_cell_angle_beta   90.00000000
_cell_angle_gamma   90.00000000
_symmetry_Int_Tables_number   1
_chemical_formula_structural   Ti17(NO4)6
_chemical_formula_sum   'Ti34 N12 O48'
_cell_volume   1113.39206367
_cell_formula_units_Z   2
loop_
 _symmetry_equiv_pos_site_id
 _symmetry_equiv_pos_as_xyz
  1  'x, y, z'
loop_
 _atom_site_type_symbol
 _atom_site_label
 _atom_site_symmetry_multiplicity
 _atom_site_fract_x
 _atom_site_fract_y
 _atom_site_fract_z
 _atom_site_occupancy
  Ti  Ti0  1  0.25000000  0.19800300  0.10292700  1
  Ti  Ti1  1  0.57732900  0.14393200  0.12308600  1
  Ti  Ti2  1  0.92267100  0.14393200  0.12308600  1
  Ti  Ti3  1  0.06012700  0.36257800  0.21266400  1
  Ti  Ti4  1  0.43987300  0.36257800  0.21266400  1
  Ti  Ti5  1  0.92934600  0.63543800  0.12152800  1
  Ti  Ti6  1  0.57065400  0.63543800  0.12152800  1
  Ti  Ti7  1  0.25000000  0.69866000  0.10170200  1
  Ti  Ti8  1  0.57649200  0.14032800  0.44804400  1
  Ti  Ti9  1  0.75000000  0.80191600  0.23104900  1
  Ti  Ti10  1  0.06937800  0.86438400  0.21083500  1
  Ti  Ti11  1  0.43062200  0.86438400  0.21083500  1
  Ti  Ti12  1  0.92350800  0.14032800  0.44804400  1
  Ti  Ti13  1  0.25000000  0.19624200  0.43079900  1
  Ti  Ti14  1  0.42797800  0.35902600  0.54696100  1
  Ti  Ti15  1  0.07202200  0.35902600  0.54696100  1
  Ti  Ti16  1  0.92797800  0.64097400  0.45303900  1
  Ti  Ti17  1  0.75000000  0.30191200  0.56631600  1
  Ti  Ti18  1  0.57202200  0.64097400  0.45303900  1
  Ti  Ti19  1  0.25000000  0.69808800  0.43368400  1
  Ti  Ti20  1  0.56937800  0.13561600  0.78916500  1
  Ti  Ti21  1  0.25000000  0.19808400  0.76895100  1
  Ti  Ti22  1  0.07649200  0.85967200  0.55195600  1
  Ti  Ti23  1  0.75000000  0.80375800  0.56920100  1
  Ti  Ti24  1  0.93062200  0.13561600  0.78916500  1
  Ti  Ti25  1  0.42350800  0.85967200  0.55195600  1
  Ti  Ti26  1  0.93987300  0.63742200  0.78733600  1
  Ti  Ti27  1  0.56012700  0.63742200  0.78733600  1
  Ti  Ti28  1  0.75000000  0.30134000  0.89829800  1
  Ti  Ti29  1  0.42934600  0.36456200  0.87847200  1
  Ti  Ti30  1  0.07065400  0.36456200  0.87847200  1
  Ti  Ti31  1  0.75000000  0.80199700  0.89707300  1
  Ti  Ti32  1  0.07732900  0.85606800  0.87691400  1
  Ti  Ti33  1  0.42267100  0.85606800  0.87691400  1
  N  N0  1  0.75000000  0.22109900  0.08246200  1
  N  N1  1  0.75000000  0.73268400  0.08768000  1
  N  N2  1  0.25000000  0.26886300  0.24348300  1
  N  N3  1  0.75000000  0.21923600  0.44029900  1
  N  N4  1  0.25000000  0.77309200  0.24356700  1
  N  N5  1  0.75000000  0.72964600  0.42493400  1
  N  N6  1  0.25000000  0.27035400  0.57506600  1
  N  N7  1  0.75000000  0.22690800  0.75643300  1
  N  N8  1  0.25000000  0.78076400  0.55970100  1
  N  N9  1  0.25000000  0.26731600  0.91232000  1
  N  N10  1  0.75000000  0.73113700  0.75651700  1
  N  N11  1  0.25000000  0.77890100  0.91753800  1
  O  O0  1  0.12065400  0.04735500  0.14931000  1
  O  O1  1  0.06247900  0.30989200  0.06376100  1
  O  O2  1  0.37934600  0.04735500  0.14931000  1
  O  O3  1  0.43752100  0.30989200  0.06376100  1
  O  O4  1  0.60857800  0.45603800  0.18110400  1
  O  O5  1  0.12176600  0.54946300  0.15030000  1
  O  O6  1  0.06535300  0.81350100  0.06385100  1
  O  O7  1  0.54996700  0.17572700  0.27496900  1
  O  O8  1  0.37823400  0.54946300  0.15030000  1
  O  O9  1  0.95003300  0.17572700  0.27496900  1
  O  O10  1  0.89142200  0.45603800  0.18110400  1
  O  O11  1  0.43464700  0.81350100  0.06385100  1
  O  O12  1  0.06280200  0.31146300  0.39578700  1
  O  O13  1  0.38028500  0.04839000  0.48701100  1
  O  O14  1  0.11971500  0.04839000  0.48701100  1
  O  O15  1  0.43719800  0.31146300  0.39578700  1
  O  O16  1  0.88157400  0.95124600  0.18367500  1
  O  O17  1  0.61842600  0.95124600  0.18367500  1
  O  O18  1  0.93397600  0.68794200  0.27065900  1
  O  O19  1  0.56602400  0.68794200  0.27065900  1
  O  O20  1  0.11853100  0.54700600  0.48486100  1
  O  O21  1  0.88146900  0.45299400  0.51513900  1
  O  O22  1  0.06295400  0.80946900  0.39517600  1
  O  O23  1  0.93704600  0.19053100  0.60482400  1
  O  O24  1  0.56295400  0.19053100  0.60482400  1
  O  O25  1  0.61853100  0.45299400  0.51513900  1
  O  O26  1  0.38146900  0.54700600  0.48486100  1
  O  O27  1  0.43704600  0.80946900  0.39517600  1
  O  O28  1  0.11842600  0.04875400  0.81632500  1
  O  O29  1  0.06602400  0.31205800  0.72934100  1
  O  O30  1  0.93719800  0.68853700  0.60421300  1
  O  O31  1  0.61971500  0.95161000  0.51298900  1
  O  O32  1  0.56280200  0.68853700  0.60421300  1
  O  O33  1  0.88028500  0.95161000  0.51298900  1
  O  O34  1  0.38157400  0.04875400  0.81632500  1
  O  O35  1  0.43397600  0.31205800  0.72934100  1
  O  O36  1  0.87823400  0.45053700  0.84970000  1
  O  O37  1  0.56535300  0.18649900  0.93614900  1
  O  O38  1  0.62176600  0.45053700  0.84970000  1
  O  O39  1  0.10857800  0.54396200  0.81889600  1
  O  O40  1  0.93464700  0.18649900  0.93614900  1
  O  O41  1  0.39142200  0.54396200  0.81889600  1
  O  O42  1  0.45003300  0.82427300  0.72503100  1
  O  O43  1  0.04996700  0.82427300  0.72503100  1
  O  O44  1  0.56247900  0.69010800  0.93623900  1
  O  O45  1  0.87934600  0.95264500  0.85069000  1
  O  O46  1  0.62065400  0.95264500  0.85069000  1
  O  O47  1  0.93752100  0.69010800  0.93623900  1
loop_
_geom_bond_atom_site_label_1
_geom_bond_atom_site_label_2
_geom_bond_distance
_geom_bond_site_symmetry_2
N0 Ti2 1.895372 1_555
N0 Ti1 1.895372 1_555
N0 Ti28 1.965096 1_554
N1 Ti9 2.023075 1_555
N1 Ti5 2.031665 1_555
N1 Ti6 2.031665 1_555
N1 Ti31 2.034714 1_554
N2 Ti13 1.998203 1_555
N2 Ti0 2.003843 1_555
N2 Ti4 2.111019 1_555
N2 Ti3 2.111019 1_555
N3 Ti8 1.913939 1_555
N3 Ti12 1.913939 1_555
N3 Ti17 1.934360 1_555
N4 Ti11 2.017308 1_555
N4 Ti10 2.017308 1_555
N4 Ti19 2.027888 1_555
N4 Ti7 2.042716 1_555
N5 Ti16 1.982282 1_555
N5 Ti18 1.982282 1_555
N5 Ti23 2.066303 1_555
N5 Ti9 2.069032 1_555
N6 Ti15 1.982282 1_555
N6 Ti14 1.982282 1_555
N6 Ti13 2.066303 1_555
N6 Ti21 2.069032 1_555
N7 Ti24 2.017308 1_555
N7 Ti20 2.017308 1_555
N7 Ti17 2.027888 1_555
N7 Ti28 2.042716 1_555
N8 Ti25 1.913939 1_555
N8 Ti22 1.913939 1_555
N8 Ti19 1.934360 1_555
N9 Ti21 2.023075 1_555
N9 Ti30 2.031665 1_555
N9 Ti29 2.031665 1_555
N9 Ti0 2.034714 1_556
N10 Ti23 1.998203 1_555
N10 Ti31 2.003843 1_555
N10 Ti27 2.111019 1_555
N10 Ti26 2.111019 1_555
N11 Ti33 1.895372 1_555
N11 Ti32 1.895372 1_555
N11 Ti7 1.965096 1_556
O0 Ti10 1.842019 1_545
O0 Ti0 1.951808 1_555
O0 Ti2 2.197539 1_455
O1 Ti3 1.976287 1_555
O1 Ti30 1.989465 1_554
O1 Ti2 2.132284 1_455
O1 Ti0 2.171734 1_555
O2 Ti11 1.842019 1_545
O2 Ti0 1.951808 1_555
O2 Ti1 2.197539 1_555
O3 Ti4 1.976287 1_555
O3 Ti29 1.989465 1_554
O3 Ti1 2.132284 1_555
O3 Ti0 2.171734 1_555
O4 Ti6 1.775385 1_555
O4 Ti4 1.920012 1_555
O5 Ti3 1.909517 1_555
O5 Ti7 1.933456 1_555
O5 Ti5 2.103482 1_455
O6 Ti10 1.944168 1_555
O6 Ti32 2.027265 1_554
O6 Ti7 2.161170 1_555
O6 Ti5 2.197313 1_455
O7 Ti8 1.899980 1_555
O7 Ti1 1.908750 1_555
O7 Ti4 2.117612 1_555
O8 Ti4 1.909517 1_555
O8 Ti7 1.933456 1_555
O8 Ti6 2.103482 1_555
O9 Ti12 1.899980 1_555
O9 Ti2 1.908750 1_555
O9 Ti3 2.117612 1_655
O10 Ti5 1.775385 1_555
O10 Ti3 1.920012 1_655
O11 Ti11 1.944168 1_555
O11 Ti33 2.027265 1_554
O11 Ti7 2.161170 1_555
O11 Ti6 2.197313 1_555
O12 Ti3 1.968204 1_555
O12 Ti15 1.972423 1_555
O12 Ti12 2.167042 1_455
O12 Ti13 2.185402 1_555
O13 Ti25 1.875198 1_545
O13 Ti13 1.939209 1_555
O13 Ti8 2.163627 1_555
O14 Ti22 1.875198 1_545
O14 Ti13 1.939209 1_555
O14 Ti12 2.163627 1_455
O15 Ti4 1.968204 1_555
O15 Ti14 1.972423 1_555
O15 Ti8 2.167042 1_555
O15 Ti13 2.185402 1_555
O16 Ti2 1.908112 1_565
O16 Ti9 1.957056 1_555
O16 Ti10 2.064553 1_655
O17 Ti1 1.908112 1_565
O17 Ti9 1.957056 1_555
O17 Ti11 2.064553 1_555
O18 Ti16 1.966400 1_555
O18 Ti5 1.978095 1_555
O18 Ti9 2.151161 1_555
O18 Ti10 2.181214 1_655
O19 Ti18 1.966400 1_555
O19 Ti6 1.978095 1_555
O19 Ti9 2.151161 1_555
O19 Ti11 2.181214 1_555
O20 Ti15 1.876067 1_555
O20 Ti19 1.968700 1_555
O20 Ti16 2.118239 1_455
O21 Ti16 1.876067 1_555
O21 Ti17 1.968700 1_555
O21 Ti15 2.118239 1_655
O22 Ti10 1.978074 1_555
O22 Ti22 2.053065 1_555
O22 Ti16 2.119013 1_455
O22 Ti19 2.165105 1_555
O23 Ti24 1.978074 1_555
O23 Ti12 2.053065 1_555
O23 Ti15 2.119013 1_655
O23 Ti17 2.165105 1_555
O24 Ti20 1.978074 1_555
O24 Ti8 2.053065 1_555
O24 Ti14 2.119013 1_555
O24 Ti17 2.165105 1_555
O25 Ti18 1.876067 1_555
O25 Ti17 1.968700 1_555
O25 Ti14 2.118239 1_555
O26 Ti14 1.876067 1_555
O26 Ti19 1.968700 1_555
O26 Ti18 2.118239 1_555
O27 Ti11 1.978074 1_555
O27 Ti25 2.053065 1_555
O27 Ti18 2.119013 1_555
O27 Ti19 2.165105 1_555
O28 Ti32 1.908112 1_545
O28 Ti21 1.957056 1_555
O28 Ti24 2.064553 1_455
O29 Ti15 1.966400 1_555
O29 Ti30 1.978095 1_555
O29 Ti21 2.151161 1_555
O29 Ti24 2.181214 1_455
O30 Ti26 1.968204 1_555
O30 Ti16 1.972423 1_555
O30 Ti22 2.167042 1_655
O30 Ti23 2.185402 1_555
O31 Ti8 1.875198 1_565
O31 Ti23 1.939209 1_555
O31 Ti25 2.163627 1_555
O32 Ti27 1.968204 1_555
O32 Ti18 1.972423 1_555
O32 Ti25 2.167042 1_555
O32 Ti23 2.185402 1_555
O33 Ti12 1.875198 1_565
O33 Ti23 1.939209 1_555
O33 Ti22 2.163627 1_655
O34 Ti33 1.908112 1_545
O34 Ti21 1.957056 1_555
O34 Ti20 2.064553 1_555
O35 Ti14 1.966400 1_555
O35 Ti29 1.978095 1_555
O35 Ti21 2.151161 1_555
O35 Ti20 2.181214 1_555
O36 Ti26 1.909517 1_555
O36 Ti28 1.933456 1_555
O36 Ti30 2.103482 1_655
O37 Ti20 1.944168 1_555
O37 Ti1 2.027265 1_556
O37 Ti28 2.161170 1_555
O37 Ti29 2.197313 1_555
O38 Ti27 1.909517 1_555
O38 Ti28 1.933456 1_555
O38 Ti29 2.103482 1_555
O39 Ti30 1.775385 1_555
O39 Ti26 1.920012 1_455
O40 Ti24 1.944168 1_555
O40 Ti2 2.027265 1_556
O40 Ti28 2.161170 1_555
O40 Ti30 2.197313 1_655
O41 Ti29 1.775385 1_555
O41 Ti27 1.920012 1_555
O42 Ti25 1.899980 1_555
O42 Ti33 1.908750 1_555
O42 Ti27 2.117612 1_555
O43 Ti22 1.899980 1_555
O43 Ti32 1.908750 1_555
O43 Ti26 2.117612 1_455
O44 Ti27 1.976287 1_555
O44 Ti6 1.989465 1_556
O44 Ti33 2.132284 1_555
O44 Ti31 2.171734 1_555
O45 Ti24 1.842019 1_565
O45 Ti31 1.951808 1_555
O45 Ti32 2.197539 1_655
O46 Ti20 1.842019 1_565
O46 Ti31 1.951808 1_555
O46 Ti33 2.197539 1_555
O47 Ti26 1.976287 1_555
O47 Ti5 1.989465 1_556
O47 Ti32 2.132284 1_655
O47 Ti31 2.171734 1_555
