# generated using pymatgen
data_FeOF
_symmetry_space_group_name_H-M   'P 1'
_cell_length_a   3.09756300
_cell_length_b   9.48215700
_cell_length_c   14.25378631
_cell_angle_alpha   89.96734807
_cell_angle_beta   90.00000000
_cell_angle_gamma   90.00000000
_symmetry_Int_Tables_number   1
_chemical_formula_structural   FeOF
_chemical_formula_sum   'Fe12 O12 F12'
_cell_volume   418.65613829
_cell_formula_units_Z   12
loop_
 _symmetry_equiv_pos_site_id
 _symmetry_equiv_pos_as_xyz
  1  'x, y, z'
loop_
 _atom_site_type_symbol
 _atom_site_label
 _atom_site_symmetry_multiplicity
 _atom_site_fract_x
 _atom_site_fract_y
 _atom_site_fract_z
 _atom_site_occupancy
  Fe  Fe0  1  0.00000000  0.98928500  0.99423400  1
  Fe  Fe1  1  0.00000000  0.99715500  0.33387200  1
  Fe  Fe2  1  0.00000000  0.98319700  0.66355500  1
  Fe  Fe3  1  0.50000000  0.74988900  0.14623800  1
  Fe  Fe4  1  0.50000000  0.74283400  0.51629100  1
  Fe  Fe5  1  0.50000000  0.77145300  0.83117900  1
  Fe  Fe6  1  0.00000000  0.48332100  0.32977400  1
  Fe  Fe7  1  0.00000000  0.49292100  0.00156600  1
  Fe  Fe8  1  0.00000000  0.49453100  0.65944700  1
  Fe  Fe9  1  0.50000000  0.27186000  0.16154500  1
  Fe  Fe10  1  0.50000000  0.27534200  0.50060600  1
  Fe  Fe11  1  0.50000000  0.24606800  0.85089800  1
  O  O0  1  0.50000000  0.90917500  0.59634400  1
  O  O1  1  0.50000000  0.89913800  0.93714300  1
  O  O2  1  0.00000000  0.85324700  0.10453500  1
  O  O3  1  0.00000000  0.84855500  0.76552800  1
  O  O4  1  0.00000000  0.64934500  0.56794000  1
  O  O5  1  0.50000000  0.59427200  0.06014500  1
  O  O6  1  0.50000000  0.40289900  0.26855200  1
  O  O7  1  0.50000000  0.40843800  0.93386900  1
  O  O8  1  0.50000000  0.39926100  0.60793400  1
  O  O9  1  0.00000000  0.34375900  0.09947100  1
  O  O10  1  0.00000000  0.34982000  0.43554100  1
  O  O11  1  0.00000000  0.15078000  0.90165500  1
  F  F0  1  0.50000000  0.89697900  0.27090100  1
  F  F1  1  0.00000000  0.84125400  0.43442500  1
  F  F2  1  0.00000000  0.65637800  0.23352800  1
  F  F3  1  0.00000000  0.65296300  0.89245400  1
  F  F4  1  0.50000000  0.60433800  0.39684000  1
  F  F5  1  0.50000000  0.59441300  0.73603800  1
  F  F6  1  0.00000000  0.34678100  0.77034000  1
  F  F7  1  0.00000000  0.14979500  0.23264700  1
  F  F8  1  0.00000000  0.15454900  0.56411600  1
  F  F9  1  0.50000000  0.09658100  0.07031800  1
  F  F10  1  0.50000000  0.09499800  0.40193000  1
  F  F11  1  0.50000000  0.10442400  0.72859700  1
loop_
_geom_bond_atom_site_label_1
_geom_bond_atom_site_label_2
_geom_bond_distance
_geom_bond_site_symmetry_2
Fe0 O1 1.947406 1_455
Fe0 O1 1.947406 1_555
Fe0 O11 2.020888 1_565
Fe0 O2 2.033089 1_556
Fe2 O3 1.934039 1_555
Fe2 O0 1.951902 1_555
Fe2 O0 1.951902 1_455
Fe3 O5 1.919717 1_555
Fe3 O2 1.926633 1_555
Fe3 O2 1.926633 1_655
Fe4 O4 1.930234 1_555
Fe4 O4 1.930234 1_655
Fe4 O0 1.947268 1_555
Fe5 O1 1.936291 1_555
Fe5 O3 1.951440 1_555
Fe5 O3 1.951440 1_655
Fe6 O6 1.934557 1_555
Fe6 O6 1.934557 1_455
Fe6 O10 1.968011 1_555
Fe7 O9 1.986374 1_555
Fe7 O7 1.993099 1_554
Fe7 O7 1.993099 1_454
Fe7 O5 2.005091 1_455
Fe7 O5 2.005091 1_555
Fe8 O8 1.937700 1_555
Fe8 O8 1.937700 1_455
Fe8 O4 1.963163 1_555
Fe9 O9 1.909367 1_555
Fe9 O9 1.909367 1_655
Fe9 O6 1.967854 1_555
Fe10 O8 1.929534 1_555
Fe10 O10 1.938253 1_655
Fe10 O10 1.938253 1_555
Fe11 O11 1.933334 1_655
Fe11 O11 1.933334 1_555
Fe11 O7 1.941948 1_555
F0 Fe1 2.026726 1_655
F0 Fe1 2.026726 1_555
F0 Fe3 2.259545 1_555
F1 Fe1 2.058428 1_555
F1 Fe4 2.151759 1_455
F1 Fe4 2.151759 1_555
F2 Fe6 2.138268 1_555
F2 Fe3 2.175257 1_555
F2 Fe3 2.175257 1_455
F3 Fe5 2.103040 1_555
F3 Fe5 2.103040 1_455
F3 Fe7 2.172344 1_556
F4 Fe4 2.150836 1_555
F4 Fe6 2.151875 1_655
F4 Fe6 2.151875 1_555
F5 Fe8 2.118662 1_555
F5 Fe8 2.118662 1_655
F5 Fe5 2.158648 1_555
F6 Fe8 2.111560 1_555
F6 Fe11 2.151266 1_555
F6 Fe11 2.151266 1_455
F7 Fe1 2.043097 1_545
F7 Fe9 2.182700 1_455
F7 Fe9 2.182700 1_555
F8 Fe10 2.128127 1_555
F8 Fe10 2.128127 1_455
F8 Fe2 2.155523 1_545
F9 Fe9 2.110839 1_555
F9 Fe0 2.147368 1_644
F9 Fe0 2.147368 1_544
F10 Fe1 2.049770 1_545
F10 Fe1 2.049770 1_645
F10 Fe10 2.214785 1_555
F11 Fe2 2.140275 1_645
F11 Fe2 2.140275 1_545
F11 Fe11 2.201247 1_555
