# generated using pymatgen
data_Na3CoSiBO7
_symmetry_space_group_name_H-M   'P 1'
_cell_length_a   6.33323400
_cell_length_b   5.19941300
_cell_length_c   8.97177425
_cell_angle_alpha   87.77694616
_cell_angle_beta   90.00000000
_cell_angle_gamma   90.00000000
_symmetry_Int_Tables_number   1
_chemical_formula_structural   Na3CoSiBO7
_chemical_formula_sum   'Na6 Co2 Si2 B2 O14'
_cell_volume   295.21009869
_cell_formula_units_Z   2
loop_
 _symmetry_equiv_pos_site_id
 _symmetry_equiv_pos_as_xyz
  1  'x, y, z'
loop_
 _atom_site_type_symbol
 _atom_site_label
 _atom_site_symmetry_multiplicity
 _atom_site_fract_x
 _atom_site_fract_y
 _atom_site_fract_z
 _atom_site_occupancy
  Na  Na0  1  0.75000000  0.23694000  0.91765600  1
  Na  Na1  1  0.99158000  0.74813400  0.73752000  1
  Na  Na2  1  0.50842000  0.74813400  0.73752000  1
  Na  Na3  1  0.49158000  0.25186600  0.26248000  1
  Na  Na4  1  0.00842000  0.25186600  0.26248000  1
  Na  Na5  1  0.25000000  0.76306000  0.08234400  1
  Co  Co0  1  0.25000000  0.21326200  0.66846400  1
  Co  Co1  1  0.75000000  0.78673800  0.33153600  1
  Si  Si0  1  0.75000000  0.28613500  0.56871500  1
  Si  Si1  1  0.25000000  0.71386500  0.43128500  1
  B  B0  1  0.25000000  0.26775200  0.93097600  1
  B  B1  1  0.75000000  0.73224800  0.06902400  1
  O  O0  1  0.75000000  0.70114900  0.92206700  1
  O  O1  1  0.25000000  0.03251300  0.86161600  1
  O  O2  1  0.25000000  0.46469900  0.82031500  1
  O  O3  1  0.94990700  0.22038100  0.68409500  1
  O  O4  1  0.55009300  0.22038100  0.68409500  1
  O  O5  1  0.75000000  0.59600400  0.52251900  1
  O  O6  1  0.25000000  0.88828000  0.57690600  1
  O  O7  1  0.75000000  0.11172000  0.42309400  1
  O  O8  1  0.25000000  0.40399600  0.47748100  1
  O  O9  1  0.44990700  0.77961900  0.31590500  1
  O  O10  1  0.05009300  0.77961900  0.31590500  1
  O  O11  1  0.75000000  0.53530100  0.17968500  1
  O  O12  1  0.75000000  0.96748700  0.13838400  1
  O  O13  1  0.25000000  0.29885100  0.07793300  1
loop_
_geom_bond_atom_site_label_1
_geom_bond_atom_site_label_2
_geom_bond_distance
_geom_bond_site_symmetry_2
Na0 O12 2.381014 1_546
Na0 O0 2.415473 1_555
Na0 O3 2.452601 1_555
Na0 O4 2.452601 1_555
Na0 O0 2.784544 1_545
Na0 O11 2.866362 1_556
Na1 O0 2.260649 1_555
Na1 O6 2.281346 1_655
Na1 O2 2.305906 1_655
Na1 O1 2.496423 1_665
Na1 O3 2.497423 1_565
Na1 O5 2.608771 1_555
Na1 O3 2.816204 1_555
Na2 O0 2.260649 1_555
Na2 O6 2.281346 1_555
Na2 O2 2.305906 1_555
Na2 O1 2.496423 1_565
Na2 O4 2.497423 1_565
Na2 O5 2.608771 1_555
Na2 O4 2.816204 1_555
Na3 O13 2.260649 1_555
Na3 O7 2.281346 1_555
Na3 O11 2.305906 1_555
Na3 O12 2.496423 1_545
Na3 O9 2.497423 1_545
Na3 O8 2.608771 1_555
Na3 O9 2.816204 1_555
Na4 O13 2.260649 1_555
Na4 O7 2.281346 1_455
Na4 O11 2.305906 1_455
Na4 O12 2.496423 1_445
Na4 O10 2.497423 1_545
Na4 O8 2.608771 1_555
Na4 O10 2.816204 1_555
Na5 O1 2.381014 1_564
Na5 O13 2.415473 1_555
Na5 O10 2.452601 1_555
Na5 O9 2.452601 1_555
Na5 O13 2.784544 1_565
Na5 O2 2.866362 1_554
Co0 O4 1.906191 1_555
Co0 O3 1.906191 1_455
Co0 O6 1.907244 1_545
Co0 O2 1.924404 1_555
Co0 O1 1.939035 1_555
Co0 O8 1.946172 1_555
Co1 O10 1.906191 1_655
Co1 O9 1.906191 1_555
Co1 O7 1.907244 1_565
Co1 O11 1.924404 1_555
Co1 O12 1.939035 1_555
Co1 O5 1.946172 1_555
B0 O13 1.334554 1_556
B0 O1 1.393653 1_555
B0 O2 1.398365 1_555
B1 O0 1.334554 1_554
B1 O12 1.393653 1_555
B1 O11 1.398365 1_555
O3 Si0 1.662496 1_555
O4 Si0 1.662496 1_555
O5 Si0 1.647949 1_555
O6 Si1 1.619009 1_555
O7 Si0 1.619009 1_555
O8 Si1 1.647949 1_555
O9 Si1 1.662496 1_555
O10 Si1 1.662496 1_555
