# generated using pymatgen
data_Na2FeO4
_symmetry_space_group_name_H-M   'P 1'
_cell_length_a   7.15767300
_cell_length_b   7.57162600
_cell_length_c   7.64514600
_cell_angle_alpha   90.00000000
_cell_angle_beta   90.00000000
_cell_angle_gamma   90.00000000
_symmetry_Int_Tables_number   1
_chemical_formula_structural   Na2FeO4
_chemical_formula_sum   'Na8 Fe4 O16'
_cell_volume   414.33039223
_cell_formula_units_Z   4
loop_
 _symmetry_equiv_pos_site_id
 _symmetry_equiv_pos_as_xyz
  1  'x, y, z'
loop_
 _atom_site_type_symbol
 _atom_site_label
 _atom_site_symmetry_multiplicity
 _atom_site_fract_x
 _atom_site_fract_y
 _atom_site_fract_z
 _atom_site_occupancy
  Na  Na0  1  0.74137800  0.50000000  0.00000000  1
  Na  Na1  1  0.25862200  0.50000000  0.00000000  1
  Na  Na2  1  0.00000000  0.73707400  0.26668100  1
  Na  Na3  1  0.50000000  0.23707400  0.23331900  1
  Na  Na4  1  0.75862200  0.00000000  0.50000000  1
  Na  Na5  1  0.24137800  0.00000000  0.50000000  1
  Na  Na6  1  0.50000000  0.76292600  0.76668100  1
  Na  Na7  1  0.00000000  0.26292600  0.73331900  1
  Fe  Fe0  1  0.00000000  0.22134500  0.14806100  1
  Fe  Fe1  1  0.50000000  0.72134500  0.35193900  1
  Fe  Fe2  1  0.50000000  0.27865500  0.64806100  1
  Fe  Fe3  1  0.00000000  0.77865500  0.85193900  1
  O  O0  1  0.81125700  0.20331900  0.02295800  1
  O  O1  1  0.18874300  0.20331900  0.02295800  1
  O  O2  1  0.50000000  0.56837100  0.19373900  1
  O  O3  1  0.00000000  0.43102900  0.21466800  1
  O  O4  1  0.50000000  0.93102900  0.28533200  1
  O  O5  1  0.00000000  0.06837100  0.30626100  1
  O  O6  1  0.68874300  0.70331900  0.47704200  1
  O  O7  1  0.31125700  0.70331900  0.47704200  1
  O  O8  1  0.68874300  0.29668100  0.52295800  1
  O  O9  1  0.31125700  0.29668100  0.52295800  1
  O  O10  1  0.00000000  0.93162900  0.69373900  1
  O  O11  1  0.50000000  0.06897100  0.71466800  1
  O  O12  1  0.00000000  0.56897100  0.78533200  1
  O  O13  1  0.50000000  0.43162900  0.80626100  1
  O  O14  1  0.81125700  0.79668100  0.97704200  1
  O  O15  1  0.18874300  0.79668100  0.97704200  1
loop_
_geom_bond_atom_site_label_1
_geom_bond_atom_site_label_2
_geom_bond_distance
_geom_bond_site_symmetry_2
Na0 O0 2.308051 1_555
Na0 O14 2.308051 1_554
Na0 O2 2.333838 1_555
Na0 O13 2.333838 1_554
Na0 O3 2.528406 1_655
Na0 O12 2.528406 1_654
Na1 O1 2.308051 1_555
Na1 O15 2.308051 1_554
Na1 O13 2.333838 1_554
Na1 O2 2.333838 1_555
Na1 O3 2.528406 1_555
Na1 O12 2.528406 1_554
Na2 O3 2.351129 1_555
Na2 O5 2.526642 1_565
Na2 O15 2.632879 1_554
Na2 O14 2.632879 1_454
Na2 O7 2.759563 1_555
Na2 O6 2.759563 1_455
Na3 O4 2.351129 1_545
Na3 O2 2.526642 1_555
Na3 O8 2.632879 1_555
Na3 O9 2.632879 1_555
Na3 O1 2.759563 1_555
Na3 O0 2.759563 1_555
Na4 O8 2.308051 1_555
Na4 O6 2.308051 1_545
Na4 O5 2.333838 1_655
Na4 O10 2.333838 1_645
Na4 O11 2.528406 1_555
Na4 O4 2.528406 1_545
Na5 O9 2.308051 1_555
Na5 O7 2.308051 1_545
Na5 O5 2.333838 1_555
Na5 O10 2.333838 1_545
Na5 O11 2.528406 1_555
Na5 O4 2.528406 1_545
Na6 O11 2.351129 1_565
Na6 O13 2.526642 1_555
Na6 O6 2.632879 1_555
Na6 O7 2.632879 1_555
Na6 O14 2.759563 1_555
Na6 O15 2.759563 1_555
Na7 O12 2.351129 1_555
Na7 O10 2.526642 1_545
Na7 O0 2.632879 1_456
Na7 O1 2.632879 1_556
Na7 O9 2.759563 1_555
Na7 O8 2.759563 1_455
Fe0 O0 1.660868 1_455
Fe0 O1 1.660868 1_555
Fe0 O3 1.667313 1_555
Fe0 O5 1.674625 1_555
Fe1 O6 1.660868 1_555
Fe1 O7 1.660868 1_555
Fe1 O4 1.667313 1_555
Fe1 O2 1.674625 1_555
Fe2 O9 1.660868 1_555
Fe2 O8 1.660868 1_555
Fe2 O11 1.667313 1_555
Fe2 O13 1.674625 1_555
Fe3 O14 1.660868 1_455
Fe3 O15 1.660868 1_555
Fe3 O12 1.667313 1_555
Fe3 O10 1.674625 1_555
