# generated using pymatgen
data_LiMn3Al2(HO2)6
_symmetry_space_group_name_H-M   'P 1'
_cell_length_a   5.94454200
_cell_length_b   7.86961120
_cell_length_c   10.12209970
_cell_angle_alpha   109.40159869
_cell_angle_beta   90.42803128
_cell_angle_gamma   100.73146907
_symmetry_Int_Tables_number   1
_chemical_formula_structural   LiMn3Al2(HO2)6
_chemical_formula_sum   'Li2 Mn6 Al4 H12 O24'
_cell_volume   437.59353818
_cell_formula_units_Z   2
loop_
 _symmetry_equiv_pos_site_id
 _symmetry_equiv_pos_as_xyz
  1  'x, y, z'
loop_
 _atom_site_type_symbol
 _atom_site_label
 _atom_site_symmetry_multiplicity
 _atom_site_fract_x
 _atom_site_fract_y
 _atom_site_fract_z
 _atom_site_occupancy
  Li  Li0  1  0.65793600  0.15623700  0.50104600  1
  Li  Li1  1  0.34206400  0.84376300  0.49895400  1
  Mn  Mn0  1  0.66236500  0.16854100  0.00381700  1
  Mn  Mn1  1  0.33763500  0.83145900  0.99618300  1
  Mn  Mn2  1  0.50000000  0.50000000  0.00000000  1
  Mn  Mn3  1  0.16347400  0.16924600  0.00249500  1
  Mn  Mn4  1  0.83652600  0.83075400  0.99750500  1
  Mn  Mn5  1  0.00000000  0.50000000  0.00000000  1
  Al  Al0  1  0.50000000  0.50000000  0.50000000  1
  Al  Al1  1  0.16826000  0.16189400  0.50203700  1
  Al  Al2  1  0.00000000  0.50000000  0.50000000  1
  Al  Al3  1  0.83174000  0.83810600  0.49796300  1
  H  H0  1  0.74609500  0.48879100  0.70337200  1
  H  H1  1  0.60862200  0.84273700  0.29043300  1
  H  H2  1  0.74509300  0.51025600  0.28749200  1
  H  H3  1  0.39137800  0.15726300  0.70956700  1
  H  H4  1  0.59279300  0.80537300  0.70320600  1
  H  H5  1  0.40720700  0.19462700  0.29679400  1
  H  H6  1  0.25490700  0.48974400  0.71250800  1
  H  H7  1  0.07761200  0.86040200  0.29130300  1
  H  H8  1  0.25390500  0.51120900  0.29662800  1
  H  H9  1  0.92238800  0.13959800  0.70869700  1
  H  H10  1  0.06117700  0.80595200  0.69837500  1
  H  H11  1  0.93882300  0.19404800  0.30162500  1
  O  O0  1  0.59624800  0.90538100  0.89660000  1
  O  O1  1  0.76155800  0.55114300  0.89653000  1
  O  O2  1  0.73890100  0.45156200  0.60042000  1
  O  O3  1  0.61438300  0.88154600  0.39229700  1
  O  O4  1  0.70500100  0.42680000  0.11191100  1
  O  O5  1  0.76537100  0.55676800  0.39278400  1
  O  O6  1  0.38561700  0.11845400  0.60770300  1
  O  O7  1  0.42772400  0.23290500  0.90163100  1
  O  O8  1  0.58406400  0.75709400  0.60013900  1
  O  O9  1  0.41593600  0.24290600  0.39986100  1
  O  O10  1  0.57227600  0.76709500  0.09836900  1
  O  O11  1  0.40375200  0.09461900  0.10340000  1
  O  O12  1  0.29499900  0.57320000  0.88808900  1
  O  O13  1  0.23462900  0.44323200  0.60721600  1
  O  O14  1  0.09872000  0.89194100  0.89623000  1
  O  O15  1  0.26109900  0.54843800  0.39958000  1
  O  O16  1  0.23844200  0.44885700  0.10347000  1
  O  O17  1  0.08230100  0.90786200  0.39421800  1
  O  O18  1  0.92016600  0.23100700  0.90005900  1
  O  O19  1  0.91769900  0.09213800  0.60578200  1
  O  O20  1  0.04494600  0.75610700  0.59552800  1
  O  O21  1  0.95505400  0.24389300  0.40447200  1
  O  O22  1  0.90128000  0.10805900  0.10377000  1
  O  O23  1  0.07983400  0.76899300  0.09994100  1
loop_
_geom_bond_atom_site_label_1
_geom_bond_atom_site_label_2
_geom_bond_distance
_geom_bond_site_symmetry_2
Li0 O6 1.983584 1_555
Li0 O3 2.039147 1_545
Li0 O19 2.093741 1_555
Li0 O9 2.095518 1_555
Li0 O21 2.138000 1_555
Li0 O2 2.160531 1_555
Li1 O3 1.983584 1_555
Li1 O6 2.039147 1_565
Li1 O17 2.093741 1_555
Li1 O8 2.095518 1_555
Li1 O20 2.138000 1_555
Li1 O15 2.160531 1_555
Mn0 O4 1.928381 1_555
Mn0 O18 1.944159 1_554
Mn0 O11 1.948727 1_555
Mn0 O22 1.953829 1_555
Mn0 O0 1.954088 1_544
Mn0 O7 1.965097 1_554
Mn1 O12 1.928381 1_555
Mn1 O23 1.944159 1_556
Mn1 O0 1.948727 1_555
Mn1 O14 1.953829 1_555
Mn1 O11 1.954088 1_566
Mn1 O10 1.965097 1_556
Mn2 O1 1.935913 1_554
Mn2 O16 1.935913 1_555
Mn2 O4 1.942791 1_555
Mn2 O12 1.942791 1_554
Mn2 O10 1.964933 1_555
Mn2 O7 1.964933 1_554
Mn3 O22 1.945340 1_455
Mn3 O7 1.957441 1_554
Mn3 O18 1.994360 1_454
Mn3 O11 2.029133 1_555
Mn3 O14 2.046699 1_544
Mn3 O16 2.054009 1_555
Mn4 O14 1.945340 1_655
Mn4 O10 1.957441 1_556
Mn4 O23 1.994360 1_656
Mn4 O0 2.029133 1_555
Mn4 O22 2.046699 1_566
Mn4 O1 2.054009 1_555
Mn5 O1 1.933474 1_454
Mn5 O16 1.933474 1_555
Mn5 O23 1.981336 1_555
Mn5 O18 1.981336 1_454
Mn5 O4 2.185693 1_455
Mn5 O12 2.185693 1_554
Al0 O8 1.903685 1_555
Al0 O9 1.903685 1_555
Al0 O2 1.905991 1_555
Al0 O15 1.905991 1_555
Al0 O5 1.987741 1_555
Al0 O13 1.987741 1_555
Al1 O6 1.821287 1_555
Al1 O17 1.900112 1_545
Al1 O21 1.925434 1_455
Al1 O19 1.929889 1_455
Al1 O9 1.937799 1_555
Al1 O13 2.072051 1_555
Al2 O20 1.889257 1_555
Al2 O21 1.889257 1_455
Al2 O15 1.910029 1_555
Al2 O2 1.910029 1_455
Al2 O13 1.963225 1_555
Al2 O5 1.963225 1_455
Al3 O3 1.821287 1_555
Al3 O19 1.900112 1_565
Al3 O20 1.925434 1_655
Al3 O17 1.929889 1_655
Al3 O8 1.937799 1_555
Al3 O5 2.072051 1_555
H0 O2 0.982571 1_555
H1 O3 0.971562 1_555
H2 O5 1.003424 1_555
H2 O4 1.675306 1_555
H3 O6 0.971562 1_555
H4 O8 0.981802 1_555
H5 O9 0.981802 1_555
H6 O13 1.003424 1_555
H6 O12 1.675306 1_555
H7 O17 0.981144 1_555
H8 O15 0.982571 1_555
H9 O19 0.981144 1_555
H10 O20 0.979806 1_555
H11 O21 0.979806 1_555
