# generated using pymatgen
data_TiSnO4
_symmetry_space_group_name_H-M   'P 1'
_cell_length_a   5.68486842
_cell_length_b   5.68486842
_cell_length_c   7.44589438
_cell_angle_alpha   71.94077660
_cell_angle_beta   71.94077660
_cell_angle_gamma   72.14343521
_symmetry_Int_Tables_number   1
_chemical_formula_structural   TiSnO4
_chemical_formula_sum   'Ti3 Sn3 O12'
_cell_volume   211.52711530
_cell_formula_units_Z   3
loop_
 _symmetry_equiv_pos_site_id
 _symmetry_equiv_pos_as_xyz
  1  'x, y, z'
loop_
 _atom_site_type_symbol
 _atom_site_label
 _atom_site_symmetry_multiplicity
 _atom_site_fract_x
 _atom_site_fract_y
 _atom_site_fract_z
 _atom_site_occupancy
  Ti  Ti0  1  0.67602800  0.67602800  0.31425700  1
  Ti  Ti1  1  0.65497000  0.65497000  0.81927700  1
  Ti  Ti2  1  0.99483000  0.99483000  0.00030000  1
  Sn  Sn0  1  0.33685900  0.33685900  0.16620900  1
  Sn  Sn1  1  0.33216800  0.33216800  0.67107200  1
  Sn  Sn2  1  0.99861000  0.99861000  0.50177600  1
  O  O0  1  0.63339000  0.01617000  0.67730300  1
  O  O1  1  0.96652200  0.37342900  0.33903300  1
  O  O2  1  0.09368400  0.09368400  0.71531300  1
  O  O3  1  0.44720600  0.44720600  0.36697400  1
  O  O4  1  0.77094800  0.77094800  0.04407000  1
  O  O5  1  0.89944500  0.89944500  0.28890600  1
  O  O6  1  0.57138800  0.57138800  0.62809200  1
  O  O7  1  0.22029300  0.22029300  0.97422700  1
  O  O8  1  0.37342900  0.96652200  0.33903300  1
  O  O9  1  0.70476900  0.30929200  0.98842900  1
  O  O10  1  0.01617000  0.63339000  0.67730300  1
  O  O11  1  0.30929200  0.70476900  0.98842900  1
loop_
_geom_bond_atom_site_label_1
_geom_bond_atom_site_label_2
_geom_bond_distance
_geom_bond_site_symmetry_2
O0 Ti1 1.982173 1_545
O0 Sn1 2.067033 1_555
O0 Sn2 2.073695 1_545
O1 Ti0 1.992577 1_555
O1 Sn2 2.083211 1_545
O1 Sn0 2.085489 1_655
O2 Ti2 1.961995 1_446
O2 Sn2 2.087345 1_445
O2 Sn1 2.087599 1_555
O3 Ti0 1.985685 1_555
O3 Sn1 2.099632 1_555
O3 Sn0 2.103763 1_555
O4 Ti0 1.860668 1_555
O4 Ti2 1.955766 1_555
O4 Ti1 2.303468 1_554
O5 Ti2 1.985289 1_555
O5 Ti0 1.988449 1_555
O5 Sn2 2.109676 1_555
O6 Ti1 1.858820 1_555
O6 Sn1 2.096614 1_555
O6 Ti0 2.159076 1_555
O7 Ti2 2.005564 1_446
O7 Sn0 2.089391 1_556
O7 Sn1 2.090960 1_555
O8 Ti0 1.992577 1_555
O8 Sn2 2.083211 1_455
O8 Sn0 2.085489 1_565
O9 Ti1 1.968135 1_555
O9 Ti2 2.026637 1_546
O9 Sn0 2.088623 1_556
O10 Ti1 1.982173 1_455
O10 Sn1 2.067033 1_555
O10 Sn2 2.073695 1_455
O11 Ti1 1.968135 1_555
O11 Ti2 2.026637 1_456
O11 Sn0 2.088623 1_556
