# generated using pymatgen
data_Mn(NO3)4
_symmetry_space_group_name_H-M   'P 1'
_cell_length_a   7.68324100
_cell_length_b   11.87558119
_cell_length_c   12.79824519
_cell_angle_alpha   99.92594811
_cell_angle_beta   94.31987911
_cell_angle_gamma   106.08097057
_symmetry_Int_Tables_number   1
_chemical_formula_structural   Mn(NO3)4
_chemical_formula_sum   'Mn4 N16 O48'
_cell_volume   1095.87776909
_cell_formula_units_Z   4
loop_
 _symmetry_equiv_pos_site_id
 _symmetry_equiv_pos_as_xyz
  1  'x, y, z'
loop_
 _atom_site_type_symbol
 _atom_site_label
 _atom_site_symmetry_multiplicity
 _atom_site_fract_x
 _atom_site_fract_y
 _atom_site_fract_z
 _atom_site_occupancy
  Mn  Mn0  1  0.09709900  0.79886900  0.73022500  1
  Mn  Mn1  1  0.45730700  0.67525100  0.24425900  1
  Mn  Mn2  1  0.54269300  0.32474900  0.75574100  1
  Mn  Mn3  1  0.90290100  0.20113100  0.26977500  1
  N  N0  1  0.11466900  0.66445300  0.86936700  1
  N  N1  1  0.20570400  0.59763500  0.36824700  1
  N  N2  1  0.42843600  0.87398400  0.69891300  1
  N  N3  1  0.04792600  0.01608200  0.78237800  1
  N  N4  1  0.42596900  0.81947400  0.11468900  1
  N  N5  1  0.23393100  0.29809300  0.36739800  1
  N  N6  1  0.30734400  0.17801400  0.60311100  1
  N  N7  1  0.39750000  0.47154600  0.11651100  1
  N  N8  1  0.60250000  0.52845400  0.88348900  1
  N  N9  1  0.69265600  0.82198600  0.39688900  1
  N  N10  1  0.76606900  0.70190700  0.63260200  1
  N  N11  1  0.57403100  0.18052600  0.88531100  1
  N  N12  1  0.95207400  0.98391800  0.21762200  1
  N  N13  1  0.57156400  0.12601600  0.30108700  1
  N  N14  1  0.79429600  0.40236500  0.63175300  1
  N  N15  1  0.88533100  0.33554700  0.13063300  1
  O  O0  1  0.06391500  0.97085500  0.86208400  1
  O  O1  1  0.06916400  0.94966800  0.69015900  1
  O  O2  1  0.06667100  0.75696700  0.89963800  1
  O  O3  1  0.13398700  0.64605300  0.76552100  1
  O  O4  1  0.14358900  0.59654100  0.92443100  1
  O  O5  1  0.12034500  0.55619500  0.43575700  1
  O  O6  1  0.16130100  0.65945600  0.30717600  1
  O  O7  1  0.29017800  0.80602200  0.62803500  1
  O  O8  1  0.01653400  0.11027000  0.77934000  1
  O  O9  1  0.38273400  0.89631200  0.79290800  1
  O  O10  1  0.07537600  0.29197700  0.40306700  1
  O  O11  1  0.29937100  0.79311000  0.17124500  1
  O  O12  1  0.43503300  0.88028500  0.04735600  1
  O  O13  1  0.26782200  0.51881800  0.12173600  1
  O  O14  1  0.36668300  0.57759100  0.35425300  1
  O  O15  1  0.21886700  0.25795400  0.26754900  1
  O  O16  1  0.18472400  0.11941600  0.53332300  1
  O  O17  1  0.58015600  0.91089400  0.67488900  1
  O  O18  1  0.29097100  0.27144700  0.66929300  1
  O  O19  1  0.53893200  0.84107900  0.37832400  1
  O  O20  1  0.44969100  0.46072400  0.82349600  1
  O  O21  1  0.37514600  0.33844200  0.42846300  1
  O  O22  1  0.56043500  0.77192900  0.13572500  1
  O  O23  1  0.38930500  0.37479500  0.06354700  1
  O  O24  1  0.61069500  0.62520500  0.93645300  1
  O  O25  1  0.43956500  0.22807100  0.86427500  1
  O  O26  1  0.62485400  0.66155800  0.57153700  1
  O  O27  1  0.55030900  0.53927600  0.17650400  1
  O  O28  1  0.46106800  0.15892100  0.62167600  1
  O  O29  1  0.70902900  0.72855300  0.33070700  1
  O  O30  1  0.41984400  0.08910600  0.32511100  1
  O  O31  1  0.81527600  0.88058400  0.46667700  1
  O  O32  1  0.78113300  0.74204600  0.73245100  1
  O  O33  1  0.63331700  0.42240900  0.64574700  1
  O  O34  1  0.73217800  0.48118200  0.87826400  1
  O  O35  1  0.56496700  0.11971500  0.95264400  1
  O  O36  1  0.70062900  0.20689000  0.82875500  1
  O  O37  1  0.92462400  0.70802300  0.59693300  1
  O  O38  1  0.61726600  0.10368800  0.20709200  1
  O  O39  1  0.98346600  0.88973000  0.22066000  1
  O  O40  1  0.70982200  0.19397800  0.37196500  1
  O  O41  1  0.83869900  0.34054400  0.69282400  1
  O  O42  1  0.87965500  0.44380500  0.56424300  1
  O  O43  1  0.85641100  0.40345900  0.07556900  1
  O  O44  1  0.86601300  0.35394700  0.23447900  1
  O  O45  1  0.93332900  0.24303300  0.10036200  1
  O  O46  1  0.93083600  0.05033200  0.30984100  1
  O  O47  1  0.93608500  0.02914500  0.13791600  1
loop_
_geom_bond_atom_site_label_1
_geom_bond_atom_site_label_2
_geom_bond_distance
_geom_bond_site_symmetry_2
Mn0 O1 2.007236 1_555
Mn0 O37 2.015696 1_455
Mn0 O3 2.031276 1_555
Mn0 O7 2.044299 1_555
Mn0 O9 2.192435 1_555
Mn0 O2 2.321031 1_555
Mn0 O32 2.336478 1_455
Mn0 O0 2.499890 1_555
Mn1 O14 2.018598 1_555
Mn1 O22 2.021648 1_555
Mn1 O27 2.029750 1_555
Mn1 O29 2.030582 1_555
Mn1 O13 2.276630 1_555
Mn1 O19 2.281279 1_555
Mn1 O11 2.350674 1_555
Mn1 O6 2.438765 1_555
Mn2 O33 2.018598 1_555
Mn2 O25 2.021648 1_555
Mn2 O20 2.029750 1_555
Mn2 O18 2.030582 1_555
Mn2 O34 2.276630 1_555
Mn2 O28 2.281279 1_555
Mn2 O36 2.350674 1_555
Mn2 O41 2.438765 1_555
Mn3 O46 2.007236 1_555
Mn3 O10 2.015696 1_655
Mn3 O44 2.031276 1_555
Mn3 O40 2.044299 1_555
Mn3 O38 2.192435 1_555
Mn3 O45 2.321031 1_555
Mn3 O15 2.336478 1_655
Mn3 O47 2.499890 1_555
N0 O4 1.211638 1_555
N0 O2 1.261895 1_555
N0 O3 1.335555 1_555
N1 O5 1.213247 1_555
N1 O6 1.250077 1_555
N1 O14 1.341747 1_555
N2 O17 1.209510 1_555
N2 O9 1.282964 1_555
N2 O7 1.315347 1_555
N3 O8 1.214022 1_555
N3 O0 1.245280 1_545
N3 O1 1.349462 1_545
N4 O12 1.210249 1_555
N4 O11 1.258383 1_555
N4 O22 1.338773 1_555
N5 O21 1.213558 1_555
N5 O15 1.269163 1_555
N5 O10 1.320572 1_555
N6 O16 1.210514 1_555
N6 O28 1.275741 1_555
N6 O18 1.316731 1_555
N7 O23 1.211847 1_555
N7 O13 1.272513 1_555
N7 O27 1.320244 1_555
N8 O24 1.211847 1_555
N8 O34 1.272513 1_555
N8 O20 1.320244 1_555
N9 O31 1.210514 1_555
N9 O19 1.275741 1_555
N9 O29 1.316731 1_555
N10 O26 1.213558 1_555
N10 O32 1.269163 1_555
N10 O37 1.320572 1_555
N11 O35 1.210249 1_555
N11 O36 1.258383 1_555
N11 O25 1.338773 1_555
N12 O39 1.214022 1_555
N12 O47 1.245280 1_565
N12 O46 1.349462 1_565
N13 O30 1.209510 1_555
N13 O38 1.282964 1_555
N13 O40 1.315347 1_555
N14 O42 1.213247 1_555
N14 O41 1.250077 1_555
N14 O33 1.341747 1_555
N15 O43 1.211638 1_555
N15 O45 1.261895 1_555
N15 O44 1.335555 1_555
