# generated using pymatgen
data_K2NaNb2Fe7Si8H4O31
_symmetry_space_group_name_H-M   'P 1'
_cell_length_a   5.50518400
_cell_length_b   11.84451156
_cell_length_c   12.10134437
_cell_angle_alpha   112.85074194
_cell_angle_beta   102.64859490
_cell_angle_gamma   94.79098464
_symmetry_Int_Tables_number   1
_chemical_formula_structural   K2NaNb2Fe7Si8H4O31
_chemical_formula_sum   'K2 Na1 Nb2 Fe7 Si8 H4 O31'
_cell_volume   696.93048648
_cell_formula_units_Z   1
loop_
 _symmetry_equiv_pos_site_id
 _symmetry_equiv_pos_as_xyz
  1  'x, y, z'
loop_
 _atom_site_type_symbol
 _atom_site_label
 _atom_site_symmetry_multiplicity
 _atom_site_fract_x
 _atom_site_fract_y
 _atom_site_fract_z
 _atom_site_occupancy
  K  K0  1  0.62739900  0.49110900  0.75773200  1
  K  K1  1  0.37260100  0.50889100  0.24226800  1
  Na  Na0  1  0.00000000  0.50000000  0.50000000  1
  Nb  Nb0  1  0.56996400  0.68361000  0.58275700  1
  Nb  Nb1  1  0.43003600  0.31639000  0.41724300  1
  Fe  Fe0  1  0.50000000  0.00000000  0.00000000  1
  Fe  Fe1  1  0.91663400  0.98126200  0.84836300  1
  Fe  Fe2  1  0.08336600  0.01873800  0.15163700  1
  Fe  Fe3  1  0.35682200  0.97737900  0.70475000  1
  Fe  Fe4  1  0.64317800  0.02262100  0.29525000  1
  Fe  Fe5  1  0.77485200  0.98459800  0.56824300  1
  Fe  Fe6  1  0.22514800  0.01540200  0.43175700  1
  Si  Si0  1  0.67981700  0.24105000  0.94746800  1
  Si  Si1  1  0.32018300  0.75895000  0.05253200  1
  Si  Si2  1  0.12061200  0.23645200  0.82176400  1
  Si  Si3  1  0.87938800  0.76354800  0.17823600  1
  Si  Si4  1  0.99200000  0.25689300  0.56677200  1
  Si  Si5  1  0.00800000  0.74310700  0.43322800  1
  Si  Si6  1  0.82397700  0.26591900  0.22015800  1
  Si  Si7  1  0.17602300  0.73408100  0.77984200  1
  H  H0  1  0.24065800  0.18576800  0.07800200  1
  H  H1  1  0.75934200  0.81423200  0.92199800  1
  H  H2  1  0.53907800  0.17849900  0.65299500  1
  H  H3  1  0.46092200  0.82150100  0.34700500  1
  O  O0  1  0.35503200  0.12253000  0.33554000  1
  O  O1  1  0.64496800  0.87747000  0.66446000  1
  O  O2  1  0.77025400  0.11512700  0.17833300  1
  O  O3  1  0.22974600  0.88487300  0.82166700  1
  O  O4  1  0.19612000  0.09541300  0.03534400  1
  O  O5  1  0.80388000  0.90458700  0.96465600  1
  O  O6  1  0.62181800  0.09010400  0.88883800  1
  O  O7  1  0.37818200  0.90989600  0.11116200  1
  O  O8  1  0.06611500  0.08443200  0.75714200  1
  O  O9  1  0.93388500  0.91556800  0.24285800  1
  O  O10  1  0.48623000  0.08845600  0.61341300  1
  O  O11  1  0.51377000  0.91154400  0.38658700  1
  O  O12  1  0.92438200  0.10608500  0.48302000  1
  O  O13  1  0.07561800  0.89391500  0.51698000  1
  O  O14  1  0.63725200  0.33282000  0.30342600  1
  O  O15  1  0.36274800  0.66718000  0.69657400  1
  O  O16  1  0.11637800  0.33060900  0.29637100  1
  O  O17  1  0.88362200  0.66939100  0.70362900  1
  O  O18  1  0.76309600  0.30434400  0.09965800  1
  O  O19  1  0.23690400  0.69565600  0.90034200  1
  O  O20  1  0.91892600  0.29208100  0.90481300  1
  O  O21  1  0.08107400  0.70791900  0.09518700  1
  O  O22  1  0.42013800  0.29451300  0.90665000  1
  O  O23  1  0.57986200  0.70548700  0.09335000  1
  O  O24  1  0.08105000  0.29475300  0.71876300  1
  O  O25  1  0.91895000  0.70524700  0.28123700  1
  O  O26  1  0.23113000  0.32334600  0.54042000  1
  O  O27  1  0.76887000  0.67665400  0.45958000  1
  O  O28  1  0.75425400  0.32527900  0.54604800  1
  O  O29  1  0.24574600  0.67472100  0.45395200  1
  O  O30  1  0.50000000  0.50000000  0.50000000  1
loop_
_geom_bond_atom_site_label_1
_geom_bond_atom_site_label_2
_geom_bond_distance
_geom_bond_site_symmetry_2
K0 O17 2.803232 1_555
K0 O28 2.830648 1_555
K0 O15 2.872928 1_555
K0 O26 2.885860 1_555
K0 O30 3.088689 1_555
K1 O16 2.803232 1_555
K1 O29 2.830648 1_555
K1 O14 2.872928 1_555
K1 O27 2.885860 1_555
K1 O30 3.088689 1_555
Na0 O15 2.677382 1_555
Na0 O14 2.677382 1_455
Na0 O28 2.679868 1_455
Na0 O29 2.679868 1_555
Na0 O27 2.683913 1_455
Na0 O26 2.683913 1_555
Na0 O16 2.752166 1_555
Na0 O17 2.752166 1_455
Na0 O30 2.752592 1_455
Na0 O30 2.752592 1_555
Nb0 O30 1.969905 1_555
Nb0 O27 2.015506 1_555
Nb0 O15 2.023725 1_555
Nb0 O29 2.061362 1_555
Nb0 O17 2.069620 1_555
Nb0 O1 2.078481 1_555
Nb1 O30 1.969905 1_555
Nb1 O26 2.015506 1_555
Nb1 O14 2.023725 1_555
Nb1 O28 2.061362 1_555
Nb1 O16 2.069620 1_555
Nb1 O0 2.078481 1_555
Fe0 O4 2.124267 1_555
Fe0 O5 2.124267 1_544
Fe0 O2 2.167876 1_555
Fe0 O3 2.167876 1_544
Fe0 O6 2.188352 1_554
Fe0 O7 2.188352 1_545
Fe1 O5 2.114623 1_555
Fe1 O3 2.159914 1_655
Fe1 O8 2.160234 1_665
Fe1 O6 2.177915 1_565
Fe1 O1 2.193437 1_555
Fe1 O4 2.251017 1_666
Fe2 O4 2.114623 1_555
Fe2 O2 2.159914 1_455
Fe2 O9 2.160234 1_445
Fe2 O7 2.177915 1_545
Fe2 O0 2.193437 1_555
Fe2 O5 2.251017 1_444
Fe3 O1 2.087725 1_555
Fe3 O8 2.174857 1_565
Fe3 O10 2.185833 1_565
Fe3 O6 2.194290 1_565
Fe3 O13 2.235228 1_555
Fe3 O3 2.280613 1_555
Fe4 O0 2.087725 1_555
Fe4 O9 2.174857 1_545
Fe4 O11 2.185833 1_545
Fe4 O7 2.194290 1_545
Fe4 O12 2.235228 1_555
Fe4 O2 2.280613 1_555
Fe5 O13 2.123560 1_655
Fe5 O10 2.126343 1_565
Fe5 O11 2.139676 1_555
Fe5 O1 2.199447 1_555
Fe5 O12 2.266792 1_565
Fe5 O8 2.274531 1_665
Fe6 O12 2.123560 1_455
Fe6 O11 2.126343 1_545
Fe6 O10 2.139676 1_555
Fe6 O0 2.199447 1_555
Fe6 O13 2.266792 1_545
Fe6 O9 2.274531 1_445
H0 O4 0.971396 1_555
H1 O5 0.971396 1_555
H2 O10 0.970521 1_555
H3 O11 0.970521 1_555
O2 Si6 1.636385 1_555
O3 Si7 1.636385 1_555
O6 Si0 1.619287 1_555
O7 Si1 1.619287 1_555
O8 Si2 1.630068 1_555
O9 Si3 1.630068 1_555
O12 Si4 1.635267 1_555
O13 Si5 1.635267 1_555
O14 Si6 1.633868 1_555
O15 Si7 1.633868 1_555
O16 Si6 1.619830 1_455
O17 Si7 1.619830 1_655
O18 Si0 1.632348 1_554
O18 Si6 1.665156 1_555
O19 Si1 1.632348 1_556
O19 Si7 1.665156 1_555
O20 Si0 1.664788 1_555
O20 Si2 1.665407 1_655
O21 Si1 1.664788 1_555
O21 Si3 1.665407 1_455
O22 Si2 1.663513 1_555
O22 Si0 1.665410 1_555
O23 Si3 1.663513 1_555
O23 Si1 1.665410 1_555
O24 Si2 1.628700 1_555
O24 Si4 1.658984 1_455
O25 Si3 1.628700 1_555
O25 Si5 1.658984 1_655
O26 Si4 1.630947 1_455
O27 Si5 1.630947 1_655
O28 Si4 1.619615 1_555
O29 Si5 1.619615 1_555
