# generated using pymatgen
data_LiMnPO4
_symmetry_space_group_name_H-M   'P 1'
_cell_length_a   9.82746942
_cell_length_b   9.82746942
_cell_length_c   23.34180600
_cell_angle_alpha   90.00000000
_cell_angle_beta   90.00000000
_cell_angle_gamma   119.99999607
_symmetry_Int_Tables_number   1
_chemical_formula_structural   LiMnPO4
_chemical_formula_sum   'Li24 Mn24 P24 O96'
_cell_volume   1952.30877335
_cell_formula_units_Z   24
loop_
 _symmetry_equiv_pos_site_id
 _symmetry_equiv_pos_as_xyz
  1  'x, y, z'
loop_
 _atom_site_type_symbol
 _atom_site_label
 _atom_site_symmetry_multiplicity
 _atom_site_fract_x
 _atom_site_fract_y
 _atom_site_fract_z
 _atom_site_occupancy
  Li  Li0  1  0.10138500  0.81340100  0.27228200  1
  Li  Li1  1  0.09529200  0.76472900  0.92147900  1
  Li  Li2  1  0.12581100  0.76060900  0.59541000  1
  Li  Li3  1  0.31361200  0.66429500  0.75538600  1
  Li  Li4  1  0.33570500  0.64931700  0.08871900  1
  Li  Li5  1  0.35068300  0.68638800  0.42205200  1
  Li  Li6  1  0.18659900  0.28798400  0.60561600  1
  Li  Li7  1  0.23939100  0.36520200  0.92874400  1
  Li  Li8  1  0.23527100  0.33056300  0.25481200  1
  Li  Li9  1  0.63479800  0.87418900  0.26207700  1
  Li  Li10  1  0.66943700  0.90470800  0.58814500  1
  Li  Li11  1  0.28798400  0.10138500  0.43894900  1
  Li  Li12  1  0.71201600  0.89861500  0.93894900  1
  Li  Li13  1  0.33056300  0.09529200  0.08814500  1
  Li  Li14  1  0.36520200  0.12581100  0.76207700  1
  Li  Li15  1  0.76472900  0.66943700  0.75481200  1
  Li  Li16  1  0.76060900  0.63479800  0.42874400  1
  Li  Li17  1  0.81340100  0.71201600  0.10561600  1
  Li  Li18  1  0.64931700  0.31361200  0.92205200  1
  Li  Li19  1  0.66429500  0.35068300  0.58871900  1
  Li  Li20  1  0.68638800  0.33570500  0.25538600  1
  Li  Li21  1  0.87418900  0.23939100  0.09541000  1
  Li  Li22  1  0.90470800  0.23527100  0.42147900  1
  Li  Li23  1  0.89861500  0.18659900  0.77228200  1
  Mn  Mn0  1  0.99439100  0.01683200  0.70746600  1
  Mn  Mn1  1  0.02196300  0.55901400  0.04272800  1
  Mn  Mn2  1  0.04403500  0.46689200  0.19579600  1
  Mn  Mn3  1  0.06203500  0.50175400  0.85111500  1
  Mn  Mn4  1  0.42285600  0.95596500  0.86246300  1
  Mn  Mn5  1  0.43971900  0.93796500  0.51778200  1
  Mn  Mn6  1  0.98316800  0.97755900  0.04079900  1
  Mn  Mn7  1  0.97755900  0.99439100  0.87413200  1
  Mn  Mn8  1  0.53705200  0.97803700  0.70939500  1
  Mn  Mn9  1  0.44098600  0.46294800  0.37606100  1
  Mn  Mn10  1  0.49824600  0.56028100  0.18444800  1
  Mn  Mn11  1  0.53310800  0.57714400  0.52913000  1
  Mn  Mn12  1  0.46689200  0.42285600  0.02913000  1
  Mn  Mn13  1  0.50175400  0.43971900  0.68444800  1
  Mn  Mn14  1  0.55901400  0.53705200  0.87606100  1
  Mn  Mn15  1  0.46294800  0.02196300  0.20939500  1
  Mn  Mn16  1  0.02244100  0.00560900  0.37413200  1
  Mn  Mn17  1  0.01683200  0.02244100  0.54079900  1
  Mn  Mn18  1  0.56028100  0.06203500  0.01778200  1
  Mn  Mn19  1  0.57714400  0.04403500  0.36246300  1
  Mn  Mn20  1  0.93796500  0.49824600  0.35111500  1
  Mn  Mn21  1  0.95596500  0.53310800  0.69579600  1
  Mn  Mn22  1  0.97803700  0.44098600  0.54272800  1
  Mn  Mn23  1  0.00560900  0.98316800  0.20746600  1
  P  P0  1  0.09258300  0.79462300  0.79231600  1
  P  P1  1  0.08241800  0.75877500  0.46705900  1
  P  P2  1  0.13661100  0.79330600  0.13651100  1
  P  P3  1  0.29428600  0.65623800  0.29162800  1
  P  P4  1  0.36195200  0.70571400  0.95829500  1
  P  P5  1  0.34376200  0.63804800  0.62496200  1
  P  P6  1  0.20669400  0.34330500  0.46984400  1
  P  P7  1  0.20537700  0.29796000  0.12564900  1
  P  P8  1  0.24122500  0.32364300  0.80039200  1
  P  P9  1  0.65669500  0.86338900  0.80317800  1
  P  P10  1  0.67635700  0.91758200  0.13372500  1
  P  P11  1  0.70204000  0.90741700  0.45898200  1
  P  P12  1  0.29796000  0.09258300  0.95898200  1
  P  P13  1  0.32364300  0.08241800  0.63372500  1
  P  P14  1  0.34330500  0.13661100  0.30317800  1
  P  P15  1  0.75877500  0.67635700  0.30039200  1
  P  P16  1  0.79462300  0.70204000  0.62564900  1
  P  P17  1  0.79330600  0.65669500  0.96984400  1
  P  P18  1  0.65623800  0.36195200  0.12496200  1
  P  P19  1  0.63804800  0.29428600  0.45829500  1
  P  P20  1  0.70571400  0.34376200  0.79162800  1
  P  P21  1  0.86338900  0.20669400  0.63651100  1
  P  P22  1  0.91758200  0.24122500  0.96705900  1
  P  P23  1  0.90741700  0.20537700  0.29231600  1
  O  O0  1  0.04422800  0.79272500  0.08230900  1
  O  O1  1  0.08577300  0.92161900  0.46920500  1
  O  O2  1  0.01304200  0.69173800  0.84578100  1
  O  O3  1  0.13493400  0.97868300  0.93158300  1
  O  O4  1  0.03905500  0.78760400  0.18980700  1
  O  O5  1  0.01654800  0.67139000  0.52412300  1
  O  O6  1  0.24406000  0.94563000  0.81019500  1
  O  O7  1  0.13109100  0.64636500  0.29671300  1
  O  O8  1  0.12707400  0.69183800  0.75068600  1
  O  O9  1  0.31079300  0.97276400  0.58332500  1
  O  O10  1  0.30614500  0.93352800  0.13879600  1
  O  O11  1  0.14793100  0.63946600  0.13267000  1
  O  O12  1  0.25273600  0.79081600  0.45868200  1
  O  O13  1  0.17094800  0.59209800  0.61188100  1
  O  O14  1  0.06647200  0.37261800  0.47213000  1
  O  O15  1  0.26742900  0.72068400  0.90629400  1
  O  O16  1  0.02723600  0.33802800  0.91665800  1
  O  O17  1  0.05437000  0.29843100  0.14352800  1
  O  O18  1  0.02131700  0.15625100  0.26491600  1
  O  O19  1  0.07838100  0.16415400  0.80253900  1
  O  O20  1  0.26440400  0.66777300  0.01372100  1
  O  O21  1  0.27931600  0.54674500  0.23962700  1
  O  O22  1  0.33222700  0.59663100  0.34705400  1
  O  O23  1  0.20918400  0.46192000  0.79201500  1
  O  O24  1  0.40336900  0.73559600  0.68038700  1
  O  O25  1  0.42115000  0.82905200  0.27854800  1
  O  O26  1  0.49153400  0.85206900  0.79933700  1
  O  O27  1  0.30816200  0.43523600  0.08401900  1
  O  O28  1  0.35363500  0.48472600  0.63004600  1
  O  O29  1  0.36053400  0.50846600  0.46600300  1
  O  O30  1  0.21239600  0.25145100  0.52314100  1
  O  O31  1  0.40790200  0.57885000  0.94521500  1
  O  O32  1  0.45325500  0.73257100  0.57296000  1
  O  O33  1  0.51527400  0.86890900  0.96337900  1
  O  O34  1  0.56476400  0.87292600  0.41735300  1
  O  O35  1  0.15625100  0.13493400  0.09825000  1
  O  O36  1  0.20727500  0.25150300  0.41564300  1
  O  O37  1  0.30826200  0.32130400  0.17911500  1
  O  O38  1  0.16415400  0.08577300  0.63587200  1
  O  O39  1  0.32861000  0.34515800  0.85745600  1
  O  O40  1  0.53808000  0.74726400  0.12534800  1
  O  O41  1  0.29843100  0.24406000  0.97686100  1
  O  O42  1  0.65484200  0.98345200  0.19079000  1
  O  O43  1  0.33802800  0.31079300  0.74999100  1
  O  O44  1  0.37261800  0.30614500  0.30546300  1
  O  O45  1  0.67869600  0.98695800  0.51244800  1
  O  O46  1  0.74854900  0.96094500  0.85647400  1
  O  O47  1  0.25150300  0.04422800  0.24897600  1
  O  O48  1  0.74849700  0.95577200  0.74897600  1
  O  O49  1  0.25145100  0.03905500  0.35647400  1
  O  O50  1  0.32130400  0.01304200  0.01244800  1
  O  O51  1  0.62738200  0.69385500  0.80546300  1
  O  O52  1  0.66197200  0.68920700  0.24999100  1
  O  O53  1  0.34515800  0.01654800  0.69079000  1
  O  O54  1  0.70156900  0.75594000  0.47686100  1
  O  O55  1  0.46192000  0.25273600  0.62534800  1
  O  O56  1  0.67139000  0.65484200  0.35745600  1
  O  O57  1  0.83584600  0.91422700  0.13587200  1
  O  O58  1  0.69173800  0.67869600  0.67911500  1
  O  O59  1  0.79272500  0.74849700  0.91564300  1
  O  O60  1  0.84374900  0.86506600  0.59825000  1
  O  O61  1  0.43523600  0.12707400  0.91735300  1
  O  O62  1  0.48472600  0.13109100  0.46337900  1
  O  O63  1  0.54674500  0.26742900  0.07296000  1
  O  O64  1  0.59209800  0.42115000  0.44521500  1
  O  O65  1  0.78760400  0.74854900  0.02314100  1
  O  O66  1  0.63946600  0.49153400  0.96600300  1
  O  O67  1  0.64636500  0.51527400  0.13004600  1
  O  O68  1  0.69183800  0.56476400  0.58401900  1
  O  O69  1  0.50846600  0.14793100  0.29933700  1
  O  O70  1  0.57885000  0.17094800  0.77854800  1
  O  O71  1  0.59663100  0.26440400  0.18038700  1
  O  O72  1  0.79081600  0.53808000  0.29201500  1
  O  O73  1  0.66777300  0.40336900  0.84705400  1
  O  O74  1  0.72068400  0.45325500  0.73962700  1
  O  O75  1  0.73559600  0.33222700  0.51372100  1
  O  O76  1  0.92161900  0.83584600  0.30253900  1
  O  O77  1  0.97868300  0.84374900  0.76491600  1
  O  O78  1  0.94563000  0.70156900  0.64352800  1
  O  O79  1  0.97276400  0.66197200  0.41665800  1
  O  O80  1  0.73257100  0.27931600  0.40629400  1
  O  O81  1  0.93352800  0.62738200  0.97213000  1
  O  O82  1  0.82905200  0.40790200  0.11188100  1
  O  O83  1  0.74726400  0.20918400  0.95868200  1
  O  O84  1  0.85206900  0.36053400  0.63267000  1
  O  O85  1  0.69385500  0.06647200  0.63879600  1
  O  O86  1  0.68920700  0.02723600  0.08332500  1
  O  O87  1  0.87292600  0.30816200  0.25068600  1
  O  O88  1  0.86890900  0.35363500  0.79671300  1
  O  O89  1  0.75594000  0.05437000  0.31019500  1
  O  O90  1  0.98345200  0.32861000  0.02412300  1
  O  O91  1  0.96094500  0.21239600  0.68980700  1
  O  O92  1  0.86506600  0.02131700  0.43158300  1
  O  O93  1  0.98695800  0.30826200  0.34578100  1
  O  O94  1  0.91422700  0.07838100  0.96920500  1
  O  O95  1  0.95577200  0.20727500  0.58230900  1
loop_
_geom_bond_atom_site_label_1
_geom_bond_atom_site_label_2
_geom_bond_distance
_geom_bond_site_symmetry_2
Li0 O7 1.893227 1_555
Li0 O4 1.997564 1_555
Li0 O76 2.014489 1_455
Li0 O47 2.066796 1_565
Li1 O81 1.897671 1_455
Li1 O2 1.926169 1_555
Li1 O3 1.951741 1_555
Li1 O15 1.976609 1_555
Li2 O78 1.925150 1_455
Li2 O5 1.936253 1_555
Li2 O13 1.954897 1_555
Li2 O9 1.985225 1_555
Li3 O23 1.923178 1_555
Li3 O24 1.927595 1_555
Li3 O8 1.985477 1_555
Li3 O26 2.070860 1_555
Li4 O40 1.923178 1_555
Li4 O20 1.927574 1_555
Li4 O27 1.985477 1_555
Li4 O11 2.070864 1_555
Li5 O12 1.923188 1_555
Li5 O22 1.927574 1_555
Li5 O34 1.985475 1_555
Li5 O29 2.070855 1_555
Li6 O28 1.893220 1_555
Li6 O30 1.997564 1_555
Li6 O38 2.014480 1_555
Li6 O95 2.066802 1_455
Li7 O41 1.925144 1_555
Li7 O39 1.936273 1_555
Li7 O31 1.954897 1_555
Li7 O16 1.985225 1_555
Li8 O44 1.897676 1_555
Li8 O37 1.926148 1_555
Li8 O18 1.951741 1_555
Li8 O21 1.976609 1_555
Li9 O89 1.925151 1_565
Li9 O42 1.936253 1_555
Li9 O25 1.954897 1_555
Li9 O52 1.985234 1_555
Li10 O85 1.897668 1_565
Li10 O45 1.926148 1_555
Li10 O60 1.951743 1_555
Li10 O32 1.976609 1_555
Li11 O62 1.893220 1_555
Li11 O49 1.997564 1_555
Li11 O1 2.014480 1_545
Li11 O36 2.066795 1_555
Li12 O33 1.893220 1_555
Li12 O46 1.997564 1_555
Li12 O94 2.014480 1_565
Li12 O59 2.066795 1_555
Li13 O10 1.897668 1_545
Li13 O50 1.926148 1_555
Li13 O35 1.951743 1_555
Li13 O63 1.976609 1_555
Li14 O6 1.925151 1_545
Li14 O53 1.936253 1_555
Li14 O70 1.954897 1_555
Li14 O43 1.985234 1_555
Li15 O51 1.897676 1_555
Li15 O58 1.926148 1_555
Li15 O77 1.951741 1_555
Li15 O74 1.976609 1_555
Li16 O54 1.925144 1_555
Li16 O56 1.936273 1_555
Li16 O64 1.954897 1_555
Li16 O79 1.985225 1_555
Li17 O67 1.893220 1_555
Li17 O65 1.997564 1_555
Li17 O57 2.014480 1_555
Li17 O0 2.066802 1_655
Li18 O83 1.923188 1_555
Li18 O73 1.927574 1_555
Li18 O61 1.985475 1_555
Li18 O66 2.070855 1_555
Li19 O55 1.923178 1_555
Li19 O75 1.927574 1_555
Li19 O68 1.985477 1_555
Li19 O84 2.070864 1_555
Li20 O72 1.923178 1_555
Li20 O71 1.927595 1_555
Li20 O87 1.985477 1_555
Li20 O69 2.070860 1_555
Li21 O17 1.925150 1_655
Li21 O90 1.936253 1_555
Li21 O82 1.954897 1_555
Li21 O86 1.985225 1_555
Li22 O14 1.897671 1_655
Li22 O93 1.926169 1_555
Li22 O92 1.951741 1_555
Li22 O80 1.976609 1_555
Li23 O88 1.893227 1_555
Li23 O91 1.997564 1_555
Li23 O19 2.014489 1_655
Li23 O48 2.066796 1_545
Mn0 O77 2.110163 1_545
Mn0 O91 2.145541 1_555
Mn0 O38 2.214667 1_655
Mn0 O48 2.385029 1_545
Mn0 O19 2.550910 1_655
Mn1 O81 2.122782 1_454
Mn1 O90 2.145198 1_455
Mn1 O20 2.175075 1_555
Mn1 O11 2.363550 1_555
Mn1 O82 2.364241 1_455
Mn1 O0 2.382043 1_555
Mn2 O87 2.068685 1_455
Mn2 O11 2.087654 1_555
Mn2 O17 2.099468 1_555
Mn2 O21 2.279120 1_555
Mn2 O82 2.722417 1_455
Mn3 O16 2.120421 1_555
Mn3 O88 2.137952 1_455
Mn3 O2 2.152252 1_555
Mn3 O23 2.171079 1_555
Mn3 O15 2.453456 1_555
Mn4 O61 2.068681 1_565
Mn4 O26 2.087654 1_555
Mn4 O6 2.099468 1_555
Mn4 O15 2.279118 1_555
Mn4 O70 2.722419 1_565
Mn5 O9 2.120414 1_555
Mn5 O62 2.137966 1_565
Mn5 O45 2.152252 1_555
Mn5 O12 2.171079 1_555
Mn5 O32 2.453444 1_555
Mn6 O35 2.110178 1_665
Mn6 O65 2.145536 1_555
Mn6 O94 2.214666 1_564
Mn6 O0 2.385029 1_655
Mn6 O57 2.550910 1_555
Mn7 O3 2.110178 1_655
Mn7 O46 2.145536 1_555
Mn7 O19 2.214649 1_665
Mn7 O59 2.385038 1_555
Mn7 O94 2.550910 1_565
Mn8 O85 2.122800 1_565
Mn8 O53 2.145208 1_565
Mn8 O24 2.175083 1_555
Mn8 O26 2.363549 1_555
Mn8 O70 2.364243 1_565
Mn8 O48 2.382034 1_555
Mn9 O44 2.122782 1_555
Mn9 O56 2.145202 1_555
Mn9 O22 2.175083 1_555
Mn9 O29 2.363557 1_555
Mn9 O64 2.364252 1_555
Mn9 O36 2.382049 1_555
Mn10 O52 2.120419 1_555
Mn10 O67 2.137952 1_555
Mn10 O37 2.152251 1_555
Mn10 O40 2.171079 1_555
Mn10 O21 2.453456 1_555
Mn11 O68 2.068675 1_555
Mn11 O29 2.087671 1_555
Mn11 O54 2.099482 1_555
Mn11 O32 2.279101 1_555
Mn11 O64 2.722424 1_555
Mn12 O27 2.068675 1_555
Mn12 O66 2.087671 1_554
Mn12 O41 2.099482 1_554
Mn12 O63 2.279101 1_555
Mn12 O31 2.722424 1_554
Mn13 O43 2.120419 1_555
Mn13 O28 2.137952 1_555
Mn13 O58 2.152251 1_555
Mn13 O55 2.171079 1_555
Mn13 O74 2.453456 1_555
Mn14 O51 2.122782 1_555
Mn14 O39 2.145202 1_555
Mn14 O73 2.175083 1_555
Mn14 O66 2.363557 1_555
Mn14 O31 2.364252 1_555
Mn14 O59 2.382049 1_555
Mn15 O10 2.122800 1_545
Mn15 O42 2.145208 1_545
Mn15 O71 2.175083 1_555
Mn15 O69 2.363549 1_555
Mn15 O25 2.364243 1_545
Mn15 O47 2.382034 1_555
Mn16 O92 2.110178 1_455
Mn16 O49 2.145536 1_555
Mn16 O76 2.214649 1_445
Mn16 O36 2.385038 1_555
Mn16 O1 2.550910 1_545
Mn17 O60 2.110178 1_445
Mn17 O30 2.145536 1_555
Mn17 O1 2.214666 1_545
Mn17 O95 2.385029 1_455
Mn17 O38 2.550910 1_555
Mn18 O86 2.120414 1_555
Mn18 O33 2.137966 1_544
Mn18 O50 2.152252 1_555
Mn18 O83 2.171079 1_554
Mn18 O63 2.453444 1_555
Mn19 O34 2.068681 1_545
Mn19 O69 2.087654 1_555
Mn19 O89 2.099468 1_555
Mn19 O80 2.279118 1_555
Mn19 O25 2.722419 1_545
Mn20 O79 2.120421 1_555
Mn20 O7 2.137952 1_655
Mn20 O93 2.152252 1_555
Mn20 O72 2.171079 1_555
Mn20 O80 2.453456 1_555
Mn21 O8 2.068685 1_655
Mn21 O84 2.087654 1_555
Mn21 O78 2.099468 1_555
Mn21 O74 2.279120 1_555
Mn21 O13 2.722417 1_655
Mn22 O14 2.122782 1_655
Mn22 O5 2.145198 1_655
Mn22 O75 2.175075 1_555
Mn22 O84 2.363550 1_555
Mn22 O13 2.364241 1_655
Mn22 O95 2.382043 1_555
Mn23 O18 2.110163 1_565
Mn23 O4 2.145541 1_555
Mn23 O57 2.214667 1_455
Mn23 O47 2.385029 1_565
Mn23 O76 2.550910 1_455
O0 P2 1.555563 1_555
O1 P1 1.584908 1_555
O2 P0 1.549329 1_555
O3 P12 1.560590 1_565
O4 P2 1.554405 1_555
O5 P1 1.541033 1_555
O6 P0 1.543808 1_555
O7 P3 1.562065 1_555
O8 P0 1.556231 1_555
O9 P13 1.557277 1_565
O10 P2 1.543290 1_555
O11 P2 1.572996 1_555
O12 P1 1.553038 1_555
O13 P5 1.553878 1_555
O14 P6 1.543297 1_555
O15 P4 1.579400 1_555
O16 P22 1.557292 1_455
O17 P7 1.543813 1_555
O18 P23 1.560599 1_455
O19 P8 1.584909 1_555
O20 P4 1.540897 1_554
O21 P3 1.579400 1_555
O22 P3 1.540897 1_555
O23 P8 1.553038 1_555
O24 P5 1.540877 1_555
O25 P3 1.553873 1_555
O26 P9 1.573006 1_555
O27 P7 1.556231 1_555
O28 P5 1.562063 1_555
O29 P6 1.573002 1_555
O30 P6 1.554424 1_555
O31 P4 1.553873 1_555
O32 P5 1.579418 1_555
O33 P4 1.562063 1_555
O34 P11 1.556217 1_555
O35 P7 1.560590 1_555
O36 P6 1.555544 1_555
O37 P7 1.549348 1_555
O38 P13 1.584909 1_555
O39 P8 1.541033 1_555
O40 P10 1.553038 1_555
O41 P12 1.543804 1_555
O42 P10 1.541053 1_555
O43 P8 1.557288 1_555
O44 P14 1.543286 1_555
O45 P11 1.549348 1_555
O46 P9 1.554405 1_555
O47 P14 1.555563 1_555
O48 P9 1.555563 1_555
O49 P14 1.554405 1_555
O50 P12 1.549348 1_554
O51 P9 1.543286 1_555
O52 P15 1.557288 1_555
O53 P13 1.541053 1_555
O54 P11 1.543804 1_555
O55 P13 1.553038 1_555
O56 P15 1.541033 1_555
O57 P10 1.584909 1_555
O58 P16 1.549348 1_555
O59 P17 1.555544 1_555
O60 P16 1.560590 1_555
O61 P12 1.556217 1_555
O62 P19 1.562063 1_555
O63 P18 1.579418 1_555
O64 P19 1.553873 1_555
O65 P17 1.554424 1_554
O66 P17 1.573002 1_555
O67 P18 1.562063 1_555
O68 P16 1.556231 1_555
O69 P14 1.573006 1_555
O70 P20 1.553873 1_555
O71 P18 1.540877 1_555
O72 P15 1.553038 1_555
O73 P20 1.540897 1_555
O74 P20 1.579400 1_555
O75 P19 1.540897 1_555
O76 P15 1.584909 1_555
O77 P0 1.560599 1_655
O78 P16 1.543813 1_555
O79 P1 1.557292 1_655
O80 P19 1.579400 1_555
O81 P17 1.543297 1_555
O82 P18 1.553878 1_555
O83 P22 1.553038 1_555
O84 P21 1.572996 1_555
O85 P21 1.543290 1_555
O86 P10 1.557277 1_545
O87 P23 1.556231 1_555
O88 P20 1.562065 1_555
O89 P23 1.543808 1_555
O90 P22 1.541033 1_554
O91 P21 1.554405 1_555
O92 P11 1.560590 1_545
O93 P23 1.549329 1_555
O94 P22 1.584908 1_555
O95 P21 1.555563 1_555
