# generated using pymatgen
data_LiZr2(PO4)3
_symmetry_space_group_name_H-M   'P 1'
_cell_length_a   8.84141600
_cell_length_b   8.92477117
_cell_length_c   9.20023689
_cell_angle_alpha   61.02186675
_cell_angle_beta   61.38771747
_cell_angle_gamma   60.94682820
_symmetry_Int_Tables_number   1
_chemical_formula_structural   LiZr2(PO4)3
_chemical_formula_sum   'Li2 Zr4 P6 O24'
_cell_volume   526.24626414
_cell_formula_units_Z   2
loop_
 _symmetry_equiv_pos_site_id
 _symmetry_equiv_pos_as_xyz
  1  'x, y, z'
loop_
 _atom_site_type_symbol
 _atom_site_label
 _atom_site_symmetry_multiplicity
 _atom_site_fract_x
 _atom_site_fract_y
 _atom_site_fract_z
 _atom_site_occupancy
  Li  Li0  1  0.86018600  0.61906200  0.51733000  1
  Li  Li1  1  0.59611800  0.79071900  0.74298900  1
  Zr  Zr0  1  0.13389700  0.64413100  0.07033700  1
  Zr  Zr1  1  0.63651000  0.16028800  0.56506900  1
  Zr  Zr2  1  0.35363700  0.86251800  0.42746500  1
  Zr  Zr3  1  0.86268000  0.35151800  0.94008900  1
  P  P0  1  0.04421000  0.25189400  0.24162700  1
  P  P1  1  0.23936900  0.04691600  0.74060400  1
  P  P2  1  0.46381500  0.53022600  0.25150700  1
  P  P3  1  0.53400100  0.48480900  0.74507200  1
  P  P4  1  0.74737300  0.95347200  0.27011600  1
  P  P5  1  0.95078900  0.75544500  0.75287200  1
  O  O0  1  0.03219100  0.30468300  0.06005500  1
  O  O1  1  0.19534600  0.06643500  0.27449900  1
  O  O2  1  0.08528300  0.39922400  0.24403600  1
  O  O3  1  0.26462800  0.03218500  0.57041000  1
  O  O4  1  0.08545200  0.22361100  0.76549100  1
  O  O5  1  0.42261700  0.04114100  0.73349300  1
  O  O6  1  0.80426900  0.11620200  0.11934400  1
  O  O7  1  0.28743100  0.59385400  0.21284500  1
  O  O8  1  0.48418600  0.34352200  0.39816000  1
  O  O9  1  0.62976500  0.51228300  0.08377800  1
  O  O10  1  0.13417400  0.76392700  0.60752400  1
  O  O11  1  0.45551200  0.67010700  0.31017400  1
  O  O12  1  0.54381000  0.34612100  0.68485500  1
  O  O13  1  0.86009100  0.23701200  0.38517900  1
  O  O14  1  0.36975800  0.50378000  0.90991100  1
  O  O15  1  0.52648800  0.67418500  0.59975800  1
  O  O16  1  0.71609500  0.42364300  0.77601800  1
  O  O17  1  0.19566700  0.88100500  0.89891900  1
  O  O18  1  0.57515100  0.95680200  0.26395100  1
  O  O19  1  0.90186500  0.76908300  0.25628400  1
  O  O20  1  0.71758200  0.95289600  0.45147400  1
  O  O21  1  0.89019500  0.61890600  0.74714500  1
  O  O22  1  0.79374300  0.93927700  0.72285000  1
  O  O23  1  0.96876800  0.69710800  0.93243200  1
loop_
_geom_bond_atom_site_label_1
_geom_bond_atom_site_label_2
_geom_bond_distance
_geom_bond_site_symmetry_2
Li0 O19 2.052394 1_555
Li0 O21 2.252767 1_555
Li0 O16 2.358214 1_555
Li0 O20 2.483468 1_555
Li0 O15 2.516074 1_555
Li1 O5 1.991269 1_565
Li1 O21 2.297652 1_555
Li1 O20 2.330472 1_555
Li1 O15 2.433923 1_555
Li1 O22 2.558733 1_555
O0 P0 1.543583 1_555
O0 Zr3 2.041541 1_454
O1 P0 1.539657 1_555
O1 Zr2 2.045050 1_545
O2 P0 1.536554 1_555
O2 Zr0 2.094302 1_555
O3 P1 1.534601 1_555
O3 Zr2 2.103035 1_545
O4 P1 1.535670 1_555
O4 Zr3 2.079818 1_455
O5 P1 1.566058 1_555
O5 Zr1 2.158262 1_555
O6 P4 1.541326 1_545
O6 Zr3 2.068527 1_554
O7 P2 1.535068 1_555
O7 Zr0 2.075090 1_555
O8 P2 1.546692 1_555
O8 Zr1 2.062659 1_555
O9 P2 1.549981 1_555
O9 Zr3 2.099469 1_554
O10 P5 1.538619 1_455
O10 Zr2 2.109684 1_555
O11 P2 1.543108 1_555
O11 Zr2 2.070503 1_555
O12 P3 1.536444 1_555
O12 Zr1 2.054913 1_555
O13 P0 1.546861 1_655
O13 Zr1 2.049091 1_555
O14 P3 1.529084 1_555
O14 Zr0 2.098249 1_556
O15 P3 1.560426 1_555
O15 Zr2 2.217446 1_555
O16 P3 1.551090 1_555
O16 Zr3 2.120031 1_555
O17 P1 1.546035 1_565
O17 Zr0 2.078598 1_556
O18 P4 1.536166 1_555
O18 Zr2 2.087843 1_555
O19 P4 1.563111 1_555
O19 Zr0 2.155024 1_655
O20 P4 1.557402 1_555
O20 Zr1 2.213650 1_565
O21 P5 1.580518 1_555
O21 Zr3 2.225017 1_555
O22 P5 1.552957 1_555
O22 Zr1 2.103704 1_565
O23 P5 1.537256 1_555
O23 Zr0 2.118311 1_656
