# generated using pymatgen
data_LiMn3P3O11
_symmetry_space_group_name_H-M   'P 1'
_cell_length_a   9.15070400
_cell_length_b   8.07326100
_cell_length_c   11.62312229
_cell_angle_alpha   83.83743867
_cell_angle_beta   90.00000000
_cell_angle_gamma   90.00000000
_symmetry_Int_Tables_number   1
_chemical_formula_structural   LiMn3P3O11
_chemical_formula_sum   'Li4 Mn12 P12 O44'
_cell_volume   853.70805652
_cell_formula_units_Z   4
loop_
 _symmetry_equiv_pos_site_id
 _symmetry_equiv_pos_as_xyz
  1  'x, y, z'
loop_
 _atom_site_type_symbol
 _atom_site_label
 _atom_site_symmetry_multiplicity
 _atom_site_fract_x
 _atom_site_fract_y
 _atom_site_fract_z
 _atom_site_occupancy
  Li  Li0  1  0.74478400  0.88598000  0.50520900  1
  Li  Li1  1  0.75521600  0.88598000  0.00520900  1
  Li  Li2  1  0.24478400  0.11402000  0.99479100  1
  Li  Li3  1  0.25521600  0.11402000  0.49479100  1
  Mn  Mn0  1  0.37344300  0.92964500  0.75970600  1
  Mn  Mn1  1  0.12655700  0.92964500  0.25970600  1
  Mn  Mn2  1  0.35038700  0.54322800  0.93199300  1
  Mn  Mn3  1  0.39741900  0.56328900  0.64702200  1
  Mn  Mn4  1  0.14961300  0.54322800  0.43199300  1
  Mn  Mn5  1  0.89741900  0.43671100  0.85297800  1
  Mn  Mn6  1  0.10258100  0.56328900  0.14702200  1
  Mn  Mn7  1  0.85038700  0.45677200  0.56800700  1
  Mn  Mn8  1  0.60258100  0.43671100  0.35297800  1
  Mn  Mn9  1  0.64961300  0.45677200  0.06800700  1
  Mn  Mn10  1  0.87344300  0.07035500  0.74029400  1
  Mn  Mn11  1  0.62655700  0.07035500  0.24029400  1
  P  P0  1  0.06848000  0.78897000  0.89596100  1
  P  P1  1  0.06896500  0.77484800  0.64568400  1
  P  P2  1  0.43152000  0.78897000  0.39596100  1
  P  P3  1  0.67419900  0.68520900  0.78624000  1
  P  P4  1  0.43103500  0.77484800  0.14568400  1
  P  P5  1  0.82580100  0.68520900  0.28624000  1
  P  P6  1  0.17419900  0.31479100  0.71376000  1
  P  P7  1  0.56896500  0.22515200  0.85431600  1
  P  P8  1  0.32580100  0.31479100  0.21376000  1
  P  P9  1  0.56848000  0.21103000  0.60403900  1
  P  P10  1  0.93103500  0.22515200  0.35431600  1
  P  P11  1  0.93152000  0.21103000  0.10403900  1
  O  O0  1  0.00000600  0.96068500  0.88389000  1
  O  O1  1  0.99162100  0.94079400  0.62086600  1
  O  O2  1  0.49999400  0.96068500  0.38389000  1
  O  O3  1  0.72270200  0.86601700  0.77042100  1
  O  O4  1  0.23769000  0.78864400  0.89666100  1
  O  O5  1  0.50837900  0.94079400  0.12086600  1
  O  O6  1  0.77729800  0.86601700  0.27042100  1
  O  O7  1  0.23734400  0.78324200  0.64740500  1
  O  O8  1  0.26231000  0.78864400  0.39666100  1
  O  O9  1  0.50018000  0.67828700  0.78378000  1
  O  O10  1  0.02155300  0.69613700  0.77948900  1
  O  O11  1  0.26265600  0.78324200  0.14740500  1
  O  O12  1  0.49365000  0.67336600  0.49618000  1
  O  O13  1  0.72994700  0.59979800  0.90632500  1
  O  O14  1  0.01476000  0.64959700  0.56478200  1
  O  O15  1  0.99982000  0.67828700  0.28378000  1
  O  O16  1  0.47844700  0.69613700  0.27948900  1
  O  O17  1  0.73463200  0.58042800  0.69251400  1
  O  O18  1  0.00635000  0.67336600  0.99618000  1
  O  O19  1  0.77005300  0.59979800  0.40632500  1
  O  O20  1  0.48524000  0.64959700  0.06478200  1
  O  O21  1  0.76536800  0.58042800  0.19251400  1
  O  O22  1  0.23463200  0.41957200  0.80748600  1
  O  O23  1  0.51476000  0.35040300  0.93521800  1
  O  O24  1  0.22994700  0.40020200  0.59367500  1
  O  O25  1  0.99365000  0.32663400  0.00382000  1
  O  O26  1  0.26536800  0.41957200  0.30748600  1
  O  O27  1  0.52155300  0.30386300  0.72051100  1
  O  O28  1  0.00018000  0.32171300  0.71622000  1
  O  O29  1  0.98524000  0.35040300  0.43521800  1
  O  O30  1  0.27005300  0.40020200  0.09367500  1
  O  O31  1  0.50635000  0.32663400  0.50382000  1
  O  O32  1  0.73734400  0.21675800  0.85259500  1
  O  O33  1  0.97844700  0.30386300  0.22051100  1
  O  O34  1  0.49982000  0.32171300  0.21622000  1
  O  O35  1  0.73769000  0.21135600  0.60333900  1
  O  O36  1  0.76265600  0.21675800  0.35259500  1
  O  O37  1  0.22270200  0.13398300  0.72957900  1
  O  O38  1  0.49162100  0.05920600  0.87913400  1
  O  O39  1  0.76231000  0.21135600  0.10333900  1
  O  O40  1  0.27729800  0.13398300  0.22957900  1
  O  O41  1  0.50000600  0.03931500  0.61611000  1
  O  O42  1  0.00837900  0.05920600  0.37913400  1
  O  O43  1  0.99999400  0.03931500  0.11611000  1
loop_
_geom_bond_atom_site_label_1
_geom_bond_atom_site_label_2
_geom_bond_distance
_geom_bond_site_symmetry_2
Mn0 O38 2.121828 1_565
Mn0 O41 2.143272 1_565
Mn0 O37 2.150052 1_565
Mn0 O7 2.232273 1_555
Mn0 O4 2.232461 1_555
Mn0 O9 2.327947 1_555
Mn1 O42 2.121828 1_565
Mn1 O43 2.143272 1_465
Mn1 O40 2.150052 1_565
Mn1 O11 2.232273 1_555
Mn1 O8 2.232461 1_555
Mn1 O15 2.327947 1_455
Mn2 O22 2.126748 1_555
Mn2 O23 2.162100 1_555
Mn2 O20 2.219666 1_556
Mn2 O30 2.222473 1_556
Mn2 O4 2.232269 1_555
Mn2 O9 2.373215 1_555
Mn3 O12 2.074743 1_555
Mn3 O9 2.142359 1_555
Mn3 O24 2.154488 1_555
Mn3 O7 2.302303 1_555
Mn3 O27 2.454054 1_555
Mn3 O22 2.564982 1_555
Mn4 O26 2.126748 1_555
Mn4 O29 2.162100 1_455
Mn4 O14 2.219666 1_555
Mn4 O24 2.222473 1_555
Mn4 O8 2.232269 1_555
Mn4 O15 2.373215 1_455
Mn5 O25 2.074743 1_556
Mn5 O28 2.142359 1_655
Mn5 O13 2.154488 1_555
Mn5 O32 2.302303 1_555
Mn5 O10 2.454054 1_655
Mn5 O17 2.564982 1_555
Mn6 O18 2.074743 1_554
Mn6 O15 2.142359 1_455
Mn6 O30 2.154488 1_555
Mn6 O11 2.302303 1_555
Mn6 O33 2.454054 1_455
Mn6 O26 2.564982 1_555
Mn7 O17 2.126748 1_555
Mn7 O14 2.162100 1_655
Mn7 O29 2.219666 1_555
Mn7 O19 2.222473 1_555
Mn7 O35 2.232269 1_555
Mn7 O28 2.373215 1_655
Mn8 O31 2.074743 1_555
Mn8 O34 2.142359 1_555
Mn8 O19 2.154488 1_555
Mn8 O36 2.302303 1_555
Mn8 O16 2.454054 1_555
Mn8 O21 2.564982 1_555
Mn9 O21 2.126748 1_555
Mn9 O20 2.162100 1_555
Mn9 O23 2.219666 1_554
Mn9 O13 2.222473 1_554
Mn9 O39 2.232269 1_555
Mn9 O34 2.373215 1_555
Mn10 O1 2.121828 1_545
Mn10 O0 2.143272 1_645
Mn10 O3 2.150052 1_545
Mn10 O32 2.232273 1_555
Mn10 O35 2.232461 1_555
Mn10 O28 2.327947 1_655
Mn11 O5 2.121828 1_545
Mn11 O2 2.143272 1_545
Mn11 O6 2.150052 1_545
Mn11 O36 2.232273 1_555
Mn11 O39 2.232461 1_555
Mn11 O34 2.327947 1_555
O0 P0 1.514055 1_555
O1 P1 1.515261 1_655
O2 P2 1.514055 1_555
O3 P3 1.517870 1_555
O4 P0 1.548413 1_555
O5 P4 1.515261 1_555
O6 P5 1.517870 1_555
O7 P1 1.542500 1_555
O8 P2 1.548413 1_555
O9 P3 1.593741 1_555
O10 P0 1.672309 1_555
O10 P1 1.672900 1_555
O11 P4 1.542500 1_555
O12 P2 1.522420 1_555
O13 P3 1.573921 1_555
O14 P1 1.535219 1_555
O15 P5 1.593741 1_555
O16 P2 1.672309 1_555
O16 P4 1.672900 1_555
O17 P3 1.551136 1_555
O18 P0 1.522420 1_555
O19 P5 1.573921 1_555
O20 P4 1.535219 1_555
O21 P5 1.551136 1_555
O22 P6 1.551136 1_555
O23 P7 1.535219 1_555
O24 P6 1.573921 1_555
O25 P11 1.522420 1_555
O26 P8 1.551136 1_555
O27 P9 1.672309 1_555
O27 P7 1.672900 1_555
O28 P6 1.593741 1_555
O29 P10 1.535219 1_555
O30 P8 1.573921 1_555
O31 P9 1.522420 1_555
O32 P7 1.542500 1_555
O33 P11 1.672309 1_555
O33 P10 1.672900 1_555
O34 P8 1.593741 1_555
O35 P9 1.548413 1_555
O36 P10 1.542500 1_555
O37 P6 1.517870 1_555
O38 P7 1.515261 1_555
O39 P11 1.548413 1_555
O40 P8 1.517870 1_555
O41 P9 1.514055 1_555
O42 P10 1.515261 1_455
O43 P11 1.514055 1_555
