# generated using pymatgen
data_Li4NbCr(WO6)2
_symmetry_space_group_name_H-M   'P 1'
_cell_length_a   5.17951862
_cell_length_b   7.54599776
_cell_length_c   10.95467136
_cell_angle_alpha   85.69951567
_cell_angle_beta   89.88000703
_cell_angle_gamma   90.02341695
_symmetry_Int_Tables_number   1
_chemical_formula_structural   Li4NbCr(WO6)2
_chemical_formula_sum   'Li8 Nb2 Cr2 W4 O24'
_cell_volume   426.95285406
_cell_formula_units_Z   2
loop_
 _symmetry_equiv_pos_site_id
 _symmetry_equiv_pos_as_xyz
  1  'x, y, z'
loop_
 _atom_site_type_symbol
 _atom_site_label
 _atom_site_symmetry_multiplicity
 _atom_site_fract_x
 _atom_site_fract_y
 _atom_site_fract_z
 _atom_site_occupancy
  Li  Li0  1  0.00055400  0.26952200  0.29320400  1
  Li  Li1  1  0.00056300  0.26949800  0.79317600  1
  Li  Li2  1  0.49723800  0.80565600  0.53089700  1
  Li  Li3  1  0.49724900  0.80560400  0.03085000  1
  Li  Li4  1  0.99584800  0.80661200  0.28976900  1
  Li  Li5  1  0.99587600  0.80655600  0.78974300  1
  Li  Li6  1  0.50427700  0.24476100  0.00861500  1
  Li  Li7  1  0.50428900  0.24471900  0.50863400  1
  Nb  Nb0  1  0.50284500  0.51176300  0.25860900  1
  Nb  Nb1  1  0.50283200  0.51176700  0.75858500  1
  Cr  Cr0  1  0.00051000  0.99701800  0.99979700  1
  Cr  Cr1  1  0.00054900  0.99702600  0.49978400  1
  W  W0  1  0.99672500  0.49795100  0.50942700  1
  W  W1  1  0.50566600  0.00901600  0.24746800  1
  W  W2  1  0.99672800  0.49793300  0.00944300  1
  W  W3  1  0.50566800  0.00901900  0.74743400  1
  O  O0  1  0.30733600  0.43127900  0.40329900  1
  O  O1  1  0.30732000  0.43127400  0.90330500  1
  O  O2  1  0.11703600  0.73638900  0.49368900  1
  O  O3  1  0.11698600  0.73638600  0.99370600  1
  O  O4  1  0.31704100  0.04686000  0.59489500  1
  O  O5  1  0.31701900  0.04690600  0.09489200  1
  O  O6  1  0.18182600  0.43089200  0.65255600  1
  O  O7  1  0.18186200  0.43088600  0.15253500  1
  O  O8  1  0.79404400  0.93249800  0.65163100  1
  O  O9  1  0.79407700  0.93249500  0.15162100  1
  O  O10  1  0.37355400  0.74796300  0.74528300  1
  O  O11  1  0.37354400  0.74797000  0.24528400  1
  O  O12  1  0.62220900  0.24833900  0.74270100  1
  O  O13  1  0.62220700  0.24833100  0.24270100  1
  O  O14  1  0.19888300  0.04964700  0.84082900  1
  O  O15  1  0.19890100  0.04964300  0.34082000  1
  O  O16  1  0.82075100  0.55574800  0.84023700  1
  O  O17  1  0.82073200  0.55574900  0.34022900  1
  O  O18  1  0.69397500  0.93618700  0.89417600  1
  O  O19  1  0.69394700  0.93618600  0.39415900  1
  O  O20  1  0.88596100  0.25686900  0.98782300  1
  O  O21  1  0.88589600  0.25688700  0.48782600  1
  O  O22  1  0.68375100  0.55629700  0.08638000  1
  O  O23  1  0.68372800  0.55630000  0.58638900  1
loop_
_geom_bond_atom_site_label_1
_geom_bond_atom_site_label_2
_geom_bond_distance
_geom_bond_site_symmetry_2
Li0 O15 1.988548 1_555
Li0 O13 2.046815 1_455
Li0 O7 2.109689 1_555
Li0 O21 2.207136 1_455
Li0 O0 2.386748 1_555
Li0 O17 2.442211 1_455
Li1 O14 1.988385 1_555
Li1 O12 2.046741 1_455
Li1 O6 2.109335 1_555
Li1 O20 2.207324 1_455
Li1 O1 2.386944 1_555
Li1 O16 2.442457 1_455
Li2 O19 2.005874 1_555
Li2 O2 2.086100 1_555
Li2 O23 2.162296 1_555
Li2 O4 2.205787 1_565
Li2 O8 2.286025 1_555
Li2 O10 2.440419 1_555
Li3 O18 2.005596 1_554
Li3 O3 2.086149 1_554
Li3 O22 2.162100 1_555
Li3 O5 2.206670 1_565
Li3 O9 2.286520 1_555
Li3 O11 2.440899 1_555
Li4 O9 2.019068 1_555
Li4 O11 2.071086 1_655
Li4 O17 2.133376 1_555
Li4 O19 2.206890 1_555
Li4 O15 2.221891 1_665
Li4 O2 2.343847 1_655
Li5 O8 2.019134 1_555
Li5 O10 2.070844 1_655
Li5 O16 2.133107 1_555
Li5 O18 2.207357 1_555
Li5 O14 2.222281 1_665
Li5 O3 2.344117 1_655
Li6 O5 1.961234 1_555
Li6 O20 1.990819 1_554
Li6 O1 2.028550 1_554
Li7 O4 1.961156 1_555
Li7 O21 1.990459 1_555
Li7 O0 2.028912 1_555
Nb0 O11 1.899791 1_555
Nb0 O17 1.915938 1_555
Nb0 O0 1.937789 1_555
Nb0 O13 2.101588 1_555
Nb0 O22 2.108991 1_555
Nb0 O7 2.144848 1_555
Nb1 O10 1.899670 1_555
Nb1 O16 1.916241 1_555
Nb1 O1 1.938075 1_555
Nb1 O12 2.101541 1_555
Nb1 O23 2.108649 1_555
Nb1 O6 2.144657 1_555
Cr0 O5 1.994971 1_566
Cr0 O9 2.004284 1_456
Cr0 O14 2.033347 1_565
Cr0 O18 2.038876 1_455
Cr0 O20 2.043722 1_465
Cr0 O3 2.063229 1_555
Cr1 O4 1.994900 1_565
Cr1 O8 2.004693 1_455
Cr1 O15 2.033243 1_565
Cr1 O19 2.039190 1_455
Cr1 O21 2.043952 1_465
Cr1 O2 2.063286 1_555
O0 W0 2.067265 1_455
O1 W2 2.067224 1_456
O2 W0 1.899333 1_455
O3 W2 1.899349 1_456
O4 W3 1.940066 1_555
O5 W1 1.940494 1_555
O6 W0 1.876524 1_455
O7 W2 1.876262 1_455
O8 W3 1.936715 1_565
O9 W1 1.937125 1_565
O10 W3 2.086947 1_565
O11 W1 2.086919 1_565
O12 W3 1.900866 1_555
O13 W1 1.900814 1_555
O14 W3 1.925174 1_555
O15 W1 1.924832 1_555
O16 W2 2.084001 1_556
O17 W0 2.083943 1_555
O18 W3 1.926638 1_565
O19 W1 1.926111 1_565
O20 W2 1.938707 1_556
O21 W0 1.938762 1_555
O22 W2 1.892804 1_555
O23 W0 1.892989 1_555
