# generated using pymatgen
data_Li3Cu4TeO8
_symmetry_space_group_name_H-M   'P 1'
_cell_length_a   5.93109680
_cell_length_b   5.93109680
_cell_length_c   6.57899060
_cell_angle_alpha   58.95130182
_cell_angle_beta   58.95130182
_cell_angle_gamma   66.21435529
_symmetry_Int_Tables_number   1
_chemical_formula_structural   Li3Cu4TeO8
_chemical_formula_sum   'Li3 Cu4 Te1 O8'
_cell_volume   166.87137432
_cell_formula_units_Z   1
loop_
 _symmetry_equiv_pos_site_id
 _symmetry_equiv_pos_as_xyz
  1  'x, y, z'
loop_
 _atom_site_type_symbol
 _atom_site_label
 _atom_site_symmetry_multiplicity
 _atom_site_fract_x
 _atom_site_fract_y
 _atom_site_fract_z
 _atom_site_occupancy
  Li  Li0  1  0.00000000  0.50000000  0.00000000  1
  Li  Li1  1  0.50000000  0.00000000  0.00000000  1
  Li  Li2  1  0.00000000  0.00000000  0.50000000  1
  Cu  Cu0  1  0.00000000  0.00000000  0.00000000  1
  Cu  Cu1  1  0.50000000  0.00000000  0.50000000  1
  Cu  Cu2  1  0.00000000  0.50000000  0.50000000  1
  Cu  Cu3  1  0.50000000  0.50000000  0.50000000  1
  Te  Te0  1  0.50000000  0.50000000  0.00000000  1
  O  O0  1  0.74745900  0.74745900  0.79833200  1
  O  O1  1  0.27891100  0.71412900  0.21626300  1
  O  O2  1  0.71412900  0.27891100  0.21626300  1
  O  O3  1  0.25254100  0.25254100  0.20166800  1
  O  O4  1  0.25113700  0.25113700  0.69162300  1
  O  O5  1  0.72108900  0.28587100  0.78373700  1
  O  O6  1  0.28587100  0.72108900  0.78373700  1
  O  O7  1  0.74886300  0.74886300  0.30837700  1
loop_
_geom_bond_atom_site_label_1
_geom_bond_atom_site_label_2
_geom_bond_distance
_geom_bond_site_symmetry_2
Li0 O2 1.999773 1_455
Li0 O6 1.999773 1_554
Li0 O3 2.103800 1_555
Li0 O0 2.103800 1_454
Li0 O4 2.590701 1_554
Li0 O7 2.590701 1_455
Li1 O1 1.999773 1_545
Li1 O5 1.999773 1_554
Li1 O3 2.103800 1_555
Li1 O0 2.103800 1_544
Li1 O4 2.590701 1_554
Li1 O7 2.590701 1_545
Li2 O0 2.020881 1_445
Li2 O3 2.020881 1_555
Li2 O1 2.629251 1_545
Li2 O5 2.629251 1_455
Li2 O6 2.629251 1_545
Li2 O2 2.629251 1_455
Cu0 O4 2.026959 1_554
Cu0 O7 2.026959 1_445
Cu0 O1 2.304917 1_545
Cu0 O5 2.304917 1_454
Cu0 O2 2.304917 1_455
Cu0 O6 2.304917 1_544
Cu1 O6 1.974303 1_545
Cu1 O2 1.974303 1_555
Cu1 O7 2.056881 1_545
Cu1 O4 2.056881 1_555
Cu1 O3 2.532915 1_555
Cu1 O0 2.532915 1_545
Cu2 O5 1.974303 1_455
Cu2 O1 1.974303 1_555
Cu2 O7 2.056881 1_455
Cu2 O4 2.056881 1_555
Cu2 O3 2.532915 1_555
Cu2 O0 2.532915 1_455
Cu3 O7 1.965978 1_555
Cu3 O4 1.965978 1_555
Cu3 O5 2.356519 1_555
Cu3 O6 2.356519 1_555
Cu3 O1 2.356519 1_555
Cu3 O2 2.356519 1_555
O0 Te0 1.946488 1_556
O1 Te0 1.988181 1_555
O2 Te0 1.988181 1_555
O3 Te0 1.946488 1_555
O5 Te0 1.988181 1_556
O6 Te0 1.988181 1_556
