# generated using pymatgen
data_Mn6OF11
_symmetry_space_group_name_H-M   'P 1'
_cell_length_a   4.96780700
_cell_length_b   5.88859069
_cell_length_c   16.17940519
_cell_angle_alpha   89.66809499
_cell_angle_beta   89.81596298
_cell_angle_gamma   89.85955755
_symmetry_Int_Tables_number   1
_chemical_formula_structural   Mn6OF11
_chemical_formula_sum   'Mn12 O2 F22'
_cell_volume   473.29053828
_cell_formula_units_Z   2
loop_
 _symmetry_equiv_pos_site_id
 _symmetry_equiv_pos_as_xyz
  1  'x, y, z'
loop_
 _atom_site_type_symbol
 _atom_site_label
 _atom_site_symmetry_multiplicity
 _atom_site_fract_x
 _atom_site_fract_y
 _atom_site_fract_z
 _atom_site_occupancy
  Mn  Mn0  1  0.98248100  0.16381200  0.59093100  1
  Mn  Mn1  1  0.97608500  0.85463800  0.75317800  1
  Mn  Mn2  1  0.99564500  0.15060500  0.91186400  1
  Mn  Mn3  1  0.99953800  0.17248900  0.24923900  1
  Mn  Mn4  1  0.99874600  0.83129500  0.41810500  1
  Mn  Mn5  1  0.99982100  0.82711600  0.08160500  1
  Mn  Mn6  1  0.49665900  0.32760800  0.41971900  1
  Mn  Mn7  1  0.49345200  0.33255500  0.07823800  1
  Mn  Mn8  1  0.52257100  0.31687500  0.74685100  1
  Mn  Mn9  1  0.51496700  0.68438600  0.90703800  1
  Mn  Mn10  1  0.49649200  0.66947400  0.58669800  1
  Mn  Mn11  1  0.50071500  0.66893700  0.25008600  1
  O  O0  1  0.78397000  0.09250800  0.69873700  1
  O  O1  1  0.79715300  0.90256100  0.85847700  1
  F  F0  1  0.76770400  0.10467500  0.35991400  1
  F  F1  1  0.77895000  0.10951800  0.02281000  1
  F  F2  1  0.76276300  0.89470800  0.52708900  1
  F  F3  1  0.77153900  0.89563500  0.19185800  1
  F  F4  1  0.72848600  0.39680200  0.86078200  1
  F  F5  1  0.73442300  0.59790600  0.69431800  1
  F  F6  1  0.73178400  0.39468500  0.52810700  1
  F  F7  1  0.73129800  0.60314400  0.35997400  1
  F  F8  1  0.72741700  0.39520600  0.18988600  1
  F  F9  1  0.71920500  0.61021200  0.02309000  1
  F  F10  1  0.25450000  0.38559500  0.96582300  1
  F  F11  1  0.25766700  0.62879900  0.80003900  1
  F  F12  1  0.27780500  0.38237900  0.63981800  1
  F  F13  1  0.27365000  0.60923100  0.47546000  1
  F  F14  1  0.26685800  0.60137300  0.14009900  1
  F  F15  1  0.26936100  0.39465900  0.30878000  1
  F  F16  1  0.24836200  0.12258800  0.81161300  1
  F  F17  1  0.21968000  0.10797200  0.48071100  1
  F  F18  1  0.21274000  0.87592000  0.64881400  1
  F  F19  1  0.24429600  0.89318900  0.97329100  1
  F  F20  1  0.23218000  0.10361400  0.13892500  1
  F  F21  1  0.23104100  0.89733100  0.30803300  1
loop_
_geom_bond_atom_site_label_1
_geom_bond_atom_site_label_2
_geom_bond_distance
_geom_bond_site_symmetry_2
Mn0 O0 2.042958 1_555
Mn1 O0 1.906116 1_565
Mn1 O1 1.940850 1_555
Mn2 O1 1.969523 1_545
Mn8 O0 2.008705 1_555
Mn9 O1 2.055019 1_555
F0 Mn6 2.114320 1_555
F0 Mn3 2.161726 1_555
F0 Mn4 2.185326 1_545
F1 Mn2 2.103185 1_554
F1 Mn7 2.130047 1_555
F1 Mn5 2.203109 1_545
F2 Mn10 2.103469 1_555
F2 Mn4 2.148298 1_555
F2 Mn0 2.191831 1_565
F3 Mn11 2.113240 1_555
F3 Mn5 2.150356 1_555
F3 Mn3 2.199084 1_565
F4 Mn2 2.128386 1_555
F4 Mn9 2.133969 1_555
F4 Mn8 2.165721 1_555
F5 Mn8 2.134282 1_555
F5 Mn10 2.146828 1_555
F5 Mn1 2.160235 1_555
F6 Mn0 2.101510 1_555
F6 Mn6 2.149213 1_555
F6 Mn10 2.210119 1_555
F7 Mn4 2.118070 1_555
F7 Mn11 2.150857 1_555
F7 Mn6 2.215748 1_555
F8 Mn3 2.110619 1_555
F8 Mn7 2.184815 1_555
F8 Mn11 2.194872 1_555
F9 Mn5 2.121859 1_555
F9 Mn7 2.170898 1_555
F9 Mn9 2.178615 1_554
F10 Mn2 2.088191 1_455
F10 Mn7 2.195498 1_556
F10 Mn9 2.378754 1_555
F11 Mn1 2.070310 1_455
F11 Mn9 2.181925 1_555
F11 Mn8 2.417721 1_555
F12 Mn0 2.112593 1_455
F12 Mn8 2.151673 1_555
F12 Mn10 2.182466 1_555
F13 Mn4 2.102723 1_455
F13 Mn10 2.147708 1_555
F13 Mn6 2.189242 1_555
F14 Mn5 2.099383 1_455
F14 Mn11 2.167585 1_555
F14 Mn7 2.185643 1_555
F15 Mn3 2.113724 1_455
F15 Mn6 2.157617 1_555
F15 Mn11 2.194458 1_555
F16 Mn2 2.055058 1_455
F16 Mn8 2.060834 1_555
F16 Mn1 2.291071 1_445
F17 Mn6 2.127223 1_555
F17 Mn0 2.160598 1_455
F17 Mn4 2.218129 1_445
F18 Mn1 2.057810 1_455
F18 Mn10 2.114613 1_555
F18 Mn0 2.244654 1_465
F19 Mn9 2.113484 1_555
F19 Mn5 2.162926 1_456
F19 Mn2 2.189187 1_465
F20 Mn7 2.109809 1_555
F20 Mn3 2.163003 1_455
F20 Mn5 2.208413 1_445
F21 Mn11 2.116666 1_555
F21 Mn4 2.153020 1_455
F21 Mn3 2.198388 1_465
