# generated using pymatgen
data_Na5(WO3)6
_symmetry_space_group_name_H-M   'P 1'
_cell_length_a   6.83660872
_cell_length_b   6.83660872
_cell_length_c   16.87793100
_cell_angle_alpha   90.00000000
_cell_angle_beta   90.00000000
_cell_angle_gamma   109.62992863
_symmetry_Int_Tables_number   1
_chemical_formula_structural   Na5(WO3)6
_chemical_formula_sum   'Na10 W12 O36'
_cell_volume   743.01434639
_cell_formula_units_Z   2
loop_
 _symmetry_equiv_pos_site_id
 _symmetry_equiv_pos_as_xyz
  1  'x, y, z'
loop_
 _atom_site_type_symbol
 _atom_site_label
 _atom_site_symmetry_multiplicity
 _atom_site_fract_x
 _atom_site_fract_y
 _atom_site_fract_z
 _atom_site_occupancy
  Na  Na0  1  0.87462700  0.12537300  0.58367300  1
  Na  Na1  1  0.12537300  0.87462700  0.08367300  1
  Na  Na2  1  0.12500800  0.87499200  0.75000000  1
  Na  Na3  1  0.87462700  0.12537300  0.91632700  1
  Na  Na4  1  0.87499200  0.12500800  0.25000000  1
  Na  Na5  1  0.12537300  0.87462700  0.41632700  1
  Na  Na6  1  0.62466900  0.37533100  0.41618900  1
  Na  Na7  1  0.62466900  0.37533100  0.08381100  1
  Na  Na8  1  0.37533100  0.62466900  0.58381100  1
  Na  Na9  1  0.37533100  0.62466900  0.91618900  1
  W  W0  1  0.62374000  0.87383800  0.08493900  1
  W  W1  1  0.62374000  0.87383800  0.41506100  1
  W  W2  1  0.62518200  0.87488300  0.75000000  1
  W  W3  1  0.12616200  0.37626000  0.41506100  1
  W  W4  1  0.87383800  0.62374000  0.58493900  1
  W  W5  1  0.37626000  0.12616200  0.58493900  1
  W  W6  1  0.87488300  0.62518200  0.25000000  1
  W  W7  1  0.12511700  0.37481800  0.75000000  1
  W  W8  1  0.37626000  0.12616200  0.91506100  1
  W  W9  1  0.12616200  0.37626000  0.08493900  1
  W  W10  1  0.87383800  0.62374000  0.91506100  1
  W  W11  1  0.37481800  0.12511700  0.25000000  1
  O  O0  1  0.74969800  0.74969800  0.50000000  1
  O  O1  1  0.75223900  0.75323800  0.33580300  1
  O  O2  1  0.75223900  0.75323800  0.16419700  1
  O  O3  1  0.74969800  0.74969800  0.00000000  1
  O  O4  1  0.49669100  0.99784000  0.66411300  1
  O  O5  1  0.50000000  0.00000000  0.50000000  1
  O  O6  1  0.75323800  0.75223900  0.66419700  1
  O  O7  1  0.50000000  0.00000000  0.00000000  1
  O  O8  1  0.75323800  0.75223900  0.83580300  1
  O  O9  1  0.50330900  0.00216000  0.33588700  1
  O  O10  1  0.50330900  0.00216000  0.16411300  1
  O  O11  1  0.49669100  0.99784000  0.83588700  1
  O  O12  1  0.12503000  0.87497000  0.58350600  1
  O  O13  1  0.12229100  0.87770900  0.25000000  1
  O  O14  1  0.12503000  0.87497000  0.91649400  1
  O  O15  1  0.87497000  0.12503000  0.08350600  1
  O  O16  1  0.62772900  0.37227100  0.25000000  1
  O  O17  1  0.62498800  0.37501200  0.91819900  1
  O  O18  1  0.87497000  0.12503000  0.41649400  1
  O  O19  1  0.62498800  0.37501200  0.58180100  1
  O  O20  1  0.87770900  0.12229100  0.75000000  1
  O  O21  1  0.00000000  0.50000000  0.50000000  1
  O  O22  1  0.24676200  0.24776100  0.16419700  1
  O  O23  1  0.24776100  0.24676200  0.83580300  1
  O  O24  1  0.24776100  0.24676200  0.66419700  1
  O  O25  1  0.25030200  0.25030200  0.50000000  1
  O  O26  1  0.00216000  0.50330900  0.66411300  1
  O  O27  1  0.25030200  0.25030200  0.00000000  1
  O  O28  1  0.99784000  0.49669100  0.16411300  1
  O  O29  1  0.00000000  0.50000000  0.00000000  1
  O  O30  1  0.00216000  0.50330900  0.83588700  1
  O  O31  1  0.24676200  0.24776100  0.33580300  1
  O  O32  1  0.99784000  0.49669100  0.33588700  1
  O  O33  1  0.37501200  0.62498800  0.41819900  1
  O  O34  1  0.37227100  0.62772900  0.75000000  1
  O  O35  1  0.37501200  0.62498800  0.08180100  1
loop_
_geom_bond_atom_site_label_1
_geom_bond_atom_site_label_2
_geom_bond_distance
_geom_bond_site_symmetry_2
Na0 O6 2.760591 1_545
Na0 O24 2.760591 1_655
Na0 O26 2.786726 1_655
Na0 O4 2.786726 1_545
Na0 O19 2.789909 1_555
Na0 O21 2.795304 1_655
Na0 O5 2.795304 1_555
Na0 O12 2.798269 1_645
Na0 O25 2.801141 1_655
Na0 O0 2.801141 1_545
Na0 O20 2.807467 1_555
Na0 O18 2.821638 1_555
Na1 O2 2.760591 1_455
Na1 O22 2.760591 1_565
Na1 O10 2.786726 1_565
Na1 O28 2.786726 1_455
Na1 O35 2.789909 1_555
Na1 O7 2.795304 1_565
Na1 O29 2.795304 1_555
Na1 O15 2.798269 1_465
Na1 O27 2.801141 1_565
Na1 O3 2.801141 1_455
Na1 O13 2.807467 1_555
Na1 O14 2.821638 1_554
Na2 O34 2.763178 1_555
Na2 O20 2.763581 1_465
Na2 O23 2.797916 1_565
Na2 O24 2.797916 1_565
Na2 O8 2.797916 1_455
Na2 O6 2.797916 1_455
Na2 O11 2.798167 1_555
Na2 O4 2.798167 1_555
Na2 O26 2.798167 1_555
Na2 O30 2.798167 1_555
Na2 O12 2.810074 1_555
Na2 O14 2.810074 1_555
Na3 O23 2.760591 1_655
Na3 O8 2.760591 1_545
Na3 O30 2.786726 1_655
Na3 O11 2.786726 1_545
Na3 O17 2.789909 1_555
Na3 O29 2.795304 1_656
Na3 O7 2.795304 1_556
Na3 O14 2.798269 1_645
Na3 O27 2.801141 1_656
Na3 O3 2.801141 1_546
Na3 O20 2.807467 1_555
Na3 O15 2.821638 1_556
Na4 O16 2.763178 1_555
Na4 O13 2.763581 1_645
Na4 O22 2.797916 1_655
Na4 O31 2.797916 1_655
Na4 O2 2.797916 1_545
Na4 O1 2.797916 1_545
Na4 O28 2.798167 1_555
Na4 O10 2.798167 1_555
Na4 O32 2.798167 1_555
Na4 O9 2.798167 1_555
Na4 O18 2.810074 1_555
Na4 O15 2.810074 1_555
Na5 O1 2.760591 1_455
Na5 O31 2.760591 1_565
Na5 O9 2.786726 1_565
Na5 O32 2.786726 1_455
Na5 O33 2.789909 1_555
Na5 O5 2.795304 1_565
Na5 O21 2.795304 1_555
Na5 O18 2.798269 1_465
Na5 O25 2.801141 1_565
Na5 O0 2.801141 1_455
Na5 O13 2.807467 1_555
Na5 O12 2.821638 1_555
Na6 O32 2.758959 1_555
Na6 O9 2.758959 1_555
Na6 O1 2.786119 1_555
Na6 O31 2.786119 1_555
Na6 O33 2.790138 1_555
Na6 O0 2.795040 1_555
Na6 O25 2.795040 1_555
Na6 O19 2.795190 1_555
Na6 O18 2.797133 1_555
Na6 O21 2.800407 1_655
Na6 O5 2.800407 1_555
Na6 O16 2.805135 1_555
Na7 O28 2.758959 1_555
Na7 O10 2.758959 1_555
Na7 O2 2.786119 1_555
Na7 O22 2.786119 1_555
Na7 O35 2.790138 1_555
Na7 O27 2.795040 1_555
Na7 O3 2.795040 1_555
Na7 O17 2.795190 1_554
Na7 O15 2.797133 1_555
Na7 O29 2.800407 1_655
Na7 O7 2.800407 1_555
Na7 O16 2.805135 1_555
Na8 O4 2.758959 1_555
Na8 O26 2.758959 1_555
Na8 O6 2.786119 1_555
Na8 O24 2.786119 1_555
Na8 O19 2.790138 1_555
Na8 O0 2.795040 1_555
Na8 O25 2.795040 1_555
Na8 O33 2.795190 1_555
Na8 O12 2.797133 1_555
Na8 O5 2.800407 1_565
Na8 O21 2.800407 1_555
Na8 O34 2.805135 1_555
Na9 O11 2.758959 1_555
Na9 O30 2.758959 1_555
Na9 O23 2.786119 1_555
Na9 O8 2.786119 1_555
Na9 O17 2.790138 1_555
Na9 O3 2.795040 1_556
Na9 O27 2.795040 1_556
Na9 O35 2.795190 1_556
Na9 O14 2.797133 1_555
Na9 O7 2.800407 1_566
Na9 O29 2.800407 1_556
Na9 O34 2.805135 1_555
O0 W1 2.002013 1_555
O0 W4 2.002013 1_555
O1 W1 1.930720 1_555
O1 W6 2.014918 1_555
O2 W0 1.930720 1_555
O2 W6 2.014918 1_555
O3 W0 2.002013 1_555
O3 W10 2.002013 1_554
O4 W5 1.928344 1_565
O4 W2 2.018849 1_555
O5 W1 2.001258 1_545
O5 W5 2.001258 1_555
O6 W4 1.930720 1_555
O6 W2 2.014918 1_555
O7 W0 2.001258 1_545
O7 W8 2.001258 1_554
O8 W10 1.930720 1_555
O8 W2 2.014918 1_555
O9 W1 1.928344 1_545
O9 W11 2.018849 1_555
O10 W0 1.928344 1_545
O10 W11 2.018849 1_555
O11 W8 1.928344 1_565
O11 W2 2.018849 1_555
O12 W5 1.979380 1_565
O12 W4 1.979380 1_455
O13 W6 1.969643 1_455
O13 W11 1.969643 1_565
O14 W8 1.979380 1_565
O14 W10 1.979380 1_455
O15 W9 1.979380 1_655
O15 W0 1.979380 1_545
O16 W6 1.970210 1_555
O16 W11 1.970210 1_555
O17 W10 1.960866 1_555
O17 W8 1.960866 1_555
O18 W3 1.979380 1_655
O18 W1 1.979380 1_545
O19 W4 1.960866 1_555
O19 W5 1.960866 1_555
O20 W7 1.969643 1_655
O20 W2 1.969643 1_545
O21 W4 2.001258 1_455
O21 W3 2.001258 1_555
O22 W9 1.930720 1_555
O22 W11 2.014918 1_555
O23 W8 1.930720 1_555
O23 W7 2.014918 1_555
O24 W5 1.930720 1_555
O24 W7 2.014918 1_555
O25 W5 2.002013 1_555
O25 W3 2.002013 1_555
O26 W4 1.928344 1_455
O26 W7 2.018849 1_555
O27 W9 2.002013 1_555
O27 W8 2.002013 1_554
O28 W9 1.928344 1_655
O28 W6 2.018849 1_555
O29 W9 2.001258 1_555
O29 W10 2.001258 1_454
O30 W10 1.928344 1_455
O30 W7 2.018849 1_555
O31 W3 1.930720 1_555
O31 W11 2.014918 1_555
O32 W3 1.928344 1_655
O32 W6 2.018849 1_555
O33 W1 1.960866 1_555
O33 W3 1.960866 1_555
O34 W2 1.970210 1_555
O34 W7 1.970210 1_555
O35 W0 1.960866 1_555
O35 W9 1.960866 1_555
