# generated using pymatgen
data_KMgIn(MoO4)3
_symmetry_space_group_name_H-M   'P 1'
_cell_length_a   9.97016799
_cell_length_b   9.97016799
_cell_length_c   9.97016811
_cell_angle_alpha   58.21892008
_cell_angle_beta   58.21892008
_cell_angle_gamma   58.21892341
_symmetry_Int_Tables_number   1
_chemical_formula_structural   KMgIn(MoO4)3
_chemical_formula_sum   'K2 Mg2 In2 Mo6 O24'
_cell_volume   672.19967277
_cell_formula_units_Z   2
loop_
 _symmetry_equiv_pos_site_id
 _symmetry_equiv_pos_as_xyz
  1  'x, y, z'
loop_
 _atom_site_type_symbol
 _atom_site_label
 _atom_site_symmetry_multiplicity
 _atom_site_fract_x
 _atom_site_fract_y
 _atom_site_fract_z
 _atom_site_occupancy
  K  K0  1  0.50090200  0.50090200  0.50090200  1
  K  K1  1  0.00090200  0.00090200  0.00090200  1
  Mg  Mg0  1  0.14389700  0.14389700  0.14389700  1
  Mg  Mg1  1  0.64389700  0.64389700  0.64389700  1
  In  In0  1  0.35577500  0.35577500  0.35577500  1
  In  In1  1  0.85577500  0.85577500  0.85577500  1
  Mo  Mo0  1  0.03442900  0.46080000  0.75249600  1
  Mo  Mo1  1  0.46080000  0.75249600  0.03442900  1
  Mo  Mo2  1  0.25249600  0.96080000  0.53442900  1
  Mo  Mo3  1  0.75249600  0.03442900  0.46080000  1
  Mo  Mo4  1  0.53442900  0.25249600  0.96080000  1
  Mo  Mo5  1  0.96080000  0.53442900  0.25249600  1
  O  O0  1  0.00723700  0.63976200  0.77875600  1
  O  O1  1  0.13976200  0.50723700  0.27875600  1
  O  O2  1  0.06320100  0.27696900  0.93261000  1
  O  O3  1  0.43483300  0.57161400  0.22393800  1
  O  O4  1  0.27696900  0.93261000  0.06320100  1
  O  O5  1  0.07161400  0.93483300  0.72393800  1
  O  O6  1  0.49584900  0.71995800  0.85695400  1
  O  O7  1  0.63976200  0.77875600  0.00723700  1
  O  O8  1  0.22393800  0.43483300  0.57161400  1
  O  O9  1  0.27875600  0.13976200  0.50723700  1
  O  O10  1  0.21995800  0.99584900  0.35695400  1
  O  O11  1  0.43261000  0.77696900  0.56320100  1
  O  O12  1  0.57161400  0.22393800  0.43483300  1
  O  O13  1  0.77875600  0.00723700  0.63976200  1
  O  O14  1  0.71995800  0.85695400  0.49584900  1
  O  O15  1  0.77696900  0.56320100  0.43261000  1
  O  O16  1  0.35695400  0.21995800  0.99584900  1
  O  O17  1  0.50723700  0.27875600  0.13976200  1
  O  O18  1  0.93261000  0.06320100  0.27696900  1
  O  O19  1  0.72393800  0.07161400  0.93483300  1
  O  O20  1  0.56320100  0.43261000  0.77696900  1
  O  O21  1  0.93483300  0.72393800  0.07161400  1
  O  O22  1  0.85695400  0.49584900  0.71995800  1
  O  O23  1  0.99584900  0.35695400  0.21995800  1
loop_
_geom_bond_atom_site_label_1
_geom_bond_atom_site_label_2
_geom_bond_distance
_geom_bond_site_symmetry_2
K0 O15 2.794027 1_555
K0 O11 2.794027 1_555
K0 O20 2.794027 1_555
K0 O8 2.816439 1_555
K0 O12 2.816439 1_555
K0 O3 2.816439 1_555
K1 O2 2.794027 1_554
K1 O4 2.794027 1_545
K1 O18 2.794027 1_455
K1 O21 2.816439 1_445
K1 O19 2.816439 1_454
K1 O5 2.816439 1_544
Mg0 O16 2.116865 1_554
Mg0 O10 2.116865 1_545
Mg0 O23 2.116865 1_455
Mg0 O18 2.135901 1_455
Mg0 O2 2.135901 1_554
Mg0 O4 2.135901 1_545
Mg1 O14 2.116865 1_555
Mg1 O6 2.116865 1_555
Mg1 O22 2.116865 1_555
Mg1 O20 2.135901 1_555
Mg1 O15 2.135901 1_555
Mg1 O11 2.135901 1_555
In0 O9 2.145508 1_555
In0 O17 2.145508 1_555
In0 O1 2.145508 1_555
In0 O3 2.166976 1_555
In0 O8 2.166976 1_555
In0 O12 2.166976 1_555
In1 O7 2.145508 1_556
In1 O13 2.145508 1_565
In1 O0 2.145508 1_655
In1 O5 2.166976 1_655
In1 O21 2.166976 1_556
In1 O19 2.166976 1_565
Mo0 O2 1.785553 1_555
Mo0 O22 1.786688 1_455
Mo0 O0 1.798187 1_555
Mo0 O8 1.810148 1_555
Mo1 O4 1.785553 1_555
Mo1 O6 1.786688 1_554
Mo1 O7 1.798187 1_555
Mo1 O3 1.810148 1_555
Mo2 O11 1.785553 1_555
Mo2 O10 1.786688 1_555
Mo2 O9 1.798187 1_565
Mo2 O5 1.810148 1_555
Mo3 O18 1.785553 1_555
Mo3 O14 1.786688 1_545
Mo3 O13 1.798187 1_555
Mo3 O12 1.810148 1_555
Mo4 O20 1.785553 1_555
Mo4 O16 1.786688 1_555
Mo4 O17 1.798187 1_556
Mo4 O19 1.810148 1_555
Mo5 O15 1.785553 1_555
Mo5 O23 1.786688 1_555
Mo5 O1 1.798187 1_655
Mo5 O21 1.810148 1_555
