# generated using pymatgen
data_Gd3Y5O12
_symmetry_space_group_name_H-M   'P 1'
_cell_length_a   9.24481741
_cell_length_b   9.25212582
_cell_length_c   9.25235597
_cell_angle_alpha   109.48677069
_cell_angle_beta   109.41490990
_cell_angle_gamma   109.44901116
_symmetry_Int_Tables_number   1
_chemical_formula_structural   Gd3Y5O12
_chemical_formula_sum   'Gd6 Y10 O24'
_cell_volume   609.68741420
_cell_formula_units_Z   2
loop_
 _symmetry_equiv_pos_site_id
 _symmetry_equiv_pos_as_xyz
  1  'x, y, z'
loop_
 _atom_site_type_symbol
 _atom_site_label
 _atom_site_symmetry_multiplicity
 _atom_site_fract_x
 _atom_site_fract_y
 _atom_site_fract_z
 _atom_site_occupancy
  Gd  Gd0  1  0.46837944  0.25028599  0.71927038  1
  Gd  Gd1  1  0.53285575  0.74984504  0.28258631  1
  Gd  Gd2  1  0.03124605  0.74909512  0.78095114  1
  Gd  Gd3  1  0.75101675  0.21855132  0.46749145  1
  Gd  Gd4  1  0.24927091  0.28233984  0.03187117  1
  Gd  Gd5  1  0.28087363  0.03196809  0.24995925  1
  Y  Y0  1  0.50078753  0.99885021  0.99898927  1
  Y  Y1  1  0.71691088  0.96675535  0.75073847  1
  Y  Y2  1  0.74926688  0.71766449  0.96755784  1
  Y  Y3  1  0.24980350  0.78122551  0.53262237  1
  Y  Y4  1  0.96644565  0.25032311  0.21658896  1
  Y  Y5  1  0.49884987  0.50116034  0.50114535  1
  Y  Y6  1  0.00004409  0.99956307  0.49881182  1
  Y  Y7  1  0.21718328  0.46722922  0.74896161  1
  Y  Y8  1  0.99973916  0.50010766  0.00079671  1
  Y  Y9  1  0.78417129  0.53342955  0.25013266  1
  O  O0  1  0.73200116  0.46038136  0.97142383  1
  O  O1  1  0.51066769  0.03908952  0.77181474  1
  O  O2  1  0.26305388  0.03078226  0.98817290  1
  O  O3  1  0.45757309  0.72835401  0.49145301  1
  O  O4  1  0.23531393  0.22780909  0.76686212  1
  O  O5  1  0.04316486  0.53195057  0.27100378  1
  O  O6  1  0.76722797  0.73869231  0.72822097  1
  O  O7  1  0.98910420  0.76070360  0.52865968  1
  O  O8  1  0.46895212  0.51336042  0.74095385  1
  O  O9  1  0.72845268  0.27040685  0.23508102  1
  O  O10  1  0.96480306  0.22953588  0.95798251  1
  O  O11  1  0.22735686  0.98637538  0.45885430  1
  O  O12  1  0.27302203  0.72839234  0.75980830  1
  O  O13  1  0.77428386  0.01065117  0.54495005  1
  O  O14  1  0.53438926  0.48947713  0.26380378  1
  O  O15  1  0.02791941  0.76810352  0.04135221  1
  O  O16  1  0.01266161  0.23936728  0.46750489  1
  O  O17  1  0.22882153  0.26363135  0.27348784  1
  O  O18  1  0.76383800  0.77225471  0.22962000  1
  O  O19  1  0.96041332  0.46829265  0.73239395  1
  O  O20  1  0.54204937  0.27502202  0.51145715  1
  O  O21  1  0.73986534  0.96841880  0.01139723  1
  O  O22  1  0.26840561  0.54191503  0.02893500  1
  O  O23  1  0.48981451  0.95863788  0.22633212  1
loop_
_geom_bond_atom_site_label_1
_geom_bond_atom_site_label_2
_geom_bond_distance
_geom_bond_site_symmetry_2
Gd0 O0 2.280479 1_555
Gd0 O1 2.285504 1_555
Gd0 O4 2.296325 1_555
Gd0 O20 2.296436 1_555
Gd0 O11 2.369580 1_545
Gd0 O8 2.372665 1_555
Gd1 O23 2.281670 1_555
Gd1 O22 2.286272 1_555
Gd1 O18 2.304712 1_555
Gd1 O3 2.305836 1_555
Gd1 O14 2.361895 1_555
Gd1 O13 2.366509 1_565
Gd2 O7 2.280957 1_455
Gd2 O6 2.285902 1_455
Gd2 O19 2.296322 1_455
Gd2 O2 2.296981 1_565
Gd2 O15 2.367885 1_556
Gd2 O12 2.371026 1_555
Gd3 O19 2.276459 1_555
Gd3 O20 2.285469 1_555
Gd3 O13 2.313566 1_555
Gd3 O9 2.313964 1_555
Gd3 O23 2.358736 1_545
Gd3 O16 2.361679 1_655
Gd4 O2 2.280485 1_554
Gd4 O4 2.281285 1_554
Gd4 O10 2.312679 1_454
Gd4 O14 2.314596 1_555
Gd4 O22 2.358735 1_555
Gd4 O17 2.362332 1_555
Gd5 O11 2.280136 1_545
Gd5 O15 2.282033 1_545
Gd5 O23 2.300816 1_545
Gd5 O17 2.306127 1_555
Gd5 O2 2.368505 1_554
Gd5 O20 2.368782 1_555
O0 Y9 2.265494 1_556
O0 Y8 2.283817 1_556
O0 Y2 2.345360 1_555
O1 Y1 2.265220 1_545
O1 Y0 2.278599 1_545
O1 Y3 2.345911 1_545
O2 Y0 2.287695 1_545
O3 Y3 2.249809 1_555
O3 Y5 2.282399 1_555
O3 Y1 2.343656 1_555
O4 Y6 2.280784 1_545
O4 Y7 2.331516 1_555
O5 Y3 2.257195 1_555
O5 Y4 2.280923 1_455
O5 Y8 2.293642 1_455
O5 Y9 2.342344 1_455
O6 Y1 2.266485 1_555
O6 Y5 2.285303 1_555
O6 Y2 2.340832 1_555
O7 Y9 2.266694 1_555
O7 Y6 2.290703 1_655
O7 Y3 2.340498 1_655
O8 Y7 2.253745 1_555
O8 Y2 2.272923 1_555
O8 Y5 2.296427 1_555
O9 Y9 2.257915 1_555
O9 Y0 2.296592 1_544
O9 Y4 2.325081 1_555
O10 Y1 2.257791 1_545
O10 Y8 2.289752 1_556
O10 Y4 2.330064 1_556
O11 Y3 2.268049 1_555
O11 Y6 2.285800 1_555
O12 Y7 2.255714 1_555
O12 Y3 2.271317 1_555
O12 Y0 2.300302 1_555
O13 Y1 2.261737 1_545
O13 Y6 2.292266 1_645
O14 Y9 2.262053 1_555
O14 Y5 2.299316 1_555
O15 Y2 2.266654 1_454
O15 Y8 2.289288 1_455
O16 Y4 2.260286 1_455
O16 Y7 2.282607 1_555
O16 Y6 2.301962 1_545
O17 Y4 2.254960 1_455
O17 Y5 2.293621 1_555
O18 Y2 2.252302 1_554
O18 Y6 2.286047 1_655
O18 Y9 2.342338 1_555
O19 Y8 2.286196 1_556
O19 Y7 2.330907 1_655
O20 Y5 2.282641 1_555
O21 Y2 2.254863 1_554
O21 Y4 2.282339 1_565
O21 Y0 2.290166 1_554
O21 Y1 2.344018 1_554
O22 Y7 2.276910 1_554
O22 Y8 2.291212 1_455
O23 Y0 2.283001 1_554
