# generated using pymatgen
data_K8Li13(FeO4)4
_symmetry_space_group_name_H-M   'P 1'
_cell_length_a   5.69835500
_cell_length_b   8.81316348
_cell_length_c   10.95492617
_cell_angle_alpha   89.91568947
_cell_angle_beta   97.64180244
_cell_angle_gamma   93.01540727
_symmetry_Int_Tables_number   1
_chemical_formula_structural   K8Li13(FeO4)4
_chemical_formula_sum   'K8 Li13 Fe4 O16'
_cell_volume   544.51267836
_cell_formula_units_Z   1
loop_
 _symmetry_equiv_pos_site_id
 _symmetry_equiv_pos_as_xyz
  1  'x, y, z'
loop_
 _atom_site_type_symbol
 _atom_site_label
 _atom_site_symmetry_multiplicity
 _atom_site_fract_x
 _atom_site_fract_y
 _atom_site_fract_z
 _atom_site_occupancy
  K  K0  1  0.10286100  0.00298000  0.85573500  1
  K  K1  1  0.14224500  0.75104900  0.39338700  1
  K  K2  1  0.42190300  0.50515600  0.65790800  1
  K  K3  1  0.33286300  0.24732300  0.14607500  1
  K  K4  1  0.62528300  0.76140800  0.88463600  1
  K  K5  1  0.61233600  0.55925800  0.30683000  1
  K  K6  1  0.85890500  0.94032900  0.18188900  1
  K  K7  1  0.87139600  0.25275500  0.64712600  1
  Li  Li0  1  0.09959700  0.74932200  0.69594700  1
  Li  Li1  1  0.97246200  0.47412700  0.48620400  1
  Li  Li2  1  0.32616200  0.47783600  0.92860600  1
  Li  Li3  1  0.19925500  0.99611200  0.57133900  1
  Li  Li4  1  0.08123300  0.47828400  0.19118500  1
  Li  Li5  1  0.42423700  0.25731400  0.81015200  1
  Li  Li6  1  0.41875400  0.98346100  0.30004300  1
  Li  Li7  1  0.57100400  0.01720400  0.70245300  1
  Li  Li8  1  0.52902800  0.04836000  0.01804600  1
  Li  Li9  1  0.93690300  0.51463500  0.83521400  1
  Li  Li10  1  0.69676900  0.50257700  0.05906600  1
  Li  Li11  1  0.80684800  0.03086300  0.44045300  1
  Li  Li12  1  0.89068800  0.24713700  0.29832400  1
  Fe  Fe0  1  0.68005200  0.79368900  0.55744600  1
  Fe  Fe1  1  0.84147100  0.27320000  0.94871800  1
  Fe  Fe2  1  0.20051400  0.71625500  0.05669000  1
  Fe  Fe3  1  0.33056900  0.22568700  0.44387000  1
  O  O0  1  0.11682300  0.31862800  0.85763600  1
  O  O1  1  0.13476200  0.69604200  0.87914000  1
  O  O2  1  0.12637900  0.05823300  0.38131900  1
  O  O3  1  0.15945300  0.40487100  0.37823700  1
  O  O4  1  0.39920400  0.81817600  0.63273600  1
  O  O5  1  0.33811100  0.92115400  0.10548500  1
  O  O6  1  0.37295400  0.19713100  0.61692000  1
  O  O7  1  0.63155900  0.45194200  0.87518300  1
  O  O8  1  0.37064600  0.53931600  0.10017000  1
  O  O9  1  0.62293600  0.08284700  0.87116800  1
  O  O10  1  0.61433200  0.19983300  0.37640900  1
  O  O11  1  0.62360800  0.84017300  0.38801100  1
  O  O12  1  0.85590500  0.60979400  0.58433700  1
  O  O13  1  0.88903900  0.95438200  0.62546500  1
  O  O14  1  0.83093900  0.28420500  0.12621800  1
  O  O15  1  0.93315300  0.66162700  0.13928000  1
loop_
_geom_bond_atom_site_label_1
_geom_bond_atom_site_label_2
_geom_bond_distance
_geom_bond_site_symmetry_2
K0 O13 2.676249 1_445
K0 O1 2.730132 1_545
K0 O0 2.778838 1_555
K0 O9 2.885986 1_455
K0 O5 2.987171 1_546
K1 O2 2.715961 1_565
K1 Li6 2.794030 1_555
K1 Li1 2.816408 1_455
K1 O11 2.821436 1_555
K1 O4 2.874278 1_555
K1 Li3 2.888025 1_555
K1 O15 2.969070 1_455
K1 O12 3.045378 1_455
K1 O3 3.063101 1_555
K1 O11 3.090709 1_455
K2 O7 2.571403 1_555
K2 O6 2.745814 1_555
K2 O4 2.780107 1_555
K2 O12 2.811443 1_555
K3 O8 2.624546 1_555
K3 O10 2.847077 1_555
K3 O14 2.874981 1_455
K3 O14 2.876694 1_555
K4 O7 2.731786 1_555
K4 O1 2.816800 1_555
K4 O9 2.837159 1_565
K4 O4 2.939950 1_555
K4 O1 2.997761 1_655
K5 O8 2.489892 1_555
K5 O11 2.626582 1_555
K6 O15 2.568125 1_555
K6 Li8 2.635815 1_565
K6 O2 2.670270 1_665
K6 O11 2.889730 1_555
K6 O5 2.970390 1_555
K6 O5 2.973653 1_655
K6 O14 3.098647 1_565
K7 O0 2.582997 1_655
K7 O13 2.649011 1_545
K7 O6 2.832161 1_555
K7 O6 2.986254 1_655
Li0 O4 1.991658 1_555
Li0 O1 2.046541 1_555
Li0 O12 2.075718 1_455
Li0 O13 2.297713 1_455
Li1 O12 1.817602 1_555
Li1 O3 1.820056 1_655
Li2 O0 1.891206 1_555
Li2 O7 1.932912 1_555
Li2 O8 1.937031 1_556
Li2 O1 2.289514 1_555
Li3 O13 1.954842 1_455
Li3 O6 2.013534 1_565
Li3 O4 2.047150 1_555
Li3 O2 2.143859 1_565
Li4 O15 1.912954 1_455
Li4 O8 2.084625 1_555
Li4 O3 2.144711 1_555
Li4 O14 2.223364 1_455
Li5 O0 1.993490 1_555
Li5 O9 2.017892 1_555
Li5 O7 2.100474 1_555
Li5 O6 2.161069 1_555
Li6 O11 1.933490 1_555
Li6 O2 2.124740 1_565
Li6 O5 2.184455 1_555
Li6 O10 2.260843 1_565
Li7 O9 1.917810 1_555
Li7 O4 2.059824 1_545
Li7 O6 2.137480 1_555
Li7 O13 2.194460 1_545
Li8 O9 1.782746 1_554
Li8 O5 1.871795 1_545
Li9 O7 1.904002 1_555
Li9 O1 1.930579 1_655
Li9 O0 2.052712 1_655
Li10 O15 2.010378 1_555
Li10 O8 2.011818 1_555
Li10 O7 2.044810 1_554
Li10 O14 2.197873 1_555
Li11 O10 1.969111 1_555
Li11 O11 1.975694 1_545
Li11 O2 2.014993 1_655
Li11 O13 2.135018 1_545
Li12 O14 1.901729 1_555
Li12 O10 1.916665 1_555
Li12 O3 2.113629 1_655
Li12 O2 2.303945 1_655
Fe0 O13 1.889116 1_555
Fe0 O11 1.889289 1_555
Fe0 O4 1.917283 1_555
Fe0 O12 1.951548 1_555
Fe1 O14 1.956091 1_556
Fe1 O0 1.991717 1_655
Fe1 O7 2.121197 1_555
Fe1 O9 2.142406 1_555
Fe2 O8 1.905916 1_555
Fe2 O15 1.913022 1_455
Fe2 O1 1.937912 1_554
Fe2 O5 1.975820 1_555
Fe3 O10 1.889390 1_555
Fe3 O6 1.897039 1_555
Fe3 O2 1.900433 1_555
Fe3 O3 1.983369 1_555
