# generated using pymatgen
data_Li(FeO2)2
_symmetry_space_group_name_H-M   'P 1'
_cell_length_a   5.93750500
_cell_length_b   5.93750500
_cell_length_c   8.43829100
_cell_angle_alpha   90.00000000
_cell_angle_beta   90.00000000
_cell_angle_gamma   90.00000000
_symmetry_Int_Tables_number   1
_chemical_formula_structural   Li(FeO2)2
_chemical_formula_sum   'Li4 Fe8 O16'
_cell_volume   297.48322085
_cell_formula_units_Z   4
loop_
 _symmetry_equiv_pos_site_id
 _symmetry_equiv_pos_as_xyz
  1  'x, y, z'
loop_
 _atom_site_type_symbol
 _atom_site_label
 _atom_site_symmetry_multiplicity
 _atom_site_fract_x
 _atom_site_fract_y
 _atom_site_fract_z
 _atom_site_occupancy
  Li  Li0  1  0.50000000  0.73624100  0.00000000  1
  Li  Li1  1  0.50000000  0.26375900  0.50000000  1
  Li  Li2  1  0.73624100  0.50000000  0.25000000  1
  Li  Li3  1  0.26375900  0.50000000  0.75000000  1
  Fe  Fe0  1  0.73872500  0.00000000  0.25000000  1
  Fe  Fe1  1  0.75503200  0.75503200  0.62500000  1
  Fe  Fe2  1  0.75503200  0.24496800  0.87500000  1
  Fe  Fe3  1  0.00000000  0.73872500  0.00000000  1
  Fe  Fe4  1  0.00000000  0.26127500  0.50000000  1
  Fe  Fe5  1  0.24496800  0.75503200  0.37500000  1
  Fe  Fe6  1  0.24496800  0.24496800  0.12500000  1
  Fe  Fe7  1  0.26127500  0.00000000  0.75000000  1
  O  O0  1  0.51511500  0.76563500  0.25814100  1
  O  O1  1  0.51511500  0.23436500  0.24185900  1
  O  O2  1  0.76563500  0.51511500  0.99185900  1
  O  O3  1  0.76563500  0.48488500  0.50814100  1
  O  O4  1  0.76519000  0.98594900  0.01381200  1
  O  O5  1  0.76519000  0.01405100  0.48618800  1
  O  O6  1  0.98594900  0.76519000  0.23618800  1
  O  O7  1  0.98594900  0.23481000  0.26381200  1
  O  O8  1  0.01405100  0.76519000  0.76381200  1
  O  O9  1  0.01405100  0.23481000  0.73618800  1
  O  O10  1  0.23481000  0.01405100  0.51381200  1
  O  O11  1  0.23481000  0.98594900  0.98618800  1
  O  O12  1  0.23436500  0.51511500  0.00814100  1
  O  O13  1  0.23436500  0.48488500  0.49185900  1
  O  O14  1  0.48488500  0.76563500  0.74185900  1
  O  O15  1  0.48488500  0.23436500  0.75814100  1
loop_
_geom_bond_atom_site_label_1
_geom_bond_atom_site_label_2
_geom_bond_distance
_geom_bond_site_symmetry_2
Li0 O2 2.053317 1_554
Li0 O12 2.053317 1_555
Li0 O4 2.165889 1_555
Li0 O11 2.165889 1_554
Li0 O14 2.187091 1_554
Li0 O0 2.187091 1_555
Li1 O3 2.053317 1_555
Li1 O13 2.053317 1_555
Li1 O5 2.165889 1_555
Li1 O10 2.165889 1_555
Li1 O15 2.187091 1_555
Li1 O1 2.187091 1_555
Li2 O0 2.053317 1_555
Li2 O1 2.053317 1_555
Li2 O6 2.165889 1_555
Li2 O7 2.165889 1_555
Li2 O2 2.187091 1_554
Li2 O3 2.187091 1_555
Li3 O14 2.053317 1_555
Li3 O15 2.053317 1_555
Li3 O8 2.165889 1_555
Li3 O9 2.165889 1_555
Li3 O12 2.187091 1_556
Li3 O13 2.187091 1_555
Fe0 O1 1.924542 1_555
Fe0 O0 1.924542 1_545
Fe0 O5 2.000948 1_555
Fe0 O4 2.000948 1_545
Fe0 O6 2.027819 1_545
Fe0 O7 2.027819 1_555
Fe1 O14 1.883919 1_555
Fe1 O3 1.883919 1_555
Fe1 O8 1.934137 1_655
Fe1 O5 1.934137 1_565
Fe2 O2 1.883919 1_555
Fe2 O15 1.883919 1_555
Fe2 O4 1.934137 1_546
Fe2 O9 1.934137 1_655
Fe3 O12 1.924542 1_555
Fe3 O2 1.924542 1_454
Fe3 O8 2.000948 1_554
Fe3 O6 2.000948 1_455
Fe3 O4 2.027819 1_455
Fe3 O11 2.027819 1_554
Fe4 O13 1.924542 1_555
Fe4 O3 1.924542 1_455
Fe4 O9 2.000948 1_555
Fe4 O7 2.000948 1_455
Fe4 O5 2.027819 1_455
Fe4 O10 2.027819 1_555
Fe5 O0 1.883919 1_555
Fe5 O13 1.883919 1_555
Fe5 O6 1.934137 1_455
Fe5 O10 1.934137 1_565
Fe6 O1 1.883919 1_555
Fe6 O12 1.883919 1_555
Fe6 O7 1.934137 1_455
Fe6 O11 1.934137 1_544
Fe7 O14 1.924542 1_545
Fe7 O15 1.924542 1_555
Fe7 O10 2.000948 1_555
Fe7 O11 2.000948 1_545
Fe7 O8 2.027819 1_545
Fe7 O9 2.027819 1_555
