# generated using pymatgen
data_LiFe2(BO3)2
_symmetry_space_group_name_H-M   'P 1'
_cell_length_a   9.04158200
_cell_length_b   5.28525800
_cell_length_c   11.20364009
_cell_angle_alpha   64.09151776
_cell_angle_beta   90.00000000
_cell_angle_gamma   90.00000000
_symmetry_Int_Tables_number   1
_chemical_formula_structural   LiFe2(BO3)2
_chemical_formula_sum   'Li4 Fe8 B8 O24'
_cell_volume   481.57907108
_cell_formula_units_Z   4
loop_
 _symmetry_equiv_pos_site_id
 _symmetry_equiv_pos_as_xyz
  1  'x, y, z'
loop_
 _atom_site_type_symbol
 _atom_site_label
 _atom_site_symmetry_multiplicity
 _atom_site_fract_x
 _atom_site_fract_y
 _atom_site_fract_z
 _atom_site_occupancy
  Li  Li0  1  0.25635800  0.44239600  0.90929600  1
  Li  Li1  1  0.74364200  0.44239600  0.40929600  1
  Li  Li2  1  0.76088100  0.00462600  0.15196400  1
  Li  Li3  1  0.23911900  0.00462600  0.65196400  1
  Fe  Fe0  1  0.41746800  0.96662500  0.88205300  1
  Fe  Fe1  1  0.42115500  0.53409700  0.62759400  1
  Fe  Fe2  1  0.57884500  0.53409700  0.12759400  1
  Fe  Fe3  1  0.58253200  0.96662500  0.38205300  1
  Fe  Fe4  1  0.90068400  0.02876000  0.63658500  1
  Fe  Fe5  1  0.08753800  0.45755800  0.37416600  1
  Fe  Fe6  1  0.91246200  0.45755800  0.87416600  1
  Fe  Fe7  1  0.09931600  0.02876000  0.13658500  1
  B  B0  1  0.41565200  0.46240100  0.37799700  1
  B  B1  1  0.57388700  0.05355500  0.62231300  1
  B  B2  1  0.42611300  0.05355500  0.12231300  1
  B  B3  1  0.58434800  0.46240100  0.87799700  1
  B  B4  1  0.91277400  0.52601500  0.13270800  1
  B  B5  1  0.92062300  0.95291900  0.37702300  1
  B  B6  1  0.07937700  0.95291900  0.87702300  1
  B  B7  1  0.08722600  0.52601500  0.63270800  1
  O  O0  1  0.28414700  0.33853900  0.37712500  1
  O  O1  1  0.43567500  0.82876900  0.09059400  1
  O  O2  1  0.29741500  0.19896100  0.10335200  1
  O  O3  1  0.44336600  0.13344400  0.66538300  1
  O  O4  1  0.54613500  0.39184100  0.32980300  1
  O  O5  1  0.45386500  0.39184100  0.82980300  1
  O  O6  1  0.43028000  0.65130600  0.43224700  1
  O  O7  1  0.56972000  0.65130600  0.93224700  1
  O  O8  1  0.70258500  0.19896100  0.60335200  1
  O  O9  1  0.56432500  0.82876900  0.59059400  1
  O  O10  1  0.55663400  0.13344400  0.16538300  1
  O  O11  1  0.77822500  0.64354400  0.14122300  1
  O  O12  1  0.71585300  0.33853900  0.87712500  1
  O  O13  1  0.94913800  0.84425800  0.85145200  1
  O  O14  1  0.92627700  0.17661600  0.41289900  1
  O  O15  1  0.78643200  0.84733600  0.36156300  1
  O  O16  1  0.91910400  0.31694000  0.08704500  1
  O  O17  1  0.08089600  0.31694000  0.58704500  1
  O  O18  1  0.03924900  0.61382500  0.17485600  1
  O  O19  1  0.96075100  0.61382500  0.67485600  1
  O  O20  1  0.05086200  0.84425800  0.35145200  1
  O  O21  1  0.21356800  0.84733600  0.86156300  1
  O  O22  1  0.07372300  0.17661600  0.91289900  1
  O  O23  1  0.22177500  0.64354400  0.64122300  1
loop_
_geom_bond_atom_site_label_1
_geom_bond_atom_site_label_2
_geom_bond_distance
_geom_bond_site_symmetry_2
Li0 O21 2.003995 1_555
Li0 O2 2.018809 1_556
Li0 O5 2.064347 1_555
Li0 O22 2.156879 1_555
Li1 O15 2.003995 1_555
Li1 O8 2.018809 1_555
Li1 O4 2.064347 1_555
Li1 O14 2.156879 1_555
Li2 O11 1.970227 1_545
Li2 O10 1.996484 1_555
Li2 O16 2.061824 1_555
Li2 O15 2.133754 1_545
Li3 O23 1.970227 1_545
Li3 O3 1.996484 1_555
Li3 O17 2.061824 1_555
Li3 O21 2.133754 1_545
Fe0 O21 1.993854 1_555
Fe0 O7 2.041972 1_555
Fe0 O5 2.086150 1_565
Fe0 O1 2.128193 1_556
Fe0 O3 2.203314 1_565
Fe1 O23 1.919604 1_555
Fe1 O9 1.925851 1_555
Fe1 O3 1.979942 1_555
Fe1 O6 1.998934 1_555
Fe1 O5 2.072840 1_555
Fe2 O11 1.919604 1_555
Fe2 O1 1.925851 1_555
Fe2 O10 1.979942 1_555
Fe2 O7 1.998934 1_554
Fe2 O4 2.072840 1_555
Fe3 O15 1.993854 1_555
Fe3 O6 2.041972 1_555
Fe3 O4 2.086150 1_565
Fe3 O9 2.128193 1_555
Fe3 O10 2.203314 1_565
Fe4 O8 1.965524 1_555
Fe4 O19 2.113411 1_545
Fe4 O17 2.131693 1_655
Fe4 O13 2.210548 1_545
Fe4 O14 2.287652 1_555
Fe5 O0 1.881126 1_555
Fe5 O20 1.974177 1_555
Fe5 O14 1.988954 1_455
Fe5 O18 2.060920 1_555
Fe5 O17 2.166863 1_555
Fe6 O12 1.881126 1_555
Fe6 O13 1.974177 1_555
Fe6 O22 1.988954 1_655
Fe6 O19 2.060920 1_555
Fe6 O16 2.166863 1_556
Fe7 O2 1.965524 1_555
Fe7 O18 2.113411 1_545
Fe7 O16 2.131693 1_455
Fe7 O20 2.210548 1_545
Fe7 O22 2.287652 1_554
B0 O0 1.359409 1_555
B0 O6 1.383484 1_555
B0 O4 1.413664 1_555
B1 O8 1.359085 1_555
B1 O9 1.383536 1_545
B1 O3 1.407781 1_555
B2 O2 1.359085 1_555
B2 O1 1.383536 1_545
B2 O10 1.407781 1_555
B3 O12 1.359409 1_555
B3 O7 1.383484 1_555
B3 O5 1.413664 1_555
B4 O11 1.388056 1_555
B4 O18 1.391960 1_655
B4 O16 1.407151 1_555
B5 O15 1.377665 1_555
B5 O20 1.393678 1_655
B5 O14 1.406155 1_565
B6 O21 1.377665 1_555
B6 O13 1.393678 1_455
B6 O22 1.406155 1_565
B7 O23 1.388056 1_555
B7 O19 1.391960 1_455
B7 O17 1.407151 1_555
