# generated using pymatgen
data_BaTi14O28
_symmetry_space_group_name_H-M   'P 1'
_cell_length_a   8.51798200
_cell_length_b   10.39656220
_cell_length_c   13.60860258
_cell_angle_alpha   95.68209381
_cell_angle_beta   96.25299856
_cell_angle_gamma   112.09616979
_symmetry_Int_Tables_number   1
_chemical_formula_structural   BaTi14O28
_chemical_formula_sum   'Ba2 Ti28 O56'
_cell_volume   1097.09606407
_cell_formula_units_Z   2
loop_
 _symmetry_equiv_pos_site_id
 _symmetry_equiv_pos_as_xyz
  1  'x, y, z'
loop_
 _atom_site_type_symbol
 _atom_site_label
 _atom_site_symmetry_multiplicity
 _atom_site_fract_x
 _atom_site_fract_y
 _atom_site_fract_z
 _atom_site_occupancy
  Ba  Ba0  1  0.71525500  0.78621400  0.71438600  1
  Ba  Ba1  1  0.28474500  0.21378600  0.28561400  1
  Ti  Ti0  1  0.31352500  0.48428400  0.83499900  1
  Ti  Ti1  1  0.16589400  0.62585100  0.69303000  1
  Ti  Ti2  1  0.03718100  0.13804100  0.85135400  1
  Ti  Ti3  1  0.88464000  0.27176200  0.70594900  1
  Ti  Ti4  1  0.54694300  0.29580600  0.72810500  1
  Ti  Ti5  1  0.26141100  0.58110800  0.44163400  1
  Ti  Ti6  1  0.39451300  0.43051400  0.58204600  1
  Ti  Ti7  1  0.26527900  0.94230800  0.74025500  1
  Ti  Ti8  1  0.11949300  0.08294500  0.59816400  1
  Ti  Ti9  1  0.96730100  0.22471900  0.45896900  1
  Ti  Ti10  1  0.03269900  0.77528100  0.54103100  1
  Ti  Ti11  1  0.88050700  0.91705500  0.40183600  1
  Ti  Ti12  1  0.73858900  0.41889200  0.55836600  1
  Ti  Ti13  1  0.60548700  0.56948600  0.41795400  1
  Ti  Ti14  1  0.11536000  0.72823800  0.29405100  1
  Ti  Ti15  1  0.96281900  0.86195900  0.14864600  1
  Ti  Ti16  1  0.83410600  0.37414900  0.30697000  1
  Ti  Ti17  1  0.68647500  0.51571600  0.16500100  1
  Ti  Ti18  1  0.73472100  0.05769200  0.25974500  1
  Ti  Ti19  1  0.60491800  0.19732500  0.11733600  1
  Ti  Ti20  1  0.45713800  0.34171500  0.97777100  1
  Ti  Ti21  1  0.45305700  0.70419400  0.27189500  1
  Ti  Ti22  1  0.31386000  0.84445400  0.13392900  1
  Ti  Ti23  1  0.17157000  0.98686700  0.99076500  1
  Ti  Ti24  1  0.82843000  0.01313300  0.00923500  1
  Ti  Ti25  1  0.68614000  0.15554600  0.86607100  1
  Ti  Ti26  1  0.54286200  0.65828500  0.02222900  1
  Ti  Ti27  1  0.39508200  0.80267500  0.88266400  1
  O  O0  1  0.19813700  0.61567900  0.83500700  1
  O  O1  1  0.09870600  0.32012400  0.80354800  1
  O  O2  1  0.95674200  0.46062100  0.66055200  1
  O  O3  1  0.45758900  0.36993500  0.83445000  1
  O  O4  1  0.31888500  0.51615000  0.69114500  1
  O  O5  1  0.11255600  0.05026100  0.74082300  1
  O  O6  1  0.97370700  0.19528000  0.59874600  1
  O  O7  1  0.48173200  0.61451000  0.52908700  1
  O  O8  1  0.62028500  0.47329300  0.66836800  1
  O  O9  1  0.76211800  0.32363300  0.81119500  1
  O  O10  1  0.47531400  0.10591800  0.77132200  1
  O  O11  1  0.33385800  0.24678100  0.62862100  1
  O  O12  1  0.19087600  0.38750400  0.48140000  1
  O  O13  1  0.04325800  0.53937900  0.33944800  1
  O  O14  1  0.05147000  0.75835100  0.69334200  1
  O  O15  1  0.90957400  0.90037800  0.55197300  1
  O  O16  1  0.38181200  0.80916800  0.73948100  1
  O  O17  1  0.23454700  0.95038000  0.59654900  1
  O  O18  1  0.94853000  0.24164900  0.30665800  1
  O  O19  1  0.09042600  0.09962200  0.44802700  1
  O  O20  1  0.80912400  0.61249600  0.51860000  1
  O  O21  1  0.81110200  0.09272400  0.76290500  1
  O  O22  1  0.51826800  0.38549000  0.47091300  1
  O  O23  1  0.66940300  0.24301700  0.62093700  1
  O  O24  1  0.37971500  0.52670700  0.33163200  1
  O  O25  1  0.02629300  0.80472000  0.40125400  1
  O  O26  1  0.17374700  0.65525700  0.54966900  1
  O  O27  1  0.88744400  0.94973900  0.25917700  1
  O  O28  1  0.82625300  0.34474300  0.45033100  1
  O  O29  1  0.68111500  0.48385000  0.30885500  1
  O  O30  1  0.54241100  0.63006500  0.16555000  1
  O  O31  1  0.33059700  0.75698300  0.37906300  1
  O  O32  1  0.18889800  0.90727600  0.23709500  1
  O  O33  1  0.05149900  0.04307200  0.09914900  1
  O  O34  1  0.90581700  0.18236500  0.95405000  1
  O  O35  1  0.90129400  0.67987600  0.19645200  1
  O  O36  1  0.76545300  0.04962000  0.40345100  1
  O  O37  1  0.61818800  0.19083200  0.26051900  1
  O  O38  1  0.48012700  0.32717000  0.12365800  1
  O  O39  1  0.34213400  0.47338600  0.97696200  1
  O  O40  1  0.80186300  0.38432100  0.16499300  1
  O  O41  1  0.65786600  0.52661400  0.02303800  1
  O  O42  1  0.66614200  0.75321900  0.37137900  1
  O  O43  1  0.52468600  0.89408200  0.22867800  1
  O  O44  1  0.38424300  0.03572000  0.09257200  1
  O  O45  1  0.24287700  0.17650000  0.94885000  1
  O  O46  1  0.23788200  0.67636700  0.18880500  1
  O  O47  1  0.09418300  0.81763500  0.04595000  1
  O  O48  1  0.94850100  0.95692800  0.90085100  1
  O  O49  1  0.74436900  0.08435700  0.12039200  1
  O  O50  1  0.60086400  0.22765500  0.97707000  1
  O  O51  1  0.39913600  0.77234500  0.02293000  1
  O  O52  1  0.25563100  0.91564300  0.87960800  1
  O  O53  1  0.75712300  0.82350000  0.05115000  1
  O  O54  1  0.61575700  0.96428000  0.90742800  1
  O  O55  1  0.51987300  0.67283000  0.87634200  1
loop_
_geom_bond_atom_site_label_1
_geom_bond_atom_site_label_2
_geom_bond_distance
_geom_bond_site_symmetry_2
Ba0 O21 2.960725 1_565
Ba0 O7 2.974341 1_555
Ba0 O55 2.975650 1_555
Ba0 O15 2.978574 1_555
Ba0 O48 2.982198 1_555
Ba0 O16 2.990945 1_555
Ba0 O8 3.022719 1_555
Ba0 O14 3.025568 1_655
Ba1 O32 2.960725 1_545
Ba1 O22 2.974341 1_555
Ba1 O38 2.975650 1_555
Ba1 O19 2.978574 1_555
Ba1 O33 2.982198 1_555
Ba1 O37 2.990945 1_555
Ba1 O24 3.022719 1_555
Ba1 O18 3.025568 1_455
O0 Ti1 1.940715 1_555
O0 Ti0 1.960168 1_555
O0 Ti27 2.018452 1_555
O1 Ti0 1.944103 1_555
O1 Ti2 1.962971 1_555
O1 Ti3 1.998041 1_455
O2 Ti1 1.922476 1_655
O2 Ti3 2.007425 1_555
O2 Ti12 2.070297 1_555
O3 Ti4 1.930816 1_555
O3 Ti20 2.001061 1_555
O3 Ti0 2.004251 1_555
O4 Ti6 1.946802 1_555
O4 Ti0 2.020089 1_555
O4 Ti1 2.029619 1_555
O5 Ti2 1.971542 1_555
O5 Ti8 2.007103 1_555
O5 Ti7 2.012691 1_545
O6 Ti3 1.949725 1_555
O6 Ti9 1.954518 1_555
O6 Ti8 1.999382 1_655
O7 Ti5 2.000065 1_555
O7 Ti6 2.012731 1_555
O7 Ti13 2.048392 1_555
O8 Ti4 1.999131 1_555
O8 Ti6 2.009258 1_555
O8 Ti12 2.041087 1_555
O9 Ti25 1.882347 1_555
O9 Ti4 1.951017 1_555
O9 Ti3 2.006848 1_555
O10 Ti7 1.917351 1_545
O10 Ti25 1.954607 1_555
O10 Ti4 2.004355 1_555
O11 Ti8 1.939768 1_555
O11 Ti6 1.971318 1_555
O11 Ti4 2.004786 1_555
O12 Ti6 1.965278 1_555
O12 Ti9 1.982545 1_455
O12 Ti5 2.020389 1_555
O13 Ti16 1.922476 1_455
O13 Ti14 2.007425 1_555
O13 Ti5 2.070297 1_555
O14 Ti1 1.964041 1_555
O14 Ti7 2.065590 1_555
O14 Ti10 2.091415 1_555
O15 Ti10 1.958434 1_655
O15 Ti8 2.039761 1_665
O15 Ti11 2.063514 1_555
O16 Ti27 1.948813 1_555
O16 Ti7 1.983557 1_555
O16 Ti1 2.070174 1_555
O17 Ti7 1.958978 1_555
O17 Ti8 1.968574 1_565
O17 Ti10 1.982637 1_555
O18 Ti16 1.964041 1_555
O18 Ti18 2.065590 1_555
O18 Ti9 2.091415 1_555
O19 Ti9 1.958434 1_455
O19 Ti11 2.039761 1_445
O19 Ti8 2.063514 1_555
O20 Ti13 1.965278 1_555
O20 Ti10 1.982545 1_655
O20 Ti12 2.020389 1_555
O21 Ti3 1.993024 1_555
O21 Ti2 2.019762 1_655
O21 Ti25 2.048811 1_555
O22 Ti12 2.000065 1_555
O22 Ti13 2.012731 1_555
O22 Ti6 2.048392 1_555
O23 Ti3 1.961201 1_555
O23 Ti12 2.005665 1_555
O23 Ti4 2.029737 1_555
O24 Ti21 1.999131 1_555
O24 Ti13 2.009258 1_555
O24 Ti5 2.041087 1_555
O25 Ti14 1.949725 1_555
O25 Ti10 1.954518 1_555
O25 Ti11 1.999382 1_455
O26 Ti5 1.939372 1_555
O26 Ti1 2.008798 1_555
O26 Ti10 2.034835 1_555
O27 Ti15 1.971542 1_555
O27 Ti11 2.007103 1_555
O27 Ti18 2.012691 1_565
O28 Ti12 1.939372 1_555
O28 Ti16 2.008798 1_555
O28 Ti9 2.034835 1_555
O29 Ti13 1.946802 1_555
O29 Ti17 2.020089 1_555
O29 Ti16 2.029619 1_555
O30 Ti21 1.930816 1_555
O30 Ti26 2.001061 1_555
O30 Ti17 2.004251 1_555
O31 Ti14 1.961201 1_555
O31 Ti5 2.005665 1_555
O31 Ti21 2.029737 1_555
O32 Ti14 1.993024 1_555
O32 Ti15 2.019762 1_455
O32 Ti22 2.048811 1_555
O33 Ti15 1.965134 1_445
O33 Ti23 2.042194 1_544
O33 Ti24 2.043926 1_455
O34 Ti24 1.895007 1_556
O34 Ti2 2.004647 1_655
O34 Ti25 2.016422 1_555
O35 Ti17 1.944103 1_555
O35 Ti15 1.962971 1_555
O35 Ti14 1.998041 1_655
O36 Ti18 1.958978 1_555
O36 Ti11 1.968574 1_545
O36 Ti9 1.982637 1_555
O37 Ti19 1.948813 1_555
O37 Ti18 1.983557 1_555
O37 Ti16 2.070174 1_555
O38 Ti20 1.999935 1_554
O38 Ti19 2.009008 1_555
O38 Ti17 2.054885 1_555
O39 Ti0 1.940642 1_555
O39 Ti20 1.960409 1_555
O39 Ti26 2.015324 1_556
O40 Ti16 1.940715 1_555
O40 Ti17 1.960168 1_555
O40 Ti19 2.018452 1_555
O41 Ti17 1.940642 1_555
O41 Ti26 1.960409 1_555
O41 Ti20 2.015324 1_554
O42 Ti11 1.939768 1_555
O42 Ti13 1.971318 1_555
O42 Ti21 2.004786 1_555
O43 Ti18 1.917351 1_565
O43 Ti22 1.954607 1_555
O43 Ti21 2.004355 1_555
O44 Ti19 1.960522 1_555
O44 Ti22 2.007132 1_545
O44 Ti23 2.020113 1_544
O45 Ti20 1.946123 1_555
O45 Ti2 1.962557 1_555
O45 Ti23 1.994612 1_545
O46 Ti22 1.882347 1_555
O46 Ti21 1.951017 1_555
O46 Ti14 2.006848 1_555
O47 Ti23 1.895007 1_554
O47 Ti15 2.004647 1_455
O47 Ti22 2.016422 1_555
O48 Ti2 1.965134 1_665
O48 Ti24 2.042194 1_566
O48 Ti23 2.043926 1_655
O49 Ti24 1.939661 1_555
O49 Ti18 1.949577 1_555
O49 Ti19 1.959738 1_555
O50 Ti25 1.948294 1_555
O50 Ti19 1.963990 1_556
O50 Ti20 1.999397 1_555
O51 Ti22 1.948294 1_555
O51 Ti27 1.963990 1_554
O51 Ti26 1.999397 1_555
O52 Ti23 1.939661 1_555
O52 Ti7 1.949577 1_555
O52 Ti27 1.959738 1_555
O53 Ti26 1.946123 1_555
O53 Ti15 1.962557 1_555
O53 Ti24 1.994612 1_565
O54 Ti27 1.960522 1_555
O54 Ti25 2.007132 1_565
O54 Ti24 2.020113 1_566
O55 Ti26 1.999935 1_556
O55 Ti27 2.009008 1_555
O55 Ti0 2.054885 1_555
