# generated using pymatgen
data_Li5(CoO2)4
_symmetry_space_group_name_H-M   'P 1'
_cell_length_a   5.79980598
_cell_length_b   5.81164185
_cell_length_c   9.54231346
_cell_angle_alpha   90.04750822
_cell_angle_beta   89.93250759
_cell_angle_gamma   119.92358148
_symmetry_Int_Tables_number   1
_chemical_formula_structural   Li5(CoO2)4
_chemical_formula_sum   'Li10 Co8 O16'
_cell_volume   278.75984281
_cell_formula_units_Z   2
loop_
 _symmetry_equiv_pos_site_id
 _symmetry_equiv_pos_as_xyz
  1  'x, y, z'
loop_
 _atom_site_type_symbol
 _atom_site_label
 _atom_site_symmetry_multiplicity
 _atom_site_fract_x
 _atom_site_fract_y
 _atom_site_fract_z
 _atom_site_occupancy
  Li  Li0  1  0.20533500  0.80160400  0.05739600  1
  Li  Li1  1  0.62621500  0.80117200  0.05862600  1
  Li  Li2  1  0.34413700  0.66069700  0.27814900  1
  Li  Li3  1  0.01456100  0.00104000  0.47978000  1
  Li  Li4  1  0.20535800  0.38071400  0.05900700  1
  Li  Li5  1  0.82461600  0.61882900  0.55917000  1
  Li  Li6  1  0.40402900  0.19861700  0.55766500  1
  Li  Li7  1  0.68332600  0.33907100  0.77994100  1
  Li  Li8  1  0.82502200  0.19935300  0.55871000  1
  Li  Li9  1  0.01349200  0.99874300  0.98000700  1
  Co  Co0  1  0.35163200  0.67112200  0.52673900  1
  Co  Co1  1  0.68039800  0.32922100  0.02693200  1
  Co  Co2  1  0.68016300  0.83612300  0.78653100  1
  Co  Co3  1  0.18444700  0.34043200  0.78661300  1
  Co  Co4  1  0.84427400  0.65973100  0.28649800  1
  Co  Co5  1  0.84416700  0.16372600  0.28638900  1
  Co  Co6  1  0.18460800  0.83613700  0.78625400  1
  Co  Co7  1  0.34847500  0.16371200  0.28609800  1
  O  O0  1  0.17546800  0.83365000  0.40053300  1
  O  O1  1  0.50711300  0.98458400  0.67093500  1
  O  O2  1  0.03933400  0.51596000  0.67023100  1
  O  O3  1  0.68601100  0.83320900  0.40050600  1
  O  O4  1  0.34908200  0.67003000  0.89365800  1
  O  O5  1  0.50661300  0.51546800  0.67062700  1
  O  O6  1  0.85219000  0.67552100  0.89954300  1
  O  O7  1  0.17682600  0.32473300  0.39940000  1
  O  O8  1  0.52346100  0.48416300  0.16995500  1
  O  O9  1  0.67899900  0.32975900  0.39356200  1
  O  O10  1  0.01216400  0.99536000  0.18035300  1
  O  O11  1  0.99101400  0.48454000  0.17025100  1
  O  O12  1  0.01684400  0.00478900  0.68040600  1
  O  O13  1  0.34161700  0.16612900  0.90066700  1
  O  O14  1  0.52271100  0.01566000  0.17064100  1
  O  O15  1  0.85287600  0.16641400  0.90050500  1
loop_
_geom_bond_atom_site_label_1
_geom_bond_atom_site_label_2
_geom_bond_distance
_geom_bond_site_symmetry_2
Li0 O11 1.953248 1_455
Li0 O14 1.954847 1_565
Li0 O4 2.086136 1_554
Li0 O10 2.270053 1_555
Li0 O6 2.347111 1_454
Li0 O13 2.383548 1_564
Li1 O8 1.945324 1_555
Li1 O14 1.949243 1_565
Li1 O4 2.103369 1_554
Li1 O10 2.262082 1_655
Li1 O6 2.345987 1_554
Li1 O15 2.393131 1_564
Li2 O7 2.050219 1_555
Li2 O11 2.052803 1_455
Li2 O14 2.061578 1_565
Li2 O8 2.064085 1_555
Li2 O0 2.075442 1_555
Li2 O3 2.078480 1_555
Li3 O7 1.802010 1_555
Li3 O0 1.814384 1_545
Li3 O3 1.817272 1_445
Li3 O12 1.914528 1_555
Li4 O11 1.944369 1_455
Li4 O8 1.944995 1_555
Li4 O4 2.148119 1_554
Li4 O10 2.260416 1_545
Li4 O13 2.332383 1_554
Li4 O15 2.341353 1_454
Li5 O2 1.943788 1_655
Li5 O5 1.945441 1_555
Li5 O9 2.148503 1_555
Li5 O12 2.261947 1_665
Li5 O0 2.334981 1_655
Li5 O3 2.344353 1_555
Li6 O5 1.952410 1_555
Li6 O1 1.954138 1_545
Li6 O9 2.087998 1_555
Li6 O12 2.270610 1_555
Li6 O7 2.350422 1_555
Li6 O0 2.387163 1_545
Li7 O6 2.042880 1_555
Li7 O5 2.059609 1_555
Li7 O1 2.066156 1_545
Li7 O13 2.067425 1_555
Li7 O15 2.070367 1_555
Li7 O2 2.072455 1_655
Li8 O2 1.944514 1_655
Li8 O1 1.950859 1_545
Li8 O9 2.102510 1_555
Li8 O12 2.263870 1_655
Li8 O7 2.348687 1_655
Li8 O3 2.396429 1_545
Li9 O6 1.799818 1_455
Li9 O13 1.814379 1_565
Li9 O15 1.816965 1_465
Li9 O10 1.911849 1_556
Co0 O3 2.067143 1_555
Co0 O5 2.080302 1_555
Co0 O2 2.082149 1_555
Co0 O0 2.086634 1_555
Co0 O1 2.094026 1_555
Co0 O7 2.125911 1_555
Co1 O15 2.071453 1_554
Co1 O11 2.076516 1_555
Co1 O8 2.077176 1_555
Co1 O13 2.087197 1_554
Co1 O14 2.091926 1_555
Co1 O6 2.126363 1_554
Co2 O4 1.952354 1_555
Co2 O1 1.958730 1_555
Co2 O5 1.958805 1_555
Co2 O12 1.971465 1_665
Co2 O15 1.987859 1_565
Co2 O6 1.990689 1_555
Co3 O4 1.948983 1_555
Co3 O2 1.960339 1_555
Co3 O5 1.962574 1_555
Co3 O12 1.970857 1_555
Co3 O15 1.989617 1_455
Co3 O13 1.991728 1_555
Co4 O9 1.951167 1_555
Co4 O8 1.961823 1_555
Co4 O11 1.962603 1_555
Co4 O10 1.970976 1_655
Co4 O0 1.990348 1_655
Co4 O3 1.990380 1_555
Co5 O9 1.952656 1_555
Co5 O14 1.959334 1_555
Co5 O11 1.961293 1_555
Co5 O10 1.969213 1_645
Co5 O3 1.989995 1_545
Co5 O7 1.990722 1_655
Co6 O4 1.953186 1_555
Co6 O2 1.957716 1_555
Co6 O1 1.959744 1_555
Co6 O12 1.970536 1_565
Co6 O13 1.988879 1_565
Co6 O6 1.989541 1_455
Co7 O9 1.953193 1_555
Co7 O14 1.959235 1_555
Co7 O8 1.960017 1_555
Co7 O10 1.969532 1_545
Co7 O0 1.989808 1_545
Co7 O7 1.990216 1_555
