# generated using pymatgen
data_Li4Mn3Fe3(WO8)2
_symmetry_space_group_name_H-M   'P 1'
_cell_length_a   5.96236000
_cell_length_b   6.04873236
_cell_length_c   9.87243237
_cell_angle_alpha   88.54895862
_cell_angle_beta   89.19172719
_cell_angle_gamma   60.51180037
_symmetry_Int_Tables_number   1
_chemical_formula_structural   Li4Mn3Fe3(WO8)2
_chemical_formula_sum   'Li4 Mn3 Fe3 W2 O16'
_cell_volume   309.82327417
_cell_formula_units_Z   1
loop_
 _symmetry_equiv_pos_site_id
 _symmetry_equiv_pos_as_xyz
  1  'x, y, z'
loop_
 _atom_site_type_symbol
 _atom_site_label
 _atom_site_symmetry_multiplicity
 _atom_site_fract_x
 _atom_site_fract_y
 _atom_site_fract_z
 _atom_site_occupancy
  Li  Li0  1  0.65998300  0.67717000  0.90989000  1
  Li  Li1  1  0.99570600  0.00809700  0.98784200  1
  Li  Li2  1  0.00006300  0.99303400  0.48522500  1
  Li  Li3  1  0.34056400  0.32936200  0.40817100  1
  Mn  Mn0  1  0.83016400  0.34016400  0.21059700  1
  Mn  Mn1  1  0.66151300  0.17123600  0.71365500  1
  Mn  Mn2  1  0.16665200  0.17474200  0.71339500  1
  Fe  Fe0  1  0.82392800  0.83351900  0.21591200  1
  Fe  Fe1  1  0.33720000  0.83197800  0.21419700  1
  Fe  Fe2  1  0.16940200  0.66096300  0.71344200  1
  W  W0  1  0.67139200  0.66522400  0.48363200  1
  W  W1  1  0.31697800  0.35571300  0.98714100  1
  O  O0  1  0.83577600  0.80954300  0.58533200  1
  O  O1  1  0.53427900  0.95705100  0.35449200  1
  O  O2  1  0.67693100  0.65859000  0.11373000  1
  O  O3  1  0.98624900  0.01215700  0.29783600  1
  O  O4  1  0.99193100  0.01228700  0.79990000  1
  O  O5  1  0.35404100  0.81322000  0.57881300  1
  O  O6  1  0.96912100  0.52668400  0.35078500  1
  O  O7  1  0.54277400  0.50105900  0.35380900  1
  O  O8  1  0.16081200  0.65634000  0.08988900  1
  O  O9  1  0.83964300  0.32921200  0.59112200  1
  O  O10  1  0.47916100  0.48624300  0.86096100  1
  O  O11  1  0.03192200  0.48534900  0.85889100  1
  O  O12  1  0.34682400  0.31674400  0.61364300  1
  O  O13  1  0.64506900  0.16311300  0.08655900  1
  O  O14  1  0.47199900  0.05001200  0.84333700  1
  O  O15  1  0.16022000  0.18119200  0.08564500  1
loop_
_geom_bond_atom_site_label_1
_geom_bond_atom_site_label_2
_geom_bond_distance
_geom_bond_site_symmetry_2
Li0 O11 1.995637 1_655
Li0 O10 1.999533 1_555
Li0 O2 2.013873 1_556
Li0 O14 2.056990 1_565
Li1 O4 1.855279 1_555
Li1 O15 2.019815 1_656
Li1 O13 2.063644 1_556
Li1 O8 2.090085 1_646
Li2 O3 1.851132 1_465
Li2 O0 2.038512 1_455
Li2 O5 2.057970 1_555
Li2 O9 2.075436 1_465
Li3 O7 2.001605 1_555
Li3 O6 2.012250 1_455
Li3 O12 2.028190 1_555
Li3 O1 2.041779 1_545
Mn0 O2 1.912578 1_555
Mn0 O3 1.913772 1_555
Mn0 O7 2.059577 1_555
Mn0 O15 2.108950 1_655
Mn0 O6 2.215040 1_555
Mn0 O13 2.265497 1_555
Mn1 O12 1.911142 1_555
Mn1 O4 1.916155 1_555
Mn1 O14 2.044721 1_555
Mn1 O9 2.099714 1_555
Mn1 O10 2.232432 1_555
Mn1 O0 2.310030 1_545
Mn2 O12 1.922839 1_555
Mn2 O4 1.928826 1_455
Mn2 O14 2.047941 1_555
Mn2 O9 2.085061 1_455
Mn2 O11 2.203781 1_555
Mn2 O5 2.344239 1_545
Fe0 O3 1.963222 1_565
Fe0 O2 1.974176 1_555
Fe0 O1 2.031572 1_555
Fe0 O6 2.071852 1_555
Fe0 O13 2.135185 1_565
Fe0 O8 2.146812 1_655
Fe1 O3 1.999956 1_465
Fe1 O2 2.022698 1_555
Fe1 O1 2.201280 1_555
Fe1 O15 2.212153 1_565
Fe1 O7 2.213872 1_555
Fe1 O8 2.223332 1_555
Fe2 O4 2.053474 1_465
Fe2 O12 2.081103 1_555
Fe2 O11 2.146846 1_555
Fe2 O0 2.148867 1_455
Fe2 O5 2.172910 1_555
Fe2 O10 2.173772 1_555
O0 W0 1.909242 1_555
O1 W0 1.975953 1_555
O5 W0 1.894593 1_555
O6 W0 2.024603 1_555
O7 W0 2.014610 1_555
O8 W1 1.898008 1_554
O9 W0 2.043734 1_555
O10 W1 1.943726 1_555
O11 W1 1.950646 1_555
O13 W1 1.974817 1_554
O14 W1 2.168494 1_555
O15 W1 1.956357 1_554
