# generated using pymatgen
data_Ca5V3O13
_symmetry_space_group_name_H-M   'P 1'
_cell_length_a   9.92792453
_cell_length_b   9.92792453
_cell_length_c   7.04142500
_cell_angle_alpha   90.00000000
_cell_angle_beta   90.00000000
_cell_angle_gamma   120.00000352
_symmetry_Int_Tables_number   1
_chemical_formula_structural   Ca5V3O13
_chemical_formula_sum   'Ca10 V6 O26'
_cell_volume   601.04654929
_cell_formula_units_Z   2
loop_
 _symmetry_equiv_pos_site_id
 _symmetry_equiv_pos_as_xyz
  1  'x, y, z'
loop_
 _atom_site_type_symbol
 _atom_site_label
 _atom_site_symmetry_multiplicity
 _atom_site_fract_x
 _atom_site_fract_y
 _atom_site_fract_z
 _atom_site_occupancy
  Ca  Ca0  1  0.33333300  0.66666700  0.49765800  1
  Ca  Ca1  1  0.66666700  0.33333300  0.99765800  1
  Ca  Ca2  1  0.66666700  0.33333300  0.50234200  1
  Ca  Ca3  1  0.33333300  0.66666700  0.00234200  1
  Ca  Ca4  1  0.75531800  0.75092100  0.25000000  1
  Ca  Ca5  1  0.99560400  0.24468200  0.25000000  1
  Ca  Ca6  1  0.24907900  0.00439600  0.25000000  1
  Ca  Ca7  1  0.24468200  0.24907900  0.75000000  1
  Ca  Ca8  1  0.00439600  0.75531800  0.75000000  1
  Ca  Ca9  1  0.75092100  0.99560400  0.75000000  1
  V  V0  1  0.97059000  0.60010900  0.25000000  1
  V  V1  1  0.62951900  0.02941000  0.25000000  1
  V  V2  1  0.39989100  0.37048100  0.25000000  1
  V  V3  1  0.02941000  0.39989100  0.75000000  1
  V  V4  1  0.37048100  0.97059000  0.75000000  1
  V  V5  1  0.60010900  0.62951900  0.75000000  1
  O  O0  1  0.17024200  0.67539600  0.25000000  1
  O  O1  1  0.50515400  0.82975800  0.25000000  1
  O  O2  1  0.32460400  0.49484600  0.25000000  1
  O  O3  1  0.82975800  0.32460400  0.75000000  1
  O  O4  1  0.49484600  0.17024200  0.75000000  1
  O  O5  1  0.67539600  0.50515400  0.75000000  1
  O  O6  1  0.86583300  0.39501000  0.25000000  1
  O  O7  1  0.52917700  0.13416700  0.25000000  1
  O  O8  1  0.60499000  0.47082300  0.25000000  1
  O  O9  1  0.13416700  0.60499000  0.75000000  1
  O  O10  1  0.47082300  0.86583300  0.75000000  1
  O  O11  1  0.39501000  0.52917700  0.75000000  1
  O  O12  1  0.90983100  0.66199700  0.44466900  1
  O  O13  1  0.75216600  0.09016900  0.44466900  1
  O  O14  1  0.33800300  0.24783400  0.44466900  1
  O  O15  1  0.09016900  0.33800300  0.94466900  1
  O  O16  1  0.24783400  0.90983100  0.94466900  1
  O  O17  1  0.66199700  0.75216600  0.94466900  1
  O  O18  1  0.09016900  0.33800300  0.55533100  1
  O  O19  1  0.24783400  0.90983100  0.55533100  1
  O  O20  1  0.66199700  0.75216600  0.55533100  1
  O  O21  1  0.90983100  0.66199700  0.05533100  1
  O  O22  1  0.75216600  0.09016900  0.05533100  1
  O  O23  1  0.33800300  0.24783400  0.05533100  1
  O  O24  1  0.00000000  0.00000000  0.25000000  1
  O  O25  1  0.00000000  0.00000000  0.75000000  1
loop_
_geom_bond_atom_site_label_1
_geom_bond_atom_site_label_2
_geom_bond_distance
_geom_bond_site_symmetry_2
Ca0 O0 2.410510 1_555
Ca0 O1 2.410513 1_555
Ca0 O2 2.410516 1_555
Ca0 O9 2.496219 1_555
Ca0 O10 2.496221 1_555
Ca0 O11 2.496226 1_555
Ca0 O19 2.960158 1_555
Ca0 O18 2.960165 1_555
Ca0 O20 2.960168 1_555
Ca1 O3 2.410510 1_555
Ca1 O4 2.410513 1_555
Ca1 O5 2.410516 1_555
Ca1 O6 2.496219 1_556
Ca1 O7 2.496221 1_556
Ca1 O8 2.496226 1_556
Ca1 O22 2.960158 1_556
Ca1 O21 2.960165 1_556
Ca1 O23 2.960168 1_556
Ca2 O3 2.410510 1_555
Ca2 O4 2.410513 1_555
Ca2 O5 2.410516 1_555
Ca2 O6 2.496219 1_555
Ca2 O7 2.496221 1_555
Ca2 O8 2.496226 1_555
Ca2 O13 2.960158 1_555
Ca2 O12 2.960165 1_555
Ca2 O14 2.960168 1_555
Ca3 O0 2.410510 1_555
Ca3 O1 2.410513 1_555
Ca3 O2 2.410516 1_555
Ca3 O9 2.496219 1_554
Ca3 O10 2.496221 1_554
Ca3 O11 2.496226 1_554
Ca3 O16 2.960158 1_554
Ca3 O15 2.960165 1_554
Ca3 O17 2.960168 1_554
Ca4 O17 2.343572 1_554
Ca4 O20 2.343572 1_555
Ca4 O8 2.410397 1_555
Ca4 O24 2.451302 1_665
Ca4 O21 2.523040 1_555
Ca4 O12 2.523040 1_555
Ca4 O1 2.953778 1_555
Ca5 O15 2.343570 1_654
Ca5 O18 2.343570 1_655
Ca5 O6 2.410406 1_555
Ca5 O24 2.451297 1_655
Ca5 O22 2.523046 1_555
Ca5 O13 2.523046 1_555
Ca5 O2 2.953771 1_655
Ca6 O19 2.343568 1_545
Ca6 O16 2.343568 1_544
Ca6 O7 2.410397 1_555
Ca6 O24 2.451307 1_555
Ca6 O23 2.523048 1_555
Ca6 O14 2.523048 1_555
Ca6 O0 2.953769 1_545
Ca7 O14 2.343572 1_555
Ca7 O23 2.343572 1_556
Ca7 O11 2.410397 1_555
Ca7 O25 2.451302 1_555
Ca7 O18 2.523040 1_555
Ca7 O15 2.523040 1_555
Ca7 O4 2.953778 1_555
Ca8 O12 2.343570 1_455
Ca8 O21 2.343570 1_456
Ca8 O9 2.410406 1_555
Ca8 O25 2.451297 1_565
Ca8 O16 2.523046 1_555
Ca8 O19 2.523046 1_555
Ca8 O5 2.953771 1_455
Ca9 O13 2.343568 1_565
Ca9 O22 2.343568 1_566
Ca9 O10 2.410397 1_555
Ca9 O25 2.451307 1_665
Ca9 O20 2.523048 1_555
Ca9 O17 2.523048 1_555
Ca9 O3 2.953769 1_565
O0 V0 1.733776 1_455
O1 V1 1.733776 1_565
O2 V2 1.733776 1_555
O3 V3 1.733776 1_655
O4 V4 1.733776 1_545
O5 V5 1.733776 1_555
O6 V0 1.763543 1_555
O7 V1 1.763544 1_555
O8 V2 1.763543 1_555
O9 V3 1.763543 1_555
O10 V4 1.763544 1_555
O11 V5 1.763543 1_555
O12 V0 1.729435 1_555
O13 V1 1.729435 1_555
O14 V2 1.729435 1_555
O15 V3 1.729435 1_555
O16 V4 1.729435 1_555
O17 V5 1.729435 1_555
O18 V3 1.729435 1_555
O19 V4 1.729435 1_555
O20 V5 1.729435 1_555
O21 V0 1.729435 1_555
O22 V1 1.729435 1_555
O23 V2 1.729435 1_555
