# generated using pymatgen
data_CaH4Se2O7
_symmetry_space_group_name_H-M   'P 1'
_cell_length_a   6.86118500
_cell_length_b   7.03353185
_cell_length_c   7.45717445
_cell_angle_alpha   71.70687659
_cell_angle_beta   89.04475134
_cell_angle_gamma   88.39895474
_symmetry_Int_Tables_number   1
_chemical_formula_structural   CaH4Se2O7
_chemical_formula_sum   'Ca2 H8 Se4 O14'
_cell_volume   341.53905801
_cell_formula_units_Z   2
loop_
 _symmetry_equiv_pos_site_id
 _symmetry_equiv_pos_as_xyz
  1  'x, y, z'
loop_
 _atom_site_type_symbol
 _atom_site_label
 _atom_site_symmetry_multiplicity
 _atom_site_fract_x
 _atom_site_fract_y
 _atom_site_fract_z
 _atom_site_occupancy
  Ca  Ca0  1  0.12549500  0.77107600  0.92512700  1
  Ca  Ca1  1  0.87450500  0.22892400  0.07487300  1
  H  H0  1  0.53050700  0.76031400  0.73506700  1
  H  H1  1  0.46949300  0.23968600  0.26493300  1
  H  H2  1  0.01637200  0.54548100  0.65503700  1
  H  H3  1  0.98362800  0.45451900  0.34496300  1
  H  H4  1  0.69886100  0.79156600  0.47946600  1
  H  H5  1  0.30113900  0.20843400  0.52053400  1
  H  H6  1  0.65391200  0.57243600  0.60144200  1
  H  H7  1  0.34608800  0.42756400  0.39855800  1
  Se  Se0  1  0.65923400  0.74979200  0.03841700  1
  Se  Se1  1  0.34076600  0.25020800  0.96158300  1
  Se  Se2  1  0.13085900  0.82061100  0.39645100  1
  Se  Se3  1  0.86914100  0.17938900  0.60354900  1
  O  O0  1  0.79703100  0.95752400  0.95420300  1
  O  O1  1  0.20296900  0.04247600  0.04579700  1
  O  O2  1  0.81497000  0.58619600  0.98365300  1
  O  O3  1  0.18503000  0.41380400  0.01634700  1
  O  O4  1  0.47435000  0.78726100  0.85625400  1
  O  O5  1  0.52565000  0.21273900  0.14374600  1
  O  O6  1  0.10146000  0.08213300  0.64522800  1
  O  O7  1  0.89854000  0.91786700  0.35477200  1
  O  O8  1  0.14069700  0.63823800  0.28616100  1
  O  O9  1  0.85930300  0.36176200  0.71383900  1
  O  O10  1  0.10992400  0.65911000  0.64092300  1
  O  O11  1  0.89007600  0.34089000  0.35907700  1
  O  O12  1  0.59230000  0.70811200  0.55458100  1
  O  O13  1  0.40770000  0.29188800  0.44541900  1
loop_
_geom_bond_atom_site_label_1
_geom_bond_atom_site_label_2
_geom_bond_distance
_geom_bond_site_symmetry_2
Ca0 O3 2.413091 1_556
Ca0 O1 2.426350 1_566
Ca0 O4 2.437909 1_555
Ca0 O10 2.486619 1_555
Ca0 O2 2.487626 1_455
Ca0 O6 2.508995 1_565
Ca0 O8 2.560683 1_556
Ca0 O0 2.615866 1_455
Ca1 O2 2.413091 1_554
Ca1 O0 2.426350 1_544
Ca1 O5 2.437909 1_555
Ca1 O11 2.486619 1_555
Ca1 O3 2.487626 1_655
Ca1 O7 2.508995 1_545
Ca1 O9 2.560683 1_554
Ca1 O1 2.615866 1_655
H0 O4 1.045424 1_555
H0 O12 1.551949 1_555
H1 O5 1.045424 1_555
H1 O13 1.551949 1_555
H2 O10 1.017563 1_555
H2 O9 1.652209 1_455
H3 O11 1.017563 1_555
H3 O8 1.652209 1_655
H4 O12 0.998392 1_555
H4 O7 1.742922 1_555
H5 O13 0.998392 1_555
H5 O6 1.742922 1_555
H6 O12 0.992226 1_555
H7 O13 0.992226 1_555
O0 Se0 1.704239 1_556
O1 Se1 1.704239 1_554
O2 Se0 1.686502 1_556
O3 Se1 1.686502 1_554
O4 Se0 1.827006 1_556
O5 Se1 1.827006 1_554
O6 Se3 1.710975 1_455
O7 Se2 1.710975 1_655
O8 Se2 1.726833 1_555
O9 Se3 1.726833 1_555
O10 Se2 1.826177 1_555
O11 Se3 1.826177 1_555
