# generated using pymatgen
data_Ba3Ga4O9
_symmetry_space_group_name_H-M   'P 1'
_cell_length_a   7.06871494
_cell_length_b   8.31941924
_cell_length_c   10.00534883
_cell_angle_alpha   85.37535404
_cell_angle_beta   73.94837389
_cell_angle_gamma   73.76698388
_symmetry_Int_Tables_number   1
_chemical_formula_structural   Ba3Ga4O9
_chemical_formula_sum   'Ba6 Ga8 O18'
_cell_volume   542.90445524
_cell_formula_units_Z   2
loop_
 _symmetry_equiv_pos_site_id
 _symmetry_equiv_pos_as_xyz
  1  'x, y, z'
loop_
 _atom_site_type_symbol
 _atom_site_label
 _atom_site_symmetry_multiplicity
 _atom_site_fract_x
 _atom_site_fract_y
 _atom_site_fract_z
 _atom_site_occupancy
  Ba  Ba0  1  0.05224860  0.05627342  0.68811640  1
  Ba  Ba1  1  0.17829906  0.56311167  0.65775634  1
  Ba  Ba2  1  0.29956184  0.21862806  0.96556243  1
  Ba  Ba3  1  0.70043816  0.78137194  0.03443757  1
  Ba  Ba4  1  0.82170094  0.43688833  0.34224366  1
  Ba  Ba5  1  0.94775140  0.94372658  0.31188360  1
  Ga  Ga0  1  0.40756130  0.18006165  0.30359074  1
  Ga  Ga1  1  0.33397298  0.55780421  0.22863114  1
  Ga  Ga2  1  0.74159048  0.26674895  0.06743870  1
  Ga  Ga3  1  0.56488646  0.18254227  0.58728020  1
  Ga  Ga4  1  0.43511354  0.81745773  0.41271980  1
  Ga  Ga5  1  0.25840952  0.73325105  0.93256130  1
  Ga  Ga6  1  0.66602702  0.44219579  0.77136886  1
  Ga  Ga7  1  0.59243870  0.81993835  0.69640926  1
  O  O0  1  0.26333106  0.02921594  0.38934875  1
  O  O1  1  0.22262653  0.37841346  0.27476705  1
  O  O2  1  0.19742798  0.71797776  0.12377804  1
  O  O3  1  0.57318931  0.11849197  0.12223275  1
  O  O4  1  0.03432767  0.79979204  0.86526113  1
  O  O5  1  0.30568641  0.23501327  0.69722048  1
  O  O6  1  0.28385408  0.67229182  0.39240036  1
  O  O7  1  0.58795550  0.20713529  0.39766280  1
  O  O8  1  0.60982182  0.48411884  0.13957313  1
  O  O9  1  0.39017818  0.51588116  0.86042687  1
  O  O10  1  0.41204450  0.79286471  0.60233720  1
  O  O11  1  0.71614592  0.32770818  0.60759964  1
  O  O12  1  0.69431359  0.76498673  0.30277952  1
  O  O13  1  0.96567233  0.20020796  0.13473887  1
  O  O14  1  0.42681069  0.88150803  0.87776725  1
  O  O15  1  0.80257202  0.28202224  0.87622196  1
  O  O16  1  0.77737347  0.62158654  0.72523295  1
  O  O17  1  0.73666894  0.97078406  0.61065125  1
loop_
_geom_bond_atom_site_label_1
_geom_bond_atom_site_label_2
_geom_bond_distance
_geom_bond_site_symmetry_2
Ba0 O5 2.651485 1_555
Ba0 O15 2.657852 1_455
Ba0 O4 2.669745 1_545
Ba0 O10 2.826195 1_545
Ba0 O17 2.831047 1_445
Ba0 O0 2.943964 1_555
Ba0 O11 3.026287 1_455
Ba1 O16 2.635952 1_455
Ba1 O5 2.658202 1_555
Ba1 O6 2.706513 1_555
Ba1 O4 2.755665 1_555
Ba1 O9 2.780552 1_555
Ba1 O10 2.789110 1_555
Ba2 O13 2.531826 1_456
Ba2 O5 2.666253 1_555
Ba2 O3 2.730848 1_556
Ba2 O9 2.779558 1_555
Ba2 O14 2.827829 1_545
Ba3 O4 2.531826 1_654
Ba3 O12 2.666253 1_555
Ba3 O14 2.730848 1_554
Ba3 O8 2.779558 1_555
Ba3 O3 2.827829 1_565
Ba4 O1 2.635952 1_655
Ba4 O12 2.658202 1_555
Ba4 O11 2.706513 1_555
Ba4 O13 2.755665 1_555
Ba4 O8 2.780552 1_555
Ba4 O7 2.789110 1_555
Ba5 O12 2.651485 1_555
Ba5 O2 2.657852 1_655
Ba5 O13 2.669745 1_565
Ba5 O7 2.826195 1_565
Ba5 O0 2.831047 1_665
Ba5 O17 2.943964 1_555
Ba5 O6 3.026287 1_655
Ga0 O0 1.846205 1_555
Ga0 O7 1.849632 1_555
Ga0 O1 1.854946 1_555
Ga0 O3 1.888240 1_555
Ga1 O1 1.845165 1_555
Ga1 O2 1.850227 1_555
Ga1 O8 1.852250 1_555
Ga1 O6 1.860001 1_555
Ga2 O13 1.818876 1_555
Ga2 O15 1.843261 1_554
Ga2 O8 1.885663 1_555
Ga2 O3 1.894678 1_555
Ga3 O5 1.809216 1_555
Ga3 O7 1.858158 1_555
Ga3 O11 1.877449 1_555
Ga3 O17 1.878124 1_545
Ga4 O12 1.809216 1_555
Ga4 O10 1.858158 1_555
Ga4 O6 1.877449 1_555
Ga4 O0 1.878124 1_565
Ga5 O4 1.818876 1_555
Ga5 O2 1.843261 1_556
Ga5 O9 1.885663 1_555
Ga5 O14 1.894678 1_555
Ga6 O16 1.845165 1_555
Ga6 O15 1.850227 1_555
Ga6 O9 1.852250 1_555
Ga6 O11 1.860001 1_555
Ga7 O17 1.846205 1_555
Ga7 O10 1.849632 1_555
Ga7 O16 1.854946 1_555
Ga7 O14 1.888240 1_555
