# generated using pymatgen
data_Li2Pd
_symmetry_space_group_name_H-M   'P 1'
_cell_length_a   8.41023230
_cell_length_b   8.41023187
_cell_length_c   5.35972454
_cell_angle_alpha   90.00000000
_cell_angle_beta   90.00000000
_cell_angle_gamma   120.00000177
_symmetry_Int_Tables_number   1
_chemical_formula_structural   Li2Pd
_chemical_formula_sum   'Li16 Pd8'
_cell_volume   328.31373737
_cell_formula_units_Z   8
loop_
 _symmetry_equiv_pos_site_id
 _symmetry_equiv_pos_as_xyz
  1  'x, y, z'
loop_
 _atom_site_type_symbol
 _atom_site_label
 _atom_site_symmetry_multiplicity
 _atom_site_fract_x
 _atom_site_fract_y
 _atom_site_fract_z
 _atom_site_occupancy
  Li  Li0_0  1  0.16666650  0.33333350  0.25000000  1
  Li  Li0_1  1  0.16666650  0.33333350  0.75000000  1
  Li  Li0_2  1  0.16666650  0.83333350  0.25000000  1
  Li  Li0_3  1  0.16666650  0.83333350  0.75000000  1
  Li  Li0_4  1  0.66666650  0.33333350  0.25000000  1
  Li  Li0_5  1  0.66666650  0.33333350  0.75000000  1
  Li  Li0_6  1  0.66666650  0.83333350  0.25000000  1
  Li  Li0_7  1  0.66666650  0.83333350  0.75000000  1
  Li  Li1_0  1  0.33333350  0.16666650  0.25000000  1
  Li  Li1_1  1  0.33333350  0.16666650  0.75000000  1
  Li  Li1_2  1  0.33333350  0.66666650  0.25000000  1
  Li  Li1_3  1  0.33333350  0.66666650  0.75000000  1
  Li  Li1_4  1  0.83333350  0.16666650  0.25000000  1
  Li  Li1_5  1  0.83333350  0.16666650  0.75000000  1
  Li  Li1_6  1  0.83333350  0.66666650  0.25000000  1
  Li  Li1_7  1  0.83333350  0.66666650  0.75000000  1
  Pd  Pd0_0  1  0.00000000  0.00000000  0.00000000  1
  Pd  Pd0_1  1  0.00000000  0.00000000  0.50000000  1
  Pd  Pd0_2  1  0.00000000  0.50000000  0.00000000  1
  Pd  Pd0_3  1  0.00000000  0.50000000  0.50000000  1
  Pd  Pd0_4  1  0.50000000  0.00000000  0.00000000  1
  Pd  Pd0_5  1  0.50000000  0.00000000  0.50000000  1
  Pd  Pd0_6  1  0.50000000  0.50000000  0.00000000  1
  Pd  Pd0_7  1  0.50000000  0.50000000  0.50000000  1
loop_
_geom_bond_atom_site_label_1
_geom_bond_atom_site_label_2
_geom_bond_distance
_geom_bond_site_symmetry_2
Li0_0 Li1_2 2.427822 1_555
Li0_0 Li1_4 2.427822 1_455
Li0_0 Li1_0 2.427830 1_555
Li0_0 Li0_1 2.679862 1_555
Li0_0 Li0_1 2.679862 1_554
Li0_0 Pd0_2 2.773038 1_555
Li0_0 Pd0_3 2.773038 1_555
Li0_0 Pd0_1 2.773041 1_555
Li0_0 Pd0_0 2.773041 1_555
Li0_0 Pd0_6 2.773041 1_555
Li0_0 Pd0_7 2.773041 1_555
Li0_1 Li1_3 2.427822 1_555
Li0_1 Li1_5 2.427822 1_455
Li0_1 Li1_1 2.427830 1_555
Li0_1 Pd0_3 2.773038 1_555
Li0_1 Pd0_2 2.773038 1_556
Li0_1 Pd0_1 2.773041 1_555
Li0_1 Pd0_0 2.773041 1_556
Li0_1 Pd0_7 2.773041 1_555
Li0_1 Pd0_6 2.773041 1_556
Li0_2 Li1_0 2.427822 1_565
Li0_2 Li1_6 2.427822 1_455
Li0_2 Li1_2 2.427830 1_555
Li0_2 Li0_3 2.679862 1_555
Li0_2 Li0_3 2.679862 1_554
Li0_2 Pd0_0 2.773038 1_565
Li0_2 Pd0_1 2.773038 1_565
Li0_2 Pd0_2 2.773041 1_555
Li0_2 Pd0_3 2.773041 1_555
Li0_2 Pd0_4 2.773041 1_565
Li0_2 Pd0_5 2.773041 1_565
Li0_3 Li1_1 2.427822 1_565
Li0_3 Li1_7 2.427822 1_455
Li0_3 Li1_3 2.427830 1_555
Li0_3 Pd0_1 2.773038 1_565
Li0_3 Pd0_0 2.773038 1_566
Li0_3 Pd0_3 2.773041 1_555
Li0_3 Pd0_2 2.773041 1_556
Li0_3 Pd0_5 2.773041 1_565
Li0_3 Pd0_4 2.773041 1_566
Li0_4 Li1_6 2.427822 1_555
Li0_4 Li1_0 2.427822 1_555
Li0_4 Li1_4 2.427830 1_555
Li0_4 Li0_5 2.679862 1_555
Li0_4 Li0_5 2.679862 1_554
Li0_4 Pd0_6 2.773038 1_555
Li0_4 Pd0_7 2.773038 1_555
Li0_4 Pd0_4 2.773041 1_555
Li0_4 Pd0_5 2.773041 1_555
Li0_4 Pd0_3 2.773041 1_655
Li0_4 Pd0_2 2.773041 1_655
Li0_5 Li1_7 2.427822 1_555
Li0_5 Li1_1 2.427822 1_555
Li0_5 Li1_5 2.427830 1_555
Li0_5 Pd0_7 2.773038 1_555
Li0_5 Pd0_6 2.773038 1_556
Li0_5 Pd0_5 2.773041 1_555
Li0_5 Pd0_4 2.773041 1_556
Li0_5 Pd0_3 2.773041 1_655
Li0_5 Pd0_2 2.773041 1_656
Li0_6 Li1_4 2.427822 1_565
Li0_6 Li1_2 2.427822 1_555
Li0_6 Li1_6 2.427830 1_555
Li0_6 Li0_7 2.679862 1_555
Li0_6 Li0_7 2.679862 1_554
Li0_6 Pd0_4 2.773038 1_565
Li0_6 Pd0_5 2.773038 1_565
Li0_6 Pd0_7 2.773041 1_555
Li0_6 Pd0_6 2.773041 1_555
Li0_6 Pd0_0 2.773041 1_665
Li0_6 Pd0_1 2.773041 1_665
Li0_7 Li1_5 2.427822 1_565
Li0_7 Li1_3 2.427822 1_555
Li0_7 Li1_7 2.427830 1_555
Li0_7 Pd0_5 2.773038 1_565
Li0_7 Pd0_4 2.773038 1_566
Li0_7 Pd0_7 2.773041 1_555
Li0_7 Pd0_6 2.773041 1_556
Li0_7 Pd0_1 2.773041 1_665
Li0_7 Pd0_0 2.773041 1_666
Li1_0 Li1_1 2.679862 1_555
Li1_0 Li1_1 2.679862 1_554
Li1_0 Pd0_5 2.773038 1_555
Li1_0 Pd0_4 2.773038 1_555
Li1_0 Pd0_7 2.773041 1_555
Li1_0 Pd0_6 2.773041 1_555
Li1_0 Pd0_0 2.773041 1_555
Li1_0 Pd0_1 2.773041 1_555
Li1_1 Pd0_5 2.773038 1_555
Li1_1 Pd0_4 2.773038 1_556
Li1_1 Pd0_7 2.773041 1_555
Li1_1 Pd0_6 2.773041 1_556
Li1_1 Pd0_1 2.773041 1_555
Li1_1 Pd0_0 2.773041 1_556
Li1_2 Li1_3 2.679862 1_555
Li1_2 Li1_3 2.679862 1_554
Li1_2 Pd0_6 2.773038 1_555
Li1_2 Pd0_7 2.773038 1_555
Li1_2 Pd0_4 2.773041 1_565
Li1_2 Pd0_5 2.773041 1_565
Li1_2 Pd0_3 2.773041 1_555
Li1_2 Pd0_2 2.773041 1_555
Li1_3 Pd0_7 2.773038 1_555
Li1_3 Pd0_6 2.773038 1_556
Li1_3 Pd0_5 2.773041 1_565
Li1_3 Pd0_4 2.773041 1_566
Li1_3 Pd0_3 2.773041 1_555
Li1_3 Pd0_2 2.773041 1_556
Li1_4 Li1_5 2.679862 1_555
Li1_4 Li1_5 2.679862 1_554
Li1_4 Pd0_0 2.773038 1_655
Li1_4 Pd0_1 2.773038 1_655
Li1_4 Pd0_3 2.773041 1_655
Li1_4 Pd0_2 2.773041 1_655
Li1_4 Pd0_4 2.773041 1_555
Li1_4 Pd0_5 2.773041 1_555
Li1_5 Pd0_1 2.773038 1_655
Li1_5 Pd0_0 2.773038 1_656
Li1_5 Pd0_3 2.773041 1_655
Li1_5 Pd0_2 2.773041 1_656
Li1_5 Pd0_5 2.773041 1_555
Li1_5 Pd0_4 2.773041 1_556
Li1_6 Li1_7 2.679862 1_555
Li1_6 Li1_7 2.679862 1_554
Li1_6 Pd0_3 2.773038 1_655
Li1_6 Pd0_2 2.773038 1_655
Li1_6 Pd0_0 2.773041 1_665
Li1_6 Pd0_1 2.773041 1_665
Li1_6 Pd0_6 2.773041 1_555
Li1_6 Pd0_7 2.773041 1_555
Li1_7 Pd0_3 2.773038 1_655
Li1_7 Pd0_2 2.773038 1_656
Li1_7 Pd0_1 2.773041 1_665
Li1_7 Pd0_0 2.773041 1_666
Li1_7 Pd0_7 2.773041 1_555
Li1_7 Pd0_6 2.773041 1_556
Pd0_0 Pd0_1 2.679862 1_555
Pd0_0 Pd0_1 2.679862 1_554
Pd0_2 Pd0_3 2.679862 1_555
Pd0_2 Pd0_3 2.679862 1_554
Pd0_4 Pd0_5 2.679862 1_555
Pd0_4 Pd0_5 2.679862 1_554
Pd0_6 Pd0_7 2.679862 1_554
Pd0_6 Pd0_7 2.679862 1_555
