# generated using pymatgen
data_Li4V2Cr3Sb3O16
_symmetry_space_group_name_H-M   'P 1'
_cell_length_a   6.07805000
_cell_length_b   6.17155639
_cell_length_c   9.73412577
_cell_angle_alpha   90.47524007
_cell_angle_beta   90.31451214
_cell_angle_gamma   118.93959958
_symmetry_Int_Tables_number   1
_chemical_formula_structural   Li4V2Cr3Sb3O16
_chemical_formula_sum   'Li4 V2 Cr3 Sb3 O16'
_cell_volume   319.51267939
_cell_formula_units_Z   1
loop_
 _symmetry_equiv_pos_site_id
 _symmetry_equiv_pos_as_xyz
  1  'x, y, z'
loop_
 _atom_site_type_symbol
 _atom_site_label
 _atom_site_symmetry_multiplicity
 _atom_site_fract_x
 _atom_site_fract_y
 _atom_site_fract_z
 _atom_site_occupancy
  Li  Li0  1  0.32154500  0.65004000  0.90156100  1
  Li  Li1  1  0.99300700  0.01919500  0.00140500  1
  Li  Li2  1  0.99133100  0.02005900  0.49172400  1
  Li  Li3  1  0.66375100  0.33165000  0.38064500  1
  V  V0  1  0.35401500  0.67756800  0.48184900  1
  V  V1  1  0.67439100  0.31733300  0.99096900  1
  Cr  Cr0  1  0.17071200  0.33883100  0.21602800  1
  Cr  Cr1  1  0.66306500  0.82961800  0.21302300  1
  Cr  Cr2  1  0.82867300  0.16802100  0.71276900  1
  Sb  Sb0  1  0.16857300  0.83015200  0.21202800  1
  Sb  Sb1  1  0.34149800  0.17148700  0.71508900  1
  Sb  Sb2  1  0.83296800  0.66379800  0.71373800  1
  O  O0  1  0.17117400  0.32988400  0.60383000  1
  O  O1  1  0.48544300  0.52769300  0.33515500  1
  O  O2  1  0.33085700  0.66207600  0.10653300  1
  O  O3  1  0.00324500  0.00264100  0.30927600  1
  O  O4  1  0.01520300  0.02620600  0.81602500  1
  O  O5  1  0.67456400  0.85931600  0.58855500  1
  O  O6  1  0.04594800  0.52976000  0.33875100  1
  O  O7  1  0.47850200  0.95913300  0.33521800  1
  O  O8  1  0.83292600  0.16251600  0.10814100  1
  O  O9  1  0.18049000  0.86108700  0.59364200  1
  O  O10  1  0.51583200  0.02761300  0.83396300  1
  O  O11  1  0.95207100  0.45087400  0.85075600  1
  O  O12  1  0.64929000  0.30227700  0.59576800  1
  O  O13  1  0.32001600  0.15021500  0.10402000  1
  O  O14  1  0.49257900  0.44720400  0.85858700  1
  O  O15  1  0.84803100  0.68345600  0.09879000  1
loop_
_geom_bond_atom_site_label_1
_geom_bond_atom_site_label_2
_geom_bond_distance
_geom_bond_site_symmetry_2
Li0 O2 1.995462 1_556
Li0 O14 2.019449 1_555
Li0 O11 2.026047 1_455
Li0 O10 2.151345 1_565
Li1 O4 1.809601 1_654
Li1 O8 1.907163 1_555
Li1 O13 2.002867 1_655
Li1 O15 2.059898 1_545
Li2 O3 1.782317 1_655
Li2 O5 1.940731 1_545
Li2 O0 1.992828 1_655
Li2 O9 2.088998 1_645
Li3 O1 2.026588 1_555
Li3 O7 2.054571 1_545
Li3 O6 2.080271 1_655
Li3 O12 2.102014 1_555
Cr0 O1 2.039118 1_555
Cr0 O3 2.040187 1_555
Cr0 O2 2.056848 1_555
Cr0 O6 2.059596 1_555
Cr0 O8 2.073018 1_455
Cr0 O13 2.092704 1_555
Cr1 O3 2.029438 1_665
Cr1 O1 2.038370 1_555
Cr1 O2 2.039470 1_555
Cr1 O7 2.044198 1_555
Cr1 O15 2.071848 1_555
Cr1 O8 2.079129 1_565
Cr2 O4 2.005988 1_655
Cr2 O12 2.012131 1_555
Cr2 O11 2.024082 1_555
Cr2 O5 2.047287 1_545
Cr2 O10 2.050653 1_555
Cr2 O0 2.117855 1_655
O0 Sb1 2.045699 1_555
O0 V0 2.235650 1_555
O1 V0 2.058730 1_555
O2 Sb0 2.021647 1_555
O3 Sb0 2.016940 1_545
O4 Sb1 2.004398 1_555
O4 Sb2 2.184976 1_445
O5 V0 1.994106 1_555
O5 Sb2 2.236883 1_555
O6 Sb0 2.055439 1_555
O6 V0 2.139092 1_555
O7 Sb0 2.031833 1_555
O7 V0 2.099977 1_555
O8 V1 2.009802 1_554
O9 Sb1 2.039710 1_565
O9 V0 2.174294 1_555
O9 Sb2 2.207378 1_455
O10 Sb1 2.040654 1_555
O10 V1 2.175410 1_555
O11 V1 2.021970 1_555
O11 Sb2 2.229086 1_555
O12 Sb1 2.019506 1_555
O12 Sb2 2.252971 1_555
O13 Sb0 2.034665 1_545
O13 V1 2.192944 1_554
O14 Sb1 2.030791 1_555
O14 V1 2.093513 1_555
O14 Sb2 2.332827 1_555
O15 Sb0 2.020709 1_655
O15 V1 2.227463 1_554
