# generated using pymatgen
data_Li2VSiCO7
_symmetry_space_group_name_H-M   'P 1'
_cell_length_a   8.21843977
_cell_length_b   8.21862799
_cell_length_c   9.29316104
_cell_angle_alpha   106.74947584
_cell_angle_beta   106.75596414
_cell_angle_gamma   102.28185270
_symmetry_Int_Tables_number   1
_chemical_formula_structural   Li2VSiCO7
_chemical_formula_sum   'Li8 V4 Si4 C4 O28'
_cell_volume   544.77570315
_cell_formula_units_Z   4
loop_
 _symmetry_equiv_pos_site_id
 _symmetry_equiv_pos_as_xyz
  1  'x, y, z'
loop_
 _atom_site_type_symbol
 _atom_site_label
 _atom_site_symmetry_multiplicity
 _atom_site_fract_x
 _atom_site_fract_y
 _atom_site_fract_z
 _atom_site_occupancy
  Li  Li0  1  0.57291600  0.32172400  0.10233100  1
  Li  Li1  1  0.07286900  0.82134400  0.10229100  1
  Li  Li2  1  0.92859600  0.17685700  0.89766500  1
  Li  Li3  1  0.42824600  0.67724100  0.89764500  1
  Li  Li4  1  0.49467700  0.04486800  0.28052500  1
  Li  Li5  1  0.99542900  0.54444800  0.28051200  1
  Li  Li6  1  0.20563800  0.25465900  0.71956800  1
  Li  Li7  1  0.70515500  0.75519300  0.71947400  1
  V  V0  1  0.44658800  0.69096300  0.32568400  1
  V  V1  1  0.05893700  0.80334200  0.67421700  1
  V  V2  1  0.94643300  0.19080800  0.32561000  1
  V  V3  1  0.55929400  0.30366600  0.67444100  1
  Si  Si0  1  0.69838400  0.44917100  0.42191000  1
  Si  Si1  1  0.19850100  0.94930500  0.42191100  1
  Si  Si2  1  0.80077800  0.05164800  0.57808800  1
  Si  Si3  1  0.30075200  0.55154700  0.57807700  1
  C  C0  1  0.73591500  0.98558600  0.04654400  1
  C  C1  1  0.23618600  0.48543900  0.04667000  1
  C  C2  1  0.76456300  0.51392400  0.95356300  1
  C  C3  1  0.26438000  0.01392600  0.95325400  1
  O  O0  1  0.88044000  0.11470600  0.07280100  1
  O  O1  1  0.38053800  0.61468700  0.07284800  1
  O  O2  1  0.63531200  0.36945700  0.92721300  1
  O  O3  1  0.13528000  0.86946500  0.92708500  1
  O  O4  1  0.38552000  0.11070800  0.09022000  1
  O  O5  1  0.88568200  0.61042400  0.09061100  1
  O  O6  1  0.13964100  0.36412100  0.90974500  1
  O  O7  1  0.63919200  0.86454100  0.90949400  1
  O  O8  1  0.70592600  0.99151200  0.17892300  1
  O  O9  1  0.20619600  0.49157300  0.17912000  1
  O  O10  1  0.75868700  0.54412400  0.82126600  1
  O  O11  1  0.25828100  0.04376900  0.82075200  1
  O  O12  1  0.57001800  0.52096000  0.29948800  1
  O  O13  1  0.06968200  0.02069800  0.29941800  1
  O  O14  1  0.72945500  0.18048900  0.70061500  1
  O  O15  1  0.22897700  0.67988700  0.70044500  1
  O  O16  1  0.79222800  0.35038900  0.30424600  1
  O  O17  1  0.29211000  0.85039200  0.30403400  1
  O  O18  1  0.89933700  0.95771400  0.69581600  1
  O  O19  1  0.39982800  0.45792000  0.69586900  1
  O  O20  1  0.63224900  0.90585500  0.41481400  1
  O  O21  1  0.13244200  0.40553300  0.41476500  1
  O  O22  1  0.84428600  0.61756200  0.58524100  1
  O  O23  1  0.34447900  0.11774000  0.58518200  1
  O  O24  1  0.58242800  0.30275100  0.47376600  1
  O  O25  1  0.08280500  0.80287300  0.47398300  1
  O  O26  1  0.94730200  0.16734900  0.52615200  1
  O  O27  1  0.44717800  0.66740700  0.52610900  1
loop_
_geom_bond_atom_site_label_1
_geom_bond_atom_site_label_2
_geom_bond_distance
_geom_bond_site_symmetry_2
Li0 O2 1.956747 1_554
Li0 O4 2.010838 1_555
Li0 O12 2.085987 1_555
Li0 O16 2.107039 1_555
Li1 O3 1.958821 1_554
Li1 O5 2.010985 1_455
Li1 O13 2.087349 1_565
Li1 O17 2.104700 1_555
Li2 O0 1.957317 1_556
Li2 O6 2.010498 1_655
Li2 O14 2.087350 1_555
Li2 O18 2.104452 1_545
Li3 O1 1.958018 1_556
Li3 O7 2.010998 1_555
Li3 O15 2.085323 1_555
Li3 O19 2.107133 1_555
Li4 O4 2.017082 1_555
Li4 O24 2.155531 1_555
Li4 O17 2.157039 1_545
Li4 O20 2.167679 1_545
Li4 O8 2.264603 1_545
Li5 O5 2.015889 1_555
Li5 O16 2.159449 1_555
Li5 O25 2.159852 1_655
Li5 O21 2.164693 1_655
Li5 O9 2.258857 1_655
Li6 O6 2.017655 1_555
Li6 O26 2.159030 1_455
Li6 O19 2.160244 1_555
Li6 O23 2.164692 1_555
Li6 O11 2.258158 1_555
Li7 O7 2.016045 1_555
Li7 O18 2.156078 1_555
Li7 O27 2.156379 1_555
Li7 O22 2.168518 1_555
Li7 O10 2.264537 1_555
C0 O7 1.262223 1_554
C0 O8 1.312232 1_555
C0 O0 1.320551 1_565
C1 O6 1.262095 1_554
C1 O9 1.312554 1_555
C1 O1 1.320405 1_555
C2 O5 1.262093 1_556
C2 O10 1.312346 1_555
C2 O2 1.320574 1_555
C3 O4 1.262095 1_556
C3 O11 1.312493 1_555
C3 O3 1.320361 1_545
O0 V2 2.116373 1_555
O1 V0 2.116439 1_555
O2 V3 2.116300 1_555
O3 V1 2.116593 1_555
O8 V2 2.056723 1_565
O9 V0 2.056287 1_555
O10 V3 2.057038 1_555
O11 V1 2.056303 1_545
O12 Si0 1.647744 1_555
O12 V0 1.894663 1_555
O13 Si1 1.647821 1_545
O13 V2 1.894292 1_455
O14 Si2 1.647835 1_555
O14 V3 1.894148 1_555
O15 Si3 1.647374 1_555
O15 V1 1.895038 1_555
O16 Si0 1.640302 1_555
O16 V2 2.019358 1_555
O17 Si1 1.640560 1_555
O17 V0 2.020279 1_555
O18 Si2 1.640417 1_565
O18 V1 2.020751 1_655
O19 Si3 1.640584 1_555
O19 V3 2.018975 1_555
O20 Si2 1.640324 1_565
O20 V0 1.847990 1_555
O21 Si3 1.640249 1_555
O21 V2 1.848495 1_455
O22 Si0 1.640374 1_555
O22 V1 1.847258 1_655
O23 Si1 1.640441 1_545
O23 V3 1.848555 1_555
O24 Si0 1.643063 1_555
O24 V3 1.926406 1_555
O25 Si1 1.643394 1_555
O25 V1 1.925551 1_555
O26 Si2 1.643091 1_555
O26 V2 1.926265 1_555
O27 Si3 1.643395 1_555
O27 V0 1.926069 1_555
