# generated using pymatgen
data_Sn2(SO4)3
_symmetry_space_group_name_H-M   'P 1'
_cell_length_a   9.06119800
_cell_length_b   9.22225400
_cell_length_c   12.57573600
_cell_angle_alpha   90.00000000
_cell_angle_beta   90.00000000
_cell_angle_gamma   90.00000000
_symmetry_Int_Tables_number   1
_chemical_formula_structural   Sn2(SO4)3
_chemical_formula_sum   'Sn8 S12 O48'
_cell_volume   1050.88722256
_cell_formula_units_Z   4
loop_
 _symmetry_equiv_pos_site_id
 _symmetry_equiv_pos_as_xyz
  1  'x, y, z'
loop_
 _atom_site_type_symbol
 _atom_site_label
 _atom_site_symmetry_multiplicity
 _atom_site_fract_x
 _atom_site_fract_y
 _atom_site_fract_z
 _atom_site_occupancy
  Sn  Sn0  1  0.96839000  0.25163100  0.12271400  1
  Sn  Sn1  1  0.46839000  0.74836900  0.12271400  1
  Sn  Sn2  1  0.96839000  0.75163100  0.37728600  1
  Sn  Sn3  1  0.46839000  0.24836900  0.37728600  1
  Sn  Sn4  1  0.03161000  0.24836900  0.62271400  1
  Sn  Sn5  1  0.53161000  0.75163100  0.62271400  1
  Sn  Sn6  1  0.53161000  0.25163100  0.87728600  1
  Sn  Sn7  1  0.03161000  0.74836900  0.87728600  1
  S  S0  1  0.25000000  0.45817000  0.00000000  1
  S  S1  1  0.75000000  0.54183000  0.00000000  1
  S  S2  1  0.60624300  0.09970200  0.14480900  1
  S  S3  1  0.10624300  0.90029800  0.14480900  1
  S  S4  1  0.10624300  0.40029800  0.35519100  1
  S  S5  1  0.60624300  0.59970200  0.35519100  1
  S  S6  1  0.75000000  0.04183000  0.50000000  1
  S  S7  1  0.25000000  0.95817000  0.50000000  1
  S  S8  1  0.39375700  0.40029800  0.64480900  1
  S  S9  1  0.89375700  0.59970200  0.64480900  1
  S  S10  1  0.89375700  0.09970200  0.85519100  1
  S  S11  1  0.39375700  0.90029800  0.85519100  1
  O  O0  1  0.57710100  0.13090400  0.03121300  1
  O  O1  1  0.07710100  0.86909600  0.03121300  1
  O  O2  1  0.36162000  0.54761200  0.05633900  1
  O  O3  1  0.86162000  0.45238800  0.05633900  1
  O  O4  1  0.17916900  0.36494300  0.08278900  1
  O  O5  1  0.67916900  0.63505700  0.08278900  1
  O  O6  1  0.11446000  0.06119100  0.16235200  1
  O  O7  1  0.61446000  0.93880900  0.16235200  1
  O  O8  1  0.74965400  0.16198400  0.18050400  1
  O  O9  1  0.24965400  0.83801600  0.18050400  1
  O  O10  1  0.98248700  0.83730300  0.20920200  1
  O  O11  1  0.48248700  0.16269700  0.20920200  1
  O  O12  1  0.98248700  0.33730300  0.29079800  1
  O  O13  1  0.48248700  0.66269700  0.29079800  1
  O  O14  1  0.74965400  0.66198400  0.31949600  1
  O  O15  1  0.24965400  0.33801600  0.31949600  1
  O  O16  1  0.61446000  0.43880900  0.33764800  1
  O  O17  1  0.11446000  0.56119100  0.33764800  1
  O  O18  1  0.67916900  0.13505700  0.41721100  1
  O  O19  1  0.17916900  0.86494300  0.41721100  1
  O  O20  1  0.36162000  0.04761200  0.44366100  1
  O  O21  1  0.86162000  0.95238800  0.44366100  1
  O  O22  1  0.57710100  0.63090400  0.46878700  1
  O  O23  1  0.07710100  0.36909600  0.46878700  1
  O  O24  1  0.42289900  0.36909600  0.53121300  1
  O  O25  1  0.92289900  0.63090400  0.53121300  1
  O  O26  1  0.13838000  0.04761200  0.55633900  1
  O  O27  1  0.63838000  0.95238800  0.55633900  1
  O  O28  1  0.82083100  0.13505700  0.58278900  1
  O  O29  1  0.32083100  0.86494300  0.58278900  1
  O  O30  1  0.88554000  0.43880900  0.66235200  1
  O  O31  1  0.38554000  0.56119100  0.66235200  1
  O  O32  1  0.25034600  0.33801600  0.68050400  1
  O  O33  1  0.75034600  0.66198400  0.68050400  1
  O  O34  1  0.51751300  0.33730300  0.70920200  1
  O  O35  1  0.01751300  0.66269700  0.70920200  1
  O  O36  1  0.01751300  0.16269700  0.79079800  1
  O  O37  1  0.51751300  0.83730300  0.79079800  1
  O  O38  1  0.75034600  0.16198400  0.81949600  1
  O  O39  1  0.25034600  0.83801600  0.81949600  1
  O  O40  1  0.38554000  0.06119100  0.83764800  1
  O  O41  1  0.88554000  0.93880900  0.83764800  1
  O  O42  1  0.32083100  0.36494300  0.91721100  1
  O  O43  1  0.82083100  0.63505700  0.91721100  1
  O  O44  1  0.63838000  0.45238800  0.94366100  1
  O  O45  1  0.13838000  0.54761200  0.94366100  1
  O  O46  1  0.92289900  0.13090400  0.96878700  1
  O  O47  1  0.42289900  0.86909600  0.96878700  1
loop_
_geom_bond_atom_site_label_1
_geom_bond_atom_site_label_2
_geom_bond_distance
_geom_bond_site_symmetry_2
O0 S2 1.480978 1_555
O0 Sn6 2.270820 1_554
O1 S3 1.480978 1_555
O1 Sn7 2.270820 1_554
O2 S0 1.485032 1_555
O2 Sn1 2.249563 1_555
O3 S1 1.485032 1_555
O3 Sn0 2.249563 1_555
O4 S0 1.495017 1_555
O4 Sn0 2.234246 1_455
O5 S1 1.495017 1_555
O5 Sn1 2.234246 1_555
O6 S3 1.501954 1_545
O6 Sn0 2.254962 1_455
O7 S2 1.501954 1_565
O7 Sn1 2.254962 1_555
O8 S2 1.489984 1_555
O8 Sn0 2.267166 1_555
O9 S3 1.489984 1_555
O9 Sn1 2.267166 1_555
O10 S3 1.500252 1_655
O10 Sn2 2.260226 1_555
O11 S2 1.500252 1_555
O11 Sn3 2.260226 1_555
O12 S4 1.500252 1_655
O12 Sn0 2.260226 1_555
O13 S5 1.500252 1_555
O13 Sn1 2.260226 1_555
O14 S5 1.489984 1_555
O14 Sn2 2.267166 1_555
O15 S4 1.489984 1_555
O15 Sn3 2.267166 1_555
O16 S5 1.501954 1_555
O16 Sn3 2.254962 1_555
O17 S4 1.501954 1_555
O17 Sn2 2.254962 1_455
O18 S6 1.495017 1_555
O18 Sn3 2.234246 1_555
O19 S7 1.495017 1_555
O19 Sn2 2.234246 1_455
O20 S7 1.485032 1_545
O20 Sn3 2.249563 1_555
O21 S6 1.485032 1_565
O21 Sn2 2.249563 1_555
O22 S5 1.480978 1_555
O22 Sn5 2.270820 1_555
O23 S4 1.480978 1_555
O23 Sn4 2.270820 1_555
O24 S8 1.480978 1_555
O24 Sn3 2.270820 1_555
O25 S9 1.480978 1_555
O25 Sn2 2.270820 1_555
O26 S7 1.485032 1_545
O26 Sn4 2.249563 1_555
O27 S6 1.485032 1_565
O27 Sn5 2.249563 1_555
O28 S6 1.495017 1_555
O28 Sn4 2.234246 1_655
O29 S7 1.495017 1_555
O29 Sn5 2.234246 1_555
O30 S9 1.501954 1_555
O30 Sn4 2.254962 1_655
O31 S8 1.501954 1_555
O31 Sn5 2.254962 1_555
O32 S8 1.489984 1_555
O32 Sn4 2.267166 1_555
O33 S9 1.489984 1_555
O33 Sn5 2.267166 1_555
O34 S8 1.500252 1_555
O34 Sn6 2.260226 1_555
O35 S9 1.500252 1_455
O35 Sn7 2.260226 1_555
O36 S10 1.500252 1_455
O36 Sn4 2.260226 1_555
O37 S11 1.500252 1_555
O37 Sn5 2.260226 1_555
O38 S10 1.489984 1_555
O38 Sn6 2.267166 1_555
O39 S11 1.489984 1_555
O39 Sn7 2.267166 1_555
O40 S11 1.501954 1_545
O40 Sn6 2.254962 1_555
O41 S10 1.501954 1_565
O41 Sn7 2.254962 1_655
O42 S0 1.495017 1_556
O42 Sn6 2.234246 1_555
O43 S1 1.495017 1_556
O43 Sn7 2.234246 1_655
O44 S1 1.485032 1_556
O44 Sn6 2.249563 1_555
O45 S0 1.485032 1_556
O45 Sn7 2.249563 1_555
O46 S10 1.480978 1_555
O46 Sn0 2.270820 1_556
O47 S11 1.480978 1_555
O47 Sn1 2.270820 1_556
