# generated using pymatgen
data_Li10Ti3Co3(NiO8)2
_symmetry_space_group_name_H-M   'P 1'
_cell_length_a   5.98379700
_cell_length_b   5.98635127
_cell_length_c   9.89517334
_cell_angle_alpha   90.78206142
_cell_angle_beta   90.35064969
_cell_angle_gamma   119.56124390
_symmetry_Int_Tables_number   1
_chemical_formula_structural   Li10Ti3Co3(NiO8)2
_chemical_formula_sum   'Li10 Ti3 Co3 Ni2 O16'
_cell_volume   308.25375030
_cell_formula_units_Z   1
loop_
 _symmetry_equiv_pos_site_id
 _symmetry_equiv_pos_as_xyz
  1  'x, y, z'
loop_
 _atom_site_type_symbol
 _atom_site_label
 _atom_site_symmetry_multiplicity
 _atom_site_fract_x
 _atom_site_fract_y
 _atom_site_fract_z
 _atom_site_occupancy
  Li  Li0  1  0.63565600  0.30990800  0.21795000  1
  Li  Li1  1  0.82511600  0.21692500  0.45497200  1
  Li  Li2  1  0.79144800  0.60167500  0.44466600  1
  Li  Li3  1  0.38332500  0.20848900  0.45160600  1
  Li  Li4  1  0.32832400  0.65944900  0.71802200  1
  Li  Li5  1  0.19377200  0.82279200  0.92389400  1
  Li  Li6  1  0.59075200  0.80247400  0.93662700  1
  Li  Li7  1  0.18350300  0.36241000  0.92199600  1
  Li  Li8  1  0.98624300  0.97756700  0.52248500  1
  Li  Li9  1  0.97329700  0.98026100  0.01592700  1
  Ti  Ti0  1  0.81580100  0.63760300  0.71423500  1
  Ti  Ti1  1  0.64552500  0.82374800  0.22478200  1
  Ti  Ti2  1  0.14123500  0.80105200  0.20886200  1
  Co  Co0  1  0.82254300  0.15358300  0.71359500  1
  Co  Co1  1  0.32864500  0.15591900  0.71140400  1
  Co  Co2  1  0.14694200  0.31791000  0.21301600  1
  Ni  Ni0  1  0.65632600  0.31510800  0.96445200  1
  Ni  Ni1  1  0.31716400  0.64638400  0.47651400  1
  O  O0  1  0.82089900  0.66059700  0.10528100  1
  O  O1  1  0.97755700  0.49170700  0.83730100  1
  O  O2  1  0.79774300  0.12428200  0.10259700  1
  O  O3  1  0.66732500  0.34014700  0.58909100  1
  O  O4  1  0.51177000  0.49311700  0.83641900  1
  O  O5  1  0.50335700  0.00981400  0.83396400  1
  O  O6  1  0.65987100  0.79839200  0.59593100  1
  O  O7  1  0.29462300  0.12245600  0.10151000  1
  O  O8  1  0.47580600  0.96905300  0.33120700  1
  O  O9  1  0.32545900  0.67341400  0.10009800  1
  O  O10  1  0.13296200  0.79786300  0.59766800  1
  O  O11  1  0.48571700  0.50576300  0.32722000  1
  O  O12  1  0.00276900  0.50752900  0.32882900  1
  O  O13  1  0.15122200  0.30803400  0.58267200  1
  O  O14  1  0.96729000  0.95900500  0.32865200  1
  O  O15  1  0.98328900  0.96733300  0.83152700  1
loop_
_geom_bond_atom_site_label_1
_geom_bond_atom_site_label_2
_geom_bond_distance
_geom_bond_site_symmetry_2
Li0 O11 2.089005 1_555
Li0 O7 2.104172 1_555
Li0 O8 2.117587 1_545
Li0 O2 2.126208 1_555
Li0 O0 2.159122 1_555
Li0 O12 2.190838 1_655
Li1 O3 1.967926 1_555
Li1 O12 1.991295 1_655
Li1 O13 2.145421 1_655
Li1 O8 2.220208 1_545
Li1 O14 2.434441 1_545
Li2 O12 1.983364 1_655
Li2 O11 1.986557 1_555
Li2 O3 1.992941 1_555
Li2 O14 2.204930 1_555
Li2 O6 2.264557 1_555
Li2 O10 2.322287 1_655
Li3 O3 1.995190 1_555
Li3 O11 2.012565 1_555
Li3 O8 2.127015 1_545
Li3 O13 2.187149 1_555
Li3 O14 2.480517 1_445
Li4 O10 2.106442 1_555
Li4 O6 2.125046 1_555
Li4 O5 2.136438 1_565
Li4 O4 2.159525 1_555
Li4 O1 2.188587 1_455
Li4 O13 2.246845 1_555
Li5 O5 1.864938 1_565
Li5 O1 1.935524 1_455
Li5 O15 2.062327 1_455
Li5 O9 2.276318 1_556
Li5 O7 2.346052 1_566
Li6 O5 1.874688 1_565
Li6 O4 1.927880 1_555
Li6 O9 2.142163 1_556
Li6 O15 2.311563 1_555
Li6 O2 2.340269 1_566
Li7 O4 1.926039 1_555
Li7 O1 1.940713 1_455
Li7 O15 2.227901 1_445
Li7 O9 2.371773 1_556
Li7 O7 2.580397 1_556
Li8 O13 1.810118 1_665
Li8 O10 1.851290 1_655
Li8 O6 1.861293 1_555
Li8 O14 1.919130 1_555
Li9 O15 1.827849 1_554
Li9 O2 1.861939 1_565
Li9 O7 1.866594 1_665
Li9 O0 1.899866 1_555
Co0 O5 2.059403 1_555
Co0 O1 2.126449 1_555
Co0 O15 2.147111 1_545
Co0 O13 2.161231 1_655
Co0 O3 2.162142 1_555
Co0 O6 2.168082 1_545
Co1 O5 2.060186 1_555
Co1 O4 2.130357 1_555
Co1 O13 2.132605 1_555
Co1 O3 2.156234 1_555
Co1 O10 2.161854 1_545
Co1 O15 2.173169 1_445
Co2 O12 2.070967 1_555
Co2 O11 2.083021 1_555
Co2 O7 2.089089 1_555
Co2 O2 2.109783 1_455
Co2 O9 2.180608 1_555
Co2 O14 2.210043 1_445
Ni0 O5 2.028704 1_555
Ni0 O4 2.102801 1_555
Ni0 O1 2.110986 1_555
Ni0 O2 2.207245 1_556
Ni0 O0 2.254795 1_556
Ni0 O7 2.338698 1_556
Ni1 O13 2.068419 1_555
Ni1 O10 2.108824 1_555
Ni1 O6 2.128238 1_555
Ni1 O11 2.174928 1_555
Ni1 O12 2.180812 1_555
Ni1 O8 2.232238 1_555
O0 Ti2 1.947787 1_655
O0 Ti1 2.109119 1_555
O1 Ti0 2.007817 1_555
O2 Ti1 1.996028 1_545
O3 Ti0 1.964413 1_555
O4 Ti0 2.005597 1_555
O6 Ti0 2.017676 1_555
O7 Ti2 1.999501 1_545
O8 Ti1 1.938230 1_555
O8 Ti2 2.106066 1_555
O9 Ti2 1.944347 1_555
O9 Ti1 2.059178 1_555
O10 Ti0 2.028071 1_455
O11 Ti1 1.958037 1_555
O12 Ti2 1.953372 1_555
O14 Ti1 1.958033 1_555
O14 Ti2 2.082813 1_655
O15 Ti0 2.054009 1_555
