# generated using pymatgen
data_Li2CrPO6
_symmetry_space_group_name_H-M   'P 1'
_cell_length_a   4.68843000
_cell_length_b   8.70830100
_cell_length_c   10.27098100
_cell_angle_alpha   90.00000000
_cell_angle_beta   90.00000000
_cell_angle_gamma   90.00000000
_symmetry_Int_Tables_number   1
_chemical_formula_structural   Li2CrPO6
_chemical_formula_sum   'Li8 Cr4 P4 O24'
_cell_volume   419.34627920
_cell_formula_units_Z   4
loop_
 _symmetry_equiv_pos_site_id
 _symmetry_equiv_pos_as_xyz
  1  'x, y, z'
loop_
 _atom_site_type_symbol
 _atom_site_label
 _atom_site_symmetry_multiplicity
 _atom_site_fract_x
 _atom_site_fract_y
 _atom_site_fract_z
 _atom_site_occupancy
  Li  Li0  1  0.02275300  0.31904000  0.08820600  1
  Li  Li1  1  0.53775400  0.62243300  0.13477400  1
  Li  Li2  1  0.03775400  0.12243300  0.36522600  1
  Li  Li3  1  0.52275300  0.81904000  0.41179400  1
  Li  Li4  1  0.47724700  0.31904000  0.58820600  1
  Li  Li5  1  0.96224600  0.62243300  0.63477400  1
  Li  Li6  1  0.46224600  0.12243300  0.86522600  1
  Li  Li7  1  0.97724700  0.81904000  0.91179400  1
  Cr  Cr0  1  0.48242100  0.99980000  0.11380700  1
  Cr  Cr1  1  0.98242100  0.49980000  0.38619300  1
  Cr  Cr2  1  0.01757900  0.99980000  0.61380700  1
  Cr  Cr3  1  0.51757900  0.49980000  0.88619300  1
  P  P0  1  0.08514200  0.80573200  0.21722200  1
  P  P1  1  0.58514200  0.30573200  0.28277800  1
  P  P2  1  0.41485800  0.80573200  0.71722200  1
  P  P3  1  0.91485800  0.30573200  0.78277800  1
  O  O0  1  0.29454900  0.46918100  0.00684500  1
  O  O1  1  0.24751700  0.12538700  0.05540100  1
  O  O2  1  0.22951800  0.81135200  0.07880700  1
  O  O3  1  0.74217600  0.44341500  0.21537100  1
  O  O4  1  0.76056400  0.81591000  0.21675900  1
  O  O5  1  0.69059900  0.15359100  0.21831400  1
  O  O6  1  0.19059900  0.65359100  0.28168600  1
  O  O7  1  0.26056400  0.31591000  0.28324100  1
  O  O8  1  0.24217600  0.94341500  0.28462900  1
  O  O9  1  0.72951800  0.31135200  0.42119300  1
  O  O10  1  0.74751700  0.62538700  0.44459900  1
  O  O11  1  0.79454900  0.96918100  0.49315500  1
  O  O12  1  0.20545100  0.46918100  0.50684500  1
  O  O13  1  0.25248300  0.12538700  0.55540100  1
  O  O14  1  0.27048200  0.81135200  0.57880700  1
  O  O15  1  0.75782400  0.44341500  0.71537100  1
  O  O16  1  0.73943600  0.81591000  0.71675900  1
  O  O17  1  0.80940100  0.15359100  0.71831400  1
  O  O18  1  0.30940100  0.65359100  0.78168600  1
  O  O19  1  0.23943600  0.31591000  0.78324100  1
  O  O20  1  0.25782400  0.94341500  0.78462900  1
  O  O21  1  0.77048200  0.31135200  0.92119300  1
  O  O22  1  0.75248300  0.62538700  0.94459900  1
  O  O23  1  0.70545100  0.96918100  0.99315500  1
loop_
_geom_bond_atom_site_label_1
_geom_bond_atom_site_label_2
_geom_bond_distance
_geom_bond_site_symmetry_2
Li0 O0 2.007895 1_555
Li0 O1 2.016906 1_555
Li0 O21 2.084693 1_454
Li0 O3 2.146967 1_455
Li0 O7 2.292748 1_555
Li0 O5 2.507342 1_455
Li1 O3 2.008516 1_555
Li1 O4 2.153849 1_555
Li1 O0 2.192650 1_555
Li1 O22 2.197614 1_554
Li1 O6 2.235981 1_555
Li1 O2 2.263943 1_555
Li2 O8 2.008516 1_545
Li2 O7 2.153849 1_555
Li2 O11 2.192650 1_445
Li2 O13 2.197614 1_555
Li2 O5 2.235981 1_455
Li2 O9 2.263943 1_455
Li3 O11 2.007895 1_555
Li3 O10 2.016906 1_555
Li3 O14 2.084693 1_555
Li3 O8 2.146967 1_555
Li3 O4 2.292748 1_555
Li3 O6 2.507342 1_555
Li4 O12 2.007895 1_555
Li4 O13 2.016906 1_555
Li4 O9 2.084693 1_555
Li4 O15 2.146967 1_555
Li4 O19 2.292748 1_555
Li4 O17 2.507342 1_555
Li5 O15 2.008516 1_555
Li5 O16 2.153849 1_555
Li5 O12 2.192650 1_655
Li5 O10 2.197614 1_555
Li5 O18 2.235981 1_655
Li5 O14 2.263943 1_655
Li6 O20 2.008516 1_545
Li6 O19 2.153849 1_555
Li6 O23 2.192650 1_545
Li6 O1 2.197614 1_556
Li6 O17 2.235981 1_555
Li6 O21 2.263943 1_555
Li7 O23 2.007895 1_555
Li7 O22 2.016906 1_555
Li7 O2 2.084693 1_656
Li7 O20 2.146967 1_655
Li7 O16 2.292748 1_555
Li7 O18 2.507342 1_655
Cr0 O23 1.643215 1_554
Cr0 O1 1.663990 1_565
Cr0 O5 1.974439 1_565
Cr0 O2 2.056269 1_555
Cr0 O8 2.141989 1_555
Cr0 O4 2.320145 1_555
Cr1 O12 1.643215 1_655
Cr1 O10 1.663990 1_555
Cr1 O6 1.974439 1_655
Cr1 O9 2.056269 1_555
Cr1 O3 2.141989 1_555
Cr1 O7 2.320145 1_655
Cr2 O11 1.643215 1_455
Cr2 O13 1.663990 1_565
Cr2 O17 1.974439 1_465
Cr2 O14 2.056269 1_555
Cr2 O20 2.141989 1_555
Cr2 O16 2.320145 1_455
Cr3 O0 1.643215 1_556
Cr3 O22 1.663990 1_555
Cr3 O18 1.974439 1_555
Cr3 O21 2.056269 1_555
Cr3 O15 2.141989 1_555
Cr3 O19 2.320145 1_555
O2 P0 1.575340 1_555
O3 P1 1.568103 1_555
O4 P0 1.524348 1_655
O5 P1 1.561467 1_555
O6 P0 1.561467 1_555
O7 P1 1.524348 1_555
O8 P0 1.568103 1_555
O9 P1 1.575340 1_555
O14 P2 1.575340 1_555
O15 P3 1.568103 1_555
O16 P2 1.524348 1_555
O17 P3 1.561467 1_555
O18 P2 1.561467 1_555
O19 P3 1.524348 1_455
O20 P2 1.568103 1_555
O21 P3 1.575340 1_555
