# generated using pymatgen
data_Er3TaO7
_symmetry_space_group_name_H-M   'P 1'
_cell_length_a   6.38787104
_cell_length_b   6.38787104
_cell_length_c   7.35658980
_cell_angle_alpha   90.00000000
_cell_angle_beta   90.00000000
_cell_angle_gamma   108.72670428
_symmetry_Int_Tables_number   1
_chemical_formula_structural   Er3TaO7
_chemical_formula_sum   'Er6 Ta2 O14'
_cell_volume   284.29332086
_cell_formula_units_Z   2
loop_
 _symmetry_equiv_pos_site_id
 _symmetry_equiv_pos_as_xyz
  1  'x, y, z'
loop_
 _atom_site_type_symbol
 _atom_site_label
 _atom_site_symmetry_multiplicity
 _atom_site_fract_x
 _atom_site_fract_y
 _atom_site_fract_z
 _atom_site_occupancy
  Er  Er0  1  0.99965081  0.46505305  0.74127122  1
  Er  Er1  1  0.53494695  0.00034919  0.75872878  1
  Er  Er2  1  0.53485846  0.53485846  0.50000000  1
  Er  Er3  1  0.46514154  0.46514154  0.00000000  1
  Er  Er4  1  0.46505305  0.99965081  0.25872878  1
  Er  Er5  1  0.00034919  0.53494695  0.24127122  1
  Ta  Ta0  1  0.00200147  0.00200147  0.50000000  1
  Ta  Ta1  1  0.99799853  0.99799853  0.00000000  1
  O  O0  1  0.07129551  0.92870449  0.25000000  1
  O  O1  1  0.05191470  0.31051768  0.45454266  1
  O  O2  1  0.08395243  0.33069005  0.02488870  1
  O  O3  1  0.36017110  0.63982890  0.25000000  1
  O  O4  1  0.37104623  0.62895377  0.75000000  1
  O  O5  1  0.33069005  0.08395243  0.97511130  1
  O  O6  1  0.31051768  0.05191470  0.54545734  1
  O  O7  1  0.68948232  0.94808530  0.04545734  1
  O  O8  1  0.66930995  0.91604757  0.47511130  1
  O  O9  1  0.62895377  0.37104623  0.25000000  1
  O  O10  1  0.63982890  0.36017110  0.75000000  1
  O  O11  1  0.91604757  0.66930995  0.52488870  1
  O  O12  1  0.94808530  0.68948232  0.95454266  1
  O  O13  1  0.92870449  0.07129551  0.75000000  1
loop_
_geom_bond_atom_site_label_1
_geom_bond_atom_site_label_2
_geom_bond_distance
_geom_bond_site_symmetry_2
Er0 O10 2.178823 1_555
Er0 O12 2.220047 1_555
Er0 O11 2.229124 1_555
Er0 O4 2.265783 1_655
Er0 O2 2.382592 1_656
Er0 O1 2.397265 1_655
Er0 O13 2.409182 1_555
Er1 O10 2.178823 1_555
Er1 O6 2.220047 1_555
Er1 O5 2.229124 1_555
Er1 O4 2.265783 1_545
Er1 O8 2.382592 1_545
Er1 O7 2.397265 1_546
Er1 O13 2.409182 1_555
Er2 O4 2.289670 1_555
Er2 O9 2.289670 1_555
Er2 O11 2.314622 1_555
Er2 O8 2.314622 1_555
Er2 O10 2.357483 1_555
Er2 O3 2.357483 1_555
Er3 O4 2.289670 1_554
Er3 O9 2.289670 1_555
Er3 O2 2.314622 1_555
Er3 O5 2.314622 1_554
Er3 O3 2.357483 1_555
Er3 O10 2.357483 1_554
Er4 O3 2.178823 1_555
Er4 O7 2.220047 1_555
Er4 O8 2.229124 1_555
Er4 O9 2.265783 1_565
Er4 O5 2.382592 1_564
Er4 O6 2.397265 1_565
Er4 O0 2.409182 1_555
Er5 O3 2.178823 1_555
Er5 O1 2.220047 1_555
Er5 O2 2.229124 1_555
Er5 O9 2.265783 1_455
Er5 O11 2.382592 1_455
Er5 O12 2.397265 1_454
Er5 O0 2.409182 1_555
O0 Ta0 1.982598 1_565
O0 Ta1 1.982598 1_455
O1 Ta0 1.921957 1_555
O2 Ta1 2.025383 1_445
O5 Ta1 2.025383 1_446
O6 Ta0 1.921957 1_555
O7 Ta1 1.921957 1_555
O8 Ta0 2.025383 1_665
O11 Ta0 2.025383 1_665
O12 Ta1 1.921957 1_556
O13 Ta0 1.982598 1_655
O13 Ta1 1.982598 1_546
