# generated using pymatgen
data_Lu(SiPt)2
_symmetry_space_group_name_H-M   'P 1'
_cell_length_a   5.67167552
_cell_length_b   5.67167552
_cell_length_c   5.67167552
_cell_angle_alpha   137.08379384
_cell_angle_beta   137.08379384
_cell_angle_gamma   62.30914938
_symmetry_Int_Tables_number   1
_chemical_formula_structural   Lu(SiPt)2
_chemical_formula_sum   'Lu1 Si2 Pt2'
_cell_volume   83.57767424
_cell_formula_units_Z   1
loop_
 _symmetry_equiv_pos_site_id
 _symmetry_equiv_pos_as_xyz
  1  'x, y, z'
loop_
 _atom_site_type_symbol
 _atom_site_label
 _atom_site_symmetry_multiplicity
 _atom_site_fract_x
 _atom_site_fract_y
 _atom_site_fract_z
 _atom_site_occupancy
  Lu  Lu0  1  0.00000000  -0.00000000  0.00000000  1
  Si  Si0  1  0.61752377  0.61752377  0.00000000  1
  Si  Si1  1  0.38247623  0.38247623  -0.00000000  1
  Pt  Pt0  1  0.75000000  0.25000000  0.50000000  1
  Pt  Pt1  1  0.25000000  0.75000000  0.50000000  1
loop_
_geom_bond_atom_site_label_1
_geom_bond_atom_site_label_2
_geom_bond_distance
_geom_bond_site_symmetry_2
Lu0 Si1 3.148215 1_545
Lu0 Si1 3.148215 1_556
Lu0 Si1 3.148215 1_455
Lu0 Si0 3.148215 1_444
Lu0 Si0 3.148215 1_556
Lu0 Si0 3.148215 1_455
Lu0 Si0 3.148215 1_545
Lu0 Si1 3.148215 1_444
Lu0 Pt0 3.192868 1_555
Lu0 Pt1 3.192868 1_444
Lu0 Pt1 3.192868 1_545
Lu0 Pt0 3.192868 1_444
Lu0 Pt0 3.192868 1_454
Lu0 Pt1 3.192868 1_544
Lu0 Pt0 3.192868 1_455
Lu0 Pt1 3.192868 1_555
Si0 Si1 2.281689 1_555
Pt0 Si0 2.441033 1_545
Pt0 Si0 2.441033 1_556
Pt0 Si1 2.441033 1_656
Pt0 Si1 2.441033 1_555
Pt1 Si0 2.441033 1_556
Pt1 Si1 2.441033 1_555
Pt1 Si1 2.441033 1_566
Pt1 Si0 2.441033 1_455
