# generated using pymatgen
data_AlH11SO10
_symmetry_space_group_name_H-M   'P 1'
_cell_length_a   12.62794600
_cell_length_b   8.15689900
_cell_length_c   10.47914052
_cell_angle_alpha   51.80020504
_cell_angle_beta   90.00000000
_cell_angle_gamma   90.00000000
_symmetry_Int_Tables_number   1
_chemical_formula_structural   AlH11SO10
_chemical_formula_sum   'Al4 H44 S4 O40'
_cell_volume   848.25837224
_cell_formula_units_Z   4
loop_
 _symmetry_equiv_pos_site_id
 _symmetry_equiv_pos_as_xyz
  1  'x, y, z'
loop_
 _atom_site_type_symbol
 _atom_site_label
 _atom_site_symmetry_multiplicity
 _atom_site_fract_x
 _atom_site_fract_y
 _atom_site_fract_z
 _atom_site_occupancy
  Al  Al0  1  0.99178400  0.03983600  0.61636700  1
  Al  Al1  1  0.50821600  0.03983600  0.11636700  1
  Al  Al2  1  0.00821600  0.96016400  0.38363300  1
  Al  Al3  1  0.49178400  0.96016400  0.88363300  1
  H  H0  1  0.16645000  0.01698700  0.50925100  1
  H  H1  1  0.33355000  0.01698700  0.00925100  1
  H  H2  1  0.83355000  0.98301300  0.49074900  1
  H  H3  1  0.66645000  0.98301300  0.99074900  1
  H  H4  1  0.10215800  0.17469100  0.74246000  1
  H  H5  1  0.39784200  0.17469100  0.24246000  1
  H  H6  1  0.89784200  0.82530900  0.25754000  1
  H  H7  1  0.60215800  0.82530900  0.75754000  1
  H  H8  1  0.12096600  0.91938700  0.85387800  1
  H  H9  1  0.37903400  0.91938700  0.35387800  1
  H  H10  1  0.87903400  0.08061300  0.14612200  1
  H  H11  1  0.62096600  0.08061300  0.64612200  1
  H  H12  1  0.80735700  0.17795200  0.62324900  1
  H  H13  1  0.69264300  0.17795200  0.12324900  1
  H  H14  1  0.19264300  0.82204800  0.37675100  1
  H  H15  1  0.30735700  0.82204800  0.87675100  1
  H  H16  1  0.85496500  0.03115100  0.80710300  1
  H  H17  1  0.64503500  0.03115100  0.30710300  1
  H  H18  1  0.14503500  0.96884900  0.19289700  1
  H  H19  1  0.35496500  0.96884900  0.69289700  1
  H  H20  1  0.96934800  0.43987700  0.39703300  1
  H  H21  1  0.53065200  0.43987700  0.89703300  1
  H  H22  1  0.03065200  0.56012300  0.60296700  1
  H  H23  1  0.46934800  0.56012300  0.10296700  1
  H  H24  1  0.09389000  0.38122400  0.40526300  1
  H  H25  1  0.40611000  0.38122400  0.90526300  1
  H  H26  1  0.90611000  0.61877600  0.59473700  1
  H  H27  1  0.59389000  0.61877600  0.09473700  1
  H  H28  1  0.93468800  0.69030700  0.89709300  1
  H  H29  1  0.56531200  0.69030700  0.39709300  1
  H  H30  1  0.06531200  0.30969300  0.10290700  1
  H  H31  1  0.43468800  0.30969300  0.60290700  1
  H  H32  1  0.02450100  0.64460400  0.81408700  1
  H  H33  1  0.47549900  0.64460400  0.31408700  1
  H  H34  1  0.97549900  0.35539600  0.18591300  1
  H  H35  1  0.52450100  0.35539600  0.68591300  1
  H  H36  1  0.70304100  0.37421300  0.40456200  1
  H  H37  1  0.79695900  0.37421300  0.90456200  1
  H  H38  1  0.29695900  0.62578700  0.59543800  1
  H  H39  1  0.20304100  0.62578700  0.09543800  1
  H  H40  1  0.67832700  0.39106300  0.54436700  1
  H  H41  1  0.82167300  0.39106300  0.04436700  1
  H  H42  1  0.32167300  0.60893700  0.45563300  1
  H  H43  1  0.17832700  0.60893700  0.95563300  1
  S  S0  1  0.68455300  0.64938800  0.63925000  1
  S  S1  1  0.81544700  0.64938800  0.13925000  1
  S  S2  1  0.31544700  0.35061200  0.36075000  1
  S  S3  1  0.18455300  0.35061200  0.86075000  1
  O  O0  1  0.09305500  0.96382400  0.53068100  1
  O  O1  1  0.40694500  0.96382400  0.03068100  1
  O  O2  1  0.90694500  0.03617600  0.46931900  1
  O  O3  1  0.59305500  0.03617600  0.96931900  1
  O  O4  1  0.08163700  0.04274500  0.76057500  1
  O  O5  1  0.41836300  0.04274500  0.26057500  1
  O  O6  1  0.91836300  0.95725500  0.23942500  1
  O  O7  1  0.58163700  0.95725500  0.73942500  1
  O  O8  1  0.87333300  0.10837000  0.69072100  1
  O  O9  1  0.62666700  0.10837000  0.19072100  1
  O  O10  1  0.12666700  0.89163000  0.30927900  1
  O  O11  1  0.37333300  0.89163000  0.80927900  1
  O  O12  1  0.02523600  0.33406600  0.46516000  1
  O  O13  1  0.47476400  0.33406600  0.96516000  1
  O  O14  1  0.97476400  0.66593400  0.53484000  1
  O  O15  1  0.52523600  0.66593400  0.03484000  1
  O  O16  1  0.96947900  0.74611600  0.79146600  1
  O  O17  1  0.53052100  0.74611600  0.29146600  1
  O  O18  1  0.03052100  0.25388400  0.20853400  1
  O  O19  1  0.46947900  0.25388400  0.70853400  1
  O  O20  1  0.78747400  0.53581200  0.69600500  1
  O  O21  1  0.71252600  0.53581200  0.19600500  1
  O  O22  1  0.21252600  0.46418800  0.30399500  1
  O  O23  1  0.28747400  0.46418800  0.80399500  1
  O  O24  1  0.61644300  0.55781200  0.57805300  1
  O  O25  1  0.88355700  0.55781200  0.07805300  1
  O  O26  1  0.38355700  0.44218800  0.42194700  1
  O  O27  1  0.11644300  0.44218800  0.92194700  1
  O  O28  1  0.62918200  0.61681300  0.77897200  1
  O  O29  1  0.87081800  0.61681300  0.27897200  1
  O  O30  1  0.37081800  0.38318700  0.22102800  1
  O  O31  1  0.12918200  0.38318700  0.72102800  1
  O  O32  1  0.70042000  0.87563300  0.50606700  1
  O  O33  1  0.79958000  0.87563300  0.00606700  1
  O  O34  1  0.29958000  0.12436700  0.49393300  1
  O  O35  1  0.20042000  0.12436700  0.99393300  1
  O  O36  1  0.69761300  0.29019100  0.52513300  1
  O  O37  1  0.80238700  0.29019100  0.02513300  1
  O  O38  1  0.30238700  0.70980900  0.47486700  1
  O  O39  1  0.19761300  0.70980900  0.97486700  1
loop_
_geom_bond_atom_site_label_1
_geom_bond_atom_site_label_2
_geom_bond_distance
_geom_bond_site_symmetry_2
Al0 O0 1.874751 1_645
Al0 O2 1.892102 1_555
Al0 O4 1.901582 1_655
Al0 O8 1.922427 1_555
Al0 O12 1.935396 1_655
Al0 O16 1.936251 1_545
Al1 O1 1.874751 1_545
Al1 O3 1.892102 1_554
Al1 O5 1.901582 1_555
Al1 O9 1.922427 1_555
Al1 O13 1.935396 1_554
Al1 O17 1.936251 1_545
Al2 O2 1.874751 1_465
Al2 O0 1.892102 1_555
Al2 O6 1.901582 1_455
Al2 O10 1.922427 1_555
Al2 O14 1.935396 1_455
Al2 O18 1.936251 1_565
Al3 O3 1.874751 1_565
Al3 O1 1.892102 1_556
Al3 O7 1.901582 1_555
Al3 O11 1.922427 1_555
Al3 O15 1.935396 1_556
Al3 O19 1.936251 1_565
H0 O0 0.988456 1_545
H1 O1 0.988456 1_545
H2 O2 0.988456 1_565
H3 O3 0.988456 1_565
H4 O4 1.004418 1_555
H4 O31 1.608355 1_555
H5 O5 1.004418 1_555
H5 O30 1.608355 1_555
H6 O6 1.004418 1_555
H6 O29 1.608355 1_555
H7 O7 1.004418 1_555
H7 O28 1.608355 1_555
H8 O4 0.999152 1_565
H9 O5 0.999152 1_565
H10 O6 0.999152 1_545
H11 O7 0.999152 1_545
H12 O8 1.009875 1_555
H12 O36 1.628388 1_555
H13 O9 1.009875 1_555
H13 O37 1.628388 1_555
H14 O10 1.009875 1_555
H14 O38 1.628388 1_555
H15 O11 1.009875 1_555
H15 O39 1.628388 1_555
H16 O8 0.993896 1_555
H17 O9 0.993896 1_555
H18 O10 0.993896 1_555
H19 O11 0.993896 1_555
H20 O12 0.995285 1_655
H20 O29 1.718515 1_555
H21 O13 0.995285 1_555
H21 O28 1.718515 1_555
H22 O14 0.995285 1_455
H22 O31 1.718515 1_555
H23 O15 0.995285 1_555
H23 O30 1.718515 1_555
H24 O12 0.997464 1_555
H24 O22 1.714728 1_555
H25 O13 0.997464 1_555
H25 O23 1.714728 1_555
H26 O14 0.997464 1_555
H26 O20 1.714728 1_555
H27 O15 0.997464 1_555
H27 O21 1.714728 1_555
H28 O16 1.001113 1_555
H28 O25 1.626695 1_556
H29 O17 1.001113 1_555
H29 O24 1.626695 1_555
H30 O18 1.001113 1_555
H30 O27 1.626695 1_554
H31 O19 1.001113 1_555
H31 O26 1.626695 1_555
H32 O16 0.990868 1_455
H33 O17 0.990868 1_555
H34 O18 0.990868 1_655
H35 O19 0.990868 1_555
H36 O36 0.999898 1_555
H36 O21 1.721989 1_555
H37 O37 0.999898 1_556
H37 O20 1.721989 1_555
H38 O38 0.999898 1_555
H38 O23 1.721989 1_555
H39 O39 0.999898 1_554
H39 O22 1.721989 1_555
H40 O36 0.990987 1_555
H41 O37 0.990987 1_555
H42 O38 0.990987 1_555
H43 O39 0.990987 1_555
O20 S0 1.489863 1_555
O21 S1 1.489863 1_555
O22 S2 1.489863 1_555
O23 S3 1.489863 1_555
O24 S0 1.517054 1_555
O25 S1 1.517054 1_555
O26 S2 1.517054 1_555
O27 S3 1.517054 1_555
O28 S0 1.490678 1_555
O29 S1 1.490678 1_555
O30 S2 1.490678 1_555
O31 S3 1.490678 1_555
O32 S0 1.485984 1_555
O33 S1 1.485984 1_555
O34 S2 1.485984 1_555
O35 S3 1.485984 1_555
