# generated using pymatgen
data_Na5Mn2P(CO4)4
_symmetry_space_group_name_H-M   'P 1'
_cell_length_a   10.08983030
_cell_length_b   10.04430215
_cell_length_c   9.96005392
_cell_angle_alpha   60.57888840
_cell_angle_beta   60.12366024
_cell_angle_gamma   59.29745136
_symmetry_Int_Tables_number   1
_chemical_formula_structural   Na5Mn2P(CO4)4
_chemical_formula_sum   'Na10 Mn4 P2 C8 O32'
_cell_volume   713.57405030
_cell_formula_units_Z   2
loop_
 _symmetry_equiv_pos_site_id
 _symmetry_equiv_pos_as_xyz
  1  'x, y, z'
loop_
 _atom_site_type_symbol
 _atom_site_label
 _atom_site_symmetry_multiplicity
 _atom_site_fract_x
 _atom_site_fract_y
 _atom_site_fract_z
 _atom_site_occupancy
  Na  Na0  1  0.79481900  0.79481900  0.20518100  1
  Na  Na1  1  0.79100700  0.20899300  0.79100700  1
  Na  Na2  1  0.79136500  0.20863500  0.20863500  1
  Na  Na3  1  0.54281500  0.54281500  0.95718500  1
  Na  Na4  1  0.20863500  0.79136500  0.79136500  1
  Na  Na5  1  0.53971800  0.96028200  0.96028200  1
  Na  Na6  1  0.20518100  0.20518100  0.79481900  1
  Na  Na7  1  0.20899300  0.79100700  0.20899300  1
  Na  Na8  1  0.96028200  0.53971800  0.53971800  1
  Na  Na9  1  0.95718500  0.95718500  0.54281500  1
  Mn  Mn0  1  0.37032700  0.37656600  0.87583600  1
  Mn  Mn1  1  0.37727100  0.87583600  0.37656600  1
  Mn  Mn2  1  0.37656600  0.37032700  0.37727100  1
  Mn  Mn3  1  0.87583600  0.37727100  0.37032700  1
  P  P0  1  0.75000000  0.75000000  0.75000000  1
  P  P1  1  0.00000000  0.00000000  0.00000000  1
  C  C0  1  0.59110300  0.59318900  0.58779800  1
  C  C1  1  0.52353600  0.16364300  0.15292500  1
  C  C2  1  0.15292500  0.15989500  0.52353600  1
  C  C3  1  0.16364300  0.52353600  0.15989500  1
  C  C4  1  0.58779800  0.22791100  0.59110300  1
  C  C5  1  0.59318900  0.59110300  0.22791100  1
  C  C6  1  0.22791100  0.58779800  0.59318900  1
  C  C7  1  0.15989500  0.15292500  0.16364300  1
  O  O0  1  0.73470800  0.47648700  0.56630000  1
  O  O1  1  0.52956200  0.02315200  0.17472900  1
  O  O2  1  0.56776600  0.72634900  0.46715000  1
  O  O3  1  0.52151900  0.27999800  0.01215600  1
  O  O4  1  0.47901400  0.57316000  0.72867300  1
  O  O5  1  0.81207400  0.56102500  0.80837100  1
  O  O6  1  0.81852900  0.80837100  0.56102500  1
  O  O7  1  0.52625800  0.19016500  0.26611200  1
  O  O8  1  0.19016500  0.52625800  0.01746500  1
  O  O9  1  0.26611200  0.01746500  0.52625800  1
  O  O10  1  0.80837100  0.81852900  0.81207400  1
  O  O11  1  0.56102500  0.81207400  0.81852900  1
  O  O12  1  0.57316000  0.47901400  0.21915300  1
  O  O13  1  0.72867300  0.21915300  0.47901400  1
  O  O14  1  0.27999800  0.52151900  0.18632700  1
  O  O15  1  0.01215600  0.18632700  0.52151900  1
  O  O16  1  0.72634900  0.56776600  0.23873500  1
  O  O17  1  0.46715000  0.23873500  0.56776600  1
  O  O18  1  0.17472900  0.27255600  0.52956200  1
  O  O19  1  0.02315200  0.52956200  0.27255600  1
  O  O20  1  0.19000000  0.93386000  0.93869100  1
  O  O21  1  0.93744900  0.93869100  0.93386000  1
  O  O22  1  0.47648700  0.73470800  0.22250500  1
  O  O23  1  0.56630000  0.22250500  0.73470800  1
  O  O24  1  0.22250500  0.56630000  0.47648700  1
  O  O25  1  0.93869100  0.93744900  0.19000000  1
  O  O26  1  0.93386000  0.19000000  0.93744900  1
  O  O27  1  0.27255600  0.17472900  0.02315200  1
  O  O28  1  0.23873500  0.46715000  0.72634900  1
  O  O29  1  0.18632700  0.01215600  0.27999800  1
  O  O30  1  0.21915300  0.72867300  0.57316000  1
  O  O31  1  0.01746500  0.26611200  0.19016500  1
loop_
_geom_bond_atom_site_label_1
_geom_bond_atom_site_label_2
_geom_bond_distance
_geom_bond_site_symmetry_2
Na0 O21 2.423779 1_554
Na0 O25 2.423779 1_555
Na0 O19 2.524328 1_655
Na0 O1 2.524330 1_565
Na0 O16 2.533796 1_555
Na0 O2 2.533796 1_555
Na1 O21 2.404506 1_545
Na1 O26 2.404506 1_555
Na1 O15 2.519929 1_655
Na1 O3 2.519929 1_556
Na1 O0 2.520099 1_555
Na1 O23 2.520099 1_555
Na2 O26 2.398066 1_554
Na2 O25 2.398066 1_545
Na2 O12 2.485490 1_555
Na2 O13 2.485490 1_555
Na2 O31 2.528632 1_655
Na2 O7 2.528632 1_555
Na3 O11 2.416732 1_555
Na3 O5 2.416732 1_555
Na3 O4 2.503041 1_555
Na3 O12 2.503041 1_556
Na3 O3 2.521232 1_556
Na3 O14 2.521232 1_556
Na4 O20 2.398066 1_555
Na4 O21 2.398066 1_455
Na4 O30 2.485490 1_555
Na4 O4 2.485490 1_555
Na4 O9 2.528632 1_565
Na4 O8 2.528632 1_556
Na5 O10 2.385647 1_555
Na5 O11 2.385652 1_555
Na5 O1 2.452009 1_566
Na5 O27 2.452014 1_566
Na5 O23 2.522741 1_565
Na5 O22 2.522741 1_556
Na6 O20 2.423779 1_545
Na6 O26 2.423779 1_455
Na6 O27 2.524324 1_556
Na6 O18 2.524333 1_555
Na6 O17 2.533796 1_555
Na6 O28 2.533796 1_555
Na7 O25 2.404506 1_455
Na7 O20 2.404506 1_554
Na7 O14 2.519929 1_555
Na7 O29 2.519929 1_565
Na7 O24 2.520099 1_555
Na7 O22 2.520099 1_555
Na8 O6 2.385644 1_555
Na8 O5 2.385644 1_555
Na8 O18 2.452015 1_655
Na8 O19 2.452019 1_655
Na8 O24 2.522741 1_655
Na8 O0 2.522741 1_555
Na9 O10 2.416735 1_555
Na9 O6 2.416741 1_555
Na9 O13 2.503041 1_565
Na9 O30 2.503041 1_655
Na9 O29 2.521232 1_665
Na9 O15 2.521232 1_665
Mn0 O28 2.052439 1_555
Mn0 O8 2.071964 1_556
Mn0 O3 2.090489 1_556
Mn0 O23 2.126882 1_555
Mn0 O27 2.216720 1_556
Mn0 O4 2.239785 1_555
Mn1 O2 2.052439 1_555
Mn1 O9 2.071964 1_565
Mn1 O29 2.090489 1_565
Mn1 O22 2.126882 1_555
Mn1 O1 2.216714 1_565
Mn1 O30 2.239785 1_555
Mn2 O17 2.052439 1_555
Mn2 O7 2.071964 1_555
Mn2 O14 2.090489 1_555
Mn2 O24 2.126882 1_555
Mn2 O18 2.216720 1_555
Mn2 O12 2.239785 1_555
Mn3 O16 2.052439 1_555
Mn3 O31 2.071964 1_655
Mn3 O15 2.090489 1_655
Mn3 O0 2.126882 1_555
Mn3 O19 2.216712 1_655
Mn3 O13 2.239785 1_555
C0 O4 1.289330 1_555
C0 O2 1.292136 1_555
C0 O0 1.312418 1_555
C1 O1 1.290977 1_555
C1 O7 1.294605 1_555
C1 O3 1.313915 1_555
C2 O18 1.290977 1_555
C2 O9 1.294599 1_555
C2 O15 1.313911 1_555
C3 O19 1.290977 1_555
C3 O8 1.294595 1_555
C3 O14 1.313921 1_555
C4 O13 1.289329 1_555
C4 O17 1.292141 1_555
C4 O23 1.312414 1_555
C5 O12 1.289335 1_555
C5 O16 1.292131 1_555
C5 O22 1.312418 1_555
C6 O30 1.289326 1_555
C6 O28 1.292135 1_555
C6 O24 1.312424 1_555
C7 O27 1.290977 1_555
C7 O31 1.294599 1_555
C7 O29 1.313916 1_555
O5 P0 1.548471 1_555
O6 P0 1.548471 1_555
O10 P0 1.548463 1_555
O11 P0 1.548471 1_555
O20 P1 1.556000 1_566
O21 P1 1.556000 1_666
O25 P1 1.556000 1_665
O26 P1 1.556000 1_656
