# generated using pymatgen
data_Li5NbO5
_symmetry_space_group_name_H-M   'P 1'
_cell_length_a   5.33421009
_cell_length_b   5.33421009
_cell_length_c   5.88505410
_cell_angle_alpha   72.57994822
_cell_angle_beta   72.57994822
_cell_angle_gamma   44.79761965
_symmetry_Int_Tables_number   1
_chemical_formula_structural   Li5NbO5
_chemical_formula_sum   'Li5 Nb1 O5'
_cell_volume   111.63087049
_cell_formula_units_Z   1
loop_
 _symmetry_equiv_pos_site_id
 _symmetry_equiv_pos_as_xyz
  1  'x, y, z'
loop_
 _atom_site_type_symbol
 _atom_site_label
 _atom_site_symmetry_multiplicity
 _atom_site_fract_x
 _atom_site_fract_y
 _atom_site_fract_z
 _atom_site_occupancy
  Li  Li0  1  0.71295500  0.71295500  0.65632900  1
  Li  Li1  1  0.69228300  0.69228300  0.14024700  1
  Li  Li2  1  0.00000000  0.00000000  0.50000000  1
  Li  Li3  1  0.30771700  0.30771700  0.85975300  1
  Li  Li4  1  0.28704500  0.28704500  0.34367100  1
  Nb  Nb0  1  0.00000000  0.00000000  0.00000000  1
  O  O0  1  0.85496100  0.85496100  0.82531100  1
  O  O1  1  0.84207800  0.84207800  0.31749300  1
  O  O2  1  0.50000000  0.50000000  0.00000000  1
  O  O3  1  0.15792200  0.15792200  0.68250700  1
  O  O4  1  0.14503900  0.14503900  0.17468900  1
loop_
_geom_bond_atom_site_label_1
_geom_bond_atom_site_label_2
_geom_bond_distance
_geom_bond_site_symmetry_2
Li0 O0 1.962893 1_555
Li0 O1 1.988386 1_555
Li0 O3 2.096598 1_655
Li0 O3 2.096598 1_565
Li0 O2 2.398212 1_556
Li1 O0 2.020858 1_554
Li1 O1 2.066199 1_555
Li1 O4 2.080518 1_655
Li1 O4 2.080518 1_565
Li1 O2 2.300439 1_555
Li2 O0 1.984469 1_445
Li2 O4 1.984469 1_555
Li2 O1 2.159494 1_445
Li2 O3 2.159494 1_555
Li3 O4 2.020858 1_556
Li3 O3 2.066199 1_555
Li3 O0 2.080518 1_545
Li3 O0 2.080518 1_455
Li3 O2 2.300439 1_556
Li4 O4 1.962893 1_555
Li4 O3 1.988386 1_555
Li4 O1 2.096598 1_455
Li4 O1 2.096598 1_545
Li4 O2 2.398212 1_555
Nb0 O1 2.008147 1_445
Nb0 O3 2.008147 1_554
Nb0 O4 2.013942 1_555
Nb0 O0 2.013942 1_444
Nb0 O2 2.032607 1_455
Nb0 O2 2.032607 1_545
