# generated using pymatgen
data_Li4Ni5Te(PO4)6
_symmetry_space_group_name_H-M   'P 1'
_cell_length_a   8.30417000
_cell_length_b   8.39669178
_cell_length_c   8.39912497
_cell_angle_alpha   64.26667771
_cell_angle_beta   64.61875516
_cell_angle_gamma   64.70885491
_symmetry_Int_Tables_number   1
_chemical_formula_structural   Li4Ni5Te(PO4)6
_chemical_formula_sum   'Li4 Ni5 Te1 P6 O24'
_cell_volume   455.24873997
_cell_formula_units_Z   1
loop_
 _symmetry_equiv_pos_site_id
 _symmetry_equiv_pos_as_xyz
  1  'x, y, z'
loop_
 _atom_site_type_symbol
 _atom_site_label
 _atom_site_symmetry_multiplicity
 _atom_site_fract_x
 _atom_site_fract_y
 _atom_site_fract_z
 _atom_site_occupancy
  Li  Li0  1  0.25833300  0.64294600  0.85624700  1
  Li  Li1  1  0.70549700  0.36258800  0.15948000  1
  Li  Li2  1  0.36949400  0.15642600  0.70358400  1
  Li  Li3  1  0.15508400  0.69898100  0.36765700  1
  Ni  Ni0  1  0.99089800  0.99933000  0.99890200  1
  Ni  Ni1  1  0.64632700  0.65011300  0.64740100  1
  Ni  Ni2  1  0.51061600  0.50191000  0.50101600  1
  Ni  Ni3  1  0.85889300  0.85624700  0.85405200  1
  Ni  Ni4  1  0.35101600  0.34851700  0.34747500  1
  Te  Te0  1  0.15267000  0.15453500  0.15776600  1
  P  P0  1  0.92719200  0.56798600  0.25385100  1
  P  P1  1  0.57033800  0.24813900  0.93117500  1
  P  P2  1  0.25147900  0.93465900  0.56524800  1
  P  P3  1  0.74872800  0.05154200  0.45746600  1
  P  P4  1  0.44759300  0.74794900  0.05079800  1
  P  P5  1  0.06152300  0.45688000  0.75224400  1
  O  O0  1  0.51830200  0.30676600  0.10121000  1
  O  O1  1  0.30939300  0.10424000  0.51363100  1
  O  O2  1  0.09979800  0.51375700  0.31331500  1
  O  O3  1  0.92890700  0.75480200  0.09698900  1
  O  O4  1  0.93396100  0.41879300  0.18340800  1
  O  O5  1  0.74270700  0.58071400  0.41142500  1
  O  O6  1  0.76269500  0.10195300  0.91705800  1
  O  O7  1  0.56622900  0.41495600  0.75218400  1
  O  O8  1  0.82718700  0.01832000  0.60351100  1
  O  O9  1  0.40296300  0.74367200  0.58340500  1
  O  O10  1  0.90242900  0.08308100  0.24614100  1
  O  O11  1  0.60962600  0.81384600  0.99775400  1
  O  O12  1  0.42088800  0.17164600  0.94361600  1
  O  O13  1  0.10817400  0.91680000  0.76228500  1
  O  O14  1  0.59514700  0.24748200  0.43396600  1
  O  O15  1  0.17898600  0.94275100  0.41701200  1
  O  O16  1  0.43360700  0.59307300  0.24541200  1
  O  O17  1  0.24039300  0.90442200  0.08970500  1
  O  O18  1  0.25247900  0.42925600  0.59261300  1
  O  O19  1  0.05678600  0.59599100  0.82506000  1
  O  O20  1  0.08154700  0.24814200  0.90486800  1
  O  O21  1  0.89347600  0.50495500  0.69702000  1
  O  O22  1  0.68177300  0.89985100  0.48280400  1
  O  O23  1  0.44686500  0.68898100  0.90424500  1
loop_
_geom_bond_atom_site_label_1
_geom_bond_atom_site_label_2
_geom_bond_distance
_geom_bond_site_symmetry_2
Li0 O23 1.989101 1_555
Li0 O19 2.013606 1_555
Li0 O9 2.057850 1_555
Li0 O13 2.069567 1_555
Li0 O7 2.514165 1_555
Li1 O14 2.024760 1_555
Li1 O0 2.085588 1_555
Li1 O10 2.229338 1_555
Li1 O4 2.244272 1_555
Li1 O16 2.333777 1_555
Li2 O18 2.020219 1_555
Li2 O1 2.112602 1_555
Li2 O20 2.293574 1_555
Li2 O12 2.295850 1_555
Li2 O14 2.303682 1_555
Li3 O16 2.047966 1_555
Li3 O2 2.060126 1_555
Li3 O17 2.248780 1_555
Li3 O18 2.320010 1_555
Li3 O15 2.356982 1_555
Ni0 O6 2.003340 1_565
Ni0 O3 2.056726 1_556
Ni0 O13 2.082876 1_655
Ni0 O10 2.205742 1_566
Ni0 O17 2.219319 1_656
Ni0 O20 2.226299 1_665
Ni1 O21 2.006554 1_555
Ni1 O22 2.014028 1_555
Ni1 O5 2.037879 1_555
Ni1 O9 2.048973 1_555
Ni1 O7 2.055994 1_555
Ni1 O23 2.142450 1_555
Ni2 O5 2.032889 1_555
Ni2 O7 2.099124 1_555
Ni2 O9 2.130224 1_555
Ni2 O14 2.190527 1_555
Ni2 O18 2.203438 1_555
Ni2 O16 2.221607 1_555
Ni3 O11 1.995741 1_555
Ni3 O8 2.007873 1_565
Ni3 O3 2.076454 1_556
Ni3 O13 2.080619 1_655
Ni3 O6 2.086172 1_565
Ni3 O19 2.141484 1_655
Ni4 O1 1.995175 1_555
Ni4 O2 2.013389 1_555
Ni4 O0 2.020221 1_555
Ni4 O16 2.143057 1_555
Ni4 O14 2.148315 1_555
Ni4 O18 2.159217 1_555
O0 P1 1.538943 1_554
O1 P2 1.522205 1_545
O2 P0 1.539428 1_455
O3 P0 1.550807 1_555
O4 P0 1.574005 1_555
O4 Te0 2.214669 1_655
O5 P0 1.534528 1_555
O6 P1 1.536566 1_555
O7 P1 1.548489 1_555
O8 P3 1.496563 1_555
O9 P2 1.551075 1_555
O10 P3 1.669776 1_555
O10 Te0 2.141365 1_655
O11 P4 1.491078 1_556
O12 P1 1.573312 1_555
O12 Te0 2.198049 1_556
O13 P2 1.557596 1_555
O14 P3 1.585341 1_555
O15 P2 1.565664 1_555
O15 Te0 2.159809 1_565
O16 P4 1.580173 1_555
O17 P4 1.659149 1_555
O17 Te0 2.155528 1_565
O18 P5 1.580860 1_555
O19 P5 1.516721 1_555
O20 P5 1.650935 1_555
O20 Te0 2.169696 1_556
O21 P5 1.495484 1_655
O22 P3 1.498342 1_565
O23 P4 1.516092 1_556
