# generated using pymatgen
data_FeOF
_symmetry_space_group_name_H-M   'P 1'
_cell_length_a   9.46097354
_cell_length_b   14.24752991
_cell_length_c   3.08523300
_cell_angle_alpha   90.00000000
_cell_angle_beta   90.00000000
_cell_angle_gamma   90.29495693
_symmetry_Int_Tables_number   1
_chemical_formula_structural   FeOF
_chemical_formula_sum   'Fe12 O12 F12'
_cell_volume   415.87002464
_cell_formula_units_Z   12
loop_
 _symmetry_equiv_pos_site_id
 _symmetry_equiv_pos_as_xyz
  1  'x, y, z'
loop_
 _atom_site_type_symbol
 _atom_site_label
 _atom_site_symmetry_multiplicity
 _atom_site_fract_x
 _atom_site_fract_y
 _atom_site_fract_z
 _atom_site_occupancy
  Fe  Fe0  1  0.00041700  0.00076100  0.00000000  1
  Fe  Fe1  1  0.01939100  0.33172400  0.00000000  1
  Fe  Fe2  1  0.00317700  0.66701200  0.00000000  1
  Fe  Fe3  1  0.25659100  0.18226200  0.50000000  1
  Fe  Fe4  1  0.25175500  0.48348000  0.50000000  1
  Fe  Fe5  1  0.22175000  0.83302300  0.50000000  1
  Fe  Fe6  1  0.48836900  0.33721600  0.00000000  1
  Fe  Fe7  1  0.51534500  0.00125500  0.00000000  1
  Fe  Fe8  1  0.51446000  0.66180300  0.00000000  1
  Fe  Fe9  1  0.75266000  0.15185000  0.50000000  1
  Fe  Fe10  1  0.75799900  0.51567800  0.50000000  1
  Fe  Fe11  1  0.71941000  0.83212400  0.50000000  1
  O  O0  1  0.09596700  0.26710700  0.50000000  1
  O  O1  1  0.09490500  0.93594500  0.50000000  1
  O  O2  1  0.14643900  0.76216800  0.00000000  1
  O  O3  1  0.15170100  0.43500100  0.00000000  1
  O  O4  1  0.35644600  0.23217600  0.00000000  1
  O  O5  1  0.40944500  0.40308400  0.50000000  1
  O  O6  1  0.59176100  0.93651200  0.50000000  1
  O  O7  1  0.59232600  0.59606600  0.50000000  1
  O  O8  1  0.64553000  0.10669400  0.00000000  1
  O  O9  1  0.64874900  0.76527800  0.00000000  1
  O  O10  1  0.85736400  0.56964000  0.00000000  1
  O  O11  1  0.90554100  0.06454700  0.50000000  1
  F  F0  1  0.10313800  0.59993100  0.50000000  1
  F  F1  1  0.16173200  0.10367100  0.00000000  1
  F  F2  1  0.34287300  0.56760700  0.00000000  1
  F  F3  1  0.34458900  0.89487500  0.00000000  1
  F  F4  1  0.39330400  0.06187700  0.50000000  1
  F  F5  1  0.39751500  0.72828600  0.50000000  1
  F  F6  1  0.60470100  0.27681200  0.50000000  1
  F  F7  1  0.66394000  0.43518000  0.00000000  1
  F  F8  1  0.84462300  0.23598700  0.00000000  1
  F  F9  1  0.84241800  0.89199800  0.00000000  1
  F  F10  1  0.90086700  0.39949800  0.50000000  1
  F  F11  1  0.90280200  0.73187000  0.50000000  1
loop_
_geom_bond_atom_site_label_1
_geom_bond_atom_site_label_2
_geom_bond_distance
_geom_bond_site_symmetry_2
Fe0 O11 2.004916 1_455
Fe0 O11 2.004916 1_454
Fe0 O1 2.010001 1_545
Fe0 O1 2.010001 1_544
Fe1 O3 1.926950 1_555
Fe1 O0 1.938807 1_555
Fe1 O0 1.938807 1_554
Fe2 O2 1.912122 1_555
Fe2 O10 1.951419 1_455
Fe3 O4 1.941904 1_555
Fe3 O4 1.941904 1_556
Fe3 O0 1.946677 1_555
Fe4 O5 1.885578 1_555
Fe4 O3 1.935478 1_555
Fe4 O3 1.935478 1_556
Fe5 O1 1.899628 1_555
Fe5 O2 1.974600 1_556
Fe5 O2 1.974600 1_555
Fe6 O4 1.943776 1_555
Fe6 O5 1.955796 1_555
Fe6 O5 1.955796 1_554
Fe7 O8 1.937710 1_555
Fe7 O6 1.939095 1_544
Fe7 O6 1.939095 1_545
Fe8 O9 1.941224 1_555
Fe8 O7 1.951071 1_555
Fe8 O7 1.951071 1_554
Fe9 O11 1.912531 1_555
Fe9 O8 1.952987 1_555
Fe9 O8 1.952987 1_556
Fe10 O7 1.946046 1_555
Fe10 O10 1.961399 1_556
Fe10 O10 1.961399 1_555
Fe11 O6 1.920669 1_555
Fe11 O9 1.930564 1_555
Fe11 O9 1.930564 1_556
F0 Fe2 2.048612 1_555
F0 Fe2 2.048612 1_556
F0 Fe4 2.180314 1_555
F1 Fe3 2.104410 1_555
F1 Fe3 2.104410 1_554
F1 Fe0 2.110929 1_555
F2 Fe8 2.100966 1_555
F2 Fe4 2.132799 1_555
F2 Fe4 2.132799 1_554
F3 Fe5 2.120461 1_554
F3 Fe5 2.120461 1_555
F3 Fe7 2.209500 1_565
F4 Fe7 2.114024 1_556
F4 Fe7 2.114024 1_555
F4 Fe3 2.153531 1_555
F5 Fe8 2.124107 1_556
F5 Fe8 2.124107 1_555
F5 Fe5 2.240001 1_555
F6 Fe6 2.083606 1_556
F6 Fe6 2.083606 1_555
F6 Fe9 2.270468 1_555
F7 Fe10 2.115759 1_555
F7 Fe10 2.115759 1_554
F7 Fe6 2.164116 1_555
F8 Fe9 2.136099 1_555
F8 Fe9 2.136099 1_554
F8 Fe1 2.138060 1_655
F9 Fe11 2.109863 1_554
F9 Fe11 2.109863 1_555
F9 Fe0 2.147539 1_665
F10 Fe1 2.140246 1_655
F10 Fe1 2.140246 1_656
F10 Fe10 2.142427 1_555
F11 Fe2 2.035786 1_655
F11 Fe2 2.035786 1_656
F11 Fe11 2.253047 1_555
