# generated using pymatgen
data_Li3Fe(Si2O5)3
_symmetry_space_group_name_H-M   'P 1'
_cell_length_a   7.97666100
_cell_length_b   9.86328200
_cell_length_c   14.97598000
_cell_angle_alpha   90.00000000
_cell_angle_beta   90.00000000
_cell_angle_gamma   90.00000000
_symmetry_Int_Tables_number   1
_chemical_formula_structural   Li3Fe(Si2O5)3
_chemical_formula_sum   'Li12 Fe4 Si24 O60'
_cell_volume   1178.25105404
_cell_formula_units_Z   4
loop_
 _symmetry_equiv_pos_site_id
 _symmetry_equiv_pos_as_xyz
  1  'x, y, z'
loop_
 _atom_site_type_symbol
 _atom_site_label
 _atom_site_symmetry_multiplicity
 _atom_site_fract_x
 _atom_site_fract_y
 _atom_site_fract_z
 _atom_site_occupancy
  Li  Li0  1  0.75000000  0.08458600  0.93626100  1
  Li  Li1  1  0.75000000  0.41541400  0.43626100  1
  Li  Li2  1  0.00054300  0.50192300  0.75613200  1
  Li  Li3  1  0.49945700  0.50192300  0.75613200  1
  Li  Li4  1  0.99945700  0.49807700  0.24386800  1
  Li  Li5  1  0.50054300  0.49807700  0.24386800  1
  Li  Li6  1  0.25000000  0.58458600  0.56373900  1
  Li  Li7  1  0.25000000  0.91541400  0.06373900  1
  Li  Li8  1  0.99945700  0.00192300  0.74386800  1
  Li  Li9  1  0.50054300  0.00192300  0.74386800  1
  Li  Li10  1  0.00054300  0.99807700  0.25613200  1
  Li  Li11  1  0.49945700  0.99807700  0.25613200  1
  Fe  Fe0  1  0.75000000  0.25392500  0.74808500  1
  Fe  Fe1  1  0.75000000  0.24607500  0.24808500  1
  Fe  Fe2  1  0.25000000  0.75392500  0.75191500  1
  Fe  Fe3  1  0.25000000  0.74607500  0.25191500  1
  Si  Si0  1  0.25000000  0.02644700  0.59832900  1
  Si  Si1  1  0.25000000  0.02470100  0.40065400  1
  Si  Si2  1  0.43877000  0.20791700  0.89949200  1
  Si  Si3  1  0.06123000  0.20791700  0.89949200  1
  Si  Si4  1  0.05936800  0.20583600  0.10030200  1
  Si  Si5  1  0.44063200  0.20583600  0.10030200  1
  Si  Si6  1  0.05936800  0.29416400  0.60030200  1
  Si  Si7  1  0.44063200  0.29416400  0.60030200  1
  Si  Si8  1  0.43877000  0.29208300  0.39949200  1
  Si  Si9  1  0.06123000  0.29208300  0.39949200  1
  Si  Si10  1  0.25000000  0.47529900  0.90065400  1
  Si  Si11  1  0.25000000  0.47355300  0.09832900  1
  Si  Si12  1  0.75000000  0.52470100  0.09934600  1
  Si  Si13  1  0.75000000  0.52644700  0.90167100  1
  Si  Si14  1  0.56123000  0.70791700  0.60050800  1
  Si  Si15  1  0.93877000  0.70791700  0.60050800  1
  Si  Si16  1  0.94063200  0.70583600  0.39969800  1
  Si  Si17  1  0.55936800  0.70583600  0.39969800  1
  Si  Si18  1  0.94063200  0.79416400  0.89969800  1
  Si  Si19  1  0.56123000  0.79208300  0.10050800  1
  Si  Si20  1  0.93877000  0.79208300  0.10050800  1
  Si  Si21  1  0.55936800  0.79416400  0.89969800  1
  Si  Si22  1  0.75000000  0.97355300  0.40167100  1
  Si  Si23  1  0.75000000  0.97529900  0.59934600  1
  O  O0  1  0.75000000  0.04510400  0.50023300  1
  O  O1  1  0.75000000  0.07852800  0.68165900  1
  O  O2  1  0.75000000  0.07524600  0.31867000  1
  O  O3  1  0.41252900  0.12949200  0.60669200  1
  O  O4  1  0.08747100  0.12949200  0.60669200  1
  O  O5  1  0.41389400  0.12698500  0.39172500  1
  O  O6  1  0.08610600  0.12698500  0.39172500  1
  O  O7  1  0.25000000  0.14012500  0.89067400  1
  O  O8  1  0.25000000  0.13302700  0.10214000  1
  O  O9  1  0.92638800  0.14954600  0.82997900  1
  O  O10  1  0.57361200  0.14954600  0.82997900  1
  O  O11  1  0.94069600  0.15479400  0.17928800  1
  O  O12  1  0.55930400  0.15479400  0.17928800  1
  O  O13  1  0.51691100  0.16859000  0.99979900  1
  O  O14  1  0.98308900  0.16859000  0.99979900  1
  O  O15  1  0.51691100  0.33141000  0.49979900  1
  O  O16  1  0.98308900  0.33141000  0.49979900  1
  O  O17  1  0.92638800  0.35045400  0.32997900  1
  O  O18  1  0.94069600  0.34520600  0.67928800  1
  O  O19  1  0.55930400  0.34520600  0.67928800  1
  O  O20  1  0.57361200  0.35045400  0.32997900  1
  O  O21  1  0.25000000  0.36697300  0.60214000  1
  O  O22  1  0.25000000  0.35987500  0.39067400  1
  O  O23  1  0.08610600  0.37301500  0.89172500  1
  O  O24  1  0.41389400  0.37301500  0.89172500  1
  O  O25  1  0.41252900  0.37050800  0.10669200  1
  O  O26  1  0.08747100  0.37050800  0.10669200  1
  O  O27  1  0.75000000  0.42475400  0.81867000  1
  O  O28  1  0.75000000  0.42147200  0.18165900  1
  O  O29  1  0.75000000  0.45489600  0.00023300  1
  O  O30  1  0.25000000  0.54510400  0.99976700  1
  O  O31  1  0.25000000  0.57852800  0.81834100  1
  O  O32  1  0.25000000  0.57524600  0.18133000  1
  O  O33  1  0.91389400  0.62698500  0.10827500  1
  O  O34  1  0.58610600  0.62698500  0.10827500  1
  O  O35  1  0.91252900  0.62949200  0.89330800  1
  O  O36  1  0.58747100  0.62949200  0.89330800  1
  O  O37  1  0.75000000  0.63302700  0.39786000  1
  O  O38  1  0.75000000  0.64012500  0.60932600  1
  O  O39  1  0.44069600  0.65479400  0.32071200  1
  O  O40  1  0.05930400  0.65479400  0.32071200  1
  O  O41  1  0.42638800  0.64954600  0.67002100  1
  O  O42  1  0.07361200  0.64954600  0.67002100  1
  O  O43  1  0.01691100  0.66859000  0.50020100  1
  O  O44  1  0.48308900  0.66859000  0.50020100  1
  O  O45  1  0.01691100  0.83141000  0.00020100  1
  O  O46  1  0.48308900  0.83141000  0.00020100  1
  O  O47  1  0.44069600  0.84520600  0.82071200  1
  O  O48  1  0.05930400  0.84520600  0.82071200  1
  O  O49  1  0.42638800  0.85045400  0.17002100  1
  O  O50  1  0.07361200  0.85045400  0.17002100  1
  O  O51  1  0.75000000  0.86697300  0.89786000  1
  O  O52  1  0.75000000  0.85987500  0.10932600  1
  O  O53  1  0.58747100  0.87050800  0.39330800  1
  O  O54  1  0.58610600  0.87301500  0.60827500  1
  O  O55  1  0.91389400  0.87301500  0.60827500  1
  O  O56  1  0.91252900  0.87050800  0.39330800  1
  O  O57  1  0.25000000  0.92475400  0.68133000  1
  O  O58  1  0.25000000  0.92147200  0.31834100  1
  O  O59  1  0.25000000  0.95489600  0.49976700  1
loop_
_geom_bond_atom_site_label_1
_geom_bond_atom_site_label_2
_geom_bond_distance
_geom_bond_site_symmetry_2
Li0 O9 2.218912 1_555
Li0 O10 2.218912 1_555
Li0 O51 2.222087 1_545
Li0 O14 2.246960 1_555
Li0 O13 2.246960 1_555
Li1 O20 2.218912 1_555
Li1 O17 2.218912 1_555
Li1 O37 2.222087 1_555
Li1 O16 2.246960 1_555
Li1 O15 2.246960 1_555
Li2 O18 1.985343 1_455
Li2 O42 2.030479 1_555
Li2 O31 2.323422 1_555
Li2 O27 2.334627 1_455
Li2 O23 2.491166 1_555
Li2 O35 2.509265 1_455
Li3 O19 1.985343 1_555
Li3 O41 2.030479 1_555
Li3 O31 2.323422 1_555
Li3 O27 2.334627 1_555
Li3 O24 2.491166 1_555
Li3 O36 2.509265 1_555
Li4 O40 1.985343 1_655
Li4 O17 2.030479 1_555
Li4 O28 2.323422 1_555
Li4 O32 2.334627 1_655
Li4 O33 2.491166 1_555
Li4 O26 2.509265 1_655
Li5 O39 1.985343 1_555
Li5 O20 2.030479 1_555
Li5 O28 2.323422 1_555
Li5 O32 2.334627 1_555
Li5 O34 2.491166 1_555
Li5 O25 2.509265 1_555
Li6 O41 2.218912 1_555
Li6 O42 2.218912 1_555
Li6 O21 2.222087 1_555
Li6 O43 2.246960 1_555
Li6 O44 2.246960 1_555
Li7 O49 2.218912 1_555
Li7 O50 2.218912 1_555
Li7 O8 2.222087 1_565
Li7 O45 2.246960 1_555
Li7 O46 2.246960 1_555
Li8 O48 1.985343 1_645
Li8 O9 2.030479 1_555
Li8 O1 2.323422 1_555
Li8 O57 2.334627 1_645
Li8 O55 2.491166 1_545
Li8 O4 2.509265 1_655
Li9 O47 1.985343 1_545
Li9 O10 2.030479 1_555
Li9 O1 2.323422 1_555
Li9 O57 2.334627 1_545
Li9 O54 2.491166 1_545
Li9 O3 2.509265 1_555
Li10 O11 1.985343 1_465
Li10 O50 2.030479 1_555
Li10 O58 2.323422 1_555
Li10 O2 2.334627 1_465
Li10 O6 2.491166 1_565
Li10 O56 2.509265 1_455
Li11 O12 1.985343 1_565
Li11 O49 2.030479 1_555
Li11 O58 2.323422 1_555
Li11 O2 2.334627 1_565
Li11 O5 2.491166 1_565
Li11 O53 2.509265 1_555
Fe0 O27 1.989076 1_555
Fe0 O1 1.995616 1_555
Fe0 O18 2.045951 1_555
Fe0 O19 2.045951 1_555
Fe0 O9 2.131592 1_555
Fe0 O10 2.131592 1_555
Fe1 O2 1.989076 1_555
Fe1 O28 1.995616 1_555
Fe1 O12 2.045951 1_555
Fe1 O11 2.045951 1_555
Fe1 O20 2.131592 1_555
Fe1 O17 2.131592 1_555
Fe2 O57 1.989076 1_555
Fe2 O31 1.995616 1_555
Fe2 O47 2.045951 1_555
Fe2 O48 2.045951 1_555
Fe2 O42 2.131592 1_555
Fe2 O41 2.131592 1_555
Fe3 O32 1.989076 1_555
Fe3 O58 1.995616 1_555
Fe3 O39 2.045951 1_555
Fe3 O40 2.045951 1_555
Fe3 O50 2.131592 1_555
Fe3 O49 2.131592 1_555
O0 Si22 1.636097 1_545
O0 Si23 1.636224 1_545
O1 Si23 1.598836 1_545
O2 Si22 1.597237 1_545
O3 Si7 1.642393 1_555
O3 Si0 1.652099 1_555
O4 Si6 1.642393 1_555
O4 Si0 1.652099 1_555
O5 Si8 1.644572 1_555
O5 Si1 1.656736 1_555
O6 Si9 1.644572 1_555
O6 Si1 1.656736 1_555
O7 Si3 1.652825 1_555
O7 Si2 1.652825 1_555
O8 Si5 1.681880 1_555
O8 Si4 1.681880 1_555
O9 Si3 1.603774 1_655
O10 Si2 1.603774 1_555
O11 Si4 1.596481 1_655
O12 Si5 1.596481 1_555
O13 Si5 1.664509 1_556
O13 Si2 1.671993 1_555
O14 Si4 1.664509 1_656
O14 Si3 1.671993 1_655
O15 Si7 1.664509 1_555
O15 Si8 1.671993 1_555
O16 Si6 1.664509 1_655
O16 Si9 1.671993 1_655
O17 Si9 1.603774 1_655
O18 Si6 1.596481 1_655
O19 Si7 1.596481 1_555
O20 Si8 1.603774 1_555
O21 Si7 1.681880 1_555
O21 Si6 1.681880 1_555
O22 Si9 1.652825 1_555
O22 Si8 1.652825 1_555
O23 Si3 1.644572 1_555
O23 Si10 1.656736 1_555
O24 Si2 1.644572 1_555
O24 Si10 1.656736 1_555
O25 Si5 1.642393 1_555
O25 Si11 1.652099 1_555
O26 Si4 1.642393 1_555
O26 Si11 1.652099 1_555
O27 Si13 1.597237 1_555
O28 Si12 1.598836 1_555
O29 Si13 1.636097 1_554
O29 Si12 1.636224 1_555
O30 Si11 1.636097 1_556
O30 Si10 1.636224 1_555
O31 Si10 1.598836 1_555
O32 Si11 1.597237 1_555
O33 Si20 1.644572 1_555
O33 Si12 1.656736 1_555
O34 Si19 1.644572 1_555
O34 Si12 1.656736 1_555
O35 Si18 1.642393 1_555
O35 Si13 1.652099 1_555
O36 Si21 1.642393 1_555
O36 Si13 1.652099 1_555
O37 Si16 1.681880 1_555
O37 Si17 1.681880 1_555
O38 Si14 1.652825 1_555
O38 Si15 1.652825 1_555
O39 Si17 1.596481 1_555
O40 Si16 1.596481 1_455
O41 Si14 1.603774 1_555
O42 Si15 1.603774 1_455
O43 Si16 1.664509 1_455
O43 Si15 1.671993 1_455
O44 Si17 1.664509 1_555
O44 Si14 1.671993 1_555
O45 Si18 1.664509 1_454
O45 Si20 1.671993 1_455
O46 Si21 1.664509 1_554
O46 Si19 1.671993 1_555
O47 Si21 1.596481 1_555
O48 Si18 1.596481 1_455
O49 Si19 1.603774 1_555
O50 Si20 1.603774 1_455
O51 Si18 1.681880 1_555
O51 Si21 1.681880 1_555
O52 Si19 1.652825 1_555
O52 Si20 1.652825 1_555
O53 Si17 1.642393 1_555
O53 Si22 1.652099 1_555
O54 Si14 1.644572 1_555
O54 Si23 1.656736 1_555
O55 Si15 1.644572 1_555
O55 Si23 1.656736 1_555
O56 Si16 1.642393 1_555
O56 Si22 1.652099 1_555
O57 Si0 1.597237 1_565
O58 Si1 1.598836 1_565
O59 Si0 1.636097 1_565
O59 Si1 1.636224 1_565
