# generated using pymatgen
data_LiMn2(PO4)3
_symmetry_space_group_name_H-M   'P 1'
_cell_length_a   8.53562000
_cell_length_b   8.44919900
_cell_length_c   14.41524229
_cell_angle_alpha   54.56341321
_cell_angle_beta   90.00000000
_cell_angle_gamma   90.00000000
_symmetry_Int_Tables_number   1
_chemical_formula_structural   LiMn2(PO4)3
_chemical_formula_sum   'Li4 Mn8 P12 O48'
_cell_volume   847.03439153
_cell_formula_units_Z   4
loop_
 _symmetry_equiv_pos_site_id
 _symmetry_equiv_pos_as_xyz
  1  'x, y, z'
loop_
 _atom_site_type_symbol
 _atom_site_label
 _atom_site_symmetry_multiplicity
 _atom_site_fract_x
 _atom_site_fract_y
 _atom_site_fract_z
 _atom_site_occupancy
  Li  Li0  1  0.22098500  0.03052600  0.17828700  1
  Li  Li1  1  0.72098500  0.96947400  0.32171300  1
  Li  Li2  1  0.27901500  0.03052600  0.67828700  1
  Li  Li3  1  0.77901500  0.96947400  0.82171300  1
  Mn  Mn0  1  0.53748700  0.13887100  0.11396400  1
  Mn  Mn1  1  0.96128300  0.37106600  0.87855000  1
  Mn  Mn2  1  0.46128300  0.62893400  0.62145000  1
  Mn  Mn3  1  0.03748700  0.86112900  0.38603600  1
  Mn  Mn4  1  0.96251300  0.13887100  0.61396400  1
  Mn  Mn5  1  0.53871700  0.37106600  0.37855000  1
  Mn  Mn6  1  0.03871700  0.62893400  0.12145000  1
  Mn  Mn7  1  0.46251300  0.86112900  0.88603600  1
  P  P0  1  0.74930900  0.53164900  0.49949700  1
  P  P1  1  0.61179200  0.25388100  0.85194800  1
  P  P2  1  0.88997500  0.95693300  0.14343000  1
  P  P3  1  0.38997500  0.04306700  0.35657000  1
  P  P4  1  0.11179200  0.74611900  0.64805200  1
  P  P5  1  0.24930900  0.46835100  0.00050300  1
  P  P6  1  0.75069100  0.53164900  0.99949700  1
  P  P7  1  0.88820800  0.25388100  0.35194800  1
  P  P8  1  0.61002500  0.95693300  0.64343000  1
  P  P9  1  0.11002500  0.04306700  0.85657000  1
  P  P10  1  0.38820800  0.74611900  0.14805200  1
  P  P11  1  0.25069100  0.46835100  0.50050300  1
  O  O0  1  0.13768700  0.63492500  0.41881600  1
  O  O1  1  0.31924100  0.48341100  0.59378300  1
  O  O2  1  0.11163500  0.23213300  0.84878100  1
  O  O3  1  0.40502900  0.91578500  0.16122400  1
  O  O4  1  0.62775400  0.53767700  0.57491700  1
  O  O5  1  0.78535100  0.31287300  0.81909200  1
  O  O6  1  0.83655200  0.73123700  0.43172900  1
  O  O7  1  0.58000400  0.17672900  0.97593700  1
  O  O8  1  0.93665600  0.13436300  0.02651800  1
  O  O9  1  0.72587000  0.97932500  0.18139500  1
  O  O10  1  0.01189700  0.94464100  0.22801800  1
  O  O11  1  0.49040500  0.41263500  0.77742700  1
  O  O12  1  0.99040500  0.58736500  0.72257300  1
  O  O13  1  0.51189700  0.05535900  0.27198200  1
  O  O14  1  0.22587000  0.02067500  0.31860500  1
  O  O15  1  0.43665600  0.86563700  0.47348200  1
  O  O16  1  0.08000400  0.82327100  0.52406300  1
  O  O17  1  0.33655200  0.26876300  0.06827100  1
  O  O18  1  0.28535100  0.68712700  0.68090800  1
  O  O19  1  0.12775400  0.46232300  0.92508300  1
  O  O20  1  0.90502900  0.08421500  0.33877600  1
  O  O21  1  0.61163500  0.76786700  0.65121900  1
  O  O22  1  0.81924100  0.51658900  0.90621700  1
  O  O23  1  0.63768700  0.36507500  0.08118400  1
  O  O24  1  0.36231300  0.63492500  0.91881600  1
  O  O25  1  0.18075900  0.48341100  0.09378300  1
  O  O26  1  0.38836500  0.23213300  0.34878100  1
  O  O27  1  0.09497100  0.91578500  0.66122400  1
  O  O28  1  0.87224600  0.53767700  0.07491700  1
  O  O29  1  0.71464900  0.31287300  0.31909200  1
  O  O30  1  0.66344800  0.73123700  0.93172900  1
  O  O31  1  0.91999600  0.17672900  0.47593700  1
  O  O32  1  0.56334400  0.13436300  0.52651800  1
  O  O33  1  0.77413000  0.97932500  0.68139500  1
  O  O34  1  0.48810300  0.94464100  0.72801800  1
  O  O35  1  0.00959500  0.41263500  0.27742700  1
  O  O36  1  0.50959500  0.58736500  0.22257300  1
  O  O37  1  0.98810300  0.05535900  0.77198200  1
  O  O38  1  0.27413000  0.02067500  0.81860500  1
  O  O39  1  0.06334400  0.86563700  0.97348200  1
  O  O40  1  0.41999600  0.82327100  0.02406300  1
  O  O41  1  0.16344800  0.26876300  0.56827100  1
  O  O42  1  0.21464900  0.68712700  0.18090800  1
  O  O43  1  0.37224600  0.46232300  0.42508300  1
  O  O44  1  0.59497100  0.08421500  0.83877600  1
  O  O45  1  0.88836500  0.76786700  0.15121900  1
  O  O46  1  0.68075900  0.51658900  0.40621700  1
  O  O47  1  0.86231300  0.36507500  0.58118400  1
loop_
_geom_bond_atom_site_label_1
_geom_bond_atom_site_label_2
_geom_bond_distance
_geom_bond_site_symmetry_2
Li0 O10 1.903261 1_545
Li0 O3 1.935125 1_545
Li0 O17 1.959128 1_555
Li0 O14 1.976064 1_555
Li1 O13 1.903261 1_565
Li1 O20 1.935125 1_565
Li1 O6 1.959128 1_555
Li1 O9 1.976064 1_555
Li2 O34 1.903261 1_545
Li2 O27 1.935125 1_545
Li2 O41 1.959128 1_555
Li2 O38 1.976064 1_555
Li3 O37 1.903261 1_565
Li3 O44 1.935125 1_565
Li3 O30 1.959128 1_555
Li3 O33 1.976064 1_555
Mn0 O7 1.858730 1_554
Mn0 O23 1.886891 1_555
Mn0 O17 1.934334 1_555
Mn0 O3 1.950944 1_545
Mn0 O9 1.956562 1_545
Mn0 O13 1.967349 1_555
Mn1 O8 1.909692 1_556
Mn1 O19 1.913968 1_655
Mn1 O12 1.921526 1_555
Mn1 O22 1.925996 1_555
Mn1 O5 1.928764 1_555
Mn1 O2 1.947626 1_655
Mn2 O15 1.909692 1_555
Mn2 O4 1.913968 1_555
Mn2 O11 1.921526 1_555
Mn2 O1 1.925996 1_555
Mn2 O18 1.928764 1_555
Mn2 O21 1.947626 1_555
Mn3 O16 1.858730 1_555
Mn3 O0 1.886891 1_555
Mn3 O6 1.934334 1_455
Mn3 O20 1.950944 1_465
Mn3 O14 1.956562 1_565
Mn3 O10 1.967349 1_555
Mn4 O31 1.858730 1_555
Mn4 O47 1.886891 1_555
Mn4 O41 1.934334 1_655
Mn4 O27 1.950944 1_645
Mn4 O33 1.956562 1_545
Mn4 O37 1.967349 1_555
Mn5 O32 1.909692 1_555
Mn5 O43 1.913968 1_555
Mn5 O36 1.921526 1_555
Mn5 O46 1.925996 1_555
Mn5 O29 1.928764 1_555
Mn5 O26 1.947626 1_555
Mn6 O39 1.909692 1_554
Mn6 O28 1.913968 1_455
Mn6 O35 1.921526 1_555
Mn6 O25 1.925996 1_555
Mn6 O42 1.928764 1_555
Mn6 O45 1.947626 1_455
Mn7 O40 1.858730 1_556
Mn7 O24 1.886891 1_555
Mn7 O30 1.934334 1_555
Mn7 O44 1.950944 1_565
Mn7 O38 1.956562 1_565
Mn7 O34 1.967349 1_555
O0 P11 1.541427 1_555
O1 P11 1.537874 1_555
O2 P9 1.535146 1_555
O3 P10 1.557996 1_555
O4 P0 1.524896 1_555
O5 P1 1.547144 1_555
O6 P0 1.562800 1_555
O7 P1 1.530374 1_555
O8 P2 1.522074 1_545
O9 P2 1.554811 1_555
O10 P2 1.560058 1_455
O11 P1 1.534869 1_555
O12 P4 1.534869 1_655
O13 P3 1.560058 1_555
O14 P3 1.554811 1_555
O15 P3 1.522074 1_565
O16 P4 1.530374 1_555
O17 P5 1.562800 1_555
O18 P4 1.547144 1_555
O19 P5 1.524896 1_556
O20 P7 1.557996 1_555
O21 P8 1.535146 1_555
O22 P6 1.537874 1_555
O23 P6 1.541427 1_554
O24 P5 1.541427 1_556
O25 P5 1.537874 1_555
O26 P3 1.535146 1_555
O27 P4 1.557996 1_555
O28 P6 1.524896 1_554
O29 P7 1.547144 1_555
O30 P6 1.562800 1_555
O31 P7 1.530374 1_555
O32 P8 1.522074 1_545
O33 P8 1.554811 1_555
O34 P8 1.560058 1_555
O35 P7 1.534869 1_455
O36 P10 1.534869 1_555
O37 P9 1.560058 1_655
O38 P9 1.554811 1_555
O39 P9 1.522074 1_565
O40 P10 1.530374 1_555
O41 P11 1.562800 1_555
O42 P10 1.547144 1_555
O43 P11 1.524896 1_555
O44 P1 1.557996 1_555
O45 P2 1.535146 1_555
O46 P0 1.537874 1_555
O47 P0 1.541427 1_555
