# generated using pymatgen
data_KH3(SO4)2
_symmetry_space_group_name_H-M   'P 1'
_cell_length_a   11.63947600
_cell_length_b   7.72703900
_cell_length_c   8.92399793
_cell_angle_alpha   67.13129277
_cell_angle_beta   90.00000000
_cell_angle_gamma   90.00000000
_symmetry_Int_Tables_number   1
_chemical_formula_structural   KH3(SO4)2
_chemical_formula_sum   'K4 H12 S8 O32'
_cell_volume   739.52551415
_cell_formula_units_Z   4
loop_
 _symmetry_equiv_pos_site_id
 _symmetry_equiv_pos_as_xyz
  1  'x, y, z'
loop_
 _atom_site_type_symbol
 _atom_site_label
 _atom_site_symmetry_multiplicity
 _atom_site_fract_x
 _atom_site_fract_y
 _atom_site_fract_z
 _atom_site_occupancy
  K  K0  1  0.74939900  0.13744000  0.44570600  1
  K  K1  1  0.24939900  0.86256000  0.05429400  1
  K  K2  1  0.25060100  0.86256000  0.55429400  1
  K  K3  1  0.75060100  0.13744000  0.94570600  1
  H  H0  1  0.91786700  0.76325500  0.99337400  1
  H  H1  1  0.41786700  0.23674500  0.50662600  1
  H  H2  1  0.08213300  0.23674500  0.00662600  1
  H  H3  1  0.58213300  0.76325500  0.49337400  1
  H  H4  1  0.92712100  0.63876700  0.70407500  1
  H  H5  1  0.42712100  0.36123300  0.79592500  1
  H  H6  1  0.07287900  0.36123300  0.29592500  1
  H  H7  1  0.57287900  0.63876700  0.20407500  1
  H  H8  1  0.88417800  0.74533000  0.35275800  1
  H  H9  1  0.38417800  0.25467000  0.14724200  1
  H  H10  1  0.11582200  0.25467000  0.64724200  1
  H  H11  1  0.61582200  0.74533000  0.85275800  1
  S  S0  1  0.99620200  0.93258700  0.76419300  1
  S  S1  1  0.49620200  0.06741300  0.73580700  1
  S  S2  1  0.00379800  0.06741300  0.23580700  1
  S  S3  1  0.50379800  0.93258700  0.26419300  1
  S  S4  1  0.79128700  0.56569700  0.56786100  1
  S  S5  1  0.29128700  0.43430300  0.93213900  1
  S  S6  1  0.20871300  0.43430300  0.43213900  1
  S  S7  1  0.70871300  0.56569700  0.06786100  1
  O  O0  1  0.10478600  0.03872000  0.74232800  1
  O  O1  1  0.60478600  0.96128000  0.75767200  1
  O  O2  1  0.89521400  0.96128000  0.25767200  1
  O  O3  1  0.39521400  0.03872000  0.24232800  1
  O  O4  1  0.89285000  0.04692300  0.72621600  1
  O  O5  1  0.39285000  0.95307700  0.77378400  1
  O  O6  1  0.10715000  0.95307700  0.27378400  1
  O  O7  1  0.60715000  0.04692300  0.22621600  1
  O  O8  1  0.00291300  0.80186300  0.67896400  1
  O  O9  1  0.50291300  0.19813700  0.82103600  1
  O  O10  1  0.99708700  0.19813700  0.32103600  1
  O  O11  1  0.49708700  0.80186300  0.17896400  1
  O  O12  1  0.99794200  0.80735800  0.95448800  1
  O  O13  1  0.49794200  0.19264200  0.54551200  1
  O  O14  1  0.00205800  0.19264200  0.04551200  1
  O  O15  1  0.50205800  0.80735800  0.45448800  1
  O  O16  1  0.72256800  0.73330000  0.53918600  1
  O  O17  1  0.22256800  0.26670000  0.96081400  1
  O  O18  1  0.27743200  0.26670000  0.46081400  1
  O  O19  1  0.77743200  0.73330000  0.03918600  1
  O  O20  1  0.73105600  0.39275200  0.59961600  1
  O  O21  1  0.23105600  0.60724800  0.90038400  1
  O  O22  1  0.26894400  0.60724800  0.40038400  1
  O  O23  1  0.76894400  0.39275200  0.09961600  1
  O  O24  1  0.87189500  0.52735200  0.71576700  1
  O  O25  1  0.37189500  0.47264800  0.78423300  1
  O  O26  1  0.12810500  0.47264800  0.28423300  1
  O  O27  1  0.62810500  0.52735200  0.21576700  1
  O  O28  1  0.87195200  0.60345100  0.41920700  1
  O  O29  1  0.37195200  0.39654900  0.08079300  1
  O  O30  1  0.12804800  0.39654900  0.58079300  1
  O  O31  1  0.62804800  0.60345100  0.91920700  1
loop_
_geom_bond_atom_site_label_1
_geom_bond_atom_site_label_2
_geom_bond_distance
_geom_bond_site_symmetry_2
K0 O20 2.816038 1_555
K0 O7 2.851664 1_555
K0 O4 2.860525 1_555
K0 O16 2.919002 1_545
K0 O23 2.957505 1_555
K0 O2 3.053590 1_545
K0 O10 3.060006 1_555
K0 O1 3.080788 1_545
K0 O13 3.136373 1_555
K0 O27 3.236661 1_555
K1 O21 2.816038 1_554
K1 O6 2.851664 1_555
K1 O5 2.860525 1_554
K1 O17 2.919002 1_564
K1 O22 2.957505 1_555
K1 O3 3.053590 1_565
K1 O11 3.060006 1_555
K1 O0 3.080788 1_564
K1 O12 3.136373 1_454
K1 O26 3.236661 1_555
K2 O22 2.816038 1_555
K2 O5 2.851664 1_555
K2 O6 2.860525 1_555
K2 O18 2.919002 1_565
K2 O21 2.957505 1_555
K2 O0 3.053590 1_565
K2 O8 3.060006 1_555
K2 O3 3.080788 1_565
K2 O15 3.136373 1_555
K2 O25 3.236661 1_555
K3 O23 2.816038 1_556
K3 O4 2.851664 1_555
K3 O7 2.860525 1_556
K3 O19 2.919002 1_546
K3 O20 2.957505 1_555
K3 O1 3.053590 1_545
K3 O9 3.060006 1_555
K3 O2 3.080788 1_546
K3 O14 3.136373 1_656
K3 O24 3.236661 1_555
H0 O12 1.006639 1_555
H0 O19 1.679002 1_556
H1 O13 1.006639 1_555
H1 O18 1.679002 1_555
H2 O14 1.006639 1_555
H2 O17 1.679002 1_554
H3 O15 1.006639 1_555
H3 O16 1.679002 1_555
H4 O24 1.046626 1_555
H4 O8 1.482290 1_655
H5 O25 1.046626 1_555
H5 O9 1.482290 1_555
H6 O26 1.046626 1_555
H6 O10 1.482290 1_455
H7 O27 1.046626 1_555
H7 O11 1.482290 1_555
H8 O28 1.033677 1_555
H8 O2 1.555769 1_555
H9 O29 1.033677 1_555
H9 O3 1.555769 1_555
H10 O30 1.033677 1_555
H10 O0 1.555769 1_555
H11 O31 1.033677 1_555
H11 O1 1.555769 1_555
O0 S0 1.477700 1_445
O1 S1 1.477700 1_565
O2 S2 1.477700 1_665
O3 S3 1.477700 1_545
O4 S0 1.452513 1_545
O5 S1 1.452513 1_565
O6 S2 1.452513 1_565
O7 S3 1.452513 1_545
O8 S0 1.483928 1_455
O9 S1 1.483928 1_555
O10 S2 1.483928 1_655
O11 S3 1.483928 1_555
O12 S0 1.594806 1_555
O13 S1 1.594806 1_555
O14 S2 1.594806 1_555
O15 S3 1.594806 1_555
O16 S4 1.457699 1_555
O17 S5 1.457699 1_555
O18 S6 1.457699 1_555
O19 S7 1.457699 1_555
O20 S4 1.436414 1_555
O21 S5 1.436414 1_555
O22 S6 1.436414 1_555
O23 S7 1.436414 1_555
O24 S4 1.551219 1_555
O25 S5 1.551219 1_555
O26 S6 1.551219 1_555
O27 S7 1.551219 1_555
O28 S4 1.557458 1_555
O29 S5 1.557458 1_554
O30 S6 1.557458 1_555
O31 S7 1.557458 1_556
