# generated using pymatgen
data_LiCo(CO3)2
_symmetry_space_group_name_H-M   'P 1'
_cell_length_a   6.11750897
_cell_length_b   6.11750897
_cell_length_c   8.34503581
_cell_angle_alpha   82.61609714
_cell_angle_beta   82.61609714
_cell_angle_gamma   126.80938995
_symmetry_Int_Tables_number   1
_chemical_formula_structural   LiCo(CO3)2
_chemical_formula_sum   'Li2 Co2 C4 O12'
_cell_volume   239.51659435
_cell_formula_units_Z   2
loop_
 _symmetry_equiv_pos_site_id
 _symmetry_equiv_pos_as_xyz
  1  'x, y, z'
loop_
 _atom_site_type_symbol
 _atom_site_label
 _atom_site_symmetry_multiplicity
 _atom_site_fract_x
 _atom_site_fract_y
 _atom_site_fract_z
 _atom_site_occupancy
  Li  Li0  1  0.56699300  0.68047800  0.64265500  1
  Li  Li1  1  0.68047800  0.56699300  0.14265500  1
  Co  Co0  1  0.98719700  0.25612300  0.00087200  1
  Co  Co1  1  0.25612300  0.98719700  0.50087200  1
  C  C0  1  0.94131100  0.59889600  0.78189600  1
  C  C1  1  0.99051600  0.12519700  0.71487900  1
  C  C2  1  0.59889600  0.94131100  0.28189600  1
  C  C3  1  0.12519700  0.99051600  0.21487900  1
  O  O0  1  0.87179200  0.46844500  0.94340800  1
  O  O1  1  0.16987400  0.34063900  0.77049300  1
  O  O2  1  0.74488400  0.92499500  0.80381300  1
  O  O3  1  0.77290900  0.50774000  0.69232000  1
  O  O4  1  0.20044500  0.83859700  0.72732300  1
  O  O5  1  0.07878900  0.13719200  0.55788200  1
  O  O6  1  0.46844500  0.87179200  0.44340800  1
  O  O7  1  0.92499500  0.74488400  0.30381300  1
  O  O8  1  0.34063900  0.16987400  0.27049300  1
  O  O9  1  0.50774000  0.77290900  0.19232000  1
  O  O10  1  0.83859700  0.20044500  0.22732300  1
  O  O11  1  0.13719200  0.07878900  0.05788200  1
loop_
_geom_bond_atom_site_label_1
_geom_bond_atom_site_label_2
_geom_bond_distance
_geom_bond_site_symmetry_2
Li0 O1 2.018335 1_555
Li0 O2 2.042813 1_555
Li0 O3 2.119439 1_555
Li0 O6 2.258499 1_555
Li0 O5 2.559210 1_665
Li1 O8 2.018335 1_555
Li1 O7 2.042813 1_555
Li1 O9 2.119439 1_555
Li1 O0 2.258499 1_554
Li1 O11 2.559210 1_665
Co0 O11 1.848677 1_655
Co0 O0 1.855059 1_554
Co0 O10 1.880290 1_555
Co0 O1 1.926701 1_654
Co1 O5 1.848677 1_565
Co1 O6 1.855059 1_555
Co1 O4 1.880290 1_555
Co1 O8 1.926701 1_565
C0 O3 1.244078 1_555
C0 O4 1.314500 1_655
C0 O0 1.343077 1_555
C1 O2 1.258236 1_545
C1 O1 1.308264 1_655
C1 O5 1.326436 1_655
C2 O9 1.244078 1_555
C2 O10 1.314500 1_565
C2 O6 1.343077 1_555
C3 O7 1.258236 1_455
C3 O8 1.308264 1_565
C3 O11 1.326436 1_565
