# generated using pymatgen
data_ZrSeO
_symmetry_space_group_name_H-M   'P 1'
_cell_length_a   3.70527600
_cell_length_b   3.70527600
_cell_length_c   6.69938000
_cell_angle_alpha   90.00000000
_cell_angle_beta   90.00000000
_cell_angle_gamma   90.00000000
_symmetry_Int_Tables_number   1
_chemical_formula_structural   ZrSeO
_chemical_formula_sum   'Zr2 Se2 O2'
_cell_volume   91.97625856
_cell_formula_units_Z   2
loop_
 _symmetry_equiv_pos_site_id
 _symmetry_equiv_pos_as_xyz
  1  'x, y, z'
loop_
 _atom_site_type_symbol
 _atom_site_label
 _atom_site_symmetry_multiplicity
 _atom_site_fract_x
 _atom_site_fract_y
 _atom_site_fract_z
 _atom_site_occupancy
  Zr  Zr0  1  0.50000000  0.00000000  0.18539500  1
  Zr  Zr1  1  0.00000000  0.50000000  0.81460500  1
  Se  Se0  1  0.50000000  0.00000000  0.62849500  1
  Se  Se1  1  0.00000000  0.50000000  0.37150500  1
  O  O0  1  0.50000000  0.50000000  0.00000000  1
  O  O1  1  0.00000000  0.00000000  0.00000000  1
loop_
_geom_bond_atom_site_label_1
_geom_bond_atom_site_label_2
_geom_bond_distance
_geom_bond_site_symmetry_2
Se0 Zr1 2.901568 1_555
Se0 Zr1 2.901568 1_645
Se0 Zr1 2.901568 1_545
Se0 Zr1 2.901568 1_655
Se0 Zr0 2.968495 1_555
Se1 Zr0 2.901568 1_565
Se1 Zr0 2.901568 1_465
Se1 Zr0 2.901568 1_555
Se1 Zr0 2.901568 1_455
Se1 Zr1 2.968495 1_555
O0 Zr0 2.230451 1_555
O0 Zr0 2.230451 1_565
O0 Zr1 2.230451 1_554
O0 Zr1 2.230451 1_654
O1 Zr0 2.230451 1_555
O1 Zr0 2.230451 1_455
O1 Zr1 2.230451 1_554
O1 Zr1 2.230451 1_544
