# generated using pymatgen
data_Sr20Fe3Co7(MoO6)10
_symmetry_space_group_name_H-M   'P 1'
_cell_length_a   9.78366400
_cell_length_b   11.29041264
_cell_length_c   12.71880066
_cell_angle_alpha   102.82909439
_cell_angle_beta   97.76548010
_cell_angle_gamma   106.76369044
_symmetry_Int_Tables_number   1
_chemical_formula_structural   Sr20Fe3Co7(MoO6)10
_chemical_formula_sum   'Sr20 Fe3 Co7 Mo10 O60'
_cell_volume   1281.45833474
_cell_formula_units_Z   1
loop_
 _symmetry_equiv_pos_site_id
 _symmetry_equiv_pos_as_xyz
  1  'x, y, z'
loop_
 _atom_site_type_symbol
 _atom_site_label
 _atom_site_symmetry_multiplicity
 _atom_site_fract_x
 _atom_site_fract_y
 _atom_site_fract_z
 _atom_site_occupancy
  Sr  Sr0  1  0.94800300  0.27149500  0.15120700  1
  Sr  Sr1  1  0.55338700  0.47730300  0.35045600  1
  Sr  Sr2  1  0.14849600  0.67430100  0.54777000  1
  Sr  Sr3  1  0.75147800  0.87407200  0.75115000  1
  Sr  Sr4  1  0.34940100  0.07387600  0.94972200  1
  Sr  Sr5  1  0.65241700  0.42947700  0.05101100  1
  Sr  Sr6  1  0.24664500  0.62568400  0.25144100  1
  Sr  Sr7  1  0.85329700  0.82705300  0.44778800  1
  Sr  Sr8  1  0.44922800  0.02593400  0.64926800  1
  Sr  Sr9  1  0.04934400  0.22373100  0.85026600  1
  Sr  Sr10  1  0.94747100  0.77818600  0.15041900  1
  Sr  Sr11  1  0.55509800  0.97596100  0.34996700  1
  Sr  Sr12  1  0.14420700  0.17200100  0.54615300  1
  Sr  Sr13  1  0.74768100  0.37583300  0.74986300  1
  Sr  Sr14  1  0.35562000  0.57524200  0.95005100  1
  Sr  Sr15  1  0.65697200  0.92350400  0.05255200  1
  Sr  Sr16  1  0.24224300  0.12217500  0.24924500  1
  Sr  Sr17  1  0.85017600  0.32196000  0.44842000  1
  Sr  Sr18  1  0.45297300  0.52648000  0.65282500  1
  Sr  Sr19  1  0.04661400  0.72602900  0.85078700  1
  Fe  Fe0  1  0.60265100  0.20197200  0.20075600  1
  Fe  Fe1  1  0.80051000  0.59955100  0.59967200  1
  Fe  Fe2  1  0.99876300  0.49986600  0.00056100  1
  Co  Co0  1  0.99980100  0.99971000  0.00062900  1
  Co  Co1  1  0.20001800  0.40077900  0.39963200  1
  Co  Co2  1  0.39882000  0.79916200  0.80022500  1
  Co  Co3  1  0.60000300  0.69910200  0.19946700  1
  Co  Co4  1  0.19972300  0.89927700  0.39901300  1
  Co  Co5  1  0.79991300  0.10039600  0.59943800  1
  Co  Co6  1  0.40120700  0.30120800  0.80115800  1
  Mo  Mo0  1  0.29996600  0.34958600  0.09995600  1
  Mo  Mo1  1  0.90112000  0.55049700  0.30050600  1
  Mo  Mo2  1  0.49973000  0.75082900  0.50010700  1
  Mo  Mo3  1  0.10214500  0.95144000  0.70056500  1
  Mo  Mo4  1  0.69841200  0.14871800  0.89829300  1
  Mo  Mo5  1  0.30113600  0.85029200  0.09999400  1
  Mo  Mo6  1  0.90046500  0.04944300  0.30069600  1
  Mo  Mo7  1  0.49742200  0.24907500  0.50005500  1
  Mo  Mo8  1  0.10046700  0.44906400  0.69987100  1
  Mo  Mo9  1  0.69940100  0.65084700  0.89974500  1
  O  O0  1  0.64888900  0.17394900  0.04560000  1
  O  O1  1  0.25093800  0.37376600  0.24436000  1
  O  O2  1  0.84958100  0.57501000  0.45263600  1
  O  O3  1  0.45067200  0.77227200  0.64516700  1
  O  O4  1  0.05472100  0.97641100  0.84598400  1
  O  O5  1  0.42282600  0.24948900  0.14114700  1
  O  O6  1  0.01996000  0.45088700  0.33952200  1
  O  O7  1  0.62544200  0.65103900  0.54281700  1
  O  O8  1  0.22256400  0.85174500  0.74089400  1
  O  O9  1  0.82329600  0.05606500  0.94059900  1
  O  O10  1  0.13454000  0.19253200  0.04406100  1
  O  O11  1  0.72274300  0.38377300  0.24101500  1
  O  O12  1  0.33422200  0.59134700  0.44461200  1
  O  O13  1  0.93263000  0.79033100  0.64459200  1
  O  O14  1  0.53333000  0.99379400  0.84338000  1
  O  O15  1  0.95085900  0.52467400  0.14744500  1
  O  O16  1  0.54745000  0.72385500  0.35496400  1
  O  O17  1  0.74846800  0.12632900  0.75430100  1
  O  O18  1  0.15089000  0.92788000  0.55674300  1
  O  O19  1  0.34635100  0.32433500  0.95507300  1
  O  O20  1  0.07339400  0.70975000  0.35828600  1
  O  O21  1  0.66667300  0.90508600  0.55632000  1
  O  O22  1  0.46405600  0.50638100  0.15509400  1
  O  O23  1  0.26838600  0.10876200  0.75623400  1
  O  O24  1  0.86954500  0.31092800  0.95562100  1
  O  O25  1  0.77502000  0.64295700  0.25928500  1
  O  O26  1  0.17493500  0.44855400  0.05683100  1
  O  O27  1  0.97651600  0.04631700  0.66026100  1
  O  O28  1  0.37996400  0.84960100  0.46050400  1
  O  O29  1  0.57936300  0.24841600  0.86011300  1
  O  O30  1  0.65016100  0.67313400  0.04866200  1
  O  O31  1  0.25442800  0.87542700  0.24451000  1
  O  O32  1  0.85076100  0.07664500  0.45082200  1
  O  O33  1  0.44997800  0.27247500  0.64419100  1
  O  O34  1  0.05056300  0.47514100  0.84843200  1
  O  O35  1  0.42241000  0.75373200  0.14098000  1
  O  O36  1  0.62321000  0.15455300  0.54185100  1
  O  O37  1  0.21891400  0.35095300  0.74076400  1
  O  O38  1  0.02549400  0.94895400  0.34198400  1
  O  O39  1  0.82715400  0.55027600  0.93916400  1
  O  O40  1  0.13234800  0.68945400  0.04292600  1
  O  O41  1  0.73357400  0.89155000  0.24645600  1
  O  O42  1  0.33367700  0.09297700  0.44420100  1
  O  O43  1  0.93270800  0.29566700  0.64679600  1
  O  O44  1  0.53056000  0.48610900  0.84285300  1
  O  O45  1  0.95151300  0.02856700  0.15162300  1
  O  O46  1  0.54626800  0.22394500  0.35245700  1
  O  O47  1  0.14756300  0.42683500  0.55540100  1
  O  O48  1  0.75057800  0.62343800  0.74703200  1
  O  O49  1  0.35091200  0.82678400  0.95501100  1
  O  O50  1  0.46940600  0.01170500  0.15547500  1
  O  O51  1  0.06400600  0.21147400  0.35551500  1
  O  O52  1  0.66796100  0.40957500  0.55525000  1
  O  O53  1  0.26393400  0.60670100  0.75661000  1
  O  O54  1  0.87075400  0.81232400  0.95496700  1
  O  O55  1  0.17996500  0.94651100  0.05830500  1
  O  O56  1  0.76844900  0.15091500  0.25676900  1
  O  O57  1  0.37941200  0.34879000  0.45967100  1
  O  O58  1  0.97453200  0.54930600  0.65939700  1
  O  O59  1  0.57816000  0.74873700  0.85776800  1
loop_
_geom_bond_atom_site_label_1
_geom_bond_atom_site_label_2
_geom_bond_distance
_geom_bond_site_symmetry_2
Fe0 O11 1.958408 1_555
Fe0 O56 1.969916 1_555
Fe0 O46 2.059767 1_555
Fe0 O0 2.060482 1_555
Fe0 O50 2.068360 1_555
Fe0 O5 2.079077 1_555
Fe1 O2 1.973289 1_555
Fe1 O48 1.980688 1_555
Fe1 O58 2.048565 1_555
Fe1 O7 2.054480 1_555
Fe1 O52 2.064187 1_555
Fe1 O13 2.069960 1_555
Fe2 O15 1.966774 1_555
Fe2 O39 2.036405 1_554
Fe2 O24 2.045250 1_554
Fe2 O34 2.045809 1_654
Fe2 O26 2.060447 1_655
Fe2 O40 2.064952 1_655
Co0 O45 2.018323 1_565
Co0 O54 2.030448 1_554
Co0 O4 2.089010 1_654
Co0 O10 2.096684 1_665
Co0 O55 2.112544 1_655
Co0 O9 2.112606 1_564
Co1 O51 2.068521 1_555
Co1 O12 2.073974 1_555
Co1 O1 2.080233 1_555
Co1 O47 2.092386 1_555
Co1 O6 2.100218 1_555
Co1 O57 2.106964 1_555
Co2 O49 2.062458 1_555
Co2 O3 2.081400 1_555
Co2 O8 2.081688 1_555
Co2 O59 2.086299 1_555
Co2 O53 2.093736 1_555
Co2 O14 2.112584 1_555
Co3 O30 2.023202 1_555
Co3 O41 2.088155 1_555
Co3 O16 2.089529 1_555
Co3 O25 2.097837 1_555
Co3 O22 2.098682 1_555
Co3 O35 2.103668 1_555
Co4 O38 2.035780 1_555
Co4 O20 2.045470 1_555
Co4 O31 2.086366 1_555
Co4 O42 2.101331 1_565
Co4 O18 2.101771 1_555
Co4 O28 2.104400 1_555
Co5 O32 1.999572 1_555
Co5 O17 2.077372 1_555
Co5 O36 2.089397 1_555
Co5 O27 2.100889 1_555
Co5 O43 2.111377 1_555
Co5 O21 2.115241 1_545
Co6 O44 2.010951 1_555
Co6 O19 2.079960 1_555
Co6 O23 2.086968 1_555
Co6 O33 2.092312 1_555
Co6 O29 2.097670 1_555
Co6 O37 2.117905 1_555
Mo0 O22 1.925624 1_555
Mo0 O10 1.934649 1_555
Mo0 O19 1.936551 1_554
Mo0 O1 1.941348 1_555
Mo0 O5 1.967971 1_555
Mo0 O26 1.981189 1_555
Mo1 O25 1.922984 1_555
Mo1 O6 1.925909 1_655
Mo1 O20 1.985978 1_655
Mo1 O2 2.044770 1_555
Mo1 O15 2.048768 1_555
Mo1 O11 2.068132 1_555
Mo2 O21 1.924234 1_555
Mo2 O28 1.927190 1_555
Mo2 O16 1.945216 1_555
Mo2 O3 1.949600 1_555
Mo2 O12 1.951226 1_555
Mo2 O7 1.991929 1_555
Mo3 O18 1.933175 1_555
Mo3 O27 1.937537 1_465
Mo3 O23 1.940477 1_565
Mo3 O8 1.943230 1_555
Mo3 O4 1.947155 1_555
Mo3 O13 1.982858 1_455
Mo4 O14 1.918049 1_545
Mo4 O9 1.919971 1_555
Mo4 O29 1.925006 1_555
Mo4 O17 1.940613 1_555
Mo4 O0 1.978403 1_556
Mo4 O24 1.999323 1_555
Mo5 O55 1.922382 1_555
Mo5 O35 1.923405 1_555
Mo5 O31 1.933394 1_555
Mo5 O49 1.951376 1_554
Mo5 O40 1.977967 1_555
Mo5 O50 1.978315 1_565
Mo6 O41 1.946867 1_545
Mo6 O51 1.958702 1_655
Mo6 O38 1.987685 1_645
Mo6 O45 2.006306 1_555
Mo6 O32 2.013292 1_555
Mo6 O56 2.058092 1_555
Mo7 O42 1.919634 1_555
Mo7 O57 1.926315 1_555
Mo7 O33 1.931742 1_555
Mo7 O36 1.941337 1_555
Mo7 O46 1.979177 1_555
Mo7 O52 1.983652 1_555
Mo8 O37 1.916749 1_555
Mo8 O43 1.921126 1_455
Mo8 O53 1.929241 1_555
Mo8 O47 1.934518 1_555
Mo8 O58 1.988900 1_455
Mo8 O34 1.995124 1_555
Mo9 O59 1.939259 1_555
Mo9 O54 1.994423 1_555
Mo9 O30 1.996913 1_556
Mo9 O39 2.001271 1_555
Mo9 O44 2.004678 1_555
Mo9 O48 2.050453 1_555
O0 Sr4 2.803909 1_554
O0 Sr0 2.828913 1_555
O0 Sr5 2.860592 1_555
O0 Sr15 2.871878 1_545
O1 Sr0 2.826767 1_455
O1 Sr16 2.832018 1_555
O1 Sr6 2.838284 1_555
O1 Sr1 2.858062 1_555
O2 Sr1 2.793753 1_555
O2 Sr2 2.797068 1_655
O2 Sr17 2.847319 1_555
O2 Sr7 2.849878 1_555
O3 Sr18 2.804749 1_555
O3 Sr2 2.830854 1_555
O3 Sr3 2.843928 1_555
O3 Sr8 2.856978 1_565
O4 Sr4 2.785845 1_565
O4 Sr9 2.796587 1_565
O4 Sr19 2.819598 1_555
O4 Sr3 2.833474 1_455
O5 Sr4 2.633822 1_554
O5 Sr16 2.673396 1_555
O5 Sr1 3.078876 1_555
O5 Sr5 3.096259 1_555
O6 Sr0 2.627180 1_455
O6 Sr17 2.630363 1_455
O6 Sr6 3.032653 1_555
O6 Sr2 3.043456 1_555
O7 Sr18 2.631660 1_555
O7 Sr1 2.633534 1_555
O7 Sr3 3.040624 1_555
O7 Sr7 3.101442 1_555
O8 Sr19 2.655813 1_555
O8 Sr2 2.658647 1_555
O8 Sr4 3.039763 1_565
O8 Sr8 3.056798 1_565
O9 Sr3 2.651926 1_545
O9 Sr15 2.661421 1_546
O9 Sr9 3.005351 1_655
O9 Sr0 3.015221 1_556
O10 Sr9 2.625647 1_554
O10 Sr0 2.655891 1_455
O10 Sr16 3.035158 1_555
O10 Sr4 3.040668 1_554
O11 Sr1 2.603435 1_555
O11 Sr5 2.624691 1_555
O11 Sr0 3.068808 1_555
O11 Sr17 3.070981 1_555
O12 Sr6 2.639419 1_555
O12 Sr2 2.642103 1_555
O12 Sr1 3.048213 1_555
O12 Sr18 3.069194 1_555
O13 Sr3 2.630317 1_555
O13 Sr7 2.676076 1_555
O13 Sr19 3.028316 1_655
O13 Sr2 3.045560 1_655
O14 Sr8 2.631571 1_565
O14 Sr4 2.634061 1_565
O14 Sr3 3.065119 1_555
O14 Sr15 3.129318 1_556
O15 Sr6 2.795815 1_655
O15 Sr5 2.796711 1_555
O15 Sr0 2.861659 1_555
O15 Sr10 2.863917 1_555
O16 Sr1 2.789049 1_555
O16 Sr6 2.836612 1_555
O16 Sr11 2.840825 1_555
O16 Sr7 2.851063 1_555
O17 Sr9 2.816013 1_655
O17 Sr8 2.827897 1_555
O17 Sr13 2.832271 1_555
O17 Sr3 2.848171 1_545
O18 Sr8 2.785550 1_565
O18 Sr12 2.808139 1_565
O18 Sr7 2.826758 1_455
O18 Sr2 2.833002 1_555
O19 Sr9 2.808517 1_555
O19 Sr4 2.822348 1_555
O19 Sr14 2.823302 1_555
O19 Sr5 2.860705 1_556
O20 Sr6 2.568743 1_555
O20 Sr2 2.574427 1_555
O20 Sr7 3.053663 1_455
O20 Sr10 3.111380 1_455
O21 Sr3 2.636065 1_555
O21 Sr7 2.661664 1_555
O21 Sr11 3.063104 1_555
O21 Sr8 3.069663 1_565
O22 Sr5 2.640902 1_555
O22 Sr1 2.643225 1_555
O22 Sr14 3.026492 1_554
O22 Sr6 3.076456 1_555
O23 Sr8 2.625981 1_555
O23 Sr4 2.631163 1_555
O23 Sr9 3.052169 1_555
O23 Sr12 3.097685 1_555
O24 Sr9 2.628564 1_655
O24 Sr0 2.673694 1_556
O24 Sr13 3.052809 1_555
O24 Sr5 3.064579 1_556
O25 Sr7 2.650936 1_555
O25 Sr10 2.679397 1_555
O25 Sr1 2.974515 1_555
O25 Sr5 2.983887 1_555
O26 Sr14 2.658621 1_554
O26 Sr6 2.672344 1_555
O26 Sr9 3.036833 1_554
O26 Sr0 3.097105 1_455
O27 Sr9 2.630934 1_655
O27 Sr12 2.650791 1_655
O27 Sr3 3.030179 1_545
O27 Sr7 3.051540 1_545
O28 Sr8 2.616549 1_565
O28 Sr11 2.660716 1_555
O28 Sr6 3.055876 1_555
O28 Sr2 3.057272 1_555
O29 Sr13 2.626971 1_555
O29 Sr5 2.658754 1_556
O29 Sr8 3.059941 1_555
O29 Sr4 3.062197 1_555
O30 Sr5 2.764175 1_555
O30 Sr14 2.769332 1_554
O30 Sr15 2.797484 1_555
O30 Sr10 2.802430 1_555
O31 Sr16 2.810341 1_565
O31 Sr6 2.820041 1_555
O31 Sr11 2.841183 1_555
O31 Sr10 2.863539 1_455
O32 Sr12 2.751060 1_655
O32 Sr17 2.778294 1_555
O32 Sr11 2.785331 1_545
O32 Sr7 2.817004 1_545
O33 Sr8 2.796523 1_555
O33 Sr13 2.817183 1_555
O33 Sr18 2.836920 1_555
O33 Sr12 2.863091 1_555
O34 Sr19 2.837594 1_555
O34 Sr13 2.839931 1_455
O34 Sr9 2.840396 1_555
O34 Sr14 2.866806 1_555
O35 Sr14 2.650189 1_554
O35 Sr6 2.672418 1_555
O35 Sr11 3.045128 1_555
O35 Sr15 3.053346 1_555
O36 Sr8 2.637491 1_555
O36 Sr11 2.658211 1_545
O36 Sr13 3.027084 1_555
O36 Sr17 3.033962 1_555
O37 Sr9 2.625534 1_555
O37 Sr12 2.679823 1_555
O37 Sr14 3.062314 1_555
O37 Sr18 3.079117 1_555
O38 Sr7 2.577020 1_455
O38 Sr10 2.607433 1_455
O38 Sr16 3.003520 1_565
O38 Sr12 3.004614 1_565
O39 Sr13 2.604882 1_555
O39 Sr5 2.642018 1_556
O39 Sr19 2.999364 1_655
O39 Sr10 3.090968 1_556
O40 Sr19 2.634420 1_554
O40 Sr10 2.692547 1_455
O40 Sr6 3.051762 1_555
O40 Sr14 3.078247 1_554
O41 Sr11 2.591251 1_555
O41 Sr15 2.612607 1_555
O41 Sr7 2.994835 1_555
O41 Sr10 3.008517 1_555
O42 Sr16 2.644059 1_555
O42 Sr12 2.646429 1_555
O42 Sr8 3.037649 1_555
O42 Sr11 3.086143 1_545
O43 Sr13 2.621859 1_555
O43 Sr17 2.650758 1_555
O43 Sr9 3.054343 1_655
O43 Sr12 3.075461 1_655
O44 Sr14 2.610741 1_555
O44 Sr18 2.611232 1_555
O44 Sr13 3.002008 1_555
O44 Sr5 3.029533 1_556
O45 Sr16 2.734595 1_655
O45 Sr0 2.754025 1_555
O45 Sr15 2.771662 1_545
O45 Sr10 2.812350 1_545
O46 Sr11 2.819303 1_545
O46 Sr17 2.841912 1_555
O46 Sr1 2.847092 1_555
O46 Sr16 2.862600 1_555
O47 Sr2 2.814579 1_555
O47 Sr17 2.818902 1_455
O47 Sr12 2.843810 1_555
O47 Sr18 2.858432 1_555
O48 Sr18 2.783508 1_555
O48 Sr13 2.795808 1_555
O48 Sr19 2.797295 1_655
O48 Sr3 2.816035 1_555
O49 Sr4 2.809702 1_565
O49 Sr14 2.840503 1_555
O49 Sr15 2.864644 1_556
O49 Sr19 2.867912 1_555
O50 Sr11 2.657635 1_545
O50 Sr15 2.682767 1_545
O50 Sr4 3.029914 1_554
O50 Sr16 3.093900 1_555
O51 Sr12 2.619328 1_555
O51 Sr16 2.632535 1_555
O51 Sr17 2.974531 1_455
O51 Sr0 2.988054 1_455
O52 Sr13 2.636046 1_555
O52 Sr17 2.660420 1_555
O52 Sr1 3.035762 1_555
O52 Sr18 3.047286 1_555
O53 Sr14 2.638092 1_555
O53 Sr18 2.660552 1_555
O53 Sr19 3.065051 1_555
O53 Sr2 3.082255 1_555
O54 Sr19 2.583622 1_655
O54 Sr10 2.641940 1_556
O54 Sr15 3.002501 1_556
O54 Sr3 3.003708 1_555
O55 Sr4 2.616992 1_564
O55 Sr16 2.639436 1_565
O55 Sr19 3.023813 1_554
O55 Sr10 3.061640 1_455
O56 Sr17 2.608176 1_555
O56 Sr0 2.609893 1_555
O56 Sr11 2.998996 1_545
O56 Sr15 3.030817 1_545
O57 Sr1 2.653563 1_555
O57 Sr18 2.660579 1_555
O57 Sr12 3.082011 1_555
O57 Sr16 3.085120 1_555
O58 Sr19 2.640360 1_655
O58 Sr2 2.657328 1_655
O58 Sr13 3.044539 1_555
O58 Sr17 3.086563 1_555
O59 Sr3 2.608847 1_555
O59 Sr15 2.657229 1_556
O59 Sr18 3.008509 1_555
O59 Sr14 3.034225 1_555
