# generated using pymatgen
data_NaVO3
_symmetry_space_group_name_H-M   'P 1'
_cell_length_a   7.81697393
_cell_length_b   7.81697393
_cell_length_c   7.81697393
_cell_angle_alpha   133.04275797
_cell_angle_beta   106.85433729
_cell_angle_gamma   91.57677775
_symmetry_Int_Tables_number   1
_chemical_formula_structural   NaVO3
_chemical_formula_sum   'Na4 V4 O12'
_cell_volume   316.27260230
_cell_formula_units_Z   4
loop_
 _symmetry_equiv_pos_site_id
 _symmetry_equiv_pos_as_xyz
  1  'x, y, z'
loop_
 _atom_site_type_symbol
 _atom_site_label
 _atom_site_symmetry_multiplicity
 _atom_site_fract_x
 _atom_site_fract_y
 _atom_site_fract_z
 _atom_site_occupancy
  Na  Na0  1  0.70718900  0.75000000  0.45718900  1
  Na  Na1  1  0.29281100  0.75000000  0.04281100  1
  Na  Na2  1  0.29281100  0.25000000  0.54281100  1
  Na  Na3  1  0.70718900  0.25000000  0.95718900  1
  V  V0  1  0.13537500  0.21992400  0.91545100  1
  V  V1  1  0.30447400  0.71992400  0.58454900  1
  V  V2  1  0.69552600  0.28007600  0.41545100  1
  V  V3  1  0.86462500  0.78007600  0.08454900  1
  O  O0  1  0.16893200  0.91893200  0.75000000  1
  O  O1  1  0.16893200  0.41893200  0.25000000  1
  O  O2  1  0.59999700  0.34609300  0.25390400  1
  O  O3  1  0.26651200  0.37303100  0.89348100  1
  O  O4  1  0.09218900  0.84609300  0.24609600  1
  O  O5  1  0.47955000  0.87303100  0.60651900  1
  O  O6  1  0.52045000  0.12696900  0.39348100  1
  O  O7  1  0.90781100  0.15390700  0.75390400  1
  O  O8  1  0.73348800  0.62696900  0.10651900  1
  O  O9  1  0.40000300  0.65390700  0.74609600  1
  O  O10  1  0.83106800  0.58106800  0.75000000  1
  O  O11  1  0.83106800  0.08106800  0.25000000  1
loop_
_geom_bond_atom_site_label_1
_geom_bond_atom_site_label_2
_geom_bond_distance
_geom_bond_site_symmetry_2
Na0 O5 2.284767 1_555
Na0 O8 2.284767 1_555
Na0 O2 2.330091 1_555
Na0 O7 2.330091 1_565
Na1 O6 2.284767 1_565
Na1 O3 2.284767 1_554
Na1 O4 2.330091 1_555
Na1 O9 2.330091 1_554
Na2 O3 2.284767 1_555
Na2 O6 2.284767 1_555
Na2 O4 2.330091 1_545
Na2 O9 2.330091 1_555
Na3 O5 2.284767 1_545
Na3 O8 2.284767 1_556
Na3 O2 2.330091 1_556
Na3 O7 2.330091 1_555
O0 V0 1.831426 1_565
O0 V1 1.831433 1_555
O1 V0 1.831426 1_554
O1 V1 1.831427 1_555
O2 V2 1.668115 1_555
O3 V0 1.681629 1_555
O4 V3 1.668116 1_455
O5 V1 1.681623 1_555
O6 V2 1.681623 1_555
O7 V0 1.668116 1_655
O8 V3 1.681629 1_555
O9 V1 1.668115 1_555
O10 V3 1.831426 1_556
O10 V2 1.831427 1_555
O11 V3 1.831426 1_545
O11 V2 1.831433 1_555
