# generated using pymatgen
data_K4P4(H2O5)3
_symmetry_space_group_name_H-M   'P 1'
_cell_length_a   9.76564413
_cell_length_b   9.76564413
_cell_length_c   14.40702157
_cell_angle_alpha   61.43812188
_cell_angle_beta   61.43812188
_cell_angle_gamma   42.12739040
_symmetry_Int_Tables_number   1
_chemical_formula_structural   K4P4(H2O5)3
_chemical_formula_sum   'K8 P8 H12 O30'
_cell_volume   791.47962837
_cell_formula_units_Z   2
loop_
 _symmetry_equiv_pos_site_id
 _symmetry_equiv_pos_as_xyz
  1  'x, y, z'
loop_
 _atom_site_type_symbol
 _atom_site_label
 _atom_site_symmetry_multiplicity
 _atom_site_fract_x
 _atom_site_fract_y
 _atom_site_fract_z
 _atom_site_occupancy
  K  K0  1  0.18493000  0.36362800  0.87386300  1
  K  K1  1  0.63637200  0.81507000  0.62613700  1
  K  K2  1  0.81507000  0.63637200  0.12613700  1
  K  K3  1  0.36362800  0.18493000  0.37386300  1
  K  K4  1  0.79485000  0.23623000  0.10380400  1
  K  K5  1  0.76377000  0.20515000  0.39619600  1
  K  K6  1  0.20515000  0.76377000  0.89619600  1
  K  K7  1  0.23623000  0.79485000  0.60380400  1
  P  P0  1  0.04989600  0.23506000  0.71379800  1
  P  P1  1  0.76494000  0.95010400  0.78620200  1
  P  P2  1  0.95010400  0.76494000  0.28620200  1
  P  P3  1  0.23506000  0.04989600  0.21379800  1
  P  P4  1  0.28107500  0.38305700  0.59233900  1
  P  P5  1  0.61694300  0.71892500  0.90766100  1
  P  P6  1  0.71892500  0.61694300  0.40766100  1
  P  P7  1  0.38305700  0.28107500  0.09233900  1
  H  H0  1  0.79439300  0.39246500  0.84838400  1
  H  H1  1  0.60753500  0.20560700  0.65161600  1
  H  H2  1  0.20560700  0.60753500  0.15161600  1
  H  H3  1  0.39246500  0.79439300  0.34838400  1
  H  H4  1  0.09823600  0.61313500  0.46420700  1
  H  H5  1  0.38686500  0.90176400  0.03579300  1
  H  H6  1  0.90176400  0.38686500  0.53579300  1
  H  H7  1  0.61313500  0.09823700  0.96420700  1
  H  H8  1  0.63588700  0.46248400  0.71317400  1
  H  H9  1  0.53751600  0.36411300  0.78682600  1
  H  H10  1  0.36411300  0.53751600  0.28682600  1
  H  H11  1  0.46248400  0.63588700  0.21317300  1
  O  O0  1  0.92912400  0.24168400  0.83678500  1
  O  O1  1  0.75831600  0.07087600  0.66321500  1
  O  O2  1  0.07087600  0.75831600  0.16321500  1
  O  O3  1  0.24168400  0.92912400  0.33678500  1
  O  O4  1  0.89268700  0.39703600  0.64072800  1
  O  O5  1  0.60296400  0.10731300  0.85927200  1
  O  O6  1  0.10731300  0.60296400  0.35927200  1
  O  O7  1  0.39703600  0.89268700  0.14072800  1
  O  O8  1  0.21700300  0.01443500  0.69863200  1
  O  O9  1  0.98556500  0.78299700  0.80136800  1
  O  O10  1  0.78299700  0.98556500  0.30136800  1
  O  O11  1  0.01443500  0.21700300  0.19863200  1
  O  O12  1  0.15511500  0.31970300  0.70182100  1
  O  O13  1  0.68029700  0.84488500  0.79817900  1
  O  O14  1  0.84488500  0.68029700  0.29817900  1
  O  O15  1  0.31970300  0.15511500  0.20182100  1
  O  O16  1  0.37988700  0.39996900  0.63695900  1
  O  O17  1  0.60003100  0.62011300  0.86304100  1
  O  O18  1  0.62011300  0.60003100  0.36304100  1
  O  O19  1  0.39996900  0.37988700  0.13695900  1
  O  O20  1  0.42518900  0.22764100  0.52151100  1
  O  O21  1  0.77235900  0.57481100  0.97848900  1
  O  O22  1  0.57481100  0.77236000  0.47848900  1
  O  O23  1  0.22764000  0.42518900  0.02151100  1
  O  O24  1  0.10055800  0.61048100  0.53625200  1
  O  O25  1  0.38951900  0.89944200  0.96374800  1
  O  O26  1  0.89944200  0.38951900  0.46374800  1
  O  O27  1  0.61048100  0.10055800  0.03625200  1
  O  O28  1  0.49950800  0.50049200  0.75000000  1
  O  O29  1  0.50049200  0.49950800  0.25000000  1
loop_
_geom_bond_atom_site_label_1
_geom_bond_atom_site_label_2
_geom_bond_distance
_geom_bond_site_symmetry_2
K0 O5 2.738739 1_555
K0 O23 2.739227 1_556
K0 O21 2.756546 1_455
K0 O9 2.771448 1_455
K0 O12 2.881719 1_555
K0 O16 3.005036 1_555
K0 O25 3.105516 1_545
K1 O4 2.738739 1_555
K1 O22 2.739227 1_555
K1 O20 2.756546 1_565
K1 O8 2.771448 1_565
K1 O13 2.881719 1_555
K1 O17 3.005036 1_555
K1 O24 3.105516 1_655
K2 O7 2.738739 1_555
K2 O21 2.739234 1_554
K2 O23 2.756539 1_655
K2 O11 2.771448 1_655
K2 O14 2.881719 1_555
K2 O18 3.005036 1_555
K2 O27 3.105516 1_565
K3 O6 2.738739 1_555
K3 O20 2.739234 1_555
K3 O22 2.756539 1_545
K3 O10 2.771448 1_545
K3 O15 2.881719 1_555
K3 O19 3.005036 1_555
K3 O26 3.105516 1_455
K4 O10 2.747716 1_545
K4 O29 2.781344 1_555
K4 O21 2.798973 1_554
K4 O19 2.814580 1_555
K4 O11 2.908431 1_655
K4 O2 3.083232 1_645
K5 O11 2.747716 1_655
K5 O29 2.781344 1_555
K5 O20 2.798973 1_555
K5 O18 2.814580 1_555
K5 O10 2.908431 1_545
K5 O3 3.083232 1_645
K6 O8 2.747716 1_565
K6 O28 2.781344 1_555
K6 O23 2.798978 1_556
K6 O17 2.814580 1_555
K6 O9 2.908431 1_455
K6 O0 3.083232 1_465
K7 O9 2.747716 1_455
K7 O28 2.781344 1_555
K7 O22 2.798978 1_555
K7 O16 2.814580 1_555
K7 O8 2.908431 1_565
K7 O1 3.083232 1_465
H0 O0 1.038539 1_555
H0 O17 1.547947 1_555
H1 O1 1.038539 1_555
H1 O16 1.547947 1_555
H2 O2 1.038539 1_555
H2 O19 1.547947 1_555
H3 O3 1.038539 1_555
H3 O18 1.547947 1_555
H4 O24 1.036554 1_555
H4 O6 1.518436 1_555
H5 O25 1.036554 1_554
H5 O7 1.518436 1_555
H6 O26 1.036554 1_555
H6 O4 1.518436 1_555
H7 O27 1.036549 1_556
H7 O5 1.518441 1_555
H8 O28 0.986105 1_555
H9 O28 0.986105 1_555
H10 O29 0.986105 1_555
H11 O29 0.986106 1_555
O0 P0 1.591511 1_655
O1 P1 1.591511 1_545
O2 P2 1.591511 1_455
O3 P3 1.591511 1_565
O4 P0 1.522591 1_655
O5 P1 1.522591 1_545
O6 P2 1.522591 1_455
O7 P3 1.522591 1_565
O8 P0 1.498925 1_555
O9 P1 1.498925 1_555
O10 P2 1.498925 1_555
O11 P3 1.498925 1_555
O12 P0 1.650084 1_555
O12 P4 1.650527 1_555
O13 P1 1.650084 1_555
O13 P5 1.650527 1_555
O14 P2 1.650084 1_555
O14 P6 1.650527 1_555
O15 P3 1.650084 1_555
O15 P7 1.650527 1_555
O16 P4 1.517481 1_555
O17 P5 1.517481 1_555
O18 P6 1.517481 1_555
O19 P7 1.517481 1_555
O20 P4 1.504921 1_555
O21 P5 1.504921 1_555
O22 P6 1.504928 1_555
O23 P7 1.504928 1_555
O24 P4 1.591159 1_555
O25 P5 1.591159 1_555
O26 P6 1.591159 1_555
O27 P7 1.591159 1_555
