# generated using pymatgen
data_Li3VPCO7
_symmetry_space_group_name_H-M   'P 1'
_cell_length_a   6.62183000
_cell_length_b   8.52531452
_cell_length_c   9.96286406
_cell_angle_alpha   95.40383728
_cell_angle_beta   90.35729063
_cell_angle_gamma   90.34608273
_symmetry_Int_Tables_number   1
_chemical_formula_structural   Li3VPCO7
_chemical_formula_sum   'Li12 V4 P4 C4 O28'
_cell_volume   559.91244368
_cell_formula_units_Z   4
loop_
 _symmetry_equiv_pos_site_id
 _symmetry_equiv_pos_as_xyz
  1  'x, y, z'
loop_
 _atom_site_type_symbol
 _atom_site_label
 _atom_site_symmetry_multiplicity
 _atom_site_fract_x
 _atom_site_fract_y
 _atom_site_fract_z
 _atom_site_occupancy
  Li  Li0  1  0.73998500  0.89789100  0.39252800  1
  Li  Li1  1  0.74449500  0.90441000  0.88102400  1
  Li  Li2  1  0.51685900  0.71987300  0.13378500  1
  Li  Li3  1  0.99001900  0.72227000  0.61173400  1
  Li  Li4  1  0.51478400  0.72069300  0.61257100  1
  Li  Li5  1  0.25536100  0.65424400  0.40023400  1
  Li  Li6  1  0.46419400  0.28363400  0.37737600  1
  Li  Li7  1  0.03517400  0.28374200  0.37666300  1
  Li  Li8  1  0.46956900  0.28151200  0.87265300  1
  Li  Li9  1  0.02902300  0.27942200  0.87226500  1
  Li  Li10  1  0.25143600  0.09677400  0.11541500  1
  Li  Li11  1  0.25085000  0.10225800  0.61312800  1
  V  V0  1  0.99190200  0.72602900  0.14564000  1
  V  V1  1  0.25452100  0.67008800  0.89209000  1
  V  V2  1  0.74920500  0.32744300  0.10273800  1
  V  V3  1  0.75074700  0.32919000  0.60376000  1
  P  P0  1  0.74919700  0.59092600  0.36092700  1
  P  P1  1  0.75068400  0.58897000  0.86191900  1
  P  P2  1  0.25018700  0.40726000  0.14060700  1
  P  P3  1  0.25045800  0.41401300  0.63897000  1
  C  C0  1  0.24634600  0.96397100  0.34973800  1
  C  C1  1  0.24885600  0.96482500  0.84684300  1
  C  C2  1  0.74784000  0.03672200  0.15450700  1
  C  C3  1  0.75035400  0.03502800  0.65217400  1
  O  O0  1  0.25166400  0.93108300  0.47175800  1
  O  O1  1  0.74628700  0.89071500  0.18603100  1
  O  O2  1  0.25018800  0.92588700  0.97078900  1
  O  O3  1  0.24014200  0.84992800  0.25066600  1
  O  O4  1  0.75096300  0.88858700  0.67800700  1
  O  O5  1  0.24871300  0.85040600  0.75054800  1
  O  O6  1  0.93908200  0.69222100  0.40371200  1
  O  O7  1  0.56430600  0.69036300  0.40761400  1
  O  O8  1  0.93559100  0.68941200  0.92244500  1
  O  O9  1  0.57076000  0.69385500  0.91437900  1
  O  O10  1  0.25068100  0.57522000  0.08831200  1
  O  O11  1  0.75047800  0.56811100  0.19991800  1
  O  O12  1  0.25100700  0.57854700  0.58904300  1
  O  O13  1  0.75733900  0.57072600  0.70543400  1
  O  O14  1  0.25026000  0.42868700  0.29570200  1
  O  O15  1  0.75034800  0.42461400  0.41001700  1
  O  O16  1  0.25084400  0.43051500  0.79754500  1
  O  O17  1  0.74671800  0.42269600  0.91136600  1
  O  O18  1  0.06649100  0.30691900  0.08326900  1
  O  O19  1  0.43218400  0.30850700  0.08362600  1
  O  O20  1  0.43241500  0.31002700  0.58768300  1
  O  O21  1  0.06788300  0.30869900  0.58648000  1
  O  O22  1  0.74680900  0.15127100  0.24915200  1
  O  O23  1  0.24921400  0.10957300  0.31728000  1
  O  O24  1  0.75123300  0.14835400  0.75007100  1
  O  O25  1  0.74906600  0.06946600  0.03039300  1
  O  O26  1  0.24871500  0.10991000  0.81995100  1
  O  O27  1  0.74857600  0.07450800  0.52952400  1
loop_
_geom_bond_atom_site_label_1
_geom_bond_atom_site_label_2
_geom_bond_distance
_geom_bond_site_symmetry_2
Li0 O27 1.934996 1_565
Li0 O1 2.053136 1_555
Li0 O7 2.129205 1_555
Li0 O6 2.210852 1_555
Li1 O25 1.949379 1_566
Li1 O4 2.015149 1_555
Li1 O9 2.179064 1_555
Li1 O8 2.301117 1_555
Li1 O24 2.557333 1_565
Li2 O1 2.126256 1_555
Li2 O11 2.161776 1_555
Li2 O10 2.165945 1_555
Li2 O9 2.207752 1_554
Li2 O3 2.398104 1_555
Li3 O6 2.089227 1_555
Li3 O12 2.125428 1_655
Li3 O4 2.194556 1_555
Li3 O13 2.266195 1_555
Li3 O5 2.388251 1_655
Li4 O7 2.062503 1_555
Li4 O12 2.119017 1_555
Li4 O4 2.168907 1_555
Li4 O13 2.302037 1_555
Li4 O5 2.446258 1_555
Li5 O12 2.045690 1_555
Li5 O7 2.066808 1_555
Li5 O14 2.098817 1_555
Li5 O6 2.121154 1_455
Li5 O3 2.341395 1_555
Li5 O0 2.400580 1_555
Li6 O23 2.093691 1_555
Li6 O14 2.096311 1_555
Li6 O20 2.098166 1_555
Li6 O15 2.243213 1_555
Li6 O22 2.488247 1_555
Li7 O21 2.090906 1_555
Li7 O14 2.094491 1_555
Li7 O23 2.105718 1_555
Li7 O15 2.251676 1_455
Li7 O22 2.491781 1_455
Li8 O26 2.091560 1_555
Li8 O19 2.109095 1_556
Li8 O16 2.111655 1_555
Li8 O17 2.200598 1_555
Li8 O24 2.460036 1_555
Li9 O26 2.090313 1_555
Li9 O18 2.106121 1_556
Li9 O16 2.131280 1_555
Li9 O17 2.255065 1_455
Li9 O24 2.409429 1_455
Li10 O2 1.950131 1_544
Li10 O23 2.003975 1_555
Li10 O19 2.208504 1_555
Li10 O18 2.223003 1_555
Li11 O0 1.930398 1_545
Li11 O26 2.055572 1_555
Li11 O20 2.170233 1_555
Li11 O21 2.178455 1_555
C0 O0 1.273377 1_555
C0 O23 1.311930 1_565
C0 O3 1.318891 1_555
C1 O26 1.290008 1_565
C1 O5 1.302164 1_555
C1 O2 1.308532 1_555
C2 O22 1.292121 1_555
C2 O25 1.293102 1_555
C2 O1 1.312128 1_545
C3 O27 1.297655 1_555
C3 O4 1.298255 1_545
C3 O24 1.306566 1_555
O1 V0 2.169730 1_555
O2 V1 2.247290 1_555
O3 V0 2.159185 1_455
O5 V1 2.182103 1_555
O6 P0 1.555423 1_555
O6 V0 2.639266 1_555
O7 P0 1.542506 1_555
O8 P1 1.573834 1_555
O8 V1 2.140446 1_655
O8 V0 2.244698 1_556
O9 P1 1.557186 1_555
O9 V1 2.110958 1_555
O10 P2 1.569176 1_555
O10 V1 2.185111 1_554
O10 V0 2.194568 1_455
O11 P0 1.597654 1_555
O11 V2 2.184664 1_555
O11 V0 2.186915 1_555
O12 P3 1.531794 1_555
O13 P1 1.553062 1_555
O13 V3 2.207640 1_555
O14 P2 1.538768 1_555
O15 P0 1.542816 1_555
O15 V3 2.164106 1_555
O16 P3 1.572845 1_555
O16 V1 2.167058 1_555
O17 P1 1.544032 1_555
O17 V2 2.141560 1_556
O18 P2 1.557069 1_555
O18 V2 2.117931 1_455
O19 P2 1.553781 1_555
O19 V2 2.110530 1_555
O20 P3 1.560132 1_555
O20 V3 2.117182 1_555
O21 P3 1.559419 1_555
O21 V3 2.115069 1_455
O22 V2 2.190087 1_555
O24 V3 2.219211 1_555
O25 V2 2.248993 1_555
O27 V3 2.226780 1_555
