# generated using pymatgen
data_Li2Cu(PO3)4
_symmetry_space_group_name_H-M   'P 1'
_cell_length_a   4.64826100
_cell_length_b   9.34338838
_cell_length_c   9.35164866
_cell_angle_alpha   89.89130693
_cell_angle_beta   93.05395154
_cell_angle_gamma   92.40798815
_symmetry_Int_Tables_number   1
_chemical_formula_structural   Li2Cu(PO3)4
_chemical_formula_sum   'Li4 Cu2 P8 O24'
_cell_volume   405.21189535
_cell_formula_units_Z   2
loop_
 _symmetry_equiv_pos_site_id
 _symmetry_equiv_pos_as_xyz
  1  'x, y, z'
loop_
 _atom_site_type_symbol
 _atom_site_label
 _atom_site_symmetry_multiplicity
 _atom_site_fract_x
 _atom_site_fract_y
 _atom_site_fract_z
 _atom_site_occupancy
  Li  Li0  1  0.49902300  0.99660100  0.99915700  1
  Li  Li1  1  0.49620000  0.00172300  0.50343100  1
  Li  Li2  1  0.50163900  0.49855100  0.50127300  1
  Li  Li3  1  0.49858900  0.50480800  0.00062500  1
  Cu  Cu0  1  0.50000600  0.74010100  0.26954100  1
  Cu  Cu1  1  0.50546900  0.27123300  0.74849200  1
  P  P0  1  0.00127600  0.97535900  0.75210500  1
  P  P1  1  0.99493900  0.75461800  0.52934900  1
  P  P2  1  0.00401400  0.75371400  0.97463900  1
  P  P3  1  0.99810300  0.52964500  0.75274800  1
  P  P4  1  0.00632100  0.47227700  0.24517100  1
  P  P5  1  0.99534900  0.24493200  0.02430900  1
  P  P6  1  0.00652200  0.24510900  0.47252500  1
  P  P7  1  0.99458000  0.02314100  0.24607000  1
  O  O0  1  0.75234500  0.94111800  0.31629200  1
  O  O1  1  0.23616900  0.95534400  0.17739600  1
  O  O2  1  0.16042600  0.86476200  0.86462900  1
  O  O3  1  0.84175900  0.86086600  0.63483500  1
  O  O4  1  0.76162900  0.82250500  0.04136000  1
  O  O5  1  0.23898400  0.82844200  0.45833000  1
  O  O6  1  0.75047800  0.67466500  0.44510500  1
  O  O7  1  0.24548400  0.68060700  0.05573800  1
  O  O8  1  0.84927600  0.63466900  0.86117100  1
  O  O9  1  0.14188300  0.63744000  0.63697700  1
  O  O10  1  0.75847700  0.54256800  0.17150000  1
  O  O11  1  0.25503800  0.55622200  0.32188200  1
  O  O12  1  0.75248100  0.44686200  0.67418100  1
  O  O13  1  0.24357400  0.45642300  0.82707500  1
  O  O14  1  0.14998100  0.36447300  0.13569000  1
  O  O15  1  0.87055600  0.36496300  0.36372600  1
  O  O16  1  0.25543300  0.32083300  0.55768700  1
  O  O17  1  0.75223100  0.31759400  0.94078000  1
  O  O18  1  0.75707300  0.17348200  0.54047600  1
  O  O19  1  0.23718100  0.17627400  0.95665300  1
  O  O20  1  0.83588600  0.13489500  0.13418100  1
  O  O21  1  0.14987200  0.13551400  0.36485300  1
  O  O22  1  0.24096900  0.05317600  0.67912800  1
  O  O23  1  0.76078700  0.04442900  0.82098100  1
loop_
_geom_bond_atom_site_label_1
_geom_bond_atom_site_label_2
_geom_bond_distance
_geom_bond_site_symmetry_2
Li0 O4 2.098770 1_556
Li0 O19 2.138967 1_565
Li0 O1 2.143531 1_556
Li0 O23 2.150357 1_565
Li0 O2 2.282369 1_555
Li0 O20 2.311133 1_566
Li1 O18 1.989892 1_555
Li1 O5 2.003704 1_545
Li1 O22 2.144032 1_555
Li1 O0 2.254635 1_545
Li1 O21 2.402974 1_555
Li1 O3 2.404859 1_545
Li2 O12 2.012665 1_555
Li2 O6 2.054990 1_555
Li2 O16 2.060726 1_555
Li2 O11 2.064509 1_555
Li2 O9 2.550611 1_555
Li2 O15 2.563992 1_555
Li3 O10 1.974317 1_555
Li3 O13 1.999079 1_554
Li3 O7 2.139623 1_555
Li3 O17 2.238369 1_554
Li3 O8 2.425784 1_554
Li3 O14 2.444106 1_555
Cu0 O6 2.068135 1_555
Cu0 O11 2.092769 1_555
Cu0 O0 2.204051 1_555
Cu0 O7 2.324486 1_555
Cu0 O5 2.363950 1_555
Cu0 O10 2.449597 1_555
Cu0 O1 2.525697 1_555
Cu0 O4 2.610874 1_555
Cu1 O12 2.101521 1_555
Cu1 O17 2.116192 1_555
Cu1 O16 2.137891 1_555
Cu1 O13 2.300674 1_555
Cu1 O22 2.406838 1_555
Cu1 O19 2.508179 1_555
Cu1 O18 2.514959 1_555
Cu1 O23 2.545351 1_555
O0 P7 1.513522 1_565
O1 P7 1.487590 1_465
O2 P2 1.635778 1_555
O2 P0 1.643028 1_555
O3 P1 1.613546 1_555
O3 P0 1.657707 1_655
O4 P2 1.486301 1_654
O5 P1 1.488786 1_455
O6 P1 1.518372 1_555
O7 P2 1.507759 1_554
O8 P3 1.614031 1_555
O8 P2 1.654208 1_655
O9 P3 1.627754 1_455
O9 P1 1.632071 1_455
O10 P4 1.486765 1_655
O11 P4 1.517874 1_555
O12 P3 1.510024 1_555
O13 P3 1.494116 1_455
O14 P4 1.625417 1_555
O14 P5 1.645065 1_455
O15 P4 1.627868 1_655
O15 P6 1.635639 1_655
O16 P6 1.519431 1_555
O17 P5 1.522024 1_556
O18 P6 1.485874 1_655
O19 P5 1.487728 1_456
O20 P5 1.635626 1_555
O20 P7 1.645472 1_555
O21 P6 1.624547 1_555
O21 P7 1.647013 1_455
O22 P0 1.498930 1_545
O23 P0 1.489920 1_645
