# generated using pymatgen
data_Na12NbO7
_symmetry_space_group_name_H-M   'P 1'
_cell_length_a   7.52093903
_cell_length_b   7.52093903
_cell_length_c   7.52093917
_cell_angle_alpha   106.14451632
_cell_angle_beta   106.14451632
_cell_angle_gamma   106.14450604
_symmetry_Int_Tables_number   1
_chemical_formula_structural   Na12NbO7
_chemical_formula_sum   'Na12 Nb1 O7'
_cell_volume   362.24267140
_cell_formula_units_Z   1
loop_
 _symmetry_equiv_pos_site_id
 _symmetry_equiv_pos_as_xyz
  1  'x, y, z'
loop_
 _atom_site_type_symbol
 _atom_site_label
 _atom_site_symmetry_multiplicity
 _atom_site_fract_x
 _atom_site_fract_y
 _atom_site_fract_z
 _atom_site_occupancy
  Na  Na0  1  0.20456200  0.67683700  0.06864800  1
  Na  Na1  1  0.93135200  0.79543800  0.32316300  1
  Na  Na2  1  0.63253500  0.83360400  0.57013600  1
  Na  Na3  1  0.42986400  0.36746500  0.16639600  1
  Na  Na4  1  0.32316300  0.93135200  0.79543800  1
  Na  Na5  1  0.16639600  0.42986400  0.36746500  1
  Na  Na6  1  0.83360400  0.57013600  0.63253500  1
  Na  Na7  1  0.67683700  0.06864800  0.20456200  1
  Na  Na8  1  0.57013600  0.63253500  0.83360400  1
  Na  Na9  1  0.36746500  0.16639600  0.42986400  1
  Na  Na10  1  0.06864800  0.20456200  0.67683700  1
  Na  Na11  1  0.79543800  0.32316300  0.93135200  1
  Nb  Nb0  1  0.00000000  0.00000000  0.00000000  1
  O  O0  1  0.09516600  0.29431100  0.01800000  1
  O  O1  1  0.98200000  0.90483400  0.70568900  1
  O  O2  1  0.70568900  0.98200000  0.90483400  1
  O  O3  1  0.50000000  0.50000000  0.50000000  1
  O  O4  1  0.29431100  0.01800000  0.09516600  1
  O  O5  1  0.01800000  0.09516600  0.29431100  1
  O  O6  1  0.90483400  0.70568900  0.98200000  1
loop_
_geom_bond_atom_site_label_1
_geom_bond_atom_site_label_2
_geom_bond_distance
_geom_bond_site_symmetry_2
Na0 O6 2.255451 1_454
Na0 O4 2.399257 1_565
Na0 O0 2.645524 1_555
Na1 O5 2.255451 1_665
Na1 O6 2.399257 1_554
Na1 O1 2.645524 1_555
Na2 O3 2.268861 1_555
Na2 O2 2.282710 1_555
Na2 O1 2.378535 1_555
Na3 O3 2.268861 1_555
Na3 O0 2.282710 1_555
Na3 O4 2.378535 1_555
Na4 O4 2.255451 1_566
Na4 O1 2.399257 1_455
Na4 O2 2.645524 1_555
Na5 O3 2.268861 1_555
Na5 O5 2.282710 1_555
Na5 O0 2.378535 1_555
Na6 O3 2.268861 1_555
Na6 O1 2.282710 1_555
Na6 O6 2.378535 1_555
Na7 O2 2.255451 1_544
Na7 O5 2.399257 1_655
Na7 O4 2.645524 1_555
Na8 O3 2.268861 1_555
Na8 O6 2.282710 1_555
Na8 O2 2.378535 1_555
Na9 O3 2.268861 1_555
Na9 O4 2.282710 1_555
Na9 O5 2.378535 1_555
Na10 O1 2.255451 1_445
Na10 O0 2.399257 1_556
Na10 O5 2.645524 1_555
Na11 O0 2.255451 1_656
Na11 O2 2.399257 1_545
Na11 O6 2.645524 1_555
Nb0 O4 2.080525 1_555
Nb0 O2 2.080525 1_444
Nb0 O5 2.080525 1_555
Nb0 O1 2.080525 1_444
Nb0 O0 2.080525 1_555
Nb0 O6 2.080525 1_444
