# generated using pymatgen
data_LiCuF4
_symmetry_space_group_name_H-M   'P 1'
_cell_length_a   6.12958128
_cell_length_b   6.12958128
_cell_length_c   6.12958128
_cell_angle_alpha   129.45350444
_cell_angle_beta   129.45350444
_cell_angle_gamma   74.28195220
_symmetry_Int_Tables_number   1
_chemical_formula_structural   LiCuF4
_chemical_formula_sum   'Li2 Cu2 F8'
_cell_volume   133.85008604
_cell_formula_units_Z   2
loop_
 _symmetry_equiv_pos_site_id
 _symmetry_equiv_pos_as_xyz
  1  'x, y, z'
loop_
 _atom_site_type_symbol
 _atom_site_label
 _atom_site_symmetry_multiplicity
 _atom_site_fract_x
 _atom_site_fract_y
 _atom_site_fract_z
 _atom_site_occupancy
  Li  Li0  1  0.75000000  0.75000000  0.00000000  1
  Li  Li1  1  0.25000000  0.25000000  0.00000000  1
  Cu  Cu0  1  0.50000000  0.00000000  0.50000000  1
  Cu  Cu1  1  0.00000000  0.50000000  0.50000000  1
  F  F0  1  0.45357700  0.30241000  0.50000000  1
  F  F1  1  0.95357700  0.45357700  0.15116700  1
  F  F2  1  0.19759000  0.04642300  0.50000000  1
  F  F3  1  0.30241000  0.80241000  0.84883300  1
  F  F4  1  0.69759000  0.19759000  0.15116700  1
  F  F5  1  0.80241000  0.95357700  0.50000000  1
  F  F6  1  0.04642300  0.54642300  0.84883300  1
  F  F7  1  0.54642300  0.69759000  0.50000000  1
loop_
_geom_bond_atom_site_label_1
_geom_bond_atom_site_label_2
_geom_bond_distance
_geom_bond_site_symmetry_2
Cu0 F0 1.797552 1_555
Cu0 F7 1.797552 1_545
Cu0 F2 1.797552 1_555
Cu0 F5 1.797552 1_545
Cu1 F1 1.797552 1_455
Cu1 F4 1.797552 1_455
Cu1 F6 1.797552 1_555
Cu1 F3 1.797552 1_555
F0 Li1 2.271287 1_555
F0 Li0 2.271287 1_556
F1 Li1 2.271287 1_655
F1 Li0 2.271287 1_555
F2 Li1 2.271287 1_556
F2 Li0 2.271287 1_445
F3 Li1 2.271287 1_566
F3 Li0 2.271287 1_556
F4 Li0 2.271287 1_545
F4 Li1 2.271287 1_555
F5 Li1 2.271287 1_666
F5 Li0 2.271287 1_555
F6 Li0 2.271287 1_456
F6 Li1 2.271287 1_556
F7 Li0 2.271287 1_556
F7 Li1 2.271287 1_555
