# generated using pymatgen
data_K2Be2PbF8
_symmetry_space_group_name_H-M   'P 1'
_cell_length_a   7.62914702
_cell_length_b   7.62914702
_cell_length_c   7.62914737
_cell_angle_alpha   42.48375946
_cell_angle_beta   42.48375946
_cell_angle_gamma   42.48375423
_symmetry_Int_Tables_number   1
_chemical_formula_structural   K2Be2PbF8
_chemical_formula_sum   'K2 Be2 Pb1 F8'
_cell_volume   183.39647628
_cell_formula_units_Z   1
loop_
 _symmetry_equiv_pos_site_id
 _symmetry_equiv_pos_as_xyz
  1  'x, y, z'
loop_
 _atom_site_type_symbol
 _atom_site_label
 _atom_site_symmetry_multiplicity
 _atom_site_fract_x
 _atom_site_fract_y
 _atom_site_fract_z
 _atom_site_occupancy
  K  K0  1  0.20322900  0.20322900  0.20322900  1
  K  K1  1  0.79677100  0.79677100  0.79677100  1
  Be  Be0  1  0.59820700  0.59820700  0.59820700  1
  Be  Be1  1  0.40179300  0.40179300  0.40179300  1
  Pb  Pb0  1  0.00000000  0.00000000  0.00000000  1
  F  F0  1  0.72828600  0.26247200  0.72828600  1
  F  F1  1  0.26247200  0.72828600  0.72828600  1
  F  F2  1  0.72828600  0.72828600  0.26247200  1
  F  F3  1  0.32744400  0.32744400  0.32744400  1
  F  F4  1  0.67255600  0.67255600  0.67255600  1
  F  F5  1  0.73752800  0.27171400  0.27171400  1
  F  F6  1  0.27171400  0.27171400  0.73752800  1
  F  F7  1  0.27171400  0.73752800  0.27171400  1
loop_
_geom_bond_atom_site_label_1
_geom_bond_atom_site_label_2
_geom_bond_distance
_geom_bond_site_symmetry_2
Be0 F4 1.545589 1_555
Be0 F0 1.576276 1_555
Be0 F1 1.576276 1_555
Be0 F2 1.576276 1_555
Be1 F3 1.545589 1_555
Be1 F7 1.576276 1_555
Be1 F5 1.576276 1_555
Be1 F6 1.576276 1_555
F0 Pb0 2.587887 1_656
F0 K1 2.845310 1_545
F0 K0 2.868154 1_556
F0 K0 2.868154 1_655
F1 Pb0 2.587887 1_566
F1 K1 2.845310 1_455
F1 K0 2.868154 1_556
F1 K0 2.868154 1_565
F2 Pb0 2.587887 1_665
F2 K1 2.845310 1_554
F2 K0 2.868153 1_655
F2 K0 2.868153 1_565
F3 K0 2.582217 1_555
F4 K1 2.582217 1_555
F5 Pb0 2.587887 1_655
F5 K0 2.845310 1_655
F5 K1 2.868154 1_554
F5 K1 2.868154 1_545
F6 Pb0 2.587887 1_556
F6 K0 2.845310 1_556
F6 K1 2.868153 1_455
F6 K1 2.868153 1_545
F7 Pb0 2.587887 1_565
F7 K0 2.845310 1_565
F7 K1 2.868154 1_554
F7 K1 2.868154 1_455
