# generated using pymatgen
data_Hf2N2O
_symmetry_space_group_name_H-M   'P 1'
_cell_length_a   8.66782437
_cell_length_b   8.66751122
_cell_length_c   8.67363208
_cell_angle_alpha   109.44137865
_cell_angle_beta   109.44747909
_cell_angle_gamma   109.44828616
_symmetry_Int_Tables_number   1
_chemical_formula_structural   Hf2N2O
_chemical_formula_sum   'Hf16 N16 O8'
_cell_volume   502.10328413
_cell_formula_units_Z   8
loop_
 _symmetry_equiv_pos_site_id
 _symmetry_equiv_pos_as_xyz
  1  'x, y, z'
loop_
 _atom_site_type_symbol
 _atom_site_label
 _atom_site_symmetry_multiplicity
 _atom_site_fract_x
 _atom_site_fract_y
 _atom_site_fract_z
 _atom_site_occupancy
  Hf  Hf0  1  0.21947013  0.25833777  0.97092518  1
  Hf  Hf1  1  0.99610446  0.48952912  0.99100888  1
  Hf  Hf2  1  0.75268805  0.97264119  0.72065492  1
  Hf  Hf3  1  0.25115056  0.53631436  0.78535845  1
  Hf  Hf4  1  0.53788665  0.78241413  0.24392893  1
  Hf  Hf5  1  0.03133724  0.28165968  0.25264275  1
  Hf  Hf6  1  0.98745402  0.99093116  0.48392613  1
  Hf  Hf7  1  0.50750153  0.50059721  0.51107171  1
  Hf  Hf8  1  0.51305352  0.00996878  0.00470843  1
  Hf  Hf9  1  0.72068512  0.25611103  0.47129587  1
  Hf  Hf10  1  0.28907039  0.75241503  0.53888680  1
  Hf  Hf11  1  0.46858256  0.21234806  0.75204835  1
  Hf  Hf12  1  0.95479226  0.70850263  0.74082391  1
  Hf  Hf13  1  0.74197800  0.46084076  0.20868180  1
  Hf  Hf14  1  0.24972152  0.03444086  0.29582743  1
  Hf  Hf15  1  0.77922058  0.74719147  0.03206876  1
  N  N0  1  0.27524009  0.53299254  0.05054888  1
  N  N1  1  0.25978067  0.48918602  0.53400469  1
  N  N2  1  0.76979872  0.04375903  0.51229440  1
  N  N3  1  0.53154572  0.76318389  0.98794034  1
  N  N4  1  0.46181945  0.23634380  0.01061789  1
  N  N5  1  0.96926311  0.46144943  0.73062076  1
  N  N6  1  0.22251058  0.94893679  0.48710127  1
  N  N7  1  0.73167709  0.74137017  0.77193555  1
  N  N8  1  0.99366951  0.03438656  0.26115181  1
  N  N9  1  0.77293154  0.22752660  0.23864089  1
  N  N10  1  0.73924496  0.51673273  0.46652283  1
  N  N11  1  0.54269149  0.00601038  0.77065192  1
  N  N12  1  0.76008101  0.72759254  0.27328832  1
  N  N13  1  0.95680223  0.22625644  0.96825031  1
  N  N14  1  0.73042530  0.46617426  0.95322226  1
  N  N15  1  0.50681599  0.27066132  0.54074671  1
  O  O0  1  0.48169838  0.72471199  0.45087387  1
  O  O1  1  0.23491640  0.27209924  0.72866003  1
  O  O2  1  0.05333974  0.77537042  0.03716030  1
  O  O3  1  0.44760417  0.98618467  0.22156758  1
  O  O4  1  0.22515183  0.77559822  0.76089829  1
  O  O5  1  0.01997765  0.96785497  0.73962177  1
  O  O6  1  0.27561967  0.26308309  0.22727525  1
  O  O7  1  0.03669610  0.54829366  0.27254278  1
loop_
_geom_bond_atom_site_label_1
_geom_bond_atom_site_label_2
_geom_bond_distance
_geom_bond_site_symmetry_2
Hf0 N0 2.072367 1_556
Hf0 O6 2.094672 1_556
Hf0 N4 2.096746 1_556
Hf0 O5 2.186880 1_545
Hf0 O1 2.188891 1_555
Hf0 N13 2.190991 1_455
Hf1 N5 2.112042 1_555
Hf1 N13 2.121291 1_555
Hf1 N14 2.143453 1_555
Hf1 N0 2.166587 1_656
Hf1 O7 2.196997 1_656
Hf1 O2 2.221173 1_656
Hf2 N13 2.076506 1_565
Hf2 N11 2.092267 1_565
Hf2 N2 2.127739 1_565
Hf2 N7 2.157212 1_555
Hf2 O5 2.282802 1_655
Hf2 O0 2.289570 1_555
Hf3 N1 2.112255 1_555
Hf3 O1 2.120324 1_555
Hf3 N3 2.129519 1_555
Hf3 N5 2.140821 1_455
Hf3 O4 2.229251 1_555
Hf3 N0 2.250213 1_556
Hf4 N12 2.088841 1_555
Hf4 N0 2.106155 1_555
Hf4 N3 2.151055 1_554
Hf4 O0 2.174108 1_555
Hf4 O3 2.194711 1_555
Hf4 N2 2.220868 1_565
Hf5 N9 2.081534 1_455
Hf5 N8 2.088277 1_455
Hf5 N1 2.144829 1_555
Hf5 N13 2.162492 1_454
Hf5 O7 2.242889 1_555
Hf5 O6 2.251973 1_555
Hf6 N12 2.064627 1_555
Hf6 N8 2.102068 1_565
Hf6 N2 2.153790 1_565
Hf6 N6 2.178878 1_655
Hf6 O5 2.225909 1_655
Hf6 O1 2.255976 1_665
Hf7 N15 2.091132 1_555
Hf7 N7 2.116399 1_555
Hf7 N10 2.137645 1_555
Hf7 N1 2.194515 1_555
Hf7 O6 2.216723 1_555
Hf7 O0 2.232206 1_555
Hf8 N9 2.080358 1_555
Hf8 N11 2.120222 1_554
Hf8 N4 2.139663 1_555
Hf8 N3 2.158461 1_544
Hf8 O3 2.189320 1_545
Hf8 O4 2.253137 1_544
Hf9 N5 2.103258 1_555
Hf9 N2 2.133547 1_555
Hf9 N15 2.159626 1_555
Hf9 N9 2.165426 1_555
Hf9 N10 2.226007 1_555
Hf9 O3 2.300651 1_545
Hf10 O0 2.102832 1_555
Hf10 N6 2.104084 1_555
Hf10 O4 2.140658 1_555
Hf10 O7 2.142246 1_555
Hf10 N11 2.145550 1_565
Hf10 N1 2.194193 1_555
Hf11 N14 2.125653 1_555
Hf11 N11 2.127267 1_555
Hf11 N15 2.152630 1_555
Hf11 N4 2.204930 1_556
Hf11 O1 2.215030 1_555
Hf11 N6 2.245813 1_545
Hf12 N10 2.062416 1_555
Hf12 O5 2.132210 1_655
Hf12 N7 2.134769 1_555
Hf12 O4 2.147917 1_655
Hf12 N5 2.160783 1_555
Hf12 O2 2.211050 1_656
Hf13 N4 2.117729 1_555
Hf13 N12 2.126431 1_555
Hf13 N10 2.135069 1_555
Hf13 N14 2.201202 1_554
Hf13 N9 2.212172 1_555
Hf13 O7 2.212694 1_655
Hf14 N6 2.078441 1_545
Hf14 O2 2.128703 1_545
Hf14 O3 2.136775 1_545
Hf14 N8 2.137984 1_455
Hf14 N15 2.141230 1_555
Hf14 O6 2.215480 1_555
Hf15 N3 2.112060 1_554
Hf15 N7 2.134122 1_554
Hf15 N14 2.142856 1_554
Hf15 N8 2.183240 1_565
Hf15 N12 2.209717 1_555
Hf15 O2 2.289883 1_655
