# generated using pymatgen
data_SmErO3
_symmetry_space_group_name_H-M   'P 1'
_cell_length_a   5.74318100
_cell_length_b   6.00022700
_cell_length_c   8.42913900
_cell_angle_alpha   90.00000000
_cell_angle_beta   90.00000000
_cell_angle_gamma   90.00000000
_symmetry_Int_Tables_number   1
_chemical_formula_structural   SmErO3
_chemical_formula_sum   'Sm4 Er4 O12'
_cell_volume   290.47141479
_cell_formula_units_Z   4
loop_
 _symmetry_equiv_pos_site_id
 _symmetry_equiv_pos_as_xyz
  1  'x, y, z'
loop_
 _atom_site_type_symbol
 _atom_site_label
 _atom_site_symmetry_multiplicity
 _atom_site_fract_x
 _atom_site_fract_y
 _atom_site_fract_z
 _atom_site_occupancy
  Sm  Sm0  1  0.98237100  0.05218700  0.25000000  1
  Sm  Sm1  1  0.48237100  0.44781300  0.75000000  1
  Sm  Sm2  1  0.51762900  0.55218700  0.25000000  1
  Sm  Sm3  1  0.01762900  0.94781300  0.75000000  1
  Er  Er0  1  0.50000000  0.00000000  0.00000000  1
  Er  Er1  1  0.50000000  0.00000000  0.50000000  1
  Er  Er2  1  0.00000000  0.50000000  0.00000000  1
  Er  Er3  1  0.00000000  0.50000000  0.50000000  1
  O  O0  1  0.63982200  0.07181000  0.75000000  1
  O  O1  1  0.18731600  0.19034800  0.57381700  1
  O  O2  1  0.18731600  0.19034800  0.92618300  1
  O  O3  1  0.68731600  0.30965200  0.42618300  1
  O  O4  1  0.68731600  0.30965200  0.07381700  1
  O  O5  1  0.13982200  0.42819000  0.25000000  1
  O  O6  1  0.86017800  0.57181000  0.75000000  1
  O  O7  1  0.31268400  0.69034800  0.92618300  1
  O  O8  1  0.31268400  0.69034800  0.57381700  1
  O  O9  1  0.81268400  0.80965200  0.07381700  1
  O  O10  1  0.81268400  0.80965200  0.42618300  1
  O  O11  1  0.36017800  0.92819000  0.25000000  1
loop_
_geom_bond_atom_site_label_1
_geom_bond_atom_site_label_2
_geom_bond_distance
_geom_bond_site_symmetry_2
Er0 O9 2.217321 1_545
Er0 O2 2.217321 1_554
Er0 O4 2.235301 1_555
Er0 O7 2.235301 1_544
Er0 O0 2.295898 1_554
Er0 O11 2.295898 1_545
Er1 O10 2.217321 1_545
Er1 O1 2.217321 1_555
Er1 O3 2.235301 1_555
Er1 O8 2.235301 1_545
Er1 O0 2.295898 1_555
Er1 O11 2.295898 1_545
Er2 O7 2.217321 1_554
Er2 O4 2.217321 1_455
Er2 O9 2.235301 1_455
Er2 O2 2.235301 1_554
Er2 O6 2.295898 1_454
Er2 O5 2.295898 1_555
Er3 O8 2.217321 1_555
Er3 O3 2.217321 1_455
Er3 O10 2.235301 1_455
Er3 O1 2.235301 1_555
Er3 O5 2.295898 1_555
Er3 O6 2.295898 1_455
O0 Sm3 2.293827 1_645
O0 Sm1 2.430577 1_555
O1 Sm3 2.296294 1_545
O1 Sm1 2.731942 1_555
O1 Sm0 3.085906 1_455
O2 Sm3 2.296294 1_545
O2 Sm1 2.731942 1_555
O2 Sm0 3.085906 1_456
O3 Sm2 2.296294 1_555
O3 Sm0 2.731942 1_555
O3 Sm1 3.085906 1_555
O4 Sm2 2.296294 1_555
O4 Sm0 2.731942 1_555
O4 Sm1 3.085906 1_554
O5 Sm2 2.293827 1_555
O5 Sm0 2.430577 1_455
O6 Sm1 2.293827 1_555
O6 Sm3 2.430577 1_655
O7 Sm1 2.296294 1_555
O7 Sm3 2.731942 1_555
O7 Sm2 3.085906 1_556
O8 Sm1 2.296294 1_555
O8 Sm3 2.731942 1_555
O8 Sm2 3.085906 1_555
O9 Sm0 2.296294 1_565
O9 Sm2 2.731942 1_555
O9 Sm3 3.085906 1_654
O10 Sm0 2.296294 1_565
O10 Sm2 2.731942 1_555
O10 Sm3 3.085906 1_655
O11 Sm0 2.293827 1_465
O11 Sm2 2.430577 1_555
