# generated using pymatgen
data_Li2VCrO4
_symmetry_space_group_name_H-M   'P 1'
_cell_length_a   9.90193538
_cell_length_b   9.90193538
_cell_length_c   5.22363252
_cell_angle_alpha   84.44479419
_cell_angle_beta   84.44479419
_cell_angle_gamma   17.25484446
_symmetry_Int_Tables_number   1
_chemical_formula_structural   Li2VCrO4
_chemical_formula_sum   'Li4 V2 Cr2 O8'
_cell_volume   151.19060739
_cell_formula_units_Z   2
loop_
 _symmetry_equiv_pos_site_id
 _symmetry_equiv_pos_as_xyz
  1  'x, y, z'
loop_
 _atom_site_type_symbol
 _atom_site_label
 _atom_site_symmetry_multiplicity
 _atom_site_fract_x
 _atom_site_fract_y
 _atom_site_fract_z
 _atom_site_occupancy
  Li  Li0  1  0.00000000  0.00000000  0.00000000  1
  Li  Li1  1  0.74954300  0.74954300  0.74639900  1
  Li  Li2  1  0.50000000  0.50000000  0.50000000  1
  Li  Li3  1  0.25045700  0.25045700  0.25360100  1
  V  V0  1  0.37489900  0.37489900  0.87502700  1
  V  V1  1  0.62510100  0.62510100  0.12497300  1
  Cr  Cr0  1  0.87515900  0.87515900  0.37493400  1
  Cr  Cr1  1  0.12484100  0.12484100  0.62506600  1
  O  O0  1  0.93150600  0.93150600  0.68729600  1
  O  O1  1  0.18166900  0.18166900  0.93655500  1
  O  O2  1  0.56823700  0.56823700  0.80679400  1
  O  O3  1  0.68156700  0.68156700  0.44379800  1
  O  O4  1  0.31843300  0.31843300  0.55620200  1
  O  O5  1  0.81833100  0.81833100  0.06344500  1
  O  O6  1  0.06849400  0.06849400  0.31270400  1
  O  O7  1  0.43176300  0.43176300  0.19320600  1
loop_
_geom_bond_atom_site_label_1
_geom_bond_atom_site_label_2
_geom_bond_distance
_geom_bond_site_symmetry_2
Li0 O2 2.178513 1_544
Li0 O7 2.178513 1_455
Li0 O2 2.178513 1_454
Li0 O7 2.178513 1_545
Li0 O6 2.212619 1_555
Li0 O0 2.212619 1_444
Li1 O3 2.163784 1_555
Li1 O1 2.168092 1_565
Li1 O1 2.168092 1_655
Li1 O4 2.179539 1_565
Li1 O4 2.179539 1_655
Li1 O5 2.234634 1_556
Li2 O6 2.169134 1_655
Li2 O0 2.169134 1_455
Li2 O6 2.169134 1_565
Li2 O0 2.169134 1_545
Li2 O2 2.184633 1_555
Li2 O7 2.184633 1_555
Li3 O4 2.163784 1_555
Li3 O5 2.168092 1_545
Li3 O5 2.168092 1_455
Li3 O3 2.179539 1_545
Li3 O3 2.179539 1_455
Li3 O1 2.234634 1_554
Cr0 O7 2.032182 1_655
Cr0 O7 2.032182 1_565
Cr0 O4 2.032384 1_565
Cr0 O4 2.032384 1_655
Cr0 O0 2.057190 1_555
Cr0 O5 2.059140 1_555
Cr1 O2 2.032182 1_545
Cr1 O2 2.032182 1_455
Cr1 O3 2.032384 1_545
Cr1 O3 2.032384 1_455
Cr1 O6 2.057190 1_555
Cr1 O1 2.059140 1_555
O0 V0 2.045384 1_565
O0 V0 2.045384 1_655
O1 V1 2.046539 1_546
O1 V1 2.046539 1_456
O2 V1 2.089117 1_556
O3 V1 2.087233 1_555
O4 V0 2.087233 1_555
O5 V0 2.046539 1_654
O5 V0 2.046539 1_564
O6 V1 2.045384 1_455
O6 V1 2.045384 1_545
O7 V0 2.089117 1_554
