# generated using pymatgen
data_CaAsO5
_symmetry_space_group_name_H-M   'P 1'
_cell_length_a   6.65654000
_cell_length_b   8.62790300
_cell_length_c   13.90677800
_cell_angle_alpha   90.00000000
_cell_angle_beta   90.00000000
_cell_angle_gamma   90.00000000
_symmetry_Int_Tables_number   1
_chemical_formula_structural   CaAsO5
_chemical_formula_sum   'Ca8 As8 O40'
_cell_volume   798.69381593
_cell_formula_units_Z   8
loop_
 _symmetry_equiv_pos_site_id
 _symmetry_equiv_pos_as_xyz
  1  'x, y, z'
loop_
 _atom_site_type_symbol
 _atom_site_label
 _atom_site_symmetry_multiplicity
 _atom_site_fract_x
 _atom_site_fract_y
 _atom_site_fract_z
 _atom_site_occupancy
  Ca  Ca0  1  0.86230400  0.18819500  0.44472500  1
  Ca  Ca1  1  0.63769600  0.31180500  0.94472500  1
  Ca  Ca2  1  0.36230400  0.31180500  0.55527500  1
  Ca  Ca3  1  0.13769600  0.18819500  0.05527500  1
  Ca  Ca4  1  0.13769600  0.81180500  0.55527500  1
  Ca  Ca5  1  0.36230400  0.68819500  0.05527500  1
  Ca  Ca6  1  0.63769600  0.68819500  0.44472500  1
  Ca  Ca7  1  0.86230400  0.81180500  0.94472500  1
  As  As0  1  0.36009300  0.05380500  0.38256700  1
  As  As1  1  0.13990700  0.44619500  0.88256700  1
  As  As2  1  0.86009300  0.44619500  0.61743300  1
  As  As3  1  0.63990700  0.05380500  0.11743300  1
  As  As4  1  0.63990700  0.94619500  0.61743300  1
  As  As5  1  0.86009300  0.55380500  0.11743300  1
  As  As6  1  0.13990700  0.55380500  0.38256700  1
  As  As7  1  0.36009300  0.94619500  0.88256700  1
  O  O0  1  0.22366300  0.11429800  0.26931000  1
  O  O1  1  0.27633700  0.38570200  0.76931000  1
  O  O2  1  0.72366300  0.38570200  0.73069000  1
  O  O3  1  0.77633700  0.11429800  0.23069000  1
  O  O4  1  0.77633700  0.88570200  0.73069000  1
  O  O5  1  0.72366300  0.61429800  0.23069000  1
  O  O6  1  0.27633700  0.61429800  0.26931000  1
  O  O7  1  0.22366300  0.88570200  0.76931000  1
  O  O8  1  0.51452400  0.20639700  0.40600300  1
  O  O9  1  0.98547600  0.29360300  0.90600300  1
  O  O10  1  0.01452400  0.29360300  0.59399700  1
  O  O11  1  0.48547600  0.20639700  0.09399700  1
  O  O12  1  0.48547600  0.79360300  0.59399700  1
  O  O13  1  0.01452400  0.70639700  0.09399700  1
  O  O14  1  0.98547600  0.70639700  0.40600300  1
  O  O15  1  0.51452400  0.79360300  0.90600300  1
  O  O16  1  0.46543800  0.87929200  0.36841700  1
  O  O17  1  0.03456200  0.62070800  0.86841700  1
  O  O18  1  0.96543800  0.62070800  0.63158300  1
  O  O19  1  0.53456200  0.87929200  0.13158300  1
  O  O20  1  0.53456200  0.12070800  0.63158300  1
  O  O21  1  0.96543800  0.37929200  0.13158300  1
  O  O22  1  0.03456200  0.37929200  0.36841700  1
  O  O23  1  0.46543800  0.12070800  0.86841700  1
  O  O24  1  0.17944100  0.05821400  0.47084400  1
  O  O25  1  0.32055900  0.44178600  0.97084400  1
  O  O26  1  0.67944100  0.44178600  0.52915600  1
  O  O27  1  0.82055900  0.05821400  0.02915600  1
  O  O28  1  0.82055900  0.94178600  0.52915600  1
  O  O29  1  0.67944100  0.55821400  0.02915600  1
  O  O30  1  0.32055900  0.55821400  0.47084400  1
  O  O31  1  0.17944100  0.94178600  0.97084400  1
  O  O32  1  0.89878600  0.99091500  0.27098000  1
  O  O33  1  0.60121400  0.50908500  0.77098000  1
  O  O34  1  0.39878600  0.50908500  0.72902000  1
  O  O35  1  0.10121400  0.99091500  0.22902000  1
  O  O36  1  0.10121400  0.00908500  0.72902000  1
  O  O37  1  0.39878600  0.49091500  0.22902000  1
  O  O38  1  0.60121400  0.49091500  0.27098000  1
  O  O39  1  0.89878600  0.00908500  0.77098000  1
loop_
_geom_bond_atom_site_label_1
_geom_bond_atom_site_label_2
_geom_bond_distance
_geom_bond_site_symmetry_2
Ca0 O22 2.271423 1_655
Ca0 O8 2.382000 1_555
Ca0 O24 2.417868 1_655
Ca0 O28 2.444529 1_545
Ca0 O10 2.482564 1_655
Ca0 O26 2.765408 1_555
Ca0 O32 2.965526 1_545
Ca1 O23 2.271423 1_555
Ca1 O9 2.382000 1_555
Ca1 O25 2.417868 1_555
Ca1 O29 2.444529 1_556
Ca1 O11 2.482564 1_556
Ca1 O27 2.765408 1_556
Ca1 O33 2.965526 1_555
Ca2 O20 2.271423 1_555
Ca2 O10 2.382000 1_555
Ca2 O26 2.417868 1_555
Ca2 O30 2.444529 1_555
Ca2 O8 2.482564 1_555
Ca2 O24 2.765408 1_555
Ca2 O34 2.965526 1_555
Ca3 O21 2.271423 1_455
Ca3 O11 2.382000 1_555
Ca3 O27 2.417868 1_455
Ca3 O31 2.444529 1_544
Ca3 O9 2.482564 1_454
Ca3 O25 2.765408 1_554
Ca3 O35 2.965526 1_545
Ca4 O18 2.271423 1_455
Ca4 O12 2.382000 1_555
Ca4 O28 2.417868 1_455
Ca4 O24 2.444529 1_565
Ca4 O14 2.482564 1_455
Ca4 O30 2.765408 1_555
Ca4 O36 2.965526 1_565
Ca5 O19 2.271423 1_555
Ca5 O13 2.382000 1_555
Ca5 O29 2.417868 1_555
Ca5 O25 2.444529 1_554
Ca5 O15 2.482564 1_554
Ca5 O31 2.765408 1_554
Ca5 O37 2.965526 1_555
Ca6 O16 2.271423 1_555
Ca6 O14 2.382000 1_555
Ca6 O30 2.417868 1_555
Ca6 O26 2.444529 1_555
Ca6 O12 2.482564 1_555
Ca6 O28 2.765408 1_555
Ca6 O38 2.965526 1_555
Ca7 O17 2.271423 1_655
Ca7 O15 2.382000 1_555
Ca7 O31 2.417868 1_655
Ca7 O27 2.444529 1_566
Ca7 O13 2.482564 1_656
Ca7 O29 2.765408 1_556
Ca7 O39 2.965526 1_565
As0 O16 1.672581 1_545
As0 O8 1.701840 1_555
As0 O24 1.718900 1_555
As0 O0 1.891534 1_555
As1 O17 1.672581 1_555
As1 O9 1.701840 1_455
As1 O25 1.718900 1_555
As1 O1 1.891534 1_555
As2 O18 1.672581 1_555
As2 O10 1.701840 1_655
As2 O26 1.718900 1_555
As2 O2 1.891534 1_555
As3 O19 1.672581 1_545
As3 O11 1.701840 1_555
As3 O27 1.718900 1_555
As3 O3 1.891534 1_555
As4 O20 1.672581 1_565
As4 O12 1.701840 1_555
As4 O28 1.718900 1_555
As4 O4 1.891534 1_555
As5 O21 1.672581 1_555
As5 O13 1.701840 1_655
As5 O29 1.718900 1_555
As5 O5 1.891534 1_555
As6 O22 1.672581 1_555
As6 O14 1.701840 1_455
As6 O30 1.718900 1_555
As6 O6 1.891534 1_555
As7 O23 1.672581 1_565
As7 O15 1.701840 1_555
As7 O31 1.718900 1_555
As7 O7 1.891534 1_555
O0 O35 1.453116 1_545
O1 O34 1.453116 1_555
O2 O33 1.453116 1_555
O3 O32 1.453116 1_545
O32 O35 1.468394 1_655
O33 O34 1.468394 1_555
O36 O7 1.453116 1_545
O36 O39 1.468394 1_455
O37 O6 1.453116 1_555
O37 O38 1.468394 1_555
O38 O5 1.453116 1_555
O39 O4 1.453116 1_545
