# generated using pymatgen
data_K2ZnP4(HO2)8
_symmetry_space_group_name_H-M   'P 1'
_cell_length_a   6.91730200
_cell_length_b   7.43535743
_cell_length_c   7.60860800
_cell_angle_alpha   81.00826855
_cell_angle_beta   73.96000094
_cell_angle_gamma   83.54755853
_symmetry_Int_Tables_number   1
_chemical_formula_structural   K2ZnP4(HO2)8
_chemical_formula_sum   'K2 Zn1 P4 H8 O16'
_cell_volume   370.48564688
_cell_formula_units_Z   1
loop_
 _symmetry_equiv_pos_site_id
 _symmetry_equiv_pos_as_xyz
  1  'x, y, z'
loop_
 _atom_site_type_symbol
 _atom_site_label
 _atom_site_symmetry_multiplicity
 _atom_site_fract_x
 _atom_site_fract_y
 _atom_site_fract_z
 _atom_site_occupancy
  K  K0  1  0.10778700  0.73515700  0.29741600  1
  K  K1  1  0.89221300  0.26484300  0.70258400  1
  Zn  Zn0  1  0.50000000  0.50000000  0.50000000  1
  P  P0  1  0.32024800  0.27347700  0.24446900  1
  P  P1  1  0.25245600  0.81261100  0.75674600  1
  P  P2  1  0.74754400  0.18738900  0.24325400  1
  P  P3  1  0.67975200  0.72652300  0.75553100  1
  H  H0  1  0.04805000  0.27452100  0.07501300  1
  H  H1  1  0.24878400  0.04551400  0.46545000  1
  H  H2  1  0.39132400  0.18917900  0.71551400  1
  H  H3  1  0.37683200  0.33176000  0.85526200  1
  H  H4  1  0.62316800  0.66824000  0.14473800  1
  H  H5  1  0.60867600  0.81082100  0.28448600  1
  H  H6  1  0.75121600  0.95448600  0.53455000  1
  H  H7  1  0.95195000  0.72547900  0.92498700  1
  O  O0  1  0.23396200  0.35170800  0.08345500  1
  O  O1  1  0.23314600  0.08184900  0.33243200  1
  O  O2  1  0.29052900  0.39334000  0.39507900  1
  O  O3  1  0.25847900  0.01149100  0.66737200  1
  O  O4  1  0.07434600  0.78811700  0.93712500  1
  O  O5  1  0.25715200  0.67437600  0.62924500  1
  O  O6  1  0.55834800  0.23117300  0.15082800  1
  O  O7  1  0.54459500  0.70460800  0.26608400  1
  O  O8  1  0.45540500  0.29539200  0.73391600  1
  O  O9  1  0.44165200  0.76882700  0.84917200  1
  O  O10  1  0.74284800  0.32562400  0.37075500  1
  O  O11  1  0.92565400  0.21188300  0.06287500  1
  O  O12  1  0.74152100  0.98850900  0.33262800  1
  O  O13  1  0.70947100  0.60666000  0.60492100  1
  O  O14  1  0.76685400  0.91815100  0.66756800  1
  O  O15  1  0.76603800  0.64829200  0.91654500  1
loop_
_geom_bond_atom_site_label_1
_geom_bond_atom_site_label_2
_geom_bond_distance
_geom_bond_site_symmetry_2
K0 O4 2.777751 1_554
K0 O2 2.795733 1_555
K0 O1 2.883161 1_565
K0 O5 2.937020 1_555
K0 O7 2.950034 1_555
K0 O12 2.957921 1_455
K0 O13 3.210758 1_455
K1 O11 2.777751 1_556
K1 O13 2.795733 1_555
K1 O14 2.883161 1_545
K1 O10 2.937020 1_555
K1 O8 2.950034 1_555
K1 O3 2.957921 1_655
K1 O2 3.210758 1_655
H0 O11 1.042850 1_455
H0 O0 1.486733 1_555
H1 O1 1.038009 1_555
H1 O3 1.536388 1_555
H2 O8 0.993633 1_555
H3 O8 0.994314 1_555
H4 O7 0.994314 1_555
H5 O7 0.993633 1_555
H6 O14 1.038009 1_555
H6 O12 1.536388 1_555
H7 O4 1.042850 1_655
H7 O15 1.486733 1_555
O0 P0 1.516162 1_555
O1 P0 1.585275 1_555
O2 P0 1.515776 1_555
O2 Zn0 2.112141 1_555
O3 P1 1.527974 1_545
O4 P1 1.572434 1_555
O5 P1 1.511736 1_555
O5 Zn0 2.113316 1_555
O6 P0 1.619983 1_555
O6 P2 1.629281 1_555
O7 Zn0 2.129068 1_555
O8 Zn0 2.129068 1_555
O9 P3 1.619983 1_555
O9 P1 1.629281 1_555
O10 P2 1.511736 1_555
O10 Zn0 2.113316 1_555
O11 P2 1.572434 1_555
O12 P2 1.527974 1_565
O13 P3 1.515776 1_555
O13 Zn0 2.112141 1_555
O14 P3 1.585275 1_555
O15 P3 1.516162 1_555
