# generated using pymatgen
data_LiMo(PO3)4
_symmetry_space_group_name_H-M   'P 1'
_cell_length_a   13.21956500
_cell_length_b   7.61948700
_cell_length_c   12.20940054
_cell_angle_alpha   51.90000088
_cell_angle_beta   90.00000000
_cell_angle_gamma   90.00000000
_symmetry_Int_Tables_number   1
_chemical_formula_structural   LiMo(PO3)4
_chemical_formula_sum   'Li4 Mo4 P16 O48'
_cell_volume   967.77882923
_cell_formula_units_Z   4
loop_
 _symmetry_equiv_pos_site_id
 _symmetry_equiv_pos_as_xyz
  1  'x, y, z'
loop_
 _atom_site_type_symbol
 _atom_site_label
 _atom_site_symmetry_multiplicity
 _atom_site_fract_x
 _atom_site_fract_y
 _atom_site_fract_z
 _atom_site_occupancy
  Li  Li0  1  0.71300600  0.30456300  0.54792800  1
  Li  Li1  1  0.28699400  0.69543700  0.45207200  1
  Li  Li2  1  0.78699400  0.30456300  0.04792800  1
  Li  Li3  1  0.21300600  0.69543700  0.95207200  1
  Mo  Mo0  1  0.27627300  0.07143300  0.51569300  1
  Mo  Mo1  1  0.77627300  0.92856700  0.98430700  1
  Mo  Mo2  1  0.22372700  0.07143300  0.01569300  1
  Mo  Mo3  1  0.72372700  0.92856700  0.48430700  1
  P  P0  1  0.35787600  0.19049400  0.21618300  1
  P  P1  1  0.90866800  0.65810300  0.75781800  1
  P  P2  1  0.64212400  0.80950600  0.78381700  1
  P  P3  1  0.42200900  0.91823500  0.77386900  1
  P  P4  1  0.57799100  0.08176500  0.22613100  1
  P  P5  1  0.40866800  0.34189700  0.74218200  1
  P  P6  1  0.92200900  0.08176500  0.72613100  1
  P  P7  1  0.07799100  0.91823500  0.27386900  1
  P  P8  1  0.14212400  0.19049400  0.71618300  1
  P  P9  1  0.87100800  0.44465300  0.25933300  1
  P  P10  1  0.62899200  0.44465300  0.75933300  1
  P  P11  1  0.59133200  0.65810300  0.25781800  1
  P  P12  1  0.12899200  0.55534700  0.74066700  1
  P  P13  1  0.09133200  0.34189700  0.24218200  1
  P  P14  1  0.37100800  0.55534700  0.24066700  1
  P  P15  1  0.85787600  0.80950600  0.28381700  1
  O  O0  1  0.05337600  0.16946700  0.21597800  1
  O  O1  1  0.87208800  0.45329700  0.89157400  1
  O  O2  1  0.84706300  0.98256000  0.12677800  1
  O  O3  1  0.34775300  0.80164300  0.88950600  1
  O  O4  1  0.34933300  0.43782400  0.16970000  1
  O  O5  1  0.78222200  0.82080800  0.37034100  1
  O  O6  1  0.84775300  0.19835700  0.61049400  1
  O  O7  1  0.15066700  0.43782400  0.66970000  1
  O  O8  1  0.62791200  0.45329700  0.39157400  1
  O  O9  1  0.85389000  0.61181900  0.10413400  1
  O  O10  1  0.46763800  0.19219500  0.16248700  1
  O  O11  1  0.65224700  0.19835700  0.11049400  1
  O  O12  1  0.59516700  0.07555500  0.35080800  1
  O  O13  1  0.30994400  0.76507900  0.16559800  1
  O  O14  1  0.35389000  0.38818100  0.39586600  1
  O  O15  1  0.80994400  0.23492100  0.33440200  1
  O  O16  1  0.48771100  0.61303500  0.20742800  1
  O  O17  1  0.96763800  0.80780500  0.33751300  1
  O  O18  1  0.15293700  0.01744000  0.87322200  1
  O  O19  1  0.21777800  0.17919200  0.62965900  1
  O  O20  1  0.65066700  0.56217600  0.83030000  1
  O  O21  1  0.84933300  0.56217600  0.33030000  1
  O  O22  1  0.14611000  0.38818100  0.89586600  1
  O  O23  1  0.09516700  0.92444500  0.14919200  1
  O  O24  1  0.37208800  0.54670300  0.60842600  1
  O  O25  1  0.44662400  0.16946700  0.71597800  1
  O  O26  1  0.03236200  0.19219500  0.66248700  1
  O  O27  1  0.55337600  0.83053300  0.28402200  1
  O  O28  1  0.98771100  0.38696500  0.29257200  1
  O  O29  1  0.15224700  0.80164300  0.38950600  1
  O  O30  1  0.15658100  0.22487000  0.36940900  1
  O  O31  1  0.34341900  0.22487000  0.86940900  1
  O  O32  1  0.71777800  0.82080800  0.87034100  1
  O  O33  1  0.65293700  0.98256000  0.62677800  1
  O  O34  1  0.40483300  0.92444500  0.64919200  1
  O  O35  1  0.51228900  0.38696500  0.79257200  1
  O  O36  1  0.94662400  0.83053300  0.78402200  1
  O  O37  1  0.90483300  0.07555500  0.85080800  1
  O  O38  1  0.64611000  0.61181900  0.60413400  1
  O  O39  1  0.65658100  0.77513000  0.13059100  1
  O  O40  1  0.01228900  0.61303500  0.70742800  1
  O  O41  1  0.12791200  0.54670300  0.10842600  1
  O  O42  1  0.84341900  0.77513000  0.63059100  1
  O  O43  1  0.19005600  0.76507900  0.66559800  1
  O  O44  1  0.53236200  0.80780500  0.83751300  1
  O  O45  1  0.28222200  0.17919200  0.12965900  1
  O  O46  1  0.69005600  0.23492100  0.83440200  1
  O  O47  1  0.34706300  0.01744000  0.37322200  1
loop_
_geom_bond_atom_site_label_1
_geom_bond_atom_site_label_2
_geom_bond_distance
_geom_bond_site_symmetry_2
Li0 O8 1.877275 1_555
Li0 O6 1.910117 1_555
Li0 O33 2.159201 1_545
Li1 O24 1.877275 1_555
Li1 O29 1.910117 1_555
Li1 O47 2.159201 1_565
Li2 O1 1.877275 1_554
Li2 O11 1.910117 1_555
Li2 O2 2.159201 1_545
Li3 O41 1.877275 1_556
Li3 O3 1.910117 1_555
Li3 O18 2.159201 1_565
Mo0 O30 2.117432 1_555
Mo0 O34 2.132273 1_545
Mo0 O19 2.148992 1_555
Mo0 O14 2.158838 1_555
Mo0 O43 2.196661 1_545
Mo0 O47 2.225744 1_555
Mo1 O39 2.117432 1_556
Mo1 O37 2.132273 1_565
Mo1 O32 2.148992 1_555
Mo1 O9 2.158838 1_556
Mo1 O46 2.196661 1_565
Mo1 O2 2.225744 1_556
Mo2 O31 2.117432 1_554
Mo2 O23 2.132273 1_545
Mo2 O45 2.148992 1_555
Mo2 O22 2.158838 1_554
Mo2 O13 2.196661 1_545
Mo2 O18 2.225744 1_554
Mo3 O42 2.117432 1_555
Mo3 O12 2.132273 1_565
Mo3 O5 2.148992 1_555
Mo3 O38 2.158838 1_555
Mo3 O15 2.196661 1_565
Mo3 O33 2.225744 1_555
O0 P13 1.612141 1_555
O0 P7 1.612491 1_545
O1 P1 1.480215 1_555
O2 P15 1.521633 1_555
O3 P3 1.482670 1_555
O4 P0 1.602004 1_555
O4 P14 1.610038 1_555
O5 P15 1.495294 1_555
O6 P6 1.482670 1_555
O7 P8 1.602004 1_555
O7 P12 1.610038 1_555
O8 P11 1.480215 1_555
O9 P9 1.511842 1_555
O10 P0 1.588995 1_555
O10 P4 1.622677 1_555
O11 P4 1.482670 1_555
O12 P4 1.510661 1_555
O13 P14 1.495971 1_555
O14 P14 1.511842 1_555
O15 P9 1.495971 1_555
O16 P14 1.586784 1_555
O16 P11 1.622827 1_555
O17 P15 1.588995 1_555
O17 P7 1.622677 1_655
O18 P8 1.521633 1_555
O19 P8 1.495294 1_555
O20 P2 1.602004 1_555
O20 P10 1.610038 1_555
O21 P15 1.602004 1_555
O21 P9 1.610038 1_555
O22 P12 1.511842 1_555
O23 P7 1.510661 1_555
O24 P5 1.480215 1_555
O25 P5 1.612141 1_555
O25 P3 1.612491 1_545
O26 P8 1.588995 1_555
O26 P6 1.622677 1_455
O27 P11 1.612141 1_555
O27 P4 1.612491 1_565
O28 P9 1.586784 1_555
O28 P13 1.622827 1_655
O29 P7 1.482670 1_555
O30 P13 1.497576 1_555
O31 P5 1.497576 1_555
O32 P2 1.495294 1_555
O33 P2 1.521633 1_555
O34 P3 1.510661 1_555
O35 P10 1.586784 1_555
O35 P5 1.622827 1_555
O36 P1 1.612141 1_555
O36 P6 1.612491 1_565
O37 P6 1.510661 1_555
O38 P10 1.511842 1_555
O39 P11 1.497576 1_555
O40 P12 1.586784 1_555
O40 P1 1.622827 1_455
O41 P13 1.480215 1_555
O42 P1 1.497576 1_555
O43 P12 1.495971 1_555
O44 P2 1.588995 1_555
O44 P3 1.622677 1_555
O45 P0 1.495294 1_555
O46 P10 1.495971 1_555
O47 P0 1.521633 1_555
