# generated using pymatgen
data_Li6V3P8O29
_symmetry_space_group_name_H-M   'P 1'
_cell_length_a   9.79465900
_cell_length_b   9.82863705
_cell_length_c   13.96246206
_cell_angle_alpha   90.04214144
_cell_angle_beta   90.23147005
_cell_angle_gamma   119.87779090
_symmetry_Int_Tables_number   1
_chemical_formula_structural   Li6V3P8O29
_chemical_formula_sum   'Li12 V6 P16 O58'
_cell_volume   1165.47518526
_cell_formula_units_Z   2
loop_
 _symmetry_equiv_pos_site_id
 _symmetry_equiv_pos_as_xyz
  1  'x, y, z'
loop_
 _atom_site_type_symbol
 _atom_site_label
 _atom_site_symmetry_multiplicity
 _atom_site_fract_x
 _atom_site_fract_y
 _atom_site_fract_z
 _atom_site_occupancy
  Li  Li0  1  0.22677400  0.90908900  0.44195100  1
  Li  Li1  1  0.08932900  0.31685100  0.44223800  1
  Li  Li2  1  0.33343800  0.66976600  0.11290500  1
  Li  Li3  1  0.23343400  0.32654400  0.93611800  1
  Li  Li4  1  0.67048500  0.90029400  0.93781400  1
  Li  Li5  1  0.32280300  0.22939300  0.56236400  1
  Li  Li6  1  0.68049300  0.77132600  0.43820900  1
  Li  Li7  1  0.33220900  0.09660100  0.05892900  1
  Li  Li8  1  0.90425700  0.67524600  0.56317700  1
  Li  Li9  1  0.77160200  0.09423900  0.56159300  1
  Li  Li10  1  0.90002800  0.23055200  0.05688200  1
  Li  Li11  1  0.98785300  0.92951800  0.99046100  1
  V  V0  1  0.43562100  0.43621900  0.75015900  1
  V  V1  1  0.57041000  0.56517600  0.24523800  1
  V  V2  1  0.43191000  0.00138100  0.25302800  1
  V  V3  1  0.56768200  0.00015500  0.75089900  1
  V  V4  1  0.00261700  0.57151300  0.75518400  1
  V  V5  1  0.99819900  0.43726700  0.24799300  1
  P  P0  1  0.08773900  0.77907900  0.15876500  1
  P  P1  1  0.23096700  0.91228500  0.66054300  1
  P  P2  1  0.08691400  0.32111100  0.65895800  1
  P  P3  1  0.33547700  0.66699800  0.87287400  1
  P  P4  1  0.33441700  0.66552400  0.37043200  1
  P  P5  1  0.22603700  0.31618700  0.15737200  1
  P  P6  1  0.32018300  0.23482200  0.34286100  1
  P  P7  1  0.68209100  0.90935900  0.15725900  1
  P  P8  1  0.31525400  0.08899400  0.84378900  1
  P  P9  1  0.67917100  0.76726500  0.65581200  1
  P  P10  1  0.77584900  0.69094000  0.84035200  1
  P  P11  1  0.66752600  0.33363100  0.62983300  1
  P  P12  1  0.66321200  0.33008000  0.12684100  1
  P  P13  1  0.91469400  0.68398500  0.34401900  1
  P  P14  1  0.77068100  0.08826200  0.34178800  1
  P  P15  1  0.91378100  0.22906000  0.84206700  1
  O  O0  1  0.00237500  0.75707100  0.43567800  1
  O  O1  1  0.08352800  0.74848700  0.65895100  1
  O  O2  1  0.22549500  0.01489800  0.93385300  1
  O  O3  1  0.26040700  0.92182400  0.16170500  1
  O  O4  1  0.10149300  0.62794500  0.16695200  1
  O  O5  1  0.19591000  0.67881000  0.82942200  1
  O  O6  1  0.09381200  0.47803600  0.67820100  1
  O  O7  1  0.99985700  0.22420600  0.93140000  1
  O  O8  1  0.07748100  0.33233500  0.15488100  1
  O  O9  1  0.32633900  0.81315600  0.33307400  1
  O  O10  1  0.38118100  0.90127200  0.67955300  1
  O  O11  1  0.18409400  0.51588900  0.32531300  1
  O  O12  1  0.33702800  0.66368900  0.98106900  1
  O  O13  1  0.33232700  0.65895600  0.47700300  1
  O  O14  1  0.32287800  0.51027800  0.83435200  1
  O  O15  1  0.51796800  0.89423300  0.17110400  1
  O  O16  1  0.49310300  0.81078300  0.83619600  1
  O  O17  1  0.25252600  0.33910600  0.65730500  1
  O  O18  1  0.20762600  0.21274700  0.25126800  1
  O  O19  1  0.24011700  0.24359100  0.43280800  1
  O  O20  1  0.23564100  0.23229900  0.06939400  1
  O  O21  1  0.37230800  0.48222900  0.17014600  1
  O  O22  1  0.48442800  0.66886100  0.32714500  1
  O  O23  1  0.33961000  0.25761800  0.83649100  1
  O  O24  1  0.51840100  0.62074200  0.67669000  1
  O  O25  1  0.66354400  0.91631900  0.65673200  1
  O  O26  1  0.20744000  0.00018800  0.75080500  1
  O  O27  1  0.24675200  0.00315900  0.57021500  1
  O  O28  1  0.75453500  0.99759300  0.43178500  1
  O  O29  1  0.33268700  0.08327400  0.34260300  1
  O  O30  1  0.47920100  0.38126800  0.32608500  1
  O  O31  1  0.66281400  0.74602200  0.15852700  1
  O  O32  1  0.51267600  0.32676100  0.67044100  1
  O  O33  1  0.61832300  0.53827700  0.83438600  1
  O  O34  1  0.79395100  0.79869700  0.92184100  1
  O  O35  1  0.75137600  0.75131500  0.56466900  1
  O  O36  1  0.79590000  0.78903500  0.74250500  1
  O  O37  1  0.75151700  0.67032800  0.34100900  1
  O  O38  1  0.51229300  0.18592100  0.16775100  1
  O  O39  1  0.47071400  0.09004300  0.83170300  1
  O  O40  1  0.66588400  0.47933700  0.17208200  1
  O  O41  1  0.66539100  0.32789600  0.02050800  1
  O  O42  1  0.66094800  0.32548100  0.52268500  1
  O  O43  1  0.81356400  0.48779700  0.66790900  1
  O  O44  1  0.61879600  0.09650600  0.32160000  1
  O  O45  1  0.67501000  0.18687500  0.67124100  1
  O  O46  1  0.91527700  0.65944900  0.83706300  1
  O  O47  1  0.01205000  0.79847900  0.25658700  1
  O  O48  1  0.00151000  0.79030500  0.07519500  1
  O  O49  1  0.90088100  0.52328900  0.32447100  1
  O  O50  1  0.81504700  0.32985400  0.16907700  1
  O  O51  1  0.90641500  0.37863900  0.83062300  1
  O  O52  1  0.74650100  0.08129100  0.83976200  1
  O  O53  1  0.76655800  0.00102300  0.06868100  1
  O  O54  1  0.79018800  0.00003100  0.25014400  1
  O  O55  1  0.91615800  0.25281600  0.34276900  1
  O  O56  1  0.99633400  0.24248700  0.56874900  1
  O  O57  1  0.99983200  0.20764200  0.74929900  1
loop_
_geom_bond_atom_site_label_1
_geom_bond_atom_site_label_2
_geom_bond_distance
_geom_bond_site_symmetry_2
Li0 O0 1.948676 1_555
Li0 O27 1.978604 1_565
Li0 O29 2.043761 1_565
Li0 O9 2.253227 1_555
Li1 O19 1.943717 1_555
Li1 O56 1.958487 1_455
Li1 O55 2.029287 1_455
Li1 O11 2.358316 1_555
Li2 O12 1.842725 1_554
Li2 O15 2.192512 1_555
Li2 O21 2.209091 1_555
Li2 O4 2.232384 1_555
Li3 O7 1.989004 1_455
Li3 O23 2.046375 1_555
Li3 O20 2.084098 1_556
Li3 O14 2.117830 1_555
Li4 O34 1.927236 1_555
Li4 O53 2.063896 1_566
Li4 O16 2.064226 1_555
Li4 O52 2.070149 1_565
Li5 O27 1.965190 1_555
Li5 O19 2.012140 1_555
Li5 O17 2.034362 1_555
Li5 O32 2.203097 1_555
Li6 O35 1.940367 1_555
Li6 O28 1.968165 1_555
Li6 O37 2.001212 1_555
Li6 O22 2.270169 1_555
Li7 O2 1.983457 1_554
Li7 O20 1.988085 1_555
Li7 O3 2.076750 1_545
Li7 O38 2.150390 1_555
Li8 O35 1.979222 1_555
Li8 O0 1.996340 1_655
Li8 O1 2.027282 1_655
Li8 O43 2.169262 1_555
Li9 O56 1.944429 1_555
Li9 O28 2.012959 1_545
Li9 O25 2.028191 1_545
Li9 O45 2.221656 1_555
Li10 O53 1.972179 1_555
Li10 O7 2.025844 1_554
Li10 O8 2.034806 1_655
Li10 O50 2.217443 1_555
Li11 O48 1.863662 1_656
Li11 O34 1.930992 1_555
Li11 O2 2.194660 1_665
O0 P13 1.505503 1_455
O1 P1 1.536607 1_555
O1 V4 2.024268 1_555
O2 P8 1.502338 1_555
O3 P0 1.570242 1_555
O3 V2 1.931745 1_565
O4 P0 1.561169 1_555
O4 V5 1.984823 1_455
O5 P3 1.549774 1_555
O5 V4 1.940171 1_555
O6 P2 1.533312 1_555
O6 V4 1.902952 1_555
O7 P15 1.516744 1_555
O8 P5 1.540541 1_555
O8 V5 2.039844 1_455
O9 P4 1.580811 1_555
O9 V2 1.961458 1_565
O10 P1 1.549978 1_555
O10 V3 1.867852 1_565
O11 P4 1.600447 1_555
O11 V5 1.912838 1_455
O12 P3 1.511220 1_555
O13 P4 1.489222 1_555
O14 P3 1.576721 1_555
O14 V0 1.985253 1_555
O15 P7 1.551795 1_555
O15 V2 2.004593 1_565
O16 P3 1.573755 1_555
O16 V3 2.017919 1_565
O17 P2 1.541926 1_555
O17 V0 2.020393 1_555
O18 P5 1.614351 1_555
O18 P6 1.627227 1_555
O19 P6 1.508246 1_555
O20 P5 1.508083 1_555
O21 P5 1.554270 1_555
O21 V1 1.983717 1_555
O22 P4 1.576204 1_555
O22 V1 1.979084 1_555
O23 P8 1.555833 1_555
O23 V0 1.945866 1_555
O24 P9 1.543870 1_555
O24 V0 1.882359 1_555
O25 P9 1.546999 1_555
O25 V3 2.017045 1_565
O26 P1 1.608399 1_545
O26 P8 1.622183 1_555
O27 P1 1.509282 1_545
O28 P14 1.503662 1_565
O29 P6 1.554155 1_555
O29 V2 1.986019 1_555
O30 P6 1.523945 1_555
O30 V1 1.934409 1_555
O31 P7 1.520291 1_555
O31 V1 1.963052 1_555
O32 P11 1.591035 1_555
O32 V0 1.944193 1_555
O33 P10 1.526817 1_555
O33 V0 1.945351 1_555
O34 P10 1.502400 1_555
O35 P9 1.503875 1_555
O36 P9 1.600892 1_555
O36 P10 1.627898 1_555
O37 P13 1.536208 1_555
O37 V1 2.038419 1_555
O38 P12 1.562124 1_555
O38 V2 1.978731 1_555
O39 P8 1.527602 1_555
O39 V3 1.949017 1_555
O40 P12 1.584935 1_555
O40 V1 1.849892 1_555
O41 P12 1.485203 1_555
O42 P11 1.497543 1_555
O43 P11 1.567772 1_555
O43 V4 2.013228 1_655
O44 P14 1.554316 1_555
O44 V2 1.849574 1_555
O45 P11 1.589471 1_555
O45 V3 1.949476 1_555
O46 P10 1.544188 1_555
O46 V4 1.878533 1_655
O47 P0 1.612481 1_555
O47 P13 1.615002 1_455
O48 P0 1.473801 1_555
O49 P13 1.540632 1_555
O49 V5 1.890366 1_555
O50 P12 1.598643 1_555
O50 V5 1.908458 1_555
O51 P15 1.515925 1_555
O51 V4 1.955067 1_655
O52 P15 1.556791 1_555
O52 V3 1.957669 1_555
O53 P7 1.514278 1_545
O54 P14 1.609739 1_555
O54 P7 1.626130 1_545
O55 P14 1.533003 1_555
O55 V5 2.060144 1_555
O56 P2 1.509042 1_655
O57 P15 1.617902 1_555
O57 P2 1.620311 1_655
