# generated using pymatgen
data_LiGePCO7
_symmetry_space_group_name_H-M   'P 1'
_cell_length_a   6.23256100
_cell_length_b   5.06550800
_cell_length_c   8.62290786
_cell_angle_alpha   85.45187306
_cell_angle_beta   90.00000000
_cell_angle_gamma   90.00000000
_symmetry_Int_Tables_number   1
_chemical_formula_structural   LiGePCO7
_chemical_formula_sum   'Li2 Ge2 P2 C2 O14'
_cell_volume   271.37733414
_cell_formula_units_Z   2
loop_
 _symmetry_equiv_pos_site_id
 _symmetry_equiv_pos_as_xyz
  1  'x, y, z'
loop_
 _atom_site_type_symbol
 _atom_site_label
 _atom_site_symmetry_multiplicity
 _atom_site_fract_x
 _atom_site_fract_y
 _atom_site_fract_z
 _atom_site_occupancy
  Li  Li0  1  0.47490100  0.77186000  0.81666900  1
  Li  Li1  1  0.97490100  0.22814000  0.18333100  1
  Ge  Ge0  1  0.24851500  0.21120200  0.66266700  1
  Ge  Ge1  1  0.74851500  0.78879800  0.33733300  1
  P  P0  1  0.75421900  0.26525100  0.56893300  1
  P  P1  1  0.25421900  0.73474900  0.43106700  1
  C  C0  1  0.25329000  0.27473800  0.93431000  1
  C  C1  1  0.75329000  0.72526200  0.06569000  1
  O  O0  1  0.73076400  0.68614500  0.92784200  1
  O  O1  1  0.25519100  0.03899300  0.87383300  1
  O  O2  1  0.27100100  0.46770100  0.81724500  1
  O  O3  1  0.94846900  0.19607700  0.67352500  1
  O  O4  1  0.55863400  0.17959500  0.66969500  1
  O  O5  1  0.25980000  0.87349400  0.58488700  1
  O  O6  1  0.74736600  0.57067600  0.52282400  1
  O  O7  1  0.24736600  0.42932400  0.47717600  1
  O  O8  1  0.75980000  0.12650600  0.41511300  1
  O  O9  1  0.05863400  0.82040500  0.33030500  1
  O  O10  1  0.44846900  0.80392300  0.32647500  1
  O  O11  1  0.77100100  0.53229900  0.18275500  1
  O  O12  1  0.75519100  0.96100700  0.12616700  1
  O  O13  1  0.23076400  0.31385500  0.07215800  1
loop_
_geom_bond_atom_site_label_1
_geom_bond_atom_site_label_2
_geom_bond_distance
_geom_bond_site_symmetry_2
Li0 O0 1.893278 1_555
Li0 O2 1.996900 1_555
Li0 O1 2.013688 1_565
Li0 O4 2.393574 1_565
Li0 O5 2.427693 1_555
Li1 O13 1.893278 1_655
Li1 O11 1.996900 1_555
Li1 O12 2.013688 1_545
Li1 O9 2.393574 1_645
Li1 O8 2.427693 1_555
Ge0 O7 1.870532 1_555
Ge0 O3 1.873661 1_455
Ge0 O5 1.887616 1_545
Ge0 O2 1.938847 1_555
Ge0 O4 1.940005 1_555
Ge0 O1 1.956100 1_555
Ge1 O6 1.870532 1_555
Ge1 O10 1.873661 1_555
Ge1 O8 1.887616 1_565
Ge1 O11 1.938847 1_555
Ge1 O9 1.940005 1_655
Ge1 O12 1.956100 1_555
C0 O13 1.228502 1_556
C0 O1 1.340481 1_555
C0 O2 1.352810 1_555
C1 O0 1.228502 1_554
C1 O12 1.340481 1_555
C1 O11 1.352810 1_555
O3 P0 1.533557 1_555
O4 P0 1.539267 1_555
O5 P1 1.549926 1_555
O6 P0 1.567153 1_555
O7 P1 1.567153 1_555
O8 P0 1.549926 1_555
O9 P1 1.539267 1_555
O10 P1 1.533557 1_555
