# generated using pymatgen
data_Li5Ni3(SnO5)2
_symmetry_space_group_name_H-M   'P 1'
_cell_length_a   5.22947132
_cell_length_b   10.38816832
_cell_length_c   8.11575092
_cell_angle_alpha   69.81162483
_cell_angle_beta   77.55645324
_cell_angle_gamma   98.48912828
_symmetry_Int_Tables_number   1
_chemical_formula_structural   Li5Ni3(SnO5)2
_chemical_formula_sum   'Li10 Ni6 Sn4 O20'
_cell_volume   392.04648877
_cell_formula_units_Z   2
loop_
 _symmetry_equiv_pos_site_id
 _symmetry_equiv_pos_as_xyz
  1  'x, y, z'
loop_
 _atom_site_type_symbol
 _atom_site_label
 _atom_site_symmetry_multiplicity
 _atom_site_fract_x
 _atom_site_fract_y
 _atom_site_fract_z
 _atom_site_occupancy
  Li  Li0  1  0.99992800  0.00004500  0.50002600  1
  Li  Li1  1  0.49992700  0.50004200  0.99999200  1
  Li  Li2  1  0.59907500  0.08821900  0.31284600  1
  Li  Li3  1  0.09900300  0.58819500  0.81290800  1
  Li  Li4  1  0.40098300  0.91190100  0.68702300  1
  Li  Li5  1  0.90094000  0.41188000  0.18706100  1
  Li  Li6  1  0.69053300  0.18968700  0.60670900  1
  Li  Li7  1  0.19057500  0.68969100  0.10667700  1
  Li  Li8  1  0.30943200  0.81040000  0.39330000  1
  Li  Li9  1  0.80946500  0.31040500  0.89326300  1
  Ni  Ni0  1  0.00044600  0.50003500  0.50010200  1
  Ni  Ni1  1  0.09624700  0.09974300  0.80015800  1
  Ni  Ni2  1  0.90337200  0.89977600  0.20018500  1
  Ni  Ni3  1  0.50008200  0.00001100  0.99996200  1
  Ni  Ni4  1  0.59635200  0.59990700  0.30003100  1
  Ni  Ni5  1  0.40378900  0.40008600  0.69976200  1
  Sn  Sn0  1  0.30622000  0.29713800  0.40178100  1
  Sn  Sn1  1  0.80622600  0.79715100  0.90180000  1
  Sn  Sn2  1  0.69368700  0.70275900  0.59823300  1
  Sn  Sn3  1  0.19371000  0.20277600  0.09819200  1
  O  O0  1  0.63774600  0.40244200  0.45413000  1
  O  O1  1  0.13766400  0.90242200  0.95427500  1
  O  O2  1  0.36236300  0.59756800  0.54573800  1
  O  O3  1  0.86231300  0.09752700  0.04588200  1
  O  O4  1  0.06121900  0.30552900  0.64099100  1
  O  O5  1  0.56118600  0.80552200  0.14101400  1
  O  O6  1  0.93884200  0.69444700  0.35905000  1
  O  O7  1  0.43884200  0.19443400  0.85905000  1
  O  O8  1  0.96823100  0.20212800  0.34344000  1
  O  O9  1  0.46824000  0.70212700  0.84344500  1
  O  O10  1  0.03170000  0.79792900  0.65648100  1
  O  O11  1  0.53173000  0.29792100  0.15648200  1
  O  O12  1  0.25979400  0.00210200  0.22565500  1
  O  O13  1  0.75984600  0.50208700  0.72558900  1
  O  O14  1  0.74015200  0.99795100  0.77447500  1
  O  O15  1  0.24021800  0.49793900  0.27440800  1
  O  O16  1  0.33716700  0.10296100  0.56045700  1
  O  O17  1  0.83725000  0.60298900  0.06035200  1
  O  O18  1  0.66269600  0.89705200  0.43960800  1
  O  O19  1  0.16281000  0.39707900  0.93946900  1
loop_
_geom_bond_atom_site_label_1
_geom_bond_atom_site_label_2
_geom_bond_distance
_geom_bond_site_symmetry_2
Li0 O8 2.097989 1_555
Li0 O10 2.098110 1_645
Li0 O16 2.161419 1_655
Li0 O18 2.161692 1_545
Li0 O12 2.336674 1_655
Li0 O14 2.336864 1_545
Li1 O9 2.097899 1_555
Li1 O11 2.098288 1_556
Li1 O19 2.161563 1_555
Li1 O17 2.161582 1_556
Li1 O15 2.336474 1_556
Li1 O13 2.337042 1_555
Li2 O18 2.011273 1_545
Li2 O8 2.218913 1_555
Li2 O12 2.226747 1_555
Li2 O11 2.234051 1_555
Li2 O16 2.241841 1_555
Li2 O3 2.264804 1_555
Li3 O19 2.010904 1_555
Li3 O9 2.219140 1_555
Li3 O13 2.226840 1_455
Li3 O10 2.234360 1_555
Li3 O17 2.240679 1_456
Li3 O2 2.266157 1_555
Li4 O16 2.010446 1_565
Li4 O10 2.219540 1_555
Li4 O14 2.227332 1_555
Li4 O9 2.234581 1_555
Li4 O18 2.240671 1_555
Li4 O1 2.266197 1_555
Li5 O17 2.010833 1_555
Li5 O11 2.219314 1_555
Li5 O15 2.227293 1_655
Li5 O8 2.234380 1_555
Li5 O19 2.241921 1_654
Li5 O0 2.264895 1_555
Li6 O14 2.078796 1_545
Li6 O16 2.099568 1_555
Li6 O7 2.203658 1_555
Li6 O0 2.220975 1_555
Li6 O4 2.249019 1_655
Li6 O8 2.260002 1_555
Li7 O15 2.078873 1_555
Li7 O17 2.099600 1_455
Li7 O6 2.203996 1_455
Li7 O1 2.220679 1_554
Li7 O5 2.248871 1_555
Li7 O9 2.259710 1_554
Li8 O12 2.078227 1_565
Li8 O18 2.099069 1_555
Li8 O5 2.204016 1_555
Li8 O2 2.221652 1_555
Li8 O6 2.249004 1_455
Li8 O10 2.259403 1_555
Li9 O13 2.078113 1_555
Li9 O19 2.099086 1_655
Li9 O4 2.203915 1_655
Li9 O3 2.222228 1_556
Li9 O7 2.249080 1_555
Li9 O11 2.259603 1_556
Ni0 O15 1.993374 1_555
Ni0 O13 1.993739 1_455
Ni0 O4 2.059767 1_555
Ni0 O6 2.061129 1_455
Ni0 O2 2.177322 1_555
Ni0 O0 2.182410 1_455
Ni1 O16 2.063800 1_555
Ni1 O1 2.071537 1_545
Ni1 O14 2.089829 1_445
Ni1 O3 2.093492 1_456
Ni1 O7 2.139871 1_555
Ni1 O4 2.140963 1_555
Ni2 O18 2.063520 1_555
Ni2 O3 2.074814 1_565
Ni2 O12 2.092728 1_665
Ni2 O1 2.093641 1_654
Ni2 O6 2.137312 1_555
Ni2 O5 2.137523 1_555
Ni3 O14 1.992570 1_545
Ni3 O12 1.994515 1_556
Ni3 O7 2.060137 1_555
Ni3 O5 2.060680 1_546
Ni3 O3 2.179821 1_556
Ni3 O1 2.179960 1_545
Ni4 O17 2.064174 1_555
Ni4 O0 2.072641 1_555
Ni4 O15 2.090521 1_555
Ni4 O2 2.092971 1_555
Ni4 O6 2.139354 1_555
Ni4 O5 2.139461 1_555
Ni5 O19 2.064840 1_555
Ni5 O2 2.072673 1_555
Ni5 O13 2.091096 1_555
Ni5 O0 2.092336 1_555
Ni5 O4 2.138637 1_555
Ni5 O7 2.140166 1_555
O0 Sn0 2.112145 1_555
O1 Sn1 2.112192 1_455
O2 Sn2 2.111425 1_555
O3 Sn3 2.111171 1_655
O4 Sn0 2.120353 1_555
O5 Sn1 2.120370 1_554
O6 Sn2 2.120144 1_555
O7 Sn3 2.119967 1_556
O8 Sn3 2.080620 1_655
O8 Sn0 2.119089 1_655
O9 Sn2 2.080384 1_555
O9 Sn1 2.119202 1_555
O10 Sn1 2.080536 1_455
O10 Sn2 2.119464 1_455
O11 Sn0 2.080448 1_555
O11 Sn3 2.119577 1_555
O12 Sn3 2.100850 1_555
O13 Sn2 2.100835 1_555
O14 Sn1 2.101729 1_555
O15 Sn0 2.101653 1_555
O16 Sn0 2.036344 1_555
O17 Sn1 2.036058 1_554
O18 Sn2 2.037245 1_555
O19 Sn3 2.037399 1_556
