# generated using pymatgen
data_Rb2Fe4O7
_symmetry_space_group_name_H-M   'P 1'
_cell_length_a   5.36584021
_cell_length_b   5.36584021
_cell_length_c   7.05632000
_cell_angle_alpha   90.00000000
_cell_angle_beta   90.00000000
_cell_angle_gamma   120.00000264
_symmetry_Int_Tables_number   1
_chemical_formula_structural   Rb2Fe4O7
_chemical_formula_sum   'Rb2 Fe4 O7'
_cell_volume   175.94801015
_cell_formula_units_Z   1
loop_
 _symmetry_equiv_pos_site_id
 _symmetry_equiv_pos_as_xyz
  1  'x, y, z'
loop_
 _atom_site_type_symbol
 _atom_site_label
 _atom_site_symmetry_multiplicity
 _atom_site_fract_x
 _atom_site_fract_y
 _atom_site_fract_z
 _atom_site_occupancy
  Rb  Rb0  1  0.33333300  0.66666700  0.00000000  1
  Rb  Rb1  1  0.66666700  0.33333300  0.00000000  1
  Fe  Fe0  1  0.00000000  0.00000000  0.27292300  1
  Fe  Fe1  1  0.00000000  0.00000000  0.72707700  1
  Fe  Fe2  1  0.33333300  0.66666700  0.50000000  1
  Fe  Fe3  1  0.66666700  0.33333300  0.50000000  1
  O  O0  1  0.00000000  0.65044200  0.33946200  1
  O  O1  1  0.00000000  0.34955800  0.66053800  1
  O  O2  1  0.00000000  0.00000000  0.00000000  1
  O  O3  1  0.34955800  0.34955800  0.33946200  1
  O  O4  1  0.65044200  0.65044200  0.66053800  1
  O  O5  1  0.34955800  0.00000000  0.66053800  1
  O  O6  1  0.65044200  0.00000000  0.33946200  1
loop_
_geom_bond_atom_site_label_1
_geom_bond_atom_site_label_2
_geom_bond_distance
_geom_bond_site_symmetry_2
Fe0 O2 1.925832 1_555
Fe0 O3 1.933545 1_555
Fe0 O0 1.933545 1_545
Fe0 O6 1.933545 1_455
Fe1 O2 1.925832 1_556
Fe1 O4 1.933545 1_445
Fe1 O1 1.933545 1_555
Fe1 O5 1.933545 1_555
Fe2 O0 2.081885 1_555
Fe2 O5 2.081885 1_565
Fe2 O6 2.081887 1_565
Fe2 O1 2.081887 1_555
Fe2 O4 2.081890 1_555
Fe2 O3 2.081890 1_555
Fe3 O1 2.081885 1_655
Fe3 O6 2.081885 1_555
Fe3 O5 2.081887 1_555
Fe3 O0 2.081887 1_655
Fe3 O4 2.081890 1_555
Fe3 O3 2.081890 1_555
O0 Rb0 2.964575 1_555
O0 Rb1 2.964577 1_455
O1 Rb1 2.964575 1_456
O1 Rb0 2.964577 1_556
O2 Rb0 3.097966 1_545
O2 Rb1 3.097966 1_455
O2 Rb0 3.097971 1_445
O2 Rb1 3.097971 1_445
O2 Rb0 3.097971 1_555
O2 Rb1 3.097971 1_555
O3 Rb0 2.964578 1_555
O3 Rb1 2.964578 1_555
O4 Rb0 2.964578 1_556
O4 Rb1 2.964578 1_556
O5 Rb0 2.964575 1_546
O5 Rb1 2.964577 1_556
O6 Rb1 2.964575 1_555
O6 Rb0 2.964577 1_545
