# generated using pymatgen
data_Ca9LaTi4Mn6O30
_symmetry_space_group_name_H-M   'P 1'
_cell_length_a   5.39542936
_cell_length_b   5.44179092
_cell_length_c   38.35644323
_cell_angle_alpha   90.05426059
_cell_angle_beta   90.00295788
_cell_angle_gamma   89.89619849
_symmetry_Int_Tables_number   1
_chemical_formula_structural   Ca9LaTi4Mn6O30
_chemical_formula_sum   'Ca18 La2 Ti8 Mn12 O60'
_cell_volume   1126.17344761
_cell_formula_units_Z   2
loop_
 _symmetry_equiv_pos_site_id
 _symmetry_equiv_pos_as_xyz
  1  'x, y, z'
loop_
 _atom_site_type_symbol
 _atom_site_label
 _atom_site_symmetry_multiplicity
 _atom_site_fract_x
 _atom_site_fract_y
 _atom_site_fract_z
 _atom_site_occupancy
  Ca  Ca0  1  0.01309100  0.96568900  0.15027300  1
  Ca  Ca1  1  0.01318100  0.96732300  0.34960800  1
  Ca  Ca2  1  0.01233500  0.96588700  0.55002800  1
  Ca  Ca3  1  0.01337200  0.96595300  0.74982700  1
  Ca  Ca4  1  0.49262000  0.45970500  0.34864500  1
  Ca  Ca5  1  0.49176900  0.45904500  0.15011000  1
  Ca  Ca6  1  0.49132100  0.46029000  0.55134000  1
  Ca  Ca7  1  0.49255900  0.45988600  0.75001900  1
  Ca  Ca8  1  0.49167100  0.46402300  0.94842500  1
  Ca  Ca9  1  0.50696300  0.53829500  0.05060200  1
  Ca  Ca10  1  0.50783900  0.54103200  0.24951600  1
  Ca  Ca11  1  0.50744100  0.54006000  0.65031300  1
  Ca  Ca12  1  0.50988600  0.53683500  0.84977700  1
  Ca  Ca13  1  0.98768800  0.03376800  0.05120600  1
  Ca  Ca14  1  0.98646000  0.03461100  0.24976800  1
  Ca  Ca15  1  0.98612400  0.03454700  0.64998900  1
  Ca  Ca16  1  0.98984000  0.03361000  0.45170400  1
  Ca  Ca17  1  0.98799600  0.03721700  0.84880800  1
  La  La0  1  0.00566100  0.97496600  0.94839900  1
  La  La1  1  0.50358500  0.52719500  0.45157800  1
  Ti  Ti0  1  0.99985500  0.49905600  0.00107300  1
  Ti  Ti1  1  0.99896300  0.49991900  0.10058900  1
  Ti  Ti2  1  0.99983100  0.49988700  0.19991200  1
  Ti  Ti3  1  0.00052600  0.50133100  0.29919000  1
  Ti  Ti4  1  0.99936000  0.49928400  0.39868200  1
  Ti  Ti5  1  0.00133000  0.50032700  0.60038500  1
  Ti  Ti6  1  0.99994400  0.49988700  0.70002700  1
  Ti  Ti7  1  0.99912200  0.50196100  0.79971000  1
  Mn  Mn0  1  0.99951400  0.50054100  0.50168000  1
  Mn  Mn1  1  0.00168300  0.49954800  0.89846900  1
  Mn  Mn2  1  0.49995800  0.99927800  0.10024600  1
  Mn  Mn3  1  0.49870500  0.99967300  0.00080900  1
  Mn  Mn4  1  0.49885600  0.00037200  0.29968700  1
  Mn  Mn5  1  0.50026700  0.00012000  0.19993600  1
  Mn  Mn6  1  0.50232700  0.99925700  0.39929200  1
  Mn  Mn7  1  0.50038300  0.00016800  0.50181500  1
  Mn  Mn8  1  0.49934900  0.00020200  0.60058500  1
  Mn  Mn9  1  0.50127400  0.00010800  0.89809600  1
  Mn  Mn10  1  0.50015900  0.00004000  0.70006100  1
  Mn  Mn11  1  0.49960700  0.99966400  0.79954000  1
  O  O0  1  0.07224200  0.48558500  0.04972700  1
  O  O1  1  0.07356700  0.48448300  0.24993600  1
  O  O2  1  0.05938600  0.48767200  0.45082800  1
  O  O3  1  0.07189100  0.48456000  0.64991800  1
  O  O4  1  0.07434900  0.48589100  0.85017600  1
  O  O5  1  0.21936200  0.21717400  0.19169800  1
  O  O6  1  0.22525100  0.22152500  0.39231000  1
  O  O7  1  0.21793000  0.21532000  0.59194700  1
  O  O8  1  0.21812600  0.21588100  0.10805700  1
  O  O9  1  0.21906600  0.21587800  0.79197000  1
  O  O10  1  0.21803800  0.21710900  0.30835800  1
  O  O11  1  0.22404200  0.21951000  0.99256600  1
  O  O12  1  0.22090600  0.22041400  0.50837200  1
  O  O13  1  0.22016300  0.21672800  0.70832200  1
  O  O14  1  0.22363800  0.22296700  0.90695800  1
  O  O15  1  0.28429100  0.71819200  0.10800600  1
  O  O16  1  0.28478600  0.71872100  0.19186900  1
  O  O17  1  0.28317700  0.71997000  0.30805300  1
  O  O18  1  0.28757000  0.71854200  0.39258400  1
  O  O19  1  0.28382100  0.72024500  0.59234700  1
  O  O20  1  0.28766800  0.71433000  0.50816300  1
  O  O21  1  0.28199900  0.72129100  0.99171700  1
  O  O22  1  0.28551000  0.71949500  0.70820100  1
  O  O23  1  0.28489500  0.71915400  0.79176700  1
  O  O24  1  0.28088400  0.72005600  0.90801700  1
  O  O25  1  0.41791800  0.97979600  0.05024100  1
  O  O26  1  0.41641500  0.98164200  0.24987300  1
  O  O27  1  0.41453100  0.98059400  0.65036400  1
  O  O28  1  0.42449300  0.99383800  0.45011600  1
  O  O29  1  0.41762200  0.97889300  0.84892800  1
  O  O30  1  0.58269000  0.01726500  0.34974500  1
  O  O31  1  0.58302600  0.01865200  0.15008400  1
  O  O32  1  0.58247500  0.01775200  0.55108800  1
  O  O33  1  0.58517600  0.01983700  0.74979800  1
  O  O34  1  0.56392800  0.01426400  0.94978600  1
  O  O35  1  0.72016600  0.27667600  0.00763700  1
  O  O36  1  0.71500100  0.28048600  0.09183500  1
  O  O37  1  0.71570300  0.28100400  0.20797900  1
  O  O38  1  0.71336800  0.28221000  0.29199500  1
  O  O39  1  0.72085400  0.27647100  0.40728300  1
  O  O40  1  0.71224000  0.28133200  0.60812000  1
  O  O41  1  0.72311600  0.27748700  0.49304000  1
  O  O42  1  0.71485100  0.28026800  0.69201500  1
  O  O43  1  0.71430600  0.28028800  0.80792200  1
  O  O44  1  0.72126900  0.27966000  0.89159400  1
  O  O45  1  0.77995200  0.78192700  0.09175500  1
  O  O46  1  0.78168600  0.78380100  0.00746000  1
  O  O47  1  0.78104600  0.78319100  0.20816100  1
  O  O48  1  0.77986600  0.78363700  0.29170000  1
  O  O49  1  0.78065400  0.78002600  0.49196600  1
  O  O50  1  0.78032900  0.78375500  0.69185300  1
  O  O51  1  0.77928200  0.78217900  0.40868300  1
  O  O52  1  0.77836000  0.78325900  0.60827600  1
  O  O53  1  0.77996400  0.78325300  0.80795300  1
  O  O54  1  0.78769000  0.78519800  0.89170800  1
  O  O55  1  0.92603100  0.51532800  0.14997400  1
  O  O56  1  0.92687400  0.51746900  0.35039100  1
  O  O57  1  0.92656800  0.51728600  0.54970400  1
  O  O58  1  0.92747500  0.51491400  0.75022800  1
  O  O59  1  0.93009800  0.50511200  0.94915200  1
loop_
_geom_bond_atom_site_label_1
_geom_bond_atom_site_label_2
_geom_bond_distance
_geom_bond_site_symmetry_2
Ca0 O31 2.337710 1_465
Ca0 O5 2.374307 1_565
Ca0 O8 2.389406 1_565
Ca0 O55 2.496231 1_455
Ca0 O16 2.548983 1_555
Ca0 O15 2.563652 1_555
Ca0 O47 2.737295 1_455
Ca0 O45 2.760480 1_455
Ca1 O30 2.338046 1_465
Ca1 O10 2.362707 1_565
Ca1 O6 2.430376 1_565
Ca1 O56 2.492945 1_455
Ca1 O17 2.542348 1_555
Ca1 O18 2.595860 1_555
Ca1 O48 2.741783 1_455
Ca1 O51 2.784107 1_455
Ca2 O32 2.336233 1_465
Ca2 O7 2.378925 1_565
Ca2 O12 2.397443 1_565
Ca2 O57 2.485508 1_455
Ca2 O19 2.562033 1_555
Ca2 O20 2.578382 1_555
Ca2 O49 2.746870 1_455
Ca2 O52 2.753535 1_455
Ca3 O33 2.328308 1_465
Ca3 O13 2.377264 1_565
Ca3 O9 2.386510 1_565
Ca3 O58 2.498718 1_455
Ca3 O22 2.548120 1_555
Ca3 O23 2.556255 1_555
Ca3 O50 2.740219 1_455
Ca3 O53 2.748475 1_455
Ca4 O56 2.365480 1_555
Ca4 O17 2.388565 1_555
Ca4 O30 2.455758 1_555
Ca4 O18 2.457312 1_555
Ca4 O10 2.515642 1_555
Ca4 O6 2.564597 1_555
Ca4 O38 2.658022 1_555
Ca4 O39 2.751148 1_555
Ca5 O55 2.363520 1_555
Ca5 O16 2.408262 1_555
Ca5 O15 2.418339 1_555
Ca5 O31 2.445708 1_555
Ca5 O5 2.539365 1_555
Ca5 O8 2.556438 1_555
Ca5 O37 2.706453 1_555
Ca5 O36 2.717160 1_555
Ca6 O57 2.370137 1_555
Ca6 O19 2.391388 1_555
Ca6 O20 2.420710 1_555
Ca6 O32 2.457044 1_555
Ca6 O7 2.527869 1_555
Ca6 O12 2.559582 1_555
Ca6 O40 2.666803 1_555
Ca6 O41 2.746950 1_555
Ca7 O58 2.366139 1_555
Ca7 O23 2.408386 1_555
Ca7 O22 2.411421 1_555
Ca7 O33 2.445358 1_555
Ca7 O13 2.543936 1_555
Ca7 O9 2.557569 1_555
Ca7 O43 2.705335 1_555
Ca7 O42 2.708436 1_555
Ca8 O24 2.373820 1_555
Ca8 O59 2.376609 1_555
Ca8 O21 2.446870 1_555
Ca8 O34 2.478251 1_555
Ca8 O14 2.518844 1_555
Ca8 O11 2.594912 1_555
Ca8 O44 2.698968 1_555
Ca8 O35 2.777944 1_556
Ca9 O0 2.363729 1_555
Ca9 O36 2.393276 1_555
Ca9 O25 2.449320 1_555
Ca9 O35 2.460846 1_555
Ca9 O45 2.534092 1_555
Ca9 O46 2.594577 1_555
Ca9 O15 2.691034 1_555
Ca9 O21 2.750615 1_554
Ca10 O1 2.363816 1_555
Ca10 O37 2.405943 1_555
Ca10 O38 2.422128 1_555
Ca10 O26 2.447071 1_555
Ca10 O47 2.537082 1_555
Ca10 O48 2.553006 1_555
Ca10 O16 2.696663 1_555
Ca10 O17 2.729576 1_555
Ca11 O3 2.369896 1_555
Ca11 O42 2.409948 1_555
Ca11 O40 2.410943 1_555
Ca11 O27 2.448254 1_555
Ca11 O50 2.543220 1_555
Ca11 O52 2.549357 1_555
Ca11 O22 2.703564 1_555
Ca11 O19 2.712947 1_555
Ca12 O4 2.366756 1_555
Ca12 O43 2.394407 1_555
Ca12 O44 2.414594 1_555
Ca12 O29 2.455917 1_555
Ca12 O53 2.550779 1_555
Ca12 O54 2.581270 1_555
Ca12 O23 2.721833 1_555
Ca12 O24 2.739078 1_555
Ca13 O25 2.339545 1_645
Ca13 O45 2.358647 1_545
Ca13 O46 2.429432 1_545
Ca13 O0 2.502168 1_655
Ca13 O36 2.526823 1_555
Ca13 O35 2.573026 1_555
Ca13 O8 2.698715 1_655
Ca13 O11 2.777794 1_654
Ca14 O26 2.337117 1_645
Ca14 O47 2.376612 1_545
Ca14 O48 2.388396 1_545
Ca14 O1 2.493652 1_655
Ca14 O37 2.549084 1_555
Ca14 O38 2.568806 1_555
Ca14 O5 2.745209 1_655
Ca14 O10 2.756409 1_655
Ca15 O27 2.329529 1_645
Ca15 O50 2.384055 1_545
Ca15 O52 2.384875 1_545
Ca15 O3 2.493042 1_655
Ca15 O42 2.552986 1_555
Ca15 O40 2.561815 1_555
Ca15 O7 2.738100 1_655
Ca15 O13 2.753830 1_655
Ca16 O28 2.355501 1_645
Ca16 O49 2.360690 1_545
Ca16 O51 2.426268 1_545
Ca16 O2 2.500169 1_655
Ca16 O41 2.517021 1_555
Ca16 O39 2.598650 1_555
Ca16 O12 2.704112 1_655
Ca16 O6 2.803268 1_655
Ca17 O29 2.339080 1_645
Ca17 O53 2.372087 1_545
Ca17 O54 2.401311 1_545
Ca17 O4 2.486979 1_655
Ca17 O43 2.527095 1_555
Ca17 O44 2.548368 1_555
Ca17 O9 2.694642 1_655
Ca17 O14 2.759180 1_655
La0 O34 2.393118 1_465
La0 O14 2.396062 1_565
La0 O11 2.455678 1_565
La0 O24 2.552866 1_555
La0 O59 2.590065 1_455
La0 O21 2.624099 1_555
La0 O54 2.679122 1_455
La0 O46 2.771951 1_456
La0 O59 2.912993 1_465
La0 O34 3.020521 1_565
La0 O44 3.138197 1_465
La0 O35 3.196126 1_466
La1 O41 2.403473 1_555
La1 O2 2.406832 1_555
La1 O39 2.472319 1_555
La1 O49 2.555529 1_555
La1 O28 2.574880 1_555
La1 O51 2.618603 1_555
La1 O20 2.663942 1_555
La1 O18 2.750032 1_555
La1 O28 2.934868 1_545
La1 O2 3.006236 1_655
La1 O12 3.142473 1_555
La1 O6 3.192420 1_555
Mn0 O57 1.885711 1_555
Mn0 O12 1.952079 1_655
Mn0 O41 1.952651 1_555
Mn0 O20 1.959190 1_655
Mn0 O49 1.959814 1_555
Mn0 O2 1.978241 1_655
Mn1 O4 1.894766 1_555
Mn1 O44 1.948410 1_455
Mn1 O14 1.949307 1_555
Mn1 O54 1.952140 1_455
Mn1 O24 1.961875 1_555
Mn1 O59 1.982228 1_455
Mn2 O45 1.944238 1_555
Mn2 O8 1.945312 1_565
Mn2 O15 1.946703 1_555
Mn2 O36 1.949207 1_565
Mn2 O31 1.966198 1_565
Mn2 O25 1.971204 1_555
Mn3 O11 1.929109 1_564
Mn3 O46 1.941708 1_555
Mn3 O35 1.942756 1_565
Mn3 O21 1.946531 1_554
Mn3 O25 1.948663 1_555
Mn3 O34 1.990150 1_564
Mn4 O48 1.943336 1_545
Mn4 O38 1.945805 1_555
Mn4 O10 1.946831 1_555
Mn4 O17 1.947527 1_545
Mn4 O26 1.964351 1_545
Mn4 O30 1.974677 1_555
Mn5 O47 1.944797 1_545
Mn5 O5 1.945819 1_555
Mn5 O37 1.946313 1_555
Mn5 O16 1.948807 1_545
Mn5 O31 1.966333 1_555
Mn5 O26 1.970835 1_545
Mn6 O18 1.935969 1_555
Mn6 O51 1.937127 1_555
Mn6 O6 1.939993 1_565
Mn6 O39 1.940444 1_565
Mn6 O30 1.951895 1_565
Mn6 O28 1.994426 1_555
Mn7 O12 1.940725 1_555
Mn7 O32 1.943431 1_555
Mn7 O20 1.950174 1_545
Mn7 O41 1.960219 1_555
Mn7 O49 1.963968 1_545
Mn7 O28 2.025075 1_545
Mn8 O52 1.934192 1_545
Mn8 O40 1.936192 1_555
Mn8 O19 1.943842 1_545
Mn8 O7 1.944184 1_555
Mn8 O32 1.953272 1_555
Mn8 O27 1.966485 1_545
Mn9 O29 1.942518 1_545
Mn9 O44 1.947466 1_555
Mn9 O54 1.951607 1_545
Mn9 O14 1.955224 1_555
Mn9 O24 1.972055 1_545
Mn9 O34 2.012666 1_555
Mn10 O50 1.939676 1_545
Mn10 O13 1.940604 1_555
Mn10 O42 1.941600 1_555
Mn10 O22 1.943397 1_545
Mn10 O27 1.964165 1_545
Mn10 O33 1.964985 1_555
Mn11 O9 1.937505 1_565
Mn11 O23 1.940765 1_555
Mn11 O53 1.942508 1_555
Mn11 O43 1.944918 1_565
Mn11 O29 1.948762 1_555
Mn11 O33 1.966229 1_565
O0 Ti0 1.908054 1_455
O0 Ti1 1.991993 1_455
O1 Ti3 1.931951 1_555
O1 Ti2 1.961372 1_455
O2 Ti4 2.027195 1_455
O3 Ti5 1.939606 1_555
O3 Ti6 1.962497 1_455
O4 Ti7 1.979752 1_455
O5 Ti2 1.965098 1_455
O6 Ti4 1.955112 1_455
O7 Ti5 1.966839 1_555
O8 Ti1 1.965604 1_455
O9 Ti7 1.977999 1_455
O10 Ti3 1.971686 1_555
O11 Ti0 1.968792 1_456
O13 Ti6 1.970177 1_455
O15 Ti1 1.966645 1_455
O16 Ti2 1.970898 1_455
O17 Ti3 1.965354 1_555
O18 Ti4 1.975777 1_455
O19 Ti5 1.964098 1_555
O21 Ti0 1.978948 1_456
O22 Ti6 1.976435 1_455
O23 Ti7 1.968361 1_455
O35 Ti0 1.952507 1_555
O36 Ti1 1.972758 1_555
O37 Ti2 1.967721 1_555
O38 Ti3 1.975978 1_655
O39 Ti4 1.960712 1_555
O40 Ti5 1.987096 1_655
O42 Ti6 1.973506 1_555
O43 Ti7 1.980736 1_555
O45 Ti1 1.964838 1_555
O46 Ti0 1.959423 1_555
O47 Ti2 1.965413 1_555
O48 Ti3 1.963211 1_655
O50 Ti6 1.970489 1_555
O51 Ti4 1.979731 1_555
O52 Ti5 1.975310 1_655
O53 Ti7 1.958025 1_555
O55 Ti1 1.936401 1_555
O55 Ti2 1.958224 1_555
O56 Ti4 1.895729 1_555
O56 Ti3 2.005520 1_655
O57 Ti5 1.987527 1_655
O58 Ti7 1.938223 1_555
O58 Ti6 1.966445 1_555
O59 Ti0 2.027026 1_556
