# generated using pymatgen
data_LiNiOF2
_symmetry_space_group_name_H-M   'P 1'
_cell_length_a   4.90999500
_cell_length_b   4.95966400
_cell_length_c   9.35770293
_cell_angle_alpha   59.90606849
_cell_angle_beta   90.00000000
_cell_angle_gamma   90.00000000
_symmetry_Int_Tables_number   1
_chemical_formula_structural   LiNiOF2
_chemical_formula_sum   'Li4 Ni4 O4 F8'
_cell_volume   197.16115146
_cell_formula_units_Z   4
loop_
 _symmetry_equiv_pos_site_id
 _symmetry_equiv_pos_as_xyz
  1  'x, y, z'
loop_
 _atom_site_type_symbol
 _atom_site_label
 _atom_site_symmetry_multiplicity
 _atom_site_fract_x
 _atom_site_fract_y
 _atom_site_fract_z
 _atom_site_occupancy
  Li  Li0  1  0.96823400  0.27688000  0.75621900  1
  Li  Li1  1  0.46823400  0.72312000  0.74378100  1
  Li  Li2  1  0.53176600  0.27688000  0.25621900  1
  Li  Li3  1  0.03176600  0.72312000  0.24378100  1
  Ni  Ni0  1  0.50000000  0.00000000  0.00000000  1
  Ni  Ni1  1  0.50000000  0.50000000  0.50000000  1
  Ni  Ni2  1  0.00000000  0.50000000  0.00000000  1
  Ni  Ni3  1  0.00000000  0.00000000  0.50000000  1
  O  O0  1  0.89805600  0.06165000  0.03705800  1
  O  O1  1  0.39805600  0.93835000  0.46294200  1
  O  O2  1  0.60194400  0.06165000  0.53705800  1
  O  O3  1  0.10194400  0.93835000  0.96294200  1
  F  F0  1  0.41532500  0.64473100  0.25491700  1
  F  F1  1  0.85664600  0.72945800  0.41669600  1
  F  F2  1  0.35664600  0.27054200  0.08330400  1
  F  F3  1  0.91532500  0.35526900  0.24508300  1
  F  F4  1  0.08467500  0.64473100  0.75491700  1
  F  F5  1  0.64335400  0.72945800  0.91669600  1
  F  F6  1  0.14335400  0.27054200  0.58330400  1
  F  F7  1  0.58467500  0.35526900  0.74508300  1
loop_
_geom_bond_atom_site_label_1
_geom_bond_atom_site_label_2
_geom_bond_distance
_geom_bond_site_symmetry_2
Li0 O3 1.932612 1_645
Li0 O0 2.313302 1_556
Li1 O2 1.932612 1_565
Li1 O1 2.313302 1_555
Li2 O1 1.932612 1_545
Li2 O2 2.313302 1_555
Li3 O0 1.932612 1_465
Li3 O3 2.313302 1_554
Ni0 O0 2.034690 1_555
Ni0 O3 2.034690 1_544
Ni1 O1 2.083582 1_555
Ni1 O2 2.083582 1_555
Ni2 O3 2.083582 1_554
Ni2 O0 2.083582 1_455
Ni3 O1 2.034690 1_545
Ni3 O2 2.034690 1_455
O0 O3 1.510793 1_644
O1 O2 1.510793 1_565
F0 Li2 1.906102 1_555
F0 Li3 1.915228 1_555
F0 Ni1 2.072905 1_555
F0 Ni0 2.180081 1_565
F1 Li3 1.846490 1_655
F1 Ni3 1.988082 1_665
F1 Ni1 2.019801 1_555
F2 Li2 1.846490 1_555
F2 Ni0 1.988082 1_555
F2 Ni2 2.019801 1_555
F3 Li3 1.906102 1_655
F3 Li2 1.915228 1_555
F3 Ni2 2.072905 1_655
F3 Ni3 2.180081 1_655
F4 Li0 1.906102 1_455
F4 Li1 1.915228 1_555
F4 Ni2 2.072905 1_556
F4 Ni3 2.180081 1_565
F5 Li1 1.846490 1_555
F5 Ni0 1.988082 1_566
F5 Ni2 2.019801 1_656
F6 Li0 1.846490 1_455
F6 Ni3 1.988082 1_555
F6 Ni1 2.019801 1_555
F7 Li1 1.906102 1_555
F7 Li0 1.915228 1_555
F7 Ni1 2.072905 1_555
F7 Ni0 2.180081 1_556
