# generated using pymatgen
data_Li4NbIn3(PO4)6
_symmetry_space_group_name_H-M   'P 1'
_cell_length_a   9.01364800
_cell_length_b   8.75089700
_cell_length_c   12.49416212
_cell_angle_alpha   89.64330468
_cell_angle_beta   90.00000000
_cell_angle_gamma   90.00000000
_symmetry_Int_Tables_number   1
_chemical_formula_structural   Li4NbIn3(PO4)6
_chemical_formula_sum   'Li8 Nb2 In6 P12 O48'
_cell_volume   985.48924030
_cell_formula_units_Z   2
loop_
 _symmetry_equiv_pos_site_id
 _symmetry_equiv_pos_as_xyz
  1  'x, y, z'
loop_
 _atom_site_type_symbol
 _atom_site_label
 _atom_site_symmetry_multiplicity
 _atom_site_fract_x
 _atom_site_fract_y
 _atom_site_fract_z
 _atom_site_occupancy
  Li  Li0  1  0.04607400  0.79264200  0.17550200  1
  Li  Li1  1  0.97015000  0.76765900  0.82571300  1
  Li  Li2  1  0.46769000  0.72997400  0.67262700  1
  Li  Li3  1  0.53663500  0.70775400  0.32799200  1
  Li  Li4  1  0.95392600  0.29264200  0.67550200  1
  Li  Li5  1  0.02985000  0.26765900  0.32571300  1
  Li  Li6  1  0.53231000  0.22997400  0.17262700  1
  Li  Li7  1  0.46336500  0.20775400  0.82799200  1
  Nb  Nb0  1  0.71005300  0.74832100  0.10980100  1
  Nb  Nb1  1  0.28994700  0.24832100  0.60980100  1
  In  In0  1  0.29043200  0.74692500  0.88729200  1
  In  In1  1  0.79313700  0.75240800  0.61165400  1
  In  In2  1  0.20902400  0.74832900  0.39050300  1
  In  In3  1  0.70956800  0.24692500  0.38729200  1
  In  In4  1  0.20686300  0.25240800  0.11165400  1
  In  In5  1  0.79097600  0.24832900  0.89050300  1
  P  P0  1  0.50293000  0.95508500  0.49926600  1
  P  P1  1  0.64112700  0.89394300  0.84975000  1
  P  P2  1  0.36022300  0.89728400  0.14897600  1
  P  P3  1  0.85967500  0.60691800  0.34661000  1
  P  P4  1  0.14072600  0.60297000  0.64939900  1
  P  P5  1  0.99557000  0.54245900  0.00187000  1
  P  P6  1  0.49707000  0.45508500  0.99926600  1
  P  P7  1  0.35887300  0.39394300  0.34975000  1
  P  P8  1  0.63977700  0.39728400  0.64897600  1
  P  P9  1  0.14032500  0.10691800  0.84661000  1
  P  P10  1  0.85927400  0.10297000  0.14939900  1
  P  P11  1  0.00443000  0.04245900  0.50187000  1
  O  O0  1  0.91976400  0.95605800  0.58811300  1
  O  O1  1  0.12524000  0.95479500  0.44459700  1
  O  O2  1  0.12853800  0.93161700  0.85776000  1
  O  O3  1  0.83456800  0.92498300  0.16927400  1
  O  O4  1  0.59665700  0.89285500  0.59272500  1
  O  O5  1  0.66374300  0.85545500  0.97398200  1
  O  O6  1  0.24562300  0.85925200  0.23650100  1
  O  O7  1  0.48539900  0.84193700  0.81521300  1
  O  O8  1  0.51871800  0.82871700  0.18138100  1
  O  O9  1  0.42563100  0.81735500  0.44681700  1
  O  O10  1  0.30750500  0.81972400  0.04721200  1
  O  O11  1  0.76318200  0.80853300  0.78856400  1
  O  O12  1  0.26026800  0.68921600  0.71327600  1
  O  O13  1  0.79882700  0.68618000  0.44610400  1
  O  O14  1  0.91297900  0.67992500  0.06395800  1
  O  O15  1  0.00937000  0.67297200  0.30767000  1
  O  O16  1  0.98245500  0.64309100  0.68909600  1
  O  O17  1  0.73988200  0.64409100  0.25557000  1
  O  O18  1  0.15187000  0.62714400  0.52912200  1
  O  O19  1  0.09030700  0.62423900  0.91695800  1
  O  O20  1  0.35242900  0.56814900  0.33400300  1
  O  O21  1  0.62115800  0.57251500  0.63609900  1
  O  O22  1  0.41668400  0.54500600  0.91308600  1
  O  O23  1  0.61592400  0.56352200  0.05596400  1
  O  O24  1  0.87476000  0.45479500  0.94459700  1
  O  O25  1  0.08023600  0.45605800  0.08811300  1
  O  O26  1  0.87146200  0.43161700  0.35776000  1
  O  O27  1  0.16543200  0.42498300  0.66927400  1
  O  O28  1  0.40334300  0.39285500  0.09272500  1
  O  O29  1  0.33625700  0.35545500  0.47398200  1
  O  O30  1  0.75437700  0.35925200  0.73650100  1
  O  O31  1  0.51460100  0.34193700  0.31521300  1
  O  O32  1  0.48128200  0.32871700  0.68138100  1
  O  O33  1  0.57436900  0.31735500  0.94681700  1
  O  O34  1  0.69249500  0.31972400  0.54721200  1
  O  O35  1  0.23681800  0.30853300  0.28856400  1
  O  O36  1  0.73973200  0.18921600  0.21327600  1
  O  O37  1  0.20117300  0.18618000  0.94610400  1
  O  O38  1  0.08702100  0.17992500  0.56395900  1
  O  O39  1  0.99063000  0.17297200  0.80767000  1
  O  O40  1  0.01754500  0.14309100  0.18909600  1
  O  O41  1  0.26011800  0.14409100  0.75557000  1
  O  O42  1  0.84813000  0.12714400  0.02912200  1
  O  O43  1  0.90969300  0.12423900  0.41695800  1
  O  O44  1  0.64757100  0.06814900  0.83400300  1
  O  O45  1  0.37884200  0.07251500  0.13609900  1
  O  O46  1  0.38407600  0.06352200  0.55596400  1
  O  O47  1  0.58331600  0.04500600  0.41308600  1
loop_
_geom_bond_atom_site_label_1
_geom_bond_atom_site_label_2
_geom_bond_distance
_geom_bond_site_symmetry_2
Li0 O15 1.977745 1_555
Li0 O6 2.039936 1_555
Li0 O14 2.090818 1_455
Li0 O3 2.231737 1_455
Li1 O11 1.954873 1_555
Li1 O19 2.007490 1_655
Li1 O16 2.034037 1_555
Li1 O2 2.065009 1_655
Li2 O12 1.969367 1_555
Li2 O21 2.007059 1_555
Li2 O7 2.044723 1_555
Li2 O4 2.088507 1_555
Li3 O9 2.035390 1_555
Li3 O20 2.062473 1_555
Li3 O8 2.116095 1_555
Li3 O17 2.119343 1_555
Li4 O39 1.977745 1_555
Li4 O30 2.039936 1_555
Li4 O38 2.090810 1_655
Li4 O27 2.231737 1_655
Li5 O35 1.954873 1_555
Li5 O43 2.007490 1_455
Li5 O40 2.034037 1_555
Li5 O26 2.065009 1_455
Li6 O36 1.969367 1_555
Li6 O45 2.007059 1_555
Li6 O31 2.044723 1_555
Li6 O28 2.088507 1_555
Li7 O33 2.035390 1_555
Li7 O44 2.062473 1_555
Li7 O32 2.116095 1_555
Li7 O41 2.119343 1_555
Nb0 O23 1.949630 1_555
Nb0 O5 1.978129 1_554
Nb0 O14 2.009026 1_555
Nb0 O17 2.049521 1_555
Nb0 O3 2.053302 1_555
Nb0 O8 2.068082 1_555
Nb1 O46 1.949630 1_555
Nb1 O29 1.978129 1_555
Nb1 O38 2.009023 1_555
Nb1 O41 2.049521 1_555
Nb1 O27 2.053302 1_555
Nb1 O32 2.068082 1_555
In0 O10 2.106571 1_556
In0 O22 2.124614 1_555
In0 O19 2.130486 1_555
In0 O7 2.140401 1_555
In0 O2 2.206879 1_555
In0 O12 2.251600 1_555
In1 O0 2.135103 1_555
In1 O13 2.152151 1_555
In1 O4 2.167785 1_555
In1 O16 2.179852 1_555
In1 O21 2.229006 1_555
In1 O11 2.283255 1_555
In2 O1 2.075261 1_555
In2 O18 2.089669 1_555
In2 O20 2.160810 1_555
In2 O9 2.162671 1_555
In2 O6 2.174867 1_555
In2 O15 2.180146 1_555
In3 O34 2.106571 1_555
In3 O47 2.124614 1_555
In3 O43 2.130486 1_555
In3 O31 2.140401 1_555
In3 O26 2.206879 1_555
In3 O36 2.251600 1_555
In4 O25 2.135103 1_555
In4 O37 2.152151 1_554
In4 O28 2.167785 1_555
In4 O40 2.179852 1_555
In4 O45 2.229006 1_555
In4 O35 2.283255 1_555
In5 O24 2.075261 1_555
In5 O42 2.089669 1_556
In5 O44 2.160810 1_555
In5 O33 2.162671 1_555
In5 O30 2.174867 1_555
In5 O39 2.180146 1_555
O0 P11 1.518222 1_665
O1 P11 1.514324 1_565
O2 P9 1.543151 1_565
O3 P10 1.591348 1_565
O4 P0 1.538137 1_555
O5 P1 1.599291 1_555
O6 P2 1.539189 1_555
O7 P1 1.538204 1_555
O8 P2 1.600586 1_555
O9 P0 1.541872 1_555
O10 P2 1.521119 1_555
O11 P1 1.536394 1_555
O12 P4 1.541133 1_555
O13 P3 1.529029 1_555
O14 P5 1.616997 1_555
O15 P3 1.545292 1_455
O16 P4 1.551328 1_655
O17 P3 1.600298 1_555
O18 P4 1.519596 1_555
O19 P5 1.535385 1_456
O20 P7 1.536985 1_555
O21 P8 1.549962 1_555
O22 P6 1.514276 1_555
O23 P6 1.599482 1_554
O24 P5 1.514324 1_556
O25 P5 1.518222 1_455
O26 P3 1.543151 1_555
O27 P4 1.591348 1_555
O28 P6 1.538137 1_554
O29 P7 1.599291 1_555
O30 P8 1.539189 1_555
O31 P7 1.538204 1_555
O32 P8 1.600586 1_555
O33 P6 1.541872 1_555
O34 P8 1.521119 1_555
O35 P7 1.536394 1_555
O36 P10 1.541133 1_555
O37 P9 1.529029 1_555
O38 P11 1.617003 1_555
O39 P9 1.545292 1_655
O40 P10 1.551328 1_455
O41 P9 1.600298 1_555
O42 P10 1.519596 1_555
O43 P11 1.535385 1_655
O44 P1 1.536985 1_545
O45 P2 1.549962 1_545
O46 P0 1.599482 1_545
O47 P0 1.514276 1_545
