# generated using pymatgen
data_Li2(FeO2)3
_symmetry_space_group_name_H-M   'P 1'
_cell_length_a   9.69492038
_cell_length_b   9.04771207
_cell_length_c   5.34408026
_cell_angle_alpha   80.21865721
_cell_angle_beta   66.87879637
_cell_angle_gamma   32.90254642
_symmetry_Int_Tables_number   1
_chemical_formula_structural   Li2(FeO2)3
_chemical_formula_sum   'Li4 Fe6 O12'
_cell_volume   221.88157081
_cell_formula_units_Z   2
loop_
 _symmetry_equiv_pos_site_id
 _symmetry_equiv_pos_as_xyz
  1  'x, y, z'
loop_
 _atom_site_type_symbol
 _atom_site_label
 _atom_site_symmetry_multiplicity
 _atom_site_fract_x
 _atom_site_fract_y
 _atom_site_fract_z
 _atom_site_occupancy
  Li  Li0  1  0.41971100  0.41971100  0.08028900  1
  Li  Li1  1  0.08028900  0.08028900  0.41971100  1
  Li  Li2  1  0.16971100  0.16971100  0.83028900  1
  Li  Li3  1  0.83028900  0.83028900  0.16971100  1
  Fe  Fe0  1  0.91334700  0.91334700  0.58665300  1
  Fe  Fe1  1  0.00000000  0.00000000  0.00000000  1
  Fe  Fe2  1  0.58665300  0.58665300  0.91334700  1
  Fe  Fe3  1  0.66334700  0.66334700  0.33665300  1
  Fe  Fe4  1  0.25000000  0.25000000  0.25000000  1
  Fe  Fe5  1  0.33665300  0.33665300  0.66334700  1
  O  O0  1  0.12833500  0.69826500  0.82090800  1
  O  O1  1  0.69826500  0.12833500  0.35249200  1
  O  O2  1  0.21736400  0.78263600  0.21736400  1
  O  O3  1  0.82090800  0.35249200  0.12833500  1
  O  O4  1  0.78263600  0.21736400  0.78263600  1
  O  O5  1  0.35249200  0.82090800  0.69826500  1
  O  O6  1  0.42909200  0.89750800  0.12166500  1
  O  O7  1  0.89750800  0.42909200  0.55173500  1
  O  O8  1  0.03263600  0.46736400  0.03263600  1
  O  O9  1  0.46736400  0.03263600  0.46736400  1
  O  O10  1  0.55173500  0.12166500  0.89750800  1
  O  O11  1  0.12166500  0.55173500  0.42909200  1
loop_
_geom_bond_atom_site_label_1
_geom_bond_atom_site_label_2
_geom_bond_distance
_geom_bond_site_symmetry_2
Li0 O11 1.995366 1_555
Li0 O10 1.995366 1_554
Li0 O4 2.009796 1_554
Li0 O2 2.009796 1_555
Li0 O0 2.487243 1_554
Li0 O1 2.487243 1_555
Li1 O6 1.995366 1_545
Li1 O7 1.995366 1_455
Li1 O2 2.009796 1_545
Li1 O4 2.009796 1_455
Li1 O3 2.487243 1_455
Li1 O5 2.487243 1_545
Li2 O5 1.995366 1_545
Li2 O3 1.995366 1_456
Li2 O9 2.009796 1_555
Li2 O8 2.009796 1_556
Li2 O6 2.487243 1_546
Li2 O7 2.487243 1_455
Li3 O1 1.995366 1_565
Li3 O0 1.995366 1_654
Li3 O8 2.009796 1_655
Li3 O9 2.009796 1_565
Li3 O11 2.487243 1_655
Li3 O10 2.487243 1_564
Fe0 O10 1.999289 1_565
Fe0 O11 1.999289 1_655
Fe0 O1 2.027065 1_565
Fe0 O0 2.027065 1_655
Fe0 O4 2.086206 1_565
Fe0 O2 2.086206 1_655
Fe1 O4 1.960849 1_454
Fe1 O2 1.960849 1_545
Fe1 O0 2.041057 1_544
Fe1 O3 2.041057 1_455
Fe1 O5 2.041057 1_544
Fe1 O1 2.041057 1_455
Fe2 O6 1.999289 1_556
Fe2 O7 1.999289 1_555
Fe2 O5 2.027065 1_555
Fe2 O3 2.027065 1_556
Fe2 O2 2.086206 1_556
Fe2 O4 2.086206 1_555
Fe3 O3 1.999289 1_555
Fe3 O5 1.999289 1_555
Fe3 O7 2.027065 1_555
Fe3 O6 2.027065 1_555
Fe3 O8 2.086206 1_655
Fe3 O9 2.086206 1_565
Fe4 O8 1.960849 1_555
Fe4 O9 1.960849 1_555
Fe4 O10 2.041057 1_554
Fe4 O6 2.041057 1_545
Fe4 O11 2.041057 1_555
Fe4 O7 2.041057 1_455
Fe5 O0 1.999289 1_555
Fe5 O1 1.999289 1_555
Fe5 O10 2.027065 1_555
Fe5 O11 2.027065 1_555
Fe5 O9 2.086206 1_555
Fe5 O8 2.086206 1_556
