# generated using pymatgen
data_Li2Cr3FeO8
_symmetry_space_group_name_H-M   'P 1'
_cell_length_a   5.98219617
_cell_length_b   5.90516854
_cell_length_c   5.84128362
_cell_angle_alpha   59.82395120
_cell_angle_beta   60.57324110
_cell_angle_gamma   90.02241334
_symmetry_Int_Tables_number   1
_chemical_formula_structural   Li2Cr3FeO8
_chemical_formula_sum   'Li2 Cr3 Fe1 O8'
_cell_volume   146.74769011
_cell_formula_units_Z   1
loop_
 _symmetry_equiv_pos_site_id
 _symmetry_equiv_pos_as_xyz
  1  'x, y, z'
loop_
 _atom_site_type_symbol
 _atom_site_label
 _atom_site_symmetry_multiplicity
 _atom_site_fract_x
 _atom_site_fract_y
 _atom_site_fract_z
 _atom_site_occupancy
  Li  Li0  1  0.49997300  0.99997200  0.00002600  1
  Li  Li1  1  0.49999000  0.50000900  0.49995900  1
  Cr  Cr0  1  0.99993400  0.99985300  0.50010200  1
  Cr  Cr1  1  0.99997600  0.50003300  0.99982400  1
  Cr  Cr2  1  0.99990100  0.50001000  0.50017500  1
  Fe  Fe0  1  0.99990200  0.00002000  0.00002600  1
  O  O0  1  0.21237500  0.23108300  0.01559800  1
  O  O1  1  0.20292000  0.74206700  0.03774000  1
  O  O2  1  0.20661700  0.23335700  0.54353500  1
  O  O3  1  0.21057300  0.73039300  0.51529200  1
  O  O4  1  0.78942700  0.26959400  0.48467600  1
  O  O5  1  0.79337200  0.76663800  0.45645700  1
  O  O6  1  0.79726000  0.25805500  0.96223300  1
  O  O7  1  0.78778100  0.76891600  0.98435300  1
loop_
_geom_bond_atom_site_label_1
_geom_bond_atom_site_label_2
_geom_bond_distance
_geom_bond_site_symmetry_2
Li0 O3 2.156668 1_555
Li0 O4 2.157024 1_564
Li0 O1 2.191284 1_555
Li0 O0 2.191731 1_565
Li0 O7 2.192464 1_554
Li0 O6 2.192729 1_564
Li1 O7 2.156683 1_554
Li1 O0 2.156692 1_556
Li1 O2 2.186380 1_555
Li1 O5 2.186607 1_555
Li1 O3 2.197362 1_555
Li1 O4 2.197581 1_555
Cr0 O7 2.016131 1_555
Cr0 O0 2.017092 1_665
Cr0 O3 2.024134 1_655
Cr0 O4 2.024831 1_565
Cr0 O5 2.037090 1_555
Cr0 O2 2.037890 1_665
Cr1 O3 2.018056 1_655
Cr1 O4 2.019475 1_556
Cr1 O7 2.027480 1_555
Cr1 O0 2.028500 1_656
Cr1 O6 2.033806 1_555
Cr1 O1 2.036374 1_656
Cr2 O3 1.917215 1_655
Cr2 O4 1.918173 1_555
Cr2 O6 1.924178 1_555
Cr2 O1 1.925652 1_655
Cr2 O5 1.994492 1_555
Cr2 O2 1.995289 1_655
Fe0 O5 1.897917 1_545
Fe0 O2 1.898121 1_654
Fe0 O7 1.928586 1_544
Fe0 O0 1.929416 1_655
Fe0 O6 1.940694 1_554
Fe0 O1 1.941862 1_645
