# generated using pymatgen
data_Sr20P12Cl(O16F)3
_symmetry_space_group_name_H-M   'P 1'
_cell_length_a   7.35995200
_cell_length_b   9.90469101
_cell_length_c   17.15408517
_cell_angle_alpha   90.00811633
_cell_angle_beta   90.00065799
_cell_angle_gamma   90.00231967
_symmetry_Int_Tables_number   1
_chemical_formula_structural   Sr20P12Cl(O16F)3
_chemical_formula_sum   'Sr20 P12 Cl1 O48 F3'
_cell_volume   1250.49935178
_cell_formula_units_Z   1
loop_
 _symmetry_equiv_pos_site_id
 _symmetry_equiv_pos_as_xyz
  1  'x, y, z'
loop_
 _atom_site_type_symbol
 _atom_site_label
 _atom_site_symmetry_multiplicity
 _atom_site_fract_x
 _atom_site_fract_y
 _atom_site_fract_z
 _atom_site_occupancy
  Sr  Sr0  1  0.75481300  0.26857400  0.00594200  1
  Sr  Sr1  1  0.75054200  0.38375700  0.37431200  1
  Sr  Sr2  1  0.49795700  0.49907600  0.16684800  1
  Sr  Sr3  1  0.00208400  0.49840300  0.16741700  1
  Sr  Sr4  1  0.25013900  0.63082100  0.37921100  1
  Sr  Sr5  1  0.74987900  0.74702600  0.50559800  1
  Sr  Sr6  1  0.75411100  0.85704900  0.13190000  1
  Sr  Sr7  1  0.75376700  0.87500800  0.86202000  1
  Sr  Sr8  1  0.50105900  0.00378300  0.33305600  1
  Sr  Sr9  1  0.00152700  0.00161900  0.66597300  1
  Sr  Sr10  1  0.00105100  0.00216500  0.33468200  1
  Sr  Sr11  1  0.49843500  0.00099300  0.66646500  1
  Sr  Sr12  1  0.25459300  0.11551700  0.12538200  1
  Sr  Sr13  1  0.25448500  0.12980400  0.87932400  1
  Sr  Sr14  1  0.25024300  0.25240000  0.49537000  1
  Sr  Sr15  1  0.75044000  0.36780000  0.62057600  1
  Sr  Sr16  1  0.00277200  0.49773400  0.83188300  1
  Sr  Sr17  1  0.50171700  0.49665100  0.83377200  1
  Sr  Sr18  1  0.25013700  0.61641000  0.62563700  1
  Sr  Sr19  1  0.25400400  0.75499500  0.99504800  1
  P  P0  1  0.25004200  0.33168500  0.30117400  1
  P  P1  1  0.25073600  0.38531000  0.01582700  1
  P  P2  1  0.75016400  0.71311600  0.31851700  1
  P  P3  1  0.25084200  0.78402400  0.18506300  1
  P  P4  1  0.25083000  0.83069700  0.79934900  1
  P  P5  1  0.25018500  0.88277500  0.51508800  1
  P  P6  1  0.74998800  0.11699300  0.48494700  1
  P  P7  1  0.75034000  0.16771700  0.20075900  1
  P  P8  1  0.75036300  0.21684600  0.81563200  1
  P  P9  1  0.25018000  0.28561400  0.68348300  1
  P  P10  1  0.75048900  0.61927900  0.98291600  1
  P  P11  1  0.75022700  0.66608800  0.69719900  1
  Cl  Cl0  1  0.64655700  0.00026500  0.00008600  1
  O  O0  1  0.42324700  0.30712900  0.04274600  1
  O  O1  1  0.08141600  0.30377900  0.04316100  1
  O  O2  1  0.24959400  0.32690100  0.21010500  1
  O  O3  1  0.74895800  0.31273300  0.16481000  1
  O  O4  1  0.42160300  0.41124800  0.32798500  1
  O  O5  1  0.07915800  0.41184600  0.32814500  1
  O  O6  1  0.24845700  0.52417500  0.05885800  1
  O  O7  1  0.75033300  0.59327500  0.25944800  1
  O  O8  1  0.74942400  0.59336200  0.07284400  1
  O  O9  1  0.24921100  0.64975400  0.23278300  1
  O  O10  1  0.57913100  0.70929300  0.37146100  1
  O  O11  1  0.92099600  0.70940800  0.37164100  1
  O  O12  1  0.08089500  0.78411100  0.13101700  1
  O  O13  1  0.42303700  0.78308500  0.13234500  1
  O  O14  1  0.07891100  0.80243300  0.54145000  1
  O  O15  1  0.42114000  0.80222000  0.54156400  1
  O  O16  1  0.24910500  0.82638100  0.70837800  1
  O  O17  1  0.75016200  0.81441400  0.66657200  1
  O  O18  1  0.75057800  0.85063000  0.27390300  1
  O  O19  1  0.25043600  0.90354700  0.42500900  1
  O  O20  1  0.42278800  0.91054500  0.82524200  1
  O  O21  1  0.08114900  0.91201600  0.82648000  1
  O  O22  1  0.24979000  0.90949500  0.23979600  1
  O  O23  1  0.75001900  0.97841500  0.44156400  1
  O  O24  1  0.25016400  0.02151500  0.55852400  1
  O  O25  1  0.74872800  0.09022400  0.76125200  1
  O  O26  1  0.91851700  0.08645100  0.17169100  1
  O  O27  1  0.57495300  0.08795300  0.17980600  1
  O  O28  1  0.74969300  0.09624900  0.57507400  1
  O  O29  1  0.24950800  0.15139600  0.73131800  1
  O  O30  1  0.24992900  0.18655700  0.33627600  1
  O  O31  1  0.75849300  0.17492500  0.29180100  1
  O  O32  1  0.92123100  0.19771900  0.45885400  1
  O  O33  1  0.57916100  0.19786500  0.45848100  1
  O  O34  1  0.91884000  0.21376900  0.87066600  1
  O  O35  1  0.57508500  0.22545200  0.86611300  1
  O  O36  1  0.42143200  0.28579100  0.63010500  1
  O  O37  1  0.07947200  0.28594300  0.62977500  1
  O  O38  1  0.75846700  0.34961000  0.76640300  1
  O  O39  1  0.24961000  0.40378000  0.92571000  1
  O  O40  1  0.25045200  0.41080600  0.73848300  1
  O  O41  1  0.75966500  0.48193500  0.93797300  1
  O  O42  1  0.92127600  0.58844900  0.66876500  1
  O  O43  1  0.57924000  0.58829600  0.66888900  1
  O  O44  1  0.24992400  0.68588600  0.83466200  1
  O  O45  1  0.75064700  0.66451600  0.78824000  1
  O  O46  1  0.91822300  0.70463900  0.95848800  1
  O  O47  1  0.57449400  0.69047500  0.95493500  1
  F  F0  1  0.22179000  0.00051100  0.00005100  1
  F  F1  1  0.75012100  0.49962900  0.49995300  1
  F  F2  1  0.25004700  0.49946700  0.49994700  1
loop_
_geom_bond_atom_site_label_1
_geom_bond_atom_site_label_2
_geom_bond_distance
_geom_bond_site_symmetry_2
Cl0 Sr0 2.776161 1_555
Cl0 Sr6 2.784339 1_545
Cl0 Sr7 2.787539 1_544
O0 P1 1.557273 1_555
O0 Sr0 2.549426 1_555
O0 Sr12 2.674453 1_555
O0 Sr2 2.906474 1_555
O1 P1 1.557241 1_555
O1 Sr0 2.511418 1_455
O1 Sr12 2.663035 1_555
O1 Sr3 2.932430 1_555
O2 P0 1.562921 1_555
O2 Sr12 2.548777 1_555
O2 Sr3 2.596294 1_555
O2 Sr2 2.607739 1_555
O3 P7 1.563237 1_555
O3 Sr2 2.611647 1_555
O3 Sr3 2.618088 1_655
O3 Sr0 2.760386 1_555
O4 P0 1.557790 1_555
O4 Sr1 2.562592 1_555
O4 Sr4 2.663496 1_555
O4 Sr2 2.951913 1_555
O5 P0 1.557639 1_555
O5 Sr1 2.560129 1_455
O5 Sr4 2.655977 1_555
O5 Sr3 2.942667 1_555
O6 P1 1.560974 1_555
O6 Sr19 2.535200 1_554
O6 Sr3 2.611756 1_555
O6 Sr2 2.620222 1_555
O7 P2 1.560553 1_555
O7 Sr3 2.609262 1_655
O7 Sr2 2.615976 1_555
O7 Sr1 2.861833 1_555
O8 P10 1.563900 1_554
O8 Sr2 2.626444 1_555
O8 Sr3 2.641023 1_655
O8 Sr6 2.801407 1_555
O9 P3 1.561790 1_555
O9 Sr4 2.518864 1_555
O9 Sr3 2.609981 1_555
O9 Sr2 2.618791 1_555
O10 P2 1.552697 1_555
O10 Sr4 2.546502 1_555
O10 Sr5 2.648246 1_555
O10 Sr8 3.045123 1_565
O11 P2 1.553265 1_555
O11 Sr4 2.547804 1_655
O11 Sr5 2.646734 1_555
O11 Sr10 3.026148 1_665
O12 P3 1.556924 1_555
O12 Sr6 2.511344 1_455
O12 Sr19 2.673301 1_554
O12 Sr3 2.955463 1_555
O13 P3 1.556949 1_555
O13 Sr6 2.544417 1_555
O13 Sr19 2.678029 1_554
O13 Sr2 2.927121 1_555
O14 P5 1.557820 1_555
O14 Sr5 2.558047 1_455
O14 Sr18 2.658838 1_555
O14 Sr9 2.962832 1_565
O15 P5 1.557614 1_555
O15 Sr5 2.556080 1_555
O15 Sr18 2.655481 1_555
O15 Sr11 2.964626 1_565
O16 P4 1.561155 1_555
O16 Sr18 2.517719 1_555
O16 Sr9 2.619652 1_565
O16 Sr11 2.622133 1_565
O17 P11 1.560309 1_555
O17 Sr11 2.616850 1_565
O17 Sr9 2.619265 1_665
O17 Sr5 2.840792 1_555
O18 P2 1.562416 1_555
O18 Sr6 2.436909 1_555
O18 Sr8 2.589036 1_565
O18 Sr10 2.595654 1_665
O19 P5 1.558889 1_555
O19 Sr10 2.593146 1_565
O19 Sr8 2.622322 1_565
O19 Sr4 2.813085 1_555
O20 P4 1.557023 1_555
O20 Sr7 2.540878 1_555
O20 Sr13 2.666643 1_565
O20 Sr11 2.920896 1_565
O21 P4 1.557221 1_555
O21 Sr7 2.512336 1_455
O21 Sr13 2.664887 1_565
O21 Sr9 2.951726 1_565
O22 P3 1.557461 1_555
O22 Sr10 2.615932 1_565
O22 Sr8 2.617416 1_565
O22 Sr12 2.831683 1_565
O23 P6 1.561247 1_565
O23 Sr5 2.541616 1_555
O23 Sr10 2.613552 1_665
O23 Sr8 2.623988 1_565
O24 P5 1.563091 1_545
O24 Sr14 2.530614 1_555
O24 Sr9 2.604817 1_555
O24 Sr11 2.609367 1_555
O25 P8 1.562977 1_555
O25 Sr11 2.611097 1_555
O25 Sr9 2.627379 1_655
O25 Sr7 2.744876 1_545
O26 P7 1.558394 1_555
O26 Sr12 2.613849 1_655
O26 Sr6 2.663095 1_545
O26 Sr10 2.980602 1_655
O27 P7 1.555456 1_555
O27 Sr12 2.550606 1_555
O27 Sr6 2.764828 1_545
O27 Sr8 2.811110 1_555
O28 P6 1.559669 1_555
O28 Sr9 2.597263 1_655
O28 Sr11 2.601536 1_555
O28 Sr15 2.800498 1_555
O29 P9 1.562349 1_555
O29 Sr13 2.548192 1_555
O29 Sr9 2.605303 1_555
O29 Sr11 2.610209 1_555
O30 P0 1.558550 1_555
O30 Sr10 2.586742 1_555
O30 Sr8 2.587815 1_555
O30 Sr14 2.805862 1_555
O31 P7 1.564513 1_555
O31 Sr1 2.506853 1_555
O31 Sr10 2.580045 1_655
O31 Sr8 2.638982 1_555
O32 P6 1.558250 1_555
O32 Sr14 2.559138 1_655
O32 Sr1 2.660386 1_555
O32 Sr10 2.938164 1_655
O33 P6 1.558415 1_555
O33 Sr14 2.559807 1_555
O33 Sr1 2.658258 1_555
O33 Sr8 2.941706 1_555
O34 P8 1.558754 1_555
O34 Sr13 2.610828 1_655
O34 Sr0 2.671463 1_556
O34 Sr16 2.955544 1_655
O35 P8 1.556070 1_555
O35 Sr13 2.552736 1_555
O35 Sr0 2.772229 1_556
O35 Sr17 2.795578 1_555
O36 P9 1.557906 1_555
O36 Sr15 2.559292 1_555
O36 Sr14 2.653002 1_555
O36 Sr11 2.944140 1_555
O37 P9 1.557995 1_555
O37 Sr15 2.558685 1_455
O37 Sr14 2.646836 1_555
O37 Sr9 2.940356 1_555
O38 P8 1.564033 1_555
O38 Sr15 2.508729 1_555
O38 Sr16 2.578076 1_655
O38 Sr17 2.650899 1_555
O39 P1 1.556709 1_556
O39 Sr16 2.599516 1_555
O39 Sr17 2.603195 1_555
O39 Sr13 2.828024 1_555
O40 P9 1.558007 1_555
O40 Sr16 2.575101 1_555
O40 Sr17 2.610397 1_555
O40 Sr18 2.809881 1_555
O41 P10 1.564991 1_555
O41 Sr0 2.413986 1_556
O41 Sr16 2.556953 1_655
O41 Sr17 2.611622 1_555
O42 P11 1.553738 1_555
O42 Sr18 2.546060 1_655
O42 Sr15 2.653248 1_555
O42 Sr16 2.999564 1_655
O43 P11 1.553393 1_555
O43 Sr18 2.548542 1_555
O43 Sr15 2.654027 1_555
O43 Sr17 3.024923 1_555
O44 P4 1.557073 1_555
O44 Sr16 2.604571 1_555
O44 Sr17 2.635878 1_555
O44 Sr19 2.835211 1_555
O45 P11 1.561808 1_555
O45 Sr7 2.438898 1_555
O45 Sr17 2.594466 1_555
O45 Sr16 2.594853 1_655
O46 P10 1.553853 1_555
O46 Sr19 2.597949 1_655
O46 Sr7 2.655537 1_555
O46 Sr16 3.050007 1_655
O47 P10 1.551018 1_555
O47 Sr19 2.538858 1_555
O47 Sr7 2.760919 1_555
O47 Sr17 2.879424 1_555
F0 Sr19 2.444795 1_544
F0 Sr12 2.444860 1_555
F0 Sr13 2.446932 1_554
F1 Sr1 2.441639 1_555
F1 Sr15 2.446872 1_555
F1 Sr5 2.452290 1_555
F2 Sr4 2.446005 1_555
F2 Sr18 2.447380 1_555
F2 Sr14 2.448371 1_555
