# generated using pymatgen
data_Ba2CaI6
_symmetry_space_group_name_H-M   'P 1'
_cell_length_a   18.33262300
_cell_length_b   9.96881400
_cell_length_c   11.07460665
_cell_angle_alpha   58.13173013
_cell_angle_beta   90.00000000
_cell_angle_gamma   90.00000000
_symmetry_Int_Tables_number   1
_chemical_formula_structural   Ba2CaI6
_chemical_formula_sum   'Ba8 Ca4 I24'
_cell_volume   1718.85495090
_cell_formula_units_Z   4
loop_
 _symmetry_equiv_pos_site_id
 _symmetry_equiv_pos_as_xyz
  1  'x, y, z'
loop_
 _atom_site_type_symbol
 _atom_site_label
 _atom_site_symmetry_multiplicity
 _atom_site_fract_x
 _atom_site_fract_y
 _atom_site_fract_z
 _atom_site_occupancy
  Ba  Ba0  1  0.42249200  0.21925400  0.04858400  1
  Ba  Ba1  1  0.92249200  0.78074600  0.45141600  1
  Ba  Ba2  1  0.24365100  0.74338700  0.50672600  1
  Ba  Ba3  1  0.74365100  0.25661300  0.99327400  1
  Ba  Ba4  1  0.25634900  0.74338700  0.00672600  1
  Ba  Ba5  1  0.75634900  0.25661300  0.49327400  1
  Ba  Ba6  1  0.07750800  0.21925400  0.54858400  1
  Ba  Ba7  1  0.57750800  0.78074600  0.95141600  1
  Ca  Ca0  1  0.58877800  0.67726900  0.52278300  1
  Ca  Ca1  1  0.08877800  0.32273100  0.97721700  1
  Ca  Ca2  1  0.91122200  0.67726900  0.02278300  1
  Ca  Ca3  1  0.41122200  0.32273100  0.47721700  1
  I  I0  1  0.41828300  0.59105900  0.54766300  1
  I  I1  1  0.07469100  0.54189400  0.62777100  1
  I  I2  1  0.57558100  0.93638700  0.18587200  1
  I  I3  1  0.75803400  0.54496400  0.60596100  1
  I  I4  1  0.25803400  0.45503600  0.89403900  1
  I  I5  1  0.89761500  0.93351400  0.09546100  1
  I  I6  1  0.57469100  0.45810600  0.87222900  1
  I  I7  1  0.27862000  0.96222500  0.15463400  1
  I  I8  1  0.77862000  0.03777500  0.34536600  1
  I  I9  1  0.08171700  0.59105900  0.04766300  1
  I  I10  1  0.39761500  0.06648600  0.40453900  1
  I  I11  1  0.92441900  0.93638700  0.68587200  1
  I  I12  1  0.07558100  0.06361300  0.31412800  1
  I  I13  1  0.60238500  0.93351400  0.59546100  1
  I  I14  1  0.91828300  0.40894100  0.95233700  1
  I  I15  1  0.22138000  0.96222500  0.65463400  1
  I  I16  1  0.72138000  0.03777500  0.84536600  1
  I  I17  1  0.42530900  0.54189400  0.12777100  1
  I  I18  1  0.10238500  0.06648600  0.90453900  1
  I  I19  1  0.74196600  0.54496400  0.10596100  1
  I  I20  1  0.24196600  0.45503600  0.39403900  1
  I  I21  1  0.42441900  0.06361300  0.81412800  1
  I  I22  1  0.92530900  0.45810600  0.37222900  1
  I  I23  1  0.58171700  0.40894100  0.45233700  1
loop_
_geom_bond_atom_site_label_1
_geom_bond_atom_site_label_2
_geom_bond_distance
_geom_bond_site_symmetry_2
Ba0 I7 3.423984 1_545
Ba0 I10 3.424599 1_555
Ba0 I6 3.515495 1_554
Ba0 I4 3.646369 1_554
Ba0 I21 3.661202 1_554
Ba0 I2 3.689529 1_545
Ba0 I17 3.754325 1_555
Ba1 I8 3.423984 1_565
Ba1 I5 3.424599 1_555
Ba1 I1 3.515495 1_655
Ba1 I3 3.646369 1_555
Ba1 I11 3.661202 1_555
Ba1 I12 3.689529 1_665
Ba1 I22 3.754325 1_555
Ba2 I15 3.373770 1_555
Ba2 I7 3.375238 1_555
Ba2 I0 3.468988 1_555
Ba2 I1 3.547223 1_555
Ba2 I20 3.689061 1_555
Ba2 I4 3.702883 1_555
Ba2 I10 3.971513 1_565
Ba2 I12 4.128417 1_565
Ba3 I16 3.373770 1_555
Ba3 I8 3.375238 1_556
Ba3 I14 3.468988 1_555
Ba3 I6 3.547223 1_555
Ba3 I19 3.689061 1_556
Ba3 I3 3.702883 1_555
Ba3 I5 3.971513 1_546
Ba3 I2 4.128417 1_546
Ba4 I7 3.373770 1_555
Ba4 I15 3.375238 1_554
Ba4 I9 3.468988 1_555
Ba4 I17 3.547223 1_555
Ba4 I4 3.689061 1_554
Ba4 I20 3.702883 1_555
Ba4 I18 3.971513 1_564
Ba4 I21 4.128417 1_564
Ba5 I8 3.373770 1_555
Ba5 I16 3.375238 1_555
Ba5 I23 3.468988 1_555
Ba5 I22 3.547223 1_555
Ba5 I3 3.689061 1_555
Ba5 I19 3.702883 1_555
Ba5 I13 3.971513 1_545
Ba5 I11 4.128417 1_545
Ba6 I15 3.423984 1_545
Ba6 I18 3.424599 1_555
Ba6 I22 3.515495 1_455
Ba6 I20 3.646369 1_555
Ba6 I12 3.661202 1_555
Ba6 I11 3.689529 1_445
Ba6 I1 3.754325 1_555
Ba7 I16 3.423984 1_565
Ba7 I13 3.424599 1_555
Ba7 I17 3.515495 1_556
Ba7 I19 3.646369 1_556
Ba7 I2 3.661202 1_556
Ba7 I21 3.689529 1_565
Ba7 I6 3.754325 1_555
Ca0 I13 3.066979 1_555
Ca0 I23 3.159772 1_555
Ca0 I0 3.214649 1_555
Ca0 I2 3.236573 1_555
Ca0 I6 3.299802 1_555
Ca0 I3 3.306543 1_555
Ca1 I18 3.066979 1_555
Ca1 I9 3.159772 1_556
Ca1 I14 3.214649 1_455
Ca1 I12 3.236573 1_556
Ca1 I1 3.299802 1_555
Ca1 I4 3.306543 1_555
Ca2 I5 3.066979 1_555
Ca2 I14 3.159772 1_554
Ca2 I9 3.214649 1_655
Ca2 I11 3.236573 1_554
Ca2 I22 3.299802 1_555
Ca2 I19 3.306543 1_555
Ca3 I10 3.066979 1_555
Ca3 I0 3.159772 1_555
Ca3 I23 3.214649 1_555
Ca3 I21 3.236573 1_555
Ca3 I17 3.299802 1_555
Ca3 I20 3.306543 1_555
