# generated using pymatgen
data_V2(OF)3
_symmetry_space_group_name_H-M   'P 1'
_cell_length_a   5.17339500
_cell_length_b   5.22743202
_cell_length_c   13.23778591
_cell_angle_alpha   91.15346869
_cell_angle_beta   90.23210034
_cell_angle_gamma   119.53039602
_symmetry_Int_Tables_number   1
_chemical_formula_structural   V2(OF)3
_chemical_formula_sum   'V6 O9 F9'
_cell_volume   311.38786492
_cell_formula_units_Z   3
loop_
 _symmetry_equiv_pos_site_id
 _symmetry_equiv_pos_as_xyz
  1  'x, y, z'
loop_
 _atom_site_type_symbol
 _atom_site_label
 _atom_site_symmetry_multiplicity
 _atom_site_fract_x
 _atom_site_fract_y
 _atom_site_fract_z
 _atom_site_occupancy
  V  V0  1  0.99544500  0.97301600  0.48723100  1
  V  V1  1  0.95268300  0.98187400  0.99863300  1
  V  V2  1  0.64140200  0.32489400  0.15754000  1
  V  V3  1  0.37626900  0.67530600  0.32924000  1
  V  V4  1  0.71621600  0.34739000  0.66538500  1
  V  V5  1  0.33320500  0.63997100  0.82493900  1
  O  O0  1  0.34927900  0.24979100  0.08288300  1
  O  O1  1  0.97713500  0.57342100  0.75207200  1
  O  O2  1  0.77598800  0.09077300  0.08217800  1
  O  O3  1  0.08362500  0.75981700  0.41713300  1
  O  O4  1  0.41050500  0.42806000  0.75002700  1
  O  O5  1  0.57924900  0.58173600  0.25412300  1
  O  O6  1  0.91024700  0.25294300  0.58847500  1
  O  O7  1  0.67054100  0.76247800  0.91901700  1
  O  O8  1  0.66244500  0.90791700  0.41917300  1
  F  F0  1  0.99846800  0.42053200  0.25411500  1
  F  F1  1  0.40796700  0.99787400  0.25114300  1
  F  F2  1  0.32542000  0.08618000  0.58711000  1
  F  F3  1  0.07429700  0.33417400  0.92010200  1
  F  F4  1  0.25688500  0.33851200  0.42057100  1
  F  F5  1  0.58023300  0.00866500  0.75052000  1
  F  F6  1  0.24589000  0.92350900  0.92048500  1
  F  F7  1  0.74073200  0.66587900  0.58493900  1
  F  F8  1  0.93587300  0.67528600  0.08296500  1
loop_
_geom_bond_atom_site_label_1
_geom_bond_atom_site_label_2
_geom_bond_distance
_geom_bond_site_symmetry_2
O0 V2 1.673974 1_555
O0 V1 2.121540 1_444
O1 V4 1.701660 1_555
O1 V5 1.945545 1_655
O2 V1 1.696643 1_544
O2 V2 1.942764 1_555
O3 V0 1.665603 1_455
O3 V3 2.119881 1_555
O4 V5 1.663164 1_555
O4 V4 2.141825 1_555
O5 V3 1.681056 1_555
O5 V2 1.974966 1_555
O6 V4 1.662682 1_555
O6 V0 2.166424 1_545
O7 V1 1.686806 1_555
O7 V5 1.963491 1_555
O8 V3 1.800163 1_555
O8 V0 1.814525 1_555
F0 V3 1.986902 1_655
F0 V2 2.083607 1_555
F1 V3 1.933379 1_555
F1 V2 1.994597 1_565
F2 V0 1.991734 1_445
F2 V4 2.056780 1_555
F3 V1 1.951495 1_445
F3 V5 1.980010 1_555
F4 V0 1.946434 1_445
F4 V3 1.990638 1_555
F5 V4 1.938844 1_555
F5 V5 1.994222 1_545
F6 V1 1.980005 1_455
F6 V5 2.142382 1_555
F7 V4 1.945842 1_555
F7 V0 1.999751 1_555
F8 V1 1.938508 1_554
F8 V2 1.996157 1_555
