# generated using pymatgen
data_Li2CoSiO4
_symmetry_space_group_name_H-M   'P 1'
_cell_length_a   5.01393600
_cell_length_b   6.18073500
_cell_length_c   10.90044800
_cell_angle_alpha   90.00000000
_cell_angle_beta   90.00000000
_cell_angle_gamma   90.00000000
_symmetry_Int_Tables_number   1
_chemical_formula_structural   Li2CoSiO4
_chemical_formula_sum   'Li8 Co4 Si4 O16'
_cell_volume   337.80280942
_cell_formula_units_Z   4
loop_
 _symmetry_equiv_pos_site_id
 _symmetry_equiv_pos_as_xyz
  1  'x, y, z'
loop_
 _atom_site_type_symbol
 _atom_site_label
 _atom_site_symmetry_multiplicity
 _atom_site_fract_x
 _atom_site_fract_y
 _atom_site_fract_z
 _atom_site_occupancy
  Li  Li0  1  0.31718600  0.99883700  0.58726100  1
  Li  Li1  1  0.68281400  0.00116300  0.41273900  1
  Li  Li2  1  0.18281400  0.99883700  0.08726100  1
  Li  Li3  1  0.31718600  0.50116300  0.58726100  1
  Li  Li4  1  0.18281400  0.50116300  0.08726100  1
  Li  Li5  1  0.81718600  0.49883700  0.91273900  1
  Li  Li6  1  0.68281400  0.49883700  0.41273900  1
  Li  Li7  1  0.81718600  0.00116300  0.91273900  1
  Co  Co0  1  0.17883600  0.75000000  0.33076500  1
  Co  Co1  1  0.32116400  0.75000000  0.83076500  1
  Co  Co2  1  0.67883600  0.25000000  0.16923500  1
  Co  Co3  1  0.82116400  0.25000000  0.66923500  1
  Si  Si0  1  0.67401700  0.75000000  0.16318300  1
  Si  Si1  1  0.82598300  0.75000000  0.66318300  1
  Si  Si2  1  0.32598300  0.25000000  0.83681700  1
  Si  Si3  1  0.17401700  0.25000000  0.33681700  1
  O  O0  1  0.78312200  0.96883700  0.09132100  1
  O  O1  1  0.71687800  0.96883700  0.59132100  1
  O  O2  1  0.34436700  0.75000000  0.16418600  1
  O  O3  1  0.72024400  0.75000000  0.80757500  1
  O  O4  1  0.77975600  0.75000000  0.30757500  1
  O  O5  1  0.15563300  0.75000000  0.66418600  1
  O  O6  1  0.78312200  0.53116300  0.09132100  1
  O  O7  1  0.71687800  0.53116300  0.59132100  1
  O  O8  1  0.21687800  0.46883700  0.90867900  1
  O  O9  1  0.28312200  0.46883700  0.40867900  1
  O  O10  1  0.22024400  0.25000000  0.69242500  1
  O  O11  1  0.84436700  0.25000000  0.33581400  1
  O  O12  1  0.27975600  0.25000000  0.19242500  1
  O  O13  1  0.65563300  0.25000000  0.83581400  1
  O  O14  1  0.21687800  0.03116300  0.90867900  1
  O  O15  1  0.28312200  0.03116300  0.40867900  1
loop_
_geom_bond_atom_site_label_1
_geom_bond_atom_site_label_2
_geom_bond_distance
_geom_bond_site_symmetry_2
Li0 O5 1.929940 1_555
Li0 O15 1.964290 1_565
Li0 O10 1.990024 1_565
Li0 O1 2.013076 1_555
Li1 O11 1.929940 1_555
Li1 O1 1.964290 1_545
Li1 O4 1.990024 1_545
Li1 O15 2.013076 1_555
Li2 O2 1.929940 1_555
Li2 O14 1.964290 1_564
Li2 O12 1.990024 1_565
Li2 O0 2.013076 1_455
Li3 O5 1.929940 1_555
Li3 O9 1.964290 1_555
Li3 O10 1.990024 1_555
Li3 O7 2.013076 1_555
Li4 O2 1.929940 1_555
Li4 O8 1.964290 1_554
Li4 O12 1.990024 1_555
Li4 O6 2.013076 1_455
Li5 O13 1.929940 1_555
Li5 O6 1.964290 1_556
Li5 O3 1.990024 1_555
Li5 O8 2.013076 1_655
Li6 O11 1.929940 1_555
Li6 O7 1.964290 1_555
Li6 O4 1.990024 1_555
Li6 O9 2.013076 1_555
Li7 O13 1.929940 1_555
Li7 O0 1.964290 1_546
Li7 O3 1.990024 1_545
Li7 O14 2.013076 1_655
Co0 O2 1.996476 1_555
Co0 O9 2.003657 1_555
Co0 O15 2.003657 1_565
Co0 O4 2.016865 1_455
Co1 O5 1.996476 1_555
Co1 O8 2.003657 1_555
Co1 O14 2.003657 1_565
Co1 O3 2.016865 1_555
Co2 O11 1.996476 1_555
Co2 O0 2.003657 1_545
Co2 O6 2.003657 1_555
Co2 O12 2.016865 1_555
Co3 O13 1.996476 1_555
Co3 O7 2.003657 1_555
Co3 O1 2.003657 1_545
Co3 O10 2.016865 1_655
O0 Si0 1.655994 1_555
O1 Si1 1.655994 1_555
O2 Si0 1.652880 1_555
O3 Si1 1.660830 1_555
O4 Si0 1.660830 1_555
O5 Si1 1.652880 1_455
O6 Si0 1.655994 1_555
O7 Si1 1.655994 1_555
O8 Si2 1.655994 1_555
O9 Si3 1.655994 1_555
O10 Si2 1.660830 1_555
O11 Si3 1.652880 1_655
O12 Si3 1.660830 1_555
O13 Si2 1.652880 1_555
O14 Si2 1.655994 1_555
O15 Si3 1.655994 1_555
