# generated using pymatgen
data_La2WO6
_symmetry_space_group_name_H-M   'P 1'
_cell_length_a   10.34536126
_cell_length_b   10.34536126
_cell_length_c   5.68092462
_cell_angle_alpha   75.90151791
_cell_angle_beta   75.90151791
_cell_angle_gamma   68.90038048
_symmetry_Int_Tables_number   1
_chemical_formula_structural   La2WO6
_chemical_formula_sum   'La8 W4 O24'
_cell_volume   541.93255354
_cell_formula_units_Z   4
loop_
 _symmetry_equiv_pos_site_id
 _symmetry_equiv_pos_as_xyz
  1  'x, y, z'
loop_
 _atom_site_type_symbol
 _atom_site_label
 _atom_site_symmetry_multiplicity
 _atom_site_fract_x
 _atom_site_fract_y
 _atom_site_fract_z
 _atom_site_occupancy
  La  La0  1  0.94043700  0.71011300  0.38839000  1
  La  La1  1  0.71011300  0.94043700  0.88839000  1
  La  La2  1  0.36903700  0.63096300  0.25000000  1
  La  La3  1  0.88926900  0.11073100  0.25000000  1
  La  La4  1  0.11073100  0.88926900  0.75000000  1
  La  La5  1  0.63096300  0.36903700  0.75000000  1
  La  La6  1  0.28988700  0.05956300  0.11161000  1
  La  La7  1  0.05956300  0.28988700  0.61161000  1
  W  W0  1  0.80033900  0.50381900  0.06401500  1
  W  W1  1  0.50381900  0.80033900  0.56401500  1
  W  W2  1  0.49618100  0.19966100  0.43598500  1
  W  W3  1  0.19966100  0.49618100  0.93598500  1
  O  O0  1  0.89344300  0.92087600  0.07771700  1
  O  O1  1  0.92087600  0.89344300  0.57771700  1
  O  O2  1  0.52738300  0.93327100  0.27738500  1
  O  O3  1  0.78215300  0.67412500  0.14585500  1
  O  O4  1  0.93327100  0.52738300  0.77738500  1
  O  O5  1  0.67412500  0.78215300  0.64585500  1
  O  O6  1  0.82708500  0.38394300  0.36692000  1
  O  O7  1  0.38394300  0.82708500  0.86692000  1
  O  O8  1  0.61794100  0.54273200  0.02326000  1
  O  O9  1  0.32003600  0.83707400  0.42021300  1
  O  O10  1  0.54273200  0.61794100  0.52326000  1
  O  O11  1  0.83707400  0.32003600  0.92021300  1
  O  O12  1  0.16292600  0.67996400  0.07978700  1
  O  O13  1  0.45726800  0.38205900  0.47674000  1
  O  O14  1  0.67996400  0.16292600  0.57978700  1
  O  O15  1  0.38205900  0.45726800  0.97674000  1
  O  O16  1  0.61605700  0.17291500  0.13308000  1
  O  O17  1  0.17291500  0.61605700  0.63308000  1
  O  O18  1  0.32587500  0.21784700  0.35414500  1
  O  O19  1  0.06672900  0.47261700  0.22261500  1
  O  O20  1  0.21784700  0.32587500  0.85414500  1
  O  O21  1  0.47261700  0.06672900  0.72261500  1
  O  O22  1  0.07912400  0.10655700  0.42228300  1
  O  O23  1  0.10655700  0.07912400  0.92228300  1
loop_
_geom_bond_atom_site_label_1
_geom_bond_atom_site_label_2
_geom_bond_distance
_geom_bond_site_symmetry_2
La0 O1 2.325154 1_555
La0 O0 2.426008 1_555
La0 O12 2.500477 1_655
La0 O4 2.539384 1_555
La0 O3 2.550775 1_555
La0 O19 2.616733 1_655
La0 O5 2.715662 1_555
La0 O17 2.819274 1_655
La1 O0 2.325154 1_556
La1 O1 2.426008 1_555
La1 O14 2.500477 1_565
La1 O2 2.539384 1_556
La1 O5 2.550775 1_555
La1 O21 2.616733 1_565
La1 O3 2.715662 1_556
La1 O16 2.819274 1_566
La2 O9 2.392930 1_555
La2 O12 2.392930 1_555
La2 O8 2.527378 1_555
La2 O13 2.527378 1_555
La2 O10 2.596112 1_555
La2 O15 2.596112 1_554
La2 O7 2.605210 1_554
La2 O17 2.605210 1_555
La3 O0 2.381680 1_545
La3 O22 2.381680 1_655
La3 O14 2.482923 1_555
La3 O11 2.482923 1_554
La3 O23 2.520840 1_654
La3 O1 2.520840 1_545
La3 O16 2.870767 1_555
La3 O6 2.870767 1_555
La4 O1 2.381680 1_455
La4 O23 2.381680 1_565
La4 O12 2.482923 1_556
La4 O9 2.482923 1_555
La4 O22 2.520840 1_565
La4 O0 2.520840 1_456
La4 O17 2.870767 1_555
La4 O7 2.870767 1_555
La5 O11 2.392930 1_555
La5 O14 2.392930 1_555
La5 O10 2.527378 1_555
La5 O15 2.527378 1_555
La5 O8 2.596112 1_556
La5 O13 2.596112 1_555
La5 O6 2.605210 1_555
La5 O16 2.605210 1_556
La6 O23 2.325154 1_554
La6 O22 2.426008 1_555
La6 O9 2.500477 1_545
La6 O21 2.539384 1_554
La6 O18 2.550775 1_555
La6 O2 2.616733 1_545
La6 O20 2.715662 1_554
La6 O7 2.819274 1_544
La7 O22 2.325154 1_555
La7 O23 2.426008 1_555
La7 O11 2.500477 1_455
La7 O19 2.539384 1_555
La7 O20 2.550775 1_555
La7 O4 2.616733 1_455
La7 O18 2.715662 1_555
La7 O6 2.819274 1_455
O2 W1 1.886574 1_555
O3 W0 1.863749 1_555
O4 W0 1.886574 1_556
O5 W1 1.863749 1_555
O6 W0 1.876402 1_555
O7 W1 1.876402 1_555
O8 W0 1.843052 1_555
O9 W1 2.124138 1_555
O10 W1 1.843052 1_555
O11 W0 2.124138 1_556
O12 W3 2.124138 1_554
O13 W2 1.843052 1_555
O14 W2 2.124138 1_555
O15 W3 1.843052 1_555
O16 W2 1.876402 1_555
O17 W3 1.876402 1_555
O18 W2 1.863749 1_555
O19 W3 1.886574 1_554
O20 W3 1.863749 1_555
O21 W2 1.886574 1_555
