# generated using pymatgen
data_NaMnPCO7
_symmetry_space_group_name_H-M   'P 1'
_cell_length_a   6.25284200
_cell_length_b   9.09052406
_cell_length_c   10.47371064
_cell_angle_alpha   91.97385468
_cell_angle_beta   90.23365397
_cell_angle_gamma   91.34055196
_symmetry_Int_Tables_number   1
_chemical_formula_structural   NaMnPCO7
_chemical_formula_sum   'Na4 Mn4 P4 C4 O28'
_cell_volume   594.81938129
_cell_formula_units_Z   4
loop_
 _symmetry_equiv_pos_site_id
 _symmetry_equiv_pos_as_xyz
  1  'x, y, z'
loop_
 _atom_site_type_symbol
 _atom_site_label
 _atom_site_symmetry_multiplicity
 _atom_site_fract_x
 _atom_site_fract_y
 _atom_site_fract_z
 _atom_site_occupancy
  Na  Na0  1  0.46729100  0.24071600  0.37622900  1
  Na  Na1  1  0.02863800  0.24141200  0.87689100  1
  Na  Na2  1  0.97423800  0.75969700  0.11957700  1
  Na  Na3  1  0.97497600  0.76071500  0.62166500  1
  Mn  Mn0  1  0.74828300  0.34215100  0.10878200  1
  Mn  Mn1  1  0.75167400  0.34204300  0.60903100  1
  Mn  Mn2  1  0.26046900  0.65783100  0.39157600  1
  Mn  Mn3  1  0.26456300  0.65829800  0.89151400  1
  P  P0  1  0.25106300  0.43306300  0.14146400  1
  P  P1  1  0.25107000  0.43265100  0.64158300  1
  P  P2  1  0.75328800  0.56748400  0.35890500  1
  P  P3  1  0.75624600  0.56740300  0.85891100  1
  C  C0  1  0.74568500  0.07648500  0.13445900  1
  C  C1  1  0.74015600  0.07618300  0.63469400  1
  C  C2  1  0.24436900  0.92250300  0.36523200  1
  C  C3  1  0.25820800  0.92366500  0.86525100  1
  O  O0  1  0.23195800  0.05605900  0.34994000  1
  O  O1  1  0.25352700  0.05728400  0.85008100  1
  O  O2  1  0.75046800  0.14095200  0.02371700  1
  O  O3  1  0.73396900  0.14102200  0.52402800  1
  O  O4  1  0.74064100  0.17685600  0.22931700  1
  O  O5  1  0.74561100  0.17675800  0.72971000  1
  O  O6  1  0.05634200  0.33009800  0.10410700  1
  O  O7  1  0.44266700  0.33203700  0.11324800  1
  O  O8  1  0.05642300  0.32576100  0.61537300  1
  O  O9  1  0.44276800  0.33577700  0.60280000  1
  O  O10  1  0.25078800  0.47415800  0.28728500  1
  O  O11  1  0.74550300  0.42504100  0.43426800  1
  O  O12  1  0.25320600  0.47448200  0.78730700  1
  O  O13  1  0.75790800  0.42504800  0.93426500  1
  O  O14  1  0.25002900  0.57509700  0.06565200  1
  O  O15  1  0.76231900  0.52656900  0.21312100  1
  O  O16  1  0.24177400  0.57415200  0.56543900  1
  O  O17  1  0.76319000  0.52655700  0.71311200  1
  O  O18  1  0.56343000  0.66904400  0.38969800  1
  O  O19  1  0.94945500  0.66942500  0.39488600  1
  O  O20  1  0.56686800  0.66770000  0.89190300  1
  O  O21  1  0.95277000  0.67100200  0.89282600  1
  O  O22  1  0.24980200  0.82185200  0.27048900  1
  O  O23  1  0.26026100  0.82262500  0.77048400  1
  O  O24  1  0.25388900  0.85874500  0.47623600  1
  O  O25  1  0.26060100  0.85920600  0.97622500  1
  O  O26  1  0.74604500  0.94213800  0.14940800  1
  O  O27  1  0.74337400  0.94226000  0.64931100  1
loop_
_geom_bond_atom_site_label_1
_geom_bond_atom_site_label_2
_geom_bond_distance
_geom_bond_site_symmetry_2
Na0 O0 2.215446 1_555
Na0 O4 2.373268 1_555
Na0 O11 2.447096 1_555
Na0 O3 2.478807 1_555
Na0 O9 2.503896 1_555
Na0 O10 2.732062 1_555
Na0 O7 2.908530 1_555
Na1 O1 2.222359 1_555
Na1 O5 2.391724 1_455
Na1 O13 2.466763 1_455
Na1 O6 2.490247 1_556
Na1 O2 2.503688 1_456
Na1 O12 2.711015 1_555
Na1 O8 2.874531 1_555
Na2 O26 2.227727 1_555
Na2 O22 2.378490 1_655
Na2 O21 2.483708 1_554
Na2 O14 2.487354 1_655
Na2 O25 2.513653 1_654
Na2 O15 2.688729 1_555
Na3 O27 2.233157 1_555
Na3 O23 2.407957 1_655
Na3 O16 2.465299 1_655
Na3 O24 2.489619 1_655
Na3 O19 2.492136 1_555
Na3 O17 2.687183 1_555
Mn0 O7 1.911870 1_555
Mn0 O6 1.932639 1_655
Mn0 O15 1.969412 1_555
Mn0 O4 1.995427 1_555
Mn0 O13 2.001540 1_554
Mn0 O2 2.007048 1_555
Mn1 O8 1.915795 1_655
Mn1 O9 1.931818 1_555
Mn1 O17 1.968430 1_555
Mn1 O5 1.996287 1_555
Mn1 O11 2.004271 1_555
Mn1 O3 2.005463 1_555
Mn2 O18 1.894944 1_555
Mn2 O19 1.950420 1_455
Mn2 O10 1.963098 1_555
Mn2 O22 1.992555 1_555
Mn2 O16 2.000328 1_555
Mn2 O24 2.003990 1_555
Mn3 O20 1.890180 1_555
Mn3 O21 1.955781 1_455
Mn3 O12 1.963833 1_555
Mn3 O23 1.992777 1_555
Mn3 O14 1.999995 1_556
Mn3 O25 2.003513 1_555
C0 O26 1.236671 1_545
C0 O2 1.317552 1_555
C0 O4 1.326553 1_555
C1 O27 1.232858 1_545
C1 O3 1.319148 1_555
C1 O5 1.327788 1_555
C2 O0 1.234262 1_565
C2 O24 1.318573 1_555
C2 O22 1.327475 1_555
C3 O1 1.231437 1_565
C3 O25 1.319746 1_555
C3 O23 1.329230 1_555
O6 P0 1.558592 1_555
O7 P0 1.549774 1_555
O8 P1 1.557056 1_555
O9 P1 1.551134 1_555
O10 P0 1.559780 1_555
O11 P2 1.539449 1_555
O12 P1 1.560096 1_555
O13 P3 1.539015 1_555
O14 P0 1.539028 1_555
O15 P2 1.560613 1_555
O16 P1 1.538767 1_555
O17 P3 1.560094 1_555
O18 P2 1.549065 1_555
O19 P2 1.557024 1_555
O20 P3 1.544364 1_555
O21 P3 1.562813 1_555
