# generated using pymatgen
data_LiV6O7F5
_symmetry_space_group_name_H-M   'P 1'
_cell_length_a   4.86361300
_cell_length_b   5.70299089
_cell_length_c   7.80716621
_cell_angle_alpha   85.08279506
_cell_angle_beta   87.60511372
_cell_angle_gamma   86.94066694
_symmetry_Int_Tables_number   1
_chemical_formula_structural   LiV6O7F5
_chemical_formula_sum   'Li1 V6 O7 F5'
_cell_volume   215.29324338
_cell_formula_units_Z   1
loop_
 _symmetry_equiv_pos_site_id
 _symmetry_equiv_pos_as_xyz
  1  'x, y, z'
loop_
 _atom_site_type_symbol
 _atom_site_label
 _atom_site_symmetry_multiplicity
 _atom_site_fract_x
 _atom_site_fract_y
 _atom_site_fract_z
 _atom_site_occupancy
  Li  Li0  1  0.48932700  0.25575900  0.75426200  1
  V  V0  1  0.49292500  0.16372800  0.33143800  1
  V  V1  1  0.53957900  0.52142700  0.02538000  1
  V  V2  1  0.53527600  0.83208100  0.65553600  1
  V  V3  1  0.95725400  0.00261800  0.99744700  1
  V  V4  1  0.99536900  0.66430300  0.32244900  1
  V  V5  1  0.98783500  0.31992300  0.66382300  1
  O  O0  1  0.31021100  0.13548600  0.57094700  1
  O  O1  1  0.30465900  0.46491700  0.23749400  1
  O  O2  1  0.69496100  0.20039600  0.10504900  1
  O  O3  1  0.68537500  0.52584700  0.76904600  1
  O  O4  1  0.70329500  0.86744000  0.42572400  1
  O  O5  1  0.79615800  0.04011300  0.76348300  1
  O  O6  1  0.81340400  0.70480800  0.10096600  1
  F  F0  1  0.19518200  0.96346100  0.22332600  1
  F  F1  1  0.19203700  0.62559500  0.56807100  1
  F  F2  1  0.18922600  0.30002900  0.89783500  1
  F  F3  1  0.30558400  0.81592200  0.89949500  1
  F  F4  1  0.80074200  0.36621000  0.43225900  1
loop_
_geom_bond_atom_site_label_1
_geom_bond_atom_site_label_2
_geom_bond_distance
_geom_bond_site_symmetry_2
Li0 O3 1.868551 1_555
Li0 O5 1.882164 1_555
Li0 O0 1.901026 1_555
O0 V5 1.987508 1_455
O0 V0 2.033935 1_555
O0 V2 2.071396 1_545
O1 V4 1.964446 1_455
O1 V1 1.985285 1_555
O1 V0 1.999760 1_555
O2 V3 1.877394 1_554
O2 V0 1.986608 1_555
O2 V1 2.001580 1_555
O3 V2 2.005246 1_555
O3 V5 2.024352 1_555
O3 V1 2.093582 1_556
O4 V2 1.939217 1_555
O4 V4 1.974553 1_555
O4 V0 2.027081 1_565
O5 V5 1.976413 1_555
O5 V3 2.007692 1_555
O5 V2 2.036954 1_545
O6 V1 1.880360 1_555
O6 V4 1.965749 1_555
O6 V3 1.967615 1_564
F0 V4 2.083708 1_455
F0 V0 2.134905 1_565
F0 V3 2.138750 1_464
F1 V5 2.117416 1_455
F1 V4 2.167735 1_455
F1 V2 2.254505 1_555
F2 Li0 1.822901 1_555
F2 V5 2.100535 1_455
F2 V3 2.158553 1_455
F2 V1 2.465021 1_556
F3 V3 2.104125 1_465
F3 V2 2.164987 1_555
F3 V1 2.165249 1_556
F4 V5 2.048431 1_555
F4 V4 2.091692 1_555
F4 V0 2.152481 1_555
