# generated using pymatgen
data_Li2Zn3(Ge3O8)2
_symmetry_space_group_name_H-M   'P 1'
_cell_length_a   8.31584600
_cell_length_b   8.31675600
_cell_length_c   8.32152267
_cell_angle_alpha   89.74770979
_cell_angle_beta   90.00000000
_cell_angle_gamma   90.00000000
_symmetry_Int_Tables_number   1
_chemical_formula_structural   Li2Zn3(Ge3O8)2
_chemical_formula_sum   'Li4 Zn6 Ge12 O32'
_cell_volume   575.51810276
_cell_formula_units_Z   2
loop_
 _symmetry_equiv_pos_site_id
 _symmetry_equiv_pos_as_xyz
  1  'x, y, z'
loop_
 _atom_site_type_symbol
 _atom_site_label
 _atom_site_symmetry_multiplicity
 _atom_site_fract_x
 _atom_site_fract_y
 _atom_site_fract_z
 _atom_site_occupancy
  Li  Li0  1  0.62391800  0.62407900  0.37614900  1
  Li  Li1  1  0.75024100  0.24909800  0.50248900  1
  Li  Li2  1  0.25024100  0.75090200  0.49751100  1
  Li  Li3  1  0.12391800  0.37592100  0.62385100  1
  Zn  Zn0  1  0.99800600  0.00068700  0.74738000  1
  Zn  Zn1  1  0.49950800  0.49832300  0.74891000  1
  Zn  Zn2  1  0.25130000  0.25022400  0.99832700  1
  Zn  Zn3  1  0.75130000  0.74977600  0.00167300  1
  Zn  Zn4  1  0.49800600  0.99931300  0.25262000  1
  Zn  Zn5  1  0.99950800  0.50167700  0.25109000  1
  Ge  Ge0  1  0.62514300  0.11776500  0.87857800  1
  Ge  Ge1  1  0.13234000  0.63073500  0.86734100  1
  Ge  Ge2  1  0.87887700  0.36980900  0.87414200  1
  Ge  Ge3  1  0.63234000  0.36926500  0.13265900  1
  Ge  Ge4  1  0.37887700  0.63019100  0.12585800  1
  Ge  Ge5  1  0.12514300  0.88223500  0.12142200  1
  Ge  Ge6  1  0.11551600  0.12788100  0.37274800  1
  Ge  Ge7  1  0.37845000  0.37999700  0.37870600  1
  Ge  Ge8  1  0.87317200  0.88315800  0.36993200  1
  Ge  Ge9  1  0.37317200  0.11684200  0.63006800  1
  Ge  Ge10  1  0.87845000  0.62000300  0.62129400  1
  Ge  Ge11  1  0.61551600  0.87211900  0.62725200  1
  O  O0  1  0.10302600  0.39362300  0.87858100  1
  O  O1  1  0.63947800  0.36225800  0.89070700  1
  O  O2  1  0.11193200  0.85669400  0.89910600  1
  O  O3  1  0.63778400  0.89625700  0.85585700  1
  O  O4  1  0.39588900  0.13799900  0.85094100  1
  O  O5  1  0.85429100  0.14874500  0.86350900  1
  O  O6  1  0.35263300  0.61179900  0.89624100  1
  O  O7  1  0.88882700  0.61245900  0.86224800  1
  O  O8  1  0.13778400  0.10374300  0.14414300  1
  O  O9  1  0.38882700  0.38754100  0.13775200  1
  O  O10  1  0.61193200  0.14330600  0.10089400  1
  O  O11  1  0.85263300  0.38820100  0.10375900  1
  O  O12  1  0.13947800  0.63774200  0.10929300  1
  O  O13  1  0.35429100  0.85125500  0.13649100  1
  O  O14  1  0.60302600  0.60637700  0.12141900  1
  O  O15  1  0.89588900  0.86200100  0.14905900  1
  O  O16  1  0.36010300  0.14167000  0.38859400  1
  O  O17  1  0.89734200  0.10581700  0.39203500  1
  O  O18  1  0.14240300  0.35294900  0.37121600  1
  O  O19  1  0.60731300  0.36930100  0.35297600  1
  O  O20  1  0.37026800  0.60107400  0.35445800  1
  O  O21  1  0.87774900  0.64370300  0.39765800  1
  O  O22  1  0.11095900  0.88983900  0.36022300  1
  O  O23  1  0.64853000  0.87738000  0.39199100  1
  O  O24  1  0.14853000  0.12262000  0.60800900  1
  O  O25  1  0.61095900  0.11016100  0.63977700  1
  O  O26  1  0.37774900  0.35629700  0.60234200  1
  O  O27  1  0.87026800  0.39892600  0.64554200  1
  O  O28  1  0.10731300  0.63069900  0.64702400  1
  O  O29  1  0.64240300  0.64705100  0.62878400  1
  O  O30  1  0.39734200  0.89418300  0.60796500  1
  O  O31  1  0.86010300  0.85833000  0.61140600  1
loop_
_geom_bond_atom_site_label_1
_geom_bond_atom_site_label_2
_geom_bond_distance
_geom_bond_site_symmetry_2
Li0 O29 2.117396 1_555
Li0 O23 2.121240 1_555
Li0 O21 2.124733 1_555
Li0 O20 2.125723 1_555
Li0 O14 2.132583 1_555
Li0 O19 2.133003 1_555
Li1 O17 1.941868 1_555
Li1 O19 1.987237 1_555
Li1 O25 1.992557 1_555
Li1 O27 1.994778 1_555
Li2 O30 1.941868 1_555
Li2 O28 1.987237 1_555
Li2 O22 1.992557 1_555
Li2 O20 1.994778 1_555
Li3 O18 2.117396 1_555
Li3 O24 2.121240 1_555
Li3 O26 2.124733 1_555
Li3 O27 2.125723 1_455
Li3 O0 2.132583 1_555
Li3 O28 2.133003 1_555
Ge0 O3 1.855713 1_545
Ge0 O10 1.866328 1_556
Ge0 O5 1.926910 1_555
Ge0 O4 1.927534 1_555
Ge0 O25 1.991968 1_555
Ge0 O1 2.039822 1_555
Ge1 O28 1.845149 1_555
Ge1 O6 1.854251 1_555
Ge1 O2 1.906466 1_555
Ge1 O0 1.988804 1_555
Ge1 O12 2.015383 1_556
Ge1 O7 2.031169 1_455
Ge2 O5 1.852370 1_555
Ge2 O0 1.874862 1_655
Ge2 O27 1.917930 1_555
Ge2 O11 1.929926 1_556
Ge2 O1 1.996541 1_555
Ge2 O7 2.021745 1_555
Ge3 O19 1.845149 1_555
Ge3 O11 1.854251 1_555
Ge3 O10 1.906466 1_555
Ge3 O14 1.988804 1_555
Ge3 O1 2.015383 1_554
Ge3 O9 2.031169 1_555
Ge4 O13 1.852370 1_555
Ge4 O14 1.874862 1_555
Ge4 O20 1.917930 1_555
Ge4 O6 1.929926 1_554
Ge4 O12 1.996541 1_555
Ge4 O9 2.021745 1_555
Ge5 O8 1.855713 1_565
Ge5 O2 1.866328 1_554
Ge5 O13 1.926910 1_555
Ge5 O15 1.927534 1_455
Ge5 O22 1.991968 1_555
Ge5 O12 2.039822 1_555
Ge6 O17 1.830536 1_455
Ge6 O18 1.885129 1_555
Ge6 O8 1.922722 1_555
Ge6 O24 1.977179 1_555
Ge6 O22 1.983299 1_545
Ge6 O16 2.041474 1_555
Ge7 O20 1.850051 1_555
Ge7 O26 1.870547 1_555
Ge7 O19 1.917304 1_555
Ge7 O18 1.976792 1_555
Ge7 O16 1.989312 1_555
Ge7 O9 2.007665 1_555
Ge8 O15 1.856809 1_555
Ge8 O17 1.872537 1_565
Ge8 O23 1.877680 1_555
Ge8 O22 1.979820 1_655
Ge8 O21 2.004161 1_555
Ge8 O31 2.022031 1_555
Ge9 O4 1.856809 1_555
Ge9 O30 1.872537 1_545
Ge9 O24 1.877680 1_555
Ge9 O25 1.979820 1_555
Ge9 O26 2.004161 1_555
Ge9 O16 2.022031 1_555
Ge10 O27 1.850051 1_555
Ge10 O21 1.870547 1_555
Ge10 O28 1.917304 1_655
Ge10 O29 1.976792 1_555
Ge10 O31 1.989312 1_555
Ge10 O7 2.007665 1_555
Ge11 O30 1.830536 1_555
Ge11 O29 1.885129 1_555
Ge11 O3 1.922722 1_555
Ge11 O23 1.977179 1_555
Ge11 O25 1.983299 1_565
Ge11 O31 2.041474 1_555
O0 Zn2 1.981202 1_555
O1 Zn1 2.003983 1_555
O2 Zn0 1.978006 1_465
O3 Zn3 1.958207 1_556
O4 Zn2 1.957340 1_555
O5 Zn0 1.972028 1_555
O6 Zn1 1.973771 1_555
O7 Zn3 1.992481 1_556
O8 Zn2 1.958207 1_554
O9 Zn2 1.992481 1_554
O10 Zn4 1.978006 1_545
O11 Zn5 1.973771 1_555
O12 Zn5 2.003983 1_455
O13 Zn4 1.972028 1_555
O14 Zn3 1.981202 1_555
O15 Zn3 1.957340 1_555
O16 Zn4 2.002237 1_545
O18 Zn5 1.982529 1_455
O21 Zn5 1.980080 1_555
O23 Zn4 1.982408 1_555
O24 Zn0 1.982408 1_455
O26 Zn1 1.980080 1_555
O29 Zn1 1.982529 1_555
O31 Zn0 2.002237 1_565
