# generated using pymatgen
data_LiMnF3
_symmetry_space_group_name_H-M   'P 1'
_cell_length_a   12.14357869
_cell_length_b   12.14357869
_cell_length_c   12.14357874
_cell_angle_alpha   28.48385005
_cell_angle_beta   28.48385005
_cell_angle_gamma   28.48384947
_symmetry_Int_Tables_number   1
_chemical_formula_structural   LiMnF3
_chemical_formula_sum   'Li6 Mn6 F18'
_cell_volume   359.98857764
_cell_formula_units_Z   6
loop_
 _symmetry_equiv_pos_site_id
 _symmetry_equiv_pos_as_xyz
  1  'x, y, z'
loop_
 _atom_site_type_symbol
 _atom_site_label
 _atom_site_symmetry_multiplicity
 _atom_site_fract_x
 _atom_site_fract_y
 _atom_site_fract_z
 _atom_site_occupancy
  Li  Li0  1  0.56398100  0.93601900  0.25000000  1
  Li  Li1  1  0.25000000  0.56398100  0.93601900  1
  Li  Li2  1  0.06398100  0.75000000  0.43601900  1
  Li  Li3  1  0.93601900  0.25000000  0.56398100  1
  Li  Li4  1  0.75000000  0.43601900  0.06398100  1
  Li  Li5  1  0.43601900  0.06398100  0.75000000  1
  Mn  Mn0  1  0.50000000  0.50000000  0.50000000  1
  Mn  Mn1  1  0.15576300  0.15576300  0.15576300  1
  Mn  Mn2  1  0.34423700  0.34423700  0.34423700  1
  Mn  Mn3  1  0.65576300  0.65576300  0.65576300  1
  Mn  Mn4  1  0.84423700  0.84423700  0.84423700  1
  Mn  Mn5  1  0.00000000  0.00000000  0.00000000  1
  F  F0  1  0.50024100  0.86605200  0.20888700  1
  F  F1  1  0.63394800  0.99975900  0.29111300  1
  F  F2  1  0.59159300  0.59159300  0.59159300  1
  F  F3  1  0.00024100  0.70888700  0.36605200  1
  F  F4  1  0.13394800  0.79111300  0.49975900  1
  F  F5  1  0.20888700  0.50024100  0.86605200  1
  F  F6  1  0.25000000  0.25000000  0.25000000  1
  F  F7  1  0.29111300  0.63394800  0.99975900  1
  F  F8  1  0.09159300  0.09159300  0.09159300  1
  F  F9  1  0.90840700  0.90840700  0.90840700  1
  F  F10  1  0.70888700  0.36605200  0.00024100  1
  F  F11  1  0.75000000  0.75000000  0.75000000  1
  F  F12  1  0.79111300  0.49975900  0.13394800  1
  F  F13  1  0.86605200  0.20888700  0.50024100  1
  F  F14  1  0.99975900  0.29111300  0.63394800  1
  F  F15  1  0.40840700  0.40840700  0.40840700  1
  F  F16  1  0.36605200  0.00024100  0.70888700  1
  F  F17  1  0.49975900  0.13394800  0.79111300  1
loop_
_geom_bond_atom_site_label_1
_geom_bond_atom_site_label_2
_geom_bond_distance
_geom_bond_site_symmetry_2
F0 Li0 2.037500 1_555
F0 Mn0 2.153427 1_555
F0 Mn4 2.174437 1_554
F0 Mn1 2.275006 1_565
F1 Li0 2.037500 1_555
F1 Mn5 2.153427 1_665
F1 Mn3 2.174437 1_555
F1 Mn2 2.275006 1_565
F2 Li3 2.072126 1_555
F2 Li0 2.072126 1_555
F2 Li1 2.072126 1_555
F2 Mn3 2.241449 1_555
F3 Li2 2.037500 1_555
F3 Mn5 2.153427 1_565
F3 Mn2 2.174437 1_555
F3 Mn3 2.275006 1_455
F4 Li2 2.037500 1_555
F4 Mn0 2.153427 1_555
F4 Mn1 2.174437 1_565
F4 Mn4 2.275006 1_455
F5 Li1 2.037500 1_555
F5 Mn0 2.153427 1_555
F5 Mn4 2.174437 1_455
F5 Mn1 2.275006 1_556
F6 Li0 1.876051 1_545
F6 Li3 1.876051 1_455
F6 Li1 1.876051 1_554
F7 Li1 2.037500 1_555
F7 Mn5 2.153427 1_566
F7 Mn3 2.174437 1_555
F7 Mn2 2.275006 1_556
F8 Li4 2.072126 1_455
F8 Li5 2.072126 1_554
F8 Li2 2.072126 1_545
F8 Mn1 2.241449 1_555
F9 Li1 2.072126 1_655
F9 Li0 2.072126 1_556
F9 Li3 2.072126 1_565
F9 Mn4 2.241449 1_555
F10 Li4 2.037500 1_555
F10 Mn5 2.153427 1_655
F10 Mn2 2.174437 1_555
F10 Mn3 2.275006 1_554
F11 Li5 1.876051 1_565
F11 Li2 1.876051 1_655
F11 Li4 1.876051 1_556
F12 Li4 2.037500 1_555
F12 Mn0 2.153427 1_555
F12 Mn1 2.174437 1_655
F12 Mn4 2.275006 1_554
F13 Li3 2.037500 1_555
F13 Mn0 2.153427 1_555
F13 Mn4 2.174437 1_545
F13 Mn1 2.275006 1_655
F14 Li3 2.037500 1_555
F14 Mn5 2.153427 1_656
F14 Mn3 2.174437 1_555
F14 Mn2 2.275006 1_655
F15 Li2 2.072126 1_555
F15 Li5 2.072126 1_555
F15 Li4 2.072126 1_555
F15 Mn2 2.241449 1_555
F16 Li5 2.037500 1_555
F16 Mn5 2.153427 1_556
F16 Mn2 2.174437 1_555
F16 Mn3 2.275006 1_545
F17 Li5 2.037500 1_555
F17 Mn0 2.153427 1_555
F17 Mn1 2.174437 1_556
F17 Mn4 2.275006 1_545
