# generated using pymatgen
data_Bi4O5F2
_symmetry_space_group_name_H-M   'P 1'
_cell_length_a   5.62128700
_cell_length_b   10.66787000
_cell_length_c   14.22942255
_cell_angle_alpha   82.54694768
_cell_angle_beta   90.00000000
_cell_angle_gamma   90.00000000
_symmetry_Int_Tables_number   1
_chemical_formula_structural   Bi4O5F2
_chemical_formula_sum   'Bi16 O20 F8'
_cell_volume   846.08893887
_cell_formula_units_Z   4
loop_
 _symmetry_equiv_pos_site_id
 _symmetry_equiv_pos_as_xyz
  1  'x, y, z'
loop_
 _atom_site_type_symbol
 _atom_site_label
 _atom_site_symmetry_multiplicity
 _atom_site_fract_x
 _atom_site_fract_y
 _atom_site_fract_z
 _atom_site_occupancy
  Bi  Bi0  1  0.68201800  0.61098700  0.03556000  1
  Bi  Bi1  1  0.69913000  0.25834000  0.11673600  1
  Bi  Bi2  1  0.28478500  0.80970800  0.16736500  1
  Bi  Bi3  1  0.18520300  0.43407900  0.22627800  1
  Bi  Bi4  1  0.23606900  0.08645700  0.29243000  1
  Bi  Bi5  1  0.78676200  0.66968800  0.31406900  1
  Bi  Bi6  1  0.71639900  0.27912200  0.38424400  1
  Bi  Bi7  1  0.74959000  0.91704400  0.44860300  1
  Bi  Bi8  1  0.24959000  0.08295600  0.55139700  1
  Bi  Bi9  1  0.21639900  0.72087800  0.61575600  1
  Bi  Bi10  1  0.28676200  0.33031200  0.68593100  1
  Bi  Bi11  1  0.73606900  0.91354300  0.70757000  1
  Bi  Bi12  1  0.68520300  0.56592100  0.77372200  1
  Bi  Bi13  1  0.78478500  0.19029200  0.83263500  1
  Bi  Bi14  1  0.19913000  0.74166000  0.88326400  1
  Bi  Bi15  1  0.18201800  0.38901300  0.96444000  1
  O  O0  1  0.34271900  0.73740000  0.03479900  1
  O  O1  1  0.97475200  0.42262800  0.09607300  1
  O  O2  1  0.47761000  0.43092600  0.08598000  1
  O  O3  1  0.99769300  0.68147200  0.18956300  1
  O  O4  1  0.49948800  0.65358200  0.22042500  1
  O  O5  1  0.98436100  0.24869200  0.26205000  1
  O  O6  1  0.47830600  0.26125900  0.26505000  1
  O  O7  1  0.84515800  0.47118500  0.31705600  1
  O  O8  1  0.00294700  0.07700500  0.42029300  1
  O  O9  1  0.49284600  0.07589200  0.41671700  1
  O  O10  1  0.99284600  0.92410800  0.58328300  1
  O  O11  1  0.50294700  0.92299500  0.57970700  1
  O  O12  1  0.34515800  0.52881500  0.68294400  1
  O  O13  1  0.97830600  0.73874100  0.73495000  1
  O  O14  1  0.48436100  0.75130800  0.73795000  1
  O  O15  1  0.99948800  0.34641800  0.77957500  1
  O  O16  1  0.49769300  0.31852800  0.81043700  1
  O  O17  1  0.97761000  0.56907400  0.91402000  1
  O  O18  1  0.47475200  0.57737200  0.90392700  1
  O  O19  1  0.84271900  0.26260000  0.96520100  1
  F  F0  1  0.32489100  0.17781100  0.07997500  1
  F  F1  1  0.75980000  0.92254500  0.27429900  1
  F  F2  1  0.24273300  0.83698400  0.34706400  1
  F  F3  1  0.34905900  0.33419900  0.44390300  1
  F  F4  1  0.84905900  0.66580100  0.55609700  1
  F  F5  1  0.74273300  0.16301600  0.65293600  1
  F  F6  1  0.25980000  0.07745500  0.72570100  1
  F  F7  1  0.82489100  0.82218900  0.92002500  1
loop_
_geom_bond_atom_site_label_1
_geom_bond_atom_site_label_2
_geom_bond_distance
_geom_bond_site_symmetry_2
Bi0 O2 2.273153 1_555
Bi0 O18 2.273471 1_554
Bi0 O0 2.335106 1_555
Bi0 O17 2.480412 1_554
Bi0 O1 2.652927 1_555
Bi0 F7 2.731878 1_554
Bi1 O2 2.218745 1_555
Bi1 O19 2.297299 1_554
Bi1 O1 2.329135 1_555
Bi1 F0 2.356646 1_555
Bi1 O6 2.452094 1_555
Bi1 O5 2.608005 1_555
Bi2 O3 2.112710 1_455
Bi2 O4 2.115286 1_555
Bi2 O0 2.153329 1_555
Bi2 F2 2.621428 1_555
Bi3 O1 2.214902 1_455
Bi3 O5 2.276795 1_455
Bi3 O7 2.368897 1_455
Bi3 O6 2.480742 1_555
Bi3 O2 2.589549 1_555
Bi4 O5 2.233857 1_455
Bi4 O8 2.233857 1_555
Bi4 O9 2.274237 1_555
Bi4 O6 2.301052 1_555
Bi4 F2 2.674282 1_545
Bi5 O4 2.114760 1_555
Bi5 O3 2.121946 1_555
Bi5 O7 2.137863 1_555
Bi5 F1 2.687641 1_555
Bi6 O6 2.188166 1_555
Bi6 O7 2.264448 1_555
Bi6 F3 2.336489 1_555
Bi6 O5 2.354565 1_555
Bi6 O9 2.496630 1_555
Bi6 O8 2.686966 1_655
Bi7 O8 2.219057 1_665
Bi7 O9 2.227304 1_565
Bi7 O11 2.331785 1_555
Bi7 O10 2.363392 1_555
Bi7 F1 2.473984 1_555
Bi8 O11 2.219057 1_545
Bi8 O10 2.227304 1_445
Bi8 O8 2.331785 1_555
Bi8 O9 2.363392 1_555
Bi8 F6 2.473984 1_555
Bi9 O13 2.188166 1_455
Bi9 O12 2.264448 1_555
Bi9 F4 2.336489 1_455
Bi9 O14 2.354565 1_555
Bi9 O10 2.496630 1_455
Bi9 O11 2.686966 1_555
Bi10 O15 2.114760 1_455
Bi10 O16 2.121946 1_555
Bi10 O12 2.137863 1_555
Bi10 F6 2.687641 1_555
Bi11 O14 2.233857 1_555
Bi11 O11 2.233857 1_555
Bi11 O10 2.274237 1_555
Bi11 O13 2.301052 1_555
Bi11 F5 2.674282 1_565
Bi12 O18 2.214902 1_555
Bi12 O14 2.276795 1_555
Bi12 O12 2.368897 1_555
Bi12 O13 2.480742 1_555
Bi12 O17 2.589549 1_555
Bi13 O16 2.112710 1_555
Bi13 O15 2.115286 1_555
Bi13 O19 2.153329 1_555
Bi13 F5 2.621428 1_555
Bi14 O17 2.218745 1_455
Bi14 O0 2.297299 1_556
Bi14 O18 2.329135 1_555
Bi14 F7 2.356646 1_455
Bi14 O13 2.452094 1_455
Bi14 O14 2.608005 1_555
Bi15 O17 2.273153 1_455
Bi15 O1 2.273471 1_456
Bi15 O19 2.335106 1_455
Bi15 O2 2.480412 1_556
Bi15 O18 2.652927 1_555
Bi15 F0 2.731878 1_556
