# generated using pymatgen
data_Mn2AlO4
_symmetry_space_group_name_H-M   'P 1'
_cell_length_a   4.96663400
_cell_length_b   10.41957200
_cell_length_c   6.29404200
_cell_angle_alpha   90.00002010
_cell_angle_beta   89.99937902
_cell_angle_gamma   90.00028140
_symmetry_Int_Tables_number   1
_chemical_formula_structural   Mn2AlO4
_chemical_formula_sum   'Mn8 Al4 O16'
_cell_volume   325.71793583
_cell_formula_units_Z   4
loop_
 _symmetry_equiv_pos_site_id
 _symmetry_equiv_pos_as_xyz
  1  'x, y, z'
loop_
 _atom_site_type_symbol
 _atom_site_label
 _atom_site_symmetry_multiplicity
 _atom_site_fract_x
 _atom_site_fract_y
 _atom_site_fract_z
 _atom_site_occupancy
  Mn  Mn0  1  0.50000200  0.50003300  0.99996900  1
  Mn  Mn1  1  0.50007100  0.49998500  0.49997700  1
  Mn  Mn2  1  0.96965100  0.27777000  0.24995400  1
  Mn  Mn3  1  0.03039400  0.72223000  0.74996200  1
  Mn  Mn4  1  0.00001200  0.00002200  0.00008800  1
  Mn  Mn5  1  0.00009600  0.00001100  0.49996800  1
  Mn  Mn6  1  0.46937700  0.22222800  0.75001600  1
  Mn  Mn7  1  0.53053500  0.77780800  0.25002600  1
  Al  Al0  1  0.42142200  0.08880400  0.24997000  1
  Al  Al1  1  0.92141400  0.41116700  0.75005000  1
  Al  Al2  1  0.07862600  0.58885500  0.25005500  1
  Al  Al3  1  0.57848200  0.91116000  0.74997400  1
  O  O0  1  0.75602200  0.06436100  0.75000700  1
  O  O1  1  0.25614200  0.43565100  0.24997100  1
  O  O2  1  0.74387500  0.56436100  0.74997200  1
  O  O3  1  0.24388100  0.93562000  0.25000900  1
  O  O4  1  0.76924300  0.09348300  0.25000500  1
  O  O5  1  0.26917800  0.40650500  0.74998700  1
  O  O6  1  0.73085600  0.59350700  0.24998700  1
  O  O7  1  0.23077200  0.90650200  0.75000800  1
  O  O8  1  0.24781800  0.14881000  0.02063800  1
  O  O9  1  0.24790400  0.14883600  0.47934200  1
  O  O10  1  0.74798000  0.35111600  0.52065900  1
  O  O11  1  0.74778600  0.35119300  0.97937900  1
  O  O12  1  0.25204800  0.64889300  0.02069300  1
  O  O13  1  0.25223900  0.64881500  0.47935500  1
  O  O14  1  0.75213000  0.85115000  0.52070600  1
  O  O15  1  0.75204500  0.85112400  0.97927400  1
loop_
_geom_bond_atom_site_label_1
_geom_bond_atom_site_label_2
_geom_bond_distance
_geom_bond_site_symmetry_2
Mn0 O11 1.984048 1_555
Mn0 O12 1.984790 1_556
Mn0 O2 2.095749 1_555
Mn0 O1 2.095915 1_556
Mn0 O6 2.177047 1_556
Mn0 O5 2.177056 1_555
Mn1 O13 1.984130 1_555
Mn1 O10 1.984709 1_555
Mn1 O2 2.095721 1_555
Mn1 O1 2.095991 1_555
Mn1 O6 2.176945 1_555
Mn1 O5 2.177123 1_555
Mn2 O4 2.162833 1_555
Mn2 O10 2.167755 1_555
Mn2 O11 2.167904 1_554
Mn2 O1 2.175042 1_655
Mn2 O8 2.407779 1_655
Mn2 O9 2.408163 1_655
Mn3 O7 2.162625 1_555
Mn3 O12 2.167827 1_556
Mn3 O13 2.167963 1_555
Mn3 O2 2.175038 1_455
Mn3 O14 2.407615 1_455
Mn3 O15 2.407899 1_455
Mn4 O8 1.983669 1_555
Mn4 O15 1.985169 1_444
Mn4 O3 2.095648 1_545
Mn4 O0 2.096542 1_454
Mn4 O4 2.176291 1_455
Mn4 O7 2.177284 1_544
Mn5 O9 1.984006 1_555
Mn5 O14 1.984832 1_445
Mn5 O3 2.095530 1_545
Mn5 O0 2.096601 1_455
Mn5 O4 2.176790 1_455
Mn5 O7 2.176850 1_545
Mn6 O5 2.162271 1_555
Mn6 O9 2.167286 1_555
Mn6 O8 2.167323 1_556
Mn6 O0 2.175443 1_555
Mn6 O11 2.408686 1_555
Mn6 O10 2.408752 1_555
Mn7 O6 2.162772 1_555
Mn7 O14 2.167440 1_555
Mn7 O15 2.167468 1_554
Mn7 O3 2.175039 1_555
Mn7 O13 2.408381 1_555
Mn7 O12 2.408505 1_555
Al0 O4 1.728187 1_555
Al0 O8 1.793841 1_555
Al0 O9 1.793918 1_555
Al0 O3 1.823485 1_545
Al1 O5 1.727900 1_655
Al1 O11 1.793749 1_555
Al1 O10 1.793895 1_555
Al1 O2 1.823579 1_555
Al2 O6 1.727927 1_455
Al2 O13 1.793530 1_555
Al2 O12 1.793657 1_555
Al2 O1 1.823615 1_555
Al3 O7 1.727630 1_555
Al3 O14 1.793621 1_555
Al3 O15 1.793690 1_555
Al3 O0 1.823637 1_565
