# generated using pymatgen
data_Li3FeS3
_symmetry_space_group_name_H-M   'P 1'
_cell_length_a   12.88674900
_cell_length_b   6.55456500
_cell_length_c   6.66959629
_cell_angle_alpha   64.25020486
_cell_angle_beta   90.00000000
_cell_angle_gamma   90.00000000
_symmetry_Int_Tables_number   1
_chemical_formula_structural   Li3FeS3
_chemical_formula_sum   'Li12 Fe4 S12'
_cell_volume   507.41915097
_cell_formula_units_Z   4
loop_
 _symmetry_equiv_pos_site_id
 _symmetry_equiv_pos_as_xyz
  1  'x, y, z'
loop_
 _atom_site_type_symbol
 _atom_site_label
 _atom_site_symmetry_multiplicity
 _atom_site_fract_x
 _atom_site_fract_y
 _atom_site_fract_z
 _atom_site_occupancy
  Li  Li0  1  0.32064100  0.94077000  0.20729600  1
  Li  Li1  1  0.17935900  0.94077000  0.70729600  1
  Li  Li2  1  0.28270800  0.34646200  0.81569600  1
  Li  Li3  1  0.06162900  0.30349000  0.02186600  1
  Li  Li4  1  0.56162900  0.69651000  0.47813400  1
  Li  Li5  1  0.78270800  0.65353800  0.68430400  1
  Li  Li6  1  0.21729200  0.34646200  0.31569600  1
  Li  Li7  1  0.43837100  0.30349000  0.52186600  1
  Li  Li8  1  0.93837100  0.69651000  0.97813400  1
  Li  Li9  1  0.71729200  0.65353800  0.18430400  1
  Li  Li10  1  0.82064100  0.05923000  0.29270400  1
  Li  Li11  1  0.67935900  0.05923000  0.79270400  1
  Fe  Fe0  1  0.07137900  0.68735600  0.34013100  1
  Fe  Fe1  1  0.42862100  0.68735600  0.84013100  1
  Fe  Fe2  1  0.57137900  0.31264400  0.15986900  1
  Fe  Fe3  1  0.92862100  0.31264400  0.65986900  1
  S  S0  1  0.64517200  0.00317000  0.17403400  1
  S  S1  1  0.38030900  0.64435400  0.54125000  1
  S  S2  1  0.61053500  0.65620800  0.85594900  1
  S  S3  1  0.85482800  0.00317000  0.67403400  1
  S  S4  1  0.11969100  0.64435400  0.04125000  1
  S  S5  1  0.88946500  0.65620800  0.35594900  1
  S  S6  1  0.11053500  0.34379200  0.64405100  1
  S  S7  1  0.88030900  0.35564600  0.95875000  1
  S  S8  1  0.14517200  0.99683000  0.32596600  1
  S  S9  1  0.38946500  0.34379200  0.14405100  1
  S  S10  1  0.61969100  0.35564600  0.45875000  1
  S  S11  1  0.35482800  0.99683000  0.82596600  1
loop_
_geom_bond_atom_site_label_1
_geom_bond_atom_site_label_2
_geom_bond_distance
_geom_bond_site_symmetry_2
Li0 S1 2.359451 1_555
Li0 S11 2.446542 1_554
Li0 S8 2.475337 1_555
Li0 S9 2.640946 1_565
Li1 S4 2.359451 1_556
Li1 S8 2.446542 1_555
Li1 S11 2.475337 1_555
Li1 S6 2.640946 1_565
Li2 S1 2.374768 1_555
Li2 S11 2.446200 1_545
Li2 S6 2.500228 1_555
Li2 S9 2.579879 1_556
Li3 S7 2.372520 1_454
Li3 S8 2.402228 1_545
Li3 S4 2.412313 1_555
Li3 S6 2.497673 1_554
Li4 S1 2.372520 1_555
Li4 S0 2.402228 1_565
Li4 S10 2.412313 1_555
Li4 S2 2.497673 1_555
Li5 S7 2.374768 1_555
Li5 S3 2.446200 1_565
Li5 S2 2.500228 1_555
Li5 S5 2.579879 1_555
Li6 S4 2.374768 1_555
Li6 S8 2.446200 1_545
Li6 S9 2.500228 1_555
Li6 S6 2.579879 1_555
Li7 S10 2.372520 1_555
Li7 S11 2.402228 1_545
Li7 S1 2.412313 1_555
Li7 S9 2.497673 1_555
Li8 S4 2.372520 1_656
Li8 S3 2.402228 1_565
Li8 S7 2.412313 1_555
Li8 S5 2.497673 1_556
Li9 S10 2.374768 1_555
Li9 S0 2.446200 1_565
Li9 S5 2.500228 1_555
Li9 S2 2.579879 1_554
Li10 S7 2.359451 1_554
Li10 S3 2.446542 1_555
Li10 S0 2.475337 1_555
Li10 S5 2.640946 1_545
Li11 S10 2.359451 1_555
Li11 S0 2.446542 1_556
Li11 S3 2.475337 1_555
Li11 S2 2.640946 1_545
Fe0 S8 2.204859 1_555
Fe0 S4 2.220125 1_555
Fe0 S6 2.338455 1_555
Fe0 S5 2.351541 1_455
Fe1 S11 2.204859 1_555
Fe1 S1 2.220125 1_555
Fe1 S9 2.338455 1_556
Fe1 S2 2.351541 1_555
Fe2 S0 2.204859 1_555
Fe2 S10 2.220125 1_555
Fe2 S2 2.338455 1_554
Fe2 S9 2.351541 1_555
Fe3 S3 2.204859 1_555
Fe3 S7 2.220125 1_555
Fe3 S5 2.338455 1_555
Fe3 S6 2.351541 1_655
