# generated using pymatgen
data_Li2V2P2O11
_symmetry_space_group_name_H-M   'P 1'
_cell_length_a   6.21032700
_cell_length_b   7.86032300
_cell_length_c   10.16880200
_cell_angle_alpha   90.00000000
_cell_angle_beta   90.00000000
_cell_angle_gamma   90.00000000
_symmetry_Int_Tables_number   1
_chemical_formula_structural   Li2V2P2O11
_chemical_formula_sum   'Li4 V4 P4 O22'
_cell_volume   496.39186092
_cell_formula_units_Z   2
loop_
 _symmetry_equiv_pos_site_id
 _symmetry_equiv_pos_as_xyz
  1  'x, y, z'
loop_
 _atom_site_type_symbol
 _atom_site_label
 _atom_site_symmetry_multiplicity
 _atom_site_fract_x
 _atom_site_fract_y
 _atom_site_fract_z
 _atom_site_occupancy
  Li  Li0  1  0.54237100  0.30787900  0.63583000  1
  Li  Li1  1  0.54237100  0.69212100  0.36417000  1
  Li  Li2  1  0.45762900  0.80787900  0.86417000  1
  Li  Li3  1  0.45762900  0.19212100  0.13583000  1
  V  V0  1  0.04439500  0.70663900  0.54043500  1
  V  V1  1  0.04439500  0.29336100  0.45956500  1
  V  V2  1  0.95560500  0.20663900  0.95956500  1
  V  V3  1  0.95560500  0.79336100  0.04043500  1
  P  P0  1  0.77962800  0.55932100  0.80496300  1
  P  P1  1  0.77962800  0.44067900  0.19503700  1
  P  P2  1  0.22037200  0.05932100  0.69503700  1
  P  P3  1  0.22037200  0.94067900  0.30496300  1
  O  O0  1  0.56843300  0.50504400  0.74502000  1
  O  O1  1  0.56843300  0.49495600  0.25498000  1
  O  O2  1  0.43156700  0.00504400  0.75498000  1
  O  O3  1  0.43156700  0.99495600  0.24502000  1
  O  O4  1  0.73979600  0.70709200  0.90615000  1
  O  O5  1  0.73979600  0.29290800  0.09385000  1
  O  O6  1  0.26020400  0.20709200  0.59385000  1
  O  O7  1  0.26020400  0.79290800  0.40615000  1
  O  O8  1  0.90353800  0.41458400  0.87654800  1
  O  O9  1  0.90353800  0.58541600  0.12345200  1
  O  O10  1  0.09646200  0.91458400  0.62345200  1
  O  O11  1  0.09646200  0.08541600  0.37654800  1
  O  O12  1  0.94367800  0.62577000  0.70055700  1
  O  O13  1  0.94367800  0.37423000  0.29944300  1
  O  O14  1  0.05632200  0.12577000  0.79944300  1
  O  O15  1  0.05632200  0.87423000  0.20055700  1
  O  O16  1  0.82343600  0.72747200  0.45441400  1
  O  O17  1  0.82343600  0.27252800  0.54558600  1
  O  O18  1  0.17656400  0.22747200  0.04558600  1
  O  O19  1  0.17656400  0.77252800  0.95441400  1
  O  O20  1  0.16041300  0.50000000  0.50000000  1
  O  O21  1  0.83958700  0.00000000  0.00000000  1
loop_
_geom_bond_atom_site_label_1
_geom_bond_atom_site_label_2
_geom_bond_distance
_geom_bond_site_symmetry_2
Li0 O0 1.913335 1_555
Li0 O6 1.969916 1_555
Li0 O17 1.991513 1_555
Li1 O1 1.913335 1_555
Li1 O7 1.969916 1_555
Li1 O16 1.991513 1_555
Li2 O2 1.913335 1_565
Li2 O4 1.969916 1_555
Li2 O19 1.991513 1_555
Li3 O3 1.913335 1_545
Li3 O5 1.969916 1_555
Li3 O18 1.991513 1_555
O0 P0 1.507924 1_555
O1 P1 1.507924 1_555
O2 P2 1.507924 1_555
O3 P3 1.507924 1_555
O4 P0 1.571330 1_555
O4 V3 2.029955 1_556
O5 P1 1.571330 1_555
O5 V2 2.029955 1_554
O6 P2 1.571330 1_555
O6 V1 2.029955 1_555
O7 P3 1.571330 1_555
O7 V0 2.029955 1_555
O8 P0 1.554466 1_555
O8 V2 1.867844 1_555
O9 P1 1.554466 1_555
O9 V3 1.867844 1_555
O10 P2 1.554466 1_565
O10 V0 1.867844 1_555
O11 P3 1.554466 1_545
O11 V1 1.867844 1_555
O12 P0 1.561391 1_555
O12 V0 1.856471 1_655
O13 P1 1.561391 1_555
O13 V1 1.856471 1_655
O14 P2 1.561391 1_555
O14 V2 1.856471 1_455
O15 P3 1.561391 1_555
O15 V3 1.856471 1_455
O16 V0 1.635536 1_655
O17 V1 1.635536 1_655
O18 V2 1.635536 1_454
O19 V3 1.635536 1_456
O20 V0 1.823838 1_555
O20 V1 1.823838 1_555
O21 V2 1.823838 1_554
O21 V3 1.823838 1_545
