# generated using pymatgen
data_Li6Ni2C4SO16
_symmetry_space_group_name_H-M   'P 1'
_cell_length_a   9.31641044
_cell_length_b   9.31641044
_cell_length_c   9.31641044
_cell_angle_alpha   60.00000000
_cell_angle_beta   60.00000000
_cell_angle_gamma   60.00000000
_symmetry_Int_Tables_number   1
_chemical_formula_structural   Li6Ni2C4SO16
_chemical_formula_sum   'Li12 Ni4 C8 S2 O32'
_cell_volume   571.78247820
_cell_formula_units_Z   2
loop_
 _symmetry_equiv_pos_site_id
 _symmetry_equiv_pos_as_xyz
  1  'x, y, z'
loop_
 _atom_site_type_symbol
 _atom_site_label
 _atom_site_symmetry_multiplicity
 _atom_site_fract_x
 _atom_site_fract_y
 _atom_site_fract_z
 _atom_site_occupancy
  Li  Li0  1  0.53077500  0.96922500  0.96922500  1
  Li  Li1  1  0.53077500  0.53077500  0.96922500  1
  Li  Li2  1  0.96922500  0.53077500  0.96922500  1
  Li  Li3  1  0.53077500  0.96922500  0.53077500  1
  Li  Li4  1  0.28077500  0.28077500  0.71922500  1
  Li  Li5  1  0.28077500  0.71922500  0.71922500  1
  Li  Li6  1  0.96922500  0.53077500  0.53077500  1
  Li  Li7  1  0.96922500  0.96922500  0.53077500  1
  Li  Li8  1  0.71922500  0.28077500  0.71922500  1
  Li  Li9  1  0.28077500  0.71922500  0.28077500  1
  Li  Li10  1  0.71922500  0.28077500  0.28077500  1
  Li  Li11  1  0.71922500  0.71922500  0.28077500  1
  Ni  Ni0  1  0.62500000  0.12500000  0.12500000  1
  Ni  Ni1  1  0.12500000  0.62500000  0.12500000  1
  Ni  Ni2  1  0.12500000  0.12500000  0.12500000  1
  Ni  Ni3  1  0.12500000  0.12500000  0.62500000  1
  C  C0  1  0.34821300  0.34821300  0.95536000  1
  C  C1  1  0.34821300  0.95536000  0.34821300  1
  C  C2  1  0.34821300  0.34821300  0.34821300  1
  C  C3  1  0.95536000  0.34821300  0.34821300  1
  C  C4  1  0.29464000  0.90178700  0.90178700  1
  C  C5  1  0.90178700  0.90178700  0.90178700  1
  C  C6  1  0.90178700  0.29464000  0.90178700  1
  C  C7  1  0.90178700  0.90178700  0.29464000  1
  S  S0  1  0.50000000  0.50000000  0.50000000  1
  S  S1  1  0.75000000  0.75000000  0.75000000  1
  O  O0  1  0.56555200  0.56555200  0.30334300  1
  O  O1  1  0.56555200  0.56555200  0.56555200  1
  O  O2  1  0.56555200  0.30334300  0.56555200  1
  O  O3  1  0.30334300  0.56555200  0.56555200  1
  O  O4  1  0.49299300  0.21493500  0.95425300  1
  O  O5  1  0.33781900  0.49299300  0.95425300  1
  O  O6  1  0.49299300  0.33781900  0.21493500  1
  O  O7  1  0.21493500  0.33781900  0.95425300  1
  O  O8  1  0.49299300  0.95425300  0.33781900  1
  O  O9  1  0.33781900  0.95425300  0.21493500  1
  O  O10  1  0.21493500  0.49299300  0.33781900  1
  O  O11  1  0.33781900  0.21493500  0.49299300  1
  O  O12  1  0.95425300  0.49299300  0.21493500  1
  O  O13  1  0.21493500  0.95425300  0.49299300  1
  O  O14  1  0.95425300  0.21493500  0.33781900  1
  O  O15  1  0.29574700  0.91218100  0.75700700  1
  O  O16  1  0.95425300  0.33781900  0.49299300  1
  O  O17  1  0.29574700  0.03506500  0.91218100  1
  O  O18  1  0.03506500  0.29574700  0.75700700  1
  O  O19  1  0.29574700  0.75700700  0.03506500  1
  O  O20  1  0.91218100  0.03506500  0.75700700  1
  O  O21  1  0.03506500  0.75700700  0.91218100  1
  O  O22  1  0.91218100  0.29574700  0.03506500  1
  O  O23  1  0.75700700  0.29574700  0.91218100  1
  O  O24  1  0.03506500  0.91218100  0.29574700  1
  O  O25  1  0.75700700  0.91218100  0.03506500  1
  O  O26  1  0.91218100  0.75700700  0.29574700  1
  O  O27  1  0.75700700  0.03506500  0.29574700  1
  O  O28  1  0.94665700  0.68444800  0.68444800  1
  O  O29  1  0.68444800  0.94665700  0.68444800  1
  O  O30  1  0.68444800  0.68444800  0.68444800  1
  O  O31  1  0.68444800  0.68444800  0.94665700  1
loop_
_geom_bond_atom_site_label_1
_geom_bond_atom_site_label_2
_geom_bond_distance
_geom_bond_site_symmetry_2
Li0 O4 2.075460 1_565
Li0 O9 2.075460 1_556
Li0 O25 2.224341 1_556
Li0 O17 2.224341 1_565
Li0 O31 2.364586 1_555
Li0 O29 2.364586 1_555
Li1 O6 2.075460 1_556
Li1 O5 2.075460 1_555
Li1 O19 2.224341 1_556
Li1 O23 2.224341 1_555
Li1 O30 2.364589 1_555
Li1 O31 2.364594 1_555
Li2 O12 2.075460 1_556
Li2 O7 2.075460 1_655
Li2 O21 2.224341 1_655
Li2 O22 2.224341 1_556
Li2 O31 2.364586 1_555
Li2 O28 2.364586 1_555
Li3 O11 2.075460 1_565
Li3 O8 2.075460 1_555
Li3 O27 2.224341 1_565
Li3 O15 2.224341 1_555
Li3 O30 2.364589 1_555
Li3 O29 2.364594 1_555
Li4 O17 2.075460 1_555
Li4 O18 2.075460 1_555
Li4 O7 2.224341 1_555
Li4 O11 2.224341 1_555
Li4 O2 2.364586 1_555
Li4 O3 2.364586 1_555
Li5 O15 2.075460 1_555
Li5 O21 2.075460 1_555
Li5 O5 2.224341 1_555
Li5 O13 2.224341 1_555
Li5 O1 2.364589 1_555
Li5 O3 2.364594 1_555
Li6 O10 2.075460 1_655
Li6 O16 2.075460 1_555
Li6 O18 2.224341 1_655
Li6 O26 2.224341 1_555
Li6 O30 2.364589 1_555
Li6 O28 2.364594 1_555
Li7 O13 2.075460 1_655
Li7 O14 2.075460 1_565
Li7 O20 2.224341 1_565
Li7 O24 2.224341 1_655
Li7 O28 2.364586 1_555
Li7 O29 2.364586 1_555
Li8 O23 2.075460 1_555
Li8 O20 2.075460 1_555
Li8 O16 2.224341 1_555
Li8 O4 2.224341 1_555
Li8 O1 2.364589 1_555
Li8 O2 2.364594 1_555
Li9 O24 2.075460 1_555
Li9 O19 2.075460 1_555
Li9 O9 2.224341 1_555
Li9 O10 2.224341 1_555
Li9 O0 2.364586 1_555
Li9 O3 2.364586 1_555
Li10 O22 2.075460 1_555
Li10 O27 2.075460 1_555
Li10 O14 2.224341 1_555
Li10 O6 2.224341 1_555
Li10 O0 2.364586 1_555
Li10 O2 2.364586 1_555
Li11 O26 2.075460 1_555
Li11 O25 2.075460 1_555
Li11 O8 2.224341 1_555
Li11 O12 2.224341 1_555
Li11 O1 2.364589 1_555
Li11 O0 2.364594 1_555
Ni0 O6 2.082802 1_555
Ni0 O27 2.082802 1_555
Ni0 O23 2.082802 1_554
Ni0 O25 2.082802 1_545
Ni0 O8 2.082802 1_545
Ni0 O4 2.082802 1_554
Ni1 O10 2.082802 1_555
Ni1 O19 2.082802 1_555
Ni1 O26 2.082802 1_455
Ni1 O21 2.082802 1_554
Ni1 O5 2.082802 1_554
Ni1 O12 2.082802 1_455
Ni2 O9 2.082802 1_545
Ni2 O7 2.082802 1_554
Ni2 O14 2.082802 1_455
Ni2 O17 2.082802 1_554
Ni2 O24 2.082802 1_545
Ni2 O22 2.082802 1_455
Ni3 O11 2.082802 1_555
Ni3 O18 2.082802 1_555
Ni3 O15 2.082802 1_545
Ni3 O20 2.082802 1_455
Ni3 O16 2.082802 1_455
Ni3 O13 2.082802 1_545
C0 O7 1.298182 1_555
C0 O4 1.298187 1_555
C0 O5 1.298191 1_555
C1 O9 1.298182 1_555
C1 O13 1.298187 1_555
C1 O8 1.298191 1_555
C2 O6 1.298186 1_555
C2 O11 1.298186 1_555
C2 O10 1.298186 1_555
C3 O14 1.298182 1_555
C3 O12 1.298187 1_555
C3 O16 1.298191 1_555
C4 O17 1.298182 1_565
C4 O19 1.298187 1_556
C4 O15 1.298191 1_555
C5 O21 1.298186 1_655
C5 O20 1.298186 1_565
C5 O25 1.298186 1_556
C6 O22 1.298182 1_556
C6 O18 1.298187 1_655
C6 O23 1.298191 1_555
C7 O24 1.298182 1_655
C7 O27 1.298187 1_565
C7 O26 1.298191 1_555
O0 S0 1.495934 1_555
O1 S0 1.495926 1_555
O2 S0 1.495934 1_555
O3 S0 1.495934 1_555
O28 S1 1.495934 1_555
O29 S1 1.495934 1_555
O30 S1 1.495926 1_555
O31 S1 1.495934 1_555
