# generated using pymatgen
data_LiFeBO3
_symmetry_space_group_name_H-M   'P 1'
_cell_length_a   6.29092111
_cell_length_b   8.20653314
_cell_length_c   8.78659216
_cell_angle_alpha   117.81344174
_cell_angle_beta   68.97265207
_cell_angle_gamma   89.98851110
_symmetry_Int_Tables_number   1
_chemical_formula_structural   LiFeBO3
_chemical_formula_sum   'Li6 Fe6 B6 O18'
_cell_volume   366.69848411
_cell_formula_units_Z   6
loop_
 _symmetry_equiv_pos_site_id
 _symmetry_equiv_pos_as_xyz
  1  'x, y, z'
loop_
 _atom_site_type_symbol
 _atom_site_label
 _atom_site_symmetry_multiplicity
 _atom_site_fract_x
 _atom_site_fract_y
 _atom_site_fract_z
 _atom_site_occupancy
  Li  Li0  1  0.75802600  0.28261300  0.98379500  1
  Li  Li1  1  0.25828600  0.28270300  0.98365500  1
  Li  Li2  1  0.10130800  0.01581500  0.29854800  1
  Li  Li3  1  0.60022000  0.01580400  0.29843700  1
  Li  Li4  1  0.88871300  0.70123700  0.71748400  1
  Li  Li5  1  0.39345800  0.70109400  0.71760700  1
  Fe  Fe0  1  0.49319600  0.63195000  0.01448000  1
  Fe  Fe1  1  0.68444100  0.99243200  0.62985700  1
  Fe  Fe2  1  0.18568100  0.99207900  0.62819000  1
  Fe  Fe3  1  0.81934900  0.37033200  0.36174900  1
  Fe  Fe4  1  0.31940200  0.36970300  0.36134400  1
  Fe  Fe5  1  0.99693200  0.63804500  0.00714600  1
  B  B0  1  0.91686900  0.33400500  0.66642000  1
  B  B1  1  0.41618900  0.33393100  0.66623600  1
  B  B2  1  0.00015100  0.00008600  0.99959700  1
  B  B3  1  0.50010200  0.99781000  0.99958800  1
  B  B4  1  0.08328200  0.66711500  0.33360800  1
  B  B5  1  0.58373000  0.66725600  0.33374300  1
  O  O0  1  0.54311500  0.10840500  0.91407500  1
  O  O1  1  0.04333100  0.10938100  0.91373200  1
  O  O2  1  0.90259200  0.08607600  0.19510600  1
  O  O3  1  0.40207900  0.08626500  0.19569200  1
  O  O4  1  0.55397400  0.80340900  0.89110500  1
  O  O5  1  0.05429400  0.80493400  0.89037900  1
  O  O6  1  0.96082100  0.13891500  0.57878400  1
  O  O7  1  0.46065000  0.13878000  0.57846200  1
  O  O8  1  0.81915300  0.44104800  0.86194700  1
  O  O9  1  0.31738800  0.44071300  0.86163400  1
  O  O10  1  0.97008900  0.42180800  0.55928200  1
  O  O11  1  0.47064000  0.42171800  0.55906800  1
  O  O12  1  0.12341700  0.47232600  0.25369300  1
  O  O13  1  0.62329800  0.47244400  0.25377100  1
  O  O14  1  0.98506300  0.78320000  0.52824500  1
  O  O15  1  0.48568900  0.78316800  0.52851400  1
  O  O16  1  0.14283700  0.74646900  0.21725700  1
  O  O17  1  0.64223400  0.74692900  0.21777200  1
loop_
_geom_bond_atom_site_label_1
_geom_bond_atom_site_label_2
_geom_bond_distance
_geom_bond_site_symmetry_2
Li0 O13 1.969899 1_556
Li0 O8 1.997104 1_555
Li0 O1 2.002696 1_655
Li0 O0 2.006211 1_555
Li1 O12 1.969879 1_556
Li1 O9 1.995174 1_555
Li1 O1 2.002678 1_555
Li1 O0 2.006790 1_555
Li2 O16 1.963876 1_545
Li2 O6 1.995323 1_455
Li2 O3 1.998012 1_555
Li2 O2 2.006363 1_455
Li3 O17 1.961349 1_545
Li3 O7 1.993845 1_555
Li3 O3 1.999378 1_555
Li3 O2 2.006222 1_555
Li4 O14 1.976164 1_555
Li4 O4 1.991235 1_555
Li4 O10 1.991749 1_555
Li4 O5 2.011621 1_655
Li5 O15 1.975728 1_555
Li5 O4 1.989778 1_555
Li5 O11 1.991616 1_555
Li5 O5 2.012670 1_555
Fe0 O4 2.104147 1_554
Fe0 O8 2.126627 1_554
Fe0 O16 2.129353 1_555
Fe0 O17 2.142295 1_555
Fe0 O9 2.142336 1_554
Fe1 O0 2.030059 1_565
Fe1 O7 2.142450 1_565
Fe1 O6 2.147981 1_565
Fe1 O15 2.162934 1_555
Fe1 O14 2.162968 1_555
Fe2 O1 2.038837 1_565
Fe2 O6 2.137685 1_465
Fe2 O7 2.140530 1_565
Fe2 O15 2.163247 1_555
Fe2 O14 2.166533 1_455
Fe3 O2 2.030202 1_555
Fe3 O11 2.141038 1_555
Fe3 O10 2.141787 1_555
Fe3 O12 2.167954 1_655
Fe3 O13 2.169040 1_555
Fe4 O3 2.023950 1_555
Fe4 O10 2.144668 1_455
Fe4 O11 2.144763 1_555
Fe4 O12 2.168857 1_555
Fe4 O13 2.169517 1_555
Fe5 O5 2.025933 1_654
Fe5 O9 2.130288 1_654
Fe5 O8 2.142897 1_554
Fe5 O17 2.166800 1_555
Fe5 O16 2.173929 1_655
B0 O10 1.387229 1_555
B0 O6 1.388960 1_555
B0 O8 1.390925 1_555
B1 O11 1.387345 1_555
B1 O7 1.389344 1_555
B1 O9 1.389931 1_555
B2 O1 1.389965 1_555
B2 O5 1.390256 1_545
B2 O2 1.391995 1_456
B3 O4 1.384730 1_555
B3 O3 1.395100 1_566
B3 O0 1.397172 1_565
B4 O14 1.391105 1_455
B4 O12 1.391863 1_555
B4 O16 1.398615 1_555
B5 O15 1.391830 1_555
B5 O13 1.391991 1_555
B5 O17 1.397858 1_555
