# generated using pymatgen
data_SiH12N2(O2F3)2
_symmetry_space_group_name_H-M   'P 1'
_cell_length_a   9.56584021
_cell_length_b   9.56584021
_cell_length_c   12.06226339
_cell_angle_alpha   56.41039727
_cell_angle_beta   56.41039727
_cell_angle_gamma   47.47418620
_symmetry_Int_Tables_number   1
_chemical_formula_structural   SiH12N2(O2F3)2
_chemical_formula_sum   'Si2 H24 N4 O8 F12'
_cell_volume   648.07308922
_cell_formula_units_Z   2
loop_
 _symmetry_equiv_pos_site_id
 _symmetry_equiv_pos_as_xyz
  1  'x, y, z'
loop_
 _atom_site_type_symbol
 _atom_site_label
 _atom_site_symmetry_multiplicity
 _atom_site_fract_x
 _atom_site_fract_y
 _atom_site_fract_z
 _atom_site_occupancy
  Si  Si0  1  0.62283200  0.37716800  0.75000000  1
  Si  Si1  1  0.37716800  0.62283200  0.25000000  1
  H  H0  1  0.05004400  0.70327300  0.06997300  1
  H  H1  1  0.29672700  0.94995600  0.43002700  1
  H  H2  1  0.94995600  0.29672700  0.93002700  1
  H  H3  1  0.70327300  0.05004400  0.56997300  1
  H  H4  1  0.97669800  0.54159200  0.47124600  1
  H  H5  1  0.45840800  0.02330200  0.02875400  1
  H  H6  1  0.02330200  0.45840800  0.52875400  1
  H  H7  1  0.54159200  0.97669800  0.97124600  1
  H  H8  1  0.63000700  0.57843400  0.34122000  1
  H  H9  1  0.42156600  0.36999300  0.15878000  1
  H  H10  1  0.36999300  0.42156600  0.65878000  1
  H  H11  1  0.57843400  0.63000700  0.84122000  1
  H  H12  1  0.86666600  0.09620300  0.46690200  1
  H  H13  1  0.90379700  0.13333400  0.03309800  1
  H  H14  1  0.13333400  0.90379700  0.53309800  1
  H  H15  1  0.09620300  0.86666600  0.96690200  1
  H  H16  1  0.93557200  0.86334300  0.90194200  1
  H  H17  1  0.13665700  0.06442800  0.59805800  1
  H  H18  1  0.06442800  0.13665700  0.09805800  1
  H  H19  1  0.86334300  0.93557200  0.40194200  1
  H  H20  1  0.11003600  0.61639900  0.79988000  1
  H  H21  1  0.38360100  0.88996400  0.70012000  1
  H  H22  1  0.88996400  0.38360100  0.20012000  1
  H  H23  1  0.61639900  0.11003600  0.29988000  1
  N  N0  1  0.84644900  0.45798000  0.26417700  1
  N  N1  1  0.54202000  0.15355100  0.23582300  1
  N  N2  1  0.15355100  0.54202000  0.73582300  1
  N  N3  1  0.45798000  0.84644900  0.76417700  1
  O  O0  1  0.98278300  0.46052400  0.24601700  1
  O  O1  1  0.53947600  0.01721700  0.25398300  1
  O  O2  1  0.01721700  0.53947600  0.75398300  1
  O  O3  1  0.46052400  0.98278300  0.74601700  1
  O  O4  1  0.99259600  0.83959800  0.00916300  1
  O  O5  1  0.16040200  0.00740400  0.49083700  1
  O  O6  1  0.00740400  0.16040200  0.99083700  1
  O  O7  1  0.83959800  0.99259600  0.50916300  1
  F  F0  1  0.39540500  0.43898100  0.86092600  1
  F  F1  1  0.56101900  0.60459500  0.63907400  1
  F  F2  1  0.60459500  0.56101900  0.13907400  1
  F  F3  1  0.43898100  0.39540500  0.36092600  1
  F  F4  1  0.66921100  0.47853100  0.87213900  1
  F  F5  1  0.52146900  0.33078900  0.62786100  1
  F  F6  1  0.33078900  0.52146900  0.12786100  1
  F  F7  1  0.47853100  0.66921100  0.37213900  1
  F  F8  1  0.90681000  0.86070300  0.83586100  1
  F  F9  1  0.13929700  0.09319000  0.66413900  1
  F  F10  1  0.09319000  0.13929700  0.16413900  1
  F  F11  1  0.86070300  0.90681000  0.33586100  1
loop_
_geom_bond_atom_site_label_1
_geom_bond_atom_site_label_2
_geom_bond_distance
_geom_bond_site_symmetry_2
H0 O4 0.979514 1_455
H1 O5 0.979514 1_565
H2 O6 0.979514 1_655
H3 O7 0.979514 1_545
H4 H6 0.751652 1_655
H5 H7 0.751652 1_544
H8 N0 1.519488 1_555
H9 N1 1.519488 1_555
H10 N2 1.519488 1_555
H11 N3 1.519488 1_555
H12 O7 0.975195 1_545
H13 O6 0.975195 1_654
H14 O5 0.975195 1_565
H15 O4 0.975195 1_456
H16 O4 1.519838 1_556
H17 O5 1.519838 1_555
H18 O6 1.519838 1_554
H19 O7 1.519838 1_555
H20 N2 1.062340 1_555
H21 N3 1.062340 1_555
H22 N0 1.062340 1_555
H23 N1 1.062340 1_555
N0 O0 1.212556 1_555
N1 O1 1.212556 1_555
N2 O2 1.212556 1_555
N3 O3 1.212556 1_555
F0 Si0 1.669857 1_555
F1 Si0 1.669857 1_555
F2 Si1 1.669857 1_555
F3 Si1 1.669857 1_555
F4 H11 1.025750 1_555
F5 H10 1.025750 1_555
F6 H9 1.025750 1_555
F7 H8 1.025750 1_555
F8 H16 0.992978 1_555
F9 H17 0.992978 1_555
F10 H18 0.992978 1_555
F11 H19 0.992978 1_555
