# generated using pymatgen
data_Li2Cr2O7
_symmetry_space_group_name_H-M   'P 1'
_cell_length_a   6.46926500
_cell_length_b   6.73530001
_cell_length_c   6.76264974
_cell_angle_alpha   93.26268739
_cell_angle_beta   111.02097486
_cell_angle_gamma   93.36854473
_symmetry_Int_Tables_number   1
_chemical_formula_structural   Li2Cr2O7
_chemical_formula_sum   'Li4 Cr4 O14'
_cell_volume   273.61630429
_cell_formula_units_Z   2
loop_
 _symmetry_equiv_pos_site_id
 _symmetry_equiv_pos_as_xyz
  1  'x, y, z'
loop_
 _atom_site_type_symbol
 _atom_site_label
 _atom_site_symmetry_multiplicity
 _atom_site_fract_x
 _atom_site_fract_y
 _atom_site_fract_z
 _atom_site_occupancy
  Li  Li0  1  0.74716300  0.16833900  0.17525800  1
  Li  Li1  1  0.28787700  0.37423300  0.54746600  1
  Li  Li2  1  0.71212300  0.62576700  0.45253400  1
  Li  Li3  1  0.25283700  0.83166100  0.82474200  1
  Cr  Cr0  1  0.79529000  0.15460200  0.67831900  1
  Cr  Cr1  1  0.24352000  0.33496000  0.02216400  1
  Cr  Cr2  1  0.75648000  0.66504000  0.97783600  1
  Cr  Cr3  1  0.20471000  0.84539800  0.32168100  1
  O  O0  1  0.11792700  0.06586900  0.34486100  1
  O  O1  1  0.53760900  0.14514900  0.65997700  1
  O  O2  1  0.37076800  0.13827700  0.99813300  1
  O  O3  1  0.95508800  0.25769400  0.94603800  1
  O  O4  1  0.83567300  0.29270700  0.49877700  1
  O  O5  1  0.34338900  0.43435500  0.26819600  1
  O  O6  1  0.73287600  0.50836400  0.14871400  1
  O  O7  1  0.26712400  0.49163600  0.85128600  1
  O  O8  1  0.65661100  0.56564500  0.73180400  1
  O  O9  1  0.16432700  0.70729300  0.50122300  1
  O  O10  1  0.04491200  0.74230600  0.05396200  1
  O  O11  1  0.62923200  0.86172300  0.00186700  1
  O  O12  1  0.46239100  0.85485100  0.34002300  1
  O  O13  1  0.88207300  0.93413100  0.65513900  1
loop_
_geom_bond_atom_site_label_1
_geom_bond_atom_site_label_2
_geom_bond_distance
_geom_bond_site_symmetry_2
Li0 O4 2.156961 1_555
Li0 O11 2.262578 1_545
Li0 O2 2.286255 1_554
Li0 O6 2.312015 1_555
Li0 O0 2.419911 1_655
Li0 O3 2.466057 1_554
Li1 O5 2.101504 1_555
Li1 O7 2.211388 1_555
Li1 O1 2.261506 1_555
Li1 O0 2.393056 1_555
Li1 O9 2.424890 1_555
Li1 O8 2.495735 1_555
Li2 O8 2.101504 1_555
Li2 O6 2.211388 1_555
Li2 O12 2.261506 1_555
Li2 O13 2.393056 1_555
Li2 O4 2.424890 1_555
Li2 O5 2.495735 1_555
Li3 O9 2.156961 1_555
Li3 O2 2.262578 1_565
Li3 O11 2.286255 1_556
Li3 O7 2.312015 1_555
Li3 O13 2.419911 1_455
Li3 O10 2.466057 1_556
Cr0 O1 1.623772 1_555
Cr0 O13 1.636894 1_545
Cr0 O4 1.653869 1_555
Cr0 O3 1.805130 1_555
Cr1 O2 1.630514 1_554
Cr1 O5 1.638626 1_555
Cr1 O7 1.648860 1_554
Cr1 O3 1.784329 1_454
Cr2 O11 1.630514 1_556
Cr2 O8 1.638626 1_555
Cr2 O6 1.648860 1_556
Cr2 O10 1.784329 1_656
Cr3 O12 1.623772 1_555
Cr3 O0 1.636894 1_565
Cr3 O9 1.653869 1_555
Cr3 O10 1.805130 1_555
