# generated using pymatgen
data_Li5La3Nb2O12
_symmetry_space_group_name_H-M   'P 1'
_cell_length_a   11.18866630
_cell_length_b   11.14644969
_cell_length_c   11.16091044
_cell_angle_alpha   109.76778368
_cell_angle_beta   109.50649804
_cell_angle_gamma   109.27467965
_symmetry_Int_Tables_number   1
_chemical_formula_structural   Li5La3Nb2O12
_chemical_formula_sum   'Li20 La12 Nb8 O48'
_cell_volume   1069.69330657
_cell_formula_units_Z   4
loop_
 _symmetry_equiv_pos_site_id
 _symmetry_equiv_pos_as_xyz
  1  'x, y, z'
loop_
 _atom_site_type_symbol
 _atom_site_label
 _atom_site_symmetry_multiplicity
 _atom_site_fract_x
 _atom_site_fract_y
 _atom_site_fract_z
 _atom_site_occupancy
  Li  Li0  1  0.80962500  0.06014400  0.11001300  1
  Li  Li1  1  0.42893400  0.24565300  0.04110900  1
  Li  Li2  1  0.80013300  0.24692400  0.69267800  1
  Li  Li3  1  0.70388800  0.39564000  0.45154900  1
  Li  Li4  1  0.88899500  0.18040200  0.92532600  1
  Li  Li5  1  0.60795400  0.53040300  0.28496700  1
  Li  Li6  1  0.24894900  0.04571300  0.43989400  1
  Li  Li7  1  0.53779200  0.29075200  0.61671800  1
  Li  Li8  1  0.96678900  0.58108800  0.75555900  1
  Li  Li9  1  0.69002700  0.79952000  0.24933400  1
  Li  Li10  1  0.47687800  0.71526500  0.38863400  1
  Li  Li11  1  0.01709500  0.41179800  0.23757100  1
  Li  Li12  1  0.39300300  0.44394700  0.69692100  1
  Li  Li13  1  0.10953900  0.82623800  0.09099400  1
  Li  Li14  1  0.06118000  0.11035800  0.80948900  1
  Li  Li15  1  0.21271600  0.74331800  0.32189600  1
  Li  Li16  1  0.28810800  0.61165100  0.53429600  1
  Li  Li17  1  0.56992600  0.75085300  0.95856500  1
  Li  Li18  1  0.25294000  0.68537800  0.78682500  1
  Li  Li19  1  0.17271500  0.91287600  0.89062200  1
  La  La0  1  0.74970900  0.12421900  0.37480000  1
  La  La1  1  0.37838200  0.12684500  0.25117600  1
  La  La2  1  0.87989200  0.63449700  0.25087900  1
  La  La3  1  0.25000300  0.38017600  0.13000400  1
  La  La4  1  0.62366500  0.25017800  0.88472700  1
  La  La5  1  0.12595500  0.24697700  0.37603300  1
  La  La6  1  0.86804700  0.76039400  0.61592000  1
  La  La7  1  0.36947200  0.74882500  0.11859300  1
  La  La8  1  0.75595300  0.63001400  0.88258700  1
  La  La9  1  0.12580200  0.37284000  0.74824000  1
  La  La10  1  0.62314700  0.87407500  0.74624100  1
  La  La11  1  0.24944000  0.89393800  0.63629400  1
  Nb  Nb0  1  0.50560400  0.00314500  0.00435000  1
  Nb  Nb1  1  0.99934600  0.99973300  0.00472500  1
  Nb  Nb2  1  0.50597200  0.00012700  0.50293600  1
  Nb  Nb3  1  0.49311100  0.49357900  0.99239600  1
  Nb  Nb4  1  0.50212500  0.50017300  0.50445800  1
  Nb  Nb5  1  0.99870500  0.00567000  0.49687400  1
  Nb  Nb6  1  0.99775500  0.49666100  0.99550800  1
  Nb  Nb7  1  0.99363200  0.50070800  0.49410000  1
  O  O0  1  0.90163200  0.02519500  0.32484600  1
  O  O1  1  0.88461900  0.40421700  0.07593700  1
  O  O2  1  0.92553200  0.30573100  0.32734500  1
  O  O3  1  0.97834900  0.67227200  0.09277500  1
  O  O4  1  0.58027900  0.16939800  0.20377100  1
  O  O5  1  0.92401100  0.12460300  0.59631500  1
  O  O6  1  0.60828300  0.41928700  0.09391300  1
  O  O7  1  0.19629500  0.11296400  0.01919500  1
  O  O8  1  0.68727900  0.67489000  0.07555200  1
  O  O9  1  0.59883600  0.17915600  0.48634400  1
  O  O10  1  0.89917800  0.38908400  0.57728300  1
  O  O11  1  0.12364400  0.02834800  0.20230800  1
  O  O12  1  0.67541600  0.08858500  0.70730800  1
  O  O13  1  0.82440800  0.53529700  0.41293800  1
  O  O14  1  0.47587800  0.38252800  0.30025700  1
  O  O15  1  0.42185700  0.09574600  0.61419600  1
  O  O16  1  0.01728500  0.19873700  0.11640300  1
  O  O17  1  0.48016100  0.59591300  0.17844300  1
  O  O18  1  0.82634800  0.79643900  0.40321200  1
  O  O19  1  0.67423200  0.08352900  0.97234700  1
  O  O20  1  0.38738700  0.30017100  0.48056200  1
  O  O21  1  0.80262000  0.41672600  0.82286500  1
  O  O22  1  0.69947400  0.52544700  0.61617600  1
  O  O23  1  0.59349600  0.91378600  0.11443200  1
  O  O24  1  0.29940900  0.47198900  0.38633200  1
  O  O25  1  0.20182700  0.58470700  0.17219500  1
  O  O26  1  0.41493500  0.08843600  0.89279900  1
  O  O27  1  0.32442900  0.90458900  0.02201300  1
  O  O28  1  0.17381400  0.19974300  0.57538000  1
  O  O29  1  0.61155700  0.69456600  0.52178100  1
  O  O30  1  0.57541300  0.90284600  0.37555100  1
  O  O31  1  0.53068400  0.41200100  0.82452800  1
  O  O32  1  0.98356300  0.80331600  0.89274700  1
  O  O33  1  0.52344100  0.61413700  0.70101900  1
  O  O34  1  0.88946400  0.98609900  0.81104700  1
  O  O35  1  0.32058800  0.91799600  0.30379800  1
  O  O36  1  0.17651600  0.48983500  0.59909700  1
  O  O37  1  0.29718300  0.32737600  0.92183400  1
  O  O38  1  0.09213900  0.61434800  0.41261400  1
  O  O39  1  0.40670900  0.81954200  0.51617200  1
  O  O40  1  0.79623200  0.88430700  0.97015400  1
  O  O41  1  0.38301000  0.58173800  0.90013400  1
  O  O42  1  0.02291200  0.32043600  0.90574600  1
  O  O43  1  0.09394800  0.88927800  0.42159600  1
  O  O44  1  0.41428200  0.82667800  0.79792300  1
  O  O45  1  0.08223400  0.70363700  0.68087400  1
  O  O46  1  0.11423700  0.58639000  0.91003200  1
  O  O47  1  0.07777300  0.97016100  0.67230900  1
loop_
_geom_bond_atom_site_label_1
_geom_bond_atom_site_label_2
_geom_bond_distance
_geom_bond_site_symmetry_2
Li0 O19 1.923724 1_554
Li0 O40 1.970006 1_544
Li0 O16 2.288035 1_655
Li0 O23 2.457864 1_545
Li0 O2 2.474490 1_555
Li0 O0 2.491740 1_555
Li1 O26 1.875889 1_554
Li1 O6 1.998631 1_555
Li1 O37 2.274022 1_554
Li1 O7 2.410615 1_555
Li1 O14 2.537847 1_555
Li1 O4 2.612799 1_555
Li2 O21 1.942239 1_555
Li2 O12 1.951911 1_555
Li2 O9 2.276581 1_555
Li2 O42 2.431981 1_655
Li2 O5 2.487569 1_555
Li2 O10 2.563584 1_555
Li3 O22 1.944592 1_555
Li3 O13 1.970609 1_555
Li3 O10 2.208172 1_555
Li3 O14 2.467982 1_555
Li3 O4 2.519087 1_555
Li3 O9 2.534024 1_555
Li4 O42 1.906446 1_655
Li4 O16 2.029114 1_656
Li4 O34 2.112088 1_545
Li4 O12 2.344447 1_555
Li4 O1 2.520072 1_556
Li4 O19 2.593808 1_555
Li5 O14 1.918414 1_555
Li5 O17 2.032823 1_555
Li5 O6 2.074297 1_555
Li5 O13 2.336289 1_555
Li5 O18 2.630858 1_555
Li5 O29 2.635228 1_555
Li6 O43 1.901573 1_545
Li6 O15 1.969431 1_555
Li6 O35 2.253899 1_545
Li6 O28 2.446776 1_555
Li6 O11 2.454663 1_555
Li6 O20 2.531623 1_555
Li7 O20 1.915449 1_555
Li7 O9 2.032575 1_555
Li7 O15 2.116801 1_555
Li7 O31 2.299151 1_555
Li7 O21 2.561275 1_555
Li7 O22 2.647602 1_555
Li8 O46 1.914360 1_655
Li8 O10 2.038896 1_555
Li8 O45 2.133898 1_655
Li8 O32 2.334764 1_555
Li8 O22 2.601087 1_555
Li8 O21 2.631613 1_555
Li9 O18 1.897946 1_555
Li9 O8 1.949901 1_555
Li9 O17 2.305808 1_555
Li9 O0 2.438221 1_565
Li9 O30 2.457524 1_555
Li9 O23 2.484948 1_555
Li10 O29 1.870354 1_555
Li10 O39 2.055040 1_555
Li10 O30 2.097777 1_555
Li10 O17 2.292011 1_555
Li11 O1 1.867346 1_455
Li11 O2 2.034301 1_455
Li11 O38 2.070863 1_555
Li11 O16 2.302543 1_555
Li12 O31 1.941187 1_555
Li12 O33 1.949264 1_555
Li12 O41 2.332789 1_555
Li12 O20 2.370203 1_555
Li12 O28 2.477377 1_555
Li12 O36 2.598129 1_555
Li13 O3 1.865393 1_455
Li13 O32 2.060281 1_454
Li13 O11 2.093968 1_565
Li13 O35 2.297835 1_555
Li14 O47 1.893041 1_545
Li14 O34 1.972748 1_445
Li14 O7 2.307877 1_556
Li14 O37 2.432382 1_555
Li14 O5 2.453398 1_455
Li14 O42 2.467421 1_555
Li15 O25 1.912028 1_555
Li15 O35 2.041047 1_555
Li15 O39 2.127889 1_555
Li15 O38 2.351203 1_555
Li15 O3 2.612213 1_455
Li15 O43 2.615574 1_555
Li16 O24 1.922768 1_555
Li16 O36 2.018347 1_555
Li16 O38 2.176101 1_555
Li16 O39 2.374383 1_555
Li16 O44 2.572314 1_555
Li16 O33 2.653524 1_555
Li17 O23 1.906437 1_556
Li17 O41 2.001836 1_555
Li17 O8 2.117224 1_556
Li17 O40 2.409425 1_555
Li17 O33 2.524004 1_555
Li17 O44 2.621653 1_555
Li18 O44 1.896408 1_555
Li18 O45 1.999710 1_555
Li18 O36 2.087069 1_555
Li18 O41 2.433264 1_555
Li18 O27 2.543508 1_556
Li18 O46 2.614901 1_555
Li19 O27 1.890282 1_556
Li19 O7 2.072871 1_566
Li19 O32 2.077910 1_455
Li19 O45 2.260523 1_555
La0 O0 2.423596 1_555
La0 O23 2.508401 1_545
La0 O10 2.514652 1_555
La0 O9 2.518858 1_555
La0 O4 2.520875 1_555
La0 O5 2.585155 1_555
La0 O30 2.596117 1_545
La0 O2 2.652715 1_555
La1 O4 2.422467 1_555
La1 O14 2.470780 1_555
La1 O11 2.473316 1_555
La1 O35 2.523278 1_545
La1 O20 2.578881 1_555
La1 O27 2.595963 1_545
La1 O7 2.622280 1_555
La1 O9 2.646657 1_555
La2 O18 2.413724 1_555
La2 O3 2.449305 1_555
La2 O43 2.496692 1_655
La2 O13 2.555191 1_555
La2 O38 2.590736 1_655
La2 O6 2.616837 1_555
La2 O8 2.663915 1_555
La2 O1 2.678089 1_555
La3 O25 2.442211 1_555
La3 O37 2.474331 1_554
La3 O24 2.475354 1_555
La3 O7 2.567546 1_555
La3 O42 2.583117 1_554
La3 O14 2.591105 1_555
La3 O17 2.609397 1_555
La3 O16 2.635295 1_555
La4 O1 2.465318 1_556
La4 O26 2.486608 1_555
La4 O19 2.505987 1_555
La4 O31 2.525677 1_555
La4 O6 2.557201 1_556
La4 O12 2.557788 1_555
La4 O15 2.558013 1_555
La4 O21 2.695981 1_555
La5 O28 2.386822 1_555
La5 O2 2.479781 1_455
La5 O16 2.515095 1_555
La5 O20 2.525233 1_555
La5 O11 2.535269 1_555
La5 O24 2.551983 1_555
La5 O0 2.593821 1_455
La5 O36 2.708470 1_555
La6 O47 2.401152 1_655
La6 O29 2.439809 1_555
La6 O18 2.458512 1_555
La6 O13 2.504723 1_555
La6 O34 2.583981 1_555
La6 O45 2.611466 1_655
La6 O22 2.676445 1_555
La6 O32 2.714838 1_555
La7 O27 2.431284 1_555
La7 O30 2.475148 1_555
La7 O46 2.479538 1_554
La7 O25 2.539099 1_555
La7 O17 2.548780 1_555
La7 O23 2.599721 1_555
La7 O41 2.607239 1_554
La7 O35 2.631916 1_555
La8 O8 2.471650 1_556
La8 O40 2.486195 1_555
La8 O21 2.519729 1_555
La8 O31 2.545266 1_555
La8 O3 2.548969 1_556
La8 O22 2.552172 1_555
La8 O32 2.577015 1_555
La8 O33 2.615045 1_555
La9 O5 2.402951 1_455
La9 O41 2.495082 1_555
La9 O42 2.521671 1_555
La9 O46 2.528908 1_555
La9 O36 2.530605 1_555
La9 O37 2.551877 1_555
La9 O28 2.567458 1_555
La9 O10 2.721866 1_455
La10 O12 2.489408 1_565
La10 O19 2.513205 1_565
La10 O44 2.522754 1_555
La10 O33 2.528831 1_555
La10 O40 2.537336 1_555
La10 O34 2.540575 1_555
La10 O29 2.552927 1_555
La10 O39 2.578191 1_555
La11 O43 2.417314 1_555
La11 O47 2.436094 1_555
La11 O26 2.436376 1_565
La11 O15 2.582721 1_565
La11 O44 2.612210 1_555
La11 O45 2.638666 1_555
La11 O38 2.687776 1_555
La11 O39 2.714433 1_555
Nb0 O4 2.007982 1_555
Nb0 O19 2.010120 1_554
Nb0 O26 2.019126 1_554
Nb0 O23 2.033762 1_545
Nb0 O44 2.063180 1_544
Nb0 O27 2.073167 1_545
Nb1 O11 2.020409 1_665
Nb1 O34 2.021598 1_554
Nb1 O40 2.029059 1_554
Nb1 O32 2.032964 1_554
Nb1 O16 2.045252 1_665
Nb1 O7 2.064751 1_665
Nb2 O30 2.012926 1_545
Nb2 O9 2.026237 1_555
Nb2 O15 2.027591 1_555
Nb2 O12 2.031247 1_555
Nb2 O39 2.035142 1_545
Nb2 O35 2.090823 1_545
Nb3 O6 1.998526 1_556
Nb3 O37 2.009201 1_555
Nb3 O31 2.034647 1_555
Nb3 O8 2.037528 1_556
Nb3 O41 2.044501 1_555
Nb3 O17 2.083671 1_556
Nb4 O22 2.005670 1_555
Nb4 O29 2.009614 1_555
Nb4 O33 2.012171 1_555
Nb4 O20 2.041757 1_555
Nb4 O24 2.057589 1_555
Nb4 O14 2.068144 1_555
Nb5 O0 1.989832 1_555
Nb5 O5 2.010792 1_555
Nb5 O28 2.014759 1_655
Nb5 O18 2.070307 1_545
Nb5 O43 2.073155 1_645
Nb5 O47 2.090858 1_645
Nb6 O1 1.998327 1_556
Nb6 O21 2.004592 1_555
Nb6 O3 2.014411 1_556
Nb6 O42 2.040472 1_655
Nb6 O46 2.055265 1_655
Nb6 O25 2.066368 1_656
Nb7 O2 1.997841 1_555
Nb7 O10 2.023693 1_555
Nb7 O13 2.031475 1_555
Nb7 O38 2.042868 1_655
Nb7 O36 2.057525 1_655
Nb7 O45 2.096345 1_655
