# generated using pymatgen
data_Li4Mn3Fe(BO3)4
_symmetry_space_group_name_H-M   'P 1'
_cell_length_a   5.24173600
_cell_length_b   6.05099112
_cell_length_c   16.29698917
_cell_angle_alpha   81.91789433
_cell_angle_beta   89.09190572
_cell_angle_gamma   89.26555884
_symmetry_Int_Tables_number   1
_chemical_formula_structural   Li4Mn3Fe(BO3)4
_chemical_formula_sum   'Li8 Mn6 Fe2 B8 O24'
_cell_volume   511.67534515
_cell_formula_units_Z   2
loop_
 _symmetry_equiv_pos_site_id
 _symmetry_equiv_pos_as_xyz
  1  'x, y, z'
loop_
 _atom_site_type_symbol
 _atom_site_label
 _atom_site_symmetry_multiplicity
 _atom_site_fract_x
 _atom_site_fract_y
 _atom_site_fract_z
 _atom_site_occupancy
  Li  Li0  1  0.59695500  0.93941300  0.26357500  1
  Li  Li1  1  0.90281500  0.31064600  0.98418600  1
  Li  Li2  1  0.40304500  0.06058700  0.73642500  1
  Li  Li3  1  0.09836500  0.18909200  0.51572300  1
  Li  Li4  1  0.40247300  0.56175800  0.23263300  1
  Li  Li5  1  0.09718500  0.68935400  0.01581400  1
  Li  Li6  1  0.59752700  0.43824200  0.76736700  1
  Li  Li7  1  0.90163500  0.81090800  0.48427700  1
  Mn  Mn0  1  0.91932100  0.89897600  0.66513100  1
  Mn  Mn1  1  0.08067900  0.10102400  0.33486900  1
  Mn  Mn2  1  0.91746100  0.40105700  0.16494200  1
  Mn  Mn3  1  0.58052900  0.35016400  0.58518500  1
  Mn  Mn4  1  0.41947100  0.64983600  0.41481500  1
  Mn  Mn5  1  0.08253900  0.59894300  0.83505800  1
  Fe  Fe0  1  0.41399400  0.14620800  0.91772600  1
  Fe  Fe1  1  0.58600600  0.85379200  0.08227400  1
  B  B0  1  0.07803100  0.91268800  0.17102000  1
  B  B1  1  0.58067400  0.16046200  0.42250300  1
  B  B2  1  0.41814300  0.33881100  0.07671800  1
  B  B3  1  0.92196900  0.08731200  0.82898000  1
  B  B4  1  0.58185700  0.66118900  0.92328200  1
  B  B5  1  0.08095800  0.40935100  0.67321300  1
  B  B6  1  0.91904200  0.59064900  0.32678700  1
  B  B7  1  0.41932600  0.83953800  0.57749700  1
  O  O0  1  0.33748900  0.88646100  0.18165900  1
  O  O1  1  0.93329000  0.04481300  0.21912700  1
  O  O2  1  0.46402300  0.04442800  0.36534300  1
  O  O3  1  0.04906300  0.20021400  0.88543700  1
  O  O4  1  0.53597700  0.95557200  0.63465700  1
  O  O5  1  0.56661000  0.20582600  0.02905100  1
  O  O6  1  0.06671000  0.95518700  0.78087300  1
  O  O7  1  0.84025100  0.13850600  0.43639500  1
  O  O8  1  0.15835500  0.36250400  0.06372000  1
  O  O9  1  0.66251100  0.11353900  0.81834100  1
  O  O10  1  0.43097000  0.29420400  0.46884900  1
  O  O11  1  0.96384300  0.29386900  0.61613800  1
  O  O12  1  0.53614100  0.45178400  0.13397500  1
  O  O13  1  0.06899700  0.45697000  0.28046400  1
  O  O14  1  0.84164500  0.63749600  0.93628000  1
  O  O15  1  0.34071200  0.38736500  0.68710100  1
  O  O16  1  0.65928800  0.61263500  0.31289900  1
  O  O17  1  0.43339000  0.79417400  0.97094900  1
  O  O18  1  0.93100300  0.54303000  0.71953600  1
  O  O19  1  0.95093700  0.79978600  0.11456300  1
  O  O20  1  0.46385900  0.54821600  0.86602500  1
  O  O21  1  0.03615700  0.70613100  0.38386200  1
  O  O22  1  0.56903000  0.70579600  0.53115100  1
  O  O23  1  0.15974900  0.86149400  0.56360500  1
loop_
_geom_bond_atom_site_label_1
_geom_bond_atom_site_label_2
_geom_bond_distance
_geom_bond_site_symmetry_2
Li0 O2 1.971885 1_565
Li0 O1 1.974337 1_565
Li0 O0 1.980804 1_555
Li0 O16 2.051237 1_555
Li1 O8 1.937232 1_656
Li1 O3 1.968302 1_655
Li1 O5 1.974842 1_556
Li1 O14 2.044848 1_555
Li2 O4 1.971885 1_545
Li2 O6 1.974337 1_545
Li2 O9 1.980804 1_555
Li2 O15 2.051237 1_555
Li3 O7 1.942393 1_455
Li3 O11 1.954706 1_455
Li3 O10 1.969066 1_555
Li3 O23 2.049046 1_545
Li4 O12 1.942174 1_555
Li4 O16 1.948768 1_555
Li4 O13 1.977725 1_555
Li4 O0 2.049228 1_555
Li5 O14 1.937232 1_454
Li5 O19 1.968302 1_455
Li5 O17 1.974842 1_554
Li5 O8 2.044848 1_555
Li6 O20 1.942174 1_555
Li6 O15 1.948768 1_555
Li6 O18 1.977725 1_555
Li6 O9 2.049228 1_555
Li7 O23 1.942393 1_655
Li7 O21 1.954706 1_655
Li7 O22 1.969066 1_555
Li7 O7 2.049046 1_565
Mn0 O4 2.089912 1_555
Mn0 O23 2.099854 1_655
Mn0 O6 2.122219 1_655
Mn0 O18 2.211383 1_555
Mn0 O11 2.423546 1_565
Mn1 O2 2.089912 1_555
Mn1 O7 2.099854 1_455
Mn1 O1 2.122219 1_455
Mn1 O13 2.211383 1_555
Mn1 O21 2.423546 1_545
Mn2 O12 2.077670 1_555
Mn2 O8 2.098737 1_655
Mn2 O13 2.126782 1_655
Mn2 O1 2.212667 1_555
Mn2 O19 2.444445 1_555
Mn3 O11 2.091356 1_555
Mn3 O15 2.102672 1_555
Mn3 O10 2.134995 1_555
Mn3 O22 2.208027 1_555
Mn3 O4 2.423341 1_545
Mn4 O21 2.091356 1_555
Mn4 O16 2.102672 1_555
Mn4 O22 2.134995 1_555
Mn4 O10 2.208027 1_555
Mn4 O2 2.423341 1_565
Mn5 O20 2.077670 1_555
Mn5 O14 2.098737 1_455
Mn5 O18 2.126782 1_455
Mn5 O6 2.212667 1_555
Mn5 O3 2.444445 1_555
Fe0 O3 2.002573 1_555
Fe0 O5 2.073422 1_556
Fe0 O9 2.091866 1_555
Fe0 O17 2.185852 1_545
Fe0 O20 2.475588 1_555
Fe1 O19 2.002573 1_555
Fe1 O17 2.073422 1_554
Fe1 O0 2.091866 1_555
Fe1 O5 2.185852 1_565
Fe1 O12 2.475588 1_555
B0 O0 1.378071 1_555
B0 O19 1.401756 1_455
B0 O1 1.404027 1_465
B1 O7 1.384523 1_555
B1 O2 1.395556 1_555
B1 O10 1.406404 1_555
B2 O8 1.383965 1_555
B2 O12 1.388909 1_555
B2 O5 1.413215 1_555
B3 O9 1.378071 1_555
B3 O3 1.401756 1_655
B3 O6 1.404027 1_645
B4 O14 1.383965 1_555
B4 O20 1.388909 1_555
B4 O17 1.413215 1_555
B5 O15 1.385436 1_555
B5 O11 1.393624 1_455
B5 O18 1.406644 1_455
B6 O16 1.385436 1_555
B6 O21 1.393624 1_655
B6 O13 1.406644 1_655
B7 O23 1.384523 1_555
B7 O4 1.395556 1_555
B7 O22 1.406404 1_555
