# generated using pymatgen
data_Ho2WO6
_symmetry_space_group_name_H-M   'P 1'
_cell_length_a   9.86342488
_cell_length_b   9.86342488
_cell_length_c   5.38746293
_cell_angle_alpha   75.79299496
_cell_angle_beta   75.79299496
_cell_angle_gamma   68.31724014
_symmetry_Int_Tables_number   1
_chemical_formula_structural   Ho2WO6
_chemical_formula_sum   'Ho8 W4 O24'
_cell_volume   465.13042399
_cell_formula_units_Z   4
loop_
 _symmetry_equiv_pos_site_id
 _symmetry_equiv_pos_as_xyz
  1  'x, y, z'
loop_
 _atom_site_type_symbol
 _atom_site_label
 _atom_site_symmetry_multiplicity
 _atom_site_fract_x
 _atom_site_fract_y
 _atom_site_fract_z
 _atom_site_occupancy
  Ho  Ho0  1  0.10510200  0.89489800  0.75000000  1
  Ho  Ho1  1  0.63420600  0.36579400  0.75000000  1
  Ho  Ho2  1  0.94409700  0.71532400  0.38261200  1
  Ho  Ho3  1  0.71532400  0.94409700  0.88261200  1
  Ho  Ho4  1  0.28467600  0.05590300  0.11738800  1
  Ho  Ho5  1  0.05590300  0.28467600  0.61738800  1
  Ho  Ho6  1  0.36579400  0.63420600  0.25000000  1
  Ho  Ho7  1  0.89489800  0.10510200  0.25000000  1
  W  W0  1  0.50552500  0.80083000  0.56639800  1
  W  W1  1  0.19917000  0.49447500  0.93360200  1
  W  W2  1  0.80083000  0.50552500  0.06639800  1
  W  W3  1  0.49447500  0.19917000  0.43360200  1
  O  O0  1  0.89231600  0.92501300  0.07828700  1
  O  O1  1  0.52660700  0.93971800  0.26011400  1
  O  O2  1  0.31137500  0.84052900  0.42124000  1
  O  O3  1  0.54454000  0.61016400  0.52005600  1
  O  O4  1  0.38983600  0.45546000  0.97994400  1
  O  O5  1  0.15947100  0.68862500  0.07876000  1
  O  O6  1  0.92501300  0.89231600  0.57828700  1
  O  O7  1  0.17571700  0.62070500  0.61348600  1
  O  O8  1  0.62070500  0.17571700  0.11348600  1
  O  O9  1  0.21620900  0.31543000  0.85111000  1
  O  O10  1  0.31543000  0.21620900  0.35111000  1
  O  O11  1  0.06028200  0.47339300  0.23988600  1
  O  O12  1  0.93971800  0.52660700  0.76011400  1
  O  O13  1  0.68457000  0.78379100  0.64889000  1
  O  O14  1  0.78379100  0.68457000  0.14889000  1
  O  O15  1  0.37929500  0.82428300  0.88651400  1
  O  O16  1  0.82428300  0.37929500  0.38651400  1
  O  O17  1  0.07498700  0.10768400  0.42171300  1
  O  O18  1  0.84052900  0.31137500  0.92124000  1
  O  O19  1  0.61016400  0.54454000  0.02005600  1
  O  O20  1  0.45546000  0.38983600  0.47994400  1
  O  O21  1  0.68862500  0.15947100  0.57876000  1
  O  O22  1  0.47339300  0.06028200  0.73988600  1
  O  O23  1  0.10768400  0.07498700  0.92171300  1
loop_
_geom_bond_atom_site_label_1
_geom_bond_atom_site_label_2
_geom_bond_distance
_geom_bond_site_symmetry_2
Ho0 O23 2.205279 1_565
Ho0 O6 2.205279 1_455
Ho0 O2 2.335652 1_555
Ho0 O5 2.335652 1_556
Ho0 O17 2.365673 1_565
Ho0 O0 2.365673 1_456
Ho0 O15 2.770057 1_555
Ho0 O7 2.770057 1_555
Ho1 O21 2.269793 1_555
Ho1 O18 2.269793 1_555
Ho1 O8 2.371041 1_556
Ho1 O16 2.371041 1_555
Ho1 O3 2.371380 1_555
Ho1 O4 2.371380 1_555
Ho1 O20 2.462142 1_555
Ho1 O19 2.462142 1_556
Ho2 O6 2.181170 1_555
Ho2 O0 2.278729 1_555
Ho2 O5 2.313684 1_655
Ho2 O14 2.386791 1_555
Ho2 O12 2.400209 1_555
Ho2 O11 2.458907 1_655
Ho2 O13 2.542115 1_555
Ho2 O7 2.624282 1_655
Ho3 O0 2.181170 1_556
Ho3 O6 2.278729 1_555
Ho3 O21 2.313684 1_565
Ho3 O13 2.386791 1_555
Ho3 O1 2.400209 1_556
Ho3 O22 2.458907 1_565
Ho3 O14 2.542115 1_556
Ho3 O8 2.624282 1_566
Ho4 O23 2.181170 1_554
Ho4 O17 2.278729 1_555
Ho4 O2 2.313684 1_545
Ho4 O10 2.386791 1_555
Ho4 O22 2.400209 1_554
Ho4 O1 2.458907 1_545
Ho4 O9 2.542115 1_554
Ho4 O15 2.624282 1_544
Ho5 O17 2.181170 1_555
Ho5 O23 2.278729 1_555
Ho5 O18 2.313684 1_455
Ho5 O9 2.386791 1_555
Ho5 O11 2.400209 1_555
Ho5 O12 2.458907 1_455
Ho5 O10 2.542115 1_555
Ho5 O16 2.624282 1_455
Ho6 O5 2.269793 1_555
Ho6 O2 2.269793 1_555
Ho6 O7 2.371041 1_555
Ho6 O15 2.371041 1_554
Ho6 O19 2.371380 1_555
Ho6 O20 2.371380 1_555
Ho6 O4 2.462142 1_554
Ho6 O3 2.462142 1_555
Ho7 O17 2.205279 1_655
Ho7 O0 2.205279 1_545
Ho7 O18 2.335652 1_554
Ho7 O21 2.335652 1_555
Ho7 O23 2.365673 1_654
Ho7 O6 2.365673 1_545
Ho7 O16 2.770057 1_555
Ho7 O8 2.770057 1_555
O1 W0 1.890824 1_555
O2 W0 2.112525 1_555
O3 W0 1.842740 1_555
O4 W1 1.842740 1_555
O5 W1 2.112525 1_554
O7 W1 1.872698 1_555
O8 W3 1.872698 1_555
O9 W1 1.863805 1_555
O10 W3 1.863805 1_555
O11 W1 1.890824 1_554
O12 W2 1.890824 1_556
O13 W0 1.863805 1_555
O14 W2 1.863805 1_555
O15 W0 1.872698 1_555
O16 W2 1.872698 1_555
O18 W2 2.112525 1_556
O19 W2 1.842740 1_555
O20 W3 1.842740 1_555
O21 W3 2.112525 1_555
O22 W3 1.890824 1_555
