# generated using pymatgen
data_NaLi2MnPCO7
_symmetry_space_group_name_H-M   'P 1'
_cell_length_a   6.69945300
_cell_length_b   8.68655479
_cell_length_c   10.09877123
_cell_angle_alpha   91.51880966
_cell_angle_beta   89.99631787
_cell_angle_gamma   90.67218536
_symmetry_Int_Tables_number   1
_chemical_formula_structural   NaLi2MnPCO7
_chemical_formula_sum   'Na4 Li8 Mn4 P4 C4 O28'
_cell_volume   587.45274371
_cell_formula_units_Z   4
loop_
 _symmetry_equiv_pos_site_id
 _symmetry_equiv_pos_as_xyz
  1  'x, y, z'
loop_
 _atom_site_type_symbol
 _atom_site_label
 _atom_site_symmetry_multiplicity
 _atom_site_fract_x
 _atom_site_fract_y
 _atom_site_fract_z
 _atom_site_occupancy
  Na  Na0  1  0.25663100  0.08480300  0.62286300  1
  Na  Na1  1  0.99870800  0.24980700  0.37277100  1
  Na  Na2  1  0.99747800  0.25165200  0.87617200  1
  Na  Na3  1  0.50048500  0.74997700  0.62528700  1
  Li  Li0  1  0.26505400  0.07838700  0.12725800  1
  Li  Li1  1  0.47319600  0.27209600  0.38471500  1
  Li  Li2  1  0.47385900  0.27238000  0.88859800  1
  Li  Li3  1  0.52120600  0.73616800  0.11893600  1
  Li  Li4  1  0.97637800  0.73672500  0.11579500  1
  Li  Li5  1  0.97528700  0.72852500  0.61249100  1
  Li  Li6  1  0.74283200  0.91294400  0.36988900  1
  Li  Li7  1  0.74931000  0.90999400  0.87552300  1
  Mn  Mn0  1  0.74521800  0.35427000  0.11387700  1
  Mn  Mn1  1  0.74270300  0.36013900  0.61118000  1
  Mn  Mn2  1  0.24603800  0.64565400  0.38379400  1
  Mn  Mn3  1  0.24919700  0.64824600  0.89283500  1
  P  P0  1  0.25435300  0.40689100  0.14805300  1
  P  P1  1  0.24629600  0.41493300  0.64631700  1
  P  P2  1  0.74497500  0.59464100  0.35024800  1
  P  P3  1  0.75014400  0.59423900  0.85811400  1
  C  C0  1  0.74881300  0.03909300  0.13356700  1
  C  C1  1  0.75806800  0.04477600  0.63549400  1
  C  C2  1  0.25922500  0.94812300  0.35681500  1
  C  C3  1  0.26070000  0.95644200  0.87158300  1
  O  O0  1  0.27683700  0.09576600  0.33900900  1
  O  O1  1  0.27755500  0.10285900  0.85112500  1
  O  O2  1  0.75352600  0.08265300  0.01162100  1
  O  O3  1  0.75225400  0.08250600  0.51183700  1
  O  O4  1  0.74314300  0.14150300  0.23025000  1
  O  O5  1  0.73666200  0.15057000  0.72858600  1
  O  O6  1  0.06241000  0.31398500  0.10964000  1
  O  O7  1  0.42951300  0.30881600  0.09122300  1
  O  O8  1  0.05904400  0.31509300  0.60959300  1
  O  O9  1  0.42726600  0.32682700  0.58564500  1
  O  O10  1  0.27198600  0.41896300  0.30238500  1
  O  O11  1  0.73430600  0.42729200  0.40220600  1
  O  O12  1  0.27017800  0.42543800  0.80045000  1
  O  O13  1  0.73193100  0.42704400  0.90870700  1
  O  O14  1  0.25556100  0.57454400  0.09721100  1
  O  O15  1  0.75322700  0.58231100  0.19512000  1
  O  O16  1  0.22949800  0.58070500  0.59455900  1
  O  O17  1  0.76597700  0.58229200  0.70356000  1
  O  O18  1  0.56430200  0.69423800  0.39300500  1
  O  O19  1  0.92978400  0.68585500  0.40421400  1
  O  O20  1  0.56940400  0.69628800  0.89961300  1
  O  O21  1  0.93404100  0.68382800  0.91556900  1
  O  O22  1  0.24362200  0.85530800  0.25418800  1
  O  O23  1  0.25034000  0.85938500  0.77078800  1
  O  O24  1  0.25638400  0.89212200  0.47451700  1
  O  O25  1  0.25306100  0.90561200  0.99094300  1
  O  O26  1  0.74881900  0.89406600  0.16260300  1
  O  O27  1  0.78321300  0.90323100  0.66965500  1
loop_
_geom_bond_atom_site_label_1
_geom_bond_atom_site_label_2
_geom_bond_distance
_geom_bond_site_symmetry_2
Na0 O24 2.216471 1_545
Na0 O1 2.310498 1_555
Na0 O8 2.418321 1_555
Na0 O9 2.419385 1_555
Na0 O23 2.494132 1_545
Na1 O0 2.326562 1_655
Na1 O11 2.375436 1_555
Na1 O4 2.403917 1_555
Na1 O10 2.451183 1_655
Na1 O8 2.475411 1_655
Na1 O3 2.619555 1_555
Na1 O6 2.761696 1_655
Na2 O1 2.301039 1_655
Na2 O13 2.372986 1_555
Na2 O5 2.437312 1_555
Na2 O6 2.443006 1_656
Na2 O12 2.489514 1_655
Na2 O2 2.597517 1_556
Na2 O8 2.791863 1_655
Na3 O16 2.338270 1_555
Na3 O27 2.338806 1_555
Na3 O23 2.415315 1_555
Na3 O18 2.421641 1_555
Na3 O17 2.456040 1_555
Na3 O24 2.581589 1_555
Na3 O20 2.859941 1_555
Li0 O25 2.010384 1_544
Li0 O0 2.141147 1_555
Li0 O7 2.310783 1_555
Li0 O22 2.354542 1_545
Li0 O6 2.479430 1_555
Li1 O0 2.050613 1_555
Li1 O10 2.057348 1_555
Li1 O9 2.095318 1_555
Li1 O11 2.200168 1_555
Li2 O1 1.991551 1_555
Li2 O7 2.084090 1_556
Li2 O12 2.127814 1_555
Li2 O13 2.183242 1_555
Li3 O26 2.078447 1_555
Li3 O15 2.213081 1_555
Li3 O20 2.256519 1_554
Li3 O14 2.260878 1_555
Li3 O22 2.522878 1_555
Li4 O21 2.080379 1_554
Li4 O26 2.104797 1_555
Li4 O15 2.164634 1_555
Li4 O14 2.359234 1_655
Li4 O22 2.469933 1_655
Li5 O27 2.071584 1_555
Li5 O17 2.108481 1_555
Li5 O19 2.147200 1_555
Li5 O16 2.149646 1_655
Li6 O3 2.028367 1_565
Li6 O26 2.095828 1_555
Li6 O18 2.250432 1_555
Li6 O19 2.382092 1_555
Li6 O4 2.465504 1_565
Li7 O2 2.007239 1_566
Li7 O27 2.090722 1_555
Li7 O20 2.220220 1_555
Li7 O21 2.377834 1_555
Mn0 O15 2.123985 1_555
Mn0 O6 2.157918 1_655
Mn0 O7 2.158091 1_555
Mn0 O13 2.184344 1_554
Mn0 O4 2.216251 1_555
Mn0 O2 2.551518 1_555
Mn1 O17 2.125111 1_555
Mn1 O9 2.144259 1_555
Mn1 O8 2.159623 1_655
Mn1 O5 2.198653 1_555
Mn1 O11 2.205263 1_555
Mn1 O3 2.588845 1_555
Mn2 O10 2.122715 1_555
Mn2 O19 2.160317 1_455
Mn2 O18 2.170218 1_555
Mn2 O16 2.218809 1_555
Mn2 O22 2.270924 1_555
Mn2 O24 2.306611 1_555
Mn3 O12 2.132311 1_555
Mn3 O21 2.148866 1_455
Mn3 O14 2.177675 1_556
Mn3 O20 2.181347 1_555
Mn3 O23 2.236625 1_555
Mn3 O25 2.421061 1_555
C0 O2 1.298150 1_555
C0 O26 1.301009 1_545
C0 O4 1.304176 1_555
C1 O27 1.298657 1_545
C1 O3 1.300152 1_555
C1 O5 1.306213 1_555
C2 O24 1.296268 1_555
C2 O22 1.299551 1_555
C2 O0 1.303748 1_565
C3 O25 1.295459 1_555
C3 O1 1.297543 1_565
C3 O23 1.305716 1_555
O6 P0 1.553859 1_555
O7 P0 1.558738 1_555
O8 P1 1.555927 1_555
O9 P1 1.558169 1_555
O10 P0 1.563695 1_555
O11 P2 1.559367 1_555
O12 P1 1.564911 1_555
O13 P3 1.555770 1_555
O14 P0 1.556900 1_555
O15 P2 1.568440 1_555
O16 P1 1.550208 1_555
O17 P3 1.565179 1_555
O18 P2 1.550720 1_555
O19 P2 1.553038 1_555
O20 P3 1.559821 1_555
O21 P3 1.553639 1_555
