# generated using pymatgen
data_Li3V3(BO5)2
_symmetry_space_group_name_H-M   'P 1'
_cell_length_a   2.99732400
_cell_length_b   9.40774220
_cell_length_c   12.10698798
_cell_angle_alpha   89.01141861
_cell_angle_beta   89.83136344
_cell_angle_gamma   88.85478067
_symmetry_Int_Tables_number   1
_chemical_formula_structural   Li3V3(BO5)2
_chemical_formula_sum   'Li6 V6 B4 O20'
_cell_volume   341.27331881
_cell_formula_units_Z   2
loop_
 _symmetry_equiv_pos_site_id
 _symmetry_equiv_pos_as_xyz
  1  'x, y, z'
loop_
 _atom_site_type_symbol
 _atom_site_label
 _atom_site_symmetry_multiplicity
 _atom_site_fract_x
 _atom_site_fract_y
 _atom_site_fract_z
 _atom_site_occupancy
  Li  Li0  1  0.00000000  0.00000000  0.00000000  1
  Li  Li1  1  0.50000000  0.00000000  0.50000000  1
  Li  Li2  1  0.99927600  0.01018600  0.29057900  1
  Li  Li3  1  0.00000000  0.50000000  0.50000000  1
  Li  Li4  1  0.50000000  0.50000000  0.00000000  1
  Li  Li5  1  0.00072400  0.98981400  0.70942100  1
  V  V0  1  0.51918900  0.23380600  0.10956900  1
  V  V1  1  0.52446000  0.25323000  0.61057100  1
  V  V2  1  0.99752600  0.50288600  0.78220400  1
  V  V3  1  0.00247400  0.49711400  0.21779600  1
  V  V4  1  0.47554000  0.74677000  0.38942900  1
  V  V5  1  0.48081100  0.76619400  0.89043100  1
  B  B0  1  0.49619100  0.23137800  0.85784900  1
  B  B1  1  0.49630100  0.26483000  0.36760800  1
  B  B2  1  0.50369900  0.73517000  0.63239200  1
  B  B3  1  0.50380900  0.76862200  0.14215100  1
  O  O0  1  0.98375000  0.11984100  0.14447000  1
  O  O1  1  0.99008500  0.13747300  0.57577700  1
  O  O2  1  0.49316600  0.12417500  0.36074400  1
  O  O3  1  0.49446600  0.15975800  0.76168900  1
  O  O4  1  0.48523000  0.15990400  0.95878400  1
  O  O5  1  0.49900400  0.34714400  0.46133300  1
  O  O6  1  0.50285600  0.35000700  0.26296300  1
  O  O7  1  0.49889900  0.38325800  0.85581900  1
  O  O8  1  0.01186600  0.37674700  0.07939500  1
  O  O9  1  0.00712500  0.38773500  0.65209100  1
  O  O10  1  0.99287500  0.61226500  0.34790900  1
  O  O11  1  0.98813400  0.62325300  0.92060500  1
  O  O12  1  0.50110100  0.61674200  0.14418100  1
  O  O13  1  0.49714400  0.64999300  0.73703700  1
  O  O14  1  0.50099600  0.65285600  0.53866700  1
  O  O15  1  0.51477000  0.84009600  0.04121600  1
  O  O16  1  0.50553400  0.84024200  0.23831100  1
  O  O17  1  0.50683400  0.87582500  0.63925600  1
  O  O18  1  0.00991500  0.86252700  0.42422300  1
  O  O19  1  0.01625000  0.88015900  0.85553000  1
loop_
_geom_bond_atom_site_label_1
_geom_bond_atom_site_label_2
_geom_bond_distance
_geom_bond_site_symmetry_2
Li0 O0 2.097181 1_455
Li0 O19 2.097181 1_544
Li0 O15 2.164386 1_445
Li0 O4 2.164386 1_554
Li0 O15 2.185982 1_545
Li0 O4 2.185982 1_454
Li1 O17 2.034431 1_545
Li1 O2 2.034431 1_555
Li1 O1 2.190193 1_555
Li1 O18 2.190193 1_545
Li1 O1 2.191792 1_455
Li1 O18 2.191792 1_645
Li2 O0 2.032516 1_555
Li2 O2 2.032649 1_555
Li2 O2 2.040919 1_655
Li2 O18 2.114168 1_645
Li2 O16 2.278468 1_645
Li2 O16 2.298194 1_545
Li3 O9 2.106840 1_555
Li3 O10 2.106840 1_455
Li3 O14 2.111224 1_455
Li3 O5 2.111224 1_555
Li3 O5 2.157711 1_455
Li3 O14 2.157711 1_555
Li4 O7 2.078382 1_554
Li4 O12 2.078382 1_555
Li4 O11 2.104807 1_554
Li4 O8 2.104807 1_555
Li4 O8 2.126371 1_655
Li4 O11 2.126371 1_454
Li5 O19 2.032516 1_555
Li5 O17 2.032649 1_555
Li5 O17 2.040919 1_455
Li5 O1 2.114168 1_465
Li5 O3 2.278468 1_465
Li5 O3 2.298194 1_565
B0 O3 1.355224 1_555
B0 O4 1.385221 1_555
B0 O7 1.428820 1_555
B1 O2 1.327505 1_555
B1 O5 1.384910 1_555
B1 O6 1.487643 1_555
B2 O17 1.327505 1_555
B2 O14 1.384910 1_555
B2 O13 1.487643 1_555
B3 O16 1.355224 1_555
B3 O15 1.385221 1_555
B3 O12 1.428820 1_555
O0 V0 1.787485 1_555
O0 V0 1.988182 1_655
O1 V1 1.806321 1_555
O1 V1 2.004583 1_655
O3 V1 2.018764 1_555
O4 V0 1.968272 1_556
O5 V1 1.998516 1_555
O6 V3 2.087941 1_555
O6 V3 2.123393 1_655
O6 V0 2.171130 1_555
O7 V2 2.055465 1_455
O7 V2 2.078312 1_555
O8 V3 2.038309 1_555
O8 V0 2.039278 1_555
O8 V0 2.044932 1_455
O9 V2 1.926982 1_455
O9 V1 2.011530 1_455
O9 V1 2.048719 1_555
O10 V3 1.926982 1_655
O10 V4 2.011530 1_655
O10 V4 2.048719 1_555
O11 V2 2.038309 1_555
O11 V5 2.039278 1_555
O11 V5 2.044932 1_655
O12 V3 2.055465 1_655
O12 V3 2.078312 1_555
O13 V2 2.087941 1_555
O13 V2 2.123393 1_455
O13 V5 2.171130 1_555
O14 V4 1.998516 1_555
O15 V5 1.968272 1_554
O16 V4 2.018764 1_555
O18 V4 1.806321 1_555
O18 V4 2.004583 1_455
O19 V5 1.787485 1_555
O19 V5 1.988182 1_455
