# generated using pymatgen
data_Cu2W2O7
_symmetry_space_group_name_H-M   'P 1'
_cell_length_a   6.29419700
_cell_length_b   6.89682473
_cell_length_c   7.15349688
_cell_angle_alpha   103.00761807
_cell_angle_beta   90.55467306
_cell_angle_gamma   101.44017291
_symmetry_Int_Tables_number   1
_chemical_formula_structural   Cu2W2O7
_chemical_formula_sum   'Cu4 W4 O14'
_cell_volume   296.07342195
_cell_formula_units_Z   2
loop_
 _symmetry_equiv_pos_site_id
 _symmetry_equiv_pos_as_xyz
  1  'x, y, z'
loop_
 _atom_site_type_symbol
 _atom_site_label
 _atom_site_symmetry_multiplicity
 _atom_site_fract_x
 _atom_site_fract_y
 _atom_site_fract_z
 _atom_site_occupancy
  Cu  Cu0  1  0.71675800  0.24742500  0.71074300  1
  Cu  Cu1  1  0.70612700  0.72083300  0.07876800  1
  Cu  Cu2  1  0.29387300  0.27916700  0.92123200  1
  Cu  Cu3  1  0.28324200  0.75257500  0.28925700  1
  W  W0  1  0.72335800  0.27696100  0.20966300  1
  W  W1  1  0.72145600  0.70521500  0.56115900  1
  W  W2  1  0.27854400  0.29478500  0.43884100  1
  W  W3  1  0.27664200  0.72303900  0.79033700  1
  O  O0  1  0.98742900  0.67349800  0.66410800  1
  O  O1  1  0.79943800  0.29594300  0.97150800  1
  O  O2  1  0.66643200  0.00813600  0.18958500  1
  O  O3  1  0.77230400  0.61117300  0.29475200  1
  O  O4  1  0.77108400  0.97013500  0.58155500  1
  O  O5  1  0.61024000  0.35446800  0.50354100  1
  O  O6  1  0.59077500  0.70231900  0.81780700  1
  O  O7  1  0.40922500  0.29768100  0.18219300  1
  O  O8  1  0.38976000  0.64553200  0.49645900  1
  O  O9  1  0.22891600  0.02986500  0.41844500  1
  O  O10  1  0.22769600  0.38882700  0.70524800  1
  O  O11  1  0.33356800  0.99186400  0.81041500  1
  O  O12  1  0.20056200  0.70405700  0.02849200  1
  O  O13  1  0.01257100  0.32650200  0.33589200  1
loop_
_geom_bond_atom_site_label_1
_geom_bond_atom_site_label_2
_geom_bond_distance
_geom_bond_site_symmetry_2
Cu0 O1 1.869112 1_555
Cu0 O5 1.964991 1_555
Cu0 O4 2.024414 1_545
Cu1 O3 1.941952 1_555
Cu1 O6 1.964182 1_554
Cu1 O2 2.027368 1_565
Cu2 O10 1.941952 1_555
Cu2 O7 1.964182 1_556
Cu2 O11 2.027368 1_545
Cu3 O12 1.869112 1_555
Cu3 O8 1.964991 1_555
Cu3 O9 2.024414 1_565
O0 W1 1.893854 1_555
O0 W3 1.956628 1_655
O1 W0 1.800047 1_556
O2 W0 1.789435 1_555
O3 W1 1.921636 1_555
O3 W0 2.204888 1_555
O4 W1 1.763489 1_555
O5 W2 2.072924 1_555
O5 W0 2.210482 1_555
O5 W1 2.320668 1_555
O6 W3 2.021291 1_555
O6 W1 2.021590 1_555
O7 W0 2.021291 1_555
O7 W2 2.021590 1_555
O8 W1 2.072924 1_555
O8 W3 2.210482 1_555
O8 W2 2.320668 1_555
O9 W2 1.763489 1_555
O10 W2 1.921636 1_555
O10 W3 2.204888 1_555
O11 W3 1.789435 1_555
O12 W3 1.800047 1_554
O13 W2 1.893854 1_555
O13 W0 1.956628 1_455
