# generated using pymatgen
data_Li4Mn2Ni3O10
_symmetry_space_group_name_H-M   'P 1'
_cell_length_a   5.04246500
_cell_length_b   5.09474127
_cell_length_c   7.65732157
_cell_angle_alpha   101.48647146
_cell_angle_beta   108.84992183
_cell_angle_gamma   100.97489446
_symmetry_Int_Tables_number   1
_chemical_formula_structural   Li4Mn2Ni3O10
_chemical_formula_sum   'Li4 Mn2 Ni3 O10'
_cell_volume   175.42211156
_cell_formula_units_Z   1
loop_
 _symmetry_equiv_pos_site_id
 _symmetry_equiv_pos_as_xyz
  1  'x, y, z'
loop_
 _atom_site_type_symbol
 _atom_site_label
 _atom_site_symmetry_multiplicity
 _atom_site_fract_x
 _atom_site_fract_y
 _atom_site_fract_z
 _atom_site_occupancy
  Li  Li0  1  0.08330000  0.76943100  0.59043600  1
  Li  Li1  1  0.69920100  0.60479700  0.21932200  1
  Li  Li2  1  0.30079900  0.39520300  0.78067800  1
  Li  Li3  1  0.91670000  0.23056900  0.40956400  1
  Mn  Mn0  1  0.30173000  0.90150200  0.30797700  1
  Mn  Mn1  1  0.69827000  0.09849800  0.69202300  1
  Ni  Ni0  1  0.50000000  0.00000000  0.00000000  1
  Ni  Ni1  1  0.89341000  0.69614800  0.89681300  1
  Ni  Ni2  1  0.10659000  0.30385200  0.10318700  1
  O  O0  1  0.91873700  0.94720500  0.15127400  1
  O  O1  1  0.68460200  0.88711100  0.45425200  1
  O  O2  1  0.29912000  0.67860000  0.06033000  1
  O  O3  1  0.51876400  0.78229700  0.77203000  1
  O  O4  1  0.09991600  0.56708600  0.33125000  1
  O  O5  1  0.90008400  0.43291400  0.66875000  1
  O  O6  1  0.48123600  0.21770300  0.22797000  1
  O  O7  1  0.70088000  0.32140000  0.93967000  1
  O  O8  1  0.31539800  0.11288900  0.54574800  1
  O  O9  1  0.08126300  0.05279500  0.84872600  1
loop_
_geom_bond_atom_site_label_1
_geom_bond_atom_site_label_2
_geom_bond_distance
_geom_bond_site_symmetry_2
Li0 O8 2.065481 1_565
Li0 O5 2.077716 1_455
Li0 O4 2.081864 1_555
Li0 O3 2.166872 1_555
Li0 O1 2.200441 1_455
Li0 O9 2.208528 1_565
Li1 O4 1.987113 1_655
Li1 O6 2.091757 1_555
Li1 O1 2.098981 1_555
Li1 O0 2.130641 1_555
Li1 O2 2.139515 1_555
Li1 O7 2.335647 1_554
Li2 O5 1.987113 1_455
Li2 O3 2.091757 1_555
Li2 O8 2.098981 1_555
Li2 O9 2.130641 1_555
Li2 O7 2.139515 1_555
Li2 O2 2.335647 1_556
Li3 O1 2.065481 1_545
Li3 O4 2.077716 1_655
Li3 O5 2.081864 1_555
Li3 O6 2.166872 1_555
Li3 O8 2.200441 1_655
Li3 O0 2.208528 1_545
Mn0 O4 1.883642 1_555
Mn0 O8 1.894524 1_565
Mn0 O1 1.917423 1_555
Mn0 O6 1.996502 1_565
Mn0 O2 2.001581 1_555
Mn0 O0 2.002189 1_455
Mn1 O5 1.883642 1_555
Mn1 O1 1.894524 1_545
Mn1 O8 1.917423 1_555
Mn1 O3 1.996502 1_545
Mn1 O7 2.001581 1_555
Mn1 O9 2.002189 1_655
Ni0 O6 1.913627 1_555
Ni0 O3 1.913627 1_544
Ni0 O7 1.973017 1_554
Ni0 O2 1.973017 1_545
Ni0 O0 2.152281 1_545
Ni0 O9 2.152281 1_554
Ni1 O5 1.992947 1_555
Ni1 O3 1.997699 1_555
Ni1 O9 2.042286 1_665
Ni1 O2 2.054258 1_656
Ni1 O0 2.057511 1_556
Ni1 O7 2.108334 1_555
Ni2 O4 1.992947 1_555
Ni2 O6 1.997699 1_555
Ni2 O0 2.042286 1_445
Ni2 O7 2.054258 1_454
Ni2 O9 2.057511 1_554
Ni2 O2 2.108334 1_555
