# generated using pymatgen
data_Li34Sb8S7
_symmetry_space_group_name_H-M   'P 1'
_cell_length_a   11.79626099
_cell_length_b   11.79626099
_cell_length_c   11.79626099
_cell_angle_alpha   131.52626989
_cell_angle_beta   131.52626989
_cell_angle_gamma   70.97826908
_symmetry_Int_Tables_number   1
_chemical_formula_structural   Li34Sb8S7
_chemical_formula_sum   'Li34 Sb8 S7'
_cell_volume   900.91741496
_cell_formula_units_Z   1
loop_
 _symmetry_equiv_pos_site_id
 _symmetry_equiv_pos_as_xyz
  1  'x, y, z'
loop_
 _atom_site_type_symbol
 _atom_site_label
 _atom_site_symmetry_multiplicity
 _atom_site_fract_x
 _atom_site_fract_y
 _atom_site_fract_z
 _atom_site_occupancy
  Li  Li0  1  0.73052800  0.00986400  0.88385000  1
  Li  Li1  1  0.00986400  0.12601300  0.27933500  1
  Li  Li2  1  0.35955000  0.22245700  0.58200700  1
  Li  Li3  1  0.44865700  0.15080900  0.84986500  1
  Li  Li4  1  0.15416300  0.04472500  0.71591500  1
  Li  Li5  1  0.77754300  0.35955000  0.13709300  1
  Li  Li6  1  0.43824800  0.15416300  0.10943700  1
  Li  Li7  1  0.15080900  0.30094400  0.70215200  1
  Li  Li8  1  0.56957100  0.06957100  0.50000000  1
  Li  Li9  1  0.93042900  0.43042900  0.50000000  1
  Li  Li10  1  0.75000000  0.25000000  0.50000000  1
  Li  Li11  1  0.59879200  0.44865700  0.29784800  1
  Li  Li12  1  0.87398700  0.15332200  0.88385000  1
  Li  Li13  1  0.04472500  0.32881000  0.89056300  1
  Li  Li14  1  0.22245700  0.64045000  0.86290700  1
  Li  Li15  1  0.32881000  0.43824800  0.28408500  1
  Li  Li16  1  0.15332200  0.26947200  0.27933500  1
  Li  Li17  1  0.30094400  0.59879200  0.15013500  1
  Li  Li18  1  0.64045000  0.77754300  0.41799300  1
  Li  Li19  1  0.69905600  0.40120800  0.84986500  1
  Li  Li20  1  0.84667800  0.73052800  0.72066500  1
  Li  Li21  1  0.67119000  0.56175200  0.71591500  1
  Li  Li22  1  0.95527500  0.67119000  0.10943700  1
  Li  Li23  1  0.12601300  0.84667800  0.11615000  1
  Li  Li24  1  0.40120800  0.55134300  0.70215200  1
  Li  Li25  1  0.43042900  0.93042900  0.50000000  1
  Li  Li26  1  0.25000000  0.75000000  0.50000000  1
  Li  Li27  1  0.06957100  0.56957100  0.50000000  1
  Li  Li28  1  0.84919100  0.69905600  0.29784800  1
  Li  Li29  1  0.56175200  0.84583700  0.89056300  1
  Li  Li30  1  0.84583700  0.95527500  0.28408500  1
  Li  Li31  1  0.55134300  0.84919100  0.15013500  1
  Li  Li32  1  0.99013600  0.87398700  0.72066500  1
  Li  Li33  1  0.26947200  0.99013600  0.11615000  1
  Sb  Sb0  1  0.71829300  0.15551500  0.18679500  1
  Sb  Sb1  1  0.84448500  0.03128000  0.56277800  1
  Sb  Sb2  1  0.46850200  0.28170700  0.43722200  1
  Sb  Sb3  1  0.96872000  0.53149800  0.81320500  1
  Sb  Sb4  1  0.03128000  0.46850200  0.18679500  1
  Sb  Sb5  1  0.53149800  0.71829300  0.56277800  1
  Sb  Sb6  1  0.15551500  0.96872000  0.43722200  1
  Sb  Sb7  1  0.28170700  0.84448500  0.81320500  1
  S  S0  1  0.00000000  0.00000000  0.00000000  1
  S  S1  1  0.60716200  0.18405300  0.79121500  1
  S  S2  1  0.18405300  0.39283800  0.57689100  1
  S  S3  1  0.31710700  0.31710700  0.00000000  1
  S  S4  1  0.81594700  0.60716200  0.42310900  1
  S  S5  1  0.39283800  0.81594700  0.20878500  1
  S  S6  1  0.68289300  0.68289300  0.00000000  1
loop_
_geom_bond_atom_site_label_1
_geom_bond_atom_site_label_2
_geom_bond_distance
_geom_bond_site_symmetry_2
Li0 S0 2.488125 1_656
Li0 S1 2.540362 1_555
Li0 Sb5 2.808504 1_545
Li0 Sb0 2.850379 1_556
Li1 S0 2.488118 1_555
Li1 S2 2.540369 1_555
Li1 Sb0 2.808508 1_455
Li1 Sb6 2.850376 1_545
Li2 S2 2.368936 1_555
Li2 S1 2.426785 1_555
Li2 Sb2 3.183728 1_555
Li2 Sb6 3.183728 1_545
Li3 S3 2.538896 1_556
Li3 S1 2.584839 1_555
Li3 Sb6 2.987559 1_545
Li3 Sb0 2.996202 1_556
Li4 S3 2.541031 1_556
Li4 Sb6 2.786394 1_545
Li4 Sb1 2.807327 1_455
Li4 Sb7 2.854565 1_545
Li5 S1 2.368936 1_554
Li5 S4 2.426785 1_555
Li5 Sb4 3.183728 1_655
Li5 Sb0 3.183728 1_555
Li6 S3 2.541023 1_555
Li6 Sb0 2.786389 1_555
Li6 Sb7 2.807328 1_544
Li6 Sb2 2.854576 1_555
Li7 S3 2.538896 1_556
Li7 S2 2.584839 1_555
Li7 Sb3 2.987559 1_455
Li7 Sb6 2.996202 1_545
Li8 S1 2.457779 1_555
Li8 S5 2.457779 1_545
Li8 Sb1 2.752016 1_555
Li8 Sb2 2.752016 1_555
Li9 S2 2.457779 1_655
Li9 S4 2.457779 1_555
Li9 Sb3 2.752016 1_555
Li9 Sb0 2.752016 1_555
Li10 Sb0 2.830539 1_555
Li10 Sb2 2.830539 1_555
Li10 Sb3 2.830539 1_555
Li10 Sb1 2.830539 1_555
Li11 S3 2.538896 1_555
Li11 S4 2.584839 1_555
Li11 Sb0 2.987559 1_555
Li11 Sb5 2.996202 1_555
Li12 S0 2.488125 1_656
Li12 S1 2.540373 1_555
Li12 Sb1 2.808497 1_555
Li12 Sb4 2.850376 1_656
Li13 S3 2.541034 1_556
Li13 Sb3 2.786402 1_455
Li13 Sb4 2.807317 1_556
Li13 Sb1 2.854565 1_455
Li14 S5 2.368936 1_556
Li14 S2 2.426785 1_555
Li14 Sb7 3.183728 1_555
Li14 Sb3 3.183728 1_455
Li15 S3 2.541031 1_555
Li15 Sb5 2.786394 1_555
Li15 Sb2 2.807327 1_555
Li15 Sb4 2.854565 1_555
Li16 S0 2.488125 1_555
Li16 S2 2.540373 1_555
Li16 Sb4 2.808497 1_555
Li16 Sb2 2.850376 1_555
Li17 S3 2.538896 1_555
Li17 S5 2.584839 1_555
Li17 Sb5 2.987559 1_555
Li17 Sb3 2.996202 1_454
Li18 S4 2.368936 1_555
Li18 S5 2.426785 1_555
Li18 Sb1 3.183728 1_565
Li18 Sb5 3.183728 1_555
Li19 S6 2.538896 1_556
Li19 S1 2.584839 1_555
Li19 Sb2 2.987559 1_555
Li19 Sb4 2.996202 1_656
Li20 S0 2.488125 1_666
Li20 S4 2.540373 1_555
Li20 Sb3 2.808497 1_555
Li20 Sb5 2.850376 1_555
Li21 S6 2.541031 1_556
Li21 Sb2 2.786394 1_555
Li21 Sb5 2.807327 1_555
Li21 Sb3 2.854565 1_555
Li22 S6 2.541034 1_555
Li22 Sb4 2.786402 1_655
Li22 Sb3 2.807317 1_554
Li22 Sb6 2.854565 1_655
Li23 S0 2.488125 1_565
Li23 S5 2.540373 1_555
Li23 Sb6 2.808497 1_555
Li23 Sb3 2.850376 1_454
Li24 S6 2.538896 1_556
Li24 S2 2.584839 1_555
Li24 Sb7 2.987559 1_555
Li24 Sb2 2.996202 1_555
Li25 S5 2.457779 1_555
Li25 S1 2.457779 1_565
Li25 Sb5 2.752016 1_555
Li25 Sb6 2.752016 1_555
Li26 Sb5 2.830539 1_555
Li26 Sb6 2.830539 1_555
Li26 Sb4 2.830539 1_555
Li26 Sb7 2.830539 1_555
Li27 S2 2.457779 1_555
Li27 S4 2.457779 1_455
Li27 Sb7 2.752016 1_555
Li27 Sb4 2.752016 1_555
Li28 S6 2.538896 1_555
Li28 S4 2.584839 1_555
Li28 Sb4 2.987559 1_655
Li28 Sb1 2.996202 1_565
Li29 S6 2.541023 1_556
Li29 Sb7 2.786389 1_555
Li29 Sb0 2.807328 1_566
Li29 Sb5 2.854576 1_555
Li30 S6 2.541031 1_555
Li30 Sb1 2.786394 1_565
Li30 Sb6 2.807327 1_655
Li30 Sb0 2.854565 1_565
Li31 S6 2.538896 1_555
Li31 S5 2.584839 1_555
Li31 Sb1 2.987559 1_565
Li31 Sb7 2.996202 1_554
Li32 S0 2.488118 1_666
Li32 S4 2.540369 1_555
Li32 Sb7 2.808508 1_655
Li32 Sb1 2.850376 1_565
Li33 S0 2.488125 1_565
Li33 S5 2.540362 1_555
Li33 Sb2 2.808504 1_565
Li33 Sb7 2.850379 1_554
