# generated using pymatgen
data_Li2TiCrO4
_symmetry_space_group_name_H-M   'P 1'
_cell_length_a   5.93800186
_cell_length_b   5.93783218
_cell_length_c   5.90756214
_cell_angle_alpha   119.82003082
_cell_angle_beta   119.82465185
_cell_angle_gamma   89.86837951
_symmetry_Int_Tables_number   1
_chemical_formula_structural   Li2TiCrO4
_chemical_formula_sum   'Li4 Ti2 Cr2 O8'
_cell_volume   148.23912191
_cell_formula_units_Z   2
loop_
 _symmetry_equiv_pos_site_id
 _symmetry_equiv_pos_as_xyz
  1  'x, y, z'
loop_
 _atom_site_type_symbol
 _atom_site_label
 _atom_site_symmetry_multiplicity
 _atom_site_fract_x
 _atom_site_fract_y
 _atom_site_fract_z
 _atom_site_occupancy
  Li  Li0  1  0.99999600  0.49999700  0.49999700  1
  Li  Li1  1  0.49999600  0.49999700  0.49999700  1
  Li  Li2  1  0.49999600  0.99999700  0.99999700  1
  Li  Li3  1  0.49999600  0.49999700  0.99999700  1
  Ti  Ti0  1  0.99999600  0.99999700  0.49999700  1
  Ti  Ti1  1  0.99999600  0.99999700  0.99999700  1
  Cr  Cr0  1  0.00002700  0.50001700  0.99999100  1
  Cr  Cr1  1  0.50002800  0.00002800  0.50004700  1
  O  O0  1  0.24442300  0.75555500  0.01572500  1
  O  O1  1  0.24590400  0.23279800  0.48939200  1
  O  O2  1  0.24442400  0.75557600  0.48427400  1
  O  O3  1  0.76721200  0.75409300  0.01063400  1
  O  O4  1  0.23278100  0.24590100  0.98936100  1
  O  O5  1  0.75556800  0.24441800  0.51572100  1
  O  O6  1  0.75408800  0.76719600  0.51060200  1
  O  O7  1  0.75556900  0.24443900  0.98426900  1
loop_
_geom_bond_atom_site_label_1
_geom_bond_atom_site_label_2
_geom_bond_distance
_geom_bond_site_symmetry_2
Li0 O1 2.152871 1_655
Li0 O6 2.152871 1_555
Li0 O2 2.168572 1_655
Li0 O5 2.168577 1_555
Li0 O0 2.169134 1_656
Li0 O7 2.169134 1_554
Li1 O2 2.145731 1_555
Li1 O5 2.145731 1_555
Li1 O1 2.148432 1_555
Li1 O6 2.148432 1_555
Li1 O4 2.148792 1_554
Li1 O3 2.148796 1_556
Li2 O4 2.152921 1_565
Li2 O3 2.152925 1_556
Li2 O0 2.168628 1_556
Li2 O7 2.168628 1_565
Li2 O2 2.169108 1_555
Li2 O5 2.169113 1_566
Li3 O0 2.145661 1_556
Li3 O7 2.145661 1_555
Li3 O4 2.148394 1_555
Li3 O3 2.148395 1_556
Li3 O6 2.148668 1_556
Li3 O1 2.148668 1_555
Cr0 O0 2.037815 1_556
Cr0 O7 2.038289 1_455
Cr0 O5 2.038654 1_455
Cr0 O2 2.038689 1_556
Cr0 O4 2.042893 1_555
Cr0 O3 2.042971 1_456
Cr1 O5 2.038042 1_555
Cr1 O2 2.038175 1_545
Cr1 O7 2.038435 1_555
Cr1 O0 2.038860 1_545
Cr1 O6 2.042970 1_545
Cr1 O1 2.042990 1_555
O0 Ti1 2.052376 1_454
O1 Ti0 2.057513 1_445
O1 Ti1 2.058389 1_444
O2 Ti0 2.052301 1_455
O3 Ti1 2.057559 1_554
O3 Ti0 2.058262 1_555
O4 Ti1 2.057559 1_445
O4 Ti0 2.058266 1_445
O5 Ti0 2.052301 1_545
O6 Ti0 2.057513 1_555
O6 Ti1 2.058389 1_555
O7 Ti1 2.052376 1_545
