# generated using pymatgen
data_MnPH2(CO)4
_symmetry_space_group_name_H-M   'P 1'
_cell_length_a   9.83644300
_cell_length_b   9.12172900
_cell_length_c   13.02297287
_cell_angle_alpha   67.62150826
_cell_angle_beta   90.00000000
_cell_angle_gamma   90.00000000
_symmetry_Int_Tables_number   1
_chemical_formula_structural   MnPH2(CO)4
_chemical_formula_sum   'Mn6 P6 H12 C24 O24'
_cell_volume   1080.49081894
_cell_formula_units_Z   6
loop_
 _symmetry_equiv_pos_site_id
 _symmetry_equiv_pos_as_xyz
  1  'x, y, z'
loop_
 _atom_site_type_symbol
 _atom_site_label
 _atom_site_symmetry_multiplicity
 _atom_site_fract_x
 _atom_site_fract_y
 _atom_site_fract_z
 _atom_site_occupancy
  Mn  Mn0  1  0.78134200  0.74704700  0.63033500  1
  Mn  Mn1  1  0.21865800  0.25295300  0.36966500  1
  Mn  Mn2  1  0.78134200  0.25295300  0.86966500  1
  Mn  Mn3  1  0.21865800  0.74704700  0.13033500  1
  Mn  Mn4  1  0.39947500  0.50000000  0.75000000  1
  Mn  Mn5  1  0.60052500  0.50000000  0.25000000  1
  P  P0  1  0.87984300  0.50000000  0.75000000  1
  P  P1  1  0.12015700  0.50000000  0.25000000  1
  P  P2  1  0.57713900  0.61096700  0.61644300  1
  P  P3  1  0.42286100  0.38903300  0.38355700  1
  P  P4  1  0.57713900  0.38903300  0.88355700  1
  P  P5  1  0.42286100  0.61096700  0.11644300  1
  H  H0  1  0.97769100  0.54154100  0.81453800  1
  H  H1  1  0.02230900  0.45845900  0.18546200  1
  H  H2  1  0.97769100  0.45845900  0.68546200  1
  H  H3  1  0.02230900  0.54154100  0.31453800  1
  H  H4  1  0.51532300  0.71204000  0.51576000  1
  H  H5  1  0.48467700  0.28796000  0.48424000  1
  H  H6  1  0.51532300  0.28796000  0.98424000  1
  H  H7  1  0.48467700  0.71204000  0.01576000  1
  H  H8  1  0.61554800  0.49238500  0.57594500  1
  H  H9  1  0.38445200  0.50761500  0.42405500  1
  H  H10  1  0.61554800  0.50761500  0.92405500  1
  H  H11  1  0.38445200  0.49238500  0.07594500  1
  C  C0  1  0.84811200  0.70435300  0.51132900  1
  C  C1  1  0.15188800  0.29564700  0.48867100  1
  C  C2  1  0.84811200  0.29564700  0.98867100  1
  C  C3  1  0.15188800  0.70435300  0.01132900  1
  C  C4  1  0.94032800  0.84528500  0.63767800  1
  C  C5  1  0.05967200  0.15471500  0.36232200  1
  C  C6  1  0.94032800  0.15471500  0.86232200  1
  C  C7  1  0.05967200  0.84528500  0.13767800  1
  C  C8  1  0.70106300  0.92874400  0.53557400  1
  C  C9  1  0.29893700  0.07125600  0.46442600  1
  C  C10  1  0.70106300  0.07125600  0.96442600  1
  C  C11  1  0.29893700  0.92874400  0.03557400  1
  C  C12  1  0.72527900  0.78315300  0.75453900  1
  C  C13  1  0.27472100  0.21684700  0.24546100  1
  C  C14  1  0.72527900  0.21684700  0.74546100  1
  C  C15  1  0.27472100  0.78315300  0.25453900  1
  C  C16  1  0.40049600  0.68630300  0.77643700  1
  C  C17  1  0.59950400  0.31369700  0.22356300  1
  C  C18  1  0.40049600  0.31369700  0.72356300  1
  C  C19  1  0.59950400  0.68630300  0.27643700  1
  C  C20  1  0.27394800  0.41399000  0.85967800  1
  C  C21  1  0.72605200  0.58601000  0.14032200  1
  C  C22  1  0.27394800  0.58601000  0.64032200  1
  C  C23  1  0.72605200  0.41399000  0.35967800  1
  O  O0  1  0.89272000  0.68220100  0.43623000  1
  O  O1  1  0.10728000  0.31779900  0.56377000  1
  O  O2  1  0.89272000  0.31779900  0.06377000  1
  O  O3  1  0.10728000  0.68220100  0.93623000  1
  O  O4  1  0.04010700  0.91021300  0.64279600  1
  O  O5  1  0.95989300  0.08978700  0.35720400  1
  O  O6  1  0.04010700  0.08978700  0.85720400  1
  O  O7  1  0.95989300  0.91021300  0.14279600  1
  O  O8  1  0.65068700  0.04311600  0.47362400  1
  O  O9  1  0.34931300  0.95688400  0.52637600  1
  O  O10  1  0.65068700  0.95688400  0.02637600  1
  O  O11  1  0.34931300  0.04311600  0.97362400  1
  O  O12  1  0.69970200  0.81404200  0.83085400  1
  O  O13  1  0.30029800  0.18595800  0.16914600  1
  O  O14  1  0.69970200  0.18595800  0.66914600  1
  O  O15  1  0.30029800  0.81404200  0.33085400  1
  O  O16  1  0.39480100  0.80221300  0.79285400  1
  O  O17  1  0.60519900  0.19778700  0.20714600  1
  O  O18  1  0.39480100  0.19778700  0.70714600  1
  O  O19  1  0.60519900  0.80221300  0.29285400  1
  O  O20  1  0.19375600  0.36012700  0.92932300  1
  O  O21  1  0.80624400  0.63987300  0.07067700  1
  O  O22  1  0.19375600  0.63987300  0.57067700  1
  O  O23  1  0.80624400  0.36012700  0.42932300  1
loop_
_geom_bond_atom_site_label_1
_geom_bond_atom_site_label_2
_geom_bond_distance
_geom_bond_site_symmetry_2
Mn0 P0 2.402400 1_555
Mn0 P2 2.403979 1_555
Mn1 P1 2.402400 1_555
Mn1 P3 2.403979 1_555
Mn2 P0 2.402400 1_555
Mn2 P4 2.403979 1_555
Mn3 P1 2.402400 1_555
Mn3 P5 2.403979 1_555
Mn4 P4 2.400676 1_555
Mn4 P2 2.400676 1_555
Mn5 P5 2.400676 1_555
Mn5 P3 2.400676 1_555
H0 P0 1.420863 1_555
H1 P1 1.420863 1_555
H2 P0 1.420863 1_555
H3 P1 1.420863 1_555
H4 P2 1.420729 1_555
H5 P3 1.420729 1_555
H6 P4 1.420729 1_555
H7 P5 1.420729 1_555
H8 P2 1.423130 1_555
H9 P3 1.423130 1_555
H10 P4 1.423130 1_555
H11 P5 1.423130 1_555
C0 O0 1.157734 1_555
C0 Mn0 1.855943 1_555
C1 O1 1.157734 1_555
C1 Mn1 1.855943 1_555
C2 O2 1.157734 1_556
C2 Mn2 1.855943 1_555
C3 O3 1.157734 1_554
C3 Mn3 1.855943 1_555
C4 O4 1.161271 1_655
C4 Mn0 1.822920 1_555
C5 O5 1.161271 1_455
C5 Mn1 1.822920 1_555
C6 O6 1.161271 1_655
C6 Mn2 1.822920 1_555
C7 O7 1.161271 1_455
C7 Mn3 1.822920 1_555
C8 O8 1.159284 1_565
C8 Mn0 1.826478 1_555
C9 O9 1.159284 1_545
C9 Mn1 1.826478 1_555
C10 O10 1.159284 1_546
C10 Mn2 1.826478 1_555
C11 O11 1.159284 1_564
C11 Mn3 1.826478 1_555
C12 O12 1.159157 1_555
C12 Mn0 1.853252 1_555
C13 O13 1.159157 1_555
C13 Mn1 1.853252 1_555
C14 O14 1.159157 1_555
C14 Mn2 1.853252 1_555
C15 O15 1.159157 1_555
C15 Mn3 1.853252 1_555
C16 O16 1.157089 1_555
C16 Mn4 1.857990 1_555
C17 O17 1.157089 1_555
C17 Mn5 1.857990 1_555
C18 O18 1.157089 1_555
C18 Mn4 1.857990 1_555
C19 O19 1.157089 1_555
C19 Mn5 1.857990 1_555
C20 O20 1.160566 1_555
C20 Mn4 1.823997 1_555
C21 O21 1.160566 1_555
C21 Mn5 1.823997 1_555
C22 O22 1.160566 1_555
C22 Mn4 1.823997 1_555
C23 O23 1.160566 1_555
C23 Mn5 1.823997 1_555
