# generated using pymatgen
data_CaScSi3HO9
_symmetry_space_group_name_H-M   'P 1'
_cell_length_a   6.86659400
_cell_length_b   7.14054211
_cell_length_c   7.58638722
_cell_angle_alpha   104.42146131
_cell_angle_beta   93.60692270
_cell_angle_gamma   91.83733970
_symmetry_Int_Tables_number   1
_chemical_formula_structural   CaScSi3HO9
_chemical_formula_sum   'Ca2 Sc2 Si6 H2 O18'
_cell_volume   359.09667631
_cell_formula_units_Z   2
loop_
 _symmetry_equiv_pos_site_id
 _symmetry_equiv_pos_as_xyz
  1  'x, y, z'
loop_
 _atom_site_type_symbol
 _atom_site_label
 _atom_site_symmetry_multiplicity
 _atom_site_fract_x
 _atom_site_fract_y
 _atom_site_fract_z
 _atom_site_occupancy
  Ca  Ca0  1  0.34337500  0.91455500  0.66849100  1
  Ca  Ca1  1  0.65662500  0.08544500  0.33150900  1
  Sc  Sc0  1  0.35116000  0.40644700  0.64304100  1
  Sc  Sc1  1  0.64884000  0.59355300  0.35695900  1
  Si  Si0  1  0.17560800  0.08996200  0.25882500  1
  Si  Si1  1  0.82439200  0.91003800  0.74117500  1
  Si  Si2  1  0.14336000  0.52371400  0.27838100  1
  Si  Si3  1  0.85664000  0.47628600  0.72161900  1
  Si  Si4  1  0.36629300  0.74016300  0.04552100  1
  Si  Si5  1  0.63370700  0.25983700  0.95447900  1
  H  H0  1  0.97064700  0.83902500  0.30513200  1
  H  H1  1  0.02935300  0.16097500  0.69486800  1
  O  O0  1  0.66617600  0.87214100  0.56334300  1
  O  O1  1  0.33382400  0.12785900  0.43665700  1
  O  O2  1  0.67193800  0.42049300  0.56181300  1
  O  O3  1  0.32806200  0.57950700  0.43818700  1
  O  O4  1  0.43883400  0.24002500  0.81585300  1
  O  O5  1  0.56116600  0.75997500  0.18414700  1
  O  O6  1  0.97256900  0.97684700  0.28998400  1
  O  O7  1  0.02743100  0.02315300  0.71001600  1
  O  O8  1  0.94612800  0.63065200  0.34741900  1
  O  O9  1  0.05387200  0.36934800  0.65258100  1
  O  O10  1  0.39476700  0.67370900  0.82833100  1
  O  O11  1  0.60523300  0.32629100  0.17166900  1
  O  O12  1  0.10167000  0.28847600  0.21557200  1
  O  O13  1  0.89833000  0.71152400  0.78442800  1
  O  O14  1  0.20456200  0.59477100  0.09936700  1
  O  O15  1  0.79543800  0.40522900  0.90063300  1
  O  O16  1  0.28099500  0.96181400  0.08148100  1
  O  O17  1  0.71900500  0.03818600  0.91851900  1
loop_
_geom_bond_atom_site_label_1
_geom_bond_atom_site_label_2
_geom_bond_distance
_geom_bond_site_symmetry_2
Ca0 O7 2.340791 1_565
Ca0 O10 2.361438 1_555
Ca0 O4 2.365702 1_565
Ca0 O0 2.405469 1_555
Ca0 O3 2.581870 1_555
Ca0 O1 2.596862 1_565
Ca1 O6 2.340791 1_545
Ca1 O11 2.361438 1_555
Ca1 O5 2.365702 1_545
Ca1 O1 2.405469 1_555
Ca1 O2 2.581870 1_555
Ca1 O0 2.596862 1_545
H0 O6 1.018612 1_555
H0 O8 1.604241 1_555
H1 O7 1.018612 1_555
H1 O9 1.604241 1_555
O0 Si1 1.639655 1_555
O0 Sc1 2.198355 1_555
O1 Si0 1.639655 1_555
O1 Sc0 2.198355 1_555
O2 Si3 1.664507 1_555
O2 Sc1 2.214858 1_555
O2 Sc0 2.329994 1_555
O3 Si2 1.664507 1_555
O3 Sc0 2.214858 1_555
O3 Sc1 2.329994 1_555
O4 Si5 1.628884 1_555
O4 Sc0 2.053277 1_555
O5 Si4 1.628884 1_555
O5 Sc1 2.053277 1_555
O6 Si0 1.648143 1_665
O7 Si1 1.648143 1_445
O8 Si2 1.627239 1_655
O8 Sc1 2.058157 1_555
O9 Si3 1.627239 1_455
O9 Sc0 2.058157 1_555
O10 Si4 1.623362 1_556
O10 Sc0 2.069240 1_555
O11 Si5 1.623362 1_554
O11 Sc1 2.069240 1_555
O12 Si0 1.622222 1_555
O12 Si2 1.638233 1_555
O13 Si1 1.622222 1_555
O13 Si3 1.638233 1_555
O14 Si4 1.634740 1_555
O14 Si2 1.636999 1_555
O15 Si5 1.634740 1_555
O15 Si3 1.636999 1_555
O16 Si0 1.650098 1_565
O16 Si4 1.669407 1_555
O17 Si1 1.650098 1_545
O17 Si5 1.669407 1_555
