# generated using pymatgen
data_BaC2S2(NO)2
_symmetry_space_group_name_H-M   'P 1'
_cell_length_a   7.10117432
_cell_length_b   7.10117432
_cell_length_c   12.23125581
_cell_angle_alpha   83.92331301
_cell_angle_beta   83.92331301
_cell_angle_gamma   38.19037989
_symmetry_Int_Tables_number   1
_chemical_formula_structural   BaC2S2(NO)2
_chemical_formula_sum   'Ba2 C4 S4 N4 O4'
_cell_volume   378.94119268
_cell_formula_units_Z   2
loop_
 _symmetry_equiv_pos_site_id
 _symmetry_equiv_pos_as_xyz
  1  'x, y, z'
loop_
 _atom_site_type_symbol
 _atom_site_label
 _atom_site_symmetry_multiplicity
 _atom_site_fract_x
 _atom_site_fract_y
 _atom_site_fract_z
 _atom_site_occupancy
  Ba  Ba0  1  0.87500900  0.87500900  0.26374000  1
  Ba  Ba1  1  0.12499100  0.12499100  0.73626000  1
  C  C0  1  0.65574000  0.65574000  0.49724000  1
  C  C1  1  0.34426000  0.34426000  0.50276000  1
  C  C2  1  0.56231300  0.56231300  0.12989300  1
  C  C3  1  0.43768700  0.43768700  0.87010700  1
  S  S0  1  0.64351100  0.64351100  0.36686800  1
  S  S1  1  0.35648900  0.35648900  0.63313200  1
  S  S2  1  0.67537600  0.67537600  0.06875300  1
  S  S3  1  0.32462400  0.32462400  0.93124700  1
  N  N0  1  0.34005200  0.34005200  0.40592300  1
  N  N1  1  0.65994800  0.65994800  0.59407700  1
  N  N2  1  0.47778200  0.47778200  0.17333200  1
  N  N3  1  0.52221800  0.52221800  0.82666800  1
  O  O0  1  0.00490900  0.00490900  0.44846100  1
  O  O1  1  0.99509100  0.99509100  0.55153900  1
  O  O2  1  0.95530700  0.95530700  0.02138700  1
  O  O3  1  0.04469300  0.04469300  0.97861300  1
loop_
_geom_bond_atom_site_label_1
_geom_bond_atom_site_label_2
_geom_bond_distance
_geom_bond_site_symmetry_2
Ba0 N2 2.860105 1_565
Ba0 N2 2.860105 1_655
Ba0 N0 2.908322 1_565
Ba0 N0 2.908322 1_655
Ba0 O0 3.004431 1_665
Ba0 O2 3.038522 1_555
Ba0 S0 3.219616 1_555
Ba0 S2 3.781260 1_555
Ba1 N3 2.860105 1_545
Ba1 N3 2.860105 1_455
Ba1 N1 2.908322 1_545
Ba1 N1 2.908322 1_455
Ba1 O1 3.004431 1_445
Ba1 O3 3.038522 1_555
Ba1 S1 3.219616 1_555
Ba1 S3 3.781260 1_555
C0 N1 1.192086 1_555
C0 S0 1.621223 1_555
C1 N0 1.192086 1_555
C1 S1 1.621223 1_555
C2 N2 1.197620 1_555
C2 S2 1.614781 1_555
C3 N3 1.197620 1_555
C3 S3 1.614781 1_555
O0 O1 1.252873 1_445
O2 O3 1.253887 1_664
