# generated using pymatgen
data_K3SrPCO7
_symmetry_space_group_name_H-M   'P 1'
_cell_length_a   7.59896500
_cell_length_b   5.76335200
_cell_length_c   10.03172446
_cell_angle_alpha   89.15402799
_cell_angle_beta   90.00000000
_cell_angle_gamma   90.00000000
_symmetry_Int_Tables_number   1
_chemical_formula_structural   K3SrPCO7
_chemical_formula_sum   'K6 Sr2 P2 C2 O14'
_cell_volume   439.29660158
_cell_formula_units_Z   2
loop_
 _symmetry_equiv_pos_site_id
 _symmetry_equiv_pos_as_xyz
  1  'x, y, z'
loop_
 _atom_site_type_symbol
 _atom_site_label
 _atom_site_symmetry_multiplicity
 _atom_site_fract_x
 _atom_site_fract_y
 _atom_site_fract_z
 _atom_site_occupancy
  K  K0  1  0.25000000  0.76112700  0.91636700  1
  K  K1  1  0.00537700  0.25185300  0.74197700  1
  K  K2  1  0.49462300  0.25185300  0.74197700  1
  K  K3  1  0.50537700  0.74814700  0.25802300  1
  K  K4  1  0.99462300  0.74814700  0.25802300  1
  K  K5  1  0.75000000  0.23887300  0.08363300  1
  Sr  Sr0  1  0.75000000  0.77411100  0.63443200  1
  Sr  Sr1  1  0.25000000  0.22588900  0.36556800  1
  P  P0  1  0.25000000  0.70128600  0.58935800  1
  P  P1  1  0.75000000  0.29871400  0.41064200  1
  C  C0  1  0.75000000  0.73662700  0.93693200  1
  C  C1  1  0.25000000  0.26337300  0.06306800  1
  O  O0  1  0.25000000  0.27957200  0.93352100  1
  O  O1  1  0.75000000  0.94033700  0.87778600  1
  O  O2  1  0.75000000  0.54961900  0.86444700  1
  O  O3  1  0.08253900  0.77562600  0.66896300  1
  O  O4  1  0.41746100  0.77562600  0.66896300  1
  O  O5  1  0.25000000  0.43144100  0.57598600  1
  O  O6  1  0.75000000  0.18689300  0.55367100  1
  O  O7  1  0.25000000  0.81310700  0.44632900  1
  O  O8  1  0.75000000  0.56855900  0.42401400  1
  O  O9  1  0.58253900  0.22437400  0.33103700  1
  O  O10  1  0.91746100  0.22437400  0.33103700  1
  O  O11  1  0.25000000  0.45038100  0.13555300  1
  O  O12  1  0.25000000  0.05966300  0.12221400  1
  O  O13  1  0.75000000  0.72042800  0.06647900  1
loop_
_geom_bond_atom_site_label_1
_geom_bond_atom_site_label_2
_geom_bond_distance
_geom_bond_site_symmetry_2
K0 O12 2.707304 1_566
K0 O0 2.778164 1_555
K0 O3 2.789259 1_555
K0 O4 2.789259 1_555
K0 O11 2.815308 1_556
K0 O0 2.995468 1_565
K1 O0 2.679973 1_555
K1 O5 2.692330 1_555
K1 O6 2.737778 1_455
K1 O2 2.877971 1_455
K1 O3 2.910815 1_545
K1 O1 2.961960 1_445
K1 O3 3.150792 1_555
K2 O0 2.679973 1_555
K2 O5 2.692330 1_555
K2 O6 2.737778 1_555
K2 O2 2.877971 1_555
K2 O4 2.910815 1_545
K2 O1 2.961960 1_545
K2 O4 3.150792 1_555
K3 O13 2.679973 1_555
K3 O8 2.692330 1_555
K3 O7 2.737778 1_555
K3 O11 2.877971 1_555
K3 O9 2.910815 1_565
K3 O12 2.961960 1_565
K3 O9 3.150792 1_555
K4 O13 2.679973 1_555
K4 O8 2.692330 1_555
K4 O7 2.737778 1_655
K4 O11 2.877971 1_655
K4 O10 2.910815 1_565
K4 O12 2.961960 1_665
K4 O10 3.150792 1_555
K5 O1 2.707304 1_544
K5 O13 2.778164 1_555
K5 O9 2.789259 1_555
K5 O10 2.789259 1_555
K5 O2 2.815308 1_554
K5 O13 2.995468 1_545
C0 O13 1.301553 1_556
C0 O1 1.307623 1_555
C0 O2 1.309017 1_555
C1 O0 1.301553 1_554
C1 O12 1.307623 1_555
C1 O11 1.309017 1_555
O1 Sr0 2.635643 1_555
O2 Sr0 2.628715 1_555
O3 P0 1.565480 1_555
O3 Sr0 2.550618 1_455
O4 P0 1.565480 1_555
O4 Sr0 2.550618 1_555
O5 P0 1.562958 1_555
O5 Sr1 2.435773 1_555
O6 P1 1.564212 1_555
O6 Sr0 2.501828 1_545
O7 P0 1.564212 1_555
O7 Sr1 2.501828 1_565
O8 P1 1.562958 1_555
O8 Sr0 2.435773 1_555
O9 P1 1.565480 1_555
O9 Sr1 2.550618 1_555
O10 P1 1.565480 1_555
O10 Sr1 2.550618 1_655
O11 Sr1 2.628715 1_555
O12 Sr1 2.635643 1_555
