# generated using pymatgen
data_Li5V3P8O29
_symmetry_space_group_name_H-M   'P 1'
_cell_length_a   9.77646000
_cell_length_b   9.78840519
_cell_length_c   13.96127499
_cell_angle_alpha   89.93897309
_cell_angle_beta   89.96466946
_cell_angle_gamma   60.16272130
_symmetry_Int_Tables_number   1
_chemical_formula_structural   Li5V3P8O29
_chemical_formula_sum   'Li10 V6 P16 O58'
_cell_volume   1158.93427082
_cell_formula_units_Z   2
loop_
 _symmetry_equiv_pos_site_id
 _symmetry_equiv_pos_as_xyz
  1  'x, y, z'
loop_
 _atom_site_type_symbol
 _atom_site_label
 _atom_site_symmetry_multiplicity
 _atom_site_fract_x
 _atom_site_fract_y
 _atom_site_fract_z
 _atom_site_occupancy
  Li  Li0  1  0.22991300  0.67589200  0.05909100  1
  Li  Li1  1  0.09971800  0.66594700  0.56066400  1
  Li  Li2  1  0.66641600  0.23389800  0.56033700  1
  Li  Li3  1  0.67693500  0.09420100  0.05997900  1
  Li  Li4  1  0.09476800  0.22797200  0.05941000  1
  Li  Li5  1  0.23375200  0.09927200  0.55984400  1
  Li  Li6  1  0.90455200  0.77301200  0.93738300  1
  Li  Li7  1  0.32271700  0.90442000  0.93751700  1
  Li  Li8  1  0.77324300  0.32331000  0.93698300  1
  Li  Li9  1  0.00364300  0.00118100  0.50044800  1
  V  V0  1  0.56787400  0.99983900  0.25184200  1
  V  V1  1  0.43264200  0.00004200  0.74788000  1
  V  V2  1  0.99982600  0.56750500  0.74805400  1
  V  V3  1  0.99714100  0.43492600  0.25539400  1
  V  V4  1  0.43627100  0.56676200  0.25506200  1
  V  V5  1  0.56716200  0.43283900  0.74797000  1
  P  P0  1  0.23345300  0.67988000  0.84289200  1
  P  P1  1  0.08725100  0.68693200  0.34227900  1
  P  P2  1  0.68706900  0.22586600  0.34273100  1
  P  P3  1  0.33205600  0.33603500  0.13009400  1
  P  P4  1  0.33292000  0.33357800  0.62592100  1
  P  P5  1  0.68043600  0.08678700  0.84280400  1
  P  P6  1  0.77457700  0.91569400  0.65756600  1
  P  P7  1  0.08686900  0.23325300  0.84279200  1
  P  P8  1  0.91277500  0.76811800  0.15772800  1
  P  P9  1  0.22626500  0.08714400  0.34299400  1
  P  P10  1  0.31860400  0.91138700  0.15927100  1
  P  P11  1  0.66814100  0.66743800  0.37235100  1
  P  P12  1  0.66653200  0.66697900  0.87185800  1
  P  P13  1  0.31042200  0.77384700  0.65760900  1
  P  P14  1  0.91552900  0.30997500  0.65772900  1
  P  P15  1  0.77001500  0.31881900  0.15841300  1
  O  O0  1  0.20674300  0.78692300  0.57572300  1
  O  O1  1  0.25852300  0.65620800  0.33261100  1
  O  O2  1  0.00426100  0.75242600  0.06808800  1
  O  O3  1  0.08410800  0.66367100  0.84151500  1
  O  O4  1  0.38254100  0.52014700  0.82282200  1
  O  O5  1  0.33150900  0.48686200  0.17273000  1
  O  O6  1  0.52782300  0.38179500  0.32609600  1
  O  O7  1  0.75831100  0.24164400  0.06811500  1
  O  O8  1  0.66360400  0.25233600  0.84159900  1
  O  O9  1  0.19005300  0.48929800  0.66728100  1
  O  O10  1  0.08890800  0.52840500  0.32793800  1
  O  O11  1  0.48921400  0.32054900  0.66710200  1
  O  O12  1  0.32371700  0.34391800  0.02338200  1
  O  O13  1  0.33244000  0.33447200  0.51885000  1
  O  O14  1  0.48509800  0.18721300  0.16698200  1
  O  O15  1  0.09729300  0.38280000  0.82271000  1
  O  O16  1  0.18299700  0.33368100  0.17325900  1
  O  O17  1  0.65671000  0.08648900  0.33283800  1
  O  O18  1  0.79659900  0.99201800  0.75629400  1
  O  O19  1  0.78822400  0.00611000  0.57559400  1
  O  O20  1  0.75404400  0.00052000  0.93465800  1
  O  O21  1  0.52040400  0.09691400  0.82285200  1
  O  O22  1  0.32031000  0.18987500  0.66679800  1
  O  O23  1  0.74765100  0.91598800  0.15692800  1
  O  O24  1  0.37873500  0.09173400  0.32927300  1
  O  O25  1  0.08228100  0.25755900  0.33045200  1
  O  O26  1  0.99943900  0.79334700  0.24988200  1
  O  O27  1  0.01329800  0.76846500  0.43360300  1
  O  O28  1  0.00580100  0.20633600  0.57601900  1
  O  O29  1  0.91747900  0.74421400  0.65986200  1
  O  O30  1  0.62021300  0.91284900  0.66856900  1
  O  O31  1  0.25208200  0.08444600  0.84149400  1
  O  O32  1  0.67119000  0.80971900  0.32835700  1
  O  O33  1  0.47687200  0.90542000  0.17707600  1
  O  O34  1  0.23994800  0.99916700  0.06908600  1
  O  O35  1  0.20985000  0.01652900  0.43334400  1
  O  O36  1  0.20780100  0.99604700  0.25086100  1
  O  O37  1  0.33868600  0.91738200  0.65974700  1
  O  O38  1  0.81332700  0.67512800  0.83120700  1
  O  O39  1  0.90402200  0.61798000  0.17840600  1
  O  O40  1  0.51203800  0.81348400  0.83136900  1
  O  O41  1  0.66669100  0.66665500  0.97896200  1
  O  O42  1  0.66815100  0.65433800  0.47734800  1
  O  O43  1  0.51943900  0.66442300  0.32551800  1
  O  O44  1  0.91292900  0.46683200  0.66871600  1
  O  O45  1  0.81573300  0.51566700  0.32570200  1
  O  O46  1  0.33989200  0.74328700  0.15985500  1
  O  O47  1  0.21211700  0.79613500  0.75630200  1
  O  O48  1  0.24655400  0.75358500  0.93443800  1
  O  O49  1  0.46713100  0.62009800  0.66869600  1
  O  O50  1  0.67459100  0.51242000  0.83114800  1
  O  O51  1  0.61848800  0.47702900  0.17725900  1
  O  O52  1  0.91681300  0.33969300  0.15844300  1
  O  O53  1  0.00055200  0.24578600  0.93463800  1
  O  O54  1  0.99169400  0.21174200  0.75645800  1
  O  O55  1  0.74378900  0.33807400  0.66013900  1
  O  O56  1  0.76698400  0.22292900  0.43361400  1
  O  O57  1  0.79481300  0.20827600  0.25019200  1
loop_
_geom_bond_atom_site_label_1
_geom_bond_atom_site_label_2
_geom_bond_distance
_geom_bond_site_symmetry_2
Li0 O48 1.937384 1_554
Li0 O2 1.949127 1_555
Li0 O46 2.068811 1_555
Li0 O5 2.257037 1_555
Li1 O0 1.942926 1_555
Li1 O27 2.005506 1_555
Li1 O29 2.078518 1_455
Li1 O9 2.112353 1_555
Li2 O19 1.947340 1_555
Li2 O56 2.000386 1_555
Li2 O55 2.079748 1_555
Li2 O11 2.116557 1_555
Li3 O20 1.945334 1_554
Li3 O7 1.967676 1_555
Li3 O23 2.036927 1_545
Li3 O14 2.208713 1_555
Li4 O53 1.937736 1_554
Li4 O34 1.971087 1_545
Li4 O52 2.059469 1_455
Li4 O16 2.287887 1_555
Li5 O28 1.947206 1_555
Li5 O35 2.005387 1_555
Li5 O37 2.084867 1_545
Li5 O22 2.117424 1_555
Li6 O20 1.965974 1_565
Li6 O2 2.031432 1_656
Li6 O3 2.036918 1_655
Li6 O38 2.183060 1_555
Li7 O48 1.957106 1_555
Li7 O34 2.035687 1_556
Li7 O31 2.040721 1_565
Li7 O40 2.185026 1_555
Li8 O53 1.958913 1_655
Li8 O7 2.030938 1_556
Li8 O8 2.037074 1_555
Li8 O50 2.181605 1_555
Li9 O28 2.278802 1_555
Li9 O35 2.294160 1_555
Li9 O0 2.302085 1_545
Li9 O19 2.331237 1_455
Li9 O27 2.420583 1_545
Li9 O56 2.436433 1_455
O0 P13 1.490905 1_555
O1 P1 1.552775 1_555
O1 V4 1.855871 1_555
O2 P8 1.500703 1_455
O3 P0 1.545279 1_555
O3 V2 2.010808 1_455
O4 P0 1.542830 1_555
O4 V5 1.882791 1_555
O5 P3 1.589966 1_555
O5 V4 1.944829 1_555
O6 P2 1.562848 1_555
O6 V4 1.856715 1_555
O7 P15 1.503753 1_555
O8 P5 1.545268 1_555
O8 V5 2.014532 1_555
O9 P4 1.577982 1_555
O9 V2 1.974578 1_455
O10 P1 1.556872 1_555
O10 V3 1.867584 1_455
O11 P4 1.577538 1_555
O11 V5 1.975022 1_555
O12 P3 1.491930 1_555
O13 P4 1.494861 1_555
O14 P3 1.567304 1_555
O14 V0 1.985458 1_545
O15 P7 1.542503 1_555
O15 V2 1.883087 1_455
O16 P3 1.587337 1_555
O16 V3 1.951057 1_455
O17 P2 1.540067 1_555
O17 V0 1.867797 1_545
O18 P5 1.600436 1_565
O18 P6 1.633099 1_555
O19 P6 1.491964 1_545
O20 P5 1.506521 1_555
O21 P5 1.543171 1_555
O21 V1 1.882465 1_555
O22 P4 1.578049 1_555
O22 V1 1.976543 1_555
O23 P8 1.541452 1_555
O23 V0 2.020564 1_555
O24 P9 1.525426 1_555
O24 V0 1.934287 1_545
O25 P9 1.567745 1_555
O25 V3 1.834211 1_455
O26 P1 1.610816 1_655
O26 P8 1.626155 1_555
O27 P1 1.487327 1_555
O28 P14 1.489868 1_455
O29 P6 1.561004 1_555
O29 V2 1.940887 1_555
O30 P6 1.530811 1_555
O30 V1 1.938910 1_565
O31 P7 1.545885 1_555
O31 V1 2.013713 1_555
O32 P11 1.535329 1_555
O32 V0 1.936813 1_555
O33 P10 1.539434 1_555
O33 V0 1.885914 1_555
O34 P10 1.502112 1_555
O35 P9 1.484226 1_555
O36 P10 1.613248 1_555
O36 P9 1.626393 1_565
O37 P13 1.561289 1_555
O37 V1 1.937906 1_565
O38 P12 1.581420 1_555
O38 V2 1.967388 1_555
O39 P8 1.540983 1_555
O39 V3 1.889068 1_555
O40 P12 1.581567 1_555
O40 V1 1.970262 1_565
O41 P12 1.495309 1_555
O42 P11 1.471349 1_555
O43 P11 1.608033 1_555
O43 V4 1.821800 1_555
O44 P14 1.530761 1_555
O44 V2 1.938101 1_555
O45 P11 1.606564 1_555
O45 V3 1.827095 1_555
O46 P10 1.552428 1_555
O46 V4 2.004202 1_555
O47 P0 1.600338 1_555
O47 P13 1.631006 1_555
O48 P0 1.504844 1_555
O49 P13 1.530204 1_555
O49 V5 1.937621 1_555
O50 P12 1.581529 1_555
O50 V5 1.968746 1_555
O51 P15 1.542581 1_555
O51 V4 1.888792 1_555
O52 P15 1.547010 1_555
O52 V3 2.012529 1_555
O53 P7 1.505796 1_555
O54 P7 1.599945 1_655
O54 P14 1.632467 1_555
O55 P14 1.560857 1_555
O55 V5 1.936959 1_555
O56 P2 1.483236 1_555
O57 P15 1.614882 1_555
O57 P2 1.620707 1_555
