# generated using pymatgen
data_NiP4O11
_symmetry_space_group_name_H-M   'P 1'
_cell_length_a   12.43007000
_cell_length_b   8.21311000
_cell_length_c   11.11232974
_cell_angle_alpha   49.31743194
_cell_angle_beta   90.00000000
_cell_angle_gamma   90.00000000
_symmetry_Int_Tables_number   1
_chemical_formula_structural   NiP4O11
_chemical_formula_sum   'Ni4 P16 O44'
_cell_volume   860.29245994
_cell_formula_units_Z   4
loop_
 _symmetry_equiv_pos_site_id
 _symmetry_equiv_pos_as_xyz
  1  'x, y, z'
loop_
 _atom_site_type_symbol
 _atom_site_label
 _atom_site_symmetry_multiplicity
 _atom_site_fract_x
 _atom_site_fract_y
 _atom_site_fract_z
 _atom_site_occupancy
  Ni  Ni0  1  0.46567000  0.49243900  0.73596400  1
  Ni  Ni1  1  0.96567000  0.50756100  0.76403600  1
  Ni  Ni2  1  0.03433000  0.49243900  0.23596400  1
  Ni  Ni3  1  0.53433000  0.50756100  0.26403600  1
  P  P0  1  0.21185000  0.50190600  0.60439100  1
  P  P1  1  0.16518800  0.85034600  0.26399100  1
  P  P2  1  0.49618600  0.83532300  0.34242200  1
  P  P3  1  0.84777400  0.84897400  0.40251100  1
  P  P4  1  0.34777400  0.15102600  0.09748900  1
  P  P5  1  0.99618600  0.16467700  0.15757800  1
  P  P6  1  0.71185000  0.49809400  0.89560900  1
  P  P7  1  0.66518800  0.14965400  0.23600900  1
  P  P8  1  0.33481200  0.85034600  0.76399100  1
  P  P9  1  0.28815000  0.50190600  0.10439100  1
  P  P10  1  0.00381400  0.83532300  0.84242200  1
  P  P11  1  0.65222600  0.84897400  0.90251100  1
  P  P12  1  0.15222600  0.15102600  0.59748900  1
  P  P13  1  0.50381400  0.16467700  0.65757800  1
  P  P14  1  0.83481200  0.14965400  0.73600900  1
  P  P15  1  0.78815000  0.49809400  0.39560900  1
  O  O0  1  0.89994000  0.28019400  0.75463500  1
  O  O1  1  0.46936200  0.70720700  0.29566500  1
  O  O2  1  0.78068400  0.66874100  0.42624400  1
  O  O3  1  0.10269600  0.50025200  0.65774900  1
  O  O4  1  0.31090400  0.46907100  0.69049000  1
  O  O5  1  0.41922200  0.21979500  0.96666100  1
  O  O6  1  0.23299400  0.72456200  0.42122600  1
  O  O7  1  0.25528200  0.98929600  0.12830800  1
  O  O8  1  0.90509800  0.97270000  0.23642600  1
  O  O9  1  0.60131500  0.98316200  0.23647100  1
  O  O10  1  0.51240200  0.74588300  0.50781300  1
  O  O11  1  0.01240200  0.25411700  0.99218700  1
  O  O12  1  0.10131500  0.01683800  0.26352900  1
  O  O13  1  0.91922200  0.78020500  0.53333900  1
  O  O14  1  0.81090400  0.53092900  0.80951000  1
  O  O15  1  0.40509800  0.02730000  0.26357400  1
  O  O16  1  0.60269600  0.49974800  0.84225100  1
  O  O17  1  0.75528200  0.01070400  0.37169200  1
  O  O18  1  0.73299400  0.27543800  0.07877400  1
  O  O19  1  0.28068400  0.33125900  0.07375600  1
  O  O20  1  0.39994000  0.71980600  0.74536500  1
  O  O21  1  0.03063800  0.70720700  0.79566500  1
  O  O22  1  0.96936200  0.29279300  0.20433500  1
  O  O23  1  0.60006000  0.28019400  0.25463500  1
  O  O24  1  0.71931600  0.66874100  0.92624400  1
  O  O25  1  0.26700600  0.72456200  0.92122600  1
  O  O26  1  0.24471800  0.98929600  0.62830800  1
  O  O27  1  0.39730400  0.50025200  0.15774900  1
  O  O28  1  0.59490200  0.97270000  0.73642600  1
  O  O29  1  0.18909600  0.46907100  0.19049000  1
  O  O30  1  0.08077800  0.21979500  0.46666100  1
  O  O31  1  0.89868500  0.98316200  0.73647100  1
  O  O32  1  0.98759800  0.74588300  0.00781300  1
  O  O33  1  0.48759800  0.25411700  0.49218700  1
  O  O34  1  0.39868500  0.01683800  0.76352900  1
  O  O35  1  0.09490200  0.02730000  0.76357400  1
  O  O36  1  0.74471800  0.01070400  0.87169200  1
  O  O37  1  0.76700600  0.27543800  0.57877400  1
  O  O38  1  0.58077800  0.78020500  0.03333900  1
  O  O39  1  0.68909600  0.53092900  0.30951000  1
  O  O40  1  0.89730400  0.49974800  0.34225100  1
  O  O41  1  0.21931600  0.33125900  0.57375600  1
  O  O42  1  0.53063800  0.29279300  0.70433500  1
  O  O43  1  0.10006000  0.71980600  0.24536500  1
loop_
_geom_bond_atom_site_label_1
_geom_bond_atom_site_label_2
_geom_bond_distance
_geom_bond_site_symmetry_2
Ni0 O4 2.029642 1_555
Ni0 O42 2.053218 1_555
Ni0 O10 2.053712 1_555
Ni0 O16 2.095725 1_555
Ni0 O20 2.102363 1_555
Ni0 O5 2.106048 1_555
Ni1 O14 2.029642 1_555
Ni1 O21 2.053218 1_655
Ni1 O11 2.053712 1_655
Ni1 O3 2.095725 1_655
Ni1 O0 2.102363 1_555
Ni1 O13 2.106048 1_555
Ni2 O29 2.029642 1_555
Ni2 O22 2.053218 1_455
Ni2 O32 2.053712 1_455
Ni2 O40 2.095725 1_455
Ni2 O43 2.102363 1_555
Ni2 O30 2.106048 1_555
Ni3 O39 2.029642 1_555
Ni3 O1 2.053218 1_555
Ni3 O33 2.053712 1_555
Ni3 O27 2.095725 1_555
Ni3 O23 2.102363 1_555
Ni3 O38 2.106048 1_555
O0 P14 1.461848 1_555
O1 P2 1.483610 1_555
O2 P3 1.564366 1_555
O2 P15 1.646470 1_555
O3 P0 1.477205 1_555
O4 P0 1.472312 1_555
O5 P4 1.466547 1_556
O6 P1 1.573910 1_555
O6 P0 1.644194 1_555
O7 P1 1.608264 1_555
O7 P4 1.615666 1_565
O8 P3 1.581598 1_555
O8 P5 1.653662 1_565
O9 P7 1.578307 1_565
O9 P2 1.644489 1_555
O10 P2 1.482533 1_555
O11 P5 1.482533 1_456
O12 P1 1.578307 1_545
O12 P5 1.644489 1_455
O13 P3 1.466547 1_555
O14 P6 1.472312 1_555
O15 P4 1.581598 1_555
O15 P2 1.653662 1_545
O16 P6 1.477205 1_555
O17 P7 1.608264 1_555
O17 P3 1.615666 1_545
O18 P7 1.573910 1_555
O18 P6 1.644194 1_554
O19 P4 1.564366 1_555
O19 P9 1.646470 1_555
O20 P8 1.461848 1_555
O21 P10 1.483610 1_555
O22 P5 1.483610 1_555
O23 P7 1.461848 1_555
O24 P11 1.564366 1_555
O24 P6 1.646470 1_555
O25 P8 1.573910 1_555
O25 P9 1.644194 1_556
O26 P8 1.608264 1_555
O26 P12 1.615666 1_565
O27 P9 1.477205 1_555
O28 P11 1.581598 1_555
O28 P13 1.653662 1_565
O29 P9 1.472312 1_555
O30 P12 1.466547 1_555
O31 P14 1.578307 1_565
O31 P10 1.644489 1_655
O32 P10 1.482533 1_654
O33 P13 1.482533 1_555
O34 P8 1.578307 1_545
O34 P13 1.644489 1_555
O35 P12 1.581598 1_555
O35 P10 1.653662 1_545
O36 P14 1.608264 1_555
O36 P11 1.615666 1_545
O37 P14 1.573910 1_555
O37 P15 1.644194 1_555
O38 P11 1.466547 1_554
O39 P15 1.472312 1_555
O40 P15 1.477205 1_555
O41 P12 1.564366 1_555
O41 P0 1.646470 1_555
O42 P13 1.483610 1_555
O43 P1 1.461848 1_555
