# generated using pymatgen
data_Gd3NbO7
_symmetry_space_group_name_H-M   'P 1'
_cell_length_a   6.43260264
_cell_length_b   6.53016937
_cell_length_c   7.65673420
_cell_angle_alpha   106.88561766
_cell_angle_beta   89.78566257
_cell_angle_gamma   97.53629653
_symmetry_Int_Tables_number   1
_chemical_formula_structural   Gd3NbO7
_chemical_formula_sum   'Gd6 Nb2 O14'
_cell_volume   304.90353094
_cell_formula_units_Z   2
loop_
 _symmetry_equiv_pos_site_id
 _symmetry_equiv_pos_as_xyz
  1  'x, y, z'
loop_
 _atom_site_type_symbol
 _atom_site_label
 _atom_site_symmetry_multiplicity
 _atom_site_fract_x
 _atom_site_fract_y
 _atom_site_fract_z
 _atom_site_occupancy
  Gd  Gd0  1  0.73793380  0.46382097  0.11659092  1
  Gd  Gd1  1  0.73859891  0.46184061  0.61071446  1
  Gd  Gd2  1  0.54540486  0.99337943  0.74940575  1
  Gd  Gd3  1  0.45459514  0.00662057  0.25059425  1
  Gd  Gd4  1  0.26140109  0.53815939  0.38928554  1
  Gd  Gd5  1  0.26206620  0.53617903  0.88340908  1
  Nb  Nb0  1  0.00000000  0.00000000  -0.00000000  1
  Nb  Nb1  1  0.00000000  0.00000000  0.50000000  1
  O  O0  1  0.71041347  0.06944131  0.48387990  1
  O  O1  1  0.92163911  0.67854095  0.94810078  1
  O  O2  1  0.70924057  0.07107965  0.05000193  1
  O  O3  1  0.92522095  0.67012302  0.39359664  1
  O  O4  1  0.91324389  0.95400380  0.73759520  1
  O  O5  1  0.55815387  0.35060880  0.83470999  1
  O  O6  1  0.54303779  0.36235712  0.34215809  1
  O  O7  1  0.45696221  0.63764288  0.65784191  1
  O  O8  1  0.44184613  0.64939120  0.16529001  1
  O  O9  1  0.08675611  0.04599620  0.26240480  1
  O  O10  1  0.07477905  0.32987698  0.60640336  1
  O  O11  1  0.29075943  0.92892035  0.94999807  1
  O  O12  1  0.07836089  0.32145905  0.05189922  1
  O  O13  1  0.28958653  0.93055869  0.51612010  1
loop_
_geom_bond_atom_site_label_1
_geom_bond_atom_site_label_2
_geom_bond_distance
_geom_bond_site_symmetry_2
Gd0 O5 2.325860 1_554
Gd0 O6 2.329019 1_555
Gd0 O8 2.360651 1_555
Gd0 O1 2.373097 1_554
Gd0 O3 2.387108 1_555
Gd0 O2 2.447132 1_555
Gd0 O12 2.482607 1_655
Gd1 O7 2.242826 1_555
Gd1 O6 2.293841 1_555
Gd1 O5 2.303047 1_555
Gd1 O10 2.427328 1_655
Gd1 O0 2.444562 1_555
Gd1 O3 2.631531 1_555
Gd1 O1 2.743033 1_555
Gd2 O7 2.218515 1_555
Gd2 O5 2.222664 1_565
Gd2 O11 2.322746 1_555
Gd2 O13 2.342219 1_555
Gd2 O4 2.411949 1_555
Gd2 O2 2.421755 1_566
Gd2 O0 2.436981 1_565
Gd3 O6 2.218515 1_555
Gd3 O8 2.222664 1_545
Gd3 O2 2.322746 1_555
Gd3 O0 2.342219 1_555
Gd3 O9 2.411949 1_555
Gd3 O11 2.421755 1_544
Gd3 O13 2.436981 1_545
Gd4 O6 2.242826 1_555
Gd4 O7 2.293841 1_555
Gd4 O8 2.303047 1_555
Gd4 O3 2.427328 1_455
Gd4 O13 2.444562 1_555
Gd4 O10 2.631531 1_555
Gd4 O12 2.743033 1_555
Gd5 O8 2.325860 1_556
Gd5 O7 2.329019 1_555
Gd5 O5 2.360651 1_555
Gd5 O12 2.373097 1_556
Gd5 O10 2.387108 1_555
Gd5 O11 2.447132 1_555
Gd5 O1 2.482607 1_455
Nb0 O11 1.994824 1_544
Nb0 O2 1.994824 1_455
Nb0 O4 2.013018 1_444
Nb0 O9 2.013018 1_555
Nb0 O1 2.014426 1_444
Nb0 O12 2.014426 1_555
Nb1 O13 1.986625 1_545
Nb1 O0 1.986625 1_455
Nb1 O4 1.994247 1_445
Nb1 O9 1.994247 1_555
Nb1 O3 2.060851 1_445
Nb1 O10 2.060851 1_555
