# generated using pymatgen
data_Li6MnSiO6
_symmetry_space_group_name_H-M   'P 1'
_cell_length_a   8.27352800
_cell_length_b   8.27352800
_cell_length_c   8.27352800
_cell_angle_alpha   90.00000000
_cell_angle_beta   90.00000000
_cell_angle_gamma   90.00000000
_symmetry_Int_Tables_number   1
_chemical_formula_structural   Li6MnSiO6
_chemical_formula_sum   'Li24 Mn4 Si4 O24'
_cell_volume   566.33346230
_cell_formula_units_Z   4
loop_
 _symmetry_equiv_pos_site_id
 _symmetry_equiv_pos_as_xyz
  1  'x, y, z'
loop_
 _atom_site_type_symbol
 _atom_site_label
 _atom_site_symmetry_multiplicity
 _atom_site_fract_x
 _atom_site_fract_y
 _atom_site_fract_z
 _atom_site_occupancy
  Li  Li0  1  0.02013500  0.17206800  0.33426000  1
  Li  Li1  1  0.00370100  0.23651500  0.72662000  1
  Li  Li2  1  0.17206800  0.33426000  0.02013500  1
  Li  Li3  1  0.16574000  0.97986500  0.67206800  1
  Li  Li4  1  0.27338000  0.50370100  0.26348500  1
  Li  Li5  1  0.23651500  0.72662000  0.00370100  1
  Li  Li6  1  0.26348500  0.27338000  0.50370100  1
  Li  Li7  1  0.22662000  0.49629900  0.76348500  1
  Li  Li8  1  0.33426000  0.02013500  0.17206800  1
  Li  Li9  1  0.32793200  0.66574000  0.52013500  1
  Li  Li10  1  0.49629900  0.76348500  0.22662000  1
  Li  Li11  1  0.47986500  0.82793200  0.83426000  1
  Li  Li12  1  0.52013500  0.32793200  0.66574000  1
  Li  Li13  1  0.50370100  0.26348500  0.27338000  1
  Li  Li14  1  0.67206800  0.16574000  0.97986500  1
  Li  Li15  1  0.66574000  0.52013500  0.32793200  1
  Li  Li16  1  0.77338000  0.99629900  0.73651500  1
  Li  Li17  1  0.73651500  0.77338000  0.99629900  1
  Li  Li18  1  0.76348500  0.22662000  0.49629900  1
  Li  Li19  1  0.72662000  0.00370100  0.23651500  1
  Li  Li20  1  0.83426000  0.47986500  0.82793200  1
  Li  Li21  1  0.82793200  0.83426000  0.47986500  1
  Li  Li22  1  0.99629900  0.73651500  0.77338000  1
  Li  Li23  1  0.97986500  0.67206800  0.16574000  1
  Mn  Mn0  1  0.12640900  0.87359100  0.37359100  1
  Mn  Mn1  1  0.37359100  0.12640900  0.87359100  1
  Mn  Mn2  1  0.62640900  0.62640900  0.62640900  1
  Mn  Mn3  1  0.87359100  0.37359100  0.12640900  1
  Si  Si0  1  0.99264400  0.50735600  0.49264400  1
  Si  Si1  1  0.50735600  0.49264400  0.99264400  1
  Si  Si2  1  0.49264400  0.99264400  0.50735600  1
  Si  Si3  1  0.00735600  0.00735600  0.00735600  1
  O  O0  1  0.01049600  0.51049600  0.98950400  1
  O  O1  1  0.12449800  0.89927100  0.88725900  1
  O  O2  1  0.10072900  0.38725900  0.37550200  1
  O  O3  1  0.12299000  0.12299000  0.12299000  1
  O  O4  1  0.11274100  0.62449800  0.60072900  1
  O  O5  1  0.23804800  0.26195200  0.73804800  1
  O  O6  1  0.26195200  0.73804800  0.23804800  1
  O  O7  1  0.38725900  0.37550200  0.10072900  1
  O  O8  1  0.37701000  0.87701000  0.62299000  1
  O  O9  1  0.39927100  0.61274100  0.87550200  1
  O  O10  1  0.37550200  0.10072900  0.38725900  1
  O  O11  1  0.48950400  0.48950400  0.48950400  1
  O  O12  1  0.51049600  0.98950400  0.01049600  1
  O  O13  1  0.62449800  0.60072900  0.11274100  1
  O  O14  1  0.60072900  0.11274100  0.62449800  1
  O  O15  1  0.62299000  0.37701000  0.87701000  1
  O  O16  1  0.61274100  0.87550200  0.39927100  1
  O  O17  1  0.73804800  0.23804800  0.26195200  1
  O  O18  1  0.76195200  0.76195200  0.76195200  1
  O  O19  1  0.88725900  0.12449800  0.89927100  1
  O  O20  1  0.87701000  0.62299000  0.37701000  1
  O  O21  1  0.89927100  0.88725900  0.12449800  1
  O  O22  1  0.87550200  0.39927100  0.61274100  1
  O  O23  1  0.98950400  0.01049600  0.51049600  1
loop_
_geom_bond_atom_site_label_1
_geom_bond_atom_site_label_2
_geom_bond_distance
_geom_bond_site_symmetry_2
Li0 O2 1.931536 1_555
Li0 O3 1.986040 1_555
Li0 O23 1.994296 1_455
Li0 O17 2.470377 1_455
Li1 O5 1.952555 1_555
Li1 O22 1.956001 1_455
Li1 O19 1.956386 1_455
Li2 O7 1.931536 1_555
Li2 O3 1.986040 1_555
Li2 O0 1.994296 1_554
Li2 O5 2.470377 1_554
Li3 O1 1.931536 1_555
Li3 O8 1.986040 1_555
Li3 O23 1.994296 1_465
Li3 O5 2.470377 1_565
Li4 O6 1.952555 1_555
Li4 O7 1.956001 1_555
Li4 O2 1.956386 1_555
Li5 O6 1.952555 1_555
Li5 O9 1.956001 1_554
Li5 O1 1.956386 1_554
Li6 O5 1.952555 1_555
Li6 O2 1.956001 1_555
Li6 O10 1.956386 1_555
Li7 O5 1.952555 1_555
Li7 O4 1.956001 1_555
Li7 O9 1.956386 1_555
Li8 O10 1.931536 1_555
Li8 O3 1.986040 1_555
Li8 O12 1.994296 1_545
Li8 O6 2.470377 1_545
Li9 O4 1.931536 1_555
Li9 O8 1.986040 1_555
Li9 O11 1.994296 1_555
Li9 O6 2.470377 1_555
Li10 O6 1.952555 1_555
Li10 O13 1.956001 1_555
Li10 O16 1.956386 1_555
Li11 O9 1.931536 1_555
Li11 O8 1.986040 1_555
Li11 O12 1.994296 1_556
Li11 O18 2.470377 1_555
Li12 O14 1.931536 1_555
Li12 O15 1.986040 1_555
Li12 O11 1.994296 1_555
Li12 O5 2.470377 1_555
Li13 O17 1.952555 1_555
Li13 O10 1.956001 1_555
Li13 O7 1.956386 1_555
Li14 O19 1.931536 1_555
Li14 O15 1.986040 1_555
Li14 O12 1.994296 1_546
Li14 O17 2.470377 1_556
Li15 O13 1.931536 1_555
Li15 O20 1.986040 1_555
Li15 O11 1.994296 1_555
Li15 O17 2.470377 1_555
Li16 O18 1.952555 1_555
Li16 O19 1.956001 1_565
Li16 O14 1.956386 1_565
Li17 O18 1.952555 1_555
Li17 O21 1.956001 1_556
Li17 O13 1.956386 1_556
Li18 O17 1.952555 1_555
Li18 O14 1.956001 1_555
Li18 O22 1.956386 1_555
Li19 O17 1.952555 1_555
Li19 O16 1.956001 1_545
Li19 O21 1.956386 1_545
Li20 O22 1.931536 1_555
Li20 O15 1.986040 1_555
Li20 O0 1.994296 1_655
Li20 O18 2.470377 1_555
Li21 O16 1.931536 1_555
Li21 O20 1.986040 1_555
Li21 O23 1.994296 1_565
Li21 O18 2.470377 1_555
Li22 O18 1.952555 1_555
Li22 O1 1.956001 1_655
Li22 O4 1.956386 1_655
Li23 O21 1.931536 1_555
Li23 O20 1.986040 1_555
Li23 O0 1.994296 1_654
Li23 O6 2.470377 1_655
Mn0 O6 1.942354 1_555
Mn0 O23 1.961872 1_465
Mn1 O5 1.942354 1_555
Mn1 O12 1.961872 1_546
Mn2 O18 1.942354 1_555
Mn2 O11 1.961872 1_555
Mn3 O17 1.942354 1_555
Mn3 O0 1.961872 1_654
O1 Si3 1.651142 1_566
O2 Si0 1.651142 1_455
O3 Si3 1.657055 1_555
O4 Si0 1.651142 1_455
O7 Si1 1.651142 1_554
O8 Si2 1.657055 1_555
O9 Si1 1.651142 1_555
O10 Si2 1.651142 1_545
O13 Si1 1.651142 1_554
O14 Si2 1.651142 1_545
O15 Si1 1.657055 1_555
O16 Si2 1.651142 1_555
O19 Si3 1.651142 1_656
O20 Si0 1.657055 1_555
O21 Si3 1.651142 1_665
O22 Si0 1.651142 1_555
