# generated using pymatgen
data_Na3FeO4
_symmetry_space_group_name_H-M   'P 1'
_cell_length_a   8.92056700
_cell_length_b   10.02685900
_cell_length_c   10.38932300
_cell_angle_alpha   90.00000000
_cell_angle_beta   90.00000000
_cell_angle_gamma   90.00000000
_symmetry_Int_Tables_number   1
_chemical_formula_structural   Na3FeO4
_chemical_formula_sum   'Na24 Fe8 O32'
_cell_volume   929.27577497
_cell_formula_units_Z   8
loop_
 _symmetry_equiv_pos_site_id
 _symmetry_equiv_pos_as_xyz
  1  'x, y, z'
loop_
 _atom_site_type_symbol
 _atom_site_label
 _atom_site_symmetry_multiplicity
 _atom_site_fract_x
 _atom_site_fract_y
 _atom_site_fract_z
 _atom_site_occupancy
  Na  Na0  1  0.04080000  0.12863900  0.90347000  1
  Na  Na1  1  0.04080000  0.62863900  0.59653000  1
  Na  Na2  1  0.11994600  0.53806400  0.14337500  1
  Na  Na3  1  0.11994600  0.03806400  0.35662500  1
  Na  Na4  1  0.21427000  0.23022600  0.62286300  1
  Na  Na5  1  0.21427000  0.73022600  0.87713700  1
  Na  Na6  1  0.28573000  0.23022600  0.12286300  1
  Na  Na7  1  0.28573000  0.73022600  0.37713700  1
  Na  Na8  1  0.38005400  0.53806400  0.64337500  1
  Na  Na9  1  0.38005400  0.03806400  0.85662500  1
  Na  Na10  1  0.45920000  0.62863900  0.09653000  1
  Na  Na11  1  0.45920000  0.12863900  0.40347000  1
  Na  Na12  1  0.54080000  0.87136100  0.59653000  1
  Na  Na13  1  0.54080000  0.37136100  0.90347000  1
  Na  Na14  1  0.61994600  0.46193600  0.35662500  1
  Na  Na15  1  0.61994600  0.96193600  0.14337500  1
  Na  Na16  1  0.71427000  0.26977400  0.62286300  1
  Na  Na17  1  0.71427000  0.76977400  0.87713700  1
  Na  Na18  1  0.78573000  0.26977400  0.12286300  1
  Na  Na19  1  0.78573000  0.76977400  0.37713700  1
  Na  Na20  1  0.88005400  0.96193600  0.64337500  1
  Na  Na21  1  0.88005400  0.46193600  0.85662500  1
  Na  Na22  1  0.95920000  0.87136100  0.09653000  1
  Na  Na23  1  0.95920000  0.37136100  0.40347000  1
  Fe  Fe0  1  0.20696000  0.90358500  0.61780200  1
  Fe  Fe1  1  0.20696000  0.40358500  0.88219800  1
  Fe  Fe2  1  0.29304000  0.90358500  0.11780200  1
  Fe  Fe3  1  0.29304000  0.40358500  0.38219800  1
  Fe  Fe4  1  0.70696000  0.59641500  0.61780200  1
  Fe  Fe5  1  0.70696000  0.09641500  0.88219800  1
  Fe  Fe6  1  0.79304000  0.59641500  0.11780200  1
  Fe  Fe7  1  0.79304000  0.09641500  0.38219800  1
  O  O0  1  0.08758800  0.84357300  0.49800200  1
  O  O1  1  0.08758800  0.34357300  0.00199800  1
  O  O2  1  0.12540300  0.48275200  0.75119100  1
  O  O3  1  0.12540300  0.98275200  0.74880900  1
  O  O4  1  0.17627000  0.02859800  0.06286700  1
  O  O5  1  0.17627000  0.52859800  0.43713300  1
  O  O6  1  0.19777700  0.75845300  0.15960900  1
  O  O7  1  0.19777700  0.25845300  0.34039100  1
  O  O8  1  0.30222300  0.75845300  0.65960900  1
  O  O9  1  0.30222300  0.25845300  0.84039100  1
  O  O10  1  0.32373000  0.02859800  0.56286700  1
  O  O11  1  0.32373000  0.52859800  0.93713300  1
  O  O12  1  0.37459700  0.98275200  0.24880900  1
  O  O13  1  0.37459700  0.48275200  0.25119100  1
  O  O14  1  0.41241200  0.84357300  0.99800200  1
  O  O15  1  0.41241200  0.34357300  0.50199800  1
  O  O16  1  0.58758800  0.65642700  0.49800200  1
  O  O17  1  0.58758800  0.15642700  0.00199800  1
  O  O18  1  0.62540300  0.51724800  0.74880900  1
  O  O19  1  0.62540300  0.01724800  0.75119100  1
  O  O20  1  0.67627000  0.47140200  0.06286700  1
  O  O21  1  0.67627000  0.97140200  0.43713300  1
  O  O22  1  0.69777700  0.74154700  0.15960900  1
  O  O23  1  0.69777700  0.24154700  0.34039100  1
  O  O24  1  0.80222300  0.24154700  0.84039100  1
  O  O25  1  0.80222300  0.74154700  0.65960900  1
  O  O26  1  0.82373000  0.47140200  0.56286700  1
  O  O27  1  0.82373000  0.97140200  0.93713300  1
  O  O28  1  0.87459700  0.51724800  0.24880900  1
  O  O29  1  0.87459700  0.01724800  0.25119100  1
  O  O30  1  0.91241200  0.65642700  0.99800200  1
  O  O31  1  0.91241200  0.15642700  0.50199800  1
loop_
_geom_bond_atom_site_label_1
_geom_bond_atom_site_label_2
_geom_bond_distance
_geom_bond_site_symmetry_2
Na0 O4 2.282329 1_556
Na0 O3 2.300264 1_545
Na0 O1 2.422096 1_556
Na0 O24 2.498114 1_455
Na0 O27 2.521420 1_445
Na0 O9 2.749933 1_555
Na1 O5 2.282329 1_555
Na1 O2 2.300264 1_555
Na1 O0 2.422096 1_555
Na1 O25 2.498114 1_455
Na1 O26 2.521420 1_455
Na1 O8 2.749933 1_555
Na2 O6 2.322445 1_555
Na2 O28 2.456346 1_455
Na2 O1 2.458404 1_555
Na2 O13 2.592798 1_555
Na2 O30 2.667769 1_454
Na2 O11 2.811562 1_554
Na3 O7 2.322445 1_555
Na3 O29 2.456346 1_455
Na3 O0 2.458404 1_545
Na3 O12 2.592798 1_545
Na3 O31 2.667769 1_455
Na3 O10 2.811562 1_555
Na4 O10 2.330069 1_555
Na4 O9 2.408972 1_555
Na4 O15 2.447990 1_555
Na4 O3 2.915112 1_545
Na4 O7 2.951978 1_555
Na4 O2 2.969379 1_555
Na5 O11 2.330069 1_555
Na5 O8 2.408972 1_555
Na5 O14 2.447990 1_555
Na5 O2 2.915112 1_555
Na5 O6 2.951978 1_556
Na5 O3 2.969379 1_555
Na6 O4 2.330069 1_555
Na6 O7 2.408972 1_555
Na6 O1 2.447990 1_555
Na6 O12 2.915112 1_545
Na6 O9 2.951978 1_554
Na6 O13 2.969379 1_555
Na7 O5 2.330069 1_555
Na7 O6 2.408972 1_555
Na7 O0 2.447990 1_555
Na7 O13 2.915112 1_555
Na7 O8 2.951978 1_555
Na7 O12 2.969379 1_555
Na8 O8 2.322445 1_555
Na8 O18 2.456346 1_555
Na8 O15 2.458404 1_555
Na8 O2 2.592798 1_555
Na8 O16 2.667769 1_555
Na8 O5 2.811562 1_555
Na9 O9 2.322445 1_555
Na9 O19 2.456346 1_555
Na9 O14 2.458404 1_545
Na9 O3 2.592798 1_545
Na9 O17 2.667769 1_556
Na9 O4 2.811562 1_556
Na10 O11 2.282329 1_554
Na10 O13 2.300264 1_555
Na10 O14 2.422096 1_554
Na10 O22 2.498114 1_555
Na10 O20 2.521420 1_555
Na10 O6 2.749933 1_555
Na11 O10 2.282329 1_555
Na11 O12 2.300264 1_545
Na11 O15 2.422096 1_555
Na11 O23 2.498114 1_555
Na11 O21 2.521420 1_545
Na11 O7 2.749933 1_555
Na12 O21 2.282329 1_555
Na12 O19 2.300264 1_565
Na12 O16 2.422096 1_555
Na12 O8 2.498114 1_555
Na12 O10 2.521420 1_565
Na12 O25 2.749933 1_555
Na13 O20 2.282329 1_556
Na13 O18 2.300264 1_555
Na13 O17 2.422096 1_556
Na13 O9 2.498114 1_555
Na13 O11 2.521420 1_555
Na13 O24 2.749933 1_555
Na14 O23 2.322445 1_555
Na14 O13 2.456346 1_555
Na14 O16 2.458404 1_555
Na14 O28 2.592798 1_555
Na14 O15 2.667769 1_555
Na14 O26 2.811562 1_555
Na15 O22 2.322445 1_555
Na15 O12 2.456346 1_555
Na15 O17 2.458404 1_565
Na15 O29 2.592798 1_565
Na15 O14 2.667769 1_554
Na15 O27 2.811562 1_554
Na16 O26 2.330069 1_555
Na16 O24 2.408972 1_555
Na16 O31 2.447990 1_555
Na16 O18 2.915112 1_555
Na16 O23 2.951978 1_555
Na16 O19 2.969379 1_555
Na17 O27 2.330069 1_555
Na17 O25 2.408972 1_555
Na17 O30 2.447990 1_555
Na17 O19 2.915112 1_565
Na17 O22 2.951978 1_556
Na17 O18 2.969379 1_555
Na18 O20 2.330069 1_555
Na18 O23 2.408972 1_555
Na18 O17 2.447990 1_555
Na18 O28 2.915112 1_555
Na18 O24 2.951978 1_554
Na18 O29 2.969379 1_555
Na19 O21 2.330069 1_555
Na19 O22 2.408972 1_555
Na19 O16 2.447990 1_555
Na19 O29 2.915112 1_565
Na19 O25 2.951978 1_555
Na19 O28 2.969379 1_555
Na20 O25 2.322445 1_555
Na20 O3 2.456346 1_655
Na20 O31 2.458404 1_565
Na20 O19 2.592798 1_565
Na20 O0 2.667769 1_655
Na20 O21 2.811562 1_555
Na21 O24 2.322445 1_555
Na21 O2 2.456346 1_655
Na21 O30 2.458404 1_555
Na21 O18 2.592798 1_555
Na21 O1 2.667769 1_656
Na21 O20 2.811562 1_556
Na22 O27 2.282329 1_554
Na22 O29 2.300264 1_565
Na22 O30 2.422096 1_554
Na22 O6 2.498114 1_655
Na22 O4 2.521420 1_665
Na22 O22 2.749933 1_555
Na23 O26 2.282329 1_555
Na23 O28 2.300264 1_555
Na23 O31 2.422096 1_555
Na23 O7 2.498114 1_655
Na23 O5 2.521420 1_655
Na23 O23 2.749933 1_555
Fe0 O10 1.726852 1_565
Fe0 O3 1.735495 1_555
Fe0 O8 1.740252 1_555
Fe0 O0 1.745036 1_555
Fe1 O11 1.726852 1_555
Fe1 O2 1.735495 1_555
Fe1 O9 1.740252 1_555
Fe1 O1 1.745036 1_556
Fe2 O4 1.726852 1_565
Fe2 O12 1.735495 1_555
Fe2 O6 1.740252 1_555
Fe2 O14 1.745036 1_554
Fe3 O5 1.726852 1_555
Fe3 O13 1.735495 1_555
Fe3 O7 1.740252 1_555
Fe3 O15 1.745036 1_555
Fe4 O26 1.726852 1_555
Fe4 O18 1.735495 1_555
Fe4 O25 1.740252 1_555
Fe4 O16 1.745036 1_555
Fe5 O27 1.726852 1_545
Fe5 O19 1.735495 1_555
Fe5 O24 1.740252 1_555
Fe5 O17 1.745036 1_556
Fe6 O20 1.726852 1_555
Fe6 O28 1.735495 1_555
Fe6 O22 1.740252 1_555
Fe6 O30 1.745036 1_554
Fe7 O21 1.726852 1_545
Fe7 O29 1.735495 1_555
Fe7 O23 1.740252 1_555
Fe7 O31 1.745036 1_555
