# generated using pymatgen
data_Y2(SeO4)3
_symmetry_space_group_name_H-M   'P 1'
_cell_length_a   9.61139327
_cell_length_b   9.68869151
_cell_length_c   13.16046423
_cell_angle_alpha   90.00000000
_cell_angle_beta   90.00000000
_cell_angle_gamma   90.00000000
_symmetry_Int_Tables_number   1
_chemical_formula_structural   Y2(SeO4)3
_chemical_formula_sum   'Y8 Se12 O48'
_cell_volume   1225.52643871
_cell_formula_units_Z   4
loop_
 _symmetry_equiv_pos_site_id
 _symmetry_equiv_pos_as_xyz
  1  'x, y, z'
loop_
 _atom_site_type_symbol
 _atom_site_label
 _atom_site_symmetry_multiplicity
 _atom_site_fract_x
 _atom_site_fract_y
 _atom_site_fract_z
 _atom_site_occupancy
  Y  Y0  1  0.25001798  0.96183840  0.12016120  1
  Y  Y1  1  0.74998202  0.46183840  0.12016120  1
  Y  Y2  1  0.24998202  0.46183840  0.37983880  1
  Y  Y3  1  0.75001798  0.96183840  0.37983880  1
  Y  Y4  1  0.24998202  0.03816160  0.62016120  1
  Y  Y5  1  0.75001798  0.53816160  0.62016120  1
  Y  Y6  1  0.25001798  0.53816160  0.87983880  1
  Y  Y7  1  0.74998202  0.03816160  0.87983880  1
  Se  Se0  1  0.03358201  0.25000000  -0.00000000  1
  Se  Se1  1  0.96641799  0.75000000  -0.00000000  1
  Se  Se2  1  0.39733400  0.61520263  0.14635737  1
  Se  Se3  1  0.60266600  0.11520263  0.14635737  1
  Se  Se4  1  0.10266600  0.11520263  0.35364263  1
  Se  Se5  1  0.89733400  0.61520263  0.35364263  1
  Se  Se6  1  0.46641799  0.75000000  0.50000000  1
  Se  Se7  1  0.53358201  0.25000000  0.50000000  1
  Se  Se8  1  0.10266600  0.38479737  0.64635737  1
  Se  Se9  1  0.89733400  0.88479737  0.64635737  1
  Se  Se10  1  0.39733400  0.88479737  0.85364263  1
  Se  Se11  1  0.60266600  0.38479737  0.85364263  1
  O  O0  1  0.65784481  0.08654770  0.03029631  1
  O  O1  1  0.34215519  0.58654770  0.03029631  1
  O  O2  1  0.86741094  0.64201550  0.06242073  1
  O  O3  1  0.13258906  0.14201550  0.06242073  1
  O  O4  1  0.06369743  0.83271641  0.08228884  1
  O  O5  1  0.93630257  0.33271641  0.08228884  1
  O  O6  1  0.43308118  0.09872102  0.15122459  1
  O  O7  1  0.56691882  0.59872102  0.15122459  1
  O  O8  1  0.35632649  0.77261338  0.18139278  1
  O  O9  1  0.64367351  0.27261338  0.18139278  1
  O  O10  1  0.32417141  0.50213683  0.22218980  1
  O  O11  1  0.67582859  0.00213683  0.22218980  1
  O  O12  1  0.17582859  0.00213683  0.27781020  1
  O  O13  1  0.82417141  0.50213683  0.27781020  1
  O  O14  1  0.85632649  0.77261338  0.31860722  1
  O  O15  1  0.14367351  0.27261338  0.31860722  1
  O  O16  1  0.06691882  0.59872102  0.34877541  1
  O  O17  1  0.93308118  0.09872102  0.34877541  1
  O  O18  1  0.43630257  0.33271641  0.41771116  1
  O  O19  1  0.56369743  0.83271641  0.41771116  1
  O  O20  1  0.36741094  0.64201550  0.43757927  1
  O  O21  1  0.63258906  0.14201550  0.43757927  1
  O  O22  1  0.15784481  0.08654770  0.46970369  1
  O  O23  1  0.84215519  0.58654770  0.46970369  1
  O  O24  1  0.15784481  0.41345230  0.53029631  1
  O  O25  1  0.84215519  0.91345230  0.53029631  1
  O  O26  1  0.63258906  0.35798450  0.56242073  1
  O  O27  1  0.36741094  0.85798450  0.56242073  1
  O  O28  1  0.43630257  0.16728359  0.58228884  1
  O  O29  1  0.56369743  0.66728359  0.58228884  1
  O  O30  1  0.06691882  0.90127898  0.65122459  1
  O  O31  1  0.93308118  0.40127898  0.65122459  1
  O  O32  1  0.14367351  0.22738662  0.68139278  1
  O  O33  1  0.85632649  0.72738662  0.68139278  1
  O  O34  1  0.17582859  0.49786317  0.72218980  1
  O  O35  1  0.82417141  0.99786317  0.72218980  1
  O  O36  1  0.32417141  0.99786317  0.77781020  1
  O  O37  1  0.67582859  0.49786317  0.77781020  1
  O  O38  1  0.35632649  0.72738662  0.81860722  1
  O  O39  1  0.64367351  0.22738662  0.81860722  1
  O  O40  1  0.43308118  0.40127898  0.84877541  1
  O  O41  1  0.56691882  0.90127898  0.84877541  1
  O  O42  1  0.06369743  0.66728359  0.91771116  1
  O  O43  1  0.93630257  0.16728359  0.91771116  1
  O  O44  1  0.13258906  0.35798450  0.93757927  1
  O  O45  1  0.86741094  0.85798450  0.93757927  1
  O  O46  1  0.34215519  0.91345230  0.96970369  1
  O  O47  1  0.65784481  0.41345230  0.96970369  1
loop_
_geom_bond_atom_site_label_1
_geom_bond_atom_site_label_2
_geom_bond_distance
_geom_bond_site_symmetry_2
O0 Se3 1.640533 1_555
O0 Y7 2.219180 1_554
O1 Se2 1.640533 1_555
O1 Y6 2.219180 1_554
O2 Se1 1.635533 1_555
O2 Y1 2.213300 1_555
O3 Se0 1.635533 1_555
O3 Y0 2.213300 1_545
O4 Se1 1.639900 1_455
O4 Y0 2.240635 1_555
O5 Se0 1.639900 1_655
O5 Y1 2.240635 1_555
O6 Se3 1.639002 1_555
O6 Y0 2.240933 1_545
O7 Se2 1.639002 1_555
O7 Y1 2.240933 1_555
O8 Se2 1.641306 1_555
O8 Y0 2.248230 1_555
O9 Se3 1.641306 1_555
O9 Y1 2.248230 1_555
O10 Se2 1.640274 1_555
O10 Y2 2.228323 1_555
O11 Se3 1.640274 1_555
O11 Y3 2.228323 1_545
O12 Se4 1.640274 1_555
O12 Y0 2.228323 1_545
O13 Se5 1.640274 1_555
O13 Y1 2.228323 1_555
O14 Se5 1.641306 1_555
O14 Y3 2.248230 1_555
O15 Se4 1.641306 1_555
O15 Y2 2.248230 1_555
O16 Se5 1.639002 1_455
O16 Y2 2.240933 1_555
O17 Se4 1.639002 1_655
O17 Y3 2.240933 1_545
O18 Se7 1.639900 1_555
O18 Y2 2.240635 1_555
O19 Se6 1.639900 1_555
O19 Y3 2.240635 1_555
O20 Se6 1.635533 1_555
O20 Y2 2.213300 1_555
O21 Se7 1.635533 1_555
O21 Y3 2.213300 1_545
O22 Se4 1.640533 1_555
O22 Y4 2.219180 1_555
O23 Se5 1.640533 1_555
O23 Y5 2.219180 1_555
O24 Se8 1.640533 1_555
O24 Y2 2.219180 1_555
O25 Se9 1.640533 1_555
O25 Y3 2.219180 1_555
O26 Se7 1.635533 1_555
O26 Y5 2.213300 1_555
O27 Se6 1.635533 1_555
O27 Y4 2.213300 1_565
O28 Se7 1.639900 1_555
O28 Y4 2.240635 1_555
O29 Se6 1.639900 1_555
O29 Y5 2.240635 1_555
O30 Se9 1.639002 1_455
O30 Y4 2.240933 1_565
O31 Se8 1.639002 1_655
O31 Y5 2.240933 1_555
O32 Se8 1.641306 1_555
O32 Y4 2.248230 1_555
O33 Se9 1.641306 1_555
O33 Y5 2.248230 1_555
O34 Se8 1.640274 1_555
O34 Y6 2.228323 1_555
O35 Se9 1.640274 1_555
O35 Y7 2.228323 1_565
O36 Se10 1.640274 1_555
O36 Y4 2.228323 1_565
O37 Se11 1.640274 1_555
O37 Y5 2.228323 1_555
O38 Se10 1.641306 1_555
O38 Y6 2.248230 1_555
O39 Se11 1.641306 1_555
O39 Y7 2.248230 1_555
O40 Se11 1.639002 1_555
O40 Y6 2.240933 1_555
O41 Se10 1.639002 1_555
O41 Y7 2.240933 1_565
O42 Se1 1.639900 1_456
O42 Y6 2.240635 1_555
O43 Se0 1.639900 1_656
O43 Y7 2.240635 1_555
O44 Se0 1.635533 1_556
O44 Y6 2.213300 1_555
O45 Se1 1.635533 1_556
O45 Y7 2.213300 1_565
O46 Se10 1.640533 1_555
O46 Y0 2.219180 1_556
O47 Se11 1.640533 1_555
O47 Y1 2.219180 1_556
