# generated using pymatgen
data_Na7Mn10O24
_symmetry_space_group_name_H-M   'P 1'
_cell_length_a   6.11190891
_cell_length_b   6.11225453
_cell_length_c   16.48177929
_cell_angle_alpha   81.79060745
_cell_angle_beta   77.78087711
_cell_angle_gamma   121.49008273
_symmetry_Int_Tables_number   1
_chemical_formula_structural   Na7Mn10O24
_chemical_formula_sum   'Na7 Mn10 O24'
_cell_volume   488.86330445
_cell_formula_units_Z   1
loop_
 _symmetry_equiv_pos_site_id
 _symmetry_equiv_pos_as_xyz
  1  'x, y, z'
loop_
 _atom_site_type_symbol
 _atom_site_label
 _atom_site_symmetry_multiplicity
 _atom_site_fract_x
 _atom_site_fract_y
 _atom_site_fract_z
 _atom_site_occupancy
  Na  Na0  1  0.87275700  0.05199100  0.28760800  1
  Na  Na1  1  0.50089500  0.33441400  0.33231800  1
  Na  Na2  1  0.85959900  0.37789600  0.63119400  1
  Na  Na3  1  0.13463500  0.62102400  0.37214000  1
  Na  Na4  1  0.49207100  0.33028600  0.83898700  1
  Na  Na5  1  0.87900500  0.70853800  0.95613500  1
  Na  Na6  1  0.11452800  0.95663400  0.71449000  1
  Mn  Mn0  1  0.51374700  0.98731900  0.99948700  1
  Mn  Mn1  1  0.51487600  0.17826300  0.15658300  1
  Mn  Mn2  1  0.48884800  0.99461300  0.50821300  1
  Mn  Mn3  1  0.51424500  0.67181000  0.15700400  1
  Mn  Mn4  1  0.48806100  0.48876000  0.50892800  1
  Mn  Mn5  1  0.99329200  0.99397700  0.50891700  1
  Mn  Mn6  1  0.00862500  0.67202800  0.15659500  1
  Mn  Mn7  1  0.48437700  0.67214500  0.67171600  1
  Mn  Mn8  1  0.50165200  0.83850800  0.83315200  1
  Mn  Mn9  1  0.99527900  0.33205400  0.83316600  1
  O  O0  1  0.70624800  0.05049400  0.08353800  1
  O  O1  1  0.28895500  0.05011900  0.08051800  1
  O  O2  1  0.76156600  0.29864500  0.21991500  1
  O  O3  1  0.74398400  0.56695000  0.09462100  1
  O  O4  1  0.71983700  0.03686500  0.58126200  1
  O  O5  1  0.31335700  0.29467800  0.21955500  1
  O  O6  1  0.76618500  0.74752900  0.21956500  1
  O  O7  1  0.69015400  0.37152600  0.44764300  1
  O  O8  1  0.28245200  0.62670500  0.08356100  1
  O  O9  1  0.23765900  0.36767200  0.44729800  1
  O  O10  1  0.25714400  0.09758500  0.57251800  1
  O  O11  1  0.27682500  0.77941000  0.22189000  1
  O  O12  1  0.71377000  0.61642900  0.58483100  1
  O  O13  1  0.72645800  0.88704500  0.44322700  1
  O  O14  1  0.74610400  0.21081800  0.77161200  1
  O  O15  1  0.30049800  0.61746900  0.58127900  1
  O  O16  1  0.75389500  0.34633700  0.92157800  1
  O  O17  1  0.68817300  0.75928100  0.74531500  1
  O  O18  1  0.25024000  0.32117200  0.74537600  1
  O  O19  1  0.23306700  0.91439800  0.44765800  1
  O  O20  1  0.25502500  0.72331100  0.76079400  1
  O  O21  1  0.24429200  0.46361900  0.89608800  1
  O  O22  1  0.75208300  0.94695700  0.90048400  1
  O  O23  1  0.31053800  0.90305700  0.92157300  1
loop_
_geom_bond_atom_site_label_1
_geom_bond_atom_site_label_2
_geom_bond_distance
_geom_bond_site_symmetry_2
Na0 O5 2.187085 1_655
Na0 O6 2.187233 1_545
Na0 O2 2.211442 1_555
Na0 O13 2.396559 1_545
Na1 O2 2.290932 1_555
Na1 O9 2.319952 1_555
Na1 O6 2.359172 1_555
Na1 O5 2.359402 1_555
Na1 O7 2.404599 1_555
Na1 O19 2.404762 1_545
Na2 O15 2.162830 1_655
Na2 O4 2.163162 1_555
Na2 O14 2.187614 1_555
Na2 O12 2.198117 1_555
Na3 O7 2.225587 1_455
Na3 O19 2.225752 1_555
Na3 O9 2.264950 1_555
Na3 O11 2.313089 1_555
Na4 O21 2.179079 1_555
Na4 O14 2.205260 1_555
Na4 O16 2.284648 1_555
Na4 O23 2.285093 1_545
Na4 O18 2.339240 1_555
Na4 O17 2.339444 1_555
Na5 O3 2.128898 1_556
Na5 O16 2.141548 1_555
Na5 O23 2.142202 1_655
Na5 O22 2.160368 1_555
Na6 O18 2.117468 1_565
Na6 O17 2.117623 1_455
Na6 O20 2.144668 1_555
Na6 O10 2.180313 1_565
Mn0 O16 1.910824 1_565
Mn0 O23 1.911186 1_555
Mn0 O1 1.933714 1_566
Mn0 O8 1.954541 1_556
Mn0 O0 1.954618 1_566
Mn0 O22 2.080776 1_555
Mn1 O2 1.905472 1_555
Mn1 O5 1.919869 1_555
Mn1 O3 1.968318 1_555
Mn1 O1 1.993786 1_555
Mn1 O0 2.013475 1_555
Mn1 O11 2.025067 1_545
Mn2 O7 1.918307 1_565
Mn2 O19 1.918308 1_555
Mn2 O4 1.984137 1_565
Mn2 O15 1.984301 1_555
Mn2 O10 2.002809 1_565
Mn2 O13 2.056386 1_555
Mn3 O6 1.926747 1_555
Mn3 O5 1.926840 1_555
Mn3 O3 1.989178 1_555
Mn3 O0 1.990277 1_565
Mn3 O8 1.990342 1_555
Mn3 O11 2.054963 1_555
Mn4 O9 1.900319 1_555
Mn4 O7 1.913796 1_555
Mn4 O10 1.984930 1_555
Mn4 O12 1.990413 1_555
Mn4 O15 1.996614 1_555
Mn4 O13 2.023769 1_555
Mn5 O9 1.900215 1_665
Mn5 O19 1.913699 1_655
Mn5 O10 1.984628 1_665
Mn5 O12 1.990329 1_555
Mn5 O4 1.996803 1_565
Mn5 O13 2.023627 1_555
Mn6 O2 1.905333 1_455
Mn6 O6 1.919879 1_455
Mn6 O3 1.968111 1_455
Mn6 O1 1.993740 1_565
Mn6 O8 2.013326 1_555
Mn6 O11 2.024956 1_555
Mn7 O18 1.854043 1_555
Mn7 O17 1.854090 1_555
Mn7 O12 1.980035 1_555
Mn7 O20 1.983995 1_555
Mn7 O4 2.013549 1_565
Mn7 O15 2.013826 1_555
Mn8 O23 1.889169 1_555
Mn8 O14 1.893938 1_565
Mn8 O21 1.914651 1_555
Mn8 O17 1.925693 1_555
Mn8 O22 1.970499 1_555
Mn8 O20 2.020432 1_555
Mn9 O16 1.889032 1_555
Mn9 O14 1.894053 1_555
Mn9 O21 1.914729 1_655
Mn9 O18 1.925529 1_655
Mn9 O22 1.970231 1_545
Mn9 O20 2.019828 1_655
