# generated using pymatgen
data_Ba2Sc2O5
_symmetry_space_group_name_H-M   'P 1'
_cell_length_a   5.98791750
_cell_length_b   11.85484784
_cell_length_c   4.01667993
_cell_angle_alpha   90.00000000
_cell_angle_beta   90.00000000
_cell_angle_gamma   90.00000000
_symmetry_Int_Tables_number   1
_chemical_formula_structural   Ba2Sc2O5
_chemical_formula_sum   'Ba4 Sc4 O10'
_cell_volume   285.12744239
_cell_formula_units_Z   2
loop_
 _symmetry_equiv_pos_site_id
 _symmetry_equiv_pos_as_xyz
  1  'x, y, z'
loop_
 _atom_site_type_symbol
 _atom_site_label
 _atom_site_symmetry_multiplicity
 _atom_site_fract_x
 _atom_site_fract_y
 _atom_site_fract_z
 _atom_site_occupancy
  Ba  Ba0  1  0.23302202  0.87305686  0.50000000  1
  Ba  Ba1  1  0.26697798  0.37305686  0.50000000  1
  Ba  Ba2  1  0.73302202  0.62694314  0.50000000  1
  Ba  Ba3  1  0.76697798  0.12694314  0.50000000  1
  Sc  Sc0  1  0.26324914  0.63241278  0.00000000  1
  Sc  Sc1  1  0.23675086  0.13241278  0.00000000  1
  Sc  Sc2  1  0.76324914  0.86758722  0.00000000  1
  Sc  Sc3  1  0.73675086  0.36758722  0.00000000  1
  O  O0  1  -0.00000000  -0.00000000  0.00000000  1
  O  O1  1  0.01905071  0.25741192  -0.00000000  1
  O  O2  1  0.19347309  0.59933858  0.50000000  1
  O  O3  1  0.30652691  0.09933958  0.50000000  1
  O  O4  1  0.48094929  0.75741192  0.00000000  1
  O  O5  1  0.50000000  0.50000000  0.00000000  1
  O  O6  1  0.51905071  0.24258808  0.00000000  1
  O  O7  1  0.69347309  0.90066142  0.50000000  1
  O  O8  1  0.80652691  0.40066142  0.50000000  1
  O  O9  1  0.98094929  0.74258808  0.00000000  1
loop_
_geom_bond_atom_site_label_1
_geom_bond_atom_site_label_2
_geom_bond_distance
_geom_bond_site_symmetry_2
Ba0 O3 2.718416 1_565
Ba0 O7 2.776496 1_555
Ba0 O4 2.849015 1_556
Ba0 O4 2.849015 1_555
Ba0 O0 2.871417 1_565
Ba0 O0 2.871417 1_566
Ba0 O9 2.950243 1_456
Ba0 O9 2.950243 1_455
Ba0 O7 3.247306 1_455
Ba0 O2 3.253519 1_555
Ba1 O2 2.718404 1_555
Ba1 O8 2.776496 1_455
Ba1 O1 2.849015 1_555
Ba1 O1 2.849015 1_556
Ba1 O5 2.871417 1_556
Ba1 O5 2.871417 1_555
Ba1 O6 2.950243 1_556
Ba1 O6 2.950243 1_555
Ba1 O8 3.247306 1_555
Ba1 O3 3.253507 1_555
Ba2 O8 2.718404 1_555
Ba2 O2 2.776496 1_655
Ba2 O9 2.849015 1_555
Ba2 O9 2.849015 1_556
Ba2 O5 2.871417 1_555
Ba2 O5 2.871417 1_556
Ba2 O4 2.950243 1_555
Ba2 O4 2.950243 1_556
Ba2 O2 3.247306 1_555
Ba2 O7 3.253519 1_555
Ba3 O7 2.718404 1_545
Ba3 O3 2.776494 1_555
Ba3 O6 2.849015 1_556
Ba3 O6 2.849015 1_555
Ba3 O0 2.871417 1_656
Ba3 O0 2.871417 1_655
Ba3 O1 2.950243 1_655
Ba3 O1 2.950243 1_656
Ba3 O3 3.247305 1_655
Ba3 O8 3.253519 1_555
O0 Sc1 2.115131 1_555
O0 Sc2 2.115131 1_445
O1 Sc1 1.973617 1_555
O1 Sc3 2.136197 1_455
O2 Sc0 2.088476 1_555
O2 Sc0 2.088476 1_556
O3 Sc1 2.088474 1_555
O3 Sc1 2.088474 1_556
O4 Sc0 1.973617 1_555
O4 Sc2 2.136197 1_555
O5 Sc3 2.115131 1_555
O5 Sc0 2.115131 1_555
O6 Sc3 1.973617 1_555
O6 Sc1 2.136197 1_555
O7 Sc2 2.088476 1_555
O7 Sc2 2.088476 1_556
O8 Sc3 2.088476 1_555
O8 Sc3 2.088476 1_556
O9 Sc2 1.973617 1_555
O9 Sc0 2.136197 1_655
