# generated using pymatgen
data_USiS
_symmetry_space_group_name_H-M   'P 1'
_cell_length_a   3.76268300
_cell_length_b   3.76268300
_cell_length_c   8.00499500
_cell_angle_alpha   90.00000000
_cell_angle_beta   90.00000000
_cell_angle_gamma   90.00000000
_symmetry_Int_Tables_number   1
_chemical_formula_structural   USiS
_chemical_formula_sum   'U2 Si2 S2'
_cell_volume   113.33298500
_cell_formula_units_Z   2
loop_
 _symmetry_equiv_pos_site_id
 _symmetry_equiv_pos_as_xyz
  1  'x, y, z'
loop_
 _atom_site_type_symbol
 _atom_site_label
 _atom_site_symmetry_multiplicity
 _atom_site_fract_x
 _atom_site_fract_y
 _atom_site_fract_z
 _atom_site_occupancy
  U  U0  1  0.00000000  0.50000000  0.29406400  1
  U  U1  1  0.50000000  0.00000000  0.70593600  1
  Si  Si0  1  0.00000000  0.00000000  0.00000000  1
  Si  Si1  1  0.50000000  0.50000000  0.00000000  1
  S  S0  1  0.00000000  0.50000000  0.64508100  1
  S  S1  1  0.50000000  0.00000000  0.35491900  1
loop_
_geom_bond_atom_site_label_1
_geom_bond_atom_site_label_2
_geom_bond_distance
_geom_bond_site_symmetry_2
Si0 Si1 2.660619 1_545
Si0 Si1 2.660619 1_455
Si0 Si1 2.660619 1_555
Si0 Si1 2.660619 1_445
Si0 U1 3.013415 1_454
Si0 U1 3.013415 1_554
Si0 U0 3.013415 1_545
Si0 U0 3.013415 1_555
Si1 U1 3.013415 1_564
Si1 U1 3.013415 1_554
Si1 U0 3.013415 1_655
Si1 U0 3.013415 1_555
S0 U1 2.704848 1_465
S0 U1 2.704848 1_555
S0 U1 2.704848 1_455
S0 U1 2.704848 1_565
S0 U0 2.809889 1_555
S1 U0 2.704848 1_645
S1 U0 2.704848 1_545
S1 U0 2.704848 1_555
S1 U0 2.704848 1_655
S1 U1 2.809889 1_555
