# generated using pymatgen
data_Li3VF5
_symmetry_space_group_name_H-M   'P 1'
_cell_length_a   5.09513400
_cell_length_b   8.05783800
_cell_length_c   10.43294400
_cell_angle_alpha   90.00000000
_cell_angle_beta   90.00000000
_cell_angle_gamma   90.00000000
_symmetry_Int_Tables_number   1
_chemical_formula_structural   Li3VF5
_chemical_formula_sum   'Li12 V4 F20'
_cell_volume   428.33249045
_cell_formula_units_Z   4
loop_
 _symmetry_equiv_pos_site_id
 _symmetry_equiv_pos_as_xyz
  1  'x, y, z'
loop_
 _atom_site_type_symbol
 _atom_site_label
 _atom_site_symmetry_multiplicity
 _atom_site_fract_x
 _atom_site_fract_y
 _atom_site_fract_z
 _atom_site_occupancy
  Li  Li0  1  0.18370200  0.10930700  0.75000000  1
  Li  Li1  1  0.82829700  0.13665500  0.99325100  1
  Li  Li2  1  0.82829700  0.13665500  0.50674900  1
  Li  Li3  1  0.32829700  0.36334500  0.00674900  1
  Li  Li4  1  0.32829700  0.36334500  0.49325100  1
  Li  Li5  1  0.68370200  0.39069300  0.25000000  1
  Li  Li6  1  0.31629800  0.60930700  0.75000000  1
  Li  Li7  1  0.67170300  0.63665500  0.99325100  1
  Li  Li8  1  0.67170300  0.63665500  0.50674900  1
  Li  Li9  1  0.17170300  0.86334500  0.49325100  1
  Li  Li10  1  0.17170300  0.86334500  0.00674900  1
  Li  Li11  1  0.81629800  0.89069300  0.25000000  1
  V  V0  1  0.28303900  0.12514400  0.25000000  1
  V  V1  1  0.78303900  0.37485600  0.75000000  1
  V  V2  1  0.21696100  0.62514400  0.25000000  1
  V  V3  1  0.71696100  0.87485600  0.75000000  1
  F  F0  1  0.01628100  0.03024600  0.12190900  1
  F  F1  1  0.01628100  0.03024600  0.37809100  1
  F  F2  1  0.53687500  0.20389700  0.10039900  1
  F  F3  1  0.53687500  0.20389700  0.39960100  1
  F  F4  1  0.56504700  0.12966500  0.75000000  1
  F  F5  1  0.06504700  0.37033500  0.25000000  1
  F  F6  1  0.03687500  0.29610300  0.60039900  1
  F  F7  1  0.03687500  0.29610300  0.89960100  1
  F  F8  1  0.51628100  0.46975400  0.62190900  1
  F  F9  1  0.51628100  0.46975400  0.87809100  1
  F  F10  1  0.48371900  0.53024600  0.12190900  1
  F  F11  1  0.48371900  0.53024600  0.37809100  1
  F  F12  1  0.96312500  0.70389700  0.10039900  1
  F  F13  1  0.96312500  0.70389700  0.39960100  1
  F  F14  1  0.93495300  0.62966500  0.75000000  1
  F  F15  1  0.43495300  0.87033500  0.25000000  1
  F  F16  1  0.46312500  0.79610300  0.60039900  1
  F  F17  1  0.46312500  0.79610300  0.89960100  1
  F  F18  1  0.98371900  0.96975400  0.62190900  1
  F  F19  1  0.98371900  0.96975400  0.87809100  1
loop_
_geom_bond_atom_site_label_1
_geom_bond_atom_site_label_2
_geom_bond_distance
_geom_bond_site_symmetry_2
F0 Li1 1.858572 1_454
F0 Li10 1.969582 1_545
F0 Li11 2.022030 1_445
F0 V0 2.053761 1_555
F1 Li2 1.858572 1_455
F1 Li9 1.969582 1_545
F1 Li11 2.022030 1_445
F1 V0 2.053761 1_555
F2 Li3 1.932549 1_555
F2 Li1 1.935959 1_554
F2 V0 2.124010 1_555
F2 Li5 2.293737 1_555
F3 Li4 1.932549 1_555
F3 Li2 1.935959 1_555
F3 V0 2.124010 1_555
F3 Li5 2.293737 1_555
F4 Li0 1.949916 1_555
F4 V3 2.194261 1_545
F4 V1 2.266512 1_555
F5 Li5 1.949916 1_455
F5 V2 2.194261 1_555
F5 V0 2.266512 1_555
F6 Li2 1.932549 1_455
F6 Li4 1.935959 1_555
F6 V1 2.124010 1_455
F6 Li0 2.293737 1_555
F7 Li1 1.932549 1_455
F7 Li3 1.935959 1_556
F7 V1 2.124010 1_455
F7 Li0 2.293737 1_555
F8 Li4 1.858572 1_555
F8 Li8 1.969582 1_555
F8 Li6 2.022030 1_555
F8 V1 2.053761 1_555
F9 Li3 1.858572 1_556
F9 Li7 1.969582 1_555
F9 Li6 2.022030 1_555
F9 V1 2.053761 1_555
F10 Li7 1.858572 1_554
F10 Li3 1.969582 1_555
F10 Li5 2.022030 1_555
F10 V2 2.053761 1_555
F11 Li8 1.858572 1_555
F11 Li4 1.969582 1_555
F11 Li5 2.022030 1_555
F11 V2 2.053761 1_555
F12 Li10 1.932549 1_655
F12 Li7 1.935959 1_554
F12 V2 2.124010 1_655
F12 Li11 2.293737 1_555
F13 Li9 1.932549 1_655
F13 Li8 1.935959 1_555
F13 V2 2.124010 1_655
F13 Li11 2.293737 1_555
F14 Li6 1.949916 1_655
F14 V1 2.194261 1_555
F14 V3 2.266512 1_555
F15 Li11 1.949916 1_555
F15 V0 2.194261 1_565
F15 V2 2.266512 1_555
F16 Li8 1.932549 1_555
F16 Li9 1.935959 1_555
F16 V3 2.124010 1_555
F16 Li6 2.293737 1_555
F17 Li7 1.932549 1_555
F17 Li10 1.935959 1_556
F17 V3 2.124010 1_555
F17 Li6 2.293737 1_555
F18 Li9 1.858572 1_655
F18 Li2 1.969582 1_565
F18 Li0 2.022030 1_665
F18 V3 2.053761 1_555
F19 Li10 1.858572 1_656
F19 Li1 1.969582 1_565
F19 Li0 2.022030 1_665
F19 V3 2.053761 1_555
