# generated using pymatgen
data_Li4Mn3FeO8
_symmetry_space_group_name_H-M   'P 1'
_cell_length_a   5.96298822
_cell_length_b   5.96298822
_cell_length_c   5.96298846
_cell_angle_alpha   59.63754553
_cell_angle_beta   59.63754553
_cell_angle_gamma   59.63754298
_symmetry_Int_Tables_number   1
_chemical_formula_structural   Li4Mn3FeO8
_chemical_formula_sum   'Li4 Mn3 Fe1 O8'
_cell_volume   148.69113774
_cell_formula_units_Z   1
loop_
 _symmetry_equiv_pos_site_id
 _symmetry_equiv_pos_as_xyz
  1  'x, y, z'
loop_
 _atom_site_type_symbol
 _atom_site_label
 _atom_site_symmetry_multiplicity
 _atom_site_fract_x
 _atom_site_fract_y
 _atom_site_fract_z
 _atom_site_occupancy
  Li  Li0  1  0.50000000  0.50000000  0.50000000  1
  Li  Li1  1  0.00000000  0.00000000  0.50000000  1
  Li  Li2  1  0.50000000  0.00000000  0.00000000  1
  Li  Li3  1  0.00000000  0.50000000  0.00000000  1
  Mn  Mn0  1  0.50000000  0.50000000  0.00000000  1
  Mn  Mn1  1  0.00000000  0.50000000  0.50000000  1
  Mn  Mn2  1  0.50000000  0.00000000  0.50000000  1
  Fe  Fe0  1  0.00000000  0.00000000  0.00000000  1
  O  O0  1  0.24476000  0.24476000  0.24476000  1
  O  O1  1  0.76146600  0.76146600  0.26284300  1
  O  O2  1  0.26284300  0.76146600  0.76146600  1
  O  O3  1  0.75524000  0.75524000  0.75524000  1
  O  O4  1  0.76146600  0.26284300  0.76146600  1
  O  O5  1  0.23853400  0.23853400  0.73715700  1
  O  O6  1  0.73715700  0.23853400  0.23853400  1
  O  O7  1  0.23853400  0.73715700  0.23853400  1
loop_
_geom_bond_atom_site_label_1
_geom_bond_atom_site_label_2
_geom_bond_distance
_geom_bond_site_symmetry_2
Li0 O2 2.204784 1_555
Li0 O6 2.204784 1_555
Li0 O4 2.204784 1_555
Li0 O7 2.204784 1_555
Li0 O1 2.204784 1_555
Li0 O5 2.204784 1_555
Li1 O3 2.058859 1_445
Li1 O0 2.058859 1_555
Li1 O2 2.210268 1_545
Li1 O4 2.210268 1_455
Li1 O7 2.210268 1_545
Li1 O6 2.210268 1_455
Li2 O0 2.058859 1_555
Li2 O3 2.058859 1_544
Li2 O5 2.210268 1_554
Li2 O1 2.210268 1_545
Li2 O4 2.210268 1_554
Li2 O7 2.210268 1_545
Li3 O0 2.058859 1_555
Li3 O3 2.058859 1_454
Li3 O1 2.210268 1_455
Li3 O5 2.210268 1_554
Li3 O2 2.210268 1_554
Li3 O6 2.210268 1_455
Mn0 O6 2.004112 1_555
Mn0 O7 2.004112 1_555
Mn0 O4 2.004112 1_554
Mn0 O2 2.004112 1_554
Mn0 O0 2.147924 1_555
Mn0 O3 2.147924 1_554
Mn1 O5 2.004112 1_555
Mn1 O1 2.004112 1_455
Mn1 O7 2.004112 1_555
Mn1 O4 2.004112 1_455
Mn1 O3 2.147924 1_455
Mn1 O0 2.147924 1_555
Mn2 O5 2.004112 1_555
Mn2 O1 2.004112 1_545
Mn2 O6 2.004112 1_555
Mn2 O2 2.004112 1_545
Mn2 O0 2.147924 1_555
Mn2 O3 2.147924 1_545
Fe0 O4 2.010144 1_454
Fe0 O7 2.010144 1_545
Fe0 O6 2.010144 1_455
Fe0 O2 2.010144 1_544
Fe0 O5 2.010144 1_554
Fe0 O1 2.010144 1_445
