# generated using pymatgen
data_V7(WO5)6
_symmetry_space_group_name_H-M   'P 1'
_cell_length_a   5.21109000
_cell_length_b   5.22558013
_cell_length_c   23.27917283
_cell_angle_alpha   89.49318689
_cell_angle_beta   89.67583490
_cell_angle_gamma   60.09288688
_symmetry_Int_Tables_number   1
_chemical_formula_structural   V7(WO5)6
_chemical_formula_sum   'V7 W6 O30'
_cell_volume   549.47704754
_cell_formula_units_Z   1
loop_
 _symmetry_equiv_pos_site_id
 _symmetry_equiv_pos_as_xyz
  1  'x, y, z'
loop_
 _atom_site_type_symbol
 _atom_site_label
 _atom_site_symmetry_multiplicity
 _atom_site_fract_x
 _atom_site_fract_y
 _atom_site_fract_z
 _atom_site_occupancy
  V  V0  1  0.33624600  0.33932400  0.28652100  1
  V  V1  1  0.34376100  0.33481900  0.00947600  1
  V  V2  1  0.33814700  0.31957900  0.88909700  1
  V  V3  1  0.65845200  0.66185300  0.98385400  1
  V  V4  1  0.67418300  0.65701900  0.71664400  1
  V  V5  1  0.33119900  0.32762700  0.69996100  1
  V  V6  1  0.66467700  0.67034100  0.30354200  1
  W  W0  1  0.33599700  0.33216100  0.40576900  1
  W  W1  1  0.66927400  0.67211100  0.10804100  1
  W  W2  1  0.66267500  0.66496200  0.59787700  1
  W  W3  1  0.99696300  0.00976000  0.20376500  1
  W  W4  1  0.00046400  0.99810600  0.50186900  1
  W  W5  1  0.01303900  0.99208800  0.80461000  1
  O  O0  1  0.72966500  0.33545600  0.15187400  1
  O  O1  1  0.92215900  0.74619800  0.54916100  1
  O  O2  1  0.58039800  0.40300100  0.34916600  1
  O  O3  1  0.67506600  0.33572900  0.74553600  1
  O  O4  1  0.04158300  0.55901100  0.95359100  1
  O  O5  1  0.67627600  0.05267200  0.84231900  1
  O  O6  1  0.66599100  0.08044600  0.45252200  1
  O  O7  1  0.98098100  0.42356600  0.65209700  1
  O  O8  1  0.69265800  0.99431500  0.25051200  1
  O  O9  1  0.41594700  0.61673100  0.04961900  1
  O  O10  1  0.58973500  0.00445500  0.05458900  1
  O  O11  1  0.04904000  0.27622600  0.84456900  1
  O  O12  1  0.59765300  0.97076200  0.65151400  1
  O  O13  1  0.99139000  0.31090000  0.24941300  1
  O  O14  1  0.24854900  0.66895900  0.45097800  1
  O  O15  1  0.75293700  0.33012600  0.54902500  1
  O  O16  1  0.98783000  0.69328200  0.74659800  1
  O  O17  1  0.40239700  0.02561900  0.34862600  1
  O  O18  1  0.92710600  0.74339700  0.15297000  1
  O  O19  1  0.40182700  0.99643300  0.95140000  1
  O  O20  1  0.59160100  0.37349700  0.95112100  1
  O  O21  1  0.31606400  0.00428800  0.74627200  1
  O  O22  1  0.02448500  0.57198800  0.34693300  1
  O  O23  1  0.33740700  0.91755300  0.54765500  1
  O  O24  1  0.32134900  0.93649600  0.15285500  1
  O  O25  1  0.96886300  0.43574700  0.05254300  1
  O  O26  1  0.30533500  0.69804800  0.25109800  1
  O  O27  1  0.41944700  0.59208300  0.64984400  1
  O  O28  1  0.07800700  0.25184100  0.45103600  1
  O  O29  1  0.28347700  0.67142500  0.84353200  1
loop_
_geom_bond_atom_site_label_1
_geom_bond_atom_site_label_2
_geom_bond_distance
_geom_bond_site_symmetry_2
O0 W1 1.911778 1_555
O0 W3 1.978564 1_555
O1 W4 1.901648 1_655
O1 W2 1.959918 1_555
O2 V6 1.962865 1_555
O2 W0 1.984402 1_555
O2 V0 2.075553 1_555
O3 V4 1.800982 1_555
O3 V5 2.106264 1_555
O3 W5 2.246685 1_645
O4 V3 1.921484 1_455
O4 V1 1.923850 1_556
O4 V2 2.070430 1_555
O5 W5 1.839557 1_645
O5 V2 1.946880 1_555
O6 W0 1.900557 1_555
O6 W4 1.951611 1_645
O7 W2 1.960803 1_555
O7 V5 1.980983 1_655
O7 V4 2.088637 1_555
O8 W3 1.952420 1_565
O8 V0 2.018076 1_565
O8 V6 2.149063 1_555
O9 V1 1.940591 1_555
O9 W1 2.020969 1_555
O9 V3 2.065248 1_554
O10 V1 1.871556 1_555
O10 W1 1.996501 1_545
O10 V3 2.334746 1_544
O11 W5 1.846418 1_545
O11 V2 1.938482 1_555
O12 W2 1.928212 1_555
O12 V5 2.028527 1_565
O12 V4 2.111070 1_555
O13 W3 1.894740 1_555
O13 V0 2.069729 1_655
O13 V6 2.200707 1_555
O14 W0 1.907963 1_555
O14 W4 1.958202 1_555
O15 W4 1.914443 1_645
O15 W2 1.945378 1_555
O16 V4 1.875534 1_555
O16 W5 2.126726 1_655
O16 V5 2.153305 1_655
O17 V6 1.975898 1_545
O17 W0 1.983684 1_555
O17 V0 2.072803 1_555
O18 W1 1.886744 1_555
O18 W3 2.001847 1_565
O19 V3 1.752854 1_555
O19 V2 2.113874 1_565
O19 V1 2.133126 1_566
O20 V3 1.875979 1_555
O20 V1 1.946756 1_556
O20 V2 2.075677 1_555
O21 V4 1.970278 1_545
O21 V5 2.030528 1_555
O21 W5 2.101549 1_545
O22 V6 1.962487 1_455
O22 W0 2.011919 1_555
O22 V0 2.032260 1_555
O23 W4 1.916361 1_555
O23 W2 1.935518 1_555
O24 W3 1.936133 1_465
O24 W1 1.946929 1_555
O25 W1 1.927314 1_555
O25 V1 2.014865 1_655
O25 V3 2.158576 1_554
O26 W3 1.956469 1_465
O26 V0 1.973043 1_555
O26 V6 2.184107 1_555
O27 W2 1.915956 1_555
O27 V5 2.020273 1_555
O27 V4 2.185708 1_555
O28 W0 1.906012 1_555
O28 W4 1.955186 1_545
O29 W5 1.802110 1_555
O29 V2 2.008312 1_555
