# generated using pymatgen
data_LiFe2OF5
_symmetry_space_group_name_H-M   'P 1'
_cell_length_a   4.57237900
_cell_length_b   8.67308464
_cell_length_c   8.69536020
_cell_angle_alpha   60.17248146
_cell_angle_beta   89.21012327
_cell_angle_gamma   88.64656935
_symmetry_Int_Tables_number   1
_chemical_formula_structural   LiFe2OF5
_chemical_formula_sum   'Li3 Fe6 O3 F15'
_cell_volume   299.06379404
_cell_formula_units_Z   3
loop_
 _symmetry_equiv_pos_site_id
 _symmetry_equiv_pos_as_xyz
  1  'x, y, z'
loop_
 _atom_site_type_symbol
 _atom_site_label
 _atom_site_symmetry_multiplicity
 _atom_site_fract_x
 _atom_site_fract_y
 _atom_site_fract_z
 _atom_site_occupancy
  Li  Li0  1  0.50253700  0.33638800  0.32883600  1
  Li  Li1  1  0.00201200  0.00410400  0.99427500  1
  Li  Li2  1  0.49545500  0.66496700  0.66219900  1
  Fe  Fe0  1  0.98552300  0.35681500  0.00790500  1
  Fe  Fe1  1  0.51793500  0.67239200  0.00578200  1
  Fe  Fe2  1  0.98371300  0.65774200  0.35758400  1
  Fe  Fe3  1  0.51370500  0.98789400  0.32197100  1
  Fe  Fe4  1  0.51584700  0.30058500  0.69186600  1
  Fe  Fe5  1  0.98524700  0.00589300  0.65600200  1
  O  O0  1  0.73964100  0.46025200  0.10324500  1
  O  O1  1  0.73411100  0.77751000  0.43597000  1
  O  O2  1  0.76790100  0.10611200  0.76951900  1
  F  F0  1  0.76504200  0.12238000  0.10700700  1
  F  F1  1  0.26381100  0.21934400  0.21490600  1
  F  F2  1  0.74167200  0.10654300  0.43543400  1
  F  F3  1  0.76704200  0.77605400  0.11731700  1
  F  F4  1  0.26017500  0.57062000  0.22380200  1
  F  F5  1  0.26496500  0.21630700  0.55826600  1
  F  F6  1  0.23442200  0.88343300  0.22380200  1
  F  F7  1  0.74143700  0.43825300  0.45663600  1
  F  F8  1  0.25683100  0.53595100  0.56417000  1
  F  F9  1  0.25227300  0.90135700  0.54136800  1
  F  F10  1  0.23573100  0.23143000  0.89322800  1
  F  F11  1  0.73608500  0.43529200  0.78566100  1
  F  F12  1  0.73792100  0.78339000  0.77331900  1
  F  F13  1  0.25585200  0.56384900  0.89153600  1
  F  F14  1  0.24311500  0.88514400  0.87829600  1
loop_
_geom_bond_atom_site_label_1
_geom_bond_atom_site_label_2
_geom_bond_distance
_geom_bond_site_symmetry_2
Li0 O0 2.019245 1_555
Li1 O2 2.010206 1_455
Li2 O1 2.023418 1_555
Fe0 O0 1.850017 1_555
Fe1 O0 1.874980 1_555
Fe2 O1 1.863589 1_555
Fe3 O1 1.862539 1_555
Fe4 O2 1.850873 1_555
Fe5 O2 1.871654 1_555
F0 Fe3 2.002572 1_545
F0 Li1 2.026255 1_654
F0 Fe0 2.054990 1_555
F1 Fe0 2.033984 1_455
F1 Fe3 2.064891 1_545
F1 Li0 2.070252 1_555
F2 Fe5 2.007056 1_555
F2 Li0 2.028665 1_555
F2 Fe3 2.051297 1_545
F3 Fe1 1.998121 1_555
F3 Li1 2.043188 1_664
F3 Fe2 2.067766 1_555
F4 Fe1 2.021139 1_555
F4 Li0 2.065203 1_555
F4 Fe2 2.076258 1_455
F5 Fe4 2.029976 1_555
F5 Li0 2.042401 1_555
F5 Fe5 2.055696 1_455
F6 Fe3 2.008541 1_555
F6 Li1 2.033701 1_564
F6 Fe2 2.074352 1_455
F7 Fe2 2.008766 1_555
F7 Fe4 2.060056 1_555
F7 Li0 2.065039 1_555
F8 Fe2 2.003514 1_455
F8 Li2 2.049699 1_555
F8 Fe4 2.114206 1_555
F9 Fe5 2.029647 1_465
F9 Fe3 2.046170 1_555
F9 Li2 2.079751 1_555
F10 Fe4 1.998913 1_555
F10 Li1 2.037558 1_555
F10 Fe0 2.115246 1_456
F11 Fe4 2.017509 1_555
F11 Li2 2.032924 1_555
F11 Fe0 2.052857 1_556
F12 Fe1 2.019477 1_556
F12 Fe5 2.038757 1_565
F12 Li2 2.070789 1_555
F13 Fe0 2.009692 1_456
F13 Li2 2.047308 1_555
F13 Fe1 2.079798 1_556
F14 Fe1 2.026507 1_556
F14 Fe5 2.052793 1_465
F14 Li1 2.060956 1_565
