# generated using pymatgen
data_LiCu(PO3)3
_symmetry_space_group_name_H-M   'P 1'
_cell_length_a   6.49716296
_cell_length_b   6.49716296
_cell_length_c   9.65957520
_cell_angle_alpha   86.52622907
_cell_angle_beta   86.52622907
_cell_angle_gamma   58.82274208
_symmetry_Int_Tables_number   1
_chemical_formula_structural   LiCu(PO3)3
_chemical_formula_sum   'Li2 Cu2 P6 O18'
_cell_volume   348.02294263
_cell_formula_units_Z   2
loop_
 _symmetry_equiv_pos_site_id
 _symmetry_equiv_pos_as_xyz
  1  'x, y, z'
loop_
 _atom_site_type_symbol
 _atom_site_label
 _atom_site_symmetry_multiplicity
 _atom_site_fract_x
 _atom_site_fract_y
 _atom_site_fract_z
 _atom_site_occupancy
  Li  Li0  1  0.30451300  0.37282800  0.49999700  1
  Li  Li1  1  0.37282800  0.30451300  0.99999700  1
  Cu  Cu0  1  0.66814000  0.66754100  0.99997100  1
  Cu  Cu1  1  0.66754100  0.66814000  0.49997100  1
  P  P0  1  0.75135600  0.27854900  0.74905000  1
  P  P1  1  0.96068200  0.28362100  0.25388500  1
  P  P2  1  0.27854900  0.75135600  0.24905000  1
  P  P3  1  0.28362100  0.96068200  0.75388500  1
  P  P4  1  0.97336000  0.74858200  0.74697600  1
  P  P5  1  0.74858200  0.97336000  0.24697600  1
  O  O0  1  0.62421300  0.37870300  0.88427900  1
  O  O1  1  0.64680500  0.42005300  0.61605800  1
  O  O2  1  0.95148000  0.40801700  0.11553100  1
  O  O3  1  0.95226100  0.40497500  0.38399400  1
  O  O4  1  0.42005300  0.64680500  0.11605800  1
  O  O5  1  0.37870300  0.62421300  0.38427900  1
  O  O6  1  0.40801700  0.95148000  0.61553100  1
  O  O7  1  0.40497500  0.95226100  0.88399400  1
  O  O8  1  0.00066300  0.62262300  0.61701800  1
  O  O9  1  0.93702100  0.64470400  0.88387000  1
  O  O10  1  0.20691700  0.02758000  0.25396400  1
  O  O11  1  0.02758000  0.20691700  0.75396400  1
  O  O12  1  0.64470400  0.93702100  0.38387000  1
  O  O13  1  0.62262300  0.00066300  0.11701800  1
  O  O14  1  0.76736000  0.02641000  0.73049400  1
  O  O15  1  0.75985900  0.21117300  0.26491400  1
  O  O16  1  0.02641000  0.76736000  0.23049400  1
  O  O17  1  0.21117300  0.75985900  0.76491400  1
loop_
_geom_bond_atom_site_label_1
_geom_bond_atom_site_label_2
_geom_bond_distance
_geom_bond_site_symmetry_2
Li0 O8 2.107990 1_555
Li0 O5 2.162875 1_555
Li0 O3 2.514874 1_455
Li1 O13 2.107990 1_556
Li1 O0 2.162875 1_555
Li1 O7 2.514874 1_545
Cu0 O9 1.961121 1_555
Cu0 O4 1.964987 1_556
Cu0 O2 2.070069 1_556
Cu0 O7 2.075263 1_555
Cu0 O13 2.375602 1_566
Cu0 O0 2.387342 1_555
Cu1 O12 1.961121 1_555
Cu1 O1 1.964987 1_555
Cu1 O6 2.070069 1_555
Cu1 O3 2.075263 1_555
Cu1 O8 2.375602 1_655
Cu1 O5 2.387342 1_555
O0 P0 1.492586 1_555
O1 P0 1.507650 1_555
O2 P1 1.507192 1_555
O3 P1 1.507078 1_555
O4 P2 1.507650 1_555
O5 P2 1.492586 1_555
O6 P3 1.507192 1_555
O7 P3 1.507078 1_555
O8 P4 1.491404 1_455
O9 P4 1.509578 1_555
O10 P1 1.603523 1_455
O10 P2 1.607033 1_545
O11 P3 1.603523 1_545
O11 P0 1.607033 1_455
O12 P5 1.509578 1_555
O13 P5 1.491404 1_545
O14 P4 1.601447 1_545
O14 P0 1.607346 1_555
O15 P1 1.596351 1_555
O15 P5 1.604354 1_545
O16 P5 1.601447 1_455
O16 P2 1.607346 1_555
O17 P3 1.596351 1_555
O17 P4 1.604354 1_455
