# generated using pymatgen
data_RbCr5S8
_symmetry_space_group_name_H-M   'P 1'
_cell_length_a   3.49969322
_cell_length_b   8.76483389
_cell_length_c   9.17359066
_cell_angle_alpha   104.89828074
_cell_angle_beta   100.99646315
_cell_angle_gamma   89.99999579
_symmetry_Int_Tables_number   1
_chemical_formula_structural   RbCr5S8
_chemical_formula_sum   'Rb1 Cr5 S8'
_cell_volume   266.58353539
_cell_formula_units_Z   1
loop_
 _symmetry_equiv_pos_site_id
 _symmetry_equiv_pos_as_xyz
  1  'x, y, z'
loop_
 _atom_site_type_symbol
 _atom_site_label
 _atom_site_symmetry_multiplicity
 _atom_site_fract_x
 _atom_site_fract_y
 _atom_site_fract_z
 _atom_site_occupancy
  Rb  Rb0  1  0.50000181  0.49999294  0.00000462  1
  Cr  Cr0  1  0.29543277  0.66483852  0.59086654  1
  Cr  Cr1  1  0.70456608  0.33515829  0.40913316  1
  Cr  Cr2  1  0.34122971  0.02556991  0.68245942  1
  Cr  Cr3  1  0.65877274  0.97443715  0.31754647  1
  Cr  Cr4  1  -0.00000104  0.00000339  -0.00000307  1
  S  S0  1  0.23797100  0.15617209  0.47594100  1
  S  S1  1  0.76203279  0.84382570  0.52406457  1
  S  S2  1  0.17165182  0.48651448  0.34330363  1
  S  S3  1  0.82834484  0.51347957  0.65669168  1
  S  S4  1  0.08576033  0.83007260  0.17151966  1
  S  S5  1  0.91424043  0.16993191  0.82848085  1
  S  S6  1  0.42310992  0.85194084  0.84621983  1
  S  S7  1  0.57688581  0.14806259  0.15377262  1
loop_
_geom_bond_atom_site_label_1
_geom_bond_atom_site_label_2
_geom_bond_distance
_geom_bond_site_symmetry_2
Rb0 S5 3.387642 1_454
Rb0 S5 3.387643 1_554
Rb0 S4 3.387742 1_555
Rb0 S4 3.387746 1_655
Rb0 S2 3.581110 1_555
Rb0 S2 3.581112 1_655
Rb0 S3 3.581238 1_554
Rb0 S3 3.581240 1_454
Rb0 S7 3.697247 1_555
Rb0 S6 3.697480 1_554
Cr0 S3 2.363307 1_555
Cr0 S3 2.363310 1_455
Cr0 S2 2.363820 1_555
Cr0 S6 2.449833 1_555
Cr0 S1 2.525725 1_455
Cr0 S1 2.525730 1_555
Cr1 S2 2.363307 1_555
Cr1 S2 2.363310 1_655
Cr1 S3 2.363780 1_555
Cr1 S7 2.449858 1_555
Cr1 S0 2.525740 1_555
Cr1 S0 2.525745 1_655
Cr2 S5 2.349575 1_555
Cr2 S5 2.349575 1_455
Cr2 S6 2.380389 1_545
Cr2 S0 2.425715 1_555
Cr2 S1 2.538463 1_445
Cr2 S1 2.538465 1_545
Cr3 S4 2.349602 1_555
Cr3 S4 2.349607 1_655
Cr3 S7 2.380459 1_565
Cr3 S1 2.425767 1_555
Cr3 S0 2.538422 1_565
Cr3 S0 2.538426 1_665
Cr4 S7 2.392128 1_555
Cr4 S7 2.392133 1_455
Cr4 S6 2.392146 1_544
Cr4 S6 2.392149 1_444
Cr4 S5 2.410162 1_454
Cr4 S4 2.410226 1_545
