# generated using pymatgen
data_VSb(PO4)2
_symmetry_space_group_name_H-M   'P 1'
_cell_length_a   5.06594231
_cell_length_b   10.99818434
_cell_length_c   5.93967300
_cell_angle_alpha   89.99990369
_cell_angle_beta   90.00069005
_cell_angle_gamma   97.42734877
_symmetry_Int_Tables_number   1
_chemical_formula_structural   VSb(PO4)2
_chemical_formula_sum   'V2 Sb2 P4 O16'
_cell_volume   328.15912196
_cell_formula_units_Z   2
loop_
 _symmetry_equiv_pos_site_id
 _symmetry_equiv_pos_as_xyz
  1  'x, y, z'
loop_
 _atom_site_type_symbol
 _atom_site_label
 _atom_site_symmetry_multiplicity
 _atom_site_fract_x
 _atom_site_fract_y
 _atom_site_fract_z
 _atom_site_occupancy
  V  V0  1  0.56595200  0.79838600  0.24999600  1
  V  V1  1  0.43426500  0.20164000  0.75000400  1
  Sb  Sb0  1  0.96789000  0.27166100  0.25000500  1
  Sb  Sb1  1  0.03224400  0.72819900  0.74999600  1
  P  P0  1  0.39801100  0.07646300  0.25000100  1
  P  P1  1  0.60183100  0.92359700  0.74999900  1
  P  P2  1  0.90748900  0.37798900  0.74999900  1
  P  P3  1  0.09257300  0.62196400  0.25000100  1
  O  O0  1  0.66506700  0.06226200  0.75000600  1
  O  O1  1  0.33457700  0.93782500  0.24999400  1
  O  O2  1  0.70420700  0.11351200  0.25000200  1
  O  O3  1  0.29568000  0.88642000  0.74999900  1
  O  O4  1  0.18013800  0.33253500  0.74999500  1
  O  O5  1  0.81988800  0.66745300  0.25000300  1
  O  O6  1  0.08799300  0.48530300  0.24999700  1
  O  O7  1  0.91214200  0.51466600  0.75000400  1
  O  O8  1  0.27206900  0.13715500  0.04245600  1
  O  O9  1  0.27207500  0.13714900  0.45755000  1
  O  O10  1  0.72780800  0.86295100  0.54245800  1
  O  O11  1  0.72781400  0.86294600  0.95753600  1
  O  O12  1  0.73006000  0.31280600  0.95129600  1
  O  O13  1  0.73005100  0.31281100  0.54869900  1
  O  O14  1  0.27008400  0.68715500  0.04866900  1
  O  O15  1  0.27009000  0.68715100  0.45133600  1
loop_
_geom_bond_atom_site_label_1
_geom_bond_atom_site_label_2
_geom_bond_distance
_geom_bond_site_symmetry_2
O0 P1 1.517278 1_545
O0 V1 2.044573 1_555
O1 P0 1.517069 1_565
O1 V0 2.047067 1_555
O2 P0 1.552016 1_555
O2 Sb0 2.051589 1_555
O3 P1 1.551985 1_555
O3 Sb1 2.051517 1_555
O4 P2 1.528466 1_455
O4 V1 2.051587 1_555
O5 P3 1.528810 1_655
O5 V0 2.051219 1_555
O6 P3 1.500200 1_555
O6 Sb0 2.349798 1_455
O7 P2 1.500334 1_555
O7 Sb1 2.348639 1_655
O8 P0 1.575556 1_555
O8 V1 2.011198 1_554
O8 Sb0 2.583034 1_455
O9 P0 1.575543 1_555
O9 V1 2.011202 1_555
O9 Sb0 2.583066 1_455
O10 P1 1.575392 1_555
O10 V0 2.010874 1_555
O10 Sb1 2.585615 1_655
O11 P1 1.575400 1_555
O11 V0 2.010873 1_556
O11 Sb1 2.585584 1_655
O12 P2 1.607743 1_555
O12 V1 2.167033 1_555
O12 Sb0 2.223782 1_556
O13 P2 1.607745 1_555
O13 V1 2.167092 1_555
O13 Sb0 2.223776 1_555
O14 P3 1.608139 1_555
O14 V0 2.167716 1_555
O14 Sb1 2.223337 1_554
O15 P3 1.608137 1_555
O15 V0 2.167779 1_555
O15 Sb1 2.223329 1_555
