# generated using pymatgen
data_V2Co(HO2)4
_symmetry_space_group_name_H-M   'P 1'
_cell_length_a   5.69300100
_cell_length_b   10.77121800
_cell_length_c   11.91821000
_cell_angle_alpha   90.00000000
_cell_angle_beta   90.00000000
_cell_angle_gamma   90.00000000
_symmetry_Int_Tables_number   1
_chemical_formula_structural   V2Co(HO2)4
_chemical_formula_sum   'V8 Co4 H16 O32'
_cell_volume   730.83124996
_cell_formula_units_Z   4
loop_
 _symmetry_equiv_pos_site_id
 _symmetry_equiv_pos_as_xyz
  1  'x, y, z'
loop_
 _atom_site_type_symbol
 _atom_site_label
 _atom_site_symmetry_multiplicity
 _atom_site_fract_x
 _atom_site_fract_y
 _atom_site_fract_z
 _atom_site_occupancy
  V  V0  1  0.19328200  0.03169300  0.17408200  1
  V  V1  1  0.19328200  0.46830700  0.17408200  1
  V  V2  1  0.30671800  0.53169300  0.67408200  1
  V  V3  1  0.30671800  0.96830700  0.67408200  1
  V  V4  1  0.69328200  0.03169300  0.32591800  1
  V  V5  1  0.69328200  0.46830700  0.32591800  1
  V  V6  1  0.80671800  0.53169300  0.82591800  1
  V  V7  1  0.80671800  0.96830700  0.82591800  1
  Co  Co0  1  0.01838800  0.75000000  0.04066200  1
  Co  Co1  1  0.48161200  0.25000000  0.54066200  1
  Co  Co2  1  0.51838800  0.75000000  0.45933800  1
  Co  Co3  1  0.98161200  0.25000000  0.95933800  1
  H  H0  1  0.05143300  0.75000000  0.41559000  1
  H  H1  1  0.12103000  0.17749900  0.40335400  1
  H  H2  1  0.12103000  0.32250100  0.40335400  1
  H  H3  1  0.17060800  0.75000000  0.29226500  1
  H  H4  1  0.32939200  0.25000000  0.79226500  1
  H  H5  1  0.37897000  0.82250100  0.90335400  1
  H  H6  1  0.37897000  0.67749900  0.90335400  1
  H  H7  1  0.44856700  0.25000000  0.91559000  1
  H  H8  1  0.55143300  0.75000000  0.08441000  1
  H  H9  1  0.62103000  0.17749900  0.09664600  1
  H  H10  1  0.62103000  0.32250100  0.09664600  1
  H  H11  1  0.67060800  0.75000000  0.20773500  1
  H  H12  1  0.82939200  0.25000000  0.70773500  1
  H  H13  1  0.87897000  0.67749900  0.59664600  1
  H  H14  1  0.87897000  0.82250100  0.59664600  1
  H  H15  1  0.94856700  0.25000000  0.58441000  1
  O  O0  1  0.00047800  0.07130500  0.29181900  1
  O  O1  1  0.00047800  0.42869500  0.29181900  1
  O  O2  1  0.11369500  0.11614700  0.06317000  1
  O  O3  1  0.11369500  0.38385300  0.06317000  1
  O  O4  1  0.15225700  0.25000000  0.45201200  1
  O  O5  1  0.16324200  0.62065100  0.14465900  1
  O  O6  1  0.16324200  0.87934900  0.14465900  1
  O  O7  1  0.19925000  0.75000000  0.37291100  1
  O  O8  1  0.30075000  0.25000000  0.87291100  1
  O  O9  1  0.33675800  0.12065100  0.64465900  1
  O  O10  1  0.33675800  0.37934900  0.64465900  1
  O  O11  1  0.34774300  0.75000000  0.95201200  1
  O  O12  1  0.38630500  0.88385300  0.56317000  1
  O  O13  1  0.38630500  0.61614700  0.56317000  1
  O  O14  1  0.49952200  0.92869500  0.79181900  1
  O  O15  1  0.49952200  0.57130500  0.79181900  1
  O  O16  1  0.50047800  0.07130500  0.20818100  1
  O  O17  1  0.50047800  0.42869500  0.20818100  1
  O  O18  1  0.61369500  0.11614700  0.43683000  1
  O  O19  1  0.61369500  0.38385300  0.43683000  1
  O  O20  1  0.65225700  0.25000000  0.04798800  1
  O  O21  1  0.66324200  0.62065100  0.35534100  1
  O  O22  1  0.66324200  0.87934900  0.35534100  1
  O  O23  1  0.69925000  0.75000000  0.12708900  1
  O  O24  1  0.80075000  0.25000000  0.62708900  1
  O  O25  1  0.83675800  0.12065100  0.85534100  1
  O  O26  1  0.83675800  0.37934900  0.85534100  1
  O  O27  1  0.84774300  0.75000000  0.54798800  1
  O  O28  1  0.88630500  0.61614700  0.93683000  1
  O  O29  1  0.88630500  0.88385300  0.93683000  1
  O  O30  1  0.99952200  0.57130500  0.70818100  1
  O  O31  1  0.99952200  0.92869500  0.70818100  1
loop_
_geom_bond_atom_site_label_1
_geom_bond_atom_site_label_2
_geom_bond_distance
_geom_bond_site_symmetry_2
Co0 O6 2.038982 1_555
Co0 O5 2.038982 1_555
Co0 O29 2.043400 1_454
Co0 O28 2.043400 1_454
Co0 O23 2.088533 1_455
Co0 O11 2.152206 1_554
Co1 O9 2.038982 1_555
Co1 O10 2.038982 1_555
Co1 O18 2.043400 1_555
Co1 O19 2.043400 1_555
Co1 O24 2.088533 1_555
Co1 O4 2.152206 1_555
Co2 O22 2.038982 1_555
Co2 O21 2.038982 1_555
Co2 O12 2.043400 1_555
Co2 O13 2.043400 1_555
Co2 O7 2.088533 1_555
Co2 O27 2.152206 1_555
Co3 O26 2.038982 1_555
Co3 O25 2.038982 1_555
Co3 O3 2.043400 1_656
Co3 O2 2.043400 1_656
Co3 O8 2.088533 1_655
Co3 O20 2.152206 1_556
H0 O7 0.983307 1_555
H1 O4 0.988812 1_555
H2 O4 0.988812 1_555
H3 O7 0.974889 1_555
H4 O8 0.974889 1_555
H5 O11 0.988812 1_555
H6 O11 0.988812 1_555
H7 O8 0.983307 1_555
H8 O23 0.983307 1_555
H9 O20 0.988812 1_555
H10 O20 0.988812 1_555
H11 O23 0.974889 1_555
H12 O24 0.974889 1_555
H13 O27 0.988812 1_555
H14 O27 0.988812 1_555
H15 O24 0.983307 1_555
O0 V0 1.831900 1_555
O0 V4 1.845466 1_455
O1 V1 1.831900 1_555
O1 V5 1.845466 1_455
O2 V0 1.667375 1_555
O3 V1 1.667375 1_555
O5 V1 1.686674 1_555
O6 V0 1.686674 1_565
O9 V3 1.686674 1_545
O10 V2 1.686674 1_555
O12 V3 1.667375 1_555
O13 V2 1.667375 1_555
O14 V3 1.831900 1_555
O14 V7 1.845466 1_555
O15 V2 1.831900 1_555
O15 V6 1.845466 1_555
O16 V4 1.831900 1_555
O16 V0 1.845466 1_555
O17 V5 1.831900 1_555
O17 V1 1.845466 1_555
O18 V4 1.667375 1_555
O19 V5 1.667375 1_555
O21 V5 1.686674 1_555
O22 V4 1.686674 1_565
O25 V7 1.686674 1_545
O26 V6 1.686674 1_555
O28 V6 1.667375 1_555
O29 V7 1.667375 1_555
O30 V6 1.831900 1_555
O30 V2 1.845466 1_655
O31 V7 1.831900 1_555
O31 V3 1.845466 1_655
