# generated using pymatgen
data_Li6V3W3O16
_symmetry_space_group_name_H-M   'P 1'
_cell_length_a   5.88395400
_cell_length_b   5.81761092
_cell_length_c   10.22874056
_cell_angle_alpha   90.09353199
_cell_angle_beta   90.68776816
_cell_angle_gamma   119.55457128
_symmetry_Int_Tables_number   1
_chemical_formula_structural   Li6V3W3O16
_chemical_formula_sum   'Li6 V3 W3 O16'
_cell_volume   304.54461727
_cell_formula_units_Z   1
loop_
 _symmetry_equiv_pos_site_id
 _symmetry_equiv_pos_as_xyz
  1  'x, y, z'
loop_
 _atom_site_type_symbol
 _atom_site_label
 _atom_site_symmetry_multiplicity
 _atom_site_fract_x
 _atom_site_fract_y
 _atom_site_fract_z
 _atom_site_occupancy
  Li  Li0  1  0.32991600  0.66312200  0.51186300  1
  Li  Li1  1  0.33160800  0.66714800  0.88836300  1
  Li  Li2  1  0.99372100  0.99622100  0.99551200  1
  Li  Li3  1  0.98733000  0.99233300  0.49591800  1
  Li  Li4  1  0.65708300  0.32954800  0.00410200  1
  Li  Li5  1  0.66346400  0.33199500  0.39904900  1
  V  V0  1  0.65717000  0.82875800  0.21223400  1
  V  V1  1  0.83347700  0.65161800  0.71202500  1
  V  V2  1  0.82815400  0.17636900  0.71141200  1
  W  W0  1  0.17716500  0.81462300  0.21362300  1
  W  W1  1  0.17688500  0.36267900  0.21338900  1
  W  W2  1  0.34786900  0.17525400  0.71500300  1
  O  O0  1  0.15838100  0.84524900  0.61118500  1
  O  O1  1  0.01800400  0.50939700  0.33861200  1
  O  O2  1  0.34273000  0.67117000  0.08326000  1
  O  O3  1  0.00526000  0.00324400  0.31491000  1
  O  O4  1  0.01502000  0.00727400  0.81438100  1
  O  O5  1  0.15644300  0.31187400  0.61143100  1
  O  O6  1  0.48436700  0.97888200  0.32336700  1
  O  O7  1  0.48426200  0.50585800  0.32310700  1
  O  O8  1  0.30963700  0.15438500  0.10753000  1
  O  O9  1  0.69684400  0.84812400  0.61884500  1
  O  O10  1  0.51035400  0.48576600  0.82308600  1
  O  O11  1  0.51162400  0.02572200  0.82359800  1
  O  O12  1  0.65276800  0.32692100  0.59430900  1
  O  O13  1  0.84852300  0.68736700  0.11389300  1
  O  O14  1  0.97338400  0.48834000  0.82003900  1
  O  O15  1  0.84855900  0.16105900  0.11379300  1
loop_
_geom_bond_atom_site_label_1
_geom_bond_atom_site_label_2
_geom_bond_distance
_geom_bond_site_symmetry_2
Li0 O5 2.056414 1_555
Li0 O0 2.061439 1_555
Li0 O9 2.159676 1_555
Li0 O1 2.367720 1_555
Li0 O7 2.499109 1_555
Li0 O6 2.514870 1_555
Li1 O11 1.937519 1_565
Li1 O10 1.942889 1_555
Li1 O14 1.952559 1_455
Li1 O2 1.993560 1_556
Li2 O4 1.857554 1_665
Li2 O8 1.967971 1_666
Li2 O15 1.985437 1_566
Li2 O13 1.985496 1_556
Li3 O3 1.855160 1_665
Li3 O9 1.961301 1_555
Li3 O0 1.989887 1_655
Li3 O5 1.995431 1_665
Li4 O8 2.082629 1_555
Li4 O13 2.124172 1_555
Li4 O15 2.133463 1_555
Li4 O11 2.392631 1_554
Li4 O10 2.395988 1_554
Li4 O14 2.501100 1_554
Li5 O1 1.925678 1_655
Li5 O6 1.941510 1_545
Li5 O7 1.942493 1_555
Li5 O12 1.998818 1_555
O0 W2 1.977339 1_565
O0 V1 1.978441 1_455
O1 W1 2.013820 1_555
O1 W0 2.015011 1_555
O2 W0 2.062322 1_555
O2 W1 2.063042 1_555
O2 V0 2.065939 1_555
O3 V0 2.054802 1_445
O3 W0 2.101661 1_545
O3 W1 2.102321 1_555
O4 W2 1.996713 1_555
O4 V1 2.074602 1_445
O4 V2 2.080522 1_455
O5 W2 1.969758 1_555
O5 V2 1.986556 1_455
O6 W0 1.919465 1_555
O6 V0 1.997324 1_555
O7 W1 1.920000 1_555
O7 V0 1.999826 1_555
O8 W0 2.049290 1_545
O8 W1 2.049575 1_555
O9 V2 1.913395 1_565
O9 V1 1.937387 1_555
O10 W2 1.914122 1_555
O10 V1 2.020385 1_555
O11 W2 1.929595 1_555
O11 V2 1.999491 1_555
O12 W2 2.004064 1_555
O12 V1 2.031997 1_555
O12 V2 2.032789 1_555
O13 W0 1.966185 1_655
O13 V0 1.973383 1_555
O14 V1 1.885109 1_555
O14 V2 1.923383 1_555
O15 W1 1.964477 1_655
O15 V0 1.976170 1_545
