# generated using pymatgen
data_Ba8Nb7O24
_symmetry_space_group_name_H-M   'P 1'
_cell_length_a   5.93495852
_cell_length_b   5.93495852
_cell_length_c   19.23357300
_cell_angle_alpha   90.00000000
_cell_angle_beta   90.00000000
_cell_angle_gamma   120.00000581
_symmetry_Int_Tables_number   1
_chemical_formula_structural   Ba8Nb7O24
_chemical_formula_sum   'Ba8 Nb7 O24'
_cell_volume   586.71332611
_cell_formula_units_Z   1
loop_
 _symmetry_equiv_pos_site_id
 _symmetry_equiv_pos_as_xyz
  1  'x, y, z'
loop_
 _atom_site_type_symbol
 _atom_site_label
 _atom_site_symmetry_multiplicity
 _atom_site_fract_x
 _atom_site_fract_y
 _atom_site_fract_z
 _atom_site_occupancy
  Ba  Ba0  1  0.66666700  0.33333300  0.13220900  1
  Ba  Ba1  1  0.66666700  0.33333300  0.75525400  1
  Ba  Ba2  1  0.33333300  0.66666700  0.98564100  1
  Ba  Ba3  1  0.66666700  0.33333300  0.36598200  1
  Ba  Ba4  1  0.33333300  0.66666700  0.50431200  1
  Ba  Ba5  1  0.00000000  0.00000000  0.24915200  1
  Ba  Ba6  1  0.00000000  0.00000000  0.85457500  1
  Ba  Ba7  1  0.00000000  0.00000000  0.63248100  1
  Nb  Nb0  1  0.66666700  0.33333300  0.56339700  1
  Nb  Nb1  1  0.33333300  0.66666700  0.18270600  1
  Nb  Nb2  1  0.33333300  0.66666700  0.31816500  1
  Nb  Nb3  1  0.33333300  0.66666700  0.69734700  1
  Nb  Nb4  1  0.66666700  0.33333300  0.93366100  1
  Nb  Nb5  1  0.00000000  0.00000000  0.05946900  1
  Nb  Nb6  1  0.00000000  0.00000000  0.43892300  1
  O  O0  1  0.49451500  0.50548500  0.25041300  1
  O  O1  1  0.32845500  0.16422700  0.00760100  1
  O  O2  1  0.33468600  0.16734300  0.49880900  1
  O  O3  1  0.50334000  0.49666000  0.62053600  1
  O  O4  1  0.50982400  0.49017600  0.88326800  1
  O  O5  1  0.50334000  0.00667900  0.62053600  1
  O  O6  1  0.50982400  0.01964700  0.88326800  1
  O  O7  1  0.49451500  0.98903000  0.25041300  1
  O  O8  1  0.66052000  0.83026000  0.74127900  1
  O  O9  1  0.99332100  0.49666000  0.62053600  1
  O  O10  1  0.98035300  0.49017600  0.88326800  1
  O  O11  1  0.83577300  0.16422700  0.00760100  1
  O  O12  1  0.83265700  0.16734300  0.49880900  1
  O  O13  1  0.67298400  0.83649200  0.12697200  1
  O  O14  1  0.67194700  0.83597400  0.37686600  1
  O  O15  1  0.01097000  0.50548500  0.25041300  1
  O  O16  1  0.16402600  0.32805300  0.37686600  1
  O  O17  1  0.83577300  0.67154500  0.00760100  1
  O  O18  1  0.83265700  0.66531400  0.49880900  1
  O  O19  1  0.16350800  0.32701600  0.12697200  1
  O  O20  1  0.16974000  0.33948000  0.74127900  1
  O  O21  1  0.16350800  0.83649200  0.12697200  1
  O  O22  1  0.16402600  0.83597400  0.37686600  1
  O  O23  1  0.16974000  0.83026000  0.74127900  1
loop_
_geom_bond_atom_site_label_1
_geom_bond_atom_site_label_2
_geom_bond_distance
_geom_bond_site_symmetry_2
Ba0 O15 2.881045 1_655
Ba0 O7 2.881045 1_545
Ba0 O0 2.881048 1_555
Ba0 O17 2.960714 1_555
Ba0 O1 2.960714 1_555
Ba0 O11 2.960714 1_555
Ba0 O13 2.969363 1_545
Ba0 O19 2.969363 1_655
Ba0 O21 2.969366 1_545
Ba0 O21 2.969366 1_655
Ba0 O19 2.969369 1_555
Ba0 O13 2.969369 1_555
Ba1 O10 2.943085 1_555
Ba1 O6 2.943085 1_555
Ba1 O4 2.943085 1_555
Ba1 O8 2.979792 1_545
Ba1 O20 2.979792 1_655
Ba1 O23 2.979795 1_545
Ba1 O23 2.979795 1_655
Ba1 O20 2.979798 1_555
Ba1 O8 2.979798 1_555
Ba1 O5 3.087507 1_555
Ba1 O9 3.087507 1_555
Ba1 O3 3.087507 1_555
Ba2 O6 2.677401 1_565
Ba2 O10 2.677401 1_455
Ba2 O4 2.677408 1_555
Ba2 O1 2.997486 1_566
Ba2 O17 2.997486 1_456
Ba2 O11 2.997492 1_566
Ba2 O11 2.997492 1_456
Ba2 O17 2.997498 1_556
Ba2 O1 2.997498 1_556
Ba2 O21 3.230599 1_556
Ba2 O13 3.230602 1_556
Ba2 O19 3.230602 1_556
Ba3 O7 2.841223 1_545
Ba3 O15 2.841223 1_655
Ba3 O0 2.841226 1_555
Ba3 O14 2.974972 1_545
Ba3 O16 2.974972 1_655
Ba3 O22 2.974978 1_655
Ba3 O22 2.974978 1_545
Ba3 O16 2.974984 1_555
Ba3 O14 2.974984 1_555
Ba3 O12 3.072167 1_555
Ba3 O18 3.072170 1_555
Ba3 O2 3.072170 1_555
Ba4 O5 2.837453 1_565
Ba4 O9 2.837453 1_455
Ba4 O3 2.837459 1_555
Ba4 O2 2.969371 1_565
Ba4 O18 2.969371 1_455
Ba4 O12 2.969374 1_455
Ba4 O12 2.969374 1_565
Ba4 O18 2.969377 1_555
Ba4 O2 2.969377 1_555
Ba4 O16 3.006266 1_555
Ba4 O14 3.006266 1_555
Ba4 O22 3.006266 1_555
Ba5 O19 2.889188 1_555
Ba5 O13 2.889188 1_445
Ba5 O21 2.889188 1_545
Ba5 O0 2.968114 1_555
Ba5 O0 2.968114 1_445
Ba5 O15 2.968114 1_555
Ba5 O7 2.968114 1_445
Ba5 O7 2.968114 1_545
Ba5 O15 2.968114 1_545
Ba5 O22 2.979416 1_545
Ba5 O16 2.979419 1_555
Ba5 O14 2.979419 1_445
Ba6 O8 2.791591 1_445
Ba6 O20 2.791591 1_555
Ba6 O23 2.791592 1_545
Ba6 O6 3.020045 1_455
Ba6 O10 3.020045 1_455
Ba6 O4 3.020048 1_555
Ba6 O4 3.020048 1_445
Ba6 O6 3.020051 1_555
Ba6 O10 3.020051 1_445
Ba6 O11 3.393029 1_456
Ba6 O1 3.393032 1_556
Ba6 O17 3.393032 1_446
Ba7 O8 2.724597 1_445
Ba7 O20 2.724597 1_555
Ba7 O23 2.724597 1_545
Ba7 O5 2.976555 1_455
Ba7 O9 2.976555 1_455
Ba7 O3 2.976557 1_445
Ba7 O3 2.976557 1_555
Ba7 O9 2.976560 1_445
Ba7 O5 2.976560 1_555
Ba7 O18 3.093408 1_445
Ba7 O2 3.093408 1_555
Ba7 O12 3.093408 1_455
Nb0 O5 2.006646 1_555
Nb0 O9 2.006646 1_555
Nb0 O3 2.006646 1_555
Nb0 O12 2.110623 1_555
Nb0 O18 2.110627 1_555
Nb0 O2 2.110627 1_555
Nb1 O21 2.048590 1_555
Nb1 O13 2.048594 1_555
Nb1 O19 2.048594 1_555
Nb1 O15 2.107399 1_555
Nb1 O7 2.107399 1_555
Nb1 O0 2.107403 1_555
Nb2 O14 2.074550 1_555
Nb2 O16 2.074550 1_555
Nb2 O22 2.074550 1_555
Nb2 O15 2.107934 1_555
Nb2 O7 2.107934 1_555
Nb2 O0 2.107938 1_555
Nb3 O23 1.882025 1_555
Nb3 O8 1.882029 1_555
Nb3 O20 1.882029 1_555
Nb3 O9 2.288378 1_455
Nb3 O5 2.288378 1_565
Nb3 O3 2.288386 1_555
Nb4 O10 1.881197 1_555
Nb4 O6 1.881197 1_555
Nb4 O4 1.881197 1_555
Nb4 O17 2.245956 1_556
Nb4 O1 2.245956 1_556
Nb4 O11 2.245956 1_556
Nb5 O11 1.960925 1_455
Nb5 O17 1.960929 1_445
Nb5 O1 1.960929 1_555
Nb5 O19 2.123853 1_555
Nb5 O13 2.123853 1_445
Nb5 O21 2.123853 1_545
Nb6 O22 2.065832 1_545
Nb6 O16 2.065836 1_555
Nb6 O14 2.065836 1_445
Nb6 O2 2.070236 1_555
Nb6 O18 2.070236 1_445
Nb6 O12 2.070236 1_455
