# generated using pymatgen
data_Ca2Ti6N2O11
_symmetry_space_group_name_H-M   'P 1'
_cell_length_a   7.75089648
_cell_length_b   7.75089648
_cell_length_c   9.50175871
_cell_angle_alpha   80.71360045
_cell_angle_beta   80.71360045
_cell_angle_gamma   28.03302610
_symmetry_Int_Tables_number   1
_chemical_formula_structural   Ca2Ti6N2O11
_chemical_formula_sum   'Ca2 Ti6 N2 O11'
_cell_volume   264.54287887
_cell_formula_units_Z   1
loop_
 _symmetry_equiv_pos_site_id
 _symmetry_equiv_pos_as_xyz
  1  'x, y, z'
loop_
 _atom_site_type_symbol
 _atom_site_label
 _atom_site_symmetry_multiplicity
 _atom_site_fract_x
 _atom_site_fract_y
 _atom_site_fract_z
 _atom_site_occupancy
  Ca  Ca0  1  0.53776100  0.53776100  0.18992500  1
  Ca  Ca1  1  0.45192100  0.45192100  0.73732600  1
  Ti  Ti0  1  0.11776000  0.11776000  0.91229100  1
  Ti  Ti1  1  0.17221500  0.17221500  0.56983000  1
  Ti  Ti2  1  0.23198500  0.23198500  0.24452400  1
  Ti  Ti3  1  0.76445500  0.76445500  0.77634100  1
  Ti  Ti4  1  0.84869400  0.84869400  0.43773000  1
  Ti  Ti5  1  0.88271700  0.88271700  0.07680000  1
  N  N0  1  0.65571600  0.65571600  0.90202400  1
  N  N1  1  0.00419900  0.00419900  0.01574400  1
  O  O0  1  0.07156600  0.07156600  0.71470200  1
  O  O1  1  0.13111100  0.13111100  0.40197800  1
  O  O2  1  0.15949100  0.15949100  0.11448200  1
  O  O3  1  0.70839600  0.70839600  0.58302500  1
  O  O4  1  0.76415100  0.76415100  0.25057800  1
  O  O5  1  0.25789200  0.25789200  0.74298100  1
  O  O6  1  0.30570400  0.30570400  0.43222400  1
  O  O7  1  0.35970000  0.35970000  0.11746800  1
  O  O8  1  0.85795700  0.85795700  0.88727500  1
  O  O9  1  0.89447300  0.89447300  0.60310900  1
  O  O10  1  0.94388400  0.94388400  0.29551700  1
loop_
_geom_bond_atom_site_label_1
_geom_bond_atom_site_label_2
_geom_bond_distance
_geom_bond_site_symmetry_2
Ca0 O10 2.460312 1_455
Ca0 O10 2.460312 1_545
Ca0 N1 2.606912 1_565
Ca0 N1 2.606912 1_655
Ca0 O2 2.636944 1_565
Ca0 O2 2.636944 1_655
Ca0 O7 2.873921 1_555
Ca0 N0 3.002716 1_554
Ca1 O9 2.502729 1_545
Ca1 O9 2.502729 1_455
Ca1 O0 2.584545 1_565
Ca1 O0 2.584545 1_655
Ca1 O8 2.623286 1_545
Ca1 O8 2.623286 1_455
Ca1 O5 2.909789 1_555
N0 Ti3 1.857738 1_555
N0 Ti0 1.959862 1_565
N0 Ti0 1.959862 1_655
N1 Ti5 1.822725 1_445
N1 Ti0 1.823456 1_554
O0 Ti1 1.869023 1_555
O0 Ti0 2.107461 1_555
O1 Ti1 1.803841 1_555
O1 Ti2 1.945520 1_555
O2 Ti2 1.778690 1_555
O2 Ti0 2.118003 1_554
O3 Ti1 1.964361 1_655
O3 Ti1 1.964361 1_565
O3 Ti3 2.144772 1_555
O3 Ti4 2.321528 1_555
O4 Ti2 1.941852 1_655
O4 Ti2 1.941852 1_565
O4 Ti5 2.219684 1_555
O4 Ti4 2.351860 1_555
O5 Ti3 1.909137 1_545
O5 Ti3 1.909137 1_455
O5 Ti1 2.252228 1_555
O5 Ti0 2.429454 1_555
O6 Ti4 1.989028 1_545
O6 Ti4 1.989028 1_455
O6 Ti1 2.206179 1_555
O6 Ti2 2.251202 1_555
O7 Ti5 1.936192 1_545
O7 Ti5 1.936192 1_455
O7 Ti2 2.091840 1_555
O8 Ti3 1.892566 1_555
O8 Ti5 1.898608 1_556
O9 Ti4 1.817482 1_555
O9 Ti3 2.337227 1_555
O10 Ti4 1.797810 1_555
O10 Ti5 2.408570 1_555
