# generated using pymatgen
data_K3P3H4O11
_symmetry_space_group_name_H-M   'P 1'
_cell_length_a   7.64027800
_cell_length_b   11.33640100
_cell_length_c   26.94894900
_cell_angle_alpha   90.00000000
_cell_angle_beta   90.00000000
_cell_angle_gamma   90.00000000
_symmetry_Int_Tables_number   1
_chemical_formula_structural   K3P3H4O11
_chemical_formula_sum   'K24 P24 H32 O88'
_cell_volume   2334.13619602
_cell_formula_units_Z   8
loop_
 _symmetry_equiv_pos_site_id
 _symmetry_equiv_pos_as_xyz
  1  'x, y, z'
loop_
 _atom_site_type_symbol
 _atom_site_label
 _atom_site_symmetry_multiplicity
 _atom_site_fract_x
 _atom_site_fract_y
 _atom_site_fract_z
 _atom_site_occupancy
  K  K0  1  0.76678500  0.49056300  0.03548000  1
  K  K1  1  0.26678500  0.00943700  0.96452000  1
  K  K2  1  0.23321500  0.99056300  0.46452000  1
  K  K3  1  0.73321500  0.50943700  0.53548000  1
  K  K4  1  0.23321500  0.50943700  0.96452000  1
  K  K5  1  0.73321500  0.99056300  0.03548000  1
  K  K6  1  0.76678500  0.00943700  0.53548000  1
  K  K7  1  0.26678500  0.49056300  0.46452000  1
  K  K8  1  0.73000100  0.48245100  0.20665500  1
  K  K9  1  0.23000100  0.01754900  0.79334500  1
  K  K10  1  0.26999900  0.98245100  0.29334500  1
  K  K11  1  0.76999900  0.51754900  0.70665500  1
  K  K12  1  0.26999900  0.51754900  0.79334500  1
  K  K13  1  0.76999900  0.98245100  0.20665500  1
  K  K14  1  0.73000100  0.01754900  0.70665500  1
  K  K15  1  0.23000100  0.48245100  0.29334500  1
  K  K16  1  0.86594400  0.02755600  0.37551100  1
  K  K17  1  0.36594400  0.47244400  0.62448900  1
  K  K18  1  0.13405600  0.52755600  0.12448900  1
  K  K19  1  0.63405600  0.97244400  0.87551100  1
  K  K20  1  0.13405600  0.97244400  0.62448900  1
  K  K21  1  0.63405600  0.52755600  0.37551100  1
  K  K22  1  0.86594400  0.47244400  0.87551100  1
  K  K23  1  0.36594400  0.02755600  0.12448900  1
  P  P0  1  0.60991700  0.24395400  0.45993900  1
  P  P1  1  0.10991700  0.25604600  0.54006100  1
  P  P2  1  0.39008300  0.74395400  0.04006100  1
  P  P3  1  0.89008300  0.75604600  0.95993900  1
  P  P4  1  0.39008300  0.75604600  0.54006100  1
  P  P5  1  0.89008300  0.74395400  0.45993900  1
  P  P6  1  0.60991700  0.25604600  0.95993900  1
  P  P7  1  0.10991700  0.24395400  0.04006100  1
  P  P8  1  0.59544500  0.24883900  0.29155100  1
  P  P9  1  0.09544500  0.25116100  0.70844900  1
  P  P10  1  0.40455500  0.74883900  0.20844900  1
  P  P11  1  0.90455500  0.75116100  0.79155100  1
  P  P12  1  0.40455500  0.75116100  0.70844900  1
  P  P13  1  0.90455500  0.74883900  0.29155100  1
  P  P14  1  0.59544500  0.25116100  0.79155100  1
  P  P15  1  0.09544500  0.24883900  0.20844900  1
  P  P16  1  0.83909300  0.22210100  0.12279600  1
  P  P17  1  0.33909300  0.27789900  0.87720400  1
  P  P18  1  0.16090700  0.72210100  0.37720400  1
  P  P19  1  0.66090700  0.77789900  0.62279600  1
  P  P20  1  0.16090700  0.77789900  0.87720400  1
  P  P21  1  0.66090700  0.72210100  0.12279600  1
  P  P22  1  0.83909300  0.27789900  0.62279600  1
  P  P23  1  0.33909300  0.22210100  0.37720400  1
  H  H0  1  0.94997500  0.19764600  0.27700800  1
  H  H1  1  0.44997500  0.30235400  0.72299200  1
  H  H2  1  0.05002500  0.69764600  0.22299200  1
  H  H3  1  0.55002500  0.80235400  0.77700800  1
  H  H4  1  0.05002500  0.80235400  0.72299200  1
  H  H5  1  0.55002500  0.69764600  0.27700800  1
  H  H6  1  0.94997500  0.30235400  0.77700800  1
  H  H7  1  0.44997500  0.19764600  0.22299200  1
  H  H8  1  0.93248200  0.24481200  0.97326600  1
  H  H9  1  0.43248200  0.25518800  0.02673400  1
  H  H10  1  0.06751800  0.74481200  0.52673400  1
  H  H11  1  0.56751800  0.75518800  0.47326600  1
  H  H12  1  0.06751800  0.75518800  0.02673400  1
  H  H13  1  0.56751800  0.74481200  0.97326600  1
  H  H14  1  0.93248200  0.25518800  0.47326600  1
  H  H15  1  0.43248200  0.24481200  0.52673400  1
  H  H16  1  0.88482000  0.32772500  0.34540300  1
  H  H17  1  0.38482000  0.17227500  0.65459700  1
  H  H18  1  0.11518000  0.82772500  0.15459700  1
  H  H19  1  0.61518000  0.67227500  0.84540300  1
  H  H20  1  0.11518000  0.67227500  0.65459700  1
  H  H21  1  0.61518000  0.82772500  0.34540300  1
  H  H22  1  0.88482000  0.17227500  0.84540300  1
  H  H23  1  0.38482000  0.32772500  0.15459700  1
  H  H24  1  0.53707400  0.38183000  0.12398800  1
  H  H25  1  0.03707400  0.11817000  0.87601200  1
  H  H26  1  0.46292600  0.88183000  0.37601200  1
  H  H27  1  0.96292600  0.61817000  0.62398800  1
  H  H28  1  0.46292600  0.61817000  0.87601200  1
  H  H29  1  0.96292600  0.88183000  0.12398800  1
  H  H30  1  0.53707400  0.11817000  0.62398800  1
  H  H31  1  0.03707400  0.38183000  0.37601200  1
  O  O0  1  0.60300600  0.37603800  0.45603600  1
  O  O1  1  0.10300600  0.12396200  0.54396400  1
  O  O2  1  0.39699400  0.87603800  0.04396400  1
  O  O3  1  0.89699400  0.62396200  0.95603600  1
  O  O4  1  0.39699400  0.62396200  0.54396400  1
  O  O5  1  0.89699400  0.87603800  0.45603600  1
  O  O6  1  0.60300600  0.12396200  0.95603600  1
  O  O7  1  0.10300600  0.37603800  0.04396400  1
  O  O8  1  0.56213400  0.37881000  0.28639400  1
  O  O9  1  0.06213400  0.12119000  0.71360600  1
  O  O10  1  0.43786600  0.87881000  0.21360600  1
  O  O11  1  0.93786600  0.62119000  0.78639400  1
  O  O12  1  0.43786600  0.62119000  0.71360600  1
  O  O13  1  0.93786600  0.87881000  0.28639400  1
  O  O14  1  0.56213400  0.12119000  0.78639400  1
  O  O15  1  0.06213400  0.37881000  0.21360600  1
  O  O16  1  0.77397000  0.20930700  0.31032000  1
  O  O17  1  0.27397000  0.29069300  0.68968000  1
  O  O18  1  0.22603000  0.70930700  0.18968000  1
  O  O19  1  0.72603000  0.79069300  0.81032000  1
  O  O20  1  0.22603000  0.79069300  0.68968000  1
  O  O21  1  0.72603000  0.70930700  0.31032000  1
  O  O22  1  0.77397000  0.29069300  0.81032000  1
  O  O23  1  0.27397000  0.20930700  0.18968000  1
  O  O24  1  0.69293600  0.13414700  0.12024600  1
  O  O25  1  0.19293600  0.36585300  0.87975400  1
  O  O26  1  0.30706400  0.63414700  0.37975400  1
  O  O27  1  0.80706400  0.86585300  0.62024600  1
  O  O28  1  0.30706400  0.86585300  0.87975400  1
  O  O29  1  0.80706400  0.63414700  0.12024600  1
  O  O30  1  0.69293600  0.36585300  0.62024600  1
  O  O31  1  0.19293600  0.13414700  0.37975400  1
  O  O32  1  0.78552200  0.18288200  0.45283700  1
  O  O33  1  0.28552200  0.31711800  0.54716300  1
  O  O34  1  0.21447800  0.68288200  0.04716300  1
  O  O35  1  0.71447800  0.81711800  0.95283700  1
  O  O36  1  0.21447800  0.81711800  0.54716300  1
  O  O37  1  0.71447800  0.68288200  0.45283700  1
  O  O38  1  0.78552200  0.31711800  0.95283700  1
  O  O39  1  0.28552200  0.18288200  0.04716300  1
  O  O40  1  0.80380800  0.35196800  0.12051400  1
  O  O41  1  0.30380800  0.14803200  0.87948600  1
  O  O42  1  0.19619200  0.85196800  0.37948600  1
  O  O43  1  0.69619200  0.64803200  0.62051400  1
  O  O44  1  0.19619200  0.64803200  0.87948600  1
  O  O45  1  0.69619200  0.85196800  0.12051400  1
  O  O46  1  0.80380800  0.14803200  0.62051400  1
  O  O47  1  0.30380800  0.35196800  0.37948600  1
  O  O48  1  0.56304300  0.17802600  0.24118400  1
  O  O49  1  0.06304300  0.32197400  0.75881600  1
  O  O50  1  0.43695700  0.67802600  0.25881600  1
  O  O51  1  0.93695700  0.82197400  0.74118400  1
  O  O52  1  0.43695700  0.82197400  0.75881600  1
  O  O53  1  0.93695700  0.67802600  0.24118400  1
  O  O54  1  0.56304300  0.32197400  0.74118400  1
  O  O55  1  0.06304300  0.17802600  0.25881600  1
  O  O56  1  0.94591700  0.18874100  0.17335800  1
  O  O57  1  0.44591700  0.31125900  0.82664200  1
  O  O58  1  0.05408300  0.68874100  0.32664200  1
  O  O59  1  0.55408300  0.81125900  0.67335800  1
  O  O60  1  0.05408300  0.81125900  0.82664200  1
  O  O61  1  0.55408300  0.68874100  0.17335800  1
  O  O62  1  0.94591700  0.31125900  0.67335800  1
  O  O63  1  0.44591700  0.18874100  0.32664200  1
  O  O64  1  0.97836200  0.18142700  0.08030600  1
  O  O65  1  0.47836200  0.31857300  0.91969400  1
  O  O66  1  0.02163800  0.68142700  0.41969400  1
  O  O67  1  0.52163800  0.81857300  0.58030600  1
  O  O68  1  0.02163800  0.81857300  0.91969400  1
  O  O69  1  0.52163800  0.68142700  0.08030600  1
  O  O70  1  0.97836200  0.31857300  0.58030600  1
  O  O71  1  0.47836200  0.18142700  0.41969400  1
  O  O72  1  0.03450300  0.30441600  0.48881600  1
  O  O73  1  0.53450300  0.19558400  0.51118400  1
  O  O74  1  0.96549700  0.80441600  0.01118400  1
  O  O75  1  0.46549700  0.69558400  0.98881600  1
  O  O76  1  0.96549700  0.69558400  0.51118400  1
  O  O77  1  0.46549700  0.80441600  0.48881600  1
  O  O78  1  0.03450300  0.19558400  0.98881600  1
  O  O79  1  0.53450300  0.30441600  0.01118400  1
  O  O80  1  0.93287800  0.40374500  0.35698800  1
  O  O81  1  0.43287800  0.09625500  0.64301200  1
  O  O82  1  0.06712200  0.90374500  0.14301200  1
  O  O83  1  0.56712200  0.59625500  0.85698800  1
  O  O84  1  0.06712200  0.59625500  0.64301200  1
  O  O85  1  0.56712200  0.90374500  0.35698800  1
  O  O86  1  0.93287800  0.09625500  0.85698800  1
  O  O87  1  0.43287800  0.40374500  0.14301200  1
loop_
_geom_bond_atom_site_label_1
_geom_bond_atom_site_label_2
_geom_bond_distance
_geom_bond_site_symmetry_2
K0 O40 2.792832 1_555
K0 O3 2.803610 1_554
K0 O29 2.821785 1_555
K0 O79 2.833965 1_555
K0 O7 2.887335 1_655
K0 O38 2.974351 1_554
K0 O69 3.106290 1_555
K1 O41 2.792832 1_555
K1 O2 2.803610 1_546
K1 O28 2.821785 1_545
K1 O78 2.833965 1_555
K1 O6 2.887335 1_555
K1 O39 2.974351 1_556
K1 O68 3.106290 1_545
K2 O42 2.792832 1_555
K2 O1 2.803610 1_565
K2 O31 2.821785 1_565
K2 O77 2.833965 1_555
K2 O5 2.887335 1_455
K2 O36 2.974351 1_555
K2 O71 3.106290 1_565
K3 O43 2.792832 1_555
K3 O0 2.803610 1_555
K3 O30 2.821785 1_555
K3 O76 2.833965 1_555
K3 O4 2.887335 1_555
K3 O37 2.974351 1_555
K3 O70 3.106290 1_555
K4 O44 2.792832 1_555
K4 O7 2.803610 1_556
K4 O25 2.821785 1_555
K4 O75 2.833965 1_555
K4 O3 2.887335 1_455
K4 O34 2.974351 1_556
K4 O65 3.106290 1_555
K5 O45 2.792832 1_555
K5 O6 2.803610 1_564
K5 O24 2.821785 1_565
K5 O74 2.833965 1_555
K5 O2 2.887335 1_555
K5 O35 2.974351 1_554
K5 O64 3.106290 1_565
K6 O46 2.792832 1_555
K6 O5 2.803610 1_545
K6 O27 2.821785 1_545
K6 O73 2.833965 1_555
K6 O1 2.887335 1_655
K6 O32 2.974351 1_555
K6 O67 3.106290 1_545
K7 O47 2.792832 1_555
K7 O4 2.803610 1_555
K7 O26 2.821785 1_555
K7 O72 2.833965 1_555
K7 O0 2.887335 1_555
K7 O33 2.974351 1_555
K7 O66 3.106290 1_555
K8 O8 2.764608 1_555
K8 O15 2.802654 1_655
K8 O40 2.809802 1_555
K8 O61 2.842652 1_555
K8 O53 2.877789 1_555
K8 O29 2.954067 1_555
K8 O87 2.981790 1_555
K9 O9 2.764608 1_555
K9 O14 2.802654 1_555
K9 O41 2.809802 1_555
K9 O60 2.842652 1_545
K9 O52 2.877789 1_545
K9 O28 2.954067 1_545
K9 O86 2.981790 1_455
K10 O10 2.764608 1_555
K10 O13 2.802654 1_455
K10 O42 2.809802 1_555
K10 O63 2.842652 1_565
K10 O55 2.877789 1_565
K10 O31 2.954067 1_565
K10 O85 2.981790 1_555
K11 O11 2.764608 1_555
K11 O12 2.802654 1_555
K11 O43 2.809802 1_555
K11 O62 2.842652 1_555
K11 O54 2.877789 1_555
K11 O30 2.954067 1_555
K11 O84 2.981790 1_655
K12 O12 2.764608 1_555
K12 O11 2.802654 1_455
K12 O44 2.809802 1_555
K12 O57 2.842652 1_555
K12 O49 2.877789 1_555
K12 O25 2.954067 1_555
K12 O83 2.981790 1_555
K13 O13 2.764608 1_555
K13 O10 2.802654 1_555
K13 O45 2.809802 1_555
K13 O56 2.842652 1_565
K13 O48 2.877789 1_565
K13 O24 2.954067 1_565
K13 O82 2.981790 1_655
K14 O14 2.764608 1_555
K14 O9 2.802654 1_655
K14 O46 2.809802 1_555
K14 O59 2.842652 1_545
K14 O51 2.877789 1_545
K14 O27 2.954067 1_545
K14 O81 2.981790 1_555
K15 O15 2.764608 1_555
K15 O8 2.802654 1_555
K15 O47 2.809802 1_555
K15 O58 2.842652 1_555
K15 O50 2.877789 1_555
K15 O26 2.954067 1_555
K15 O80 2.981790 1_455
K16 O85 2.726107 1_545
K16 O31 2.777545 1_655
K16 O5 2.777741 1_545
K16 O32 2.796523 1_555
K16 O16 2.797410 1_555
K16 O13 2.985482 1_545
K16 O42 3.215615 1_645
K17 O84 2.726107 1_555
K17 O30 2.777545 1_555
K17 O4 2.777741 1_555
K17 O33 2.796523 1_555
K17 O17 2.797410 1_555
K17 O12 2.985482 1_555
K17 O43 3.215615 1_555
K18 O87 2.726107 1_555
K18 O29 2.777545 1_455
K18 O7 2.777741 1_555
K18 O34 2.796523 1_555
K18 O18 2.797410 1_555
K18 O15 2.985482 1_555
K18 O40 3.215615 1_455
K19 O86 2.726107 1_565
K19 O28 2.777545 1_555
K19 O6 2.777741 1_565
K19 O35 2.796523 1_555
K19 O19 2.797410 1_555
K19 O14 2.985482 1_565
K19 O41 3.215615 1_565
K20 O81 2.726107 1_565
K20 O27 2.777545 1_455
K20 O1 2.777741 1_565
K20 O36 2.796523 1_555
K20 O20 2.797410 1_555
K20 O9 2.985482 1_565
K20 O46 3.215615 1_465
K21 O80 2.726107 1_555
K21 O26 2.777545 1_555
K21 O0 2.777741 1_555
K21 O37 2.796523 1_555
K21 O21 2.797410 1_555
K21 O8 2.985482 1_555
K21 O47 3.215615 1_555
K22 O83 2.726107 1_555
K22 O25 2.777545 1_655
K22 O3 2.777741 1_555
K22 O38 2.796523 1_555
K22 O22 2.797410 1_555
K22 O11 2.985482 1_555
K22 O44 3.215615 1_655
K23 O82 2.726107 1_545
K23 O24 2.777545 1_555
K23 O2 2.777741 1_545
K23 O39 2.796523 1_555
K23 O23 2.797410 1_555
K23 O10 2.985482 1_545
K23 O45 3.215615 1_545
H0 O55 1.017887 1_655
H0 O16 1.622243 1_555
H1 O54 1.017887 1_555
H1 O17 1.622243 1_555
H2 O53 1.017887 1_455
H2 O18 1.622243 1_555
H3 O52 1.017887 1_555
H3 O19 1.622243 1_555
H4 O51 1.017887 1_455
H4 O20 1.622243 1_555
H5 O50 1.017887 1_555
H5 O21 1.622243 1_555
H6 O49 1.017887 1_655
H6 O22 1.622243 1_555
H7 O48 1.017887 1_555
H7 O23 1.622243 1_555
H8 O78 1.046241 1_655
H8 O38 1.495226 1_555
H9 O79 1.046241 1_555
H9 O39 1.495226 1_555
H10 O76 1.046241 1_455
H10 O36 1.495226 1_555
H11 O77 1.046241 1_555
H11 O37 1.495226 1_555
H12 O74 1.046241 1_455
H12 O34 1.495226 1_555
H13 O75 1.046241 1_555
H13 O35 1.495226 1_555
H14 O72 1.046241 1_655
H14 O32 1.495226 1_555
H15 O73 1.046241 1_555
H15 O33 1.495226 1_555
H16 O80 0.987409 1_555
H17 O81 0.987409 1_555
H18 O82 0.987409 1_555
H19 O83 0.987409 1_555
H20 O84 0.987409 1_555
H21 O85 0.987409 1_555
H22 O86 0.987409 1_555
H23 O87 0.987409 1_555
H24 O87 0.978934 1_555
H24 K8 2.904637 1_555
H25 O86 0.978934 1_455
H25 K9 2.904637 1_555
H26 O85 0.978934 1_555
H26 K10 2.904637 1_555
H27 O84 0.978934 1_655
H27 K11 2.904637 1_555
H28 O83 0.978934 1_555
H28 K12 2.904637 1_555
H29 O82 0.978934 1_655
H29 K13 2.904637 1_555
H30 O81 0.978934 1_555
H30 K14 2.904637 1_555
H31 O80 0.978934 1_455
H31 K15 2.904637 1_555
O0 P0 1.501975 1_555
O1 P1 1.501975 1_555
O2 P2 1.501975 1_555
O3 P3 1.501975 1_555
O4 P4 1.501975 1_555
O5 P5 1.501975 1_555
O6 P6 1.501975 1_555
O7 P7 1.501975 1_555
O8 P8 1.501667 1_555
O9 P9 1.501667 1_555
O10 P10 1.501667 1_555
O11 P11 1.501667 1_555
O12 P12 1.501667 1_555
O13 P13 1.501667 1_555
O14 P14 1.501667 1_555
O15 P15 1.501667 1_555
O16 P8 1.522209 1_555
O17 P9 1.522209 1_555
O18 P10 1.522209 1_555
O19 P11 1.522209 1_555
O20 P12 1.522209 1_555
O21 P13 1.522209 1_555
O22 P14 1.522209 1_555
O23 P15 1.522209 1_555
O24 P16 1.498622 1_555
O25 P17 1.498622 1_555
O26 P18 1.498622 1_555
O27 P19 1.498622 1_555
O28 P20 1.498622 1_555
O29 P21 1.498622 1_555
O30 P22 1.498622 1_555
O31 P23 1.498622 1_555
O32 P0 1.521855 1_555
O33 P1 1.521855 1_555
O34 P2 1.521855 1_555
O35 P3 1.521855 1_555
O36 P4 1.521855 1_555
O37 P5 1.521855 1_555
O38 P6 1.521855 1_555
O39 P7 1.521855 1_555
O40 P16 1.497967 1_555
O41 P17 1.497967 1_555
O42 P18 1.497967 1_555
O43 P19 1.497967 1_555
O44 P20 1.497967 1_555
O45 P21 1.497967 1_555
O46 P22 1.497967 1_555
O47 P23 1.497967 1_555
O48 P8 1.596272 1_555
O49 P9 1.596272 1_555
O50 P10 1.596272 1_555
O51 P11 1.596272 1_555
O52 P12 1.596272 1_555
O53 P13 1.596272 1_555
O54 P14 1.596272 1_555
O55 P15 1.596272 1_555
O56 P15 1.632055 1_655
O56 P16 1.632730 1_555
O57 P14 1.632055 1_555
O57 P17 1.632730 1_555
O58 P13 1.632055 1_455
O58 P18 1.632730 1_555
O59 P12 1.632055 1_555
O59 P19 1.632730 1_555
O60 P11 1.632055 1_455
O60 P20 1.632730 1_555
O61 P10 1.632055 1_555
O61 P21 1.632730 1_555
O62 P9 1.632055 1_655
O62 P22 1.632730 1_555
O63 P8 1.632055 1_555
O63 P23 1.632730 1_555
O64 P16 1.629719 1_555
O64 P7 1.639809 1_655
O65 P17 1.629719 1_555
O65 P6 1.639809 1_555
O66 P18 1.629719 1_555
O66 P5 1.639809 1_455
O67 P19 1.629719 1_555
O67 P4 1.639809 1_555
O68 P20 1.629719 1_555
O68 P3 1.639809 1_455
O69 P21 1.629719 1_555
O69 P2 1.639809 1_555
O70 P22 1.629719 1_555
O70 P1 1.639809 1_655
O71 P23 1.629719 1_555
O71 P0 1.639809 1_555
O72 P1 1.593683 1_555
O73 P0 1.593683 1_555
O74 P3 1.593683 1_554
O75 P2 1.593683 1_556
O76 P5 1.593683 1_555
O77 P4 1.593683 1_555
O78 P7 1.593683 1_556
O79 P6 1.593683 1_554
