# generated using pymatgen
data_Cu2OF2
_symmetry_space_group_name_H-M   'P 1'
_cell_length_a   6.87180504
_cell_length_b   6.09155665
_cell_length_c   5.72255369
_cell_angle_alpha   71.05661790
_cell_angle_beta   56.97637473
_cell_angle_gamma   51.96700737
_symmetry_Int_Tables_number   1
_chemical_formula_structural   Cu2OF2
_chemical_formula_sum   'Cu4 O2 F4'
_cell_volume   158.17538497
_cell_formula_units_Z   2
loop_
 _symmetry_equiv_pos_site_id
 _symmetry_equiv_pos_as_xyz
  1  'x, y, z'
loop_
 _atom_site_type_symbol
 _atom_site_label
 _atom_site_symmetry_multiplicity
 _atom_site_fract_x
 _atom_site_fract_y
 _atom_site_fract_z
 _atom_site_occupancy
  Cu  Cu0  1  0.12500000  0.12500000  0.62500000  1
  Cu  Cu1  1  0.12500000  0.12500000  0.12500000  1
  Cu  Cu2  1  0.12500000  0.62500000  0.12500000  1
  Cu  Cu3  1  0.62500000  0.12500000  0.12500000  1
  O  O0  1  0.25000000  0.25000000  0.25000000  1
  O  O1  1  0.00000000  0.00000000  0.00000000  1
  F  F0  1  0.25667900  0.25667900  0.74332100  1
  F  F1  1  0.50667900  0.50667900  0.99332100  1
  F  F2  1  0.74332100  0.74332100  0.25667900  1
  F  F3  1  0.99332100  0.99332100  0.50667900  1
loop_
_geom_bond_atom_site_label_1
_geom_bond_atom_site_label_2
_geom_bond_distance
_geom_bond_site_symmetry_2
Cu0 O1 1.912756 1_556
Cu0 O0 1.912756 1_555
Cu0 F0 1.958442 1_555
Cu0 F3 1.958442 1_445
Cu1 O1 1.912756 1_555
Cu1 O0 1.912756 1_555
Cu1 F0 1.958442 1_554
Cu1 F3 1.958442 1_445
Cu2 O1 1.912756 1_565
Cu2 O0 1.912756 1_555
Cu2 F1 1.958442 1_554
Cu2 F2 1.958442 1_455
Cu3 O0 1.912756 1_555
Cu3 O1 1.912756 1_655
Cu3 F2 1.958442 1_545
Cu3 F1 1.958442 1_554
