# generated using pymatgen
data_La2ZnO4
_symmetry_space_group_name_H-M   'P 1'
_cell_length_a   3.85060000
_cell_length_b   11.12164300
_cell_length_c   11.44931500
_cell_angle_alpha   90.00000000
_cell_angle_beta   90.00000000
_cell_angle_gamma   90.00000000
_symmetry_Int_Tables_number   1
_chemical_formula_structural   La2ZnO4
_chemical_formula_sum   'La8 Zn4 O16'
_cell_volume   490.31689811
_cell_formula_units_Z   4
loop_
 _symmetry_equiv_pos_site_id
 _symmetry_equiv_pos_as_xyz
  1  'x, y, z'
loop_
 _atom_site_type_symbol
 _atom_site_label
 _atom_site_symmetry_multiplicity
 _atom_site_fract_x
 _atom_site_fract_y
 _atom_site_fract_z
 _atom_site_occupancy
  La  La0  1  0.25000000  0.31213800  0.90242600  1
  La  La1  1  0.25000000  0.90971000  0.88772800  1
  La  La2  1  0.75000000  0.40971000  0.61227200  1
  La  La3  1  0.75000000  0.81213800  0.59757400  1
  La  La4  1  0.25000000  0.18786200  0.40242600  1
  La  La5  1  0.25000000  0.59029000  0.38772800  1
  La  La6  1  0.75000000  0.09029000  0.11227200  1
  La  La7  1  0.75000000  0.68786200  0.09757400  1
  Zn  Zn0  1  0.25000000  0.61859800  0.80992800  1
  Zn  Zn1  1  0.75000000  0.11859800  0.69007200  1
  Zn  Zn2  1  0.25000000  0.88140200  0.30992800  1
  Zn  Zn3  1  0.75000000  0.38140200  0.19007200  1
  O  O0  1  0.25000000  0.11031100  0.98259000  1
  O  O1  1  0.25000000  0.66008100  0.97160100  1
  O  O2  1  0.75000000  0.26534900  0.77729800  1
  O  O3  1  0.25000000  0.46547400  0.74208200  1
  O  O4  1  0.75000000  0.96547400  0.75791800  1
  O  O5  1  0.25000000  0.76534900  0.72270200  1
  O  O6  1  0.75000000  0.16008100  0.52839900  1
  O  O7  1  0.75000000  0.61031100  0.51741000  1
  O  O8  1  0.25000000  0.38968900  0.48259000  1
  O  O9  1  0.25000000  0.83991900  0.47160100  1
  O  O10  1  0.75000000  0.23465100  0.27729800  1
  O  O11  1  0.25000000  0.03452600  0.24208200  1
  O  O12  1  0.75000000  0.53452600  0.25791800  1
  O  O13  1  0.25000000  0.73465100  0.22270200  1
  O  O14  1  0.75000000  0.33991900  0.02839900  1
  O  O15  1  0.75000000  0.88968900  0.01741000  1
loop_
_geom_bond_atom_site_label_1
_geom_bond_atom_site_label_2
_geom_bond_distance
_geom_bond_site_symmetry_2
La0 O0 2.425045 1_555
La0 O14 2.425384 1_456
La0 O14 2.425384 1_556
La0 O2 2.455605 1_455
La0 O2 2.455605 1_555
La0 O3 2.505690 1_555
La1 O15 2.441496 1_456
La1 O15 2.441496 1_556
La1 O5 2.479455 1_555
La1 O0 2.481339 1_565
La1 O4 2.510042 1_455
La1 O4 2.510042 1_555
La1 O1 2.937671 1_555
La2 O8 2.441496 1_555
La2 O8 2.441496 1_655
La2 O2 2.479455 1_555
La2 O7 2.481339 1_555
La2 O3 2.510042 1_555
La2 O3 2.510042 1_655
La2 O6 2.937671 1_555
La3 O7 2.425045 1_555
La3 O9 2.425384 1_555
La3 O9 2.425384 1_655
La3 O5 2.455605 1_555
La3 O5 2.455605 1_655
La3 O4 2.505690 1_555
La4 O8 2.425045 1_555
La4 O6 2.425384 1_555
La4 O6 2.425384 1_455
La4 O10 2.455605 1_455
La4 O10 2.455605 1_555
La4 O11 2.505690 1_555
La5 O7 2.441496 1_555
La5 O7 2.441496 1_455
La5 O13 2.479455 1_555
La5 O8 2.481339 1_555
La5 O12 2.510042 1_555
La5 O12 2.510042 1_455
La5 O9 2.937671 1_555
La6 O0 2.441496 1_654
La6 O0 2.441496 1_554
La6 O10 2.479455 1_555
La6 O15 2.481339 1_545
La6 O11 2.510042 1_555
La6 O11 2.510042 1_655
La6 O14 2.937671 1_555
La7 O15 2.425045 1_555
La7 O1 2.425384 1_654
La7 O1 2.425384 1_554
La7 O13 2.455605 1_655
La7 O13 2.455605 1_555
La7 O12 2.505690 1_555
O1 Zn0 1.907674 1_555
O2 Zn1 1.913413 1_555
O3 Zn0 1.871785 1_555
O4 Zn1 1.871785 1_565
O5 Zn0 1.913413 1_555
O6 Zn1 1.907674 1_555
O9 Zn2 1.907674 1_555
O10 Zn3 1.913413 1_555
O11 Zn2 1.871785 1_545
O12 Zn3 1.871785 1_555
O13 Zn2 1.913413 1_555
O14 Zn3 1.907674 1_555
