# generated using pymatgen
data_Y2CuO4
_symmetry_space_group_name_H-M   'P 1'
_cell_length_a   6.49422028
_cell_length_b   6.49422028
_cell_length_c   6.49422028
_cell_angle_alpha   145.19775843
_cell_angle_beta   145.19775843
_cell_angle_gamma   50.03991717
_symmetry_Int_Tables_number   1
_chemical_formula_structural   Y2CuO4
_chemical_formula_sum   'Y2 Cu1 O4'
_cell_volume   88.78942793
_cell_formula_units_Z   1
loop_
 _symmetry_equiv_pos_site_id
 _symmetry_equiv_pos_as_xyz
  1  'x, y, z'
loop_
 _atom_site_type_symbol
 _atom_site_label
 _atom_site_symmetry_multiplicity
 _atom_site_fract_x
 _atom_site_fract_y
 _atom_site_fract_z
 _atom_site_occupancy
  Y  Y0  1  0.34810800  0.34810800  0.00000000  1
  Y  Y1  1  0.65189200  0.65189200  0.00000000  1
  Cu  Cu0  1  0.00000000  0.00000000  0.00000000  1
  O  O0  1  0.50000000  0.00000000  0.50000000  1
  O  O1  1  0.75000000  0.25000000  0.50000000  1
  O  O2  1  0.00000000  0.50000000  0.50000000  1
  O  O3  1  0.25000000  0.75000000  0.50000000  1
loop_
_geom_bond_atom_site_label_1
_geom_bond_atom_site_label_2
_geom_bond_distance
_geom_bond_site_symmetry_2
Cu0 O0 1.942158 1_454
Cu0 O2 1.942158 1_555
Cu0 O2 1.942158 1_544
Cu0 O0 1.942158 1_555
O0 Y1 2.639675 1_556
O0 Y1 2.639675 1_545
O0 Y0 2.639675 1_545
O0 Y0 2.639675 1_556
O1 Y0 2.259490 1_656
O1 Y0 2.259490 1_555
O1 Y1 2.259490 1_545
O1 Y1 2.259490 1_556
O2 Y1 2.639675 1_556
O2 Y1 2.639675 1_455
O2 Y0 2.639675 1_556
O2 Y0 2.639675 1_455
O3 Y0 2.259490 1_566
O3 Y0 2.259490 1_555
O3 Y1 2.259490 1_556
O3 Y1 2.259490 1_455
