# generated using pymatgen
data_Hf2N2O
_symmetry_space_group_name_H-M   'P 1'
_cell_length_a   8.66571353
_cell_length_b   8.67855104
_cell_length_c   8.66291604
_cell_angle_alpha   109.28511801
_cell_angle_beta   109.43053440
_cell_angle_gamma   109.58379954
_symmetry_Int_Tables_number   1
_chemical_formula_structural   Hf2N2O
_chemical_formula_sum   'Hf16 N16 O8'
_cell_volume   502.22945912
_cell_formula_units_Z   8
loop_
 _symmetry_equiv_pos_site_id
 _symmetry_equiv_pos_as_xyz
  1  'x, y, z'
loop_
 _atom_site_type_symbol
 _atom_site_label
 _atom_site_symmetry_multiplicity
 _atom_site_fract_x
 _atom_site_fract_y
 _atom_site_fract_z
 _atom_site_occupancy
  Hf  Hf0  1  0.75186812  0.96772716  0.20829936  1
  Hf  Hf1  1  0.99565711  0.98866971  0.99014413  1
  Hf  Hf2  1  0.02969587  0.77554522  0.24389218  1
  Hf  Hf3  1  0.52813626  0.27866053  0.25348566  1
  Hf  Hf4  1  0.50208177  0.50249749  0.00303189  1
  Hf  Hf5  1  0.48965003  0.99177686  0.48918161  1
  Hf  Hf6  1  0.25850816  0.54127835  0.28916490  1
  Hf  Hf7  1  0.29651123  0.26614799  0.54695325  1
  Hf  Hf8  1  0.71268307  0.74655699  0.46207703  1
  Hf  Hf9  1  0.78533293  0.25107167  0.04386235  1
  Hf  Hf10  1  0.20688918  0.74777590  0.96055781  1
  Hf  Hf11  1  0.74994753  0.46276339  0.71606716  1
  Hf  Hf12  1  0.00962647  0.49897402  0.50085729  1
  Hf  Hf13  1  0.97303684  0.21685708  0.75027969  1
  Hf  Hf14  1  0.46636987  0.71662026  0.74413161  1
  Hf  Hf15  1  0.24107903  0.02797399  0.78654291  1
  N  N0  1  0.73166801  0.96865344  0.96088444  1
  N  N1  1  0.75697064  0.22613754  0.27434942  1
  N  N2  1  0.45236661  0.48168349  0.22471722  1
  N  N3  1  0.77220467  0.73475004  0.24165284  1
  N  N4  1  0.49307679  0.22904178  0.46045495  1
  N  N5  1  0.22889248  0.27087829  0.76372906  1
  N  N6  1  0.98613064  0.53145242  0.25657947  1
  N  N7  1  0.51305962  0.77703219  0.54533569  1
  N  N8  1  0.95329750  0.72925701  0.96744260  1
  N  N9  1  0.54842908  0.51515260  0.77842700  1
  N  N10  1  0.22477657  0.44944598  0.48400517  1
  N  N11  1  0.27945565  0.76739238  0.22825036  1
  N  N12  1  0.96157049  0.95050257  0.72574378  1
  N  N13  1  0.24033186  0.77311835  0.72460104  1
  N  N14  1  0.00645934  0.46282307  0.73733406  1
  N  N15  1  0.27239692  0.03746557  0.04303360  1
  O  O0  1  0.53925030  0.26432132  0.98359044  1
  O  O1  1  0.73898318  0.01672782  0.46967145  1
  O  O2  1  0.04127119  0.27320620  0.02762166  1
  O  O3  1  0.72483430  0.23501527  0.77516026  1
  O  O4  1  0.77297963  0.54959563  0.51636671  1
  O  O5  1  0.03709077  0.04794223  0.27641001  1
  O  O6  1  0.46611348  0.73920688  0.01458866  1
  O  O7  1  0.26131578  0.98830232  0.53151828  1
loop_
_geom_bond_atom_site_label_1
_geom_bond_atom_site_label_2
_geom_bond_distance
_geom_bond_site_symmetry_2
Hf0 N0 2.094586 1_554
Hf0 N1 2.104238 1_565
Hf0 O5 2.132318 1_665
Hf0 O6 2.150789 1_555
Hf0 N3 2.189410 1_555
Hf0 O1 2.210007 1_565
Hf1 N8 2.085044 1_555
Hf1 N12 2.103897 1_555
Hf1 N15 2.144845 1_666
Hf1 N0 2.155575 1_555
Hf1 O5 2.232614 1_666
Hf1 O2 2.256131 1_666
Hf2 N6 2.070600 1_455
Hf2 N8 2.113384 1_454
Hf2 N3 2.131126 1_455
Hf2 O7 2.189891 1_555
Hf2 N11 2.235893 1_555
Hf2 O5 2.262425 1_565
Hf3 N4 2.068125 1_555
Hf3 N15 2.073174 1_555
Hf3 N2 2.134105 1_555
Hf3 N1 2.143523 1_555
Hf3 O4 2.262852 1_555
Hf3 O0 2.336032 1_554
Hf4 N9 2.142607 1_554
Hf4 N2 2.152618 1_555
Hf4 O6 2.154403 1_555
Hf4 O0 2.158043 1_554
Hf4 N3 2.163494 1_555
Hf4 N5 2.175953 1_554
Hf5 N11 2.048090 1_555
Hf5 O7 2.121492 1_555
Hf5 N7 2.130188 1_555
Hf5 N4 2.145966 1_565
Hf5 O1 2.167339 1_565
Hf5 O3 2.247115 1_565
Hf6 N2 2.101683 1_555
Hf6 N10 2.151792 1_555
Hf6 N11 2.161283 1_555
Hf6 N7 2.166833 1_555
Hf6 O2 2.198704 1_555
Hf6 N6 2.250346 1_455
Hf7 N10 2.055403 1_555
Hf7 N9 2.125856 1_555
Hf7 N5 2.137501 1_555
Hf7 N4 2.150407 1_555
Hf7 O5 2.200415 1_555
Hf7 O7 2.278627 1_545
Hf8 O4 2.093396 1_555
Hf8 N3 2.117612 1_555
Hf8 N12 2.120032 1_555
Hf8 N7 2.143242 1_555
Hf8 N2 2.217306 1_555
Hf8 O1 2.254717 1_565
Hf9 O0 2.072815 1_554
Hf9 N6 2.100208 1_555
Hf9 N0 2.142433 1_544
Hf9 O3 2.153485 1_554
Hf9 N1 2.161077 1_555
Hf9 O2 2.217109 1_655
Hf10 N11 2.121179 1_556
Hf10 N14 2.144516 1_555
Hf10 O6 2.169376 1_556
Hf10 N8 2.171496 1_455
Hf10 N15 2.177217 1_566
Hf10 N13 2.226870 1_555
Hf11 N9 2.132088 1_555
Hf11 N8 2.141114 1_555
Hf11 O4 2.142570 1_555
Hf11 O3 2.161060 1_555
Hf11 N4 2.167834 1_555
Hf11 N14 2.168349 1_655
Hf12 N10 2.087830 1_555
Hf12 N13 2.145092 1_555
Hf12 N6 2.178263 1_455
Hf12 N14 2.179916 1_555
Hf12 N1 2.201787 1_455
Hf12 O4 2.272611 1_455
Hf13 N5 2.060205 1_655
Hf13 N14 2.101995 1_655
Hf13 O2 2.108575 1_656
Hf13 O1 2.146827 1_555
Hf13 N12 2.214914 1_545
Hf13 O3 2.282691 1_555
Hf14 N7 2.078984 1_555
Hf14 N13 2.141030 1_555
Hf14 N0 2.153924 1_555
Hf14 N9 2.164960 1_555
Hf14 N10 2.234502 1_555
Hf14 O6 2.286531 1_556
Hf15 N13 2.093819 1_545
Hf15 N12 2.102814 1_445
Hf15 N15 2.116705 1_556
Hf15 O7 2.196798 1_545
Hf15 N5 2.214648 1_555
Hf15 O0 2.235455 1_555
