# generated using pymatgen
data_LiMn2O2F3
_symmetry_space_group_name_H-M   'P 1'
_cell_length_a   6.12568801
_cell_length_b   6.12568801
_cell_length_c   6.87441999
_cell_angle_alpha   72.11272447
_cell_angle_beta   72.11272447
_cell_angle_gamma   48.06041898
_symmetry_Int_Tables_number   1
_chemical_formula_structural   LiMn2O2F3
_chemical_formula_sum   'Li2 Mn4 O4 F6'
_cell_volume   180.70513890
_cell_formula_units_Z   2
loop_
 _symmetry_equiv_pos_site_id
 _symmetry_equiv_pos_as_xyz
  1  'x, y, z'
loop_
 _atom_site_type_symbol
 _atom_site_label
 _atom_site_symmetry_multiplicity
 _atom_site_fract_x
 _atom_site_fract_y
 _atom_site_fract_z
 _atom_site_occupancy
  Li  Li0  1  0.49235200  0.51367300  0.75094300  1
  Li  Li1  1  0.48632700  0.50764800  0.24905700  1
  Mn  Mn0  1  0.78630400  0.84336300  0.61212300  1
  Mn  Mn1  1  0.83843100  0.78794800  0.11309900  1
  Mn  Mn2  1  0.15663700  0.21369600  0.38787700  1
  Mn  Mn3  1  0.21205200  0.16156900  0.88690100  1
  O  O0  1  0.98403000  0.62436800  0.37712300  1
  O  O1  1  0.62104200  0.98281600  0.87876900  1
  O  O2  1  0.37563200  0.01597000  0.62287700  1
  O  O3  1  0.01718400  0.37895800  0.12123100  1
  F  F0  1  0.21688500  0.78311500  0.00000000  1
  F  F1  1  0.58676300  0.17389800  0.19466700  1
  F  F2  1  0.17259200  0.58730600  0.69383700  1
  F  F3  1  0.82610200  0.41323700  0.80533300  1
  F  F4  1  0.41269400  0.82740800  0.30616300  1
  F  F5  1  0.78727100  0.21272900  0.50000000  1
loop_
_geom_bond_atom_site_label_1
_geom_bond_atom_site_label_2
_geom_bond_distance
_geom_bond_site_symmetry_2
Li0 O2 2.556493 1_565
Li1 O0 2.556493 1_455
Mn0 O1 1.944381 1_555
Mn0 O2 1.957098 1_565
Mn0 O0 1.958018 1_555
Mn1 O3 1.939966 1_655
Mn1 O0 1.943296 1_555
Mn1 O1 1.950611 1_554
Mn2 O3 1.944381 1_555
Mn2 O0 1.957098 1_455
Mn2 O2 1.958018 1_555
Mn3 O1 1.939966 1_545
Mn3 O2 1.943296 1_555
Mn3 O3 1.950611 1_556
F0 Li1 2.177453 1_555
F0 Li0 2.177453 1_554
F0 Mn1 2.189751 1_455
F0 Mn3 2.189751 1_564
F1 Li1 1.828942 1_555
F1 Mn1 1.921450 1_545
F1 Mn2 2.440567 1_555
F2 Li0 1.837629 1_555
F2 Mn0 1.920716 1_455
F2 Mn3 2.418558 1_555
F3 Li0 1.828942 1_555
F3 Mn3 1.921450 1_655
F3 Mn0 2.440567 1_555
F4 Li1 1.837629 1_555
F4 Mn2 1.920716 1_565
F4 Mn1 2.418558 1_555
F5 Mn2 2.158098 1_655
F5 Mn0 2.158098 1_545
F5 Li1 2.285932 1_555
F5 Li0 2.285932 1_555
