# generated using pymatgen
data_Li6Fe(O2F)2
_symmetry_space_group_name_H-M   'P 1'
_cell_length_a   5.49937936
_cell_length_b   5.66142451
_cell_length_c   9.75054187
_cell_angle_alpha   87.44587887
_cell_angle_beta   105.10020866
_cell_angle_gamma   63.56619018
_symmetry_Int_Tables_number   1
_chemical_formula_structural   Li6Fe(O2F)2
_chemical_formula_sum   'Li12 Fe2 O8 F4'
_cell_volume   257.88697551
_cell_formula_units_Z   2
loop_
 _symmetry_equiv_pos_site_id
 _symmetry_equiv_pos_as_xyz
  1  'x, y, z'
loop_
 _atom_site_type_symbol
 _atom_site_label
 _atom_site_symmetry_multiplicity
 _atom_site_fract_x
 _atom_site_fract_y
 _atom_site_fract_z
 _atom_site_occupancy
  Li  Li0  1  0.72103900  0.81451500  0.25213000  1
  Li  Li1  1  0.72105100  0.31449800  0.75213400  1
  Li  Li2  1  0.27896200  0.18548300  0.74787000  1
  Li  Li3  1  0.27895100  0.68550000  0.24786600  1
  Li  Li4  1  0.49579500  0.29303600  0.45585800  1
  Li  Li5  1  0.49579400  0.79305100  0.95585300  1
  Li  Li6  1  0.50420500  0.70696200  0.54414300  1
  Li  Li7  1  0.50420700  0.20694600  0.04414800  1
  Li  Li8  1  0.91582000  0.17036000  0.34801000  1
  Li  Li9  1  0.91581400  0.67036800  0.84801500  1
  Li  Li10  1  0.08418300  0.82963900  0.65199100  1
  Li  Li11  1  0.08418900  0.32962900  0.15198600  1
  Fe  Fe0  1  0.99999300  0.50001800  0.49999900  1
  Fe  Fe1  1  0.99999400  0.00000600  0.99999800  1
  O  O0  1  0.34568900  0.98079100  0.10413100  1
  O  O1  1  0.34572100  0.48078900  0.60413600  1
  O  O2  1  0.65430700  0.01920800  0.89586700  1
  O  O3  1  0.65428300  0.51921000  0.39586500  1
  O  O4  1  0.89805400  0.03424200  0.16982000  1
  O  O5  1  0.89802800  0.53426200  0.66983000  1
  O  O6  1  0.10194800  0.96575400  0.83018000  1
  O  O7  1  0.10197100  0.46573800  0.33017100  1
  F  F0  1  0.77931000  0.94827000  0.44341600  1
  F  F1  1  0.77933100  0.44823400  0.94341200  1
  F  F2  1  0.22069200  0.05172800  0.55658600  1
  F  F3  1  0.22067100  0.55176300  0.05658800  1
loop_
_geom_bond_atom_site_label_1
_geom_bond_atom_site_label_2
_geom_bond_distance
_geom_bond_site_symmetry_2
Li0 O0 1.956119 1_555
Li0 O7 2.054075 1_655
Li0 O4 2.129661 1_565
Li0 O3 2.345148 1_555
Li1 O1 1.956041 1_555
Li1 O6 2.053891 1_645
Li1 O5 2.129624 1_555
Li1 O2 2.345031 1_555
Li2 O2 1.956092 1_555
Li2 O5 2.054086 1_455
Li2 O6 2.129665 1_545
Li2 O1 2.345157 1_555
Li3 O3 1.956053 1_555
Li3 O4 2.053886 1_465
Li3 O7 2.129634 1_555
Li3 O0 2.345026 1_555
Li4 O7 1.942546 1_555
Li4 O1 1.969498 1_555
Li4 O3 1.983421 1_555
Li5 O6 1.942591 1_555
Li5 O0 1.969533 1_556
Li5 O2 1.983426 1_565
Li6 O5 1.942542 1_555
Li6 O3 1.969504 1_555
Li6 O1 1.983399 1_555
Li7 O4 1.942591 1_555
Li7 O2 1.969544 1_554
Li7 O0 1.983427 1_545
Li8 O4 1.928745 1_555
Li8 O3 2.022305 1_555
Li8 O7 2.337888 1_655
Li9 O5 1.928668 1_555
Li9 O2 2.022198 1_565
Li9 O6 2.337850 1_655
Li10 O6 1.928728 1_555
Li10 O1 2.022307 1_555
Li10 O5 2.337900 1_455
Li11 O7 1.928676 1_555
Li11 O0 2.022191 1_545
Li11 O4 2.337858 1_455
Fe0 O3 1.859509 1_555
Fe0 O1 1.859514 1_655
Fe0 O5 1.873443 1_555
Fe0 O7 1.873452 1_655
Fe1 O2 1.859369 1_555
Fe1 O0 1.859381 1_646
Fe1 O4 1.873292 1_556
Fe1 O6 1.873292 1_645
F0 Li4 1.914582 1_565
F0 Li8 2.027286 1_565
F0 Li0 2.045821 1_555
F0 Li10 2.120682 1_655
F0 Fe0 2.236445 1_555
F1 Li5 1.914815 1_555
F1 Li9 2.027317 1_555
F1 Li1 2.045704 1_555
F1 Li11 2.120653 1_656
F1 Fe1 2.236330 1_555
F2 Li6 1.914581 1_545
F2 Li10 2.027272 1_545
F2 Li2 2.045803 1_555
F2 Li8 2.120686 1_455
F2 Fe0 2.236634 1_455
F3 Li7 1.914809 1_555
F3 Li11 2.027317 1_555
F3 Li3 2.045707 1_555
F3 Li9 2.120644 1_454
F3 Fe1 2.236405 1_464
