# generated using pymatgen
data_UI2O9
_symmetry_space_group_name_H-M   'P 1'
_cell_length_a   7.91089200
_cell_length_b   8.38505300
_cell_length_c   12.41948000
_cell_angle_alpha   90.00000000
_cell_angle_beta   90.00000000
_cell_angle_gamma   90.00000000
_symmetry_Int_Tables_number   1
_chemical_formula_structural   UI2O9
_chemical_formula_sum   'U4 I8 O36'
_cell_volume   823.82445553
_cell_formula_units_Z   4
loop_
 _symmetry_equiv_pos_site_id
 _symmetry_equiv_pos_as_xyz
  1  'x, y, z'
loop_
 _atom_site_type_symbol
 _atom_site_label
 _atom_site_symmetry_multiplicity
 _atom_site_fract_x
 _atom_site_fract_y
 _atom_site_fract_z
 _atom_site_occupancy
  U  U0  1  0.42561500  0.50000000  0.25000000  1
  U  U1  1  0.07438500  0.00000000  0.75000000  1
  U  U2  1  0.57438500  0.50000000  0.75000000  1
  U  U3  1  0.92561500  0.00000000  0.25000000  1
  I  I0  1  0.60035700  0.81699100  0.46005900  1
  I  I1  1  0.89964300  0.68300900  0.96005900  1
  I  I2  1  0.89964300  0.31699100  0.53994100  1
  I  I3  1  0.60035700  0.18300900  0.03994100  1
  I  I4  1  0.39964300  0.18300900  0.53994100  1
  I  I5  1  0.10035700  0.31699100  0.03994100  1
  I  I6  1  0.10035700  0.68300900  0.46005900  1
  I  I7  1  0.39964300  0.81699100  0.96005900  1
  O  O0  1  0.43819300  0.68188200  0.16882700  1
  O  O1  1  0.06180700  0.81811800  0.66882700  1
  O  O2  1  0.06180700  0.18188200  0.83117300  1
  O  O3  1  0.43819300  0.31811800  0.33117300  1
  O  O4  1  0.56180700  0.31811800  0.83117300  1
  O  O5  1  0.93819300  0.18188200  0.33117300  1
  O  O6  1  0.93819300  0.81811800  0.16882700  1
  O  O7  1  0.56180700  0.68188200  0.66882700  1
  O  O8  1  0.72931900  0.50000000  0.25000000  1
  O  O9  1  0.77068100  0.00000000  0.75000000  1
  O  O10  1  0.27068100  0.50000000  0.75000000  1
  O  O11  1  0.22931900  0.00000000  0.25000000  1
  O  O12  1  0.53430800  0.62142100  0.40293800  1
  O  O13  1  0.96569200  0.87857900  0.90293800  1
  O  O14  1  0.96569200  0.12142100  0.59706200  1
  O  O15  1  0.53430800  0.37857900  0.09706200  1
  O  O16  1  0.46569200  0.37857900  0.59706200  1
  O  O17  1  0.03430800  0.12142100  0.09706200  1
  O  O18  1  0.03430800  0.87857900  0.40293800  1
  O  O19  1  0.46569200  0.62142100  0.90293800  1
  O  O20  1  0.38224300  0.89322400  0.46248100  1
  O  O21  1  0.11775700  0.60677600  0.96248100  1
  O  O22  1  0.11775700  0.39322400  0.53751900  1
  O  O23  1  0.38224300  0.10677600  0.03751900  1
  O  O24  1  0.61775700  0.10677600  0.53751900  1
  O  O25  1  0.88224300  0.39322400  0.03751900  1
  O  O26  1  0.88224300  0.60677600  0.46248100  1
  O  O27  1  0.61775700  0.89322400  0.96248100  1
  O  O28  1  0.68271600  0.90410700  0.33594600  1
  O  O29  1  0.81728400  0.59589300  0.83594600  1
  O  O30  1  0.81728400  0.40410700  0.66405400  1
  O  O31  1  0.68271600  0.09589300  0.16405400  1
  O  O32  1  0.31728400  0.09589300  0.66405400  1
  O  O33  1  0.18271600  0.40410700  0.16405400  1
  O  O34  1  0.18271600  0.59589300  0.33594600  1
  O  O35  1  0.31728400  0.90410700  0.83594600  1
loop_
_geom_bond_atom_site_label_1
_geom_bond_atom_site_label_2
_geom_bond_distance
_geom_bond_site_symmetry_2
I0 O28 1.825940 1_555
I0 O20 1.840319 1_555
I0 O12 1.861568 1_555
I1 O29 1.825940 1_555
I1 O21 1.840319 1_655
I1 O13 1.861568 1_555
I2 O30 1.825940 1_555
I2 O22 1.840319 1_655
I2 O14 1.861568 1_555
I3 O31 1.825940 1_555
I3 O23 1.840319 1_555
I3 O15 1.861568 1_555
I4 O32 1.825940 1_555
I4 O24 1.840319 1_555
I4 O16 1.861568 1_555
I5 O33 1.825940 1_555
I5 O25 1.840319 1_455
I5 O17 1.861568 1_555
I6 O34 1.825940 1_555
I6 O26 1.840319 1_455
I6 O18 1.861568 1_555
I7 O35 1.825940 1_555
I7 O27 1.840319 1_555
I7 O19 1.861568 1_555
O0 U0 1.830880 1_555
O1 U1 1.830880 1_565
O2 U1 1.830880 1_555
O3 U0 1.830880 1_555
O4 U2 1.830880 1_555
O5 U3 1.830880 1_555
O6 U3 1.830880 1_565
O7 U2 1.830880 1_555
O8 U0 2.402570 1_555
O9 U1 2.402570 1_655
O10 U2 2.402570 1_555
O11 U3 2.402570 1_455
O12 U0 2.320278 1_555
O13 U1 2.320278 1_665
O14 U1 2.320278 1_655
O15 U0 2.320278 1_555
O16 U2 2.320278 1_555
O17 U3 2.320278 1_455
O18 U3 2.320278 1_465
O19 U2 2.320278 1_555
O28 U3 2.340561 1_565
O29 U2 2.340561 1_555
O30 U2 2.340561 1_555
O31 U3 2.340561 1_555
O32 U1 2.340561 1_555
O33 U0 2.340561 1_555
O34 U0 2.340561 1_555
O35 U1 2.340561 1_565
