# generated using pymatgen
data_Li2Fe2Ni(PO4)3
_symmetry_space_group_name_H-M   'P 1'
_cell_length_a   8.35191735
_cell_length_b   8.44370947
_cell_length_c   8.44370917
_cell_angle_alpha   63.70482115
_cell_angle_beta   63.94258678
_cell_angle_gamma   63.94258440
_symmetry_Int_Tables_number   1
_chemical_formula_structural   Li2Fe2Ni(PO4)3
_chemical_formula_sum   'Li4 Fe4 Ni2 P6 O24'
_cell_volume   456.91481595
_cell_formula_units_Z   2
loop_
 _symmetry_equiv_pos_site_id
 _symmetry_equiv_pos_as_xyz
  1  'x, y, z'
loop_
 _atom_site_type_symbol
 _atom_site_label
 _atom_site_symmetry_multiplicity
 _atom_site_fract_x
 _atom_site_fract_y
 _atom_site_fract_z
 _atom_site_occupancy
  Li  Li0  1  0.75000000  0.14192000  0.35808000  1
  Li  Li1  1  0.25000000  0.84781900  0.65218100  1
  Li  Li2  1  0.64947600  0.24946200  0.84974300  1
  Li  Li3  1  0.85052400  0.65025700  0.25053800  1
  Fe  Fe0  1  0.14697800  0.14640000  0.14192400  1
  Fe  Fe1  1  0.35302200  0.35807600  0.35360000  1
  Fe  Fe2  1  0.65192800  0.65242800  0.65418600  1
  Fe  Fe3  1  0.84807200  0.84581400  0.84757200  1
  Ni  Ni0  1  0.00587100  0.99831500  0.99552500  1
  Ni  Ni1  1  0.49412900  0.50447500  0.50168500  1
  P  P0  1  0.06128600  0.74770100  0.44086100  1
  P  P1  1  0.43871400  0.05913900  0.75229900  1
  P  P2  1  0.75000000  0.44192400  0.05807600  1
  P  P3  1  0.25000000  0.54598600  0.95401400  1
  P  P4  1  0.55280400  0.95557500  0.25202700  1
  P  P5  1  0.94719600  0.24797300  0.54442500  1
  O  O0  1  0.11293600  0.31440500  0.48741200  1
  O  O1  1  0.32542200  0.50159200  0.10867500  1
  O  O2  1  0.06367300  0.91068200  0.25220700  1
  O  O3  1  0.53172800  0.10730300  0.32006400  1
  O  O4  1  0.03293100  0.81305800  0.59722100  1
  O  O5  1  0.25591700  0.59424500  0.42351400  1
  O  O6  1  0.24408300  0.07648600  0.90575500  1
  O  O7  1  0.43632700  0.24779300  0.58931800  1
  O  O8  1  0.17457800  0.39132500  0.99840800  1
  O  O9  1  0.60038300  0.41909200  0.25760600  1
  O  O10  1  0.10066700  0.74308600  0.93624800  1
  O  O11  1  0.38706400  0.01258800  0.18559500  1
  O  O12  1  0.59580300  0.02836300  0.81971600  1
  O  O13  1  0.89961700  0.24239400  0.08090800  1
  O  O14  1  0.39933300  0.56375200  0.75691400  1
  O  O15  1  0.81641000  0.59581000  0.03127100  1
  O  O16  1  0.56242200  0.76000000  0.40182800  1
  O  O17  1  0.74885600  0.93140000  0.09954200  1
  O  O18  1  0.75114400  0.40045800  0.56860000  1
  O  O19  1  0.96827200  0.17993600  0.39269700  1
  O  O20  1  0.46706900  0.90277900  0.68694200  1
  O  O21  1  0.93757800  0.09817200  0.74000000  1
  O  O22  1  0.68359000  0.46872900  0.90419000  1
  O  O23  1  0.90419700  0.68028400  0.47163700  1
loop_
_geom_bond_atom_site_label_1
_geom_bond_atom_site_label_2
_geom_bond_distance
_geom_bond_site_symmetry_2
Li0 O9 2.088403 1_555
Li0 O13 2.088404 1_555
Li0 O3 2.139423 1_555
Li0 O19 2.139423 1_555
Li0 O2 2.543568 1_645
Li0 O7 2.543568 1_555
Li1 O14 2.133601 1_555
Li1 O10 2.133601 1_555
Li1 O4 2.217110 1_555
Li1 O20 2.217110 1_555
Li1 O21 2.582640 1_465
Li1 O16 2.582640 1_555
Li2 O18 2.116730 1_555
Li2 O21 2.160970 1_555
Li2 O12 2.237182 1_555
Li2 O22 2.247877 1_555
Li2 O14 2.597390 1_555
Li3 O17 2.116730 1_555
Li3 O16 2.160970 1_555
Li3 O23 2.237182 1_555
Li3 O15 2.247877 1_555
Li3 O10 2.597390 1_654
Fe0 O11 1.929601 1_555
Fe0 O8 1.936896 1_554
Fe0 O19 2.043249 1_455
Fe0 O6 2.045574 1_554
Fe0 O13 2.069898 1_455
Fe0 O2 2.077966 1_545
Fe1 O0 1.929601 1_555
Fe1 O1 1.936896 1_555
Fe1 O3 2.043249 1_555
Fe1 O5 2.045574 1_555
Fe1 O9 2.069898 1_555
Fe1 O7 2.077966 1_555
Fe2 O23 2.032576 1_555
Fe2 O22 2.039866 1_555
Fe2 O20 2.050439 1_555
Fe2 O14 2.228973 1_555
Fe2 O16 2.238843 1_555
Fe2 O18 2.241131 1_555
Fe3 O12 2.032576 1_565
Fe3 O15 2.039866 1_556
Fe3 O4 2.050439 1_655
Fe3 O10 2.228973 1_655
Fe3 O21 2.238843 1_565
Fe3 O17 2.241131 1_556
Ni0 O6 2.086619 1_565
Ni0 O10 2.151802 1_555
Ni0 O2 2.159278 1_556
Ni0 O17 2.160537 1_456
Ni0 O13 2.168477 1_466
Ni0 O21 2.176756 1_465
Ni1 O5 2.086619 1_555
Ni1 O14 2.151802 1_555
Ni1 O7 2.159279 1_555
Ni1 O18 2.160537 1_555
Ni1 O9 2.168477 1_555
Ni1 O16 2.176756 1_555
O0 P5 1.523156 1_455
O1 P3 1.524554 1_554
O2 P0 1.576598 1_555
O3 P4 1.538662 1_545
O4 P0 1.536142 1_555
O5 P0 1.565662 1_555
O6 P1 1.565662 1_555
O7 P1 1.576598 1_555
O8 P3 1.524554 1_555
O9 P2 1.584739 1_555
O10 P3 1.570795 1_555
O11 P4 1.523156 1_545
O12 P1 1.529200 1_555
O13 P2 1.584739 1_555
O14 P3 1.570795 1_555
O15 P2 1.519715 1_555
O16 P4 1.567000 1_555
O17 P4 1.570853 1_555
O18 P5 1.570853 1_555
O19 P5 1.538662 1_555
O20 P1 1.536142 1_565
O21 P5 1.567000 1_555
O22 P2 1.519715 1_556
O23 P0 1.529200 1_655
