# generated using pymatgen
data_Li4Mn3Sn(PO4)4
_symmetry_space_group_name_H-M   'P 1'
_cell_length_a   7.94030328
_cell_length_b   10.85013383
_cell_length_c   7.94020806
_cell_angle_alpha   89.83540022
_cell_angle_beta   75.13709230
_cell_angle_gamma   90.16563770
_symmetry_Int_Tables_number   1
_chemical_formula_structural   Li4Mn3Sn(PO4)4
_chemical_formula_sum   'Li8 Mn6 Sn2 P8 O32'
_cell_volume   661.18059677
_cell_formula_units_Z   2
loop_
 _symmetry_equiv_pos_site_id
 _symmetry_equiv_pos_as_xyz
  1  'x, y, z'
loop_
 _atom_site_type_symbol
 _atom_site_label
 _atom_site_symmetry_multiplicity
 _atom_site_fract_x
 _atom_site_fract_y
 _atom_site_fract_z
 _atom_site_occupancy
  Li  Li0  1  0.50188000  0.99013900  0.50302300  1
  Li  Li1  1  0.00187900  0.99015300  0.00306900  1
  Li  Li2  1  0.74692900  0.99015300  0.74812200  1
  Li  Li3  1  0.24697700  0.99014100  0.24811700  1
  Li  Li4  1  0.49929800  0.51163100  0.99496700  1
  Li  Li5  1  0.99929300  0.51162800  0.49498500  1
  Li  Li6  1  0.25501600  0.51162700  0.75070300  1
  Li  Li7  1  0.75503000  0.51163400  0.25070100  1
  Mn  Mn0  1  0.11151300  0.21403600  0.63848100  1
  Mn  Mn1  1  0.39347200  0.78516000  0.85653500  1
  Mn  Mn2  1  0.89346400  0.78517600  0.35652700  1
  Mn  Mn3  1  0.38946900  0.72384800  0.36052100  1
  Mn  Mn4  1  0.88946300  0.72388900  0.86054800  1
  Mn  Mn5  1  0.61151200  0.21412200  0.13849500  1
  Sn  Sn0  1  0.61510600  0.28366800  0.63489200  1
  Sn  Sn1  1  0.11510600  0.28366400  0.13489400  1
  P  P0  1  0.17317100  0.60421700  0.07682800  1
  P  P1  1  0.67317100  0.60421500  0.57681600  1
  P  P2  1  0.33632700  0.07472100  0.91373800  1
  P  P3  1  0.83626600  0.07472800  0.41369000  1
  P  P4  1  0.67097800  0.90698000  0.07902000  1
  P  P5  1  0.17098800  0.90696600  0.57901300  1
  P  P6  1  0.81728900  0.41486000  0.93271300  1
  P  P7  1  0.31728500  0.41486600  0.43271600  1
  O  O0  1  0.23831000  0.47264300  0.01168400  1
  O  O1  1  0.73834500  0.47265300  0.51165600  1
  O  O2  1  0.47409800  0.39596800  0.27590100  1
  O  O3  1  0.97409800  0.39596800  0.77590000  1
  O  O4  1  0.51194600  0.90170800  0.23805400  1
  O  O5  1  0.01195500  0.90169400  0.73804500  1
  O  O6  1  0.26399600  0.94600400  0.98618200  1
  O  O7  1  0.76381700  0.94600800  0.48600500  1
  O  O8  1  0.73199300  0.04021400  0.01800600  1
  O  O9  1  0.23200200  0.04020200  0.51799600  1
  O  O10  1  0.49439000  0.06442800  0.75561600  1
  O  O11  1  0.99438100  0.06442800  0.25561700  1
  O  O12  1  0.51402100  0.60384600  0.73597300  1
  O  O13  1  0.01402500  0.60385300  0.23597500  1
  O  O14  1  0.77015000  0.55204300  0.97984900  1
  O  O15  1  0.27019600  0.55206100  0.47980200  1
  O  O16  1  0.13736000  0.67062800  0.91357500  1
  O  O17  1  0.63735400  0.67062800  0.41357600  1
  O  O18  1  0.33642100  0.67062500  0.11263900  1
  O  O19  1  0.83638100  0.67067000  0.61266800  1
  O  O20  1  0.17939800  0.14544800  0.87035300  1
  O  O21  1  0.67938600  0.14552100  0.37027900  1
  O  O22  1  0.37972400  0.14552100  0.07061900  1
  O  O23  1  0.87965800  0.14544800  0.57063500  1
  O  O24  1  0.63780500  0.83835300  0.91554100  1
  O  O25  1  0.13781800  0.83834800  0.41553400  1
  O  O26  1  0.83445800  0.83835500  0.11219400  1
  O  O27  1  0.33446500  0.83834700  0.61218100  1
  O  O28  1  0.64573600  0.35154100  0.91014700  1
  O  O29  1  0.14573600  0.35154200  0.41015100  1
  O  O30  1  0.83985100  0.35154200  0.10426200  1
  O  O31  1  0.33984800  0.35154200  0.60426300  1
loop_
_geom_bond_atom_site_label_1
_geom_bond_atom_site_label_2
_geom_bond_distance
_geom_bond_site_symmetry_2
Li0 O7 2.106015 1_555
Li0 O27 2.149159 1_555
Li0 O10 2.150399 1_565
Li0 O9 2.185788 1_565
Li0 O21 2.270185 1_565
Li0 O4 2.297654 1_555
Li1 O6 2.107645 1_554
Li1 O26 2.149170 1_455
Li1 O11 2.149997 1_465
Li1 O8 2.185900 1_465
Li1 O20 2.269471 1_564
Li1 O5 2.298162 1_554
Li2 O7 2.107601 1_555
Li2 O24 2.149177 1_555
Li2 O10 2.149973 1_565
Li2 O8 2.185852 1_566
Li2 O23 2.269375 1_565
Li2 O5 2.298213 1_655
Li3 O6 2.105981 1_554
Li3 O25 2.149179 1_555
Li3 O11 2.150432 1_465
Li3 O9 2.185753 1_565
Li3 O22 2.270144 1_565
Li3 O4 2.297706 1_555
Li4 O0 2.084367 1_556
Li4 O28 2.106993 1_555
Li4 O14 2.166508 1_555
Li4 O18 2.218972 1_556
Li4 O12 2.260084 1_555
Li4 O2 2.518799 1_556
Li5 O1 2.084099 1_555
Li5 O29 2.106996 1_655
Li5 O15 2.166846 1_655
Li5 O19 2.219535 1_555
Li5 O13 2.260232 1_655
Li5 O3 2.518659 1_555
Li6 O0 2.084304 1_556
Li6 O31 2.106960 1_555
Li6 O15 2.166820 1_555
Li6 O16 2.218968 1_555
Li6 O12 2.260178 1_555
Li6 O3 2.518677 1_455
Li7 O1 2.084128 1_555
Li7 O30 2.107003 1_555
Li7 O14 2.166480 1_554
Li7 O17 2.218964 1_555
Li7 O13 2.260112 1_655
Li7 O2 2.518807 1_555
Mn0 O23 2.176345 1_455
Mn0 O20 2.176609 1_555
Mn0 O9 2.222443 1_555
Mn0 O29 2.305662 1_555
Mn0 O31 2.305694 1_555
Mn0 O3 2.385748 1_455
Mn1 O6 2.154082 1_555
Mn1 O24 2.185843 1_555
Mn1 O27 2.185979 1_555
Mn1 O12 2.292258 1_555
Mn1 O18 2.322586 1_556
Mn1 O16 2.322629 1_555
Mn2 O7 2.153981 1_555
Mn2 O26 2.185795 1_555
Mn2 O25 2.185944 1_655
Mn2 O13 2.292347 1_655
Mn2 O19 2.322653 1_555
Mn2 O17 2.322706 1_555
Mn3 O15 2.188062 1_555
Mn3 O18 2.194377 1_555
Mn3 O17 2.194446 1_555
Mn3 O4 2.260248 1_555
Mn3 O25 2.301446 1_555
Mn3 O27 2.301466 1_555
Mn4 O14 2.188758 1_555
Mn4 O19 2.194464 1_555
Mn4 O16 2.194561 1_655
Mn4 O5 2.259869 1_655
Mn4 O26 2.301180 1_556
Mn4 O24 2.301285 1_555
Mn5 O21 2.175982 1_555
Mn5 O22 2.176021 1_555
Mn5 O8 2.223116 1_555
Mn5 O30 2.305107 1_555
Mn5 O28 2.305161 1_554
Mn5 O2 2.384935 1_555
O0 P0 1.563447 1_555
O0 Sn1 2.367350 1_555
O1 P1 1.563428 1_555
O1 Sn0 2.367554 1_555
O2 P7 1.533096 1_555
O3 P6 1.533058 1_555
O4 P4 1.540630 1_555
O5 P5 1.540625 1_555
O6 P2 1.559641 1_565
O7 P3 1.559646 1_565
O8 P4 1.559076 1_545
O9 P5 1.559100 1_545
O10 P2 1.535327 1_555
O10 Sn0 2.645485 1_555
O11 P3 1.535347 1_555
O11 Sn1 2.645463 1_655
O12 P1 1.540991 1_555
O13 P0 1.540924 1_555
O14 P6 1.558918 1_555
O15 P7 1.558899 1_555
O16 P0 1.570122 1_556
O17 P1 1.570061 1_555
O18 P0 1.570085 1_555
O19 P1 1.570170 1_555
O20 P2 1.576219 1_555
O20 Sn1 2.528667 1_556
O21 P3 1.576326 1_555
O21 Sn0 2.528668 1_555
O22 P2 1.576298 1_554
O22 Sn1 2.528710 1_555
O23 P3 1.576288 1_555
O23 Sn0 2.528800 1_555
O24 P4 1.577532 1_556
O25 P5 1.577477 1_555
O26 P4 1.577557 1_555
O27 P5 1.577488 1_555
O28 P6 1.574850 1_555
O28 Sn0 2.378899 1_555
O29 P7 1.574843 1_555
O29 Sn1 2.378931 1_555
O30 P6 1.574805 1_554
O30 Sn1 2.378959 1_655
O31 P7 1.574821 1_555
O31 Sn0 2.378960 1_555
