# generated using pymatgen
data_CrSn3(PO4)6
_symmetry_space_group_name_H-M   'P 1'
_cell_length_a   8.95871257
_cell_length_b   8.95871257
_cell_length_c   8.95871229
_cell_angle_alpha   58.12721471
_cell_angle_beta   58.12721471
_cell_angle_gamma   58.12721524
_symmetry_Int_Tables_number   1
_chemical_formula_structural   CrSn3(PO4)6
_chemical_formula_sum   'Cr1 Sn3 P6 O24'
_cell_volume   486.59262312
_cell_formula_units_Z   1
loop_
 _symmetry_equiv_pos_site_id
 _symmetry_equiv_pos_as_xyz
  1  'x, y, z'
loop_
 _atom_site_type_symbol
 _atom_site_label
 _atom_site_symmetry_multiplicity
 _atom_site_fract_x
 _atom_site_fract_y
 _atom_site_fract_z
 _atom_site_occupancy
  Cr  Cr0  1  0.85662200  0.85662200  0.85662200  1
  Sn  Sn0  1  0.14316000  0.14316000  0.14316000  1
  Sn  Sn1  1  0.35816400  0.35816400  0.35816400  1
  Sn  Sn2  1  0.64308600  0.64308600  0.64308600  1
  P  P0  1  0.03552800  0.46802000  0.74984900  1
  P  P1  1  0.46802000  0.74984900  0.03552800  1
  P  P2  1  0.74984900  0.03552800  0.46802000  1
  P  P3  1  0.24421100  0.96072500  0.54271400  1
  P  P4  1  0.54271400  0.24421100  0.96072500  1
  P  P5  1  0.96072500  0.54271400  0.24421100  1
  O  O0  1  0.13103600  0.52434600  0.26311500  1
  O  O1  1  0.26311500  0.13103600  0.52434600  1
  O  O2  1  0.05984700  0.29081600  0.92005500  1
  O  O3  1  0.52434500  0.26311500  0.13103600  1
  O  O4  1  0.21440600  0.45463000  0.57733700  1
  O  O5  1  0.99352000  0.64325900  0.78686100  1
  O  O6  1  0.29081600  0.92005500  0.05984700  1
  O  O7  1  0.45463000  0.57733700  0.21440600  1
  O  O8  1  0.57733700  0.21440600  0.45463000  1
  O  O9  1  0.21680200  0.98688400  0.37545300  1
  O  O10  1  0.06438700  0.92880100  0.72135500  1
  O  O11  1  0.37545300  0.21680200  0.98688400  1
  O  O12  1  0.64325900  0.78686100  0.99352000  1
  O  O13  1  0.92005500  0.05984700  0.29081600  1
  O  O14  1  0.78686100  0.99352000  0.64325900  1
  O  O15  1  0.40908300  0.77939200  0.57475600  1
  O  O16  1  0.57475600  0.40908300  0.77939200  1
  O  O17  1  0.72135500  0.06438700  0.92880100  1
  O  O18  1  0.98688400  0.37545300  0.21680200  1
  O  O19  1  0.77939200  0.57475600  0.40908300  1
  O  O20  1  0.49002600  0.72095100  0.87080300  1
  O  O21  1  0.92880100  0.72135500  0.06438700  1
  O  O22  1  0.72095100  0.87080300  0.49002600  1
  O  O23  1  0.87080300  0.49002600  0.72095100  1
loop_
_geom_bond_atom_site_label_1
_geom_bond_atom_site_label_2
_geom_bond_distance
_geom_bond_site_symmetry_2
Cr0 O21 1.847320 1_556
Cr0 O10 1.847320 1_655
Cr0 O17 1.847320 1_565
Cr0 O14 1.877445 1_555
Cr0 O12 1.877445 1_555
Cr0 O5 1.877445 1_555
O0 P5 1.536890 1_455
O0 Sn1 2.091330 1_555
O1 P3 1.536890 1_545
O1 Sn1 2.091330 1_555
O2 P0 1.523790 1_555
O2 Sn0 2.010580 1_556
O3 P4 1.536886 1_554
O3 Sn1 2.091330 1_555
O4 P0 1.532389 1_555
O4 Sn1 2.051080 1_555
O5 P0 1.584368 1_655
O6 P1 1.523790 1_555
O6 Sn0 2.010580 1_565
O7 P1 1.532389 1_555
O7 Sn1 2.051080 1_555
O8 P2 1.532389 1_555
O8 Sn1 2.051080 1_555
O9 P3 1.522333 1_555
O9 Sn0 2.030686 1_565
O10 P3 1.587062 1_555
O11 P4 1.522333 1_555
O11 Sn0 2.030686 1_556
O12 P1 1.584368 1_556
O13 P2 1.523790 1_555
O13 Sn0 2.010580 1_655
O14 P2 1.584368 1_565
O15 P3 1.524589 1_555
O15 Sn2 2.030512 1_555
O16 P4 1.524589 1_555
O16 Sn2 2.030512 1_555
O17 P4 1.587063 1_555
O18 P5 1.522333 1_555
O18 Sn0 2.030686 1_655
O19 P5 1.524589 1_555
O19 Sn2 2.030512 1_555
O20 P1 1.525115 1_556
O20 Sn2 2.016722 1_555
O21 P5 1.587062 1_555
O22 P2 1.525115 1_565
O22 Sn2 2.016722 1_555
O23 P0 1.525115 1_655
O23 Sn2 2.016722 1_555
