# generated using pymatgen
data_Li6Cr3P6WO24
_symmetry_space_group_name_H-M   'P 1'
_cell_length_a   8.60120800
_cell_length_b   8.62899551
_cell_length_c   8.63660416
_cell_angle_alpha   61.90252226
_cell_angle_beta   61.88240933
_cell_angle_gamma   61.86558336
_symmetry_Int_Tables_number   1
_chemical_formula_structural   Li6Cr3P6WO24
_chemical_formula_sum   'Li6 Cr3 P6 W1 O24'
_cell_volume   472.37190578
_cell_formula_units_Z   1
loop_
 _symmetry_equiv_pos_site_id
 _symmetry_equiv_pos_as_xyz
  1  'x, y, z'
loop_
 _atom_site_type_symbol
 _atom_site_label
 _atom_site_symmetry_multiplicity
 _atom_site_fract_x
 _atom_site_fract_y
 _atom_site_fract_z
 _atom_site_occupancy
  Li  Li0  1  0.02841900  0.00628300  0.00078800  1
  Li  Li1  1  0.75061100  0.14477600  0.34921100  1
  Li  Li2  1  0.46633900  0.50262700  0.49490100  1
  Li  Li3  1  0.27544500  0.83781000  0.64775200  1
  Li  Li4  1  0.64750800  0.27673100  0.83237300  1
  Li  Li5  1  0.83631600  0.64984400  0.27565900  1
  Cr  Cr0  1  0.14086800  0.14575500  0.13882700  1
  Cr  Cr1  1  0.35856800  0.35881500  0.35334700  1
  Cr  Cr2  1  0.64529900  0.64777700  0.64715700  1
  P  P0  1  0.05353300  0.75200200  0.44172000  1
  P  P1  1  0.44269100  0.05504700  0.75109600  1
  P  P2  1  0.75148900  0.44574400  0.04939700  1
  P  P3  1  0.25876000  0.53483600  0.95687500  1
  P  P4  1  0.53633100  0.96019000  0.25920600  1
  P  P5  1  0.95478900  0.25796000  0.53082300  1
  W  W0  1  0.85664900  0.85460300  0.85403500  1
  O  O0  1  0.12635200  0.29717500  0.48995700  1
  O  O1  1  0.31109900  0.50471800  0.11571600  1
  O  O2  1  0.05047400  0.92232600  0.26152600  1
  O  O3  1  0.52751300  0.11709600  0.30405200  1
  O  O4  1  0.24011800  0.59339700  0.41793900  1
  O  O5  1  0.03341600  0.80636200  0.59804300  1
  O  O6  1  0.25554300  0.07283100  0.90906100  1
  O  O7  1  0.43978300  0.23591900  0.58097400  1
  O  O8  1  0.59516500  0.42081400  0.24139700  1
  O  O9  1  0.19920000  0.38015500  0.98693500  1
  O  O10  1  0.10924600  0.73251500  0.92184800  1
  O  O11  1  0.37022400  0.00333100  0.20950800  1
  O  O12  1  0.59903000  0.03014400  0.80921300  1
  O  O13  1  0.90710100  0.25341700  0.07033300  1
  O  O14  1  0.81034700  0.59855600  0.02755800  1
  O  O15  1  0.42480200  0.55008300  0.76656700  1
  O  O16  1  0.54654200  0.77246300  0.42670800  1
  O  O17  1  0.73021200  0.91762300  0.10828400  1
  O  O18  1  0.96667200  0.20280800  0.37902100  1
  O  O19  1  0.76988600  0.42805800  0.54890700  1
  O  O20  1  0.47944800  0.88779600  0.69952900  1
  O  O21  1  0.92131800  0.10913300  0.72758400  1
  O  O22  1  0.69761400  0.48210600  0.88548500  1
  O  O23  1  0.88528100  0.69937100  0.48168300  1
loop_
_geom_bond_atom_site_label_1
_geom_bond_atom_site_label_2
_geom_bond_distance
_geom_bond_site_symmetry_2
Li0 O6 1.986049 1_554
Li0 O2 2.090020 1_545
Li0 O13 2.124713 1_455
Li0 O10 2.459731 1_544
Li0 O21 2.551271 1_454
Li0 O17 2.638787 1_445
Li1 O8 2.099790 1_555
Li1 O13 2.121119 1_555
Li1 O3 2.262038 1_555
Li1 O18 2.284883 1_555
Li1 O2 2.401972 1_645
Li1 O7 2.495708 1_555
Li2 O4 2.032905 1_555
Li2 O7 2.150705 1_555
Li2 O8 2.225138 1_555
Li2 O15 2.403593 1_555
Li2 O16 2.466659 1_555
Li2 O19 2.594035 1_555
Li3 O10 2.117121 1_555
Li3 O15 2.168483 1_555
Li3 O16 2.231096 1_555
Li3 O20 2.258300 1_555
Li3 O5 2.465054 1_555
Li4 O21 2.113958 1_555
Li4 O19 2.159337 1_555
Li4 O15 2.249067 1_555
Li4 O22 2.282349 1_555
Li4 O12 2.461228 1_555
Li5 O17 2.090485 1_555
Li5 O16 2.186749 1_555
Li5 O19 2.250428 1_555
Li5 O23 2.262405 1_555
Li5 O14 2.504942 1_555
Cr0 O9 1.975105 1_554
Cr0 O11 1.979060 1_555
Cr0 O6 2.013124 1_554
Cr0 O13 2.024267 1_455
Cr0 O18 2.031589 1_455
Cr0 O2 2.038908 1_545
Cr1 O1 1.958311 1_555
Cr1 O0 1.963131 1_555
Cr1 O4 2.007396 1_555
Cr1 O3 2.009549 1_555
Cr1 O8 2.011785 1_555
Cr1 O7 2.027176 1_555
Cr2 O22 1.994381 1_555
Cr2 O23 1.997029 1_555
Cr2 O20 2.004245 1_555
Cr2 O19 2.050674 1_555
Cr2 O15 2.053389 1_555
Cr2 O16 2.058398 1_555
O0 P5 1.511333 1_455
O1 P3 1.512649 1_554
O2 P0 1.558966 1_555
O3 P4 1.535692 1_545
O4 P0 1.540620 1_555
O5 P0 1.540302 1_555
O5 W0 2.115332 1_455
O6 P1 1.539557 1_555
O7 P1 1.559842 1_555
O8 P2 1.561761 1_555
O9 P3 1.518047 1_555
O10 P3 1.570613 1_555
O10 W0 2.152400 1_455
O11 P4 1.513267 1_545
O12 P1 1.538967 1_555
O12 W0 2.108320 1_545
O13 P2 1.558520 1_555
O14 P2 1.528361 1_555
O14 W0 2.105817 1_554
O15 P3 1.587265 1_555
O16 P4 1.582017 1_555
O17 P4 1.561837 1_555
O17 W0 2.148567 1_554
O18 P5 1.539914 1_555
O19 P5 1.577476 1_555
O20 P1 1.556781 1_565
O21 P5 1.565820 1_555
O21 W0 2.155498 1_545
O22 P2 1.542733 1_556
O23 P0 1.555978 1_655
