# generated using pymatgen
data_Mo6H10N2Cl14O
_symmetry_space_group_name_H-M   'P 1'
_cell_length_a   13.23012143
_cell_length_b   13.23012143
_cell_length_c   9.89969500
_cell_angle_alpha   71.03868505
_cell_angle_beta   71.03868505
_cell_angle_gamma   75.31630206
_symmetry_Int_Tables_number   1
_chemical_formula_structural   Mo6H10N2Cl14O
_chemical_formula_sum   'Mo12 H20 N4 Cl28 O2'
_cell_volume   1528.51885904
_cell_formula_units_Z   2
loop_
 _symmetry_equiv_pos_site_id
 _symmetry_equiv_pos_as_xyz
  1  'x, y, z'
loop_
 _atom_site_type_symbol
 _atom_site_label
 _atom_site_symmetry_multiplicity
 _atom_site_fract_x
 _atom_site_fract_y
 _atom_site_fract_z
 _atom_site_occupancy
  Mo  Mo0  1  0.93839400  0.68836500  0.43276900  1
  Mo  Mo1  1  0.68836500  0.93839400  0.93276900  1
  Mo  Mo2  1  0.06484000  0.30780700  0.56281700  1
  Mo  Mo3  1  0.30780700  0.06484000  0.06281700  1
  Mo  Mo4  1  0.83862900  0.47379100  0.69416100  1
  Mo  Mo5  1  0.47379100  0.83862900  0.19416100  1
  Mo  Mo6  1  0.16406700  0.52515400  0.30496000  1
  Mo  Mo7  1  0.52515400  0.16406700  0.80496000  1
  Mo  Mo8  1  0.08751900  0.52141900  0.67211800  1
  Mo  Mo9  1  0.52141900  0.08751900  0.17211800  1
  Mo  Mo10  1  0.91447800  0.47912400  0.32867700  1
  Mo  Mo11  1  0.47912400  0.91447800  0.82867700  1
  H  H0  1  0.48329600  0.48225600  0.22080400  1
  H  H1  1  0.48225500  0.48329600  0.72080400  1
  H  H2  1  0.62125900  0.45585300  0.17918500  1
  H  H3  1  0.45585300  0.62125900  0.67918500  1
  H  H4  1  0.54960800  0.35196200  0.25897200  1
  H  H5  1  0.35196200  0.54960800  0.75897200  1
  H  H6  1  0.54860800  0.43469000  0.35707100  1
  H  H7  1  0.43469000  0.54860800  0.85707100  1
  H  H8  1  0.97018300  0.96974100  0.11890300  1
  H  H9  1  0.96974100  0.97018300  0.61890300  1
  H  H10  1  0.04109900  0.03860900  0.95066900  1
  H  H11  1  0.03860900  0.04109900  0.45066900  1
  H  H12  1  0.92402800  0.00345600  0.96677500  1
  H  H13  1  0.00345600  0.92402800  0.46677500  1
  H  H14  1  0.92620600  0.09958400  0.05025600  1
  H  H15  1  0.09958400  0.92620600  0.55025600  1
  H  H16  1  0.16850800  0.75477100  0.80549300  1
  H  H17  1  0.75477100  0.16850800  0.30549300  1
  H  H18  1  0.25373200  0.83138900  0.74271300  1
  H  H19  1  0.83138900  0.25373200  0.24271300  1
  N  N0  1  0.55045600  0.43219900  0.25324900  1
  N  N1  1  0.43219900  0.55045600  0.75324900  1
  N  N2  1  0.96528100  0.02858900  0.02068300  1
  N  N3  1  0.02858900  0.96528100  0.52068300  1
  Cl  Cl0  1  0.04278400  0.67646500  0.17196700  1
  Cl  Cl1  1  0.67646500  0.04278400  0.67196700  1
  Cl  Cl2  1  0.96988700  0.38190300  0.85125900  1
  Cl  Cl3  1  0.38190300  0.96988700  0.35125900  1
  Cl  Cl4  1  0.85441600  0.65560100  0.71039500  1
  Cl  Cl5  1  0.65560100  0.85441600  0.21039500  1
  Cl  Cl6  1  0.10784500  0.39338000  0.22073300  1
  Cl  Cl7  1  0.39338000  0.10784500  0.72073300  1
  Cl  Cl8  1  0.74723200  0.57080500  0.48836700  1
  Cl  Cl9  1  0.57080500  0.74723200  0.98836700  1
  Cl  Cl10  1  0.24868500  0.36869000  0.48211800  1
  Cl  Cl11  1  0.36869000  0.24868500  0.98211800  1
  Cl  Cl12  1  0.17773200  0.65240400  0.44005000  1
  Cl  Cl13  1  0.65240400  0.17773200  0.94005000  1
  Cl  Cl14  1  0.86418800  0.29907700  0.62645000  1
  Cl  Cl15  1  0.29907700  0.86418800  0.12645000  1
  Cl  Cl16  1  0.89636000  0.88797700  0.36476100  1
  Cl  Cl17  1  0.88797700  0.89636000  0.86476100  1
  Cl  Cl18  1  0.11702500  0.11245200  0.65424200  1
  Cl  Cl19  1  0.11245200  0.11702500  0.15424200  1
  Cl  Cl20  1  0.67033700  0.45758000  0.88460600  1
  Cl  Cl21  1  0.45758000  0.67033700  0.38460600  1
  Cl  Cl22  1  0.33752800  0.54996700  0.12018100  1
  Cl  Cl23  1  0.54996700  0.33752800  0.62018100  1
  Cl  Cl24  1  0.81620800  0.44581400  0.18093600  1
  Cl  Cl25  1  0.44581400  0.81620800  0.68093600  1
  Cl  Cl26  1  0.17784000  0.55358000  0.83211400  1
  Cl  Cl27  1  0.55358000  0.17784000  0.33211400  1
  O  O0  1  0.17605400  0.83093200  0.76140800  1
  O  O1  1  0.83093200  0.17605400  0.26140800  1
loop_
_geom_bond_atom_site_label_1
_geom_bond_atom_site_label_2
_geom_bond_distance
_geom_bond_site_symmetry_2
H0 N0 1.039308 1_555
H1 N1 1.039304 1_555
H2 N0 1.032552 1_555
H3 N1 1.032552 1_555
H4 N0 1.047260 1_555
H5 N1 1.047260 1_555
H6 N0 1.031185 1_555
H7 N1 1.031185 1_555
H8 N2 1.038868 1_565
H9 N3 1.038868 1_655
H10 N2 1.029584 1_456
H11 N3 1.029584 1_545
H12 N2 1.043962 1_556
H13 N3 1.043962 1_555
H14 N2 1.034106 1_555
H15 N3 1.034106 1_555
H16 O0 0.976032 1_555
H17 O1 0.976032 1_555
H18 O0 0.984507 1_555
H19 O1 0.984507 1_555
Cl0 Mo6 2.519366 1_555
Cl0 Mo0 2.536704 1_455
Cl0 Mo10 3.163551 1_455
Cl1 Mo7 2.519366 1_555
Cl1 Mo1 2.536704 1_545
Cl1 Mo11 3.163551 1_545
Cl2 Mo4 2.523573 1_555
Cl2 Mo8 2.551389 1_655
Cl2 Mo2 3.091368 1_655
Cl3 Mo5 2.523573 1_555
Cl3 Mo9 2.551389 1_565
Cl3 Mo3 3.091368 1_565
Cl4 Mo4 2.526455 1_555
Cl4 Mo0 2.541970 1_555
Cl4 Mo8 3.115798 1_655
Cl5 Mo5 2.526455 1_555
Cl5 Mo1 2.541970 1_554
Cl5 Mo9 3.115798 1_565
Cl6 Mo6 2.508602 1_555
Cl6 Mo10 2.552151 1_455
Cl6 Mo2 3.107548 1_555
Cl7 Mo7 2.508602 1_555
Cl7 Mo11 2.552151 1_545
Cl7 Mo3 3.107548 1_556
Cl8 Mo4 2.524860 1_555
Cl8 Mo10 2.545329 1_555
Cl8 Mo0 3.106701 1_555
Cl9 Mo5 2.524860 1_556
Cl9 Mo11 2.545329 1_555
Cl9 Mo1 3.106701 1_555
Cl10 Mo6 2.521111 1_555
Cl10 Mo2 2.552523 1_555
Cl10 Mo8 3.137937 1_555
Cl11 Mo7 2.521111 1_555
Cl11 Mo3 2.552523 1_556
Cl11 Mo9 3.137937 1_556
Cl12 Mo8 2.526865 1_555
Cl12 Mo6 2.535752 1_555
Cl12 Mo0 3.101673 1_455
Cl13 Mo9 2.526865 1_556
Cl13 Mo7 2.535752 1_555
Cl13 Mo1 3.101673 1_545
Cl14 Mo4 2.523886 1_555
Cl14 Mo2 2.545338 1_655
Cl14 Mo10 3.126070 1_555
Cl15 Mo5 2.523886 1_555
Cl15 Mo3 2.545338 1_565
Cl15 Mo11 3.126070 1_554
Cl16 Mo0 2.465798 1_555
Cl17 Mo1 2.465798 1_555
Cl18 Mo2 2.440719 1_555
Cl19 Mo3 2.440719 1_555
Cl20 Mo4 2.410248 1_555
Cl21 Mo5 2.410248 1_555
Cl22 Mo6 2.446252 1_555
Cl23 Mo7 2.446252 1_555
Cl24 Mo10 2.443110 1_555
Cl25 Mo11 2.443110 1_555
Cl26 Mo8 2.458348 1_555
Cl27 Mo9 2.458348 1_555
