# generated using pymatgen
data_V2O3F
_symmetry_space_group_name_H-M   'P 1'
_cell_length_a   4.60048681
_cell_length_b   4.60048681
_cell_length_c   8.92822262
_cell_angle_alpha   90.00000000
_cell_angle_beta   90.00000000
_cell_angle_gamma   94.00195963
_symmetry_Int_Tables_number   1
_chemical_formula_structural   V2O3F
_chemical_formula_sum   'V6 O9 F3'
_cell_volume   188.50042807
_cell_formula_units_Z   3
loop_
 _symmetry_equiv_pos_site_id
 _symmetry_equiv_pos_as_xyz
  1  'x, y, z'
loop_
 _atom_site_type_symbol
 _atom_site_label
 _atom_site_symmetry_multiplicity
 _atom_site_fract_x
 _atom_site_fract_y
 _atom_site_fract_z
 _atom_site_occupancy
  V  V0  1  -0.00126567  0.00126567  0.66759442  1
  V  V1  1  -0.00126567  0.00126567  0.33240558  1
  V  V2  1  0.98755379  0.01244621  0.00000000  1
  V  V3  1  0.45241057  0.54758943  0.50000000  1
  V  V4  1  0.53858865  0.46141135  0.83400886  1
  V  V5  1  0.53858865  0.46141135  0.16599114  1
  O  O0  1  0.80352902  0.19647098  0.16525564  1
  O  O1  1  0.80352902  0.19647098  0.83474436  1
  O  O2  1  0.30098407  0.30660947  0.66606176  1
  O  O3  1  0.30098407  0.30660947  0.33393824  1
  O  O4  1  0.30351706  0.30290815  0.00000000  1
  O  O5  1  0.69339053  0.69901593  0.66606176  1
  O  O6  1  0.69339053  0.69901593  0.33393824  1
  O  O7  1  0.69709185  0.69648294  0.00000000  1
  O  O8  1  0.19148361  0.80851639  0.50000000  1
  F  F0  1  0.79961108  0.20038892  0.50000000  1
  F  F1  1  0.19893993  0.80106007  0.83230802  1
  F  F2  1  0.19893993  0.80106007  0.16769198  1
loop_
_geom_bond_atom_site_label_1
_geom_bond_atom_site_label_2
_geom_bond_distance
_geom_bond_site_symmetry_2
O0 V5 1.782868 1_555
O0 V2 1.926250 1_555
O0 V1 1.988123 1_655
O1 V4 1.782868 1_555
O1 V2 1.926250 1_556
O1 V0 1.988123 1_655
O2 V0 1.906382 1_555
O2 V3 1.950580 1_555
O2 V4 1.960048 1_555
O3 V1 1.906382 1_555
O3 V3 1.950580 1_555
O3 V5 1.960048 1_555
O4 V2 1.904573 1_455
O4 V5 1.946153 1_555
O4 V4 1.946153 1_554
O5 V0 1.906382 1_665
O5 V3 1.950580 1_555
O5 V4 1.960048 1_555
O6 V1 1.906382 1_665
O6 V3 1.950580 1_555
O6 V5 1.960048 1_555
O7 V2 1.904573 1_565
O7 V5 1.946153 1_555
O7 V4 1.946153 1_554
O8 V3 1.755849 1_555
O8 V0 1.980239 1_565
O8 V1 1.980239 1_565
F0 V1 2.008595 1_655
F0 V0 2.008595 1_655
F0 V3 2.336407 1_555
F1 V0 1.994421 1_565
F1 V2 2.065192 1_466
F1 V4 2.285640 1_555
F2 V1 1.994421 1_565
F2 V2 2.065192 1_465
F2 V5 2.285640 1_555
