# generated using pymatgen
data_CoCu(PO4)2
_symmetry_space_group_name_H-M   'P 1'
_cell_length_a   5.91469400
_cell_length_b   4.99523400
_cell_length_c   10.00485768
_cell_angle_alpha   85.76407436
_cell_angle_beta   90.00000000
_cell_angle_gamma   90.00000000
_symmetry_Int_Tables_number   1
_chemical_formula_structural   CoCu(PO4)2
_chemical_formula_sum   'Co2 Cu2 P4 O16'
_cell_volume   294.78886414
_cell_formula_units_Z   2
loop_
 _symmetry_equiv_pos_site_id
 _symmetry_equiv_pos_as_xyz
  1  'x, y, z'
loop_
 _atom_site_type_symbol
 _atom_site_label
 _atom_site_symmetry_multiplicity
 _atom_site_fract_x
 _atom_site_fract_y
 _atom_site_fract_z
 _atom_site_occupancy
  Co  Co0  1  0.75000000  0.44090900  0.78929600  1
  Co  Co1  1  0.25000000  0.55909100  0.21070400  1
  Cu  Cu0  1  0.25000000  0.86719200  0.69645500  1
  Cu  Cu1  1  0.75000000  0.13280800  0.30354500  1
  P  P0  1  0.25000000  0.40447700  0.89877000  1
  P  P1  1  0.75000000  0.93900100  0.60351600  1
  P  P2  1  0.25000000  0.06099900  0.39648400  1
  P  P3  1  0.75000000  0.59552300  0.10123000  1
  O  O0  1  0.75000000  0.65379700  0.94913700  1
  O  O1  1  0.25000000  0.71592000  0.86984600  1
  O  O2  1  0.03829300  0.28233800  0.83329400  1
  O  O3  1  0.46170700  0.28233800  0.83329400  1
  O  O4  1  0.55526800  0.76714500  0.67578300  1
  O  O5  1  0.94473200  0.76714500  0.67578300  1
  O  O6  1  0.75000000  0.23550000  0.62392500  1
  O  O7  1  0.25000000  0.11101500  0.54750400  1
  O  O8  1  0.75000000  0.88898500  0.45249600  1
  O  O9  1  0.25000000  0.76450000  0.37607500  1
  O  O10  1  0.05526800  0.23285500  0.32421700  1
  O  O11  1  0.44473200  0.23285500  0.32421700  1
  O  O12  1  0.53829300  0.71766200  0.16670600  1
  O  O13  1  0.96170700  0.71766200  0.16670600  1
  O  O14  1  0.75000000  0.28408000  0.13015400  1
  O  O15  1  0.25000000  0.34620300  0.05086300  1
loop_
_geom_bond_atom_site_label_1
_geom_bond_atom_site_label_2
_geom_bond_distance
_geom_bond_site_symmetry_2
Co0 O2 1.917621 1_655
Co0 O3 1.917621 1_555
Co0 O0 1.984817 1_555
Co0 O6 2.010227 1_555
Co0 O4 2.235765 1_555
Co0 O5 2.235765 1_555
Co1 O13 1.917621 1_455
Co1 O12 1.917621 1_555
Co1 O15 1.984817 1_555
Co1 O9 2.010227 1_555
Co1 O10 2.235765 1_555
Co1 O11 2.235765 1_555
Cu0 O1 1.840301 1_555
Cu0 O7 1.853665 1_565
Cu0 O4 1.888882 1_555
Cu0 O5 1.888882 1_455
Cu1 O14 1.840301 1_555
Cu1 O8 1.853665 1_545
Cu1 O11 1.888882 1_555
Cu1 O10 1.888882 1_655
O0 P3 1.527997 1_556
O1 P0 1.561260 1_555
O2 P0 1.558322 1_555
O3 P0 1.558322 1_555
O4 P1 1.579437 1_555
O5 P1 1.579437 1_555
O6 P1 1.509958 1_545
O7 P2 1.549551 1_555
O8 P1 1.549551 1_555
O9 P2 1.509958 1_565
O10 P2 1.579437 1_555
O11 P2 1.579437 1_555
O12 P3 1.558322 1_555
O13 P3 1.558322 1_555
O14 P3 1.561260 1_555
O15 P0 1.527997 1_554
