# generated using pymatgen
data_PPdS
_symmetry_space_group_name_H-M   'P 1'
_cell_length_a   5.68374435
_cell_length_b   5.70805517
_cell_length_c   13.83441340
_cell_angle_alpha   89.99316737
_cell_angle_beta   89.99722105
_cell_angle_gamma   89.99943227
_symmetry_Int_Tables_number   1
_chemical_formula_structural   PPdS
_chemical_formula_sum   'P8 Pd8 S8'
_cell_volume   448.83161790
_cell_formula_units_Z   8
loop_
 _symmetry_equiv_pos_site_id
 _symmetry_equiv_pos_as_xyz
  1  'x, y, z'
loop_
 _atom_site_type_symbol
 _atom_site_label
 _atom_site_symmetry_multiplicity
 _atom_site_fract_x
 _atom_site_fract_y
 _atom_site_fract_z
 _atom_site_occupancy
  P  P0  1  0.86880598  0.72005570  0.57924390  1
  P  P1  1  0.86883897  0.78000301  0.42095642  1
  P  P2  1  0.63117411  0.27988150  0.07904504  1
  P  P3  1  0.36881815  0.72003077  0.92075018  1
  P  P4  1  0.36881362  0.77987917  0.07904155  1
  P  P5  1  0.13116587  0.22005286  0.57924699  1
  P  P6  1  0.13119921  0.27999939  0.42096262  1
  P  P7  1  0.63117191  0.22003198  0.92075195  1
  Pd  Pd0  1  0.75293848  0.15835860  0.39069317  1
  Pd  Pd1  1  0.75295333  0.34171150  0.60950634  1
  Pd  Pd2  1  0.74706455  0.65822345  0.10931935  1
  Pd  Pd3  1  0.74703159  0.84171807  0.89048205  1
  Pd  Pd4  1  0.24703388  0.84171617  0.60951159  1
  Pd  Pd5  1  0.24710322  0.65836276  0.39069494  1
  Pd  Pd6  1  0.25296008  0.34171428  0.89048209  1
  Pd  Pd7  1  0.25292931  0.15822501  0.10931445  1
  S  S0  1  0.36313558  0.45455177  0.64880015  1
  S  S1  1  0.13686413  0.54537475  0.14863441  1
  S  S2  1  0.13685625  0.95456184  0.85119450  1
  S  S3  1  0.63682353  0.95455113  0.64879600  1
  S  S4  1  0.86310246  0.04537572  0.14862862  1
  S  S5  1  0.86314990  0.45456398  0.85119363  1
  S  S6  1  0.36316145  0.04553093  0.35137728  1
  S  S7  1  0.63690346  0.54552566  0.35137380  1
loop_
_geom_bond_atom_site_label_1
_geom_bond_atom_site_label_2
_geom_bond_distance
_geom_bond_site_symmetry_2
P0 S3 2.110956 1_555
P0 P1 2.216348 1_555
P0 Pd1 2.296208 1_555
P0 Pd4 2.297653 1_655
P1 S7 2.110992 1_555
P1 Pd0 2.296348 1_565
P1 Pd5 2.297744 1_655
P2 S4 2.110913 1_555
P2 P7 2.216419 1_554
P2 Pd2 2.296393 1_555
P2 Pd7 2.297672 1_555
P3 S2 2.110948 1_555
P3 P4 2.216394 1_556
P3 Pd6 2.296188 1_555
P3 Pd3 2.297555 1_555
P4 S1 2.111000 1_555
P4 Pd7 2.296376 1_565
P4 Pd2 2.297749 1_555
P5 S0 2.111005 1_555
P5 P6 2.216305 1_555
P5 Pd4 2.296197 1_545
P5 Pd1 2.297496 1_455
P6 S6 2.110997 1_555
P6 Pd5 2.296408 1_555
P6 Pd0 2.297798 1_455
P7 S5 2.110983 1_555
P7 Pd3 2.296157 1_545
P7 Pd6 2.297567 1_555
Pd0 S7 2.369502 1_555
Pd0 S6 2.370402 1_555
Pd1 S3 2.369520 1_545
Pd1 S0 2.370507 1_555
Pd2 S4 2.369529 1_565
Pd2 S1 2.370505 1_655
Pd3 S5 2.369573 1_555
Pd3 S2 2.370506 1_655
Pd4 S0 2.369496 1_555
Pd4 S3 2.370380 1_555
Pd5 S6 2.369537 1_565
Pd5 S7 2.370495 1_555
Pd6 S2 2.369566 1_545
Pd6 S5 2.370478 1_455
Pd7 S1 2.369566 1_555
Pd7 S4 2.370610 1_455
