# generated using pymatgen
data_LiV4OF11
_symmetry_space_group_name_H-M   'P 1'
_cell_length_a   5.50108574
_cell_length_b   5.50108574
_cell_length_c   17.70182532
_cell_angle_alpha   78.06910432
_cell_angle_beta   78.06910432
_cell_angle_gamma   57.47071928
_symmetry_Int_Tables_number   1
_chemical_formula_structural   LiV4OF11
_chemical_formula_sum   'Li2 V8 O2 F22'
_cell_volume   438.91845108
_cell_formula_units_Z   2
loop_
 _symmetry_equiv_pos_site_id
 _symmetry_equiv_pos_as_xyz
  1  'x, y, z'
loop_
 _atom_site_type_symbol
 _atom_site_label
 _atom_site_symmetry_multiplicity
 _atom_site_fract_x
 _atom_site_fract_y
 _atom_site_fract_z
 _atom_site_occupancy
  Li  Li0  1  0.71069900  0.63160800  0.63315000  1
  Li  Li1  1  0.36839200  0.28930100  0.36685000  1
  V  V0  1  0.75772600  0.63065200  0.43584500  1
  V  V1  1  0.11496900  0.97286900  0.31715200  1
  V  V2  1  0.87265200  0.75046600  0.06284600  1
  V  V3  1  0.24953400  0.12734800  0.93715400  1
  V  V4  1  0.36934800  0.24227400  0.56415500  1
  V  V5  1  0.02713100  0.88503100  0.68284800  1
  V  V6  1  0.49223900  0.37626500  0.18726700  1
  V  V7  1  0.62373500  0.50776100  0.81273300  1
  O  O0  1  0.05132700  0.68971800  0.37697000  1
  O  O1  1  0.31028200  0.94867300  0.62303000  1
  F  F0  1  0.51935000  0.78263400  0.34917500  1
  F  F1  1  0.46829900  0.53170100  0.50000000  1
  F  F2  1  0.54128300  0.20962600  0.87456200  1
  F  F3  1  0.48224000  0.96419800  0.02555300  1
  F  F4  1  0.94564800  0.48465900  0.53571700  1
  F  F5  1  0.77701500  0.29930100  0.71822200  1
  F  F6  1  0.21736600  0.48065000  0.65082500  1
  F  F7  1  0.71019700  0.98893200  0.15091700  1
  F  F8  1  0.01106800  0.28980300  0.84908300  1
  F  F9  1  0.99340500  0.22333800  0.40066800  1
  F  F10  1  0.96041800  0.03958200  0.00000000  1
  F  F11  1  0.28116700  0.76526500  0.22150900  1
  F  F12  1  0.23473500  0.71883300  0.77849100  1
  F  F13  1  0.03580200  0.51776000  0.97444700  1
  F  F14  1  0.51534100  0.05435200  0.46428300  1
  F  F15  1  0.26399400  0.53461000  0.09821600  1
  F  F16  1  0.46539000  0.73600600  0.90178400  1
  F  F17  1  0.77666200  0.00659500  0.59933200  1
  F  F18  1  0.71941700  0.78366400  0.74575900  1
  F  F19  1  0.21633600  0.28058300  0.25424100  1
  F  F20  1  0.79037400  0.45871700  0.12543800  1
  F  F21  1  0.70069900  0.22298500  0.28177800  1
loop_
_geom_bond_atom_site_label_1
_geom_bond_atom_site_label_2
_geom_bond_distance
_geom_bond_site_symmetry_2
Li0 O1 1.956625 1_555
Li1 O0 1.956625 1_555
O0 V1 1.849676 1_555
O0 V0 1.878507 1_455
O1 V5 1.849676 1_555
O1 V4 1.878507 1_565
F0 V0 1.973524 1_555
F0 V1 2.034088 1_555
F0 Li1 2.513957 1_565
F1 V4 2.012432 1_555
F1 V0 2.012432 1_555
F2 V3 1.961371 1_555
F2 V7 1.986464 1_555
F3 V3 1.976074 1_564
F3 V2 1.995083 1_555
F4 Li0 1.956996 1_555
F4 V0 2.028528 1_555
F4 V4 2.080678 1_655
F5 V7 1.998772 1_555
F5 Li0 2.028393 1_555
F5 V5 2.083351 1_645
F6 V4 1.973524 1_555
F6 V5 2.034088 1_555
F6 Li0 2.513957 1_455
F7 V6 1.972836 1_565
F7 V2 1.989672 1_555
F8 V7 1.972836 1_455
F8 V3 1.989672 1_555
F9 V1 1.993442 1_645
F9 V0 2.051367 1_555
F9 Li1 2.224850 1_655
F10 V2 1.967856 1_545
F10 V3 1.967856 1_654
F11 V6 1.966718 1_555
F11 V1 2.010750 1_555
F12 V7 1.966718 1_555
F12 V5 2.010750 1_555
F13 V2 1.976074 1_456
F13 V3 1.995083 1_555
F14 Li1 1.956996 1_555
F14 V4 2.028528 1_555
F14 V0 2.080678 1_545
F15 V6 1.973471 1_555
F15 V2 1.984259 1_455
F16 V7 1.973471 1_555
F16 V3 1.984259 1_565
F17 V5 1.993442 1_645
F17 V4 2.051367 1_555
F17 Li0 2.224850 1_545
F18 V7 1.960456 1_555
F18 V5 2.096558 1_655
F18 Li0 2.334021 1_555
F19 V6 1.960456 1_555
F19 V1 2.096558 1_545
F19 Li1 2.334021 1_555
F20 V2 1.961371 1_555
F20 V6 1.986464 1_555
F21 V6 1.998772 1_555
F21 Li1 2.028393 1_555
F21 V1 2.083351 1_645
