# generated using pymatgen
data_Li6MnNiP2(CO7)2
_symmetry_space_group_name_H-M   'P 1'
_cell_length_a   8.51582535
_cell_length_b   4.99936219
_cell_length_c   6.49977400
_cell_angle_alpha   89.99981418
_cell_angle_beta   89.99628174
_cell_angle_gamma   84.10205153
_symmetry_Int_Tables_number   1
_chemical_formula_structural   Li6MnNiP2(CO7)2
_chemical_formula_sum   'Li6 Mn1 Ni1 P2 C2 O14'
_cell_volume   275.25458238
_cell_formula_units_Z   1
loop_
 _symmetry_equiv_pos_site_id
 _symmetry_equiv_pos_as_xyz
  1  'x, y, z'
loop_
 _atom_site_type_symbol
 _atom_site_label
 _atom_site_symmetry_multiplicity
 _atom_site_fract_x
 _atom_site_fract_y
 _atom_site_fract_z
 _atom_site_occupancy
  Li  Li0  1  0.10236800  0.79105100  0.24988600  1
  Li  Li1  1  0.27117100  0.26378300  0.01813900  1
  Li  Li2  1  0.27116200  0.26378800  0.48175400  1
  Li  Li3  1  0.72875300  0.73394700  0.51765100  1
  Li  Li4  1  0.72870800  0.73399600  0.98233600  1
  Li  Li5  1  0.89546800  0.20830600  0.74999300  1
  Mn  Mn0  1  0.65871700  0.22060600  0.25001700  1
  Ni  Ni0  1  0.33303600  0.79211900  0.75011300  1
  P  P0  1  0.40787600  0.72941600  0.25001900  1
  P  P1  1  0.58629800  0.26476900  0.75005600  1
  C  C0  1  0.04374000  0.68342500  0.74998400  1
  C  C1  1  0.96398700  0.32258700  0.24995400  1
  O  O0  1  0.07139300  0.93319700  0.75003300  1
  O  O1  1  0.10722500  0.38993700  0.24984300  1
  O  O2  1  0.16653800  0.50263200  0.74993900  1
  O  O3  1  0.30726300  0.83975600  0.06247600  1
  O  O4  1  0.30728200  0.83982400  0.43757800  1
  O  O5  1  0.42246200  0.16007200  0.75007000  1
  O  O6  1  0.42200300  0.41508900  0.25003900  1
  O  O7  1  0.56331000  0.57953600  0.75000800  1
  O  O8  1  0.57636500  0.81714400  0.24998300  1
  O  O9  1  0.69191300  0.15967900  0.93469200  1
  O  O10  1  0.69191500  0.15958000  0.56542100  1
  O  O11  1  0.84457100  0.50998300  0.25005200  1
  O  O12  1  0.90136000  0.61156800  0.74998600  1
  O  O13  1  0.93512300  0.07421100  0.24997600  1
loop_
_geom_bond_atom_site_label_1
_geom_bond_atom_site_label_2
_geom_bond_distance
_geom_bond_site_symmetry_2
Li0 O13 1.902119 1_465
Li0 O1 2.001487 1_555
Li0 O3 2.162094 1_555
Li0 O4 2.163455 1_555
Li1 O1 2.105669 1_555
Li1 O3 2.130128 1_545
Li1 O6 2.166543 1_555
Li1 O5 2.197059 1_554
Li1 O2 2.245042 1_554
Li2 O1 2.106704 1_555
Li2 O4 2.129684 1_545
Li2 O6 2.165625 1_555
Li2 O5 2.198510 1_555
Li2 O2 2.244844 1_555
Li3 O10 2.141391 1_565
Li3 O12 2.151939 1_555
Li3 O8 2.184777 1_555
Li3 O11 2.241551 1_555
Li3 O7 2.254997 1_555
Li4 O9 2.141504 1_565
Li4 O12 2.152179 1_555
Li4 O8 2.184284 1_556
Li4 O11 2.242495 1_556
Li4 O7 2.254843 1_555
Li5 O0 1.926817 1_645
Li5 O12 2.021825 1_555
Li5 O10 2.142514 1_555
Li5 O9 2.142766 1_555
Mn0 O9 2.086994 1_554
Mn0 O10 2.087600 1_555
Mn0 O6 2.146174 1_555
Mn0 O8 2.202504 1_545
Mn0 O11 2.251321 1_555
Mn0 O13 2.392091 1_555
Ni0 O3 2.053330 1_556
Ni0 O4 2.054483 1_555
Ni0 O5 2.061967 1_565
Ni0 O2 2.127581 1_555
Ni0 O7 2.132278 1_555
Ni0 O0 2.266924 1_555
C0 O0 1.294272 1_555
C0 O12 1.299494 1_455
C0 O2 1.310054 1_555
C1 O13 1.290355 1_555
C1 O1 1.298332 1_655
C1 O11 1.309981 1_555
O3 P0 1.557990 1_555
O4 P0 1.558005 1_555
O5 P1 1.539684 1_555
O6 P0 1.563658 1_555
O7 P1 1.565675 1_555
O8 P0 1.542855 1_555
O9 P1 1.558266 1_555
O10 P1 1.558320 1_555
