# generated using pymatgen
data_LiCoSiO4
_symmetry_space_group_name_H-M   'P 1'
_cell_length_a   8.55431818
_cell_length_b   8.55431818
_cell_length_c   8.55431845
_cell_angle_alpha   107.69632937
_cell_angle_beta   107.69632937
_cell_angle_gamma   107.69633164
_symmetry_Int_Tables_number   1
_chemical_formula_structural   LiCoSiO4
_chemical_formula_sum   'Li6 Co6 Si6 O24'
_cell_volume   511.09131423
_cell_formula_units_Z   6
loop_
 _symmetry_equiv_pos_site_id
 _symmetry_equiv_pos_as_xyz
  1  'x, y, z'
loop_
 _atom_site_type_symbol
 _atom_site_label
 _atom_site_symmetry_multiplicity
 _atom_site_fract_x
 _atom_site_fract_y
 _atom_site_fract_z
 _atom_site_occupancy
  Li  Li0  1  0.89436800  0.12359400  0.72166300  1
  Li  Li1  1  0.43134200  0.20943100  0.60707400  1
  Li  Li2  1  0.60707400  0.43134200  0.20943100  1
  Li  Li3  1  0.72166300  0.89436800  0.12359400  1
  Li  Li4  1  0.20943100  0.60707400  0.43134200  1
  Li  Li5  1  0.12359400  0.72166300  0.89436800  1
  Co  Co0  1  0.45714800  0.05281900  0.23316300  1
  Co  Co1  1  0.76766400  0.53446100  0.94345300  1
  Co  Co2  1  0.94345300  0.76766400  0.53446100  1
  Co  Co3  1  0.05281900  0.23316300  0.45714800  1
  Co  Co4  1  0.23316300  0.45714800  0.05281900  1
  Co  Co5  1  0.53446100  0.94345300  0.76766400  1
  Si  Si0  1  0.87559100  0.28013000  0.09488700  1
  Si  Si1  1  0.79467500  0.38742800  0.56859200  1
  Si  Si2  1  0.28013000  0.09488700  0.87559100  1
  Si  Si3  1  0.38742800  0.56859200  0.79467500  1
  Si  Si4  1  0.56859200  0.79467500  0.38742800  1
  Si  Si5  1  0.09488700  0.87559100  0.28013000  1
  O  O0  1  0.99035000  0.30522200  0.97279100  1
  O  O1  1  0.72644800  0.06542600  0.00543500  1
  O  O2  1  0.91319700  0.26771200  0.58245700  1
  O  O3  1  0.76622000  0.40848300  0.08669600  1
  O  O4  1  0.92938400  0.60208300  0.63704100  1
  O  O5  1  0.63567400  0.29522100  0.35812800  1
  O  O6  1  0.69318300  0.37440400  0.70324400  1
  O  O7  1  0.40848300  0.08669600  0.76622000  1
  O  O8  1  0.30372100  0.02334400  0.34906700  1
  O  O9  1  0.34906700  0.30372100  0.02334400  1
  O  O10  1  0.06542600  0.00543500  0.72644800  1
  O  O11  1  0.70324400  0.69318300  0.37440300  1
  O  O12  1  0.97279100  0.99035000  0.30522200  1
  O  O13  1  0.60208300  0.63704100  0.92938400  1
  O  O14  1  0.29522100  0.35812800  0.63567400  1
  O  O15  1  0.35812800  0.63567400  0.29522100  1
  O  O16  1  0.63704100  0.92938400  0.60208300  1
  O  O17  1  0.26771200  0.58245700  0.91319700  1
  O  O18  1  0.58245700  0.91319700  0.26771200  1
  O  O19  1  0.37440400  0.70324400  0.69318300  1
  O  O20  1  0.02334400  0.34906700  0.30372100  1
  O  O21  1  0.30522200  0.97279100  0.99035000  1
  O  O22  1  0.08669600  0.76622000  0.40848300  1
  O  O23  1  0.00543500  0.72644800  0.06542600  1
loop_
_geom_bond_atom_site_label_1
_geom_bond_atom_site_label_2
_geom_bond_distance
_geom_bond_site_symmetry_2
Li0 O0 1.956024 1_555
Li0 O2 1.962713 1_555
Li0 O16 2.006639 1_545
Li0 O10 2.013069 1_655
Li1 O7 1.974820 1_555
Li1 O14 1.979438 1_555
Li1 O6 1.984347 1_555
Li1 O8 1.984878 1_555
Li2 O3 1.974820 1_555
Li2 O5 1.979438 1_555
Li2 O11 1.984345 1_555
Li2 O9 1.984878 1_555
Li3 O12 1.956024 1_555
Li3 O18 1.962713 1_555
Li3 O13 2.006639 1_554
Li3 O1 2.013069 1_565
Li4 O22 1.974820 1_555
Li4 O15 1.979438 1_555
Li4 O19 1.984347 1_555
Li4 O20 1.984878 1_555
Li5 O21 1.956024 1_555
Li5 O17 1.962713 1_555
Li5 O4 2.006639 1_455
Li5 O23 2.013069 1_556
Co0 O21 1.850825 1_544
Co0 O18 1.860981 1_545
Co0 O5 1.873358 1_555
Co0 O8 1.873785 1_555
Co1 O6 1.861781 1_555
Co1 O3 1.861953 1_556
Co1 O13 1.872691 1_555
Co1 O23 1.886838 1_656
Co2 O11 1.861784 1_555
Co2 O22 1.861953 1_655
Co2 O4 1.872691 1_555
Co2 O10 1.886838 1_665
Co3 O12 1.850824 1_445
Co3 O2 1.860981 1_455
Co3 O14 1.873358 1_555
Co3 O20 1.873785 1_555
Co4 O0 1.850824 1_454
Co4 O17 1.860981 1_554
Co4 O15 1.873358 1_555
Co4 O9 1.873785 1_555
Co5 O19 1.861781 1_555
Co5 O7 1.861953 1_565
Co5 O16 1.872691 1_555
Co5 O1 1.886838 1_566
O0 Si0 1.652930 1_556
O1 Si0 1.647436 1_555
O2 Si1 1.650070 1_555
O3 Si0 1.648400 1_555
O4 Si1 1.640805 1_555
O5 Si1 1.645975 1_555
O6 Si1 1.649280 1_555
O7 Si2 1.648400 1_555
O8 Si5 1.634116 1_545
O9 Si2 1.634116 1_554
O10 Si2 1.647436 1_555
O11 Si4 1.649281 1_555
O12 Si5 1.652930 1_655
O13 Si3 1.640805 1_555
O14 Si3 1.645975 1_555
O15 Si4 1.645974 1_555
O16 Si4 1.640805 1_555
O17 Si3 1.650070 1_555
O18 Si4 1.650070 1_555
O19 Si3 1.649280 1_555
O20 Si0 1.634116 1_455
O21 Si2 1.652930 1_565
O22 Si5 1.648400 1_555
O23 Si5 1.647436 1_555
