# generated using pymatgen
data_CrSb(PO4)2
_symmetry_space_group_name_H-M   'P 1'
_cell_length_a   6.14626100
_cell_length_b   4.94615300
_cell_length_c   10.50181322
_cell_angle_alpha   89.89326269
_cell_angle_beta   90.00000000
_cell_angle_gamma   90.00000000
_symmetry_Int_Tables_number   1
_chemical_formula_structural   CrSb(PO4)2
_chemical_formula_sum   'Cr2 Sb2 P4 O16'
_cell_volume   319.25821510
_cell_formula_units_Z   2
loop_
 _symmetry_equiv_pos_site_id
 _symmetry_equiv_pos_as_xyz
  1  'x, y, z'
loop_
 _atom_site_type_symbol
 _atom_site_label
 _atom_site_symmetry_multiplicity
 _atom_site_fract_x
 _atom_site_fract_y
 _atom_site_fract_z
 _atom_site_occupancy
  Cr  Cr0  1  0.25000000  0.44414900  0.21527200  1
  Cr  Cr1  1  0.75000000  0.55585100  0.78472800  1
  Sb  Sb0  1  0.75000000  0.95756600  0.27062300  1
  Sb  Sb1  1  0.25000000  0.04243400  0.72937700  1
  P  P0  1  0.75000000  0.41462000  0.08277000  1
  P  P1  1  0.25000000  0.86858300  0.38803700  1
  P  P2  1  0.75000000  0.13141700  0.61196300  1
  P  P3  1  0.25000000  0.58538000  0.91723000  1
  O  O0  1  0.25000000  0.66378900  0.05741300  1
  O  O1  1  0.75000000  0.72338400  0.10023100  1
  O  O2  1  0.94894700  0.27791300  0.15495500  1
  O  O3  1  0.55105300  0.27791300  0.15495500  1
  O  O4  1  0.05788800  0.71370300  0.31505500  1
  O  O5  1  0.44211200  0.71370300  0.31505500  1
  O  O6  1  0.25000000  0.17047600  0.35603900  1
  O  O7  1  0.75000000  0.18859000  0.47127200  1
  O  O8  1  0.25000000  0.81141000  0.52872800  1
  O  O9  1  0.75000000  0.82952400  0.64396100  1
  O  O10  1  0.94211200  0.28629700  0.68494500  1
  O  O11  1  0.55788800  0.28629700  0.68494500  1
  O  O12  1  0.44894700  0.72208700  0.84504500  1
  O  O13  1  0.05105300  0.72208700  0.84504500  1
  O  O14  1  0.25000000  0.27661600  0.89976900  1
  O  O15  1  0.75000000  0.33621100  0.94258700  1
loop_
_geom_bond_atom_site_label_1
_geom_bond_atom_site_label_2
_geom_bond_distance
_geom_bond_site_symmetry_2
Cr0 O0 1.980358 1_555
Cr0 O6 2.002561 1_555
Cr0 O5 2.067630 1_555
Cr0 O4 2.067630 1_555
Cr0 O3 2.122037 1_555
Cr0 O2 2.122037 1_455
Cr1 O15 1.980358 1_555
Cr1 O9 2.002561 1_555
Cr1 O10 2.067630 1_555
Cr1 O11 2.067630 1_555
Cr1 O12 2.122037 1_555
Cr1 O13 2.122037 1_655
O0 P3 1.523100 1_554
O1 P0 1.538503 1_555
O1 Sb0 2.133406 1_555
O2 P0 1.589078 1_555
O2 Sb0 2.339694 1_545
O3 P0 1.589078 1_555
O3 Sb0 2.339694 1_545
O4 P1 1.603337 1_555
O4 Sb0 2.291624 1_455
O5 P1 1.603337 1_555
O5 Sb0 2.291624 1_555
O6 P1 1.529943 1_545
O7 P2 1.503811 1_555
O7 Sb0 2.398935 1_545
O8 P1 1.503811 1_555
O8 Sb1 2.398935 1_565
O9 P2 1.529943 1_565
O10 P2 1.603337 1_555
O10 Sb1 2.291624 1_655
O11 P2 1.603337 1_555
O11 Sb1 2.291624 1_555
O12 P3 1.589078 1_555
O12 Sb1 2.339694 1_565
O13 P3 1.589078 1_555
O13 Sb1 2.339694 1_565
O14 P3 1.538503 1_555
O14 Sb1 2.133406 1_555
O15 P0 1.523100 1_556
