# generated using pymatgen
data_Li2FeBO4
_symmetry_space_group_name_H-M   'P 1'
_cell_length_a   5.00108200
_cell_length_b   5.86078600
_cell_length_c   10.54072600
_cell_angle_alpha   90.00000000
_cell_angle_beta   90.00000000
_cell_angle_gamma   90.00000000
_symmetry_Int_Tables_number   1
_chemical_formula_structural   Li2FeBO4
_chemical_formula_sum   'Li8 Fe4 B4 O16'
_cell_volume   308.95153950
_cell_formula_units_Z   4
loop_
 _symmetry_equiv_pos_site_id
 _symmetry_equiv_pos_as_xyz
  1  'x, y, z'
loop_
 _atom_site_type_symbol
 _atom_site_label
 _atom_site_symmetry_multiplicity
 _atom_site_fract_x
 _atom_site_fract_y
 _atom_site_fract_z
 _atom_site_occupancy
  Li  Li0  1  0.17614800  0.00446800  0.66850200  1
  Li  Li1  1  0.32385200  0.00446800  0.16850200  1
  Li  Li2  1  0.17614800  0.49553200  0.66850200  1
  Li  Li3  1  0.32385200  0.49553200  0.16850200  1
  Li  Li4  1  0.67614800  0.50446800  0.83149800  1
  Li  Li5  1  0.82385200  0.50446800  0.33149800  1
  Li  Li6  1  0.82385200  0.99553200  0.33149800  1
  Li  Li7  1  0.67614800  0.99553200  0.83149800  1
  Fe  Fe0  1  0.67866900  0.25000000  0.57632200  1
  Fe  Fe1  1  0.82133100  0.25000000  0.07632200  1
  Fe  Fe2  1  0.17866900  0.75000000  0.92367800  1
  Fe  Fe3  1  0.32133100  0.75000000  0.42367800  1
  B  B0  1  0.17135200  0.25000000  0.91139100  1
  B  B1  1  0.32864800  0.25000000  0.41139100  1
  B  B2  1  0.67135200  0.75000000  0.58860900  1
  B  B3  1  0.82864800  0.75000000  0.08860900  1
  O  O0  1  0.28399800  0.03907600  0.85151900  1
  O  O1  1  0.21600200  0.03907600  0.35151900  1
  O  O2  1  0.86928200  0.25000000  0.89701600  1
  O  O3  1  0.28906600  0.25000000  0.55458100  1
  O  O4  1  0.21093400  0.25000000  0.05458100  1
  O  O5  1  0.63071800  0.25000000  0.39701600  1
  O  O6  1  0.28399800  0.46092400  0.85151900  1
  O  O7  1  0.21600200  0.46092400  0.35151900  1
  O  O8  1  0.71600200  0.53907600  0.14848100  1
  O  O9  1  0.78399800  0.53907600  0.64848100  1
  O  O10  1  0.78906600  0.75000000  0.94541900  1
  O  O11  1  0.36928200  0.75000000  0.60298400  1
  O  O12  1  0.71093400  0.75000000  0.44541900  1
  O  O13  1  0.13071800  0.75000000  0.10298400  1
  O  O14  1  0.78399800  0.96092400  0.64848100  1
  O  O15  1  0.71600200  0.96092400  0.14848100  1
loop_
_geom_bond_atom_site_label_1
_geom_bond_atom_site_label_2
_geom_bond_distance
_geom_bond_site_symmetry_2
Li0 O11 1.906327 1_545
Li0 O3 1.957446 1_555
Li0 O14 1.988937 1_445
Li0 O0 2.013357 1_555
Li1 O13 1.906327 1_545
Li1 O4 1.957446 1_555
Li1 O15 1.988937 1_545
Li1 O1 2.013357 1_555
Li2 O11 1.906327 1_555
Li2 O3 1.957446 1_555
Li2 O9 1.988937 1_455
Li2 O6 2.013357 1_555
Li3 O13 1.906327 1_555
Li3 O4 1.957446 1_555
Li3 O8 1.988937 1_555
Li3 O7 2.013357 1_555
Li4 O2 1.906327 1_555
Li4 O10 1.957446 1_555
Li4 O6 1.988937 1_555
Li4 O9 2.013357 1_555
Li5 O5 1.906327 1_555
Li5 O12 1.957446 1_555
Li5 O7 1.988937 1_655
Li5 O8 2.013357 1_555
Li6 O5 1.906327 1_565
Li6 O12 1.957446 1_555
Li6 O1 1.988937 1_665
Li6 O15 2.013357 1_555
Li7 O2 1.906327 1_565
Li7 O10 1.957446 1_555
Li7 O0 1.988937 1_565
Li7 O14 2.013357 1_555
Fe0 O5 1.905168 1_555
Fe0 O14 1.930377 1_545
Fe0 O9 1.930377 1_555
Fe0 O3 1.961867 1_555
Fe1 O2 1.905168 1_554
Fe1 O8 1.930377 1_555
Fe1 O15 1.930377 1_545
Fe1 O4 1.961867 1_655
Fe2 O13 1.905168 1_556
Fe2 O6 1.930377 1_555
Fe2 O0 1.930377 1_565
Fe2 O10 1.961867 1_455
Fe3 O11 1.905168 1_555
Fe3 O7 1.930377 1_555
Fe3 O1 1.930377 1_565
Fe3 O12 1.961867 1_555
B0 O0 1.497928 1_555
B0 O6 1.497928 1_555
B0 O2 1.518257 1_455
B0 O4 1.522252 1_556
B1 O1 1.497928 1_555
B1 O7 1.497928 1_555
B1 O5 1.518257 1_555
B1 O3 1.522252 1_555
B2 O14 1.497928 1_555
B2 O9 1.497928 1_555
B2 O11 1.518257 1_555
B2 O12 1.522252 1_555
B3 O15 1.497928 1_555
B3 O8 1.497928 1_555
B3 O13 1.518257 1_655
B3 O10 1.522252 1_554
