# generated using pymatgen
data_LiVF5
_symmetry_space_group_name_H-M   'P 1'
_cell_length_a   7.46263200
_cell_length_b   6.49120000
_cell_length_c   14.81682043
_cell_angle_alpha   85.25607004
_cell_angle_beta   90.00000000
_cell_angle_gamma   90.00000000
_symmetry_Int_Tables_number   1
_chemical_formula_structural   LiVF5
_chemical_formula_sum   'Li8 V8 F40'
_cell_volume   715.28925972
_cell_formula_units_Z   8
loop_
 _symmetry_equiv_pos_site_id
 _symmetry_equiv_pos_as_xyz
  1  'x, y, z'
loop_
 _atom_site_type_symbol
 _atom_site_label
 _atom_site_symmetry_multiplicity
 _atom_site_fract_x
 _atom_site_fract_y
 _atom_site_fract_z
 _atom_site_occupancy
  Li  Li0  1  0.73086500  0.49794000  0.40081000  1
  Li  Li1  1  0.76913500  0.49794000  0.90081000  1
  Li  Li2  1  0.05446100  0.17061200  0.43298900  1
  Li  Li3  1  0.44553900  0.17061200  0.93298900  1
  Li  Li4  1  0.55446100  0.82938800  0.06701100  1
  Li  Li5  1  0.94553900  0.82938800  0.56701100  1
  Li  Li6  1  0.23086500  0.50206000  0.09919000  1
  Li  Li7  1  0.26913500  0.50206000  0.59919000  1
  V  V0  1  0.69157000  0.32078200  0.12804800  1
  V  V1  1  0.80843000  0.32078200  0.62804800  1
  V  V2  1  0.62651200  0.00556900  0.34463300  1
  V  V3  1  0.12651200  0.99443100  0.15536700  1
  V  V4  1  0.87348800  0.00556900  0.84463300  1
  V  V5  1  0.37348800  0.99443100  0.65536700  1
  V  V6  1  0.19157000  0.67921800  0.37195200  1
  V  V7  1  0.30843000  0.67921800  0.87195200  1
  F  F0  1  0.00261800  0.48342700  0.39661100  1
  F  F1  1  0.80085800  0.46601600  0.20782000  1
  F  F2  1  0.49738200  0.48342700  0.89661100  1
  F  F3  1  0.80804900  0.44002900  0.02767700  1
  F  F4  1  0.69914200  0.46601600  0.70782000  1
  F  F5  1  0.69195100  0.44002900  0.52767700  1
  F  F6  1  0.53696100  0.22068600  0.40095500  1
  F  F7  1  0.55814600  0.18442600  0.22886500  1
  F  F8  1  0.16769400  0.18502700  0.23405800  1
  F  F9  1  0.84848300  0.13490000  0.34804700  1
  F  F10  1  0.19654600  0.18568200  0.06169000  1
  F  F11  1  0.96303900  0.22068600  0.90095500  1
  F  F12  1  0.58043100  0.13838900  0.05020600  1
  F  F13  1  0.87292700  0.10369000  0.14455200  1
  F  F14  1  0.94185400  0.18442600  0.72886500  1
  F  F15  1  0.33230600  0.18502700  0.73405800  1
  F  F16  1  0.65151700  0.13490000  0.84804700  1
  F  F17  1  0.30345400  0.18568200  0.56169000  1
  F  F18  1  0.91956900  0.13838900  0.55020600  1
  F  F19  1  0.62707300  0.10369000  0.64455200  1
  F  F20  1  0.37292700  0.89631000  0.35544800  1
  F  F21  1  0.08043100  0.86161100  0.44979400  1
  F  F22  1  0.69654600  0.81431800  0.43831000  1
  F  F23  1  0.34848300  0.86510000  0.15195300  1
  F  F24  1  0.66769400  0.81497300  0.26594200  1
  F  F25  1  0.05814600  0.81557400  0.27113500  1
  F  F26  1  0.12707300  0.89631000  0.85544800  1
  F  F27  1  0.41956900  0.86161100  0.94979400  1
  F  F28  1  0.03696100  0.77931400  0.09904500  1
  F  F29  1  0.80345400  0.81431800  0.93831000  1
  F  F30  1  0.15151700  0.86510000  0.65195300  1
  F  F31  1  0.83230600  0.81497300  0.76594200  1
  F  F32  1  0.44185400  0.81557400  0.77113500  1
  F  F33  1  0.46303900  0.77931400  0.59904500  1
  F  F34  1  0.30804900  0.55997100  0.47232300  1
  F  F35  1  0.30085800  0.53398400  0.29218000  1
  F  F36  1  0.19195100  0.55997100  0.97232300  1
  F  F37  1  0.50261800  0.51657300  0.10338900  1
  F  F38  1  0.19914200  0.53398400  0.79218000  1
  F  F39  1  0.99738200  0.51657300  0.60338900  1
loop_
_geom_bond_atom_site_label_1
_geom_bond_atom_site_label_2
_geom_bond_distance
_geom_bond_site_symmetry_2
F0 V6 1.913177 1_555
F0 Li0 2.031371 1_455
F0 Li2 2.093391 1_555
F1 V0 1.770674 1_555
F2 V7 1.913177 1_555
F2 Li1 2.031371 1_555
F2 Li3 2.093391 1_555
F3 V0 1.837399 1_555
F3 Li1 1.908476 1_554
F4 V1 1.770674 1_555
F5 V1 1.837399 1_555
F5 Li0 1.908476 1_555
F6 V2 1.812624 1_555
F6 Li0 2.309163 1_555
F7 V0 1.946160 1_555
F7 V2 2.054534 1_555
F8 V3 1.795312 1_545
F9 V2 1.859655 1_555
F9 Li2 2.012160 1_655
F10 V3 1.858995 1_545
F10 Li6 2.186466 1_555
F11 V4 1.812624 1_555
F11 Li1 2.309163 1_555
F12 V0 1.909386 1_555
F12 Li3 2.003353 1_554
F12 Li4 2.010008 1_545
F13 V0 1.954559 1_555
F13 V3 2.022646 1_645
F14 V1 1.946160 1_555
F14 V4 2.054534 1_555
F15 V5 1.795312 1_545
F16 V4 1.859655 1_555
F16 Li3 2.012160 1_555
F17 V5 1.858995 1_545
F17 Li7 2.186466 1_555
F18 V1 1.909386 1_555
F18 Li2 2.003353 1_655
F18 Li5 2.010008 1_545
F19 V1 1.954559 1_555
F19 V5 2.022646 1_545
F20 V6 1.954559 1_555
F20 V2 2.022646 1_565
F21 V6 1.909386 1_555
F21 Li5 2.003353 1_455
F21 Li2 2.010008 1_565
F22 V2 1.858995 1_565
F22 Li0 2.186466 1_555
F23 V3 1.859655 1_555
F23 Li4 2.012160 1_555
F24 V2 1.795312 1_565
F25 V6 1.946160 1_555
F25 V3 2.054534 1_555
F26 V7 1.954559 1_555
F26 V4 2.022646 1_465
F27 V7 1.909386 1_555
F27 Li4 2.003353 1_556
F27 Li3 2.010008 1_565
F28 V3 1.812624 1_555
F28 Li6 2.309163 1_555
F29 V4 1.858995 1_565
F29 Li1 2.186466 1_555
F30 V5 1.859655 1_555
F30 Li5 2.012160 1_455
F31 V4 1.795312 1_565
F32 V7 1.946160 1_555
F32 V5 2.054534 1_555
F33 V5 1.812624 1_555
F33 Li7 2.309163 1_555
F34 V6 1.837399 1_555
F34 Li7 1.908476 1_555
F35 V6 1.770674 1_555
F36 V7 1.837399 1_555
F36 Li6 1.908476 1_556
F37 V0 1.913177 1_555
F37 Li6 2.031371 1_555
F37 Li4 2.093391 1_555
F38 V7 1.770674 1_555
F39 V1 1.913177 1_555
F39 Li7 2.031371 1_655
F39 Li5 2.093391 1_555
