# generated using pymatgen
data_Li6FeO5F
_symmetry_space_group_name_H-M   'P 1'
_cell_length_a   5.53055200
_cell_length_b   5.62061638
_cell_length_c   10.54690067
_cell_angle_alpha   91.38646010
_cell_angle_beta   89.86866436
_cell_angle_gamma   119.09355326
_symmetry_Int_Tables_number   1
_chemical_formula_structural   Li6FeO5F
_chemical_formula_sum   'Li12 Fe2 O10 F2'
_cell_volume   286.38483051
_cell_formula_units_Z   2
loop_
 _symmetry_equiv_pos_site_id
 _symmetry_equiv_pos_as_xyz
  1  'x, y, z'
loop_
 _atom_site_type_symbol
 _atom_site_label
 _atom_site_symmetry_multiplicity
 _atom_site_fract_x
 _atom_site_fract_y
 _atom_site_fract_z
 _atom_site_occupancy
  Li  Li0  1  0.97857200  0.31976800  0.23755600  1
  Li  Li1  1  0.65667900  0.33029500  0.07095700  1
  Li  Li2  1  0.68473200  0.32545300  0.56764400  1
  Li  Li3  1  0.73934000  0.71656700  0.23597900  1
  Li  Li4  1  0.33670000  0.97597000  0.25774400  1
  Li  Li5  1  0.38455900  0.38131700  0.36422300  1
  Li  Li6  1  0.63459600  0.96183900  0.74767200  1
  Li  Li7  1  0.33675800  0.32496000  0.74072600  1
  Li  Li8  1  0.34705400  0.66552000  0.06768100  1
  Li  Li9  1  0.32533400  0.65803800  0.57453100  1
  Li  Li10  1  0.99411700  0.37920800  0.86269900  1
  Li  Li11  1  0.98993400  0.72333500  0.74339600  1
  Fe  Fe0  1  0.00864400  0.00150400  0.99919900  1
  Fe  Fe1  1  0.99926900  0.99827600  0.49921300  1
  O  O0  1  0.98590200  0.02877700  0.82867900  1
  O  O1  1  0.02795900  0.03884000  0.32941500  1
  O  O2  1  0.68258800  0.97319300  0.55456800  1
  O  O3  1  0.99468400  0.70065700  0.56158400  1
  O  O4  1  0.65055700  0.34025600  0.26606300  1
  O  O5  1  0.71462200  0.69359900  0.04858600  1
  O  O6  1  0.32045000  0.30239100  0.54423900  1
  O  O7  1  0.28756200  0.64367200  0.76504000  1
  O  O8  1  0.00802100  0.31714700  0.04361100  1
  O  O9  1  0.29682600  0.99432400  0.07344000  1
  F  F0  1  0.68096000  0.33393100  0.76632800  1
  F  F1  1  0.34766100  0.64454100  0.26689600  1
loop_
_geom_bond_atom_site_label_1
_geom_bond_atom_site_label_2
_geom_bond_distance
_geom_bond_site_symmetry_2
Li0 O4 1.895681 1_555
Li0 O1 2.000272 1_655
Li0 O8 2.051886 1_655
Li1 O5 1.927357 1_555
Li1 O9 1.968464 1_545
Li1 O8 2.000096 1_655
Li1 O4 2.057819 1_555
Li2 O3 1.969880 1_555
Li2 O6 1.970646 1_555
Li2 O2 1.975652 1_545
Li3 O4 1.958881 1_555
Li3 O1 1.977168 1_665
Li3 O5 1.978206 1_555
Li4 O4 1.936174 1_565
Li4 O9 1.967629 1_555
Li4 O1 2.044450 1_565
Li5 O4 1.897599 1_555
Li5 O6 1.952419 1_555
Li5 O1 2.001741 1_555
Li6 O7 1.895174 1_555
Li6 O0 1.981821 1_565
Li6 O2 2.051779 1_555
Li7 O7 1.949405 1_555
Li7 O6 2.072627 1_555
Li7 O0 2.078988 1_455
Li8 O8 1.954991 1_555
Li8 O5 1.971199 1_555
Li8 O9 1.997497 1_555
Li9 O2 1.923146 1_555
Li9 O3 1.961838 1_455
Li9 O6 2.003809 1_555
Li9 O7 2.019130 1_555
Li10 O7 1.903873 1_655
Li10 O8 1.956336 1_656
Li10 O0 1.972088 1_555
Li11 O3 1.919673 1_555
Li11 O7 1.919759 1_655
Li11 O0 1.928539 1_565
Fe0 O5 1.792652 1_446
Fe0 O9 1.795760 1_546
Fe0 O0 1.818487 1_455
Fe0 O8 1.825542 1_556
Fe1 O2 1.785322 1_555
Fe1 O3 1.800989 1_555
Fe1 O1 1.807637 1_665
Fe1 O6 1.820559 1_665
F0 Li7 1.899369 1_555
F0 Li10 1.914258 1_555
F0 Li6 1.984231 1_545
F0 Li11 2.038502 1_555
F0 Li2 2.095176 1_555
F1 Li4 1.897813 1_555
F1 Li5 1.911089 1_555
F1 Li0 1.986617 1_455
F1 Li3 2.028050 1_555
F1 Li8 2.107355 1_555
