# generated using pymatgen
data_BaNa4O3
_symmetry_space_group_name_H-M   'P 1'
_cell_length_a   7.18188299
_cell_length_b   7.18188299
_cell_length_c   8.27773501
_cell_angle_alpha   72.75855665
_cell_angle_beta   72.75855665
_cell_angle_gamma   47.60522987
_symmetry_Int_Tables_number   1
_chemical_formula_structural   BaNa4O3
_chemical_formula_sum   'Ba2 Na8 O6'
_cell_volume   298.31367380
_cell_formula_units_Z   2
loop_
 _symmetry_equiv_pos_site_id
 _symmetry_equiv_pos_as_xyz
  1  'x, y, z'
loop_
 _atom_site_type_symbol
 _atom_site_label
 _atom_site_symmetry_multiplicity
 _atom_site_fract_x
 _atom_site_fract_y
 _atom_site_fract_z
 _atom_site_occupancy
  Ba  Ba0  1  0.73450000  0.29483400  0.71440300  1
  Ba  Ba1  1  0.29483400  0.73450000  0.21440300  1
  Na  Na0  1  0.04307500  0.69318100  0.94261700  1
  Na  Na1  1  0.69318100  0.04307500  0.44261700  1
  Na  Na2  1  0.12212300  0.49507900  0.60378600  1
  Na  Na3  1  0.49172300  0.90796200  0.83278400  1
  Na  Na4  1  0.49507900  0.12212300  0.10378600  1
  Na  Na5  1  0.90796200  0.49172300  0.33278400  1
  Na  Na6  1  0.33161300  0.98500000  0.49245200  1
  Na  Na7  1  0.98500000  0.33161300  0.99245200  1
  O  O0  1  0.33940400  0.31801100  0.83578600  1
  O  O1  1  0.31801100  0.33940400  0.33578600  1
  O  O2  1  0.70924400  0.68879400  0.59389100  1
  O  O3  1  0.06850900  0.99183000  0.93665100  1
  O  O4  1  0.68879400  0.70924400  0.09389100  1
  O  O5  1  0.99183000  0.06850900  0.43665100  1
loop_
_geom_bond_atom_site_label_1
_geom_bond_atom_site_label_2
_geom_bond_distance
_geom_bond_site_symmetry_2
Ba0 O2 2.602970 1_555
Ba0 O0 2.619350 1_555
Ba0 O5 2.643750 1_555
Ba0 O3 2.660460 1_645
Ba1 O4 2.602970 1_555
Ba1 O1 2.619350 1_555
Ba1 O3 2.643750 1_554
Ba1 O5 2.660460 1_465
Na0 O3 2.257524 1_555
Na0 O0 2.266168 1_555
Na0 O4 2.420004 1_456
Na1 O5 2.257524 1_555
Na1 O1 2.266168 1_555
Na1 O2 2.420004 1_545
Na2 O2 2.290948 1_455
Na2 O0 2.322323 1_555
Na2 O1 2.376941 1_555
Na3 O2 2.350869 1_555
Na3 O0 2.356476 1_565
Na3 O4 2.443884 1_556
Na3 O3 2.574789 1_555
Na4 O4 2.290948 1_545
Na4 O1 2.322323 1_555
Na4 O0 2.376941 1_554
Na5 O4 2.350869 1_555
Na5 O1 2.356476 1_655
Na5 O2 2.443884 1_555
Na5 O5 2.574789 1_555
Na6 O5 2.249096 1_465
Na6 O2 2.257683 1_555
Na6 O1 2.439859 1_565
Na7 O3 2.249096 1_645
Na7 O4 2.257683 1_556
Na7 O0 2.439859 1_655
