# generated using pymatgen
data_RbVH24(SO10)2
_symmetry_space_group_name_H-M   'P 1'
_cell_length_a   12.40314643
_cell_length_b   12.40314643
_cell_length_c   12.40314643
_cell_angle_alpha   90.00000000
_cell_angle_beta   90.00000000
_cell_angle_gamma   90.00000000
_symmetry_Int_Tables_number   1
_chemical_formula_structural   RbVH24(SO10)2
_chemical_formula_sum   'Rb4 V4 H96 S8 O80'
_cell_volume   1908.07575354
_cell_formula_units_Z   4
loop_
 _symmetry_equiv_pos_site_id
 _symmetry_equiv_pos_as_xyz
  1  'x, y, z'
loop_
 _atom_site_type_symbol
 _atom_site_label
 _atom_site_symmetry_multiplicity
 _atom_site_fract_x
 _atom_site_fract_y
 _atom_site_fract_z
 _atom_site_occupancy
  Rb  Rb0  1  0.00000000  0.00000000  0.50000000  1
  Rb  Rb1  1  0.00000000  0.50000000  0.00000000  1
  Rb  Rb2  1  0.50000000  0.00000000  0.00000000  1
  Rb  Rb3  1  0.50000000  0.50000000  0.50000000  1
  V  V0  1  0.50000000  0.50000000  0.00000000  1
  V  V1  1  0.50000000  0.00000000  0.50000000  1
  V  V2  1  0.00000000  0.50000000  0.50000000  1
  V  V3  1  0.00000000  0.00000000  0.00000000  1
  H  H0  1  0.22020662  0.51721144  0.22074476  1
  H  H1  1  0.77979338  0.01721144  0.27925524  1
  H  H2  1  0.27979338  0.48278856  0.72074476  1
  H  H3  1  0.72020662  0.98278856  0.77925524  1
  H  H4  1  0.22074476  0.22020662  0.51721144  1
  H  H5  1  0.27925524  0.77979338  0.01721144  1
  H  H6  1  0.72074476  0.27979338  0.48278856  1
  H  H7  1  0.77925524  0.72020662  0.98278856  1
  H  H8  1  0.51721144  0.22074476  0.22020662  1
  H  H9  1  0.01721144  0.27925524  0.77979338  1
  H  H10  1  0.48278856  0.72074476  0.27979338  1
  H  H11  1  0.98278856  0.77925524  0.72020662  1
  H  H12  1  0.77979338  0.48278856  0.77925524  1
  H  H13  1  0.22020662  0.98278856  0.72074476  1
  H  H14  1  0.72020662  0.51721144  0.27925524  1
  H  H15  1  0.27979338  0.01721144  0.22074476  1
  H  H16  1  0.77925524  0.77979338  0.48278856  1
  H  H17  1  0.72074476  0.22020662  0.98278856  1
  H  H18  1  0.27925524  0.72020662  0.51721144  1
  H  H19  1  0.22074476  0.27979338  0.01721144  1
  H  H20  1  0.48278856  0.77925524  0.77979338  1
  H  H21  1  0.98278856  0.72074476  0.22020662  1
  H  H22  1  0.51721144  0.27925524  0.72020662  1
  H  H23  1  0.01721144  0.22074476  0.27979338  1
  H  H24  1  0.16300183  0.62755644  0.20547056  1
  H  H25  1  0.83699817  0.12755644  0.29452944  1
  H  H26  1  0.33699817  0.37244356  0.70547056  1
  H  H27  1  0.66300183  0.87244356  0.79452944  1
  H  H28  1  0.20547056  0.16300183  0.62755644  1
  H  H29  1  0.29452944  0.83699817  0.12755644  1
  H  H30  1  0.70547056  0.33699817  0.37244356  1
  H  H31  1  0.79452944  0.66300183  0.87244356  1
  H  H32  1  0.62755644  0.20547056  0.16300183  1
  H  H33  1  0.12755644  0.29452944  0.83699817  1
  H  H34  1  0.37244356  0.70547056  0.33699817  1
  H  H35  1  0.87244356  0.79452944  0.66300183  1
  H  H36  1  0.83699817  0.37244356  0.79452944  1
  H  H37  1  0.16300183  0.87244356  0.70547056  1
  H  H38  1  0.66300183  0.62755644  0.29452944  1
  H  H39  1  0.33699817  0.12755644  0.20547056  1
  H  H40  1  0.79452944  0.83699817  0.37244356  1
  H  H41  1  0.70547056  0.16300183  0.87244356  1
  H  H42  1  0.29452944  0.66300183  0.62755644  1
  H  H43  1  0.20547056  0.33699817  0.12755644  1
  H  H44  1  0.37244356  0.79452944  0.83699817  1
  H  H45  1  0.87244356  0.70547056  0.16300183  1
  H  H46  1  0.62755644  0.29452944  0.66300183  1
  H  H47  1  0.12755644  0.20547056  0.33699817  1
  H  H48  1  0.48262501  0.71165438  0.93790768  1
  H  H49  1  0.51737499  0.21165438  0.56209232  1
  H  H50  1  0.01737499  0.28834562  0.43790768  1
  H  H51  1  0.98262501  0.78834562  0.06209232  1
  H  H52  1  0.93790768  0.48262501  0.71165438  1
  H  H53  1  0.56209232  0.51737499  0.21165438  1
  H  H54  1  0.43790768  0.01737499  0.28834562  1
  H  H55  1  0.06209232  0.98262501  0.78834562  1
  H  H56  1  0.71165438  0.93790768  0.48262501  1
  H  H57  1  0.21165438  0.56209232  0.51737499  1
  H  H58  1  0.28834562  0.43790768  0.01737499  1
  H  H59  1  0.78834562  0.06209232  0.98262501  1
  H  H60  1  0.51737499  0.28834562  0.06209232  1
  H  H61  1  0.48262501  0.78834562  0.43790768  1
  H  H62  1  0.98262501  0.71165438  0.56209232  1
  H  H63  1  0.01737499  0.21165438  0.93790768  1
  H  H64  1  0.06209232  0.51737499  0.28834562  1
  H  H65  1  0.43790768  0.48262501  0.78834562  1
  H  H66  1  0.56209232  0.98262501  0.71165438  1
  H  H67  1  0.93790768  0.01737499  0.21165438  1
  H  H68  1  0.28834562  0.06209232  0.51737499  1
  H  H69  1  0.78834562  0.43790768  0.48262501  1
  H  H70  1  0.71165438  0.56209232  0.98262501  1
  H  H71  1  0.21165438  0.93790768  0.01737499  1
  H  H72  1  0.52516815  0.70681950  0.06375763  1
  H  H73  1  0.47483185  0.20681950  0.43624237  1
  H  H74  1  0.97483185  0.29318050  0.56375763  1
  H  H75  1  0.02516815  0.79318050  0.93624237  1
  H  H76  1  0.06375763  0.52516815  0.70681950  1
  H  H77  1  0.43624237  0.47483185  0.20681950  1
  H  H78  1  0.56375763  0.97483185  0.29318050  1
  H  H79  1  0.93624237  0.02516815  0.79318050  1
  H  H80  1  0.70681950  0.06375763  0.52516815  1
  H  H81  1  0.20681950  0.43624237  0.47483185  1
  H  H82  1  0.29318050  0.56375763  0.97483185  1
  H  H83  1  0.79318050  0.93624237  0.02516815  1
  H  H84  1  0.47483185  0.29318050  0.93624237  1
  H  H85  1  0.52516815  0.79318050  0.56375763  1
  H  H86  1  0.02516815  0.70681950  0.43624237  1
  H  H87  1  0.97483185  0.20681950  0.06375763  1
  H  H88  1  0.93624237  0.47483185  0.29318050  1
  H  H89  1  0.56375763  0.52516815  0.79318050  1
  H  H90  1  0.43624237  0.02516815  0.70681950  1
  H  H91  1  0.06375763  0.97483185  0.20681950  1
  H  H92  1  0.29318050  0.93624237  0.47483185  1
  H  H93  1  0.79318050  0.56375763  0.52516815  1
  H  H94  1  0.70681950  0.43624237  0.02516815  1
  H  H95  1  0.20681950  0.06375763  0.97483185  1
  S  S0  1  0.17207684  0.82792316  0.32792316  1
  S  S1  1  0.82792316  0.32792316  0.17207684  1
  S  S2  1  0.32792316  0.17207684  0.82792316  1
  S  S3  1  0.67207684  0.67207684  0.67207684  1
  S  S4  1  0.82792316  0.17207684  0.67207684  1
  S  S5  1  0.17207684  0.67207684  0.82792316  1
  S  S6  1  0.67207684  0.82792316  0.17207684  1
  S  S7  1  0.32792316  0.32792316  0.32792316  1
  O  O0  1  0.24129446  0.75870554  0.25870554  1
  O  O1  1  0.75870554  0.25870554  0.24129446  1
  O  O2  1  0.25870554  0.24129446  0.75870554  1
  O  O3  1  0.74129446  0.74129446  0.74129446  1
  O  O4  1  0.75870554  0.24129446  0.74129446  1
  O  O5  1  0.24129446  0.74129446  0.75870554  1
  O  O6  1  0.74129446  0.75870554  0.24129446  1
  O  O7  1  0.25870554  0.25870554  0.25870554  1
  O  O8  1  0.06039878  0.78190383  0.33482099  1
  O  O9  1  0.93960122  0.28190383  0.16517901  1
  O  O10  1  0.43960122  0.21809617  0.83482099  1
  O  O11  1  0.56039878  0.71809617  0.66517901  1
  O  O12  1  0.33482099  0.06039878  0.78190383  1
  O  O13  1  0.16517901  0.93960122  0.28190383  1
  O  O14  1  0.83482099  0.43960122  0.21809617  1
  O  O15  1  0.66517901  0.56039878  0.71809617  1
  O  O16  1  0.78190383  0.33482099  0.06039878  1
  O  O17  1  0.28190383  0.16517901  0.93960122  1
  O  O18  1  0.21809617  0.83482099  0.43960122  1
  O  O19  1  0.71809617  0.66517901  0.56039878  1
  O  O20  1  0.93960122  0.21809617  0.66517901  1
  O  O21  1  0.06039878  0.71809617  0.83482099  1
  O  O22  1  0.56039878  0.78190383  0.16517901  1
  O  O23  1  0.43960122  0.28190383  0.33482099  1
  O  O24  1  0.66517901  0.93960122  0.21809617  1
  O  O25  1  0.83482099  0.06039878  0.71809617  1
  O  O26  1  0.16517901  0.56039878  0.78190383  1
  O  O27  1  0.33482099  0.43960122  0.28190383  1
  O  O28  1  0.21809617  0.66517901  0.93960122  1
  O  O29  1  0.71809617  0.83482099  0.06039878  1
  O  O30  1  0.78190383  0.16517901  0.56039878  1
  O  O31  1  0.28190383  0.33482099  0.43960122  1
  O  O32  1  0.15098083  0.54977941  0.19854212  1
  O  O33  1  0.84901917  0.04977941  0.30145788  1
  O  O34  1  0.34901917  0.45022059  0.69854212  1
  O  O35  1  0.65098083  0.95022059  0.80145788  1
  O  O36  1  0.19854212  0.15098083  0.54977941  1
  O  O37  1  0.30145788  0.84901917  0.04977941  1
  O  O38  1  0.69854212  0.34901917  0.45022059  1
  O  O39  1  0.80145788  0.65098083  0.95022059  1
  O  O40  1  0.54977941  0.19854212  0.15098083  1
  O  O41  1  0.04977941  0.30145788  0.84901917  1
  O  O42  1  0.45022059  0.69854212  0.34901917  1
  O  O43  1  0.95022059  0.80145788  0.65098083  1
  O  O44  1  0.84901917  0.45022059  0.80145788  1
  O  O45  1  0.15098083  0.95022059  0.69854212  1
  O  O46  1  0.65098083  0.54977941  0.30145788  1
  O  O47  1  0.34901917  0.04977941  0.19854212  1
  O  O48  1  0.80145788  0.84901917  0.45022059  1
  O  O49  1  0.69854212  0.15098083  0.95022059  1
  O  O50  1  0.30145788  0.65098083  0.54977941  1
  O  O51  1  0.19854212  0.34901917  0.04977941  1
  O  O52  1  0.45022059  0.80145788  0.84901917  1
  O  O53  1  0.95022059  0.69854212  0.15098083  1
  O  O54  1  0.54977941  0.30145788  0.65098083  1
  O  O55  1  0.04977941  0.19854212  0.34901917  1
  O  O56  1  0.50084629  0.66256691  0.00070806  1
  O  O57  1  0.49915371  0.16256691  0.49929194  1
  O  O58  1  0.99915371  0.33743309  0.50070806  1
  O  O59  1  0.00084629  0.83743309  0.99929194  1
  O  O60  1  0.00070806  0.50084629  0.66256691  1
  O  O61  1  0.49929194  0.49915371  0.16256691  1
  O  O62  1  0.50070806  0.99915371  0.33743309  1
  O  O63  1  0.99929194  0.00084629  0.83743309  1
  O  O64  1  0.66256691  0.00070806  0.50084629  1
  O  O65  1  0.16256691  0.49929194  0.49915371  1
  O  O66  1  0.33743309  0.50070806  0.99915371  1
  O  O67  1  0.83743309  0.99929194  0.00084629  1
  O  O68  1  0.49915371  0.33743309  0.99929194  1
  O  O69  1  0.50084629  0.83743309  0.50070806  1
  O  O70  1  0.00084629  0.66256691  0.49929194  1
  O  O71  1  0.99915371  0.16256691  0.00070806  1
  O  O72  1  0.99929194  0.49915371  0.33743309  1
  O  O73  1  0.50070806  0.50084629  0.83743309  1
  O  O74  1  0.49929194  0.00084629  0.66256691  1
  O  O75  1  0.00070806  0.99915371  0.16256691  1
  O  O76  1  0.33743309  0.99929194  0.49915371  1
  O  O77  1  0.83743309  0.50070806  0.50084629  1
  O  O78  1  0.66256691  0.49929194  0.00084629  1
  O  O79  1  0.16256691  0.00070806  0.99915371  1
loop_
_geom_bond_atom_site_label_1
_geom_bond_atom_site_label_2
_geom_bond_distance
_geom_bond_site_symmetry_2
H0 O32 0.988044 1_555
H1 O33 0.988044 1_555
H2 O34 0.988044 1_555
H3 O35 0.988044 1_555
H4 O36 0.988044 1_555
H5 O37 0.988044 1_555
H6 O38 0.988044 1_555
H7 O39 0.988044 1_555
H8 O40 0.988044 1_555
H9 O41 0.988044 1_555
H10 O42 0.988044 1_555
H11 O43 0.988044 1_555
H12 O44 0.988044 1_555
H13 O45 0.988044 1_555
H14 O46 0.988044 1_555
H15 O47 0.988044 1_555
H16 O48 0.988044 1_555
H17 O49 0.988044 1_555
H18 O50 0.988044 1_555
H19 O51 0.988044 1_555
H20 O52 0.988044 1_555
H21 O53 0.988044 1_555
H22 O54 0.988044 1_555
H23 O55 0.988044 1_555
H24 O32 0.979909 1_555
H25 O33 0.979909 1_555
H26 O34 0.979909 1_555
H27 O35 0.979909 1_555
H28 O36 0.979909 1_555
H29 O37 0.979909 1_555
H30 O38 0.979909 1_555
H31 O39 0.979909 1_555
H32 O40 0.979909 1_555
H33 O41 0.979909 1_555
H34 O42 0.979909 1_555
H35 O43 0.979909 1_555
H36 O44 0.979909 1_555
H37 O45 0.979909 1_555
H38 O46 0.979909 1_555
H39 O47 0.979909 1_555
H40 O48 0.979909 1_555
H41 O49 0.979909 1_555
H42 O50 0.979909 1_555
H43 O51 0.979909 1_555
H44 O52 0.979909 1_555
H45 O53 0.979909 1_555
H46 O54 0.979909 1_555
H47 O55 0.979909 1_555
H48 O56 1.014141 1_556
H48 O52 1.617928 1_555
H49 O57 1.014141 1_555
H49 O54 1.617928 1_555
H50 O58 1.014141 1_455
H50 O55 1.617928 1_555
H51 O59 1.014141 1_654
H51 O53 1.617928 1_555
H52 O60 1.014141 1_655
H52 O44 1.617928 1_555
H53 O61 1.014141 1_555
H53 O46 1.617928 1_555
H54 O62 1.014141 1_545
H54 O47 1.617928 1_555
H55 O63 1.014141 1_465
H55 O45 1.617928 1_555
H56 O64 1.014141 1_565
H56 O48 1.617928 1_555
H57 O65 1.014141 1_555
H57 O50 1.617928 1_555
H58 O66 1.014141 1_554
H58 O51 1.617928 1_555
H59 O67 1.014141 1_546
H59 O49 1.617928 1_555
H60 O68 1.014141 1_554
H60 O40 1.617928 1_555
H61 O69 1.014141 1_555
H61 O42 1.617928 1_555
H62 O70 1.014141 1_655
H62 O43 1.617928 1_555
H63 O71 1.014141 1_456
H63 O41 1.617928 1_555
H64 O72 1.014141 1_455
H64 O32 1.617928 1_555
H65 O73 1.014141 1_555
H65 O34 1.617928 1_555
H66 O74 1.014141 1_565
H66 O35 1.617928 1_555
H67 O75 1.014141 1_645
H67 O33 1.617928 1_555
H68 O76 1.014141 1_545
H68 O36 1.617928 1_555
H69 O77 1.014141 1_555
H69 O38 1.617928 1_555
H70 O78 1.014141 1_556
H70 O39 1.617928 1_555
H71 O79 1.014141 1_564
H71 O37 1.617928 1_555
H72 O56 1.001902 1_555
H72 O22 1.625009 1_555
H73 O57 1.001902 1_555
H73 O23 1.625009 1_555
H74 O58 1.001902 1_555
H74 O20 1.625009 1_555
H75 O59 1.001902 1_555
H75 O21 1.625009 1_555
H76 O60 1.001902 1_555
H76 O26 1.625009 1_555
H77 O61 1.001902 1_555
H77 O27 1.625009 1_555
H78 O62 1.001902 1_555
H78 O24 1.625009 1_555
H79 O63 1.001902 1_555
H79 O25 1.625009 1_555
H80 O64 1.001902 1_555
H80 O30 1.625009 1_555
H81 O65 1.001902 1_555
H81 O31 1.625009 1_555
H82 O66 1.001902 1_555
H82 O28 1.625009 1_555
H83 O67 1.001902 1_555
H83 O29 1.625009 1_555
H84 O68 1.001902 1_555
H84 O10 1.625009 1_555
H85 O69 1.001902 1_555
H85 O11 1.625009 1_555
H86 O70 1.001902 1_555
H86 O8 1.625009 1_555
H87 O71 1.001902 1_555
H87 O9 1.625009 1_555
H88 O72 1.001902 1_555
H88 O14 1.625009 1_555
H89 O73 1.001902 1_555
H89 O15 1.625009 1_555
H90 O74 1.001902 1_555
H90 O12 1.625009 1_555
H91 O75 1.001902 1_555
H91 O13 1.625009 1_555
H92 O76 1.001902 1_555
H92 O18 1.625009 1_555
H93 O77 1.001902 1_555
H93 O19 1.625009 1_555
H94 O78 1.001902 1_555
H94 O16 1.625009 1_555
H95 O79 1.001902 1_555
H95 O17 1.625009 1_555
O0 S0 1.486994 1_555
O1 S1 1.486994 1_555
O2 S2 1.486994 1_555
O3 S3 1.486994 1_555
O4 S4 1.486994 1_555
O5 S5 1.486994 1_555
O6 S6 1.486994 1_555
O7 S7 1.486994 1_555
O8 S0 1.500594 1_555
O8 Rb0 3.475052 1_565
O9 S1 1.500594 1_555
O9 Rb1 3.475052 1_655
O10 S2 1.500594 1_555
O10 Rb2 3.475052 1_556
O11 S3 1.500594 1_555
O11 Rb3 3.475052 1_555
O12 S2 1.500594 1_555
O12 Rb2 3.475052 1_556
O13 S0 1.500594 1_555
O13 Rb0 3.475052 1_565
O14 S1 1.500594 1_555
O14 Rb1 3.475052 1_655
O15 S3 1.500594 1_555
O15 Rb3 3.475052 1_555
O16 S1 1.500594 1_555
O16 Rb1 3.475052 1_655
O17 S2 1.500594 1_555
O17 Rb2 3.475052 1_556
O18 S0 1.500594 1_555
O18 Rb0 3.475052 1_565
O19 S3 1.500594 1_555
O19 Rb3 3.475052 1_555
O20 S4 1.500594 1_555
O20 Rb0 3.475052 1_655
O21 S5 1.500594 1_555
O21 Rb1 3.475052 1_556
O22 S6 1.500594 1_555
O22 Rb2 3.475052 1_565
O23 S7 1.500594 1_555
O23 Rb3 3.475052 1_555
O24 S6 1.500594 1_555
O24 Rb2 3.475052 1_565
O25 S4 1.500594 1_555
O25 Rb0 3.475052 1_655
O26 S5 1.500594 1_555
O26 Rb1 3.475052 1_556
O27 S7 1.500594 1_555
O27 Rb3 3.475052 1_555
O28 S5 1.500594 1_555
O28 Rb1 3.475052 1_556
O29 S6 1.500594 1_555
O29 Rb2 3.475052 1_565
O30 S4 1.500594 1_555
O30 Rb0 3.475052 1_655
O31 S7 1.500594 1_555
O31 Rb3 3.475052 1_555
O32 Rb1 3.154698 1_555
O33 Rb0 3.154698 1_655
O34 Rb3 3.154698 1_555
O35 Rb2 3.154698 1_566
O36 Rb0 3.154698 1_555
O37 Rb2 3.154698 1_565
O38 Rb3 3.154698 1_555
O39 Rb1 3.154698 1_656
O40 Rb2 3.154698 1_555
O41 Rb1 3.154698 1_556
O42 Rb3 3.154698 1_555
O43 Rb0 3.154698 1_665
O44 Rb1 3.154698 1_656
O45 Rb0 3.154698 1_565
O46 Rb3 3.154698 1_555
O47 Rb2 3.154698 1_555
O48 Rb0 3.154698 1_665
O49 Rb2 3.154698 1_556
O50 Rb3 3.154698 1_555
O51 Rb1 3.154698 1_555
O52 Rb2 3.154698 1_566
O53 Rb1 3.154698 1_655
O54 Rb3 3.154698 1_555
O55 Rb0 3.154698 1_555
O56 V0 2.016388 1_555
O57 V1 2.016388 1_555
O58 V2 2.016388 1_655
O59 V3 2.016388 1_566
O60 V2 2.016388 1_555
O61 V0 2.016388 1_555
O62 V1 2.016388 1_565
O63 V3 2.016388 1_656
O64 V1 2.016388 1_555
O65 V2 2.016388 1_555
O66 V0 2.016388 1_556
O67 V3 2.016388 1_665
O68 V0 2.016388 1_556
O69 V1 2.016388 1_565
O70 V2 2.016388 1_555
O71 V3 2.016388 1_655
O72 V2 2.016388 1_655
O73 V0 2.016388 1_556
O74 V1 2.016388 1_555
O75 V3 2.016388 1_565
O76 V1 2.016388 1_565
O77 V2 2.016388 1_655
O78 V0 2.016388 1_555
O79 V3 2.016388 1_556
