# generated using pymatgen
data_Cr3(OF)2
_symmetry_space_group_name_H-M   'P 1'
_cell_length_a   8.70024400
_cell_length_b   8.36895100
_cell_length_c   10.92516689
_cell_angle_alpha   73.79244913
_cell_angle_beta   90.00000000
_cell_angle_gamma   90.00000000
_symmetry_Int_Tables_number   1
_chemical_formula_structural   Cr3(OF)2
_chemical_formula_sum   'Cr24 O16 F16'
_cell_volume   763.86740507
_cell_formula_units_Z   8
loop_
 _symmetry_equiv_pos_site_id
 _symmetry_equiv_pos_as_xyz
  1  'x, y, z'
loop_
 _atom_site_type_symbol
 _atom_site_label
 _atom_site_symmetry_multiplicity
 _atom_site_fract_x
 _atom_site_fract_y
 _atom_site_fract_z
 _atom_site_occupancy
  Cr  Cr0  1  0.79722100  0.07642800  0.36173400  1
  Cr  Cr1  1  0.42581800  0.09967600  0.37835000  1
  Cr  Cr2  1  0.18511500  0.23397600  0.16814600  1
  Cr  Cr3  1  0.70277900  0.07642800  0.86173400  1
  Cr  Cr4  1  0.51899800  0.31041900  0.06704600  1
  Cr  Cr5  1  0.07418200  0.09967600  0.87835000  1
  Cr  Cr6  1  0.31488500  0.23397600  0.66814600  1
  Cr  Cr7  1  0.92275100  0.45587800  0.26790600  1
  Cr  Cr8  1  0.98100200  0.31041900  0.56704600  1
  Cr  Cr9  1  0.14670200  0.59693000  0.00853100  1
  Cr  Cr10  1  0.64670200  0.40307000  0.49146900  1
  Cr  Cr11  1  0.42275100  0.54412200  0.23209400  1
  Cr  Cr12  1  0.57724900  0.45587800  0.76790600  1
  Cr  Cr13  1  0.35329800  0.59693000  0.50853100  1
  Cr  Cr14  1  0.85329800  0.40307000  0.99146900  1
  Cr  Cr15  1  0.01899800  0.68958100  0.43295400  1
  Cr  Cr16  1  0.07724900  0.54412200  0.73209400  1
  Cr  Cr17  1  0.68511500  0.76602400  0.33185400  1
  Cr  Cr18  1  0.92581800  0.90032400  0.12165000  1
  Cr  Cr19  1  0.48100200  0.68958100  0.93295400  1
  Cr  Cr20  1  0.29722100  0.92357200  0.13826600  1
  Cr  Cr21  1  0.81488500  0.76602400  0.83185400  1
  Cr  Cr22  1  0.57418200  0.90032400  0.62165000  1
  Cr  Cr23  1  0.20277900  0.92357200  0.63826600  1
  O  O0  1  0.10579100  0.06518500  0.07526400  1
  O  O1  1  0.39440000  0.11933600  0.18572800  1
  O  O2  1  0.39420900  0.06518500  0.57526400  1
  O  O3  1  0.10560000  0.11933600  0.68572800  1
  O  O4  1  0.02163100  0.40515600  0.11754000  1
  O  O5  1  0.36628100  0.49763600  0.06576700  1
  O  O6  1  0.86628100  0.50236400  0.43423300  1
  O  O7  1  0.47836900  0.40515600  0.61754000  1
  O  O8  1  0.52163100  0.59484400  0.38246000  1
  O  O9  1  0.13371900  0.49763600  0.56576700  1
  O  O10  1  0.63371900  0.50236400  0.93423300  1
  O  O11  1  0.97836900  0.59484400  0.88246000  1
  O  O12  1  0.89440000  0.88066400  0.31427200  1
  O  O13  1  0.60579100  0.93481500  0.42473600  1
  O  O14  1  0.60560000  0.88066400  0.81427200  1
  O  O15  1  0.89420900  0.93481500  0.92473600  1
  F  F0  1  0.73169400  0.19140700  0.08742000  1
  F  F1  1  0.98987200  0.21627900  0.36347800  1
  F  F2  1  0.76830600  0.19140700  0.58742000  1
  F  F3  1  0.67017900  0.29284300  0.32127600  1
  F  F4  1  0.51012800  0.21627900  0.86347800  1
  F  F5  1  0.30385400  0.32718500  0.32253400  1
  F  F6  1  0.82982100  0.29284300  0.82127600  1
  F  F7  1  0.80385400  0.67281500  0.17746600  1
  F  F8  1  0.19614600  0.32718500  0.82253400  1
  F  F9  1  0.17017900  0.70715700  0.17872400  1
  F  F10  1  0.69614600  0.67281500  0.67746600  1
  F  F11  1  0.48987200  0.78372100  0.13652200  1
  F  F12  1  0.32982100  0.70715700  0.67872400  1
  F  F13  1  0.23169400  0.80859300  0.41258000  1
  F  F14  1  0.01012800  0.78372100  0.63652200  1
  F  F15  1  0.26830600  0.80859300  0.91258000  1
loop_
_geom_bond_atom_site_label_1
_geom_bond_atom_site_label_2
_geom_bond_distance
_geom_bond_site_symmetry_2
Cr0 O12 2.035216 1_545
Cr0 F1 2.047440 1_555
Cr0 O13 2.048615 1_545
Cr0 F3 2.061669 1_555
Cr1 O13 2.054718 1_545
Cr1 O1 2.082574 1_555
Cr1 O2 2.107241 1_555
Cr1 F5 2.115405 1_555
Cr1 F3 2.638064 1_555
Cr2 O4 1.984676 1_555
Cr2 O1 2.042039 1_555
Cr2 O0 2.074044 1_555
Cr2 F5 2.292423 1_555
Cr3 O14 2.035216 1_545
Cr3 F4 2.047440 1_555
Cr3 O15 2.048615 1_545
Cr3 F6 2.061669 1_555
Cr4 O5 2.051401 1_555
Cr4 O1 2.063049 1_555
Cr4 F0 2.083792 1_555
Cr4 O10 2.093060 1_554
Cr4 F4 2.559501 1_554
Cr5 O15 2.054718 1_445
Cr5 O3 2.082574 1_555
Cr5 O0 2.107241 1_556
Cr5 F8 2.115405 1_555
Cr5 F6 2.638064 1_455
Cr6 O7 1.984676 1_555
Cr6 O3 2.042039 1_555
Cr6 O2 2.074044 1_555
Cr6 F8 2.292423 1_555
Cr7 O4 2.002064 1_655
Cr7 O6 2.022228 1_555
Cr7 F1 2.069605 1_555
Cr7 F7 2.083530 1_555
Cr7 F3 2.566373 1_555
Cr8 O9 2.051401 1_655
Cr8 O3 2.063049 1_655
Cr8 F2 2.083792 1_555
Cr8 O6 2.093060 1_555
Cr8 F1 2.559501 1_555
Cr9 O11 2.013873 1_454
Cr9 O4 2.027623 1_555
Cr9 F15 2.078334 1_554
Cr9 O5 2.107386 1_555
Cr9 F9 2.303809 1_555
Cr10 O7 2.013873 1_555
Cr10 O8 2.027623 1_555
Cr10 F2 2.078334 1_555
Cr10 O6 2.107386 1_555
Cr10 F3 2.303809 1_555
Cr11 O8 2.002064 1_555
Cr11 O5 2.022228 1_555
Cr11 F11 2.069605 1_555
Cr11 F5 2.083530 1_555
Cr11 F9 2.566373 1_555
Cr12 O7 2.002064 1_555
Cr12 O10 2.022228 1_555
Cr12 F4 2.069605 1_555
Cr12 F10 2.083530 1_555
Cr12 F6 2.566373 1_555
Cr13 O8 2.013873 1_555
Cr13 O7 2.027623 1_555
Cr13 F13 2.078334 1_555
Cr13 O9 2.107386 1_555
Cr13 F12 2.303809 1_555
Cr14 O4 2.013873 1_656
Cr14 O11 2.027623 1_555
Cr14 F0 2.078334 1_556
Cr14 O10 2.107386 1_555
Cr14 F6 2.303809 1_555
Cr15 O6 2.051401 1_455
Cr15 O12 2.063049 1_455
Cr15 F13 2.083792 1_555
Cr15 O9 2.093060 1_555
Cr15 F14 2.559501 1_555
Cr16 O11 2.002064 1_455
Cr16 O9 2.022228 1_555
Cr16 F14 2.069605 1_555
Cr16 F8 2.083530 1_555
Cr16 F12 2.566373 1_555
Cr17 O8 1.984676 1_555
Cr17 O12 2.042039 1_555
Cr17 O13 2.074044 1_555
Cr17 F7 2.292423 1_555
Cr18 O0 2.054718 1_665
Cr18 O12 2.082574 1_555
Cr18 O15 2.107241 1_554
Cr18 F7 2.115405 1_555
Cr18 F9 2.638064 1_655
Cr19 O10 2.051401 1_555
Cr19 O14 2.063049 1_555
Cr19 F15 2.083792 1_555
Cr19 O5 2.093060 1_556
Cr19 F11 2.559501 1_556
Cr20 O1 2.035216 1_565
Cr20 F11 2.047440 1_555
Cr20 O0 2.048615 1_565
Cr20 F9 2.061669 1_555
Cr21 O11 1.984676 1_555
Cr21 O14 2.042039 1_555
Cr21 O15 2.074044 1_555
Cr21 F10 2.292423 1_555
Cr22 O2 2.054718 1_565
Cr22 O14 2.082574 1_555
Cr22 O13 2.107241 1_555
Cr22 F10 2.115405 1_555
Cr22 F12 2.638064 1_555
Cr23 O3 2.035216 1_565
Cr23 F14 2.047440 1_555
Cr23 O2 2.048615 1_565
Cr23 F12 2.061669 1_555
