# generated using pymatgen
data_FeOF
_symmetry_space_group_name_H-M   'P 1'
_cell_length_a   3.10394100
_cell_length_b   4.71260900
_cell_length_c   14.18401479
_cell_angle_alpha   89.63311746
_cell_angle_beta   90.00000000
_cell_angle_gamma   90.00000000
_symmetry_Int_Tables_number   1
_chemical_formula_structural   FeOF
_chemical_formula_sum   'Fe6 O6 F6'
_cell_volume   207.47469635
_cell_formula_units_Z   6
loop_
 _symmetry_equiv_pos_site_id
 _symmetry_equiv_pos_as_xyz
  1  'x, y, z'
loop_
 _atom_site_type_symbol
 _atom_site_label
 _atom_site_symmetry_multiplicity
 _atom_site_fract_x
 _atom_site_fract_y
 _atom_site_fract_z
 _atom_site_occupancy
  Fe  Fe0  1  0.00000000  0.99112700  0.00951800  1
  Fe  Fe1  1  0.50000000  0.48876700  0.15036000  1
  Fe  Fe2  1  0.00000000  0.00068100  0.33559300  1
  Fe  Fe3  1  0.50000000  0.51160900  0.52048900  1
  Fe  Fe4  1  0.00000000  0.00228700  0.66789800  1
  Fe  Fe5  1  0.50000000  0.49388900  0.81633400  1
  O  O0  1  0.50000000  0.80584800  0.06328500  1
  O  O1  1  0.00000000  0.30111700  0.10009900  1
  O  O2  1  0.00000000  0.70050100  0.56728100  1
  O  O3  1  0.50000000  0.18903700  0.60290100  1
  O  O4  1  0.50000000  0.81342700  0.73153600  1
  O  O5  1  0.00000000  0.30604600  0.76766500  1
  F  F0  1  0.00000000  0.69248800  0.23240600  1
  F  F1  1  0.50000000  0.21419300  0.26684000  1
  F  F2  1  0.50000000  0.78301700  0.40139100  1
  F  F3  1  0.00000000  0.31052100  0.43587200  1
  F  F4  1  0.00000000  0.69669500  0.89787800  1
  F  F5  1  0.50000000  0.19875200  0.93265000  1
loop_
_geom_bond_atom_site_label_1
_geom_bond_atom_site_label_2
_geom_bond_distance
_geom_bond_site_symmetry_2
Fe0 O0 1.934962 1_455
Fe0 O0 1.934962 1_555
Fe0 O1 1.951633 1_565
Fe1 O1 1.925342 1_555
Fe1 O1 1.925342 1_655
Fe1 O0 1.932522 1_555
Fe3 O2 1.910258 1_555
Fe3 O2 1.910258 1_655
Fe3 O3 1.911680 1_555
Fe4 O4 2.001307 1_545
Fe4 O4 2.001307 1_445
Fe4 O3 2.005666 1_555
Fe4 O3 2.005666 1_455
Fe4 O5 2.019313 1_555
Fe4 O2 2.021240 1_545
Fe5 O5 1.917450 1_555
Fe5 O5 1.917450 1_655
Fe5 O4 1.921219 1_555
F0 Fe2 2.068529 1_565
F0 Fe1 2.167701 1_555
F0 Fe1 2.167701 1_455
F1 Fe2 2.087938 1_555
F1 Fe2 2.087938 1_655
F1 Fe1 2.092025 1_555
F2 Fe2 2.078355 1_565
F2 Fe2 2.078355 1_665
F2 Fe3 2.112336 1_555
F3 Fe2 2.044934 1_555
F3 Fe3 2.182136 1_555
F3 Fe3 2.182136 1_455
F4 Fe0 2.112083 1_556
F4 Fe5 2.161942 1_455
F4 Fe5 2.161942 1_555
F5 Fe0 2.130979 1_546
F5 Fe0 2.130979 1_646
F5 Fe5 2.151058 1_555
