# generated using pymatgen
data_Hf2N2O
_symmetry_space_group_name_H-M   'P 1'
_cell_length_a   8.67092707
_cell_length_b   8.67271824
_cell_length_c   8.67700135
_cell_angle_alpha   109.40277472
_cell_angle_beta   109.59508169
_cell_angle_gamma   109.38988822
_symmetry_Int_Tables_number   1
_chemical_formula_structural   Hf2N2O
_chemical_formula_sum   'Hf16 N16 O8'
_cell_volume   502.46529077
_cell_formula_units_Z   8
loop_
 _symmetry_equiv_pos_site_id
 _symmetry_equiv_pos_as_xyz
  1  'x, y, z'
loop_
 _atom_site_type_symbol
 _atom_site_label
 _atom_site_symmetry_multiplicity
 _atom_site_fract_x
 _atom_site_fract_y
 _atom_site_fract_z
 _atom_site_occupancy
  Hf  Hf0  1  0.46974722  0.22381607  0.25574901  1
  Hf  Hf1  1  0.00071607  0.01062618  0.00673146  1
  Hf  Hf2  1  0.50258638  0.50824028  0.01149691  1
  Hf  Hf3  1  0.99457642  0.50839933  0.49807390  1
  Hf  Hf4  1  0.75020276  0.46513737  0.70969187  1
  Hf  Hf5  1  0.24958455  0.03685823  0.78738686  1
  Hf  Hf6  1  0.71103727  0.24799968  0.96940910  1
  Hf  Hf7  1  0.21856278  0.24250915  0.45426370  1
  Hf  Hf8  1  0.97133956  0.71662453  0.25664630  1
  Hf  Hf9  1  0.03696489  0.28554781  0.75428854  1
  Hf  Hf10  1  0.78495773  0.75311893  0.53118382  1
  Hf  Hf11  1  0.27875746  0.73705136  0.02632689  1
  Hf  Hf12  1  0.48770409  0.98816781  0.49677855  1
  Hf  Hf13  1  0.75026093  0.95910757  0.20891515  1
  Hf  Hf14  1  0.24953156  0.53537136  0.28129821  1
  Hf  Hf15  1  0.53451632  0.79323273  0.75266368  1
  N  N0  1  0.46733138  0.23764290  0.51591553  1
  N  N1  1  0.03188392  0.54373922  0.77170739  1
  N  N2  1  0.51015925  0.27246074  0.04369308  1
  N  N3  1  0.01178047  0.96752874  0.23890926  1
  N  N4  1  0.98859237  0.03573494  0.76330118  1
  N  N5  1  0.23015427  0.77573094  0.25836729  1
  N  N6  1  0.72756749  0.46809707  0.45670460  1
  N  N7  1  0.48761147  0.72542250  0.95246835  1
  N  N8  1  0.77241682  0.04298520  0.00651150  1
  N  N9  1  0.96461260  0.45361453  0.22734066  1
  N  N10  1  0.26061143  0.48328410  0.03116036  1
  N  N11  1  0.05119555  0.77382111  0.53707152  1
  N  N12  1  0.24019571  0.27172140  0.22704585  1
  N  N13  1  0.45284060  0.98883999  0.72435692  1
  N  N14  1  0.72698265  0.73640887  0.27032433  1
  N  N15  1  0.53342028  0.75927778  0.49248853  1
  O  O0  1  0.26793324  0.26077238  0.72384402  1
  O  O1  1  0.76518818  0.72526911  0.77918410  1
  O  O2  1  0.55231811  0.01779248  0.27488021  1
  O  O3  1  0.95460526  0.22531140  0.46794911  1
  O  O4  1  0.73622867  0.50910949  0.96028791  1
  O  O5  1  0.23039322  0.95377102  0.98890077  1
  O  O6  1  0.77495126  0.23144606  0.74041309  1
  O  O7  1  0.26997982  0.52841064  0.54627149  1
loop_
_geom_bond_atom_site_label_1
_geom_bond_atom_site_label_2
_geom_bond_distance
_geom_bond_site_symmetry_2
Hf0 N6 2.076695 1_555
Hf0 N12 2.117019 1_555
Hf0 N2 2.129900 1_555
Hf0 O2 2.167843 1_555
Hf0 N0 2.228114 1_555
Hf0 O5 2.258323 1_544
Hf1 N8 2.089053 1_455
Hf1 N12 2.105493 1_555
Hf1 N3 2.145234 1_545
Hf1 N4 2.166084 1_454
Hf1 O1 2.210605 1_444
Hf1 O5 2.245265 1_544
Hf2 N14 2.074889 1_555
Hf2 N10 2.107439 1_555
Hf2 N7 2.141442 1_554
Hf2 N2 2.172596 1_555
Hf2 O4 2.213058 1_554
Hf2 O0 2.260731 1_554
Hf3 N11 2.067621 1_655
Hf3 N6 2.105498 1_555
Hf3 N9 2.139821 1_555
Hf3 N1 2.184367 1_655
Hf3 O7 2.216823 1_655
Hf3 O3 2.272446 1_555
Hf4 O1 2.078266 1_555
Hf4 N1 2.118714 1_655
Hf4 O4 2.131825 1_555
Hf4 N0 2.133612 1_555
Hf4 N6 2.147034 1_555
Hf4 O6 2.198671 1_555
Hf5 N11 2.115883 1_545
Hf5 O5 2.134717 1_545
Hf5 N13 2.135694 1_545
Hf5 O0 2.159988 1_555
Hf5 N2 2.184273 1_556
Hf5 N4 2.198162 1_455
Hf6 N2 2.098063 1_556
Hf6 N8 2.107612 1_556
Hf6 N9 2.113663 1_556
Hf6 N13 2.208109 1_545
Hf6 O6 2.208576 1_555
Hf6 O4 2.232558 1_555
Hf7 N0 2.059685 1_555
Hf7 N3 2.084864 1_545
Hf7 N12 2.129514 1_555
Hf7 O7 2.167089 1_555
Hf7 O0 2.171893 1_555
Hf7 O3 2.289575 1_455
Hf8 N11 2.118043 1_655
Hf8 N5 2.123171 1_655
Hf8 N3 2.152621 1_655
Hf8 N9 2.188015 1_555
Hf8 N14 2.220221 1_555
Hf8 O4 2.231664 1_554
Hf9 N10 2.098273 1_556
Hf9 N4 2.099332 1_455
Hf9 O6 2.113616 1_455
Hf9 O3 2.157723 1_455
Hf9 O0 2.174781 1_555
Hf9 N1 2.209978 1_555
Hf10 N14 2.089862 1_555
Hf10 N15 2.114403 1_555
Hf10 N4 2.154751 1_565
Hf10 N6 2.163740 1_555
Hf10 N11 2.236904 1_655
Hf10 O1 2.298620 1_555
Hf11 N1 2.063510 1_554
Hf11 N7 2.134769 1_554
Hf11 N5 2.135002 1_555
Hf11 O5 2.156754 1_554
Hf11 N10 2.169352 1_555
Hf11 O2 2.334739 1_565
Hf12 N5 2.073197 1_555
Hf12 N13 2.093984 1_555
Hf12 N15 2.140661 1_555
Hf12 N0 2.185134 1_565
Hf12 O2 2.245834 1_565
Hf12 O6 2.267097 1_565
Hf13 N14 2.133554 1_555
Hf13 O2 2.139606 1_565
Hf13 N8 2.152413 1_565
Hf13 O3 2.164798 1_565
Hf13 N3 2.167189 1_655
Hf13 N7 2.187551 1_554
Hf14 N10 2.107457 1_555
Hf14 N12 2.143102 1_555
Hf14 N15 2.150458 1_555
Hf14 N9 2.160062 1_455
Hf14 N5 2.213362 1_555
Hf14 O7 2.268739 1_555
Hf15 N13 2.097075 1_555
Hf15 N7 2.123339 1_555
Hf15 N8 2.148074 1_566
Hf15 N15 2.173785 1_555
Hf15 O7 2.181154 1_555
Hf15 O1 2.228259 1_555
