# generated using pymatgen
data_LiFePO4
_symmetry_space_group_name_H-M   'P 1'
_cell_length_a   5.62009700
_cell_length_b   8.37811600
_cell_length_c   18.73264500
_cell_angle_alpha   90.00000000
_cell_angle_beta   90.00000000
_cell_angle_gamma   90.00000000
_symmetry_Int_Tables_number   1
_chemical_formula_structural   LiFePO4
_chemical_formula_sum   'Li12 Fe12 P12 O48'
_cell_volume   882.04203671
_cell_formula_units_Z   12
loop_
 _symmetry_equiv_pos_site_id
 _symmetry_equiv_pos_as_xyz
  1  'x, y, z'
loop_
 _atom_site_type_symbol
 _atom_site_label
 _atom_site_symmetry_multiplicity
 _atom_site_fract_x
 _atom_site_fract_y
 _atom_site_fract_z
 _atom_site_occupancy
  Li  Li0  1  0.74497800  0.08390800  0.08263200  1
  Li  Li1  1  0.72953600  0.08708600  0.74915200  1
  Li  Li2  1  0.24497800  0.58390800  0.41736800  1
  Li  Li3  1  0.73192100  0.08617000  0.41568500  1
  Li  Li4  1  0.72953600  0.41291400  0.24915200  1
  Li  Li5  1  0.73192100  0.41383000  0.91568500  1
  Li  Li6  1  0.22953600  0.58708600  0.75084800  1
  Li  Li7  1  0.23192100  0.91383000  0.58431500  1
  Li  Li8  1  0.24497800  0.91609200  0.91736800  1
  Li  Li9  1  0.23192100  0.58617000  0.08431500  1
  Li  Li10  1  0.22953600  0.91291400  0.25084800  1
  Li  Li11  1  0.74497800  0.41609200  0.58263200  1
  Fe  Fe0  1  0.73616800  0.75122100  0.66655700  1
  Fe  Fe1  1  0.73616800  0.74877900  0.16655700  1
  Fe  Fe2  1  0.73670200  0.74792100  0.33326400  1
  Fe  Fe3  1  0.23670200  0.24792100  0.16673600  1
  Fe  Fe4  1  0.23670200  0.25207900  0.66673600  1
  Fe  Fe5  1  0.73482700  0.75094000  0.49979400  1
  Fe  Fe6  1  0.23616800  0.25122100  0.83344300  1
  Fe  Fe7  1  0.23482700  0.25094000  0.00020600  1
  Fe  Fe8  1  0.23482700  0.24906000  0.50020600  1
  Fe  Fe9  1  0.23616800  0.24877900  0.33344300  1
  Fe  Fe10  1  0.73670200  0.75207900  0.83326400  1
  Fe  Fe11  1  0.73482700  0.74906000  0.99979400  1
  P  P0  1  0.73780600  0.09798600  0.24964400  1
  P  P1  1  0.73780600  0.40201400  0.74964400  1
  P  P2  1  0.73624800  0.10030400  0.91640300  1
  P  P3  1  0.73624800  0.39969600  0.41640300  1
  P  P4  1  0.73389000  0.39890700  0.08272500  1
  P  P5  1  0.73389000  0.10109300  0.58272500  1
  P  P6  1  0.23389000  0.60109300  0.91727500  1
  P  P7  1  0.23624800  0.89969600  0.08359700  1
  P  P8  1  0.23780600  0.59798600  0.25035600  1
  P  P9  1  0.23389000  0.89890700  0.41727500  1
  P  P10  1  0.23624800  0.60030400  0.58359700  1
  P  P11  1  0.23780600  0.90201400  0.75035600  1
  O  O0  1  0.01551900  0.78711800  0.75025200  1
  O  O1  1  0.95824400  0.28505400  0.41675500  1
  O  O2  1  0.46150100  0.78903800  0.75005700  1
  O  O3  1  0.73336300  0.99764500  0.51463200  1
  O  O4  1  0.45824400  0.78505400  0.08324500  1
  O  O5  1  0.01130500  0.71478200  0.91684000  1
  O  O6  1  0.73336300  0.50235500  0.01463200  1
  O  O7  1  0.23616400  0.49395100  0.18260100  1
  O  O8  1  0.45824400  0.71494600  0.58324500  1
  O  O9  1  0.95824400  0.21494600  0.91675500  1
  O  O10  1  0.73683700  0.50197600  0.34812400  1
  O  O11  1  0.73599000  0.50321800  0.15046500  1
  O  O12  1  0.23787700  0.00529100  0.81837500  1
  O  O13  1  0.51130500  0.21478200  0.58316000  1
  O  O14  1  0.23683700  0.00197600  0.15187600  1
  O  O15  1  0.51130500  0.28521800  0.08316000  1
  O  O16  1  0.51551900  0.21288200  0.24974800  1
  O  O17  1  0.23599000  0.49678200  0.84953500  1
  O  O18  1  0.01130500  0.78521800  0.41684000  1
  O  O19  1  0.23787700  0.49470900  0.31837500  1
  O  O20  1  0.23336300  0.00235500  0.48536800  1
  O  O21  1  0.23336300  0.49764500  0.98536800  1
  O  O22  1  0.73599000  0.99678200  0.65046500  1
  O  O23  1  0.01229400  0.78636900  0.08336400  1
  O  O24  1  0.73546600  0.50459800  0.48388400  1
  O  O25  1  0.73787700  0.50529100  0.68162500  1
  O  O26  1  0.96150100  0.21096200  0.24994300  1
  O  O27  1  0.45719800  0.71504600  0.91709900  1
  O  O28  1  0.73546600  0.99540200  0.98388400  1
  O  O29  1  0.46150100  0.71096200  0.25005700  1
  O  O30  1  0.95719800  0.28495400  0.08290100  1
  O  O31  1  0.23599000  0.00321800  0.34953500  1
  O  O32  1  0.23616400  0.00604900  0.68260100  1
  O  O33  1  0.23546600  0.00459800  0.01611600  1
  O  O34  1  0.96150100  0.28903800  0.74994300  1
  O  O35  1  0.01229400  0.71363100  0.58336400  1
  O  O36  1  0.45719800  0.78495400  0.41709900  1
  O  O37  1  0.73616400  0.99395100  0.31739900  1
  O  O38  1  0.73683700  0.99802400  0.84812400  1
  O  O39  1  0.23683700  0.49802400  0.65187600  1
  O  O40  1  0.51551900  0.28711800  0.74974800  1
  O  O41  1  0.95719800  0.21504600  0.58290100  1
  O  O42  1  0.23546600  0.49540200  0.51611600  1
  O  O43  1  0.73616400  0.50604900  0.81739900  1
  O  O44  1  0.73787700  0.99470900  0.18162500  1
  O  O45  1  0.01551900  0.71288200  0.25025200  1
  O  O46  1  0.51229400  0.28636900  0.41663600  1
  O  O47  1  0.51229400  0.21363100  0.91663600  1
loop_
_geom_bond_atom_site_label_1
_geom_bond_atom_site_label_2
_geom_bond_distance
_geom_bond_site_symmetry_2
Li0 O28 1.993615 1_544
Li0 O44 1.999720 1_545
Li0 O30 2.063907 1_555
Li0 O15 2.137610 1_555
Li1 O22 1.997824 1_545
Li1 O38 1.998950 1_545
Li1 O40 2.062875 1_555
Li1 O34 2.136013 1_555
Li2 O42 1.993615 1_555
Li2 O19 1.999720 1_555
Li2 O36 2.063907 1_555
Li2 O18 2.137610 1_555
Li3 O3 1.996435 1_545
Li3 O37 1.996840 1_545
Li3 O46 2.082589 1_555
Li3 O1 2.096364 1_555
Li4 O11 1.997824 1_555
Li4 O10 1.998950 1_555
Li4 O16 2.062875 1_555
Li4 O26 2.136013 1_555
Li5 O6 1.996435 1_556
Li5 O43 1.996840 1_555
Li5 O47 2.082589 1_555
Li5 O9 2.096364 1_555
Li6 O17 1.997824 1_555
Li6 O39 1.998950 1_555
Li6 O0 2.062875 1_555
Li6 O2 2.136013 1_555
Li7 O20 1.996435 1_565
Li7 O32 1.996840 1_565
Li7 O35 2.082589 1_555
Li7 O8 2.096364 1_555
Li8 O33 1.993615 1_566
Li8 O12 1.999720 1_565
Li8 O27 2.063907 1_555
Li8 O5 2.137610 1_555
Li9 O21 1.996435 1_554
Li9 O7 1.996840 1_555
Li9 O23 2.082589 1_555
Li9 O4 2.096364 1_555
Li10 O31 1.997824 1_565
Li10 O14 1.998950 1_565
Li10 O45 2.062875 1_555
Li10 O29 2.136013 1_555
Li11 O24 1.993615 1_555
Li11 O25 1.999720 1_555
Li11 O41 2.063907 1_555
Li11 O13 2.137610 1_555
Fe0 O22 2.079306 1_555
Fe0 O25 2.079696 1_555
Fe0 O2 2.220338 1_555
Fe0 O35 2.221739 1_655
Fe0 O8 2.228839 1_555
Fe0 O0 2.239056 1_655
Fe1 O11 2.079306 1_555
Fe1 O44 2.079696 1_555
Fe1 O29 2.220338 1_555
Fe1 O23 2.221739 1_655
Fe1 O4 2.228839 1_555
Fe1 O45 2.239056 1_655
Fe2 O10 2.079274 1_555
Fe2 O37 2.082585 1_555
Fe2 O29 2.217551 1_555
Fe2 O18 2.220474 1_655
Fe2 O45 2.227045 1_655
Fe2 O36 2.242793 1_555
Fe3 O14 2.079274 1_555
Fe3 O7 2.082585 1_555
Fe3 O26 2.217551 1_455
Fe3 O15 2.220474 1_555
Fe3 O16 2.227045 1_555
Fe3 O30 2.242793 1_455
Fe4 O39 2.079274 1_555
Fe4 O32 2.082585 1_555
Fe4 O34 2.217551 1_455
Fe4 O13 2.220474 1_555
Fe4 O40 2.227045 1_555
Fe4 O41 2.242793 1_455
Fe5 O24 2.085293 1_555
Fe5 O3 2.085545 1_555
Fe5 O18 2.216219 1_655
Fe5 O36 2.217082 1_555
Fe5 O8 2.225072 1_555
Fe5 O35 2.231627 1_655
Fe6 O17 2.079306 1_555
Fe6 O12 2.079696 1_555
Fe6 O34 2.220338 1_455
Fe6 O47 2.221739 1_555
Fe6 O9 2.228839 1_455
Fe6 O40 2.239056 1_555
Fe7 O33 2.085293 1_555
Fe7 O21 2.085545 1_554
Fe7 O15 2.216219 1_555
Fe7 O30 2.217082 1_455
Fe7 O9 2.225072 1_454
Fe7 O47 2.231627 1_554
Fe8 O42 2.085293 1_555
Fe8 O20 2.085545 1_555
Fe8 O13 2.216219 1_555
Fe8 O41 2.217082 1_455
Fe8 O1 2.225072 1_455
Fe8 O46 2.231627 1_555
Fe9 O31 2.079306 1_555
Fe9 O19 2.079696 1_555
Fe9 O26 2.220338 1_455
Fe9 O46 2.221739 1_555
Fe9 O1 2.228839 1_455
Fe9 O16 2.239056 1_555
Fe10 O38 2.079274 1_555
Fe10 O43 2.082585 1_555
Fe10 O2 2.217551 1_555
Fe10 O5 2.220474 1_655
Fe10 O0 2.227045 1_655
Fe10 O27 2.242793 1_555
Fe11 O28 2.085293 1_555
Fe11 O6 2.085545 1_556
Fe11 O5 2.216219 1_655
Fe11 O27 2.217082 1_555
Fe11 O4 2.225072 1_556
Fe11 O23 2.231627 1_656
O0 P11 1.577122 1_555
O1 P3 1.574540 1_555
O2 P11 1.573678 1_555
O3 P5 1.542153 1_565
O4 P7 1.574540 1_555
O5 P6 1.572322 1_555
O6 P4 1.542153 1_555
O7 P8 1.539723 1_555
O8 P10 1.574540 1_555
O9 P2 1.574540 1_555
O10 P3 1.539569 1_555
O11 P4 1.540820 1_555
O12 P11 1.540198 1_545
O13 P5 1.572322 1_555
O14 P7 1.539569 1_545
O15 P4 1.572322 1_555
O16 P0 1.577122 1_555
O17 P6 1.540820 1_555
O18 P9 1.572322 1_555
O19 P8 1.540198 1_555
O20 P9 1.542153 1_545
O21 P6 1.542153 1_555
O22 P5 1.540820 1_565
O23 P7 1.576607 1_555
O24 P3 1.539608 1_555
O25 P1 1.540198 1_555
O26 P0 1.573678 1_555
O27 P6 1.576877 1_555
O28 P2 1.539608 1_565
O29 P8 1.573678 1_555
O30 P4 1.576877 1_555
O31 P9 1.540820 1_545
O32 P11 1.539723 1_545
O33 P7 1.539608 1_545
O34 P1 1.573678 1_555
O35 P10 1.576607 1_555
O36 P9 1.576877 1_555
O37 P0 1.539723 1_565
O38 P2 1.539569 1_565
O39 P10 1.539569 1_555
O40 P1 1.577122 1_555
O41 P5 1.576877 1_555
O42 P10 1.539608 1_555
O43 P1 1.539723 1_555
O44 P0 1.540198 1_565
O45 P8 1.577122 1_555
O46 P3 1.576607 1_555
O47 P2 1.576607 1_555
