# generated using pymatgen
data_Li5Nb2Ni5O12
_symmetry_space_group_name_H-M   'P 1'
_cell_length_a   9.91434387
_cell_length_b   9.47670509
_cell_length_c   5.14238757
_cell_angle_alpha   79.39050327
_cell_angle_beta   69.90362251
_cell_angle_gamma   30.80606870
_symmetry_Int_Tables_number   1
_chemical_formula_structural   Li5Nb2Ni5O12
_chemical_formula_sum   'Li5 Nb2 Ni5 O12'
_cell_volume   226.10063945
_cell_formula_units_Z   1
loop_
 _symmetry_equiv_pos_site_id
 _symmetry_equiv_pos_as_xyz
  1  'x, y, z'
loop_
 _atom_site_type_symbol
 _atom_site_label
 _atom_site_symmetry_multiplicity
 _atom_site_fract_x
 _atom_site_fract_y
 _atom_site_fract_z
 _atom_site_occupancy
  Li  Li0  1  0.70612700  0.70915900  0.04348100  1
  Li  Li1  1  0.29116700  0.29477800  0.95757500  1
  Li  Li2  1  0.62218500  0.62572300  0.62840700  1
  Li  Li3  1  0.46237800  0.46829400  0.78703700  1
  Li  Li4  1  0.95603400  0.96322100  0.29182000  1
  Nb  Nb0  1  0.12535100  0.12956900  0.12437100  1
  Nb  Nb1  1  0.87326100  0.87694200  0.87568700  1
  Ni  Ni0  1  0.03910600  0.04198100  0.71065500  1
  Ni  Ni1  1  0.53664000  0.54061600  0.21232200  1
  Ni  Ni2  1  0.37398400  0.37825000  0.37471800  1
  Ni  Ni3  1  0.20977400  0.21339200  0.53972800  1
  Ni  Ni4  1  0.78583600  0.78950800  0.46336600  1
  O  O0  1  0.70530100  0.21036400  0.03811100  1
  O  O1  1  0.54015700  0.04742800  0.21544900  1
  O  O2  1  0.96447200  0.44725600  0.29232300  1
  O  O3  1  0.80480500  0.28794400  0.44230300  1
  O  O4  1  0.10677500  0.63963500  0.12173500  1
  O  O5  1  0.63612100  0.11002300  0.63333700  1
  O  O6  1  0.87983700  0.36692600  0.88074000  1
  O  O7  1  0.36416500  0.88274100  0.37440100  1
  O  O8  1  0.20673900  0.70908400  0.54762200  1
  O  O9  1  0.04339100  0.54405300  0.69930000  1
  O  O10  1  0.28367700  0.80915800  0.96794000  1
  O  O11  1  0.44328800  0.96846400  0.79904600  1
loop_
_geom_bond_atom_site_label_1
_geom_bond_atom_site_label_2
_geom_bond_distance
_geom_bond_site_symmetry_2
Li0 O2 2.126155 1_555
Li0 O11 2.126644 1_554
Li0 O7 2.140539 1_555
Li0 O6 2.144538 1_554
Li0 O9 2.174144 1_654
Li0 O1 2.179139 1_565
Li1 O5 2.100502 1_555
Li1 O4 2.104158 1_556
Li1 O9 2.120662 1_555
Li1 O1 2.124114 1_556
Li1 O11 2.138632 1_545
Li1 O2 2.141660 1_456
Li2 O10 2.098265 1_555
Li2 O3 2.102875 1_555
Li2 O11 2.132957 1_555
Li2 O2 2.133114 1_555
Li2 O6 2.137286 1_555
Li2 O7 2.145708 1_555
Li3 O0 2.074683 1_556
Li3 O8 2.078804 1_555
Li3 O10 2.140496 1_555
Li3 O3 2.145188 1_555
Li3 O4 2.248076 1_556
Li3 O5 2.263953 1_555
Li4 O0 2.114077 1_565
Li4 O3 2.114323 1_565
Li4 O10 2.118489 1_654
Li4 O8 2.122703 1_655
Li4 O5 2.138114 1_565
Li4 O4 2.149160 1_655
Nb0 O11 2.028632 1_544
Nb0 O2 2.028736 1_455
Nb0 O3 2.040770 1_455
Nb0 O10 2.043314 1_544
Nb0 O7 2.049725 1_545
Nb0 O6 2.051035 1_454
Nb1 O5 2.009660 1_565
Nb1 O4 2.009912 1_656
Nb1 O8 2.104343 1_655
Nb1 O0 2.105242 1_566
Nb1 O1 2.116145 1_566
Nb1 O9 2.116956 1_655
Ni0 O0 2.102968 1_456
Ni0 O8 2.104109 1_545
Ni0 O7 2.104847 1_545
Ni0 O6 2.104975 1_455
Ni0 O10 2.106550 1_545
Ni0 O3 2.109681 1_455
Ni1 O10 2.090450 1_554
Ni1 O3 2.093542 1_555
Ni1 O8 2.094693 1_555
Ni1 O0 2.099230 1_555
Ni1 O6 2.149393 1_554
Ni1 O7 2.150019 1_555
Ni2 O9 2.087367 1_555
Ni2 O1 2.087951 1_555
Ni2 O0 2.108711 1_555
Ni2 O8 2.110141 1_555
Ni2 O4 2.180743 1_555
Ni2 O5 2.183238 1_555
Ni3 O2 2.067408 1_455
Ni3 O11 2.067972 1_545
Ni3 O1 2.084712 1_555
Ni3 O9 2.085882 1_555
Ni3 O6 2.171190 1_455
Ni3 O7 2.175296 1_545
Ni4 O9 2.071136 1_655
Ni4 O1 2.071700 1_565
Ni4 O5 2.129411 1_565
Ni4 O4 2.131250 1_655
Ni4 O2 2.131304 1_555
Ni4 O11 2.131933 1_555
