# generated using pymatgen
data_ScH6Br3N2
_symmetry_space_group_name_H-M   'P 1'
_cell_length_a   7.34674100
_cell_length_b   10.33888175
_cell_length_c   11.58412649
_cell_angle_alpha   105.48825155
_cell_angle_beta   90.77702010
_cell_angle_gamma   109.70482674
_symmetry_Int_Tables_number   1
_chemical_formula_structural   ScH6Br3N2
_chemical_formula_sum   'Sc4 H24 Br12 N8'
_cell_volume   793.06773103
_cell_formula_units_Z   4
loop_
 _symmetry_equiv_pos_site_id
 _symmetry_equiv_pos_as_xyz
  1  'x, y, z'
loop_
 _atom_site_type_symbol
 _atom_site_label
 _atom_site_symmetry_multiplicity
 _atom_site_fract_x
 _atom_site_fract_y
 _atom_site_fract_z
 _atom_site_occupancy
  Sc  Sc0  1  0.16772600  0.79883700  0.19751500  1
  Sc  Sc1  1  0.31217000  0.22258100  0.30352600  1
  Sc  Sc2  1  0.68783000  0.77741900  0.69647400  1
  Sc  Sc3  1  0.83227400  0.20116300  0.80248500  1
  H  H0  1  0.06920100  0.83739100  0.43468600  1
  H  H1  1  0.14987300  0.89694900  0.99517800  1
  H  H2  1  0.08319800  0.72094500  0.94520300  1
  H  H3  1  0.15526300  0.70542100  0.40713700  1
  H  H4  1  0.30712100  0.87335000  0.44464500  1
  H  H5  1  0.31713900  0.82140300  0.97550700  1
  H  H6  1  0.28076200  0.64471000  0.66602100  1
  H  H7  1  0.28288700  0.55631900  0.15080800  1
  H  H8  1  0.36419500  0.54533600  0.56090600  1
  H  H9  1  0.37111400  0.53289500  0.70014100  1
  H  H10  1  0.44123600  0.67345600  0.09547400  1
  H  H11  1  0.46212700  0.69056700  0.24131300  1
  H  H12  1  0.53787300  0.30943300  0.75868700  1
  H  H13  1  0.55876400  0.32654400  0.90452600  1
  H  H14  1  0.62888600  0.46710500  0.29985900  1
  H  H15  1  0.63580500  0.45466400  0.43909400  1
  H  H16  1  0.71711300  0.44368100  0.84919200  1
  H  H17  1  0.71923800  0.35529000  0.33397900  1
  H  H18  1  0.68286100  0.17859700  0.02449300  1
  H  H19  1  0.69287900  0.12665000  0.55535500  1
  H  H20  1  0.84473700  0.29457900  0.59286300  1
  H  H21  1  0.91680200  0.27905500  0.05479700  1
  H  H22  1  0.85012700  0.10305100  0.00482200  1
  H  H23  1  0.93079900  0.16260900  0.56531400  1
  Br  Br0  1  0.14458000  0.42205800  0.86156600  1
  Br  Br1  1  0.12652100  0.40224600  0.34545600  1
  Br  Br2  1  0.01355000  0.01221100  0.75676100  1
  Br  Br3  1  0.49150400  0.97149700  0.74201800  1
  Br  Br4  1  0.33569300  0.22046100  0.53250100  1
  Br  Br5  1  0.34266800  0.22850700  0.07769300  1
  Br  Br6  1  0.65733200  0.77149300  0.92230700  1
  Br  Br7  1  0.66430700  0.77953900  0.46749900  1
  Br  Br8  1  0.50849600  0.02850300  0.25798200  1
  Br  Br9  1  0.98645000  0.98778900  0.24323900  1
  Br  Br10  1  0.87347900  0.59775400  0.65454400  1
  Br  Br11  1  0.85542000  0.57794200  0.13843400  1
  N  N0  1  0.17714000  0.80454100  0.39592900  1
  N  N1  1  0.18198200  0.81071200  0.00405100  1
  N  N2  1  0.36212200  0.66301600  0.16762700  1
  N  N3  1  0.39049900  0.60408100  0.65018300  1
  N  N4  1  0.60950100  0.39591900  0.34981700  1
  N  N5  1  0.63787800  0.33698400  0.83237300  1
  N  N6  1  0.81801800  0.18928800  0.99594900  1
  N  N7  1  0.82286000  0.19545900  0.60407100  1
loop_
_geom_bond_atom_site_label_1
_geom_bond_atom_site_label_2
_geom_bond_distance
_geom_bond_site_symmetry_2
H0 N0 1.027428 1_555
H1 N1 1.025315 1_556
H2 N1 1.023346 1_556
H3 N0 1.026372 1_555
H4 N0 1.024365 1_555
H5 N1 1.030505 1_556
H6 N3 1.025332 1_555
H7 N2 1.021183 1_555
H8 N3 1.027497 1_555
H9 N3 1.027572 1_555
H10 N2 1.033026 1_555
H11 N2 1.030318 1_555
H12 N5 1.030318 1_555
H13 N5 1.033026 1_555
H14 N4 1.027572 1_555
H15 N4 1.027497 1_555
H16 N5 1.021183 1_555
H17 N4 1.025332 1_555
H18 N6 1.030505 1_554
H19 N7 1.024365 1_555
H20 N7 1.026372 1_555
H21 N6 1.023346 1_554
H22 N6 1.025315 1_554
H23 N7 1.027428 1_555
Br0 Sc3 2.556873 1_455
Br1 Sc1 2.605993 1_555
Br2 Sc3 2.662995 1_455
Br2 Sc2 2.690497 1_445
Br3 Sc3 2.729829 1_565
Br3 Sc2 2.791397 1_555
Br4 Sc1 2.662169 1_555
Br5 Sc1 2.643873 1_555
Br6 Sc2 2.643873 1_555
Br7 Sc2 2.662169 1_555
Br8 Sc0 2.729829 1_545
Br8 Sc1 2.791397 1_555
Br9 Sc0 2.662995 1_655
Br9 Sc1 2.690497 1_665
Br10 Sc2 2.605993 1_555
Br11 Sc0 2.556873 1_655
N0 Sc0 2.282913 1_555
N1 Sc0 2.278875 1_555
N2 Sc0 2.288581 1_555
N3 Sc2 2.255214 1_555
N4 Sc1 2.255214 1_555
N5 Sc3 2.288581 1_555
N6 Sc3 2.278875 1_555
N7 Sc3 2.282913 1_555
