# generated using pymatgen
data_Li2Mn2NiO6
_symmetry_space_group_name_H-M   'P 1'
_cell_length_a   6.59523800
_cell_length_b   6.64504209
_cell_length_c   8.33768239
_cell_angle_alpha   70.03746725
_cell_angle_beta   70.80067416
_cell_angle_gamma   82.85268629
_symmetry_Int_Tables_number   1
_chemical_formula_structural   Li2Mn2NiO6
_chemical_formula_sum   'Li6 Mn6 Ni3 O18'
_cell_volume   324.31635519
_cell_formula_units_Z   3
loop_
 _symmetry_equiv_pos_site_id
 _symmetry_equiv_pos_as_xyz
  1  'x, y, z'
loop_
 _atom_site_type_symbol
 _atom_site_label
 _atom_site_symmetry_multiplicity
 _atom_site_fract_x
 _atom_site_fract_y
 _atom_site_fract_z
 _atom_site_occupancy
  Li  Li0  1  0.68001000  0.99983300  0.83254400  1
  Li  Li1  1  0.67935200  0.33640500  0.49594900  1
  Li  Li2  1  0.00007200  0.33505900  0.16496600  1
  Li  Li3  1  0.99992800  0.66494100  0.83503400  1
  Li  Li4  1  0.31999000  0.00016700  0.16745600  1
  Li  Li5  1  0.32064800  0.66359500  0.50405100  1
  Mn  Mn0  1  0.67284800  0.99707500  0.33094500  1
  Mn  Mn1  1  0.66906400  0.33470700  0.99875000  1
  Mn  Mn2  1  0.33093600  0.66529300  0.00125000  1
  Mn  Mn3  1  0.32715200  0.00292500  0.66905500  1
  Mn  Mn4  1  0.67460600  0.66512700  0.66479100  1
  Mn  Mn5  1  0.32539400  0.33487300  0.33520900  1
  Ni  Ni0  1  0.00000000  0.00000000  0.00000000  1
  Ni  Ni1  1  0.00364000  0.33034800  0.66772900  1
  Ni  Ni2  1  0.99636000  0.66965200  0.33227100  1
  O  O0  1  0.03608900  0.66849800  0.07374300  1
  O  O1  1  0.02728200  0.00348300  0.75238000  1
  O  O2  1  0.35013900  0.69291900  0.75262900  1
  O  O3  1  0.97271800  0.99651700  0.24762000  1
  O  O4  1  0.96391100  0.33150200  0.92625700  1
  O  O5  1  0.34133700  0.97084000  0.90686100  1
  O  O6  1  0.02630500  0.34490300  0.40934700  1
  O  O7  1  0.35423900  0.01801300  0.42161800  1
  O  O8  1  0.34745300  0.35103500  0.09386700  1
  O  O9  1  0.66102700  0.68613600  0.43443600  1
  O  O10  1  0.65866300  0.02916000  0.09313900  1
  O  O11  1  0.67056700  0.35512700  0.76055100  1
  O  O12  1  0.97369500  0.65509700  0.59065300  1
  O  O13  1  0.33897300  0.31386400  0.56556400  1
  O  O14  1  0.32943300  0.64487300  0.23944900  1
  O  O15  1  0.64576100  0.98198700  0.57838200  1
  O  O16  1  0.64986100  0.30708100  0.24737100  1
  O  O17  1  0.65254700  0.64896500  0.90613300  1
loop_
_geom_bond_atom_site_label_1
_geom_bond_atom_site_label_2
_geom_bond_distance
_geom_bond_site_symmetry_2
Li0 O5 2.127308 1_555
Li0 O1 2.165387 1_665
Li0 O10 2.204490 1_566
Li0 O17 2.213710 1_555
Li0 O11 2.226787 1_565
Li0 O15 2.246964 1_555
Li1 O13 2.136853 1_555
Li1 O6 2.162916 1_655
Li1 O9 2.198987 1_555
Li1 O16 2.218478 1_555
Li1 O11 2.233283 1_555
Li1 O15 2.234391 1_545
Li2 O4 2.089106 1_454
Li2 O0 2.098989 1_555
Li2 O6 2.124051 1_555
Li2 O3 2.128128 1_445
Li2 O8 2.176219 1_555
Li2 O16 2.194845 1_455
Li3 O0 2.089106 1_656
Li3 O4 2.098989 1_555
Li3 O12 2.124051 1_555
Li3 O1 2.128128 1_665
Li3 O17 2.176219 1_555
Li3 O2 2.194845 1_655
Li4 O10 2.127308 1_555
Li4 O3 2.165387 1_445
Li4 O5 2.204490 1_544
Li4 O8 2.213710 1_555
Li4 O14 2.226787 1_545
Li4 O7 2.246964 1_555
Li5 O9 2.136853 1_555
Li5 O12 2.162916 1_455
Li5 O13 2.198987 1_555
Li5 O2 2.218478 1_555
Li5 O14 2.233283 1_555
Li5 O7 2.234391 1_565
Mn0 O3 1.868227 1_555
Mn0 O16 1.940046 1_565
Mn0 O9 1.948922 1_555
Mn0 O10 1.952921 1_565
Mn0 O15 1.979638 1_555
Mn0 O7 1.990127 1_565
Mn1 O4 1.836474 1_555
Mn1 O10 1.911693 1_556
Mn1 O11 1.940668 1_555
Mn1 O17 1.966375 1_555
Mn1 O16 1.979906 1_556
Mn1 O8 2.008705 1_556
Mn2 O0 1.836474 1_555
Mn2 O5 1.911693 1_554
Mn2 O14 1.940668 1_555
Mn2 O8 1.966375 1_555
Mn2 O2 1.979906 1_554
Mn2 O17 2.008705 1_554
Mn3 O1 1.868227 1_555
Mn3 O2 1.940046 1_545
Mn3 O13 1.948922 1_555
Mn3 O5 1.952921 1_545
Mn3 O7 1.979638 1_555
Mn3 O15 1.990127 1_545
Mn4 O12 1.863062 1_555
Mn4 O9 1.908731 1_555
Mn4 O17 1.935346 1_555
Mn4 O11 1.938625 1_555
Mn4 O15 1.985763 1_555
Mn4 O2 2.028061 1_555
Mn5 O6 1.863062 1_555
Mn5 O13 1.908731 1_555
Mn5 O8 1.935346 1_555
Mn5 O14 1.938625 1_555
Mn5 O7 1.985763 1_555
Mn5 O16 2.028061 1_555
Ni0 O1 2.004862 1_554
Ni0 O3 2.004862 1_445
Ni0 O4 2.080429 1_454
Ni0 O0 2.080429 1_545
Ni0 O10 2.133748 1_455
Ni0 O5 2.133748 1_544
Ni1 O12 2.034534 1_455
Ni1 O1 2.044879 1_555
Ni1 O6 2.079005 1_555
Ni1 O11 2.080959 1_455
Ni1 O4 2.086699 1_455
Ni1 O13 2.095984 1_555
Ni2 O6 2.034534 1_655
Ni2 O3 2.044879 1_555
Ni2 O12 2.079005 1_555
Ni2 O14 2.080959 1_655
Ni2 O0 2.086699 1_655
Ni2 O9 2.095984 1_555
