# generated using pymatgen
data_Li4Mn3P4(HO8)2
_symmetry_space_group_name_H-M   'P 1'
_cell_length_a   9.38708225
_cell_length_b   8.38493864
_cell_length_c   9.30667774
_cell_angle_alpha   64.03636585
_cell_angle_beta   90.00000000
_cell_angle_gamma   90.00000000
_symmetry_Int_Tables_number   1
_chemical_formula_structural   Li4Mn3P4(HO8)2
_chemical_formula_sum   'Li8 Mn6 P8 H4 O32'
_cell_volume   658.59694163
_cell_formula_units_Z   2
loop_
 _symmetry_equiv_pos_site_id
 _symmetry_equiv_pos_as_xyz
  1  'x, y, z'
loop_
 _atom_site_type_symbol
 _atom_site_label
 _atom_site_symmetry_multiplicity
 _atom_site_fract_x
 _atom_site_fract_y
 _atom_site_fract_z
 _atom_site_occupancy
  Li  Li0  1  0.35922372  0.41384084  0.04513248  1
  Li  Li1  1  0.97736629  0.29154597  0.30333071  1
  Li  Li2  1  0.14077628  0.91384084  0.04513248  1
  Li  Li3  1  0.52263371  0.79154597  0.30333071  1
  Li  Li4  1  0.47736629  0.20845403  0.69666929  1
  Li  Li5  1  0.85922372  0.08615916  0.95486752  1
  Li  Li6  1  0.02263371  0.70845403  0.69666929  1
  Li  Li7  1  0.64077628  0.58615916  0.95486752  1
  Mn  Mn0  1  0.63131053  0.39894987  0.38126278  1
  Mn  Mn1  1  0.13131053  0.10105013  0.61873722  1
  Mn  Mn2  1  -0.00000000  0.50000000  0.50000000  1
  Mn  Mn3  1  0.86868947  0.89894987  0.38126278  1
  Mn  Mn4  1  0.36868947  0.60105013  0.61873722  1
  Mn  Mn5  1  0.50000000  -0.00000000  0.50000000  1
  P  P0  1  0.67964618  0.19302403  0.16743785  1
  P  P1  1  0.82035382  0.69302403  0.16743785  1
  P  P2  1  0.31774420  0.43307487  0.37266294  1
  P  P3  1  0.81774420  0.06692513  0.62733706  1
  P  P4  1  0.18225580  0.93307487  0.37266294  1
  P  P5  1  0.68225580  0.56692513  0.62733706  1
  P  P6  1  0.17964618  0.30697597  0.83256215  1
  P  P7  1  0.32035382  0.80697597  0.83256215  1
  H  H0  1  0.20047434  0.16317848  0.09456498  1
  H  H1  1  0.29952566  0.66317848  0.09456498  1
  H  H2  1  0.70047434  0.33682152  0.90543502  1
  H  H3  1  0.79952566  0.83682152  0.90543502  1
  O  O0  1  0.19598655  0.29644111  0.00503867  1
  O  O1  1  0.20846392  0.98374295  0.19654379  1
  O  O2  1  0.83007338  0.16852790  0.23962549  1
  O  O3  1  0.58854195  0.03137991  0.26690962  1
  O  O4  1  0.61091813  0.36650512  0.15050808  1
  O  O5  1  0.30401345  0.79644111  0.00503867  1
  O  O6  1  0.29153608  0.48374295  0.19654379  1
  O  O7  1  0.12083124  0.09153097  0.39227013  1
  O  O8  1  0.66992662  0.66852790  0.23962549  1
  O  O9  1  0.91145805  0.53137991  0.26690962  1
  O  O10  1  0.67855853  0.12843077  0.53087108  1
  O  O11  1  0.88908187  0.86650512  0.15050808  1
  O  O12  1  0.42469955  0.27718697  0.44294127  1
  O  O13  1  0.92469955  0.22281303  0.55705873  1
  O  O14  1  0.17855853  0.37156923  0.46912892  1
  O  O15  1  0.37916876  0.59153097  0.39227013  1
  O  O16  1  0.62083124  0.40846903  0.60772987  1
  O  O17  1  0.82144147  0.62843077  0.53087108  1
  O  O18  1  0.07530045  0.77718697  0.44294127  1
  O  O19  1  0.57530045  0.72281303  0.55705873  1
  O  O20  1  0.11091813  0.13349488  0.84949192  1
  O  O21  1  0.32144147  0.87156923  0.46912892  1
  O  O22  1  0.08854195  0.46862009  0.73309038  1
  O  O23  1  0.33007338  0.33147210  0.76037451  1
  O  O24  1  0.87916876  0.90846903  0.60772987  1
  O  O25  1  0.70846392  0.51625705  0.80345621  1
  O  O26  1  0.69598655  0.20355889  0.99496133  1
  O  O27  1  0.38908187  0.63349488  0.84949192  1
  O  O28  1  0.41145805  0.96862009  0.73309038  1
  O  O29  1  0.16992662  0.83147210  0.76037451  1
  O  O30  1  0.79153608  0.01625705  0.80345621  1
  O  O31  1  0.80401345  0.70355889  0.99496133  1
loop_
_geom_bond_atom_site_label_1
_geom_bond_atom_site_label_2
_geom_bond_distance
_geom_bond_site_symmetry_2
Li0 O6 1.859062 1_555
Li0 O0 1.943678 1_555
Li0 O27 1.962045 1_554
Li0 O4 2.522046 1_555
Li1 O2 1.965377 1_555
Li1 O9 1.986180 1_555
Li1 O7 2.023855 1_655
Li1 O13 2.227330 1_555
Li2 O1 1.859062 1_555
Li2 O5 1.943678 1_555
Li2 O20 1.962045 1_564
Li2 O11 2.522046 1_455
Li3 O8 1.965377 1_555
Li3 O3 1.986180 1_565
Li3 O15 2.023855 1_555
Li3 O19 2.227330 1_555
Li4 O23 1.965377 1_555
Li4 O28 1.986180 1_545
Li4 O16 2.023855 1_555
Li4 O12 2.227330 1_555
Li5 O30 1.859062 1_555
Li5 O26 1.943678 1_555
Li5 O11 1.962045 1_546
Li5 O20 2.522046 1_655
Li6 O29 1.965377 1_555
Li6 O22 1.986180 1_555
Li6 O24 2.023855 1_455
Li6 O18 2.227330 1_555
Li7 O25 1.859062 1_555
Li7 O31 1.943678 1_555
Li7 O4 1.962045 1_556
Li7 O27 2.522046 1_555
Mn0 O8 2.090319 1_555
Mn0 O10 2.124879 1_555
Mn0 O16 2.146058 1_555
Mn0 O12 2.149487 1_555
Mn0 O4 2.287843 1_555
Mn1 O29 2.090319 1_545
Mn1 O14 2.124879 1_555
Mn1 O7 2.146058 1_555
Mn1 O13 2.149487 1_455
Mn1 O20 2.287843 1_555
Mn2 O14 2.079084 1_555
Mn2 O17 2.079084 1_455
Mn2 O9 2.228478 1_455
Mn2 O22 2.228478 1_555
Mn2 O13 2.258946 1_455
Mn2 O18 2.258946 1_555
Mn3 O2 2.090319 1_565
Mn3 O17 2.124879 1_555
Mn3 O24 2.146058 1_555
Mn3 O18 2.149487 1_655
Mn3 O11 2.287843 1_555
Mn4 O23 2.090319 1_555
Mn4 O21 2.124879 1_555
Mn4 O15 2.146058 1_555
Mn4 O19 2.149487 1_555
Mn4 O27 2.287843 1_555
Mn5 O21 2.079084 1_545
Mn5 O10 2.079084 1_555
Mn5 O3 2.228478 1_555
Mn5 O28 2.228478 1_545
Mn5 O19 2.258946 1_545
Mn5 O12 2.258946 1_555
H0 O0 1.062720 1_555
H0 O1 1.385554 1_545
H1 O5 1.062720 1_555
H1 O6 1.385554 1_555
H2 O26 1.062720 1_555
H2 O25 1.385554 1_555
H3 O31 1.062720 1_555
H3 O30 1.385554 1_565
O0 P6 1.576005 1_554
O1 P4 1.522459 1_555
O2 P0 1.538396 1_555
O3 P0 1.525378 1_555
O4 P0 1.535029 1_555
O5 P7 1.576005 1_554
O6 P2 1.522459 1_555
O7 P4 1.530800 1_545
O8 P1 1.538396 1_555
O9 P1 1.525378 1_555
O10 P3 1.540660 1_555
O11 P1 1.535029 1_555
O12 P2 1.547827 1_555
O13 P3 1.547827 1_555
O14 P2 1.540660 1_555
O15 P2 1.530800 1_555
O16 P5 1.530800 1_555
O17 P5 1.540660 1_555
O18 P4 1.547827 1_555
O19 P5 1.547827 1_555
O20 P6 1.535029 1_555
O21 P4 1.540660 1_555
O22 P6 1.525378 1_555
O23 P6 1.538396 1_555
O24 P3 1.530800 1_565
O25 P5 1.522459 1_555
O26 P0 1.576005 1_556
O27 P7 1.535029 1_555
O28 P7 1.525378 1_555
O29 P7 1.538396 1_555
O30 P3 1.522459 1_555
O31 P1 1.576005 1_556
