# generated using pymatgen
data_Sr5(IrO3)6
_symmetry_space_group_name_H-M   'P 1'
_cell_length_a   8.14655721
_cell_length_b   8.14655721
_cell_length_c   8.14655721
_cell_angle_alpha   109.47122063
_cell_angle_beta   109.47122063
_cell_angle_gamma   109.47122063
_symmetry_Int_Tables_number   1
_chemical_formula_structural   Sr5(IrO3)6
_chemical_formula_sum   'Sr5 Ir6 O18'
_cell_volume   416.19843704
_cell_formula_units_Z   1
loop_
 _symmetry_equiv_pos_site_id
 _symmetry_equiv_pos_as_xyz
  1  'x, y, z'
loop_
 _atom_site_type_symbol
 _atom_site_label
 _atom_site_symmetry_multiplicity
 _atom_site_fract_x
 _atom_site_fract_y
 _atom_site_fract_z
 _atom_site_occupancy
  Sr  Sr0  1  0.50000000  0.50000000  0.50000000  1
  Sr  Sr1  1  0.00000000  0.00000000  0.00000000  1
  Sr  Sr2  1  0.00000000  0.00000000  0.50000000  1
  Sr  Sr3  1  0.00000000  0.50000000  0.00000000  1
  Sr  Sr4  1  0.50000000  0.00000000  0.00000000  1
  Ir  Ir0  1  0.50000000  0.84467200  0.34467200  1
  Ir  Ir1  1  0.15532800  0.65532800  0.50000000  1
  Ir  Ir2  1  0.34467200  0.50000000  0.84467200  1
  Ir  Ir3  1  0.65532800  0.50000000  0.15532800  1
  Ir  Ir4  1  0.50000000  0.15532800  0.65532800  1
  Ir  Ir5  1  0.84467200  0.34467200  0.50000000  1
  O  O0  1  0.66509900  0.71135500  0.37645400  1
  O  O1  1  0.28864500  0.62354600  0.33490100  1
  O  O2  1  0.00000000  0.34793600  0.34793600  1
  O  O3  1  0.00000000  0.65206400  0.65206400  1
  O  O4  1  0.28864500  0.95374400  0.66509900  1
  O  O5  1  0.34793600  0.34793600  0.00000000  1
  O  O6  1  0.65206400  0.65206400  0.00000000  1
  O  O7  1  0.33490100  0.71135500  0.04625600  1
  O  O8  1  0.95374400  0.66509900  0.28864500  1
  O  O9  1  0.62354600  0.33490100  0.28864500  1
  O  O10  1  0.04625600  0.33490100  0.71135500  1
  O  O11  1  0.37645400  0.66509900  0.71135500  1
  O  O12  1  0.66509900  0.28864500  0.95374400  1
  O  O13  1  0.65206400  0.00000000  0.65206400  1
  O  O14  1  0.71135500  0.04625600  0.33490100  1
  O  O15  1  0.71135500  0.37645400  0.66509900  1
  O  O16  1  0.34793600  0.00000000  0.34793600  1
  O  O17  1  0.33490100  0.28864500  0.62354600  1
loop_
_geom_bond_atom_site_label_1
_geom_bond_atom_site_label_2
_geom_bond_distance
_geom_bond_site_symmetry_2
Ir0 O14 1.990305 1_565
Ir0 O1 1.990305 1_555
Ir0 O0 1.996180 1_555
Ir0 O7 1.996180 1_555
Ir0 O13 2.044775 1_565
Ir0 O16 2.044775 1_565
Ir1 O11 1.990305 1_555
Ir1 O8 1.990305 1_455
Ir1 O4 1.996180 1_555
Ir1 O1 1.996180 1_555
Ir1 O3 2.044775 1_555
Ir1 O2 2.044775 1_555
Ir2 O7 1.990305 1_556
Ir2 O17 1.990305 1_555
Ir2 O11 1.996180 1_555
Ir2 O10 1.996180 1_555
Ir2 O6 2.044775 1_556
Ir2 O5 2.044775 1_556
Ir3 O0 1.990305 1_555
Ir3 O12 1.990305 1_554
Ir3 O8 1.996180 1_555
Ir3 O9 1.996180 1_555
Ir3 O6 2.044775 1_555
Ir3 O5 2.044775 1_555
Ir4 O15 1.990305 1_555
Ir4 O4 1.990305 1_545
Ir4 O12 1.996180 1_555
Ir4 O17 1.996180 1_555
Ir4 O13 2.044775 1_555
Ir4 O16 2.044775 1_555
Ir5 O10 1.990305 1_655
Ir5 O9 1.990305 1_555
Ir5 O15 1.996180 1_555
Ir5 O14 1.996180 1_555
Ir5 O3 2.044775 1_655
Ir5 O2 2.044775 1_655
O0 Sr2 2.510085 1_665
O0 Sr0 2.510085 1_555
O1 Sr0 2.510085 1_555
O1 Sr3 2.510085 1_555
O2 Sr1 3.272976 1_555
O3 Sr1 3.272976 1_566
O4 Sr4 2.510085 1_566
O4 Sr2 2.510085 1_565
O5 Sr1 3.272976 1_555
O6 Sr1 3.272976 1_665
O7 Sr4 2.510085 1_565
O7 Sr3 2.510085 1_555
O8 Sr2 2.510085 1_665
O8 Sr3 2.510085 1_655
O9 Sr0 2.510085 1_555
O9 Sr4 2.510085 1_555
O10 Sr2 2.510085 1_555
O10 Sr3 2.510085 1_556
O11 Sr4 2.510085 1_566
O11 Sr0 2.510085 1_555
O12 Sr3 2.510085 1_656
O12 Sr4 2.510085 1_556
O13 Sr1 3.272976 1_656
O14 Sr4 2.510085 1_555
O14 Sr2 2.510085 1_655
O15 Sr3 2.510085 1_656
O15 Sr0 2.510085 1_555
O16 Sr1 3.272976 1_555
O17 Sr0 2.510085 1_555
O17 Sr2 2.510085 1_555
