# generated using pymatgen
data_Ba2Cu2O5
_symmetry_space_group_name_H-M   'P 1'
_cell_length_a   4.14542501
_cell_length_b   10.68465801
_cell_length_c   13.96996051
_cell_angle_alpha   90.00000000
_cell_angle_beta   90.00000000
_cell_angle_gamma   90.00000000
_symmetry_Int_Tables_number   1
_chemical_formula_structural   Ba2Cu2O5
_chemical_formula_sum   'Ba8 Cu8 O20'
_cell_volume   618.76375697
_cell_formula_units_Z   4
loop_
 _symmetry_equiv_pos_site_id
 _symmetry_equiv_pos_as_xyz
  1  'x, y, z'
loop_
 _atom_site_type_symbol
 _atom_site_label
 _atom_site_symmetry_multiplicity
 _atom_site_fract_x
 _atom_site_fract_y
 _atom_site_fract_z
 _atom_site_occupancy
  Ba  Ba0  1  0.31579538  0.04450895  0.86504903  1
  Ba  Ba1  1  0.32756727  0.20843018  0.54342426  1
  Ba  Ba2  1  0.82756727  0.29156982  0.04342426  1
  Ba  Ba3  1  0.81579538  0.45549105  0.36504903  1
  Ba  Ba4  1  0.18420462  0.54450895  0.86504903  1
  Ba  Ba5  1  0.17243273  0.70843018  0.54342426  1
  Ba  Ba6  1  0.67243273  0.79156982  0.04342426  1
  Ba  Ba7  1  0.68420462  0.95549105  0.36504903  1
  Cu  Cu0  1  0.16477782  0.01199353  0.15745154  1
  Cu  Cu1  1  0.33866195  0.23374792  0.24699466  1
  Cu  Cu2  1  0.83866195  0.26625208  0.74699466  1
  Cu  Cu3  1  0.66477782  0.48800647  0.65745154  1
  Cu  Cu4  1  0.33522218  0.51199353  0.15745154  1
  Cu  Cu5  1  0.16133805  0.73374792  0.24699466  1
  Cu  Cu6  1  0.66133805  0.76625208  0.74699466  1
  Cu  Cu7  1  0.83522218  0.98800647  0.65745154  1
  O  O0  1  0.17630047  0.08063893  0.27899454  1
  O  O1  1  0.83091050  0.04374896  0.53461134  1
  O  O2  1  0.04689359  0.12620545  0.70310699  1
  O  O3  1  0.33611230  0.16384364  0.12532304  1
  O  O4  1  0.82183992  0.20963754  0.86904459  1
  O  O5  1  0.32183992  0.29036246  0.36904459  1
  O  O6  1  0.83611230  0.33615636  0.62532304  1
  O  O7  1  0.54689359  0.37379455  0.20310699  1
  O  O8  1  0.33091050  0.45625104  0.03461134  1
  O  O9  1  0.67630047  0.41936107  0.77899454  1
  O  O10  1  0.32369953  0.58063893  0.27899454  1
  O  O11  1  0.66908950  0.54374896  0.53461134  1
  O  O12  1  0.45310641  0.62620545  0.70310699  1
  O  O13  1  0.16388770  0.66384364  0.12532304  1
  O  O14  1  0.67816008  0.70963754  0.86904459  1
  O  O15  1  0.17816008  0.79036246  0.36904459  1
  O  O16  1  0.66388770  0.83615636  0.62532304  1
  O  O17  1  0.95310641  0.87379455  0.20310699  1
  O  O18  1  0.16908950  0.95625104  0.03461134  1
  O  O19  1  0.82369953  0.91936107  0.77899454  1
loop_
_geom_bond_atom_site_label_1
_geom_bond_atom_site_label_2
_geom_bond_distance
_geom_bond_site_symmetry_2
Ba0 O18 2.621112 1_546
Ba0 O2 2.668829 1_555
Ba0 O4 2.703500 1_455
Ba0 O19 2.719304 1_445
Ba0 O4 2.741652 1_555
Ba0 O19 2.768804 1_545
Ba1 O5 2.588705 1_555
Ba1 O2 2.664938 1_555
Ba1 O6 2.705920 1_455
Ba1 O1 2.711106 1_455
Ba1 O1 2.732215 1_555
Ba1 O6 2.759653 1_555
Ba2 O4 2.588705 1_554
Ba2 O7 2.664938 1_555
Ba2 O3 2.705920 1_555
Ba2 O8 2.711106 1_555
Ba2 O8 2.732215 1_655
Ba2 O3 2.759653 1_655
Ba3 O11 2.621112 1_555
Ba3 O7 2.668829 1_555
Ba3 O5 2.703500 1_555
Ba3 O10 2.719304 1_555
Ba3 O5 2.741652 1_655
Ba3 O10 2.768804 1_655
Ba4 O8 2.621112 1_556
Ba4 O12 2.668829 1_555
Ba4 O14 2.703500 1_555
Ba4 O9 2.719304 1_555
Ba4 O14 2.741652 1_455
Ba4 O9 2.768804 1_455
Ba5 O15 2.588705 1_555
Ba5 O12 2.664938 1_555
Ba5 O16 2.705920 1_555
Ba5 O11 2.711106 1_555
Ba5 O11 2.732215 1_455
Ba5 O16 2.759653 1_455
Ba6 O14 2.588705 1_554
Ba6 O17 2.664938 1_555
Ba6 O13 2.705920 1_655
Ba6 O18 2.711106 1_655
Ba6 O18 2.732215 1_555
Ba6 O13 2.759653 1_555
Ba7 O1 2.621112 1_565
Ba7 O17 2.668829 1_555
Ba7 O15 2.703500 1_655
Ba7 O0 2.719304 1_665
Ba7 O15 2.741652 1_555
Ba7 O0 2.768804 1_565
Cu0 O18 1.816577 1_545
Cu0 O3 1.827104 1_555
Cu0 O17 1.832244 1_445
Cu0 O0 1.850209 1_555
Cu1 O5 1.810500 1_555
Cu1 O0 1.824575 1_555
Cu1 O7 1.833057 1_555
Cu1 O3 1.856642 1_555
Cu2 O4 1.810500 1_555
Cu2 O9 1.824575 1_555
Cu2 O2 1.833057 1_655
Cu2 O6 1.856642 1_555
Cu3 O11 1.816577 1_555
Cu3 O6 1.827104 1_555
Cu3 O12 1.832244 1_555
Cu3 O9 1.850209 1_555
Cu4 O8 1.816577 1_555
Cu4 O13 1.827104 1_555
Cu4 O7 1.832244 1_555
Cu4 O10 1.850209 1_555
Cu5 O15 1.810500 1_555
Cu5 O10 1.824575 1_555
Cu5 O17 1.833057 1_455
Cu5 O13 1.856642 1_555
Cu6 O14 1.810500 1_555
Cu6 O19 1.824575 1_555
Cu6 O12 1.833057 1_555
Cu6 O16 1.856642 1_555
Cu7 O1 1.816577 1_565
Cu7 O16 1.827104 1_555
Cu7 O2 1.832244 1_665
Cu7 O19 1.850209 1_555
