# generated using pymatgen
data_Li2VPCO7
_symmetry_space_group_name_H-M   'P 1'
_cell_length_a   8.41448606
_cell_length_b   5.08778781
_cell_length_c   6.45078401
_cell_angle_alpha   90.00370958
_cell_angle_beta   89.99633165
_cell_angle_gamma   83.89241398
_symmetry_Int_Tables_number   1
_chemical_formula_structural   Li2VPCO7
_chemical_formula_sum   'Li4 V2 P2 C2 O14'
_cell_volume   274.59773334
_cell_formula_units_Z   2
loop_
 _symmetry_equiv_pos_site_id
 _symmetry_equiv_pos_as_xyz
  1  'x, y, z'
loop_
 _atom_site_type_symbol
 _atom_site_label
 _atom_site_symmetry_multiplicity
 _atom_site_fract_x
 _atom_site_fract_y
 _atom_site_fract_z
 _atom_site_occupancy
  Li  Li0  1  0.10065500  0.78713000  0.24537400  1
  Li  Li1  1  0.27664900  0.26977900  0.45795900  1
  Li  Li2  1  0.72336700  0.73018600  0.95791500  1
  Li  Li3  1  0.89931400  0.21279900  0.74532600  1
  V  V0  1  0.32397800  0.79907400  0.75769300  1
  V  V1  1  0.67600500  0.20099100  0.25755300  1
  P  P0  1  0.41734400  0.73054600  0.25309200  1
  P  P1  1  0.58265700  0.26947800  0.75302700  1
  C  C0  1  0.04459600  0.67995500  0.74846100  1
  C  C1  1  0.95542400  0.32001100  0.24842400  1
  O  O0  1  0.07183100  0.92901500  0.76029300  1
  O  O1  1  0.09076600  0.40128100  0.27529500  1
  O  O2  1  0.17458400  0.51667300  0.71264300  1
  O  O3  1  0.30356900  0.78917600  0.06384100  1
  O  O4  1  0.30968400  0.84483000  0.43679200  1
  O  O5  1  0.42783900  0.13755000  0.73208700  1
  O  O6  1  0.45664200  0.42855200  0.28486700  1
  O  O7  1  0.54335900  0.57147100  0.78488800  1
  O  O8  1  0.57214300  0.86250700  0.23206300  1
  O  O9  1  0.69637800  0.21087600  0.56372000  1
  O  O10  1  0.69034900  0.15515900  0.93667200  1
  O  O11  1  0.82546600  0.48335400  0.21257300  1
  O  O12  1  0.90925500  0.59863300  0.77525800  1
  O  O13  1  0.92814700  0.07097500  0.26020600  1
loop_
_geom_bond_atom_site_label_1
_geom_bond_atom_site_label_2
_geom_bond_distance
_geom_bond_site_symmetry_2
Li0 O13 1.937948 1_465
Li0 O1 1.983133 1_555
Li0 O3 2.071285 1_555
Li0 O4 2.194228 1_555
Li1 O1 2.014990 1_555
Li1 O6 2.110307 1_555
Li1 O4 2.154634 1_545
Li1 O2 2.187379 1_555
Li1 O5 2.239733 1_555
Li2 O12 2.014891 1_555
Li2 O7 2.110092 1_555
Li2 O10 2.154802 1_565
Li2 O11 2.187385 1_556
Li2 O8 2.239903 1_556
Li3 O0 1.937854 1_645
Li3 O12 1.983105 1_555
Li3 O9 2.071769 1_555
Li3 O10 2.193355 1_555
C0 O12 1.264215 1_455
C0 O0 1.313709 1_555
C0 O2 1.321541 1_555
C1 O1 1.264189 1_655
C1 O13 1.313677 1_555
C1 O11 1.321597 1_555
O0 V0 2.154165 1_555
O2 V0 2.028152 1_555
O3 P0 1.560557 1_555
O3 V0 1.983443 1_554
O4 P0 1.565466 1_555
O4 V0 2.085176 1_555
O5 P1 1.533599 1_555
O5 V0 2.019140 1_545
O6 P0 1.550506 1_555
O6 V1 2.079366 1_555
O7 P1 1.550543 1_555
O7 V0 2.079558 1_555
O8 P0 1.533588 1_555
O8 V1 2.019111 1_565
O9 P1 1.560426 1_555
O9 V1 1.983551 1_555
O10 P1 1.565542 1_555
O10 V1 2.085063 1_556
O11 V1 2.028333 1_555
O13 V1 2.154207 1_555
