# generated using pymatgen
data_Li5(CoO2)8
_symmetry_space_group_name_H-M   'P 1'
_cell_length_a   2.89094600
_cell_length_b   9.91239648
_cell_length_c   10.98796078
_cell_angle_alpha   113.65974584
_cell_angle_beta   91.16894420
_cell_angle_gamma   89.98215648
_symmetry_Int_Tables_number   1
_chemical_formula_structural   Li5(CoO2)8
_chemical_formula_sum   'Li5 Co8 O16'
_cell_volume   288.33580589
_cell_formula_units_Z   1
loop_
 _symmetry_equiv_pos_site_id
 _symmetry_equiv_pos_as_xyz
  1  'x, y, z'
loop_
 _atom_site_type_symbol
 _atom_site_label
 _atom_site_symmetry_multiplicity
 _atom_site_fract_x
 _atom_site_fract_y
 _atom_site_fract_z
 _atom_site_occupancy
  Li  Li0  1  0.22954300  0.17049100  0.75028100  1
  Li  Li1  1  0.49771600  0.51481700  0.74864400  1
  Li  Li2  1  0.03280700  0.22451700  0.25161100  1
  Li  Li3  1  0.95173000  0.79617100  0.74749400  1
  Li  Li4  1  0.02697800  0.72609600  0.24890800  1
  Co  Co0  1  0.00299600  0.00277100  0.00203000  1
  Co  Co1  1  0.51034000  0.25003600  0.00555800  1
  Co  Co2  1  0.23822200  0.12108800  0.49084800  1
  Co  Co3  1  0.00217200  0.49056800  0.99911500  1
  Co  Co4  1  0.73615700  0.37935900  0.50425600  1
  Co  Co5  1  0.50009900  0.74626000  0.99526800  1
  Co  Co6  1  0.25689000  0.61992000  0.49195600  1
  Co  Co7  1  0.74594100  0.87637500  0.50709000  1
  O  O0  1  0.00382700  0.12636400  0.90429400  1
  O  O1  1  0.74137300  0.08709200  0.60399800  1
  O  O2  1  0.50066500  0.35712700  0.89374700  1
  O  O3  1  0.73797300  0.17414100  0.39664500  1
  O  O4  1  0.24346300  0.34203300  0.60179500  1
  O  O5  1  0.98552100  0.62039400  0.89388300  1
  O  O6  1  0.51365300  0.13820900  0.11153400  1
  O  O7  1  0.22510100  0.41449200  0.40383000  1
  O  O8  1  0.71993700  0.59071200  0.60757300  1
  O  O9  1  0.77357300  0.66848600  0.39818300  1
  O  O10  1  0.01701100  0.36970700  0.09909900  1
  O  O11  1  0.49449500  0.85779500  0.89141900  1
  O  O12  1  0.50232700  0.63872200  0.10192100  1
  O  O13  1  0.25743600  0.83170200  0.60236400  1
  O  O14  1  0.23685400  0.90854700  0.40638900  1
  O  O15  1  0.01575200  0.86443200  0.09026400  1
loop_
_geom_bond_atom_site_label_1
_geom_bond_atom_site_label_2
_geom_bond_distance
_geom_bond_site_symmetry_2
Li0 O1 2.024936 1_455
Li0 O0 2.029852 1_555
Li0 O2 2.032661 1_555
Li0 O1 2.118068 1_555
Li1 O4 1.952323 1_555
Li1 O5 2.049243 1_555
Li1 O8 2.087655 1_555
Li1 O5 2.142333 1_455
Li2 O6 2.015689 1_555
Li2 O7 2.021739 1_555
Li2 O6 2.050160 1_455
Li2 O3 2.051798 1_455
Li3 O11 1.982628 1_555
Li3 O13 1.989120 1_655
Li3 O8 2.099097 1_555
Li3 O11 2.111918 1_655
Li4 O14 2.019723 1_555
Li4 O12 2.052848 1_555
Li4 O9 2.086667 1_455
Li4 O12 2.106486 1_455
Co0 O0 1.926202 1_554
Co0 O15 1.971610 1_545
Co0 O6 2.005779 1_455
Co0 O6 2.015384 1_555
Co0 O11 2.056362 1_544
Co0 O11 2.056683 1_444
Co1 O10 1.889488 1_655
Co1 O10 1.891496 1_555
Co1 O6 1.902708 1_555
Co1 O2 1.918942 1_554
Co1 O0 1.930002 1_554
Co1 O0 1.935220 1_654
Co2 O14 1.931436 1_545
Co2 O3 1.953151 1_455
Co2 O3 1.983350 1_555
Co2 O1 2.009304 1_555
Co2 O1 2.032705 1_455
Co2 O4 2.034523 1_555
Co3 O10 1.923143 1_556
Co3 O2 1.973734 1_455
Co3 O2 2.001154 1_555
Co3 O12 2.031411 1_556
Co3 O5 2.046306 1_455
Co3 O12 2.062677 1_456
Co4 O3 1.898914 1_555
Co4 O4 1.921001 1_655
Co4 O4 1.922292 1_555
Co4 O7 1.925963 1_655
Co4 O7 1.939936 1_555
Co4 O8 1.942495 1_555
Co5 O15 1.870705 1_556
Co5 O12 1.874023 1_556
Co5 O11 1.880539 1_555
Co5 O15 1.907922 1_656
Co5 O5 1.927203 1_555
Co5 O5 1.956689 1_455
Co6 O7 1.872556 1_555
Co6 O9 1.893322 1_455
Co6 O8 1.927504 1_555
Co6 O13 1.958204 1_555
Co6 O9 1.996479 1_555
Co6 O8 2.117384 1_455
Co7 O14 1.920349 1_655
Co7 O14 1.925757 1_555
Co7 O9 1.925979 1_555
Co7 O1 1.926708 1_565
Co7 O13 1.928528 1_555
Co7 O13 1.946042 1_655
