# generated using pymatgen
data_Mn12O17F7
_symmetry_space_group_name_H-M   'P 1'
_cell_length_a   4.54354500
_cell_length_b   5.57343027
_cell_length_c   15.09533410
_cell_angle_alpha   90.15206674
_cell_angle_beta   90.82413567
_cell_angle_gamma   90.23346318
_symmetry_Int_Tables_number   1
_chemical_formula_structural   Mn12O17F7
_chemical_formula_sum   'Mn12 O17 F7'
_cell_volume   382.21700328
_cell_formula_units_Z   1
loop_
 _symmetry_equiv_pos_site_id
 _symmetry_equiv_pos_as_xyz
  1  'x, y, z'
loop_
 _atom_site_type_symbol
 _atom_site_label
 _atom_site_symmetry_multiplicity
 _atom_site_fract_x
 _atom_site_fract_y
 _atom_site_fract_z
 _atom_site_occupancy
  Mn  Mn0  1  0.97973200  0.83531800  0.41294400  1
  Mn  Mn1  1  0.97397300  0.16264600  0.24632400  1
  Mn  Mn2  1  0.98589800  0.83669900  0.07902800  1
  Mn  Mn3  1  0.97358400  0.83777800  0.74150700  1
  Mn  Mn4  1  0.97787000  0.16716400  0.57789700  1
  Mn  Mn5  1  0.99654700  0.15585600  0.90815900  1
  Mn  Mn6  1  0.50364500  0.64964800  0.91907900  1
  Mn  Mn7  1  0.50248200  0.63438200  0.58783100  1
  Mn  Mn8  1  0.50695300  0.63884700  0.25650800  1
  Mn  Mn9  1  0.49847400  0.36467500  0.09306100  1
  Mn  Mn10  1  0.50492300  0.36454600  0.42143800  1
  Mn  Mn11  1  0.50508100  0.36507800  0.75408100  1
  O  O0  1  0.76814300  0.88846500  0.30195000  1
  O  O1  1  0.76672400  0.88852500  0.63297400  1
  O  O2  1  0.78695400  0.88930900  0.96709100  1
  O  O3  1  0.77065900  0.11164900  0.13626400  1
  O  O4  1  0.77017100  0.11107500  0.46711700  1
  O  O5  1  0.76469100  0.11097100  0.79941000  1
  O  O6  1  0.72393000  0.59890600  0.48114100  1
  O  O7  1  0.72276700  0.60113800  0.14915800  1
  O  O8  1  0.72328000  0.40184000  0.31487800  1
  O  O9  1  0.72185500  0.40108200  0.64660900  1
  O  O10  1  0.72807400  0.59962200  0.81236300  1
  O  O11  1  0.27836900  0.61343000  0.02897200  1
  O  O12  1  0.27113800  0.38713000  0.19586200  1
  O  O13  1  0.27207100  0.61484400  0.36180200  1
  O  O14  1  0.27096000  0.38558300  0.52704100  1
  O  O15  1  0.28237100  0.37869100  0.86155300  1
  O  O16  1  0.26950500  0.61325300  0.69307800  1
  F  F0  1  0.74847500  0.38085100  0.98828100  1
  F  F1  1  0.24223300  0.87228100  0.19233500  1
  F  F2  1  0.24272000  0.87222400  0.52500300  1
  F  F3  1  0.24085400  0.12832900  0.35789400  1
  F  F4  1  0.25486600  0.12773500  0.02482300  1
  F  F5  1  0.23016800  0.88027000  0.84717200  1
  F  F6  1  0.23985700  0.13015900  0.68937000  1
loop_
_geom_bond_atom_site_label_1
_geom_bond_atom_site_label_2
_geom_bond_distance
_geom_bond_site_symmetry_2
Mn0 O0 1.943670 1_555
Mn0 O13 1.976856 1_655
Mn0 O4 1.991249 1_565
Mn0 O6 2.043496 1_555
Mn1 O3 1.909335 1_555
Mn1 O0 1.983081 1_545
Mn1 O12 1.997370 1_655
Mn1 O8 2.045606 1_555
Mn2 O2 1.928486 1_554
Mn2 O11 1.980566 1_655
Mn2 O3 2.020064 1_565
Mn2 O7 2.074777 1_555
Mn3 O1 1.899437 1_555
Mn3 O16 1.986270 1_655
Mn3 O5 2.002939 1_565
Mn3 O10 2.044500 1_555
Mn4 O4 1.932396 1_555
Mn4 O14 1.966155 1_655
Mn4 O1 2.010219 1_545
Mn4 O9 2.041692 1_555
Mn5 O15 1.934345 1_655
Mn5 O5 1.952721 1_555
Mn5 O2 1.981176 1_545
Mn6 O10 1.939011 1_555
Mn6 O11 1.972105 1_556
Mn6 O2 1.980006 1_555
Mn6 O15 2.000243 1_555
Mn7 O9 1.860834 1_555
Mn7 O6 1.921399 1_555
Mn7 O16 1.925311 1_555
Mn7 O14 1.955775 1_555
Mn7 O1 1.967132 1_555
Mn8 O8 1.865254 1_555
Mn8 O7 1.917608 1_555
Mn8 O13 1.931816 1_555
Mn8 O0 1.942279 1_555
Mn8 O12 1.976609 1_555
Mn9 O7 1.857634 1_555
Mn9 O12 1.880647 1_555
Mn9 O11 1.961838 1_555
Mn9 O3 1.984774 1_555
Mn10 O6 1.861687 1_555
Mn10 O8 1.913363 1_555
Mn10 O14 1.932286 1_555
Mn10 O13 1.966491 1_555
Mn10 O4 1.979586 1_555
Mn11 O10 1.861941 1_555
Mn11 O9 1.920511 1_555
Mn11 O15 1.925830 1_555
Mn11 O5 1.964902 1_555
Mn11 O16 1.974161 1_555
F0 Mn9 1.962580 1_556
F0 Mn5 2.085285 1_555
F0 Mn6 2.135767 1_555
F1 Mn8 2.015850 1_555
F1 Mn2 2.064047 1_455
F1 Mn1 2.192358 1_465
F2 Mn7 2.009198 1_555
F2 Mn0 2.066276 1_455
F2 Mn4 2.196488 1_465
F3 Mn10 2.010033 1_555
F3 Mn1 2.070817 1_455
F3 Mn0 2.187433 1_445
F4 Mn9 1.994525 1_555
F4 Mn5 2.108794 1_454
F4 Mn2 2.194023 1_445
F5 Mn3 1.975250 1_455
F5 Mn6 2.087086 1_555
F5 Mn5 2.089812 1_465
F6 Mn11 2.016714 1_555
F6 Mn4 2.058457 1_455
F6 Mn3 2.180985 1_445
