# generated using pymatgen
data_LiCrBO3
_symmetry_space_group_name_H-M   'P 1'
_cell_length_a   6.29307800
_cell_length_b   8.25047201
_cell_length_c   8.25082647
_cell_angle_alpha   59.99580106
_cell_angle_beta   90.00048536
_cell_angle_gamma   90.00005510
_symmetry_Int_Tables_number   1
_chemical_formula_structural   LiCrBO3
_chemical_formula_sum   'Li6 Cr6 B6 O18'
_cell_volume   370.98095745
_cell_formula_units_Z   6
loop_
 _symmetry_equiv_pos_site_id
 _symmetry_equiv_pos_as_xyz
  1  'x, y, z'
loop_
 _atom_site_type_symbol
 _atom_site_label
 _atom_site_symmetry_multiplicity
 _atom_site_fract_x
 _atom_site_fract_y
 _atom_site_fract_z
 _atom_site_occupancy
  Li  Li0  1  0.25000900  0.26982100  0.01875200  1
  Li  Li1  1  0.74999300  0.26982300  0.01875100  1
  Li  Li2  1  0.24999800  0.71149600  0.26974300  1
  Li  Li3  1  0.75000400  0.71149300  0.26974500  1
  Li  Li4  1  0.24999200  0.01873700  0.71145900  1
  Li  Li5  1  0.75001000  0.01873700  0.71146000  1
  Cr  Cr0  1  0.50003900  0.39287700  0.62446900  1
  Cr  Cr1  1  0.49999000  0.62453200  0.98270400  1
  Cr  Cr2  1  0.99998700  0.98245800  0.39301200  1
  Cr  Cr3  1  0.00003900  0.39285000  0.62453000  1
  Cr  Cr4  1  0.99998000  0.62447300  0.98270700  1
  Cr  Cr5  1  0.49998000  0.98244000  0.39300600  1
  B  B0  1  0.25000500  0.66662800  0.66662300  1
  B  B1  1  0.74999600  0.66663000  0.66662100  1
  B  B2  1  0.00000200  0.00006100  0.00003000  1
  B  B3  1  0.50000100  0.00005600  0.00002400  1
  B  B4  1  0.25000700  0.33337900  0.33330600  1
  B  B5  1  0.74999200  0.33337700  0.33330500  1
  O  O0  1  0.25003500  0.47283400  0.74433900  1
  O  O1  1  0.74996900  0.47284000  0.74433000  1
  O  O2  1  0.24998700  0.78278600  0.47272800  1
  O  O3  1  0.75000000  0.78278600  0.47272200  1
  O  O4  1  0.24998000  0.74437900  0.78268800  1
  O  O5  1  0.75002300  0.74437700  0.78269200  1
  O  O6  1  0.99999600  0.11360100  0.08100500  1
  O  O7  1  0.49999800  0.11358700  0.08100700  1
  O  O8  1  0.00000900  0.08103000  0.80555800  1
  O  O9  1  0.49999500  0.08101900  0.80554700  1
  O  O10  1  0.99999900  0.80554400  0.11355900  1
  O  O11  1  0.50000100  0.80554400  0.11356400  1
  O  O12  1  0.25000900  0.13963200  0.41917600  1
  O  O13  1  0.74997100  0.13962500  0.41918300  1
  O  O14  1  0.25002900  0.44118400  0.13967100  1
  O  O15  1  0.74997800  0.44118500  0.13967200  1
  O  O16  1  0.24997300  0.41909000  0.44115700  1
  O  O17  1  0.75002300  0.41908700  0.44115300  1
loop_
_geom_bond_atom_site_label_1
_geom_bond_atom_site_label_2
_geom_bond_distance
_geom_bond_site_symmetry_2
Li0 O7 1.933426 1_555
Li0 O6 1.933493 1_455
Li0 O0 2.034446 1_554
Li0 O14 2.098809 1_555
Li1 O6 1.933445 1_555
Li1 O7 1.933470 1_555
Li1 O1 2.034501 1_554
Li1 O15 2.098815 1_555
Li2 O10 1.933334 1_455
Li2 O11 1.933352 1_555
Li2 O2 2.033737 1_555
Li2 O16 2.099507 1_555
Li3 O10 1.933339 1_555
Li3 O11 1.933344 1_555
Li3 O3 2.033690 1_555
Li3 O17 2.099502 1_555
Li4 O8 1.934132 1_555
Li4 O9 1.934132 1_555
Li4 O4 2.034386 1_545
Li4 O12 2.098780 1_555
Li5 O8 1.934198 1_655
Li5 O9 1.934201 1_555
Li5 O5 2.034395 1_545
Li5 O13 2.098741 1_555
Cr0 O17 2.117128 1_555
Cr0 O16 2.117464 1_555
Cr0 O1 2.130625 1_555
Cr0 O0 2.131001 1_555
Cr0 O9 2.237799 1_555
Cr1 O14 2.116756 1_556
Cr1 O15 2.116867 1_556
Cr1 O4 2.131787 1_555
Cr1 O5 2.131894 1_555
Cr1 O11 2.238029 1_556
Cr2 O13 2.117452 1_565
Cr2 O12 2.117490 1_665
Cr2 O3 2.130205 1_555
Cr2 O2 2.130256 1_655
Cr2 O6 2.238764 1_565
Cr3 O16 2.117143 1_555
Cr3 O17 2.117536 1_455
Cr3 O0 2.130760 1_555
Cr3 O1 2.131098 1_455
Cr3 O8 2.237505 1_555
Cr4 O15 2.116741 1_556
Cr4 O14 2.116948 1_656
Cr4 O5 2.131573 1_555
Cr4 O4 2.131811 1_655
Cr4 O10 2.238418 1_556
Cr5 O12 2.117375 1_565
Cr5 O13 2.117449 1_565
Cr5 O2 2.130133 1_555
Cr5 O3 2.130257 1_555
Cr5 O7 2.238701 1_565
B0 O0 1.393645 1_555
B0 O4 1.393894 1_555
B0 O2 1.394425 1_555
B1 O1 1.393621 1_555
B1 O5 1.393913 1_555
B1 O3 1.394450 1_555
B2 O8 1.396006 1_554
B2 O10 1.396250 1_445
B2 O6 1.396362 1_455
B3 O9 1.396048 1_554
B3 O11 1.396225 1_545
B3 O7 1.396348 1_555
B4 O16 1.386099 1_555
B4 O14 1.386504 1_555
B4 O12 1.387265 1_555
B5 O17 1.386070 1_555
B5 O15 1.386492 1_555
B5 O13 1.387298 1_555
