# generated using pymatgen
data_Li2TiMn2O5
_symmetry_space_group_name_H-M   'P 1'
_cell_length_a   7.97704717
_cell_length_b   7.97704717
_cell_length_c   5.44055283
_cell_angle_alpha   82.34099072
_cell_angle_beta   82.34099072
_cell_angle_gamma   140.31157764
_symmetry_Int_Tables_number   1
_chemical_formula_structural   Li2TiMn2O5
_chemical_formula_sum   'Li4 Ti2 Mn4 O10'
_cell_volume   203.33543048
_cell_formula_units_Z   2
loop_
 _symmetry_equiv_pos_site_id
 _symmetry_equiv_pos_as_xyz
  1  'x, y, z'
loop_
 _atom_site_type_symbol
 _atom_site_label
 _atom_site_symmetry_multiplicity
 _atom_site_fract_x
 _atom_site_fract_y
 _atom_site_fract_z
 _atom_site_occupancy
  Li  Li0  1  0.10192300  0.89807700  0.00000000  1
  Li  Li1  1  0.50205300  0.49794700  0.00000000  1
  Li  Li2  1  0.79732500  0.20267500  0.50000000  1
  Li  Li3  1  0.19857400  0.80142600  0.50000000  1
  Ti  Ti0  1  0.69629400  0.30370600  0.00000000  1
  Ti  Ti1  1  0.00094700  0.99905300  0.50000000  1
  Mn  Mn0  1  0.90224600  0.09775400  0.00000000  1
  Mn  Mn1  1  0.29891900  0.70108100  0.00000000  1
  Mn  Mn2  1  0.60350200  0.39649800  0.50000000  1
  Mn  Mn3  1  0.39412100  0.60587900  0.50000000  1
  O  O0  1  0.85086800  0.65061900  0.74995900  1
  O  O1  1  0.66857400  0.85033100  0.73746000  1
  O  O2  1  0.48386900  0.08356800  0.78481400  1
  O  O3  1  0.91643200  0.51613100  0.21518600  1
  O  O4  1  0.03625900  0.45298800  0.76317300  1
  O  O5  1  0.22004500  0.21804400  0.71757100  1
  O  O6  1  0.34938100  0.14913200  0.25004100  1
  O  O7  1  0.78195600  0.77995500  0.28242900  1
  O  O8  1  0.54701200  0.96374100  0.23682700  1
  O  O9  1  0.14966900  0.33142600  0.26254000  1
loop_
_geom_bond_atom_site_label_1
_geom_bond_atom_site_label_2
_geom_bond_distance
_geom_bond_site_symmetry_2
Li0 O3 2.119437 1_455
Li0 O2 2.119437 1_564
Li0 O5 2.151929 1_564
Li0 O7 2.151929 1_455
Li0 O6 2.261771 1_565
Li0 O0 2.261771 1_454
Li1 O9 2.093701 1_555
Li1 O1 2.093701 1_554
Li1 O6 2.100030 1_555
Li1 O0 2.100030 1_554
Li1 O7 2.551957 1_555
Li1 O5 2.551957 1_554
Li2 O2 2.115296 1_555
Li2 O3 2.115296 1_555
Li2 O1 2.204391 1_545
Li2 O9 2.204391 1_655
Li2 O4 2.302621 1_655
Li2 O8 2.302621 1_545
Li3 O8 2.087666 1_555
Li3 O4 2.087666 1_555
Li3 O0 2.100692 1_455
Li3 O6 2.100692 1_565
Li3 O2 2.575328 1_565
Li3 O3 2.575328 1_455
Mn0 O7 2.129157 1_545
Mn0 O5 2.129157 1_654
Mn0 O4 2.197782 1_654
Mn0 O8 2.197782 1_545
Mn0 O1 2.282373 1_544
Mn0 O9 2.282373 1_655
Mn1 O2 2.125092 1_564
Mn1 O3 2.125092 1_455
Mn1 O8 2.232557 1_555
Mn1 O4 2.232557 1_554
Mn1 O9 2.274569 1_555
Mn1 O1 2.274569 1_554
Mn2 O3 2.109862 1_555
Mn2 O2 2.109862 1_555
Mn2 O5 2.160615 1_555
Mn2 O7 2.160615 1_555
Mn2 O6 2.268517 1_555
Mn2 O0 2.268517 1_555
Mn3 O4 2.184801 1_555
Mn3 O8 2.184801 1_555
Mn3 O5 2.207871 1_555
Mn3 O7 2.207871 1_555
Mn3 O9 2.262656 1_555
Mn3 O1 2.262656 1_555
O0 Ti0 2.080126 1_556
O0 Ti1 2.108390 1_655
O1 Ti1 1.985837 1_655
O2 Ti0 1.955200 1_556
O3 Ti0 1.955200 1_555
O4 Ti0 2.030285 1_456
O5 Ti1 1.977659 1_545
O6 Ti0 2.080126 1_555
O6 Ti1 2.108390 1_545
O7 Ti1 1.977659 1_655
O8 Ti0 2.030285 1_565
O9 Ti1 1.985837 1_545
