# generated using pymatgen
data_Li7Y7Zr9S32
_symmetry_space_group_name_H-M   'P 1'
_cell_length_a   7.66150639
_cell_length_b   7.72071091
_cell_length_c   25.09132124
_cell_angle_alpha   82.48150197
_cell_angle_beta   82.19376353
_cell_angle_gamma   61.13183088
_symmetry_Int_Tables_number   1
_chemical_formula_structural   Li7Y7Zr9S32
_chemical_formula_sum   'Li7 Y7 Zr9 S32'
_cell_volume   1284.07632997
_cell_formula_units_Z   1
loop_
 _symmetry_equiv_pos_site_id
 _symmetry_equiv_pos_as_xyz
  1  'x, y, z'
loop_
 _atom_site_type_symbol
 _atom_site_label
 _atom_site_symmetry_multiplicity
 _atom_site_fract_x
 _atom_site_fract_y
 _atom_site_fract_z
 _atom_site_occupancy
  Li  Li0  1  0.69068423  0.68238910  0.93603595  1
  Li  Li1  1  0.00176046  0.00056204  -0.00036623  1
  Li  Li2  1  0.43619253  0.43746018  0.68807617  1
  Li  Li3  1  0.50145797  0.50167893  0.49961671  1
  Li  Li4  1  0.93506180  0.93653544  0.18812791  1
  Li  Li5  1  0.18477997  0.18445210  0.44058560  1
  Li  Li6  1  0.25337507  0.25019124  0.24908558  1
  Y  Y0  1  0.96496264  0.47222108  0.59505773  1
  Y  Y1  1  0.21692236  0.71956221  0.84252439  1
  Y  Y2  1  0.46748347  0.96964476  0.59599492  1
  Y  Y3  1  0.21826097  0.71932668  0.34388705  1
  Y  Y4  1  0.71918605  0.21851202  0.34383122  1
  Y  Y5  1  0.97086824  0.46897335  0.09195945  1
  Y  Y6  1  0.47175231  0.96759992  0.09297180  1
  Zr  Zr0  1  0.35005119  0.34048588  0.96739035  1
  Zr  Zr1  1  0.21754143  0.21425687  0.84187150  1
  Zr  Zr2  1  0.72513173  0.21335986  0.84119955  1
  Zr  Zr3  1  0.84264430  0.84503606  0.47001670  1
  Zr  Zr4  1  0.08763401  0.09692962  0.71994429  1
  Zr  Zr5  1  0.96227703  0.96692733  0.59606038  1
  Zr  Zr6  1  0.59594744  0.59367596  0.21895929  1
  Zr  Zr7  1  0.71937514  0.71931176  0.34451093  1
  Zr  Zr8  1  0.47155793  0.46861350  0.09331823  1
  S  S0  1  0.91445142  0.38255795  0.78588663  1
  S  S1  1  0.37746750  0.93287364  0.78198304  1
  S  S2  1  0.05854791  0.50574571  0.90592647  1
  S  S3  1  0.52304309  0.05330297  0.90277709  1
  S  S4  1  0.53347986  0.50612351  0.90466186  1
  S  S5  1  0.26198979  0.27260260  0.66240457  1
  S  S6  1  0.41046546  0.38696595  0.78699548  1
  S  S7  1  0.89991280  0.93160955  0.78192592  1
  S  S8  1  0.02531441  0.04827477  0.90095944  1
  S  S9  1  0.79131592  0.79502983  0.65265305  1
  S  S10  1  0.13350637  0.68021109  0.53167176  1
  S  S11  1  0.67565625  0.13575467  0.53189502  1
  S  S12  1  0.79849154  0.26216911  0.65773692  1
  S  S13  1  0.25424120  0.80569265  0.65939639  1
  S  S14  1  0.01875397  0.01933841  0.40947527  1
  S  S15  1  0.14421810  0.14633152  0.53794031  1
  S  S16  1  0.89528411  0.89533151  0.28570855  1
  S  S17  1  0.66493454  0.67191251  0.52880117  1
  S  S18  1  0.41950509  0.41951212  0.27727534  1
  S  S19  1  0.54199463  0.54227058  0.40158433  1
  S  S20  1  0.88538951  0.42885773  0.28077785  1
  S  S21  1  0.42946740  0.88325424  0.28059789  1
  S  S22  1  0.55228813  0.00924307  0.40625920  1
  S  S23  1  0.76214081  0.30365417  0.15490761  1
  S  S24  1  0.30480528  0.75843986  0.15521439  1
  S  S25  1  0.00837768  0.55422207  0.40654840  1
  S  S26  1  0.77262522  0.76737722  0.15804834  1
  S  S27  1  0.64712004  0.64537139  0.03419135  1
  S  S28  1  0.17441039  0.16641402  0.02572411  1
  S  S29  1  0.29323759  0.29237162  0.15042069  1
  S  S30  1  0.63810598  0.17775104  0.03023795  1
  S  S31  1  0.18454977  0.63172806  0.02875414  1
loop_
_geom_bond_atom_site_label_1
_geom_bond_atom_site_label_2
_geom_bond_distance
_geom_bond_site_symmetry_2
Li0 S27 2.437892 1_556
Li0 S4 2.458250 1_555
Li0 S2 2.520673 1_655
Li0 S3 2.580919 1_565
Li1 S28 2.430641 1_555
Li1 S8 2.449967 1_554
Li1 S30 2.497420 1_455
Li1 S31 2.546956 1_545
Li2 S5 2.429956 1_555
Li2 S6 2.457504 1_555
Li2 S12 2.486801 1_555
Li2 S13 2.540500 1_555
Li3 S17 2.433702 1_555
Li3 S19 2.435124 1_555
Li3 S10 2.533005 1_555
Li3 S11 2.544190 1_555
Li4 S16 2.424038 1_555
Li4 S26 2.430361 1_555
Li4 S24 2.549108 1_655
Li4 S23 2.557279 1_565
Li5 S15 2.417483 1_555
Li5 S14 2.438922 1_555
Li5 S22 2.543231 1_555
Li5 S25 2.579958 1_555
Li6 S18 2.433619 1_555
Li6 S29 2.451072 1_555
Li6 S20 2.531118 1_455
Li6 S21 2.546427 1_545
S0 Zr2 2.558294 1_555
S0 Zr1 2.559077 1_655
S0 Zr4 2.625726 1_655
S1 Zr1 2.502572 1_565
S1 Zr4 2.581763 1_565
S1 Y1 2.706769 1_555
S2 Zr0 2.581359 1_555
S2 Zr1 2.626673 1_555
S2 Y1 2.729619 1_555
S3 Zr0 2.611640 1_555
S3 Zr2 2.647553 1_555
S3 Zr1 2.650325 1_555
S4 Zr0 2.587560 1_555
S4 Zr2 2.627312 1_555
S4 Y1 2.743027 1_555
S5 Zr4 2.534083 1_555
S5 Y0 2.717714 1_455
S5 Y2 2.734573 1_545
S6 Zr1 2.593931 1_555
S6 Zr2 2.598423 1_555
S6 Y1 2.726244 1_555
S7 Zr2 2.495996 1_565
S7 Zr4 2.600349 1_665
S7 Y1 2.720919 1_655
S8 Zr1 2.596414 1_555
S8 Zr2 2.601614 1_455
S8 Y1 2.745426 1_545
S9 Zr5 2.484651 1_555
S9 Y2 2.687185 1_555
S9 Y0 2.699744 1_555
S10 Zr3 2.581015 1_455
S10 Zr5 2.605279 1_455
S10 Y0 2.748027 1_455
S11 Zr3 2.585534 1_545
S11 Zr5 2.600125 1_545
S11 Y2 2.741129 1_545
S12 Zr4 2.580802 1_655
S12 Zr5 2.607528 1_545
S12 Y0 2.741362 1_555
S13 Zr4 2.566933 1_565
S13 Zr5 2.614955 1_455
S13 Y2 2.750657 1_555
S14 Zr3 2.569168 1_445
S14 Y4 2.702121 1_455
S14 Y3 2.702867 1_545
S15 Zr5 2.602281 1_445
S15 Y2 2.704533 1_545
S15 Y0 2.709828 1_455
S16 Zr7 2.558083 1_555
S16 Y3 2.704791 1_655
S16 Y4 2.709289 1_565
S17 Zr3 2.551804 1_555
S17 Y0 2.714769 1_555
S17 Y2 2.716368 1_555
S18 Zr6 2.545496 1_555
S18 Y4 2.718755 1_555
S18 Y3 2.719408 1_555
S19 Zr7 2.553191 1_555
S19 Y3 2.701847 1_555
S19 Y4 2.707020 1_555
S20 Zr6 2.576020 1_555
S20 Zr7 2.614515 1_555
S20 Y4 2.745743 1_555
S21 Zr6 2.575434 1_555
S21 Zr7 2.613238 1_555
S21 Y3 2.737807 1_555
S22 Zr7 2.579119 1_545
S22 Zr3 2.613034 1_545
S22 Y4 2.736360 1_555
S23 Zr8 2.578427 1_555
S23 Zr6 2.617425 1_555
S23 Y5 2.727338 1_555
S24 Zr8 2.580961 1_555
S24 Zr6 2.617018 1_555
S24 Y6 2.733985 1_555
S25 Zr7 2.577251 1_455
S25 Zr3 2.612130 1_455
S25 Y3 2.729586 1_555
S26 Zr6 2.573160 1_555
S26 Y6 2.700125 1_555
S26 Y5 2.702104 1_555
S27 Zr8 2.563815 1_555
S27 Y5 2.703029 1_555
S27 Y6 2.713690 1_555
S28 Zr0 2.540841 1_554
S28 Y6 2.717137 1_545
S28 Y5 2.728571 1_455
S29 Zr8 2.554213 1_555
S29 Y5 2.705537 1_455
S29 Y6 2.708263 1_545
S30 Zr0 2.585598 1_554
S30 Zr8 2.605954 1_555
S30 Y6 2.741919 1_545
S31 Zr0 2.580163 1_554
S31 Zr8 2.608724 1_555
S31 Y5 2.744789 1_455
