# generated using pymatgen
data_N2
_symmetry_space_group_name_H-M   'P 1'
_cell_length_a   4.39483442
_cell_length_b   4.39483442
_cell_length_c   4.39483442
_cell_angle_alpha   60.00000000
_cell_angle_beta   60.00000000
_cell_angle_gamma   60.00000000
_symmetry_Int_Tables_number   1
_chemical_formula_structural   N2
_chemical_formula_sum   N8
_cell_volume   60.02228900
_cell_formula_units_Z   4
loop_
 _symmetry_equiv_pos_site_id
 _symmetry_equiv_pos_as_xyz
  1  'x, y, z'
loop_
 _atom_site_type_symbol
 _atom_site_label
 _atom_site_symmetry_multiplicity
 _atom_site_fract_x
 _atom_site_fract_y
 _atom_site_fract_z
 _atom_site_occupancy
  N  N0_0  1  0.00000000  0.00000000  0.00000000  1
  N  N0_1  1  0.00000000  0.00000000  0.50000000  1
  N  N0_2  1  0.00000000  0.50000000  0.00000000  1
  N  N0_3  1  0.00000000  0.50000000  0.50000000  1
  N  N0_4  1  0.50000000  0.00000000  0.00000000  1
  N  N0_5  1  0.50000000  0.00000000  0.50000000  1
  N  N0_6  1  0.50000000  0.50000000  0.00000000  1
  N  N0_7  1  0.50000000  0.50000000  0.50000000  1
loop_
_geom_bond_atom_site_label_1
_geom_bond_atom_site_label_2
_geom_bond_distance
_geom_bond_site_symmetry_2
N0_0 N0_1 2.197417 1_554
N0_0 N0_2 2.197417 1_545
N0_0 N0_5 2.197417 1_554
N0_0 N0_6 2.197417 1_545
N0_0 N0_4 2.197417 1_555
N0_0 N0_1 2.197417 1_555
N0_0 N0_4 2.197417 1_455
N0_0 N0_2 2.197417 1_555
N0_0 N0_3 2.197417 1_545
N0_0 N0_3 2.197417 1_554
N0_0 N0_6 2.197417 1_455
N0_0 N0_5 2.197417 1_455
N0_1 N0_2 2.197417 1_555
N0_1 N0_7 2.197417 1_455
N0_1 N0_5 2.197417 1_555
N0_1 N0_3 2.197417 1_555
N0_1 N0_3 2.197417 1_545
N0_1 N0_7 2.197417 1_545
N0_1 N0_4 2.197417 1_555
N0_1 N0_4 2.197417 1_456
N0_1 N0_2 2.197417 1_546
N0_1 N0_5 2.197417 1_455
N0_2 N0_6 2.197417 1_555
N0_2 N0_7 2.197417 1_455
N0_2 N0_3 2.197417 1_555
N0_2 N0_3 2.197417 1_554
N0_2 N0_4 2.197417 1_555
N0_2 N0_7 2.197417 1_554
N0_2 N0_4 2.197417 1_465
N0_2 N0_6 2.197417 1_455
N0_3 N0_6 2.197417 1_555
N0_3 N0_5 2.197417 1_555
N0_3 N0_7 2.197417 1_555
N0_3 N0_7 2.197417 1_455
N0_3 N0_5 2.197417 1_465
N0_3 N0_6 2.197417 1_456
N0_4 N0_5 2.197417 1_555
N0_4 N0_6 2.197417 1_555
N0_4 N0_7 2.197417 1_545
N0_4 N0_7 2.197417 1_554
N0_4 N0_5 2.197417 1_554
N0_4 N0_6 2.197417 1_545
N0_5 N0_6 2.197417 1_555
N0_5 N0_7 2.197417 1_545
N0_5 N0_7 2.197417 1_555
N0_5 N0_6 2.197417 1_546
N0_6 N0_7 2.197417 1_555
N0_6 N0_7 2.197417 1_554
