# generated using pymatgen
data_NdB2Ru3
_symmetry_space_group_name_H-M   'P 1'
_cell_length_a   6.09779000
_cell_length_b   11.14155727
_cell_length_c   11.14155727
_cell_angle_alpha   120.00000754
_cell_angle_beta   90.00000000
_cell_angle_gamma   90.00000000
_symmetry_Int_Tables_number   1
_chemical_formula_structural   NdB2Ru3
_chemical_formula_sum   'Nd8 B16 Ru24'
_cell_volume   655.53344850
_cell_formula_units_Z   8
loop_
 _symmetry_equiv_pos_site_id
 _symmetry_equiv_pos_as_xyz
  1  'x, y, z'
loop_
 _atom_site_type_symbol
 _atom_site_label
 _atom_site_symmetry_multiplicity
 _atom_site_fract_x
 _atom_site_fract_y
 _atom_site_fract_z
 _atom_site_occupancy
  Nd  Nd0_0  1  0.00000000  0.00000000  0.00000000  1
  Nd  Nd0_1  1  0.00000000  0.00000000  0.50000000  1
  Nd  Nd0_2  1  0.00000000  0.50000000  0.00000000  1
  Nd  Nd0_3  1  0.00000000  0.50000000  0.50000000  1
  Nd  Nd0_4  1  0.50000000  0.00000000  0.00000000  1
  Nd  Nd0_5  1  0.50000000  0.00000000  0.50000000  1
  Nd  Nd0_6  1  0.50000000  0.50000000  0.00000000  1
  Nd  Nd0_7  1  0.50000000  0.50000000  0.50000000  1
  B  B0_0  1  0.00000000  0.16666650  0.33333350  1
  B  B0_1  1  0.00000000  0.16666650  0.83333350  1
  B  B0_2  1  0.00000000  0.66666650  0.33333350  1
  B  B0_3  1  0.00000000  0.66666650  0.83333350  1
  B  B0_4  1  0.50000000  0.16666650  0.33333350  1
  B  B0_5  1  0.50000000  0.16666650  0.83333350  1
  B  B0_6  1  0.50000000  0.66666650  0.33333350  1
  B  B0_7  1  0.50000000  0.66666650  0.83333350  1
  B  B1_0  1  0.00000000  0.33333350  0.16666650  1
  B  B1_1  1  0.00000000  0.33333350  0.66666650  1
  B  B1_2  1  0.00000000  0.83333350  0.16666650  1
  B  B1_3  1  0.00000000  0.83333350  0.66666650  1
  B  B1_4  1  0.50000000  0.33333350  0.16666650  1
  B  B1_5  1  0.50000000  0.33333350  0.66666650  1
  B  B1_6  1  0.50000000  0.83333350  0.16666650  1
  B  B1_7  1  0.50000000  0.83333350  0.66666650  1
  Ru  Ru0_0  1  0.25000000  0.00000000  0.25000000  1
  Ru  Ru0_1  1  0.25000000  0.00000000  0.75000000  1
  Ru  Ru0_2  1  0.25000000  0.50000000  0.25000000  1
  Ru  Ru0_3  1  0.25000000  0.50000000  0.75000000  1
  Ru  Ru0_4  1  0.75000000  0.00000000  0.25000000  1
  Ru  Ru0_5  1  0.75000000  0.00000000  0.75000000  1
  Ru  Ru0_6  1  0.75000000  0.50000000  0.25000000  1
  Ru  Ru0_7  1  0.75000000  0.50000000  0.75000000  1
  Ru  Ru1_0  1  0.25000000  0.25000000  0.25000000  1
  Ru  Ru1_1  1  0.25000000  0.25000000  0.75000000  1
  Ru  Ru1_2  1  0.25000000  0.75000000  0.25000000  1
  Ru  Ru1_3  1  0.25000000  0.75000000  0.75000000  1
  Ru  Ru1_4  1  0.75000000  0.25000000  0.25000000  1
  Ru  Ru1_5  1  0.75000000  0.25000000  0.75000000  1
  Ru  Ru1_6  1  0.75000000  0.75000000  0.25000000  1
  Ru  Ru1_7  1  0.75000000  0.75000000  0.75000000  1
  Ru  Ru2_0  1  0.25000000  0.25000000  0.00000000  1
  Ru  Ru2_1  1  0.25000000  0.25000000  0.50000000  1
  Ru  Ru2_2  1  0.25000000  0.75000000  0.00000000  1
  Ru  Ru2_3  1  0.25000000  0.75000000  0.50000000  1
  Ru  Ru2_4  1  0.75000000  0.25000000  0.00000000  1
  Ru  Ru2_5  1  0.75000000  0.25000000  0.50000000  1
  Ru  Ru2_6  1  0.75000000  0.75000000  0.00000000  1
  Ru  Ru2_7  1  0.75000000  0.75000000  0.50000000  1
loop_
_geom_bond_atom_site_label_1
_geom_bond_atom_site_label_2
_geom_bond_distance
_geom_bond_site_symmetry_2
Nd0_0 Nd0_4 3.048895 1_555
Nd0_0 Nd0_4 3.048895 1_455
Nd0_0 Ru1_3 3.175269 1_544
Nd0_0 Ru1_0 3.175269 1_555
Nd0_0 Ru1_4 3.175269 1_455
Nd0_0 Ru1_7 3.175269 1_444
Nd0_0 Ru2_2 3.175269 1_545
Nd0_0 Ru2_0 3.175269 1_555
Nd0_0 Ru0_0 3.175269 1_555
Nd0_0 Ru0_1 3.175269 1_554
Nd0_0 Ru0_5 3.175269 1_454
Nd0_0 Ru2_4 3.175269 1_455
Nd0_0 Ru2_6 3.175269 1_445
Nd0_0 Ru0_4 3.175269 1_455
Nd0_1 Nd0_5 3.048895 1_555
Nd0_1 Nd0_5 3.048895 1_455
Nd0_1 Ru1_2 3.175269 1_545
Nd0_1 Ru1_5 3.175269 1_455
Nd0_1 Ru1_1 3.175269 1_555
Nd0_1 Ru1_6 3.175269 1_445
Nd0_1 Ru2_3 3.175269 1_545
Nd0_1 Ru2_1 3.175269 1_555
Nd0_1 Ru0_1 3.175269 1_555
Nd0_1 Ru0_0 3.175269 1_555
Nd0_1 Ru2_7 3.175269 1_445
Nd0_1 Ru2_5 3.175269 1_455
Nd0_1 Ru0_5 3.175269 1_455
Nd0_1 Ru0_4 3.175269 1_455
Nd0_2 Nd0_6 3.048895 1_555
Nd0_2 Nd0_6 3.048895 1_455
Nd0_2 Ru1_2 3.175269 1_555
Nd0_2 Ru1_5 3.175269 1_454
Nd0_2 Ru1_1 3.175269 1_554
Nd0_2 Ru1_6 3.175269 1_455
Nd0_2 Ru2_0 3.175269 1_555
Nd0_2 Ru0_2 3.175269 1_555
Nd0_2 Ru0_3 3.175269 1_554
Nd0_2 Ru2_2 3.175269 1_555
Nd0_2 Ru2_6 3.175269 1_455
Nd0_2 Ru0_7 3.175269 1_454
Nd0_2 Ru0_6 3.175269 1_455
Nd0_2 Ru2_4 3.175269 1_455
Nd0_3 Nd0_7 3.048895 1_555
Nd0_3 Nd0_7 3.048895 1_455
Nd0_3 Ru1_0 3.175269 1_555
Nd0_3 Ru1_7 3.175269 1_455
Nd0_3 Ru1_4 3.175269 1_455
Nd0_3 Ru1_3 3.175269 1_555
Nd0_3 Ru2_3 3.175269 1_555
Nd0_3 Ru0_3 3.175269 1_555
Nd0_3 Ru2_1 3.175269 1_555
Nd0_3 Ru0_2 3.175269 1_555
Nd0_3 Ru2_5 3.175269 1_455
Nd0_3 Ru0_6 3.175269 1_455
Nd0_3 Ru2_7 3.175269 1_455
Nd0_3 Ru0_7 3.175269 1_455
Nd0_4 Ru1_3 3.175269 1_544
Nd0_4 Ru1_0 3.175269 1_555
Nd0_4 Ru1_7 3.175269 1_544
Nd0_4 Ru1_4 3.175269 1_555
Nd0_4 Ru2_2 3.175269 1_545
Nd0_4 Ru2_0 3.175269 1_555
Nd0_4 Ru0_0 3.175269 1_555
Nd0_4 Ru0_1 3.175269 1_554
Nd0_4 Ru2_6 3.175269 1_545
Nd0_4 Ru2_4 3.175269 1_555
Nd0_4 Ru0_4 3.175269 1_555
Nd0_4 Ru0_5 3.175269 1_554
Nd0_5 Ru1_2 3.175269 1_545
Nd0_5 Ru1_1 3.175269 1_555
Nd0_5 Ru1_6 3.175269 1_545
Nd0_5 Ru1_5 3.175269 1_555
Nd0_5 Ru2_3 3.175269 1_545
Nd0_5 Ru2_1 3.175269 1_555
Nd0_5 Ru0_1 3.175269 1_555
Nd0_5 Ru0_0 3.175269 1_555
Nd0_5 Ru2_7 3.175269 1_545
Nd0_5 Ru2_5 3.175269 1_555
Nd0_5 Ru0_5 3.175269 1_555
Nd0_5 Ru0_4 3.175269 1_555
Nd0_6 Ru1_2 3.175269 1_555
Nd0_6 Ru1_1 3.175269 1_554
Nd0_6 Ru1_6 3.175269 1_555
Nd0_6 Ru1_5 3.175269 1_554
Nd0_6 Ru2_0 3.175269 1_555
Nd0_6 Ru0_2 3.175269 1_555
Nd0_6 Ru0_3 3.175269 1_554
Nd0_6 Ru2_2 3.175269 1_555
Nd0_6 Ru2_6 3.175269 1_555
Nd0_6 Ru0_6 3.175269 1_555
Nd0_6 Ru0_7 3.175269 1_554
Nd0_6 Ru2_4 3.175269 1_555
Nd0_7 Ru1_0 3.175269 1_555
Nd0_7 Ru1_3 3.175269 1_555
Nd0_7 Ru1_4 3.175269 1_555
Nd0_7 Ru1_7 3.175269 1_555
Nd0_7 Ru2_3 3.175269 1_555
Nd0_7 Ru0_3 3.175269 1_555
Nd0_7 Ru2_1 3.175269 1_555
Nd0_7 Ru0_2 3.175269 1_555
Nd0_7 Ru0_7 3.175269 1_555
Nd0_7 Ru0_6 3.175269 1_555
Nd0_7 Ru2_5 3.175269 1_555
Nd0_7 Ru2_7 3.175269 1_555
B0_0 Ru0_0 2.215867 1_555
B0_0 Ru2_5 2.215867 1_455
B0_0 Ru2_1 2.215867 1_555
B0_0 Ru0_4 2.215867 1_455
B0_0 Ru1_4 2.215870 1_455
B0_0 Ru1_0 2.215870 1_555
B0_0 Nd0_1 3.216287 1_555
B0_0 Nd0_3 3.216292 1_555
B0_0 Nd0_0 3.216292 1_555
B0_1 Ru0_5 2.215867 1_455
B0_1 Ru0_1 2.215867 1_555
B0_1 Ru2_0 2.215867 1_556
B0_1 Ru2_4 2.215867 1_456
B0_1 Ru1_5 2.215870 1_455
B0_1 Ru1_1 2.215870 1_555
B0_1 Nd0_0 3.216287 1_556
B0_1 Nd0_2 3.216292 1_556
B0_1 Nd0_1 3.216292 1_555
B0_2 Ru0_2 2.215867 1_555
B0_2 Ru0_6 2.215867 1_455
B0_2 Ru2_7 2.215867 1_455
B0_2 Ru2_3 2.215867 1_555
B0_2 Ru1_2 2.215870 1_555
B0_2 Ru1_6 2.215870 1_455
B0_2 Nd0_3 3.216287 1_555
B0_2 Nd0_1 3.216292 1_565
B0_2 Nd0_2 3.216292 1_555
B0_3 Ru0_3 2.215867 1_555
B0_3 Ru2_2 2.215867 1_556
B0_3 Ru0_7 2.215867 1_455
B0_3 Ru2_6 2.215867 1_456
B0_3 Ru1_7 2.215870 1_455
B0_3 Ru1_3 2.215870 1_555
B0_3 Nd0_2 3.216287 1_556
B0_3 Nd0_0 3.216292 1_566
B0_3 Nd0_3 3.216292 1_555
B0_4 Ru0_0 2.215867 1_555
B0_4 Ru0_4 2.215867 1_555
B0_4 Ru2_1 2.215867 1_555
B0_4 Ru2_5 2.215867 1_555
B0_4 Ru1_0 2.215870 1_555
B0_4 Ru1_4 2.215870 1_555
B0_4 Nd0_5 3.216287 1_555
B0_4 Nd0_7 3.216292 1_555
B0_4 Nd0_4 3.216292 1_555
B0_5 Ru0_1 2.215867 1_555
B0_5 Ru2_0 2.215867 1_556
B0_5 Ru0_5 2.215867 1_555
B0_5 Ru2_4 2.215867 1_556
B0_5 Ru1_1 2.215870 1_555
B0_5 Ru1_5 2.215870 1_555
B0_5 Nd0_4 3.216287 1_556
B0_5 Nd0_5 3.216292 1_555
B0_5 Nd0_6 3.216292 1_556
B0_6 Ru2_7 2.215867 1_555
B0_6 Ru0_2 2.215867 1_555
B0_6 Ru2_3 2.215867 1_555
B0_6 Ru0_6 2.215867 1_555
B0_6 Ru1_2 2.215870 1_555
B0_6 Ru1_6 2.215870 1_555
B0_6 Nd0_7 3.216287 1_555
B0_6 Nd0_5 3.216292 1_565
B0_6 Nd0_6 3.216292 1_555
B0_7 Ru0_3 2.215867 1_555
B0_7 Ru2_2 2.215867 1_556
B0_7 Ru2_6 2.215867 1_556
B0_7 Ru0_7 2.215867 1_555
B0_7 Ru1_3 2.215870 1_555
B0_7 Ru1_7 2.215870 1_555
B0_7 Nd0_6 3.216287 1_556
B0_7 Nd0_7 3.216292 1_555
B0_7 Nd0_4 3.216292 1_566
B1_0 Ru0_2 2.215867 1_555
B1_0 Ru2_0 2.215867 1_555
B1_0 Ru0_6 2.215867 1_455
B1_0 Ru2_4 2.215867 1_455
B1_0 Ru1_0 2.215870 1_555
B1_0 Ru1_4 2.215870 1_455
B1_0 Nd0_2 3.216287 1_555
B1_0 Nd0_3 3.216292 1_555
B1_0 Nd0_0 3.216292 1_555
B1_1 Ru2_5 2.215867 1_455
B1_1 Ru0_3 2.215867 1_555
B1_1 Ru2_1 2.215867 1_555
B1_1 Ru0_7 2.215867 1_455
B1_1 Ru1_1 2.215870 1_555
B1_1 Ru1_5 2.215870 1_455
B1_1 Nd0_3 3.216287 1_555
B1_1 Nd0_1 3.216292 1_555
B1_1 Nd0_2 3.216292 1_556
B1_2 Ru0_4 2.215867 1_465
B1_2 Ru2_2 2.215867 1_555
B1_2 Ru0_0 2.215867 1_565
B1_2 Ru2_6 2.215867 1_455
B1_2 Ru1_6 2.215870 1_455
B1_2 Ru1_2 2.215870 1_555
B1_2 Nd0_0 3.216287 1_565
B1_2 Nd0_2 3.216292 1_555
B1_2 Nd0_1 3.216292 1_565
B1_3 Ru0_5 2.215867 1_465
B1_3 Ru2_7 2.215867 1_455
B1_3 Ru2_3 2.215867 1_555
B1_3 Ru0_1 2.215867 1_565
B1_3 Ru1_3 2.215870 1_555
B1_3 Ru1_7 2.215870 1_455
B1_3 Nd0_1 3.216287 1_565
B1_3 Nd0_0 3.216292 1_566
B1_3 Nd0_3 3.216292 1_555
B1_4 Ru0_2 2.215867 1_555
B1_4 Ru2_0 2.215867 1_555
B1_4 Ru0_6 2.215867 1_555
B1_4 Ru2_4 2.215867 1_555
B1_4 Ru1_0 2.215870 1_555
B1_4 Ru1_4 2.215870 1_555
B1_4 Nd0_6 3.216287 1_555
B1_4 Nd0_7 3.216292 1_555
B1_4 Nd0_4 3.216292 1_555
B1_5 Ru0_3 2.215867 1_555
B1_5 Ru2_1 2.215867 1_555
B1_5 Ru0_7 2.215867 1_555
B1_5 Ru2_5 2.215867 1_555
B1_5 Ru1_1 2.215870 1_555
B1_5 Ru1_5 2.215870 1_555
B1_5 Nd0_7 3.216287 1_555
B1_5 Nd0_5 3.216292 1_555
B1_5 Nd0_6 3.216292 1_556
B1_6 Ru2_2 2.215867 1_555
B1_6 Ru0_0 2.215867 1_565
B1_6 Ru2_6 2.215867 1_555
B1_6 Ru0_4 2.215867 1_565
B1_6 Ru1_2 2.215870 1_555
B1_6 Ru1_6 2.215870 1_555
B1_6 Nd0_4 3.216287 1_565
B1_6 Nd0_6 3.216292 1_555
B1_6 Nd0_5 3.216292 1_565
B1_7 Ru2_3 2.215867 1_555
B1_7 Ru0_1 2.215867 1_565
B1_7 Ru2_7 2.215867 1_555
B1_7 Ru0_5 2.215867 1_565
B1_7 Ru1_3 2.215870 1_555
B1_7 Ru1_7 2.215870 1_555
B1_7 Nd0_5 3.216287 1_565
B1_7 Nd0_4 3.216292 1_566
B1_7 Nd0_7 3.216292 1_555
