# generated using pymatgen
data_Bi17(WO11)3
_symmetry_space_group_name_H-M   'P 1'
_cell_length_a   10.19163100
_cell_length_b   10.41342484
_cell_length_c   10.41824422
_cell_angle_alpha   108.48222295
_cell_angle_beta   104.07075572
_cell_angle_gamma   113.18327287
_symmetry_Int_Tables_number   1
_chemical_formula_structural   Bi17(WO11)3
_chemical_formula_sum   'Bi17 W3 O33'
_cell_volume   873.93701254
_cell_formula_units_Z   1
loop_
 _symmetry_equiv_pos_site_id
 _symmetry_equiv_pos_as_xyz
  1  'x, y, z'
loop_
 _atom_site_type_symbol
 _atom_site_label
 _atom_site_symmetry_multiplicity
 _atom_site_fract_x
 _atom_site_fract_y
 _atom_site_fract_z
 _atom_site_occupancy
  Bi  Bi0  1  0.17831700  0.39962500  0.60776700  1
  Bi  Bi1  1  0.31260700  0.10429300  0.41345200  1
  Bi  Bi2  1  0.03156900  0.32639500  0.90376400  1
  Bi  Bi3  1  0.55999200  0.85355600  0.90509000  1
  Bi  Bi4  1  0.11522100  0.68599700  0.79045100  1
  Bi  Bi5  1  0.84514500  0.94910400  0.31577200  1
  Bi  Bi6  1  0.61945500  0.22026600  0.82661900  1
  Bi  Bi7  1  0.37319300  0.48160900  0.30054100  1
  Bi  Bi8  1  0.90500800  0.28372700  0.20921700  1
  Bi  Bi9  1  0.65178100  0.54721300  0.70210100  1
  Bi  Bi10  1  0.12421400  0.02426600  0.72036600  1
  Bi  Bi11  1  0.42194200  0.80557700  0.18892500  1
  Bi  Bi12  1  0.46418700  0.15846700  0.10379400  1
  Bi  Bi13  1  0.93907000  0.63079800  0.07509700  1
  Bi  Bi14  1  0.70783100  0.90641100  0.60186100  1
  Bi  Bi15  1  0.72615800  0.24480600  0.49187700  1
  Bi  Bi16  1  0.79075000  0.58747400  0.40895200  1
  W  W0  1  0.22538500  0.73471900  0.48359800  1
  W  W1  1  0.03133200  0.98376100  0.01466400  1
  W  W2  1  0.53034000  0.50718000  0.00471000  1
  O  O0  1  0.13312100  0.50836500  0.42188300  1
  O  O1  1  0.11103100  0.25904600  0.73064300  1
  O  O2  1  0.44207300  0.55565900  0.86344000  1
  O  O3  1  0.10599100  0.92572900  0.16210400  1
  O  O4  1  0.36826300  0.78599300  0.67317800  1
  O  O5  1  0.40846200  0.55510200  0.12679400  1
  O  O6  1  0.62907300  0.87997800  0.13736700  1
  O  O7  1  0.87502900  0.01072900  0.06276700  1
  O  O8  1  0.30121000  0.96176800  0.52585300  1
  O  O9  1  0.08594200  0.76039800  0.59251700  1
  O  O10  1  0.55437800  0.28008400  0.59248100  1
  O  O11  1  0.36278900  0.81942800  0.96146100  1
  O  O12  1  0.62599600  0.10045100  0.99096600  1
  O  O13  1  0.84879400  0.37536600  0.02751800  1
  O  O14  1  0.88861400  0.89317200  0.52865100  1
  O  O15  1  0.61719900  0.64833000  0.50526100  1
  O  O16  1  0.08189500  0.56781000  0.95094900  1
  O  O17  1  0.45232100  0.28185000  0.94752300  1
  O  O18  1  0.37134300  0.73520400  0.39684900  1
  O  O19  1  0.93974900  0.20850200  0.40616500  1
  O  O20  1  0.17830000  0.95983900  0.91602800  1
  O  O21  1  0.66572700  0.94440600  0.40314000  1
  O  O22  1  0.66740200  0.47142200  0.88992000  1
  O  O23  1  0.74453700  0.32238800  0.29405600  1
  O  O24  1  0.04886100  0.66910100  0.30613700  1
  O  O25  1  0.46524300  0.07107600  0.30259400  1
  O  O26  1  0.95946400  0.02299300  0.83060700  1
  O  O27  1  0.72623000  0.64542900  0.17692600  1
  O  O28  1  0.52930000  0.39744200  0.26709900  1
  O  O29  1  0.19103300  0.19807600  0.13682500  1
  O  O30  1  0.79993600  0.21215900  0.72504900  1
  O  O31  1  0.80491300  0.51141400  0.59528600  1
  O  O32  1  0.88728200  0.75104300  0.88333800  1
loop_
_geom_bond_atom_site_label_1
_geom_bond_atom_site_label_2
_geom_bond_distance
_geom_bond_site_symmetry_2
Bi0 O1 2.253154 1_555
Bi0 O19 2.311000 1_455
Bi0 O0 2.571388 1_555
Bi0 O2 2.701212 1_555
Bi1 O8 2.149392 1_545
Bi1 O25 2.217531 1_555
Bi1 O10 2.224972 1_555
Bi1 O3 2.428500 1_545
Bi2 O30 2.168447 1_455
Bi2 O1 2.180867 1_555
Bi2 O16 2.214351 1_555
Bi2 O13 2.625098 1_456
Bi2 O26 2.734218 1_455
Bi3 O11 2.157421 1_555
Bi3 O12 2.179533 1_565
Bi3 O6 2.241495 1_556
Bi3 O4 2.386428 1_555
Bi3 O2 2.685790 1_555
Bi3 O7 2.698035 1_566
Bi4 O11 2.226066 1_555
Bi4 O16 2.382811 1_555
Bi4 O9 2.416082 1_555
Bi4 O20 2.457433 1_555
Bi4 O31 2.728338 1_455
Bi5 O6 2.176147 1_555
Bi5 O21 2.222978 1_555
Bi5 O19 2.237888 1_565
Bi5 O14 2.449218 1_555
Bi5 O27 2.605990 1_555
Bi6 O13 2.226693 1_556
Bi6 O22 2.292918 1_555
Bi6 O30 2.349957 1_555
Bi6 O12 2.420177 1_555
Bi6 O17 2.508092 1_555
Bi6 O10 2.698170 1_555
Bi7 O28 2.143512 1_555
Bi7 O5 2.229264 1_555
Bi7 O15 2.328379 1_555
Bi7 O29 2.454581 1_555
Bi7 O18 2.519788 1_555
Bi8 O23 2.147958 1_555
Bi8 O0 2.390265 1_655
Bi8 O19 2.415222 1_555
Bi8 O13 2.422952 1_555
Bi8 O12 2.594287 1_554
Bi8 O7 2.615804 1_555
Bi9 O31 2.202852 1_555
Bi9 O32 2.252878 1_555
Bi9 O10 2.299584 1_555
Bi9 O22 2.324587 1_555
Bi9 O15 2.597748 1_555
Bi10 O14 2.230900 1_445
Bi10 O26 2.251302 1_455
Bi10 O20 2.349717 1_545
Bi10 O9 2.461616 1_545
Bi10 O1 2.471140 1_555
Bi11 O6 2.207395 1_555
Bi11 O11 2.364444 1_554
Bi11 O21 2.382000 1_555
Bi11 O5 2.417703 1_555
Bi11 O25 2.439345 1_565
Bi11 O18 2.597595 1_555
Bi12 O28 2.234781 1_555
Bi12 O17 2.380945 1_554
Bi12 O12 2.396451 1_554
Bi12 O23 2.503484 1_555
Bi12 O25 2.511937 1_555
Bi12 O20 2.551969 1_544
Bi13 O24 2.221534 1_655
Bi13 O13 2.276583 1_555
Bi13 O16 2.313278 1_654
Bi13 O22 2.428373 1_554
Bi13 O3 2.553359 1_655
Bi13 O27 2.670345 1_555
Bi13 O32 2.726049 1_554
Bi14 O14 2.193648 1_555
Bi14 O21 2.201812 1_555
Bi14 O15 2.228758 1_555
Bi14 O26 2.544146 1_565
Bi14 O30 2.671276 1_565
Bi15 O31 2.332684 1_555
Bi15 O10 2.335168 1_555
Bi15 O25 2.373473 1_555
Bi15 O23 2.461606 1_555
Bi15 O30 2.533555 1_555
Bi15 O19 2.656697 1_555
Bi15 O21 2.718867 1_545
Bi16 O28 2.297728 1_555
Bi16 O31 2.311997 1_555
Bi16 O15 2.424712 1_555
Bi16 O23 2.425281 1_555
Bi16 O9 2.589317 1_655
Bi16 O14 2.657465 1_555
Bi16 O27 2.665424 1_555
O0 W0 1.963070 1_555
O2 W2 1.848006 1_556
O3 W1 1.919875 1_555
O4 W0 1.904532 1_555
O5 W2 2.064821 1_555
O7 W1 1.875841 1_645
O8 W0 2.029102 1_555
O9 W0 2.066345 1_555
O17 W2 1.976705 1_556
O18 W0 1.918415 1_555
O20 W1 2.059486 1_556
O22 W2 2.111784 1_556
O24 W0 1.932755 1_555
O26 W1 2.104698 1_646
O27 W2 1.906598 1_555
O29 W1 1.892501 1_545
O32 W1 2.004994 1_656
