# generated using pymatgen
data_Na6V2O7
_symmetry_space_group_name_H-M   'P 1'
_cell_length_a   8.44637900
_cell_length_b   6.01439400
_cell_length_c   10.64746289
_cell_angle_alpha   57.58811882
_cell_angle_beta   90.00000000
_cell_angle_gamma   90.00000000
_symmetry_Int_Tables_number   1
_chemical_formula_structural   Na6V2O7
_chemical_formula_sum   'Na12 V4 O14'
_cell_volume   456.62802589
_cell_formula_units_Z   2
loop_
 _symmetry_equiv_pos_site_id
 _symmetry_equiv_pos_as_xyz
  1  'x, y, z'
loop_
 _atom_site_type_symbol
 _atom_site_label
 _atom_site_symmetry_multiplicity
 _atom_site_fract_x
 _atom_site_fract_y
 _atom_site_fract_z
 _atom_site_occupancy
  Na  Na0  1  0.04567800  0.57465200  0.27951200  1
  Na  Na1  1  0.91552900  0.92913300  0.95089500  1
  Na  Na2  1  0.77916800  0.20776400  0.54038300  1
  Na  Na3  1  0.27442400  0.78267300  0.96321600  1
  Na  Na4  1  0.54033900  0.39516000  0.23121800  1
  Na  Na5  1  0.41698300  0.08403700  0.54971400  1
  Na  Na6  1  0.08447100  0.92913300  0.45089500  1
  Na  Na7  1  0.95432200  0.57465200  0.77951200  1
  Na  Na8  1  0.22083200  0.20776400  0.04038300  1
  Na  Na9  1  0.72557600  0.78267300  0.46321600  1
  Na  Na10  1  0.58301700  0.08403700  0.04971400  1
  Na  Na11  1  0.45966100  0.39516000  0.73121800  1
  V  V0  1  0.09712700  0.28759500  0.63821400  1
  V  V1  1  0.60786700  0.71034700  0.85451600  1
  V  V2  1  0.90287300  0.28759500  0.13821400  1
  V  V3  1  0.39213300  0.71034700  0.35451600  1
  O  O0  1  0.36819500  0.78295100  0.17015900  1
  O  O1  1  0.24347200  0.44965100  0.48191300  1
  O  O2  1  0.56401500  0.49110900  0.44040900  1
  O  O3  1  0.60662800  0.98612000  0.87380800  1
  O  O4  1  0.05162100  0.98410400  0.65044000  1
  O  O5  1  0.05995500  0.52266000  0.06939300  1
  O  O6  1  0.84348700  0.21161100  0.32158300  1
  O  O7  1  0.63180500  0.78295100  0.67015900  1
  O  O8  1  0.75652800  0.44965100  0.98191300  1
  O  O9  1  0.43598500  0.49110900  0.94040900  1
  O  O10  1  0.39337200  0.98612000  0.37380800  1
  O  O11  1  0.94837900  0.98410400  0.15044000  1
  O  O12  1  0.94004500  0.52266000  0.56939300  1
  O  O13  1  0.15651300  0.21161100  0.82158300  1
loop_
_geom_bond_atom_site_label_1
_geom_bond_atom_site_label_2
_geom_bond_distance
_geom_bond_site_symmetry_2
Na0 O11 2.236174 1_455
Na0 O5 2.422292 1_555
Na0 O1 2.502736 1_555
Na0 O6 2.614616 1_455
Na1 O11 2.335262 1_556
Na1 O5 2.397902 1_656
Na1 O13 2.533280 1_665
Na1 O3 2.701288 1_555
Na2 O2 2.322721 1_555
Na2 O6 2.380173 1_555
Na2 O12 2.481095 1_555
Na2 O7 2.490361 1_545
Na2 O4 2.605490 1_645
Na3 O5 2.260501 1_556
Na3 O9 2.335093 1_555
Na3 O0 2.342287 1_556
Na3 O13 2.398093 1_565
Na4 O10 2.427796 1_545
Na4 O0 2.520125 1_555
Na4 O2 2.590755 1_555
Na4 O6 2.749901 1_555
Na4 O9 2.963437 1_554
Na5 O10 2.253212 1_545
Na5 O7 2.393031 1_545
Na5 O1 2.408856 1_555
Na5 O2 2.415855 1_555
Na6 O4 2.335262 1_555
Na6 O12 2.397902 1_455
Na6 O6 2.533280 1_465
Na6 O10 2.701288 1_555
Na7 O4 2.236174 1_655
Na7 O12 2.422292 1_555
Na7 O8 2.502736 1_555
Na7 O13 2.614616 1_655
Na8 O9 2.322721 1_554
Na8 O13 2.380173 1_554
Na8 O5 2.481095 1_555
Na8 O0 2.490361 1_545
Na8 O11 2.605490 1_445
Na9 O12 2.260501 1_555
Na9 O2 2.335093 1_555
Na9 O7 2.342287 1_555
Na9 O6 2.398093 1_565
Na10 O3 2.253212 1_544
Na10 O0 2.393031 1_545
Na10 O8 2.408856 1_554
Na10 O9 2.415855 1_554
Na11 O3 2.427796 1_545
Na11 O7 2.520125 1_555
Na11 O9 2.590755 1_555
Na11 O13 2.749901 1_555
Na11 O2 2.963437 1_555
O0 V3 1.779270 1_555
O1 V0 1.873134 1_555
O1 V3 1.896063 1_555
O2 V3 1.841192 1_555
O3 V1 1.777220 1_555
O4 V0 1.800481 1_565
O5 V2 1.784789 1_455
O6 V2 1.820954 1_555
O7 V1 1.779270 1_555
O8 V2 1.873134 1_556
O8 V1 1.896063 1_555
O9 V1 1.841192 1_555
O10 V3 1.777220 1_555
O11 V2 1.800481 1_565
O12 V0 1.784789 1_655
O13 V0 1.820954 1_555
