# generated using pymatgen
data_Ba2YBr7
_symmetry_space_group_name_H-M   'P 1'
_cell_length_a   14.43205500
_cell_length_b   7.59506200
_cell_length_c   13.27807921
_cell_angle_alpha   83.16779894
_cell_angle_beta   90.00000000
_cell_angle_gamma   90.00000000
_symmetry_Int_Tables_number   1
_chemical_formula_structural   Ba2YBr7
_chemical_formula_sum   'Ba8 Y4 Br28'
_cell_volume   1445.10612732
_cell_formula_units_Z   4
loop_
 _symmetry_equiv_pos_site_id
 _symmetry_equiv_pos_as_xyz
  1  'x, y, z'
loop_
 _atom_site_type_symbol
 _atom_site_label
 _atom_site_symmetry_multiplicity
 _atom_site_fract_x
 _atom_site_fract_y
 _atom_site_fract_z
 _atom_site_occupancy
  Ba  Ba0  1  0.54434800  0.76919500  0.74400200  1
  Ba  Ba1  1  0.13630100  0.73513500  0.62474100  1
  Ba  Ba2  1  0.78550500  0.74740000  0.12505500  1
  Ba  Ba3  1  0.36898700  0.70172600  0.23318400  1
  Ba  Ba4  1  0.86898700  0.29827400  0.76681600  1
  Ba  Ba5  1  0.28550500  0.25260000  0.87494500  1
  Ba  Ba6  1  0.63630100  0.26486500  0.37525900  1
  Ba  Ba7  1  0.04434800  0.23080500  0.25599800  1
  Y  Y0  1  0.84495000  0.81321100  0.54713500  1
  Y  Y1  1  0.07614900  0.79532100  0.04439400  1
  Y  Y2  1  0.57614900  0.20467900  0.95560600  1
  Y  Y3  1  0.34495000  0.18678900  0.45286500  1
  Br  Br0  1  0.70599100  0.96232000  0.89015500  1
  Br  Br1  1  0.43721000  0.94113900  0.98370300  1
  Br  Br2  1  0.49719100  0.95806600  0.50234500  1
  Br  Br3  1  0.15139300  0.88406700  0.85558000  1
  Br  Br4  1  0.23317800  0.91021900  0.39426600  1
  Br  Br5  1  0.77131200  0.89270800  0.35596900  1
  Br  Br6  1  0.91482400  0.79122200  0.74429900  1
  Br  Br7  1  0.01048200  0.77223500  0.24455400  1
  Br  Br8  1  0.33611000  0.61621400  0.72730600  1
  Br  Br9  1  0.58705500  0.62277000  0.22445600  1
  Br  Br10  1  0.70151500  0.57031500  0.60730400  1
  Br  Br11  1  0.70522000  0.47946700  0.90270300  1
  Br  Br12  1  0.95461400  0.51847000  0.52959600  1
  Br  Br13  1  0.45071500  0.46520800  0.98899400  1
  Br  Br14  1  0.95071500  0.53479200  0.01100600  1
  Br  Br15  1  0.45461400  0.48153000  0.47040400  1
  Br  Br16  1  0.20522000  0.52053300  0.09729700  1
  Br  Br17  1  0.20151500  0.42968500  0.39269600  1
  Br  Br18  1  0.08705500  0.37723000  0.77554400  1
  Br  Br19  1  0.83611000  0.38378600  0.27269400  1
  Br  Br20  1  0.51048200  0.22776500  0.75544600  1
  Br  Br21  1  0.41482400  0.20877800  0.25570100  1
  Br  Br22  1  0.27131200  0.10729200  0.64403100  1
  Br  Br23  1  0.73317800  0.08978100  0.60573400  1
  Br  Br24  1  0.65139300  0.11593300  0.14442000  1
  Br  Br25  1  0.99719100  0.04193400  0.49765500  1
  Br  Br26  1  0.93721000  0.05886100  0.01629700  1
  Br  Br27  1  0.20599100  0.03768000  0.10984500  1
loop_
_geom_bond_atom_site_label_1
_geom_bond_atom_site_label_2
_geom_bond_distance
_geom_bond_site_symmetry_2
Ba0 Br8 3.239180 1_555
Ba0 Br10 3.372449 1_555
Ba0 Br2 3.423713 1_555
Ba0 Br0 3.469429 1_555
Ba0 Br20 3.538115 1_565
Ba0 Br11 3.683720 1_555
Ba0 Br1 3.900664 1_555
Ba0 Br23 3.957576 1_565
Ba0 Br13 3.993974 1_555
Ba1 Br18 3.257115 1_555
Ba1 Br8 3.270057 1_555
Ba1 Br25 3.372277 1_465
Ba1 Br3 3.398039 1_555
Ba1 Br12 3.416739 1_455
Ba1 Br22 3.467545 1_565
Ba1 Br4 3.481390 1_555
Ba1 Br6 3.616530 1_455
Ba2 Br9 3.247076 1_555
Ba2 Br19 3.273399 1_555
Ba2 Br14 3.341785 1_555
Ba2 Br5 3.386143 1_555
Ba2 Br26 3.414979 1_565
Ba2 Br24 3.437751 1_565
Ba2 Br0 3.535298 1_554
Ba2 Br7 3.628594 1_655
Ba2 Br11 3.953454 1_554
Ba3 Br9 3.208466 1_555
Ba3 Br16 3.365457 1_555
Ba3 Br4 3.424863 1_555
Ba3 Br15 3.604461 1_555
Ba3 Br17 3.681787 1_555
Ba3 Br27 3.705685 1_565
Ba3 Br1 3.717017 1_554
Ba3 Br21 3.778623 1_555
Ba3 Br21 3.953714 1_565
Ba4 Br18 3.208466 1_655
Ba4 Br11 3.365457 1_555
Ba4 Br23 3.424863 1_555
Ba4 Br12 3.604461 1_555
Ba4 Br10 3.681787 1_555
Ba4 Br0 3.705685 1_545
Ba4 Br26 3.717017 1_556
Ba4 Br6 3.778623 1_555
Ba4 Br6 3.953714 1_545
Ba5 Br18 3.247076 1_555
Ba5 Br8 3.273399 1_555
Ba5 Br13 3.341785 1_555
Ba5 Br22 3.386143 1_555
Ba5 Br1 3.414979 1_545
Ba5 Br3 3.437751 1_545
Ba5 Br27 3.535298 1_556
Ba5 Br20 3.628594 1_555
Ba5 Br16 3.953454 1_556
Ba6 Br9 3.257115 1_555
Ba6 Br19 3.270057 1_555
Ba6 Br2 3.372277 1_545
Ba6 Br24 3.398039 1_555
Ba6 Br15 3.416739 1_555
Ba6 Br5 3.467545 1_545
Ba6 Br23 3.481390 1_555
Ba6 Br21 3.616530 1_555
Ba7 Br19 3.239180 1_455
Ba7 Br17 3.372449 1_555
Ba7 Br25 3.423713 1_455
Ba7 Br27 3.469429 1_555
Ba7 Br7 3.538115 1_545
Ba7 Br16 3.683720 1_555
Ba7 Br26 3.900664 1_455
Ba7 Br4 3.957576 1_545
Ba7 Br14 3.993974 1_455
Br0 Y2 2.834718 1_565
Br1 Y2 2.826421 1_565
Br2 Y3 2.829367 1_565
Br3 Y1 2.741711 1_556
Br4 Y3 2.829973 1_565
Br5 Y0 2.751800 1_555
Br6 Y0 2.791863 1_555
Br7 Y1 2.807420 1_555
Br10 Y0 2.824199 1_555
Br11 Y2 2.823156 1_555
Br12 Y0 2.773871 1_555
Br13 Y2 2.756396 1_555
Br14 Y1 2.756396 1_655
Br15 Y3 2.773871 1_555
Br16 Y1 2.823156 1_555
Br17 Y3 2.824199 1_555
Br20 Y2 2.807420 1_555
Br21 Y3 2.791863 1_555
Br22 Y3 2.751800 1_555
Br23 Y0 2.829973 1_545
Br24 Y2 2.741711 1_554
Br25 Y0 2.829367 1_545
Br26 Y1 2.826421 1_645
Br27 Y1 2.834718 1_545
