# generated using pymatgen
data_Li4FeOF5
_symmetry_space_group_name_H-M   'P 1'
_cell_length_a   5.83014888
_cell_length_b   5.83014888
_cell_length_c   13.27038747
_cell_angle_alpha   89.97932015
_cell_angle_beta   89.97932015
_cell_angle_gamma   120.13504844
_symmetry_Int_Tables_number   1
_chemical_formula_structural   Li4FeOF5
_chemical_formula_sum   'Li12 Fe3 O3 F15'
_cell_volume   390.10435355
_cell_formula_units_Z   3
loop_
 _symmetry_equiv_pos_site_id
 _symmetry_equiv_pos_as_xyz
  1  'x, y, z'
loop_
 _atom_site_type_symbol
 _atom_site_label
 _atom_site_symmetry_multiplicity
 _atom_site_fract_x
 _atom_site_fract_y
 _atom_site_fract_z
 _atom_site_occupancy
  Li  Li0  1  0.33370900  0.01152400  0.65412800  1
  Li  Li1  1  0.33381500  0.00677100  0.94993700  1
  Li  Li2  1  0.31794600  0.31794600  0.49688900  1
  Li  Li3  1  0.01152400  0.33370900  0.65412800  1
  Li  Li4  1  0.00677100  0.33381500  0.94993700  1
  Li  Li5  1  0.66602200  0.66602200  0.34314400  1
  Li  Li6  1  0.65498700  0.65498700  0.66029500  1
  Li  Li7  1  0.66103900  0.66103900  0.95415100  1
  Li  Li8  1  0.01174800  0.66578700  0.49784800  1
  Li  Li9  1  0.00015500  0.66705600  0.79268900  1
  Li  Li10  1  0.66578700  0.01174800  0.49784800  1
  Li  Li11  1  0.66705600  0.00015500  0.79268900  1
  Fe  Fe0  1  0.33423000  0.33423000  0.14885300  1
  Fe  Fe1  1  0.00061100  0.66728800  0.14909200  1
  Fe  Fe2  1  0.66728800  0.00061100  0.14909200  1
  O  O0  1  0.33427000  0.00117700  0.13690600  1
  O  O1  1  0.00117700  0.33427000  0.13690600  1
  O  O2  1  0.66784700  0.66784700  0.12645200  1
  F  F0  1  0.33298500  0.99734600  0.49595300  1
  F  F1  1  0.33406500  0.95975500  0.81364600  1
  F  F2  1  0.36510100  0.36510100  0.28897100  1
  F  F3  1  0.33751500  0.33751500  0.64336200  1
  F  F4  1  0.32698000  0.32698000  0.99021300  1
  F  F5  1  0.99734600  0.33298500  0.49595300  1
  F  F6  1  0.95975500  0.33406500  0.81364600  1
  F  F7  1  0.66863400  0.66863400  0.48052700  1
  F  F8  1  0.70854900  0.70854900  0.81705200  1
  F  F9  1  0.96671700  0.66559400  0.28921900  1
  F  F10  1  0.99402500  0.66656600  0.64962000  1
  F  F11  1  0.00782700  0.66652800  0.99040800  1
  F  F12  1  0.66559400  0.96671700  0.28921900  1
  F  F13  1  0.66656600  0.99402500  0.64962000  1
  F  F14  1  0.66652800  0.00782700  0.99040800  1
loop_
_geom_bond_atom_site_label_1
_geom_bond_atom_site_label_2
_geom_bond_distance
_geom_bond_site_symmetry_2
Li1 O0 2.481374 1_556
Li4 O1 2.481374 1_556
Li7 O2 2.286873 1_556
Fe0 O0 1.948384 1_555
Fe0 O1 1.948384 1_555
Fe0 O2 1.963484 1_555
Fe1 O0 1.948584 1_565
Fe1 O1 1.949979 1_555
Fe1 O2 1.964915 1_455
Fe2 O1 1.948584 1_655
Fe2 O0 1.949979 1_555
Fe2 O2 1.964915 1_545
F0 Li10 1.899696 1_565
F0 Li8 1.899927 1_555
F0 Li2 1.914711 1_565
F0 Li0 2.100623 1_565
F1 Li1 1.829496 1_565
F1 Li11 1.855326 1_565
F1 Li9 1.855891 1_555
F1 Li0 2.138315 1_565
F2 Fe0 1.868204 1_555
F2 Li5 1.893158 1_555
F3 Li6 1.860909 1_555
F3 Li0 1.894875 1_555
F3 Li3 1.894875 1_555
F3 Li2 1.947167 1_555
F4 Li1 1.961593 1_555
F4 Li4 1.961593 1_555
F4 Li7 2.001348 1_555
F4 Fe0 2.105667 1_556
F5 Li8 1.899696 1_655
F5 Li10 1.899927 1_555
F5 Li2 1.914711 1_655
F5 Li3 2.100623 1_655
F6 Li4 1.829496 1_655
F6 Li9 1.855326 1_655
F6 Li11 1.855891 1_555
F6 Li3 2.138315 1_655
F7 Li5 1.823200 1_555
F7 Li8 2.021979 1_655
F7 Li10 2.021979 1_565
F7 Li2 2.051753 1_555
F7 Li6 2.386855 1_555
F8 Li7 1.840039 1_555
F8 Li11 1.861725 1_565
F8 Li9 1.861725 1_655
F8 Li6 2.103663 1_555
F9 Fe1 1.869437 1_655
F9 Li5 1.894448 1_555
F10 Li9 1.898906 1_655
F10 Li6 1.948730 1_555
F10 Li0 1.992827 1_665
F10 Li3 1.994656 1_655
F10 Li8 2.016808 1_655
F11 Li4 2.009959 1_555
F11 Li1 2.012097 1_565
F11 Li7 2.063020 1_455
F11 Fe1 2.106254 1_556
F12 Fe2 1.869437 1_565
F12 Li5 1.894448 1_555
F13 Li11 1.898906 1_565
F13 Li6 1.948730 1_555
F13 Li3 1.992827 1_665
F13 Li0 1.994656 1_565
F13 Li10 2.016808 1_565
F14 Li1 2.009959 1_555
F14 Li4 2.012097 1_655
F14 Li7 2.063020 1_545
F14 Fe2 2.106254 1_556
