# generated using pymatgen
data_Li4Cr3FeO8
_symmetry_space_group_name_H-M   'P 1'
_cell_length_a   5.12331368
_cell_length_b   5.88650984
_cell_length_c   10.19457921
_cell_angle_alpha   90.05442464
_cell_angle_beta   80.45899477
_cell_angle_gamma   73.28901900
_symmetry_Int_Tables_number   1
_chemical_formula_structural   Li4Cr3FeO8
_chemical_formula_sum   'Li8 Cr6 Fe2 O16'
_cell_volume   290.00988162
_cell_formula_units_Z   2
loop_
 _symmetry_equiv_pos_site_id
 _symmetry_equiv_pos_as_xyz
  1  'x, y, z'
loop_
 _atom_site_type_symbol
 _atom_site_label
 _atom_site_symmetry_multiplicity
 _atom_site_fract_x
 _atom_site_fract_y
 _atom_site_fract_z
 _atom_site_occupancy
  Li  Li0  1  0.00033100  0.00089400  0.99855000  1
  Li  Li1  1  0.99802100  0.00147200  0.49972400  1
  Li  Li2  1  0.00000000  0.25000000  0.25000000  1
  Li  Li3  1  0.00000000  0.25000000  0.75000000  1
  Li  Li4  1  0.00197900  0.49852800  0.00027600  1
  Li  Li5  1  0.99966900  0.49910600  0.50145000  1
  Li  Li6  1  0.00000000  0.75000000  0.25000000  1
  Li  Li7  1  0.00000000  0.75000000  0.75000000  1
  Cr  Cr0  1  0.49994900  0.12592700  0.37659300  1
  Cr  Cr1  1  0.50005100  0.37407300  0.12340700  1
  Cr  Cr2  1  0.49997800  0.62404200  0.37671800  1
  Cr  Cr3  1  0.49978500  0.62356000  0.87328500  1
  Cr  Cr4  1  0.50002300  0.87595800  0.12328200  1
  Cr  Cr5  1  0.50021500  0.87644000  0.62671400  1
  Fe  Fe0  1  0.50012900  0.12563100  0.87377400  1
  Fe  Fe1  1  0.49987100  0.37436900  0.62622600  1
  O  O0  1  0.27597400  0.18154300  0.05664500  1
  O  O1  1  0.27624600  0.18444800  0.56247900  1
  O  O2  1  0.72636100  0.06850900  0.18945500  1
  O  O3  1  0.72116800  0.07403600  0.69150500  1
  O  O4  1  0.27363900  0.43149100  0.31054600  1
  O  O5  1  0.72402500  0.31845800  0.44335600  1
  O  O6  1  0.27883100  0.42596500  0.80849600  1
  O  O7  1  0.72375300  0.31555300  0.93752100  1
  O  O8  1  0.27344500  0.68147400  0.05951100  1
  O  O9  1  0.72619200  0.56813200  0.18929300  1
  O  O10  1  0.27608900  0.67775100  0.56314100  1
  O  O11  1  0.72374900  0.56538300  0.68845000  1
  O  O12  1  0.27380700  0.93186800  0.31070700  1
  O  O13  1  0.72655500  0.81852600  0.44048900  1
  O  O14  1  0.27625200  0.93461600  0.81155000  1
  O  O15  1  0.72391200  0.82224800  0.93685900  1
loop_
_geom_bond_atom_site_label_1
_geom_bond_atom_site_label_2
_geom_bond_distance
_geom_bond_site_symmetry_2
Li0 O14 2.138434 1_545
Li0 O7 2.147284 1_455
Li0 O0 2.148392 1_556
Li0 O8 2.158007 1_546
Li0 O15 2.158107 1_445
Li0 O2 2.165164 1_456
Li1 O5 2.132046 1_555
Li1 O13 2.144129 1_545
Li1 O12 2.154157 1_645
Li1 O3 2.178878 1_555
Li1 O1 2.187516 1_655
Li1 O10 2.196646 1_645
Li2 O2 2.152841 1_455
Li2 O4 2.152845 1_555
Li2 O12 2.153384 1_545
Li2 O9 2.153387 1_455
Li2 O0 2.189504 1_555
Li2 O5 2.189515 1_455
Li3 O1 2.143396 1_555
Li3 O7 2.143398 1_455
Li3 O3 2.145100 1_455
Li3 O6 2.145103 1_555
Li3 O11 2.151515 1_455
Li3 O14 2.151521 1_545
Li4 O0 2.132043 1_555
Li4 O8 2.144129 1_555
Li4 O9 2.154159 1_455
Li4 O6 2.178868 1_554
Li4 O7 2.187517 1_454
Li4 O15 2.196639 1_454
Li5 O11 2.138432 1_555
Li5 O1 2.147278 1_655
Li5 O5 2.148389 1_555
Li5 O13 2.158007 1_555
Li5 O10 2.158107 1_655
Li5 O4 2.165156 1_655
Li6 O2 2.153861 1_465
Li6 O4 2.153865 1_555
Li6 O12 2.155733 1_555
Li6 O9 2.155737 1_455
Li6 O13 2.160598 1_455
Li6 O8 2.160598 1_555
Li7 O15 2.137692 1_455
Li7 O10 2.137694 1_555
Li7 O6 2.179954 1_555
Li7 O3 2.179957 1_465
Li7 O11 2.180719 1_455
Li7 O14 2.180719 1_555
Cr0 O5 2.017777 1_555
Cr0 O1 2.018678 1_555
Cr0 O13 2.022702 1_545
Cr0 O4 2.023558 1_555
Cr0 O12 2.028810 1_545
Cr0 O2 2.034489 1_555
Cr1 O0 2.017772 1_555
Cr1 O7 2.018676 1_554
Cr1 O8 2.022702 1_555
Cr1 O2 2.023563 1_555
Cr1 O9 2.028806 1_555
Cr1 O4 2.034497 1_555
Cr2 O5 2.021943 1_555
Cr2 O13 2.023323 1_555
Cr2 O10 2.023667 1_555
Cr2 O4 2.024408 1_555
Cr2 O12 2.032806 1_555
Cr2 O9 2.036591 1_555
Cr3 O11 2.010116 1_555
Cr3 O6 2.018477 1_555
Cr3 O7 2.021807 1_555
Cr3 O14 2.023741 1_555
Cr3 O8 2.026527 1_556
Cr3 O15 2.030789 1_555
Cr4 O0 2.021946 1_565
Cr4 O8 2.023328 1_555
Cr4 O15 2.023667 1_554
Cr4 O2 2.024408 1_565
Cr4 O9 2.032802 1_555
Cr4 O12 2.036595 1_555
Cr5 O14 2.010122 1_555
Cr5 O3 2.018485 1_565
Cr5 O1 2.021809 1_565
Cr5 O11 2.023751 1_555
Cr5 O13 2.026518 1_555
Cr5 O10 2.030785 1_555
Fe0 O3 1.982671 1_555
Fe0 O6 1.988340 1_555
Fe0 O14 1.990935 1_545
Fe0 O7 1.991704 1_555
Fe0 O0 1.993612 1_556
Fe0 O15 1.996631 1_545
Fe1 O6 1.982681 1_555
Fe1 O3 1.988338 1_555
Fe1 O11 1.990935 1_555
Fe1 O1 1.991704 1_555
Fe1 O5 1.993601 1_555
Fe1 O10 1.996624 1_555
