# generated using pymatgen
data_LiTiMn3O8
_symmetry_space_group_name_H-M   'P 1'
_cell_length_a   5.96980700
_cell_length_b   6.04697448
_cell_length_c   14.43624317
_cell_angle_alpha   90.10560855
_cell_angle_beta   91.55974987
_cell_angle_gamma   119.21259298
_symmetry_Int_Tables_number   1
_chemical_formula_structural   LiTiMn3O8
_chemical_formula_sum   'Li3 Ti3 Mn9 O24'
_cell_volume   454.61995993
_cell_formula_units_Z   3
loop_
 _symmetry_equiv_pos_site_id
 _symmetry_equiv_pos_as_xyz
  1  'x, y, z'
loop_
 _atom_site_type_symbol
 _atom_site_label
 _atom_site_symmetry_multiplicity
 _atom_site_fract_x
 _atom_site_fract_y
 _atom_site_fract_z
 _atom_site_occupancy
  Li  Li0  1  0.33361200  0.16241600  0.66538500  1
  Li  Li1  1  0.66638800  0.83758400  0.33461500  1
  Li  Li2  1  0.50000000  0.50000000  0.00000000  1
  Ti  Ti0  1  0.17254800  0.35042100  0.33202200  1
  Ti  Ti1  1  0.50000000  0.00000000  0.00000000  1
  Ti  Ti2  1  0.82745200  0.64957900  0.66797800  1
  Mn  Mn0  1  0.50000000  0.50000000  0.50000000  1
  Mn  Mn1  1  0.84255500  0.18322800  0.16439100  1
  Mn  Mn2  1  0.00000000  0.00000000  0.00000000  1
  Mn  Mn3  1  0.67088000  0.84379800  0.83152200  1
  Mn  Mn4  1  0.15744500  0.81677200  0.83560900  1
  Mn  Mn5  1  0.34091800  0.67342100  0.66512000  1
  Mn  Mn6  1  0.00000000  0.50000000  0.50000000  1
  Mn  Mn7  1  0.65908200  0.32657900  0.33488000  1
  Mn  Mn8  1  0.32912000  0.15620200  0.16847800  1
  O  O0  1  0.65106900  0.36613400  0.58666400  1
  O  O1  1  0.17856400  0.29116400  0.08111100  1
  O  O2  1  0.36151400  0.21491100  0.41238400  1
  O  O3  1  0.81132300  0.12387000  0.92132600  1
  O  O4  1  0.02412000  0.05347100  0.24214300  1
  O  O5  1  0.49203500  0.95946000  0.74667200  1
  O  O6  1  0.18867700  0.87613000  0.07867400  1
  O  O7  1  0.70069100  0.88601300  0.07571400  1
  O  O8  1  0.63848600  0.78508900  0.58761600  1
  O  O9  1  0.14109000  0.78785000  0.59021100  1
  O  O10  1  0.82143600  0.70883600  0.91888900  1
  O  O11  1  0.37103100  0.71426000  0.91023100  1
  O  O12  1  0.34893100  0.63386600  0.41333600  1
  O  O13  1  0.79888100  0.61524700  0.42313700  1
  O  O14  1  0.52065400  0.54784100  0.74493700  1
  O  O15  1  0.03579900  0.54557700  0.74145400  1
  O  O16  1  0.96420100  0.45442300  0.25854600  1
  O  O17  1  0.47934600  0.45215900  0.25506300  1
  O  O18  1  0.20111900  0.38475300  0.57686300  1
  O  O19  1  0.62896900  0.28574000  0.08976900  1
  O  O20  1  0.85891000  0.21215000  0.40978900  1
  O  O21  1  0.29930900  0.11398700  0.92428600  1
  O  O22  1  0.50796500  0.04054000  0.25332800  1
  O  O23  1  0.97588000  0.94652900  0.75785700  1
loop_
_geom_bond_atom_site_label_1
_geom_bond_atom_site_label_2
_geom_bond_distance
_geom_bond_site_symmetry_2
Li0 O0 2.060151 1_555
Li0 O5 2.203530 1_545
Li0 O9 2.238502 1_545
Li0 O18 2.248468 1_555
Li0 O14 2.318997 1_555
Li0 O23 2.342516 1_445
Li1 O12 2.060151 1_555
Li1 O22 2.203530 1_565
Li1 O20 2.238502 1_565
Li1 O13 2.248468 1_555
Li1 O17 2.318997 1_555
Li1 O4 2.342516 1_665
Li2 O10 2.100113 1_554
Li2 O1 2.100113 1_555
Li2 O19 2.208259 1_555
Li2 O11 2.208259 1_554
Li2 O7 2.295257 1_555
Li2 O21 2.295257 1_554
Mn0 O12 1.920615 1_555
Mn0 O0 1.920615 1_555
Mn0 O18 1.948691 1_555
Mn0 O13 1.948691 1_555
Mn0 O8 1.949131 1_555
Mn0 O2 1.949131 1_555
Mn1 O4 1.953859 1_655
Mn1 O16 1.959545 1_555
Mn1 O19 1.967167 1_555
Mn1 O7 2.008220 1_545
Mn1 O1 2.179750 1_655
Mn1 O22 2.200933 1_555
Mn2 O1 1.923490 1_555
Mn2 O10 1.923490 1_444
Mn2 O7 1.941505 1_445
Mn2 O21 1.941505 1_554
Mn2 O6 1.968940 1_545
Mn2 O3 1.968940 1_454
Mn3 O10 1.929426 1_555
Mn3 O5 1.946884 1_555
Mn3 O3 1.949014 1_565
Mn3 O23 1.958540 1_555
Mn3 O11 1.963229 1_555
Mn3 O14 1.983334 1_555
Mn4 O23 1.953859 1_455
Mn4 O15 1.959545 1_555
Mn4 O11 1.967167 1_555
Mn4 O21 2.008220 1_565
Mn4 O10 2.179750 1_455
Mn4 O5 2.200933 1_555
Mn5 O5 1.898215 1_555
Mn5 O14 1.945999 1_555
Mn5 O8 1.950289 1_555
Mn5 O9 1.951814 1_555
Mn5 O15 1.966665 1_555
Mn5 O18 1.969460 1_555
Mn6 O13 1.976233 1_455
Mn6 O18 1.976233 1_555
Mn6 O9 1.983955 1_555
Mn6 O20 1.983955 1_455
Mn6 O0 2.249295 1_455
Mn6 O12 2.249295 1_555
Mn7 O22 1.898215 1_555
Mn7 O17 1.945999 1_555
Mn7 O2 1.950289 1_555
Mn7 O20 1.951814 1_555
Mn7 O16 1.966665 1_555
Mn7 O13 1.969460 1_555
Mn8 O1 1.929426 1_555
Mn8 O22 1.946884 1_555
Mn8 O6 1.949014 1_545
Mn8 O4 1.958540 1_555
Mn8 O19 1.963229 1_555
Mn8 O17 1.983334 1_555
O0 Ti2 1.894230 1_555
O2 Ti0 2.030885 1_555
O3 Ti1 2.016027 1_556
O4 Ti0 2.017125 1_555
O6 Ti1 2.016027 1_565
O7 Ti1 1.960302 1_565
O8 Ti2 2.030885 1_555
O9 Ti2 2.013699 1_455
O11 Ti1 1.973985 1_566
O12 Ti0 1.894230 1_555
O14 Ti2 1.995178 1_555
O15 Ti2 1.939539 1_455
O16 Ti0 1.939539 1_655
O17 Ti0 1.995178 1_555
O19 Ti1 1.973985 1_555
O20 Ti0 2.013699 1_655
O21 Ti1 1.960302 1_556
O23 Ti2 2.017125 1_555
