# generated using pymatgen
data_Nb3O7F
_symmetry_space_group_name_H-M   'P 1'
_cell_length_a   10.71949130
_cell_length_b   10.71949130
_cell_length_c   3.98926100
_cell_angle_alpha   90.00000000
_cell_angle_beta   90.00000000
_cell_angle_gamma   159.03191013
_symmetry_Int_Tables_number   1
_chemical_formula_structural   Nb3O7F
_chemical_formula_sum   'Nb3 O7 F1'
_cell_volume   164.03606239
_cell_formula_units_Z   1
loop_
 _symmetry_equiv_pos_site_id
 _symmetry_equiv_pos_as_xyz
  1  'x, y, z'
loop_
 _atom_site_type_symbol
 _atom_site_label
 _atom_site_symmetry_multiplicity
 _atom_site_fract_x
 _atom_site_fract_y
 _atom_site_fract_z
 _atom_site_occupancy
  Nb  Nb0  1  0.18454100  0.81545900  0.00000000  1
  Nb  Nb1  1  0.81545900  0.18454100  0.00000000  1
  Nb  Nb2  1  0.00000000  0.00000000  0.00000000  1
  O  O0  1  0.09305000  0.90695000  0.00000000  1
  O  O1  1  0.18548200  0.81451800  0.50000000  1
  O  O2  1  0.70932200  0.29067800  0.00000000  1
  O  O3  1  0.29067800  0.70932200  0.00000000  1
  O  O4  1  0.81451800  0.18548200  0.50000000  1
  O  O5  1  0.90695000  0.09305000  0.00000000  1
  O  O6  1  0.50000000  0.50000000  0.00000000  1
  F  F0  1  0.00000000  0.00000000  0.50000000  1
loop_
_geom_bond_atom_site_label_1
_geom_bond_atom_site_label_2
_geom_bond_distance
_geom_bond_site_symmetry_2
Nb0 O0 1.928728 1_555
Nb0 O1 1.994729 1_555
Nb0 O1 1.994729 1_554
Nb0 O2 2.019284 1_565
Nb0 O2 2.019284 1_455
Nb0 O3 2.237482 1_555
Nb1 O5 1.928728 1_555
Nb1 O4 1.994729 1_555
Nb1 O4 1.994729 1_554
Nb1 O3 2.019284 1_655
Nb1 O3 2.019284 1_545
Nb1 O2 2.237482 1_555
Nb2 O6 1.950537 1_445
Nb2 O6 1.950537 1_555
Nb2 O5 1.961594 1_455
Nb2 O0 1.961594 1_545
F0 Nb2 1.994630 1_556
F0 Nb2 1.994630 1_555
