# generated using pymatgen
data_Y2HfO5
_symmetry_space_group_name_H-M   'P 1'
_cell_length_a   3.74445900
_cell_length_b   10.75468300
_cell_length_c   11.62966600
_cell_angle_alpha   90.00000000
_cell_angle_beta   90.00000000
_cell_angle_gamma   90.00000000
_symmetry_Int_Tables_number   1
_chemical_formula_structural   Y2HfO5
_chemical_formula_sum   'Y8 Hf4 O20'
_cell_volume   468.33211055
_cell_formula_units_Z   4
loop_
 _symmetry_equiv_pos_site_id
 _symmetry_equiv_pos_as_xyz
  1  'x, y, z'
loop_
 _atom_site_type_symbol
 _atom_site_label
 _atom_site_symmetry_multiplicity
 _atom_site_fract_x
 _atom_site_fract_y
 _atom_site_fract_z
 _atom_site_occupancy
  Y  Y0  1  0.25000000  0.12196300  0.22390200  1
  Y  Y1  1  0.25000000  0.13035800  0.56077600  1
  Y  Y2  1  0.75000000  0.36964200  0.06077600  1
  Y  Y3  1  0.75000000  0.37803700  0.72390200  1
  Y  Y4  1  0.25000000  0.62196300  0.27609800  1
  Y  Y5  1  0.25000000  0.63035800  0.93922400  1
  Y  Y6  1  0.75000000  0.86964200  0.43922400  1
  Y  Y7  1  0.75000000  0.87803700  0.77609800  1
  Hf  Hf0  1  0.25000000  0.17014200  0.88568500  1
  Hf  Hf1  1  0.75000000  0.32985800  0.38568500  1
  Hf  Hf2  1  0.25000000  0.67014200  0.61431500  1
  Hf  Hf3  1  0.75000000  0.82985800  0.11431500  1
  O  O0  1  0.75000000  0.00432500  0.60463300  1
  O  O1  1  0.25000000  0.99468300  0.84375200  1
  O  O2  1  0.25000000  0.22984900  0.05144400  1
  O  O3  1  0.75000000  0.24500600  0.88855000  1
  O  O4  1  0.75000000  0.24938100  0.22948400  1
  O  O5  1  0.25000000  0.25061900  0.72948400  1
  O  O6  1  0.25000000  0.25499400  0.38855000  1
  O  O7  1  0.75000000  0.27015100  0.55144400  1
  O  O8  1  0.75000000  0.50531700  0.34375200  1
  O  O9  1  0.25000000  0.49567500  0.10463300  1
  O  O10  1  0.75000000  0.50432500  0.89536700  1
  O  O11  1  0.25000000  0.49468300  0.65624800  1
  O  O12  1  0.25000000  0.72984900  0.44855600  1
  O  O13  1  0.75000000  0.74500600  0.61145000  1
  O  O14  1  0.75000000  0.74938100  0.27051600  1
  O  O15  1  0.25000000  0.75061900  0.77051600  1
  O  O16  1  0.25000000  0.75499400  0.11145000  1
  O  O17  1  0.75000000  0.77015100  0.94855600  1
  O  O18  1  0.75000000  0.00531700  0.15624800  1
  O  O19  1  0.25000000  0.99567500  0.39536700  1
loop_
_geom_bond_atom_site_label_1
_geom_bond_atom_site_label_2
_geom_bond_distance
_geom_bond_site_symmetry_2
Hf0 O1 1.949002 1_545
Hf0 O5 2.012215 1_555
Hf0 O2 2.031857 1_556
Hf0 O3 2.038284 1_555
Hf0 O3 2.038284 1_455
Hf1 O8 1.949002 1_555
Hf1 O4 2.012215 1_555
Hf1 O7 2.031857 1_555
Hf1 O6 2.038284 1_555
Hf1 O6 2.038284 1_655
Hf2 O11 1.949002 1_555
Hf2 O15 2.012215 1_555
Hf2 O12 2.031857 1_555
Hf2 O13 2.038284 1_455
Hf2 O13 2.038284 1_555
Hf3 O18 1.949002 1_565
Hf3 O14 2.012215 1_555
Hf3 O17 2.031857 1_554
Hf3 O16 2.038284 1_555
Hf3 O16 2.038284 1_655
O0 Y1 2.366985 1_555
O0 Y1 2.366985 1_655
O0 Y6 2.408009 1_545
O0 Y7 2.412681 1_545
O1 Y7 2.387056 1_555
O1 Y7 2.387056 1_455
O2 Y0 2.317066 1_555
O2 Y2 2.403606 1_455
O2 Y2 2.403606 1_555
O3 Y3 2.390269 1_555
O3 Y2 2.410075 1_556
O4 Y0 2.321054 1_655
O4 Y0 2.321054 1_555
O4 Y2 2.349961 1_555
O5 Y3 2.321054 1_555
O5 Y3 2.321054 1_455
O5 Y1 2.349961 1_555
O6 Y0 2.390269 1_555
O6 Y1 2.410075 1_555
O7 Y3 2.317066 1_555
O7 Y1 2.403606 1_555
O7 Y1 2.403606 1_655
O8 Y4 2.387056 1_655
O8 Y4 2.387056 1_555
O9 Y2 2.366985 1_555
O9 Y2 2.366985 1_455
O9 Y5 2.408009 1_554
O9 Y4 2.412681 1_555
O10 Y5 2.366985 1_555
O10 Y5 2.366985 1_655
O10 Y2 2.408009 1_556
O10 Y3 2.412681 1_555
O11 Y3 2.387056 1_455
O11 Y3 2.387056 1_555
O12 Y4 2.317066 1_555
O12 Y6 2.403606 1_455
O12 Y6 2.403606 1_555
O13 Y7 2.390269 1_555
O13 Y6 2.410075 1_555
O14 Y4 2.321054 1_655
O14 Y4 2.321054 1_555
O14 Y6 2.349961 1_555
O15 Y7 2.321054 1_455
O15 Y7 2.321054 1_555
O15 Y5 2.349961 1_555
O16 Y4 2.390269 1_555
O16 Y5 2.410075 1_554
O17 Y7 2.317066 1_555
O17 Y5 2.403606 1_655
O17 Y5 2.403606 1_555
O18 Y0 2.387056 1_655
O18 Y0 2.387056 1_555
O19 Y6 2.366985 1_455
O19 Y6 2.366985 1_555
O19 Y1 2.408009 1_565
O19 Y0 2.412681 1_565
