# generated using pymatgen
data_LiVP4(H2O3)6
_symmetry_space_group_name_H-M   'P 1'
_cell_length_a   7.34928167
_cell_length_b   7.34928167
_cell_length_c   14.24585900
_cell_angle_alpha   86.00400497
_cell_angle_beta   86.00400497
_cell_angle_gamma   109.86250857
_symmetry_Int_Tables_number   1
_chemical_formula_structural   LiVP4(H2O3)6
_chemical_formula_sum   'Li2 V2 P8 H24 O36'
_cell_volume   718.33006553
_cell_formula_units_Z   2
loop_
 _symmetry_equiv_pos_site_id
 _symmetry_equiv_pos_as_xyz
  1  'x, y, z'
loop_
 _atom_site_type_symbol
 _atom_site_label
 _atom_site_symmetry_multiplicity
 _atom_site_fract_x
 _atom_site_fract_y
 _atom_site_fract_z
 _atom_site_occupancy
  Li  Li0  1  0.46558900  0.53441100  0.25000000  1
  Li  Li1  1  0.53441100  0.46558900  0.75000000  1
  V  V0  1  0.86406000  0.13594000  0.25000000  1
  V  V1  1  0.13594000  0.86406000  0.75000000  1
  P  P0  1  0.98291000  0.81207300  0.40413700  1
  P  P1  1  0.81207300  0.98291000  0.90413700  1
  P  P2  1  0.79813600  0.71901500  0.07745700  1
  P  P3  1  0.71901500  0.79813600  0.57745700  1
  P  P4  1  0.28098500  0.20186400  0.42254300  1
  P  P5  1  0.20186400  0.28098500  0.92254300  1
  P  P6  1  0.18792700  0.01709000  0.09586300  1
  P  P7  1  0.01709000  0.18792700  0.59586300  1
  H  H0  1  0.48239100  0.99539000  0.23041500  1
  H  H1  1  0.99539000  0.48239100  0.73041500  1
  H  H2  1  0.51721600  0.87321200  0.32166500  1
  H  H3  1  0.87321200  0.51721600  0.82166500  1
  H  H4  1  0.89058100  0.38181100  0.38708900  1
  H  H5  1  0.38181100  0.89058100  0.88708900  1
  H  H6  1  0.46615500  0.68809500  0.43536400  1
  H  H7  1  0.68809500  0.46615500  0.93536400  1
  H  H8  1  0.34781800  0.72182000  0.12035300  1
  H  H9  1  0.77016200  0.32766400  0.09935000  1
  H  H10  1  0.72182000  0.34781800  0.62035300  1
  H  H11  1  0.32766400  0.77016200  0.59935000  1
  H  H12  1  0.67233600  0.22983800  0.40065000  1
  H  H13  1  0.27818000  0.65218200  0.37964700  1
  H  H14  1  0.22983800  0.67233600  0.90065000  1
  H  H15  1  0.65218200  0.27818000  0.87964700  1
  H  H16  1  0.31190500  0.53384500  0.06463600  1
  H  H17  1  0.53384500  0.31190500  0.56463600  1
  H  H18  1  0.61818900  0.10941900  0.11291100  1
  H  H19  1  0.10941900  0.61818900  0.61291100  1
  H  H20  1  0.12678800  0.48278400  0.17833500  1
  H  H21  1  0.48278400  0.12678800  0.67833500  1
  H  H22  1  0.00461000  0.51760900  0.26958500  1
  H  H23  1  0.51760900  0.00461000  0.76958500  1
  O  O0  1  0.88573000  0.91288600  0.33972400  1
  O  O1  1  0.91288600  0.88573000  0.83972400  1
  O  O2  1  0.72026900  0.73545800  0.17512000  1
  O  O3  1  0.73545800  0.72026900  0.67512000  1
  O  O4  1  0.72301800  0.84903400  0.00193300  1
  O  O5  1  0.84903400  0.72301800  0.50193300  1
  O  O6  1  0.56832100  0.00581300  0.28188200  1
  O  O7  1  0.00581300  0.56832100  0.78188200  1
  O  O8  1  0.35368600  0.96079100  0.12963900  1
  O  O9  1  0.75500200  0.52236900  0.04200200  1
  O  O10  1  0.96079100  0.35368600  0.62963900  1
  O  O11  1  0.52236900  0.75500200  0.54200200  1
  O  O12  1  0.41932700  0.67100600  0.37072300  1
  O  O13  1  0.17396900  0.96668800  0.43831400  1
  O  O14  1  0.67100600  0.41932700  0.87072300  1
  O  O15  1  0.96668800  0.17396900  0.93831400  1
  O  O16  1  0.80972300  0.24935800  0.37537200  1
  O  O17  1  0.24935800  0.80972300  0.87537200  1
  O  O18  1  0.75064200  0.19027700  0.12462800  1
  O  O19  1  0.19027700  0.75064200  0.62462800  1
  O  O20  1  0.03331200  0.82603100  0.06168600  1
  O  O21  1  0.32899400  0.58067300  0.12927700  1
  O  O22  1  0.82603100  0.03331200  0.56168600  1
  O  O23  1  0.58067300  0.32899400  0.62927700  1
  O  O24  1  0.47763100  0.24499800  0.45799800  1
  O  O25  1  0.03920900  0.64631400  0.37036100  1
  O  O26  1  0.24499800  0.47763100  0.95799800  1
  O  O27  1  0.64631400  0.03920900  0.87036100  1
  O  O28  1  0.99418700  0.43167900  0.21811800  1
  O  O29  1  0.43167900  0.99418700  0.71811800  1
  O  O30  1  0.15096600  0.27698200  0.49806700  1
  O  O31  1  0.27698200  0.15096600  0.99806700  1
  O  O32  1  0.26454200  0.27973100  0.32488000  1
  O  O33  1  0.27973100  0.26454200  0.82488000  1
  O  O34  1  0.08711400  0.11427000  0.16027600  1
  O  O35  1  0.11427000  0.08711400  0.66027600  1
loop_
_geom_bond_atom_site_label_1
_geom_bond_atom_site_label_2
_geom_bond_distance
_geom_bond_site_symmetry_2
Li0 O32 2.108830 1_555
Li0 O2 2.108830 1_555
Li0 O21 2.114744 1_555
Li0 O12 2.114744 1_555
Li1 O33 2.108830 1_555
Li1 O3 2.108830 1_555
Li1 O14 2.114744 1_555
Li1 O23 2.114744 1_555
H0 O6 0.990832 1_565
H1 O7 0.990832 1_655
H2 O6 1.027907 1_565
H2 O12 1.507672 1_555
H3 O7 1.027907 1_655
H3 O14 1.507672 1_555
H4 O16 0.985879 1_555
H5 O17 0.985879 1_555
H6 O12 1.006542 1_555
H6 O11 1.665480 1_555
H7 O14 1.006542 1_555
H7 O9 1.665480 1_556
H8 O21 0.996496 1_555
H9 O18 1.006696 1_555
H9 O9 1.638762 1_555
H10 O23 0.996496 1_555
H11 O19 1.006696 1_555
H11 O11 1.638762 1_555
H12 O16 1.006696 1_555
H12 O24 1.638762 1_555
H13 O12 0.996496 1_555
H14 O17 1.006696 1_555
H14 O26 1.638762 1_555
H15 O14 0.996496 1_555
H16 O21 1.006542 1_555
H16 O26 1.665480 1_554
H17 O23 1.006542 1_555
H17 O24 1.665480 1_555
H18 O18 0.985879 1_555
H19 O19 0.985879 1_555
H20 O28 1.027907 1_455
H20 O21 1.507672 1_555
H21 O29 1.027907 1_545
H21 O23 1.507672 1_555
H22 O28 0.990832 1_455
H23 O29 0.990832 1_545
O0 P0 1.502401 1_555
O0 V0 2.064013 1_565
O1 P1 1.502401 1_555
O1 V1 2.064013 1_655
O2 P2 1.495743 1_555
O3 P3 1.495743 1_555
O4 P1 1.606756 1_554
O4 P2 1.635046 1_555
O5 P0 1.606756 1_555
O5 P3 1.635046 1_555
O6 V0 2.057733 1_555
O7 V1 2.057733 1_555
O8 P6 1.511030 1_565
O9 P2 1.502319 1_555
O10 P7 1.511030 1_655
O11 P3 1.502319 1_555
O13 P0 1.608742 1_455
O13 P4 1.629067 1_565
O15 P1 1.608742 1_545
O15 P5 1.629067 1_655
O16 V0 2.092474 1_555
O17 V1 2.092474 1_555
O18 V0 2.092474 1_555
O19 V1 2.092474 1_555
O20 P6 1.608742 1_565
O20 P2 1.629067 1_455
O22 P7 1.608742 1_655
O22 P3 1.629067 1_545
O24 P4 1.502319 1_555
O25 P0 1.511030 1_455
O26 P5 1.502319 1_555
O27 P1 1.511030 1_545
O28 V0 2.057733 1_555
O29 V1 2.057733 1_555
O30 P7 1.606756 1_555
O30 P4 1.635046 1_555
O31 P6 1.606756 1_556
O31 P5 1.635046 1_555
O32 P4 1.495743 1_555
O33 P5 1.495743 1_555
O34 P6 1.502401 1_555
O34 V0 2.064013 1_455
O35 P7 1.502401 1_555
O35 V1 2.064013 1_545
