# generated using pymatgen
data_H14RuS2(N2O3)2
_symmetry_space_group_name_H-M   'P 1'
_cell_length_a   7.09179200
_cell_length_b   6.31507500
_cell_length_c   11.76688332
_cell_angle_alpha   65.59141609
_cell_angle_beta   90.00000000
_cell_angle_gamma   90.00000000
_symmetry_Int_Tables_number   1
_chemical_formula_structural   H14RuS2(N2O3)2
_chemical_formula_sum   'H28 Ru2 S4 N8 O12'
_cell_volume   479.88146181
_cell_formula_units_Z   2
loop_
 _symmetry_equiv_pos_site_id
 _symmetry_equiv_pos_as_xyz
  1  'x, y, z'
loop_
 _atom_site_type_symbol
 _atom_site_label
 _atom_site_symmetry_multiplicity
 _atom_site_fract_x
 _atom_site_fract_y
 _atom_site_fract_z
 _atom_site_occupancy
  H  H0  1  0.11701400  0.70603000  0.23012200  1
  H  H1  1  0.88800300  0.68383000  0.22975200  1
  H  H2  1  0.53900400  0.77699000  0.08819700  1
  H  H3  1  0.71705700  0.33903900  0.52264400  1
  H  H4  1  0.60724600  0.18369900  0.65583000  1
  H  H5  1  0.02336200  0.54548200  0.16689500  1
  H  H6  1  0.52336200  0.45451800  0.33310500  1
  H  H7  1  0.30304400  0.91307900  0.88150500  1
  H  H8  1  0.80304400  0.08692100  0.61849500  1
  H  H9  1  0.03900400  0.22301000  0.41180300  1
  H  H10  1  0.38800300  0.31617000  0.27024800  1
  H  H11  1  0.10724600  0.81630100  0.84417000  1
  H  H12  1  0.61701400  0.29397000  0.26987800  1
  H  H13  1  0.21705700  0.66096100  0.97735600  1
  H  H14  1  0.78294300  0.33903900  0.02264400  1
  H  H15  1  0.38298600  0.70603000  0.73012200  1
  H  H16  1  0.89275400  0.18369900  0.15583000  1
  H  H17  1  0.61199700  0.68383000  0.72975200  1
  H  H18  1  0.96099600  0.77699000  0.58819700  1
  H  H19  1  0.19695600  0.91307900  0.38150500  1
  H  H20  1  0.69695600  0.08692100  0.11849500  1
  H  H21  1  0.47663800  0.54548200  0.66689500  1
  H  H22  1  0.97663800  0.45451800  0.83310500  1
  H  H23  1  0.39275400  0.81630100  0.34417000  1
  H  H24  1  0.28294300  0.66096100  0.47735600  1
  H  H25  1  0.46099600  0.22301000  0.91180300  1
  H  H26  1  0.11199700  0.31617000  0.77024800  1
  H  H27  1  0.88298600  0.29397000  0.76987800  1
  Ru  Ru0  1  0.00000000  0.00000000  0.00000000  1
  Ru  Ru1  1  0.50000000  0.00000000  0.50000000  1
  S  S0  1  0.74381500  0.86061400  0.93684200  1
  S  S1  1  0.24381500  0.13938600  0.56315800  1
  S  S2  1  0.75618500  0.86061400  0.43684200  1
  S  S3  1  0.25618500  0.13938600  0.06315800  1
  N  N0  1  0.00633600  0.69878100  0.17626100  1
  N  N1  1  0.67967500  0.17317800  0.58268600  1
  N  N2  1  0.50633600  0.30121900  0.32373900  1
  N  N3  1  0.17967500  0.82682200  0.91731400  1
  N  N4  1  0.82032500  0.17317800  0.08268600  1
  N  N5  1  0.49366400  0.69878100  0.67626100  1
  N  N6  1  0.32032500  0.82682200  0.41731400  1
  N  N7  1  0.99366400  0.30121900  0.82373900  1
  O  O0  1  0.28612300  0.29321200  0.62763700  1
  O  O1  1  0.60077300  0.04389100  0.86407300  1
  O  O2  1  0.62131200  0.68130600  0.05836000  1
  O  O3  1  0.12131200  0.31869400  0.44164000  1
  O  O4  1  0.10077300  0.95610900  0.63592700  1
  O  O5  1  0.78612300  0.70678800  0.87236300  1
  O  O6  1  0.21387700  0.29321200  0.12763700  1
  O  O7  1  0.89922700  0.04389100  0.36407300  1
  O  O8  1  0.87868800  0.68130600  0.55836000  1
  O  O9  1  0.37868800  0.31869400  0.94164000  1
  O  O10  1  0.39922700  0.95610900  0.13592700  1
  O  O11  1  0.71387700  0.70678800  0.37236300  1
loop_
_geom_bond_atom_site_label_1
_geom_bond_atom_site_label_2
_geom_bond_distance
_geom_bond_site_symmetry_2
H0 N0 1.021677 1_555
H1 N0 1.029668 1_655
H2 O2 1.002216 1_555
H3 N1 1.027095 1_555
H4 N1 1.027754 1_555
H5 N0 1.025725 1_555
H6 N2 1.025725 1_555
H7 N3 1.024710 1_555
H8 N1 1.024710 1_555
H9 O3 1.002216 1_555
H10 N2 1.029668 1_555
H11 N3 1.027754 1_555
H12 N2 1.021677 1_555
H13 N3 1.027095 1_555
H14 N4 1.027095 1_555
H15 N5 1.021677 1_555
H16 N4 1.027754 1_555
H17 N5 1.029668 1_555
H18 O8 1.002216 1_555
H19 N6 1.024710 1_555
H20 N4 1.024710 1_555
H21 N5 1.025725 1_555
H22 N7 1.025725 1_555
H23 N6 1.027754 1_555
H24 N6 1.027095 1_555
H25 O9 1.002216 1_555
H26 N7 1.029668 1_455
H27 N7 1.021677 1_555
Ru0 S3 2.273450 1_555
Ru0 S0 2.273450 1_444
Ru1 S2 2.273450 1_545
Ru1 S1 2.273450 1_555
N0 Ru0 2.159029 1_565
N1 Ru1 2.155395 1_555
N2 Ru1 2.159029 1_555
N3 Ru0 2.155395 1_566
N4 Ru0 2.155395 1_655
N5 Ru1 2.159029 1_565
N6 Ru1 2.155395 1_565
N7 Ru0 2.159029 1_656
O0 S1 1.489457 1_555
O1 S0 1.510879 1_545
O2 S0 1.656309 1_554
O3 S1 1.656309 1_555
O4 S1 1.510879 1_565
O5 S0 1.489457 1_555
O6 S3 1.489457 1_555
O7 S2 1.510879 1_545
O8 S2 1.656309 1_555
O9 S3 1.656309 1_556
O10 S3 1.510879 1_565
O11 S2 1.489457 1_555
