# generated using pymatgen
data_CoB12H28(NO15)2
_symmetry_space_group_name_H-M   'P 1'
_cell_length_a   7.56478200
_cell_length_b   7.91858939
_cell_length_c   11.14140850
_cell_angle_alpha   107.92410840
_cell_angle_beta   94.89258388
_cell_angle_gamma   90.38458973
_symmetry_Int_Tables_number   1
_chemical_formula_structural   CoB12H28(NO15)2
_chemical_formula_sum   'Co1 B12 H28 N2 O30'
_cell_volume   632.30874666
_cell_formula_units_Z   1
loop_
 _symmetry_equiv_pos_site_id
 _symmetry_equiv_pos_as_xyz
  1  'x, y, z'
loop_
 _atom_site_type_symbol
 _atom_site_label
 _atom_site_symmetry_multiplicity
 _atom_site_fract_x
 _atom_site_fract_y
 _atom_site_fract_z
 _atom_site_occupancy
  Co  Co0  1  0.00000000  0.00000000  0.00000000  1
  B  B0  1  0.17080400  0.70158600  0.11594100  1
  B  B1  1  0.82919600  0.29841400  0.88405900  1
  B  B2  1  0.33048100  0.01273500  0.20433700  1
  B  B3  1  0.66951900  0.98726500  0.79566300  1
  B  B4  1  0.12795400  0.89151700  0.34822700  1
  B  B5  1  0.87204600  0.10848300  0.65177300  1
  B  B6  1  0.10835900  0.56461900  0.28467700  1
  B  B7  1  0.89164100  0.43538100  0.71532300  1
  B  B8  1  0.46103600  0.76219800  0.04499100  1
  B  B9  1  0.53896400  0.23780200  0.95500900  1
  B  B10  1  0.35028800  0.14365800  0.43938700  1
  B  B11  1  0.64971200  0.85634200  0.56061300  1
  H  H0  1  0.97639600  0.65072000  0.96807800  1
  H  H1  1  0.02360400  0.34928000  0.03192200  1
  H  H2  1  0.28022000  0.18367100  0.10303800  1
  H  H3  1  0.71978000  0.81632900  0.89696200  1
  H  H4  1  0.88006700  0.96172900  0.39667300  1
  H  H5  1  0.11993300  0.03827100  0.60332700  1
  H  H6  1  0.11301700  0.30280800  0.25540400  1
  H  H7  1  0.88698300  0.69719200  0.74459600  1
  H  H8  1  0.61315700  0.57714200  0.94061200  1
  H  H9  1  0.38684300  0.42285800  0.05938800  1
  H  H10  1  0.38833100  0.29423900  0.62492200  1
  H  H11  1  0.61166900  0.70576100  0.37507800  1
  H  H12  1  0.31668400  0.51761700  0.56175400  1
  H  H13  1  0.68331600  0.48238300  0.43824600  1
  H  H14  1  0.21413500  0.68398000  0.52037100  1
  H  H15  1  0.78586500  0.31602000  0.47962900  1
  H  H16  1  0.17623000  0.64541000  0.65703400  1
  H  H17  1  0.82377000  0.35459000  0.34296600  1
  H  H18  1  0.38035500  0.73007500  0.63977300  1
  H  H19  1  0.61964500  0.26992500  0.36022700  1
  H  H20  1  0.30502300  0.96711900  0.87744000  1
  H  H21  1  0.69497700  0.03288100  0.12256000  1
  H  H22  1  0.13171400  0.97102700  0.78887100  1
  H  H23  1  0.86828600  0.02897300  0.21112900  1
  H  H24  1  0.29330700  0.46286800  0.85385100  1
  H  H25  1  0.70669300  0.53713200  0.14614900  1
  H  H26  1  0.20462200  0.27933600  0.76962300  1
  H  H27  1  0.79537800  0.72066400  0.23037700  1
  N  N0  1  0.27179800  0.64519300  0.59619700  1
  N  N1  1  0.72820200  0.35480700  0.40380300  1
  O  O0  1  0.02804100  0.75361900  0.03767500  1
  O  O1  1  0.97195900  0.24638100  0.96232500  1
  O  O2  1  0.20681400  0.11585400  0.14449500  1
  O  O3  1  0.79318600  0.88414600  0.85550500  1
  O  O4  1  0.94469000  0.94081300  0.32029500  1
  O  O5  1  0.05531000  0.05918700  0.67970500  1
  O  O6  1  0.08431600  0.41424600  0.32016500  1
  O  O7  1  0.91568400  0.58575400  0.67983500  1
  O  O8  1  0.59646000  0.70650600  0.96685100  1
  O  O9  1  0.40354000  0.29349400  0.03314900  1
  O  O10  1  0.42302100  0.28426100  0.53949700  1
  O  O11  1  0.57697900  0.71573900  0.46050300  1
  O  O12  1  0.11586600  0.55398200  0.15908800  1
  O  O13  1  0.88413400  0.44601800  0.84091200  1
  O  O14  1  0.32778500  0.64253800  0.04429400  1
  O  O15  1  0.67221500  0.35746200  0.95570600  1
  O  O16  1  0.46591700  0.93585400  0.11840700  1
  O  O17  1  0.53408300  0.06414600  0.88159300  1
  O  O18  1  0.41469500  0.12681300  0.32432400  1
  O  O19  1  0.58530500  0.87318700  0.67567600  1
  O  O20  1  0.12646200  0.72438100  0.37902700  1
  O  O21  1  0.87353800  0.27561900  0.62097300  1
  O  O22  1  0.22363500  0.02810300  0.45361700  1
  O  O23  1  0.77636500  0.97189700  0.54638300  1
  O  O24  1  0.22296600  0.86448300  0.22767700  1
  O  O25  1  0.77703400  0.13551700  0.77232300  1
  O  O26  1  0.17992300  0.92274000  0.85840000  1
  O  O27  1  0.82007700  0.07726000  0.14160000  1
  O  O28  1  0.29054300  0.37426700  0.77038900  1
  O  O29  1  0.70945700  0.62573300  0.22961100  1
loop_
_geom_bond_atom_site_label_1
_geom_bond_atom_site_label_2
_geom_bond_distance
_geom_bond_site_symmetry_2
Co0 O26 2.121106 1_544
Co0 O27 2.121106 1_455
Co0 O1 2.126496 1_454
Co0 O0 2.126496 1_545
Co0 O2 2.126747 1_555
Co0 O3 2.126747 1_444
B0 O12 1.464013 1_555
B0 O0 1.470700 1_555
B0 O14 1.485080 1_555
B0 O24 1.513383 1_555
B1 O13 1.464013 1_555
B1 O1 1.470700 1_555
B1 O15 1.485080 1_555
B1 O25 1.513383 1_555
B2 O18 1.453503 1_555
B2 O16 1.467594 1_545
B2 O2 1.491788 1_555
B2 O24 1.522640 1_545
B3 O19 1.453503 1_555
B3 O17 1.467594 1_565
B3 O3 1.491788 1_555
B3 O25 1.522640 1_565
B4 O22 1.461250 1_565
B4 O20 1.466113 1_555
B4 O4 1.476361 1_455
B4 O24 1.534956 1_555
B5 O23 1.461250 1_545
B5 O21 1.466113 1_555
B5 O5 1.476361 1_655
B5 O25 1.534956 1_555
B6 O20 1.370688 1_555
B6 O6 1.380733 1_555
B6 O12 1.381761 1_555
B7 O21 1.370688 1_555
B7 O7 1.380733 1_555
B7 O13 1.381761 1_555
B8 O16 1.364989 1_555
B8 O14 1.376698 1_555
B8 O8 1.387010 1_554
B9 O17 1.364989 1_555
B9 O15 1.376698 1_555
B9 O9 1.387010 1_556
B10 O22 1.372521 1_555
B10 O18 1.378686 1_555
B10 O10 1.381708 1_555
B11 O23 1.372521 1_555
B11 O19 1.378686 1_555
B11 O11 1.381708 1_555
H0 O0 0.986396 1_656
H1 O1 0.986396 1_454
H2 O2 1.001252 1_555
H2 O9 1.662135 1_555
H3 O3 1.001252 1_555
H3 O8 1.662135 1_555
H4 O4 0.987847 1_555
H5 O5 0.987847 1_555
H6 O6 0.991880 1_555
H7 O7 0.991880 1_555
H8 O8 0.987158 1_555
H9 O9 0.987158 1_555
H10 O10 0.988707 1_555
H11 O11 0.988707 1_555
H12 N0 1.035046 1_555
H13 N1 1.035046 1_555
H14 N0 1.047359 1_555
H15 N1 1.047359 1_555
H16 N0 1.031975 1_555
H17 N1 1.031975 1_555
H18 N0 1.041920 1_555
H19 N1 1.041920 1_555
H20 O26 0.989691 1_555
H21 O27 0.989691 1_555
H22 O26 1.007613 1_555
H22 O5 1.645852 1_565
H23 O27 1.007613 1_555
H23 O4 1.645852 1_545
H24 O28 0.975849 1_555
H25 O29 0.975849 1_555
H26 O28 0.988011 1_555
H27 O29 0.988011 1_555
