# generated using pymatgen
data_Sr2HfO4
_symmetry_space_group_name_H-M   'P 1'
_cell_length_a   13.61554685
_cell_length_b   13.61554298
_cell_length_c   13.61555623
_cell_angle_alpha   155.83491872
_cell_angle_beta   155.83492556
_cell_angle_gamma   34.43791564
_symmetry_Int_Tables_number   1
_chemical_formula_structural   Sr2HfO4
_chemical_formula_sum   'Sr8 Hf4 O16'
_cell_volume   422.54667282
_cell_formula_units_Z   4
loop_
 _symmetry_equiv_pos_site_id
 _symmetry_equiv_pos_as_xyz
  1  'x, y, z'
loop_
 _atom_site_type_symbol
 _atom_site_label
 _atom_site_symmetry_multiplicity
 _atom_site_fract_x
 _atom_site_fract_y
 _atom_site_fract_z
 _atom_site_occupancy
  Sr  Sr0  1  0.92495768  0.42495753  0.49999883  1
  Sr  Sr1  1  0.32504356  0.32504186  0.00000162  1
  Sr  Sr2  1  0.07504302  0.57504254  0.50000128  1
  Sr  Sr3  1  0.17495776  0.17495611  -0.00000142  1
  Sr  Sr4  1  0.82504187  0.82504281  0.00000105  1
  Sr  Sr5  1  0.42495697  0.92495809  0.49999879  1
  Sr  Sr6  1  0.57504251  0.07504280  0.50000102  1
  Sr  Sr7  1  0.67495662  0.67495772  -0.00000125  1
  Hf  Hf0  1  0.50000027  0.49999924  -0.00000199  1
  Hf  Hf1  1  0.74999327  0.24999685  0.49999089  1
  Hf  Hf2  1  0.00000227  0.00000251  0.00000265  1
  Hf  Hf3  1  0.25000360  0.75000479  0.50000942  1
  O  O0  1  0.95567402  0.95566506  0.41133806  1
  O  O1  1  0.45566837  0.04432315  -0.00000826  1
  O  O2  1  0.66933974  0.16933929  0.50000078  1
  O  O3  1  0.41933977  0.41933944  0.00000009  1
  O  O4  1  0.83066165  0.33066139  0.50000111  1
  O  O5  1  0.58066076  0.58066150  0.00000096  1
  O  O6  1  0.04433217  0.45567600  0.00000813  1
  O  O7  1  0.20566890  0.70567020  0.91133814  1
  O  O8  1  0.54432651  0.54433378  0.58866148  1
  O  O9  1  0.70567287  0.79432826  0.50000118  1
  O  O10  1  0.08066007  0.08066012  0.00000038  1
  O  O11  1  0.91933858  0.91933847  -0.00000095  1
  O  O12  1  0.16933928  0.66933931  0.49999863  1
  O  O13  1  0.33066030  0.83066053  0.49999991  1
  O  O14  1  0.29432724  0.20567127  0.49999853  1
  O  O15  1  0.79433036  0.29432941  0.08866094  1
loop_
_geom_bond_atom_site_label_1
_geom_bond_atom_site_label_2
_geom_bond_distance
_geom_bond_site_symmetry_2
Hf0 O14 2.046696 1_554
Hf0 O15 2.046704 1_555
Hf0 O7 2.046711 1_554
Hf0 O9 2.046712 1_555
Hf0 O5 2.098013 1_555
Hf0 O3 2.098046 1_555
Hf1 O1 2.046692 1_555
Hf1 O8 2.046724 1_555
Hf1 O0 2.046747 1_545
Hf1 O6 2.046770 1_656
Hf1 O2 2.098028 1_555
Hf1 O4 2.098051 1_555
Hf2 O14 2.046683 1_555
Hf2 O15 2.046696 1_455
Hf2 O7 2.046701 1_544
Hf2 O9 2.046704 1_444
Hf2 O10 2.097985 1_555
Hf2 O11 2.098069 1_445
Hf3 O1 2.046627 1_566
Hf3 O0 2.046670 1_455
Hf3 O8 2.046672 1_555
Hf3 O6 2.046705 1_555
Hf3 O12 2.098003 1_555
Hf3 O13 2.098041 1_555
O0 Sr4 2.560950 1_555
O0 Sr7 2.560977 1_555
O0 Sr1 3.072317 1_666
O0 Sr3 3.072341 1_666
O1 Sr1 2.560977 1_555
O1 Sr3 2.560983 1_555
O1 Sr4 3.072301 1_545
O1 Sr7 3.072301 1_545
O2 Sr6 2.452722 1_555
O2 Sr3 2.853756 1_656
O2 Sr7 2.853758 1_556
O2 Sr7 2.853761 1_545
O2 Sr3 2.853762 1_555
O3 Sr1 2.452739 1_555
O3 Sr0 2.853755 1_555
O3 Sr5 2.853759 1_544
O3 Sr5 2.853760 1_555
O3 Sr0 2.853764 1_454
O4 Sr0 2.452728 1_555
O4 Sr1 2.853754 1_555
O4 Sr4 2.853757 1_545
O4 Sr4 2.853764 1_556
O4 Sr1 2.853766 1_656
O5 Sr7 2.452726 1_555
O5 Sr2 2.853754 1_554
O5 Sr6 2.853759 1_565
O5 Sr6 2.853760 1_554
O5 Sr2 2.853764 1_655
O6 Sr1 2.560981 1_555
O6 Sr3 2.560989 1_555
O6 Sr4 3.072307 1_455
O6 Sr7 3.072316 1_455
O7 Sr2 2.560957 1_555
O7 Sr0 2.560968 1_455
O7 Sr6 3.072319 1_566
O7 Sr5 3.072332 1_556
O8 Sr7 2.560957 1_556
O8 Sr4 2.560972 1_556
O8 Sr3 3.072321 1_555
O8 Sr1 3.072332 1_555
O9 Sr5 2.560981 1_555
O9 Sr6 2.560984 1_565
O9 Sr0 3.072302 1_555
O9 Sr2 3.072311 1_655
O10 Sr3 2.452741 1_555
O10 Sr6 2.853757 1_454
O10 Sr2 2.853757 1_544
O10 Sr6 2.853759 1_555
O10 Sr2 2.853760 1_555
O11 Sr4 2.452727 1_555
O11 Sr5 2.853755 1_655
O11 Sr0 2.853759 1_565
O11 Sr0 2.853761 1_554
O11 Sr5 2.853764 1_554
O12 Sr2 2.452744 1_555
O12 Sr3 2.853753 1_566
O12 Sr7 2.853755 1_556
O12 Sr7 2.853761 1_455
O12 Sr3 2.853764 1_555
O13 Sr5 2.452740 1_555
O13 Sr4 2.853758 1_455
O13 Sr1 2.853759 1_566
O13 Sr1 2.853760 1_555
O13 Sr4 2.853761 1_556
O14 Sr5 2.560972 1_545
O14 Sr6 2.560982 1_555
O14 Sr0 3.072305 1_455
O14 Sr2 3.072308 1_555
O15 Sr0 2.560951 1_555
O15 Sr2 2.560980 1_655
O15 Sr5 3.072311 1_544
O15 Sr6 3.072336 1_554
