# generated using pymatgen
data_Li3FePCO7
_symmetry_space_group_name_H-M   'P 1'
_cell_length_a   6.59942309
_cell_length_b   8.46772532
_cell_length_c   10.14345958
_cell_angle_alpha   87.50737821
_cell_angle_beta   89.97652923
_cell_angle_gamma   90.00104368
_symmetry_Int_Tables_number   1
_chemical_formula_structural   Li3FePCO7
_chemical_formula_sum   'Li12 Fe4 P4 C4 O28'
_cell_volume   566.30146946
_cell_formula_units_Z   4
loop_
 _symmetry_equiv_pos_site_id
 _symmetry_equiv_pos_as_xyz
  1  'x, y, z'
loop_
 _atom_site_type_symbol
 _atom_site_label
 _atom_site_symmetry_multiplicity
 _atom_site_fract_x
 _atom_site_fract_y
 _atom_site_fract_z
 _atom_site_occupancy
  Li  Li0  1  0.51891100  0.99897900  0.01828300  1
  Li  Li1  1  0.51900600  0.99920200  0.51839600  1
  Li  Li2  1  0.01863200  0.00111000  0.48177200  1
  Li  Li3  1  0.01902400  0.00089800  0.98154400  1
  Li  Li4  1  0.20855800  0.17683300  0.21189700  1
  Li  Li5  1  0.20878900  0.17711700  0.71187400  1
  Li  Li6  1  0.70792800  0.82294800  0.28787600  1
  Li  Li7  1  0.70800400  0.82267500  0.78786900  1
  Li  Li8  1  0.39164900  0.52156800  0.21925000  1
  Li  Li9  1  0.39155700  0.52187400  0.71903900  1
  Li  Li10  1  0.89172900  0.47828100  0.28057600  1
  Li  Li11  1  0.89142700  0.47800000  0.78078400  1
  Fe  Fe0  1  0.74918400  0.28146200  0.51691300  1
  Fe  Fe1  1  0.24972400  0.71855500  0.98302900  1
  Fe  Fe2  1  0.74914800  0.28116000  0.01695100  1
  Fe  Fe3  1  0.24919300  0.71910900  0.48311900  1
  P  P0  1  0.24865300  0.33040100  0.47499000  1
  P  P1  1  0.24865700  0.33027300  0.97492900  1
  P  P2  1  0.74892100  0.66966000  0.02501200  1
  P  P3  1  0.74862000  0.66971100  0.52503200  1
  C  C0  1  0.74024700  0.13169300  0.26513800  1
  C  C1  1  0.74032600  0.13137600  0.76508700  1
  C  C2  1  0.24044500  0.86839900  0.23495000  1
  C  C3  1  0.24061200  0.86861800  0.73498500  1
  O  O0  1  0.71448200  0.02643200  0.17780700  1
  O  O1  1  0.71455700  0.02619500  0.67779600  1
  O  O2  1  0.21471800  0.97347600  0.32237900  1
  O  O3  1  0.21505400  0.97376200  0.82237100  1
  O  O4  1  0.75829800  0.08567100  0.38937900  1
  O  O5  1  0.75841800  0.08534400  0.88937300  1
  O  O6  1  0.25850100  0.91449000  0.11073000  1
  O  O7  1  0.25839500  0.91476400  0.61070700  1
  O  O8  1  0.06745100  0.23416500  0.03770400  1
  O  O9  1  0.06740500  0.23433800  0.53777000  1
  O  O10  1  0.56754500  0.76590400  0.46228300  1
  O  O11  1  0.56772400  0.76571700  0.96225500  1
  O  O12  1  0.43799300  0.22922700  0.01049400  1
  O  O13  1  0.43798500  0.22944200  0.51084100  1
  O  O14  1  0.93803300  0.77084100  0.48980300  1
  O  O15  1  0.93832400  0.77062400  0.98938300  1
  O  O16  1  0.75068600  0.28046200  0.23082600  1
  O  O17  1  0.75077000  0.28019600  0.73086100  1
  O  O18  1  0.25093200  0.71949600  0.26917300  1
  O  O19  1  0.25117200  0.71980000  0.76915800  1
  O  O20  1  0.21726900  0.36165500  0.32455000  1
  O  O21  1  0.21705900  0.36197000  0.82455900  1
  O  O22  1  0.71720200  0.63813600  0.17540600  1
  O  O23  1  0.71660800  0.63778800  0.67537200  1
  O  O24  1  0.27066300  0.49060400  0.04365500  1
  O  O25  1  0.27053300  0.49090200  0.54347000  1
  O  O26  1  0.77079200  0.50946200  0.45616300  1
  O  O27  1  0.77089000  0.50923200  0.95643800  1
loop_
_geom_bond_atom_site_label_1
_geom_bond_atom_site_label_2
_geom_bond_distance
_geom_bond_site_symmetry_2
Li0 O12 2.019734 1_565
Li0 O6 2.069999 1_555
Li0 O0 2.091072 1_565
Li0 O11 2.103730 1_554
Li0 O5 2.158247 1_564
Li1 O13 2.019856 1_565
Li1 O7 2.070357 1_555
Li1 O1 2.089450 1_565
Li1 O10 2.104012 1_555
Li1 O4 2.158126 1_565
Li2 O14 2.019308 1_445
Li2 O4 2.070201 1_455
Li2 O2 2.091546 1_545
Li2 O9 2.103382 1_555
Li2 O7 2.160388 1_545
Li3 O15 2.019529 1_445
Li3 O5 2.070389 1_455
Li3 O3 2.088973 1_545
Li3 O8 2.103859 1_556
Li3 O6 2.160676 1_546
Li4 O20 1.978369 1_555
Li4 O2 2.013684 1_545
Li4 O8 2.037552 1_555
Li4 O6 2.508895 1_545
Li4 O12 2.565461 1_555
Li5 O21 1.978699 1_555
Li5 O3 2.013764 1_545
Li5 O9 2.037428 1_555
Li5 O7 2.508680 1_545
Li5 O13 2.561490 1_555
Li6 O22 1.977250 1_555
Li6 O0 2.012440 1_565
Li6 O10 2.036079 1_555
Li6 O4 2.513798 1_565
Li6 O14 2.572927 1_555
Li7 O23 1.977805 1_555
Li7 O1 2.012715 1_565
Li7 O11 2.035442 1_555
Li7 O5 2.513428 1_565
Li7 O15 2.570398 1_555
Li8 O24 1.980023 1_555
Li8 O18 2.000324 1_555
Li8 O20 2.042529 1_555
Li8 O22 2.397693 1_555
Li9 O25 1.979897 1_555
Li9 O19 1.999870 1_555
Li9 O21 2.044022 1_555
Li9 O23 2.392192 1_555
Li10 O26 1.979550 1_555
Li10 O16 2.000197 1_555
Li10 O22 2.042632 1_555
Li10 O20 2.398394 1_655
Li11 O27 1.979179 1_555
Li11 O17 1.999413 1_555
Li11 O23 2.044569 1_555
Li11 O21 2.396566 1_655
Fe0 O26 2.005958 1_555
Fe0 O13 2.101923 1_555
Fe0 O9 2.146474 1_655
Fe0 O4 2.147615 1_555
Fe0 O17 2.169763 1_555
Fe1 O24 2.004962 1_556
Fe1 O15 2.103383 1_455
Fe1 O11 2.144846 1_555
Fe1 O6 2.149632 1_556
Fe1 O19 2.168976 1_555
Fe2 O27 2.005964 1_554
Fe2 O12 2.101639 1_555
Fe2 O8 2.146710 1_655
Fe2 O5 2.148097 1_554
Fe2 O16 2.169211 1_555
Fe3 O25 2.006469 1_555
Fe3 O14 2.101370 1_455
Fe3 O10 2.146613 1_555
Fe3 O7 2.147089 1_555
Fe3 O18 2.170038 1_555
C0 O16 1.294084 1_555
C0 O0 1.294940 1_555
C0 O4 1.308302 1_555
C1 O1 1.294168 1_555
C1 O17 1.294304 1_555
C1 O5 1.308782 1_555
C2 O2 1.294409 1_555
C2 O18 1.295006 1_555
C2 O6 1.308157 1_555
C3 O19 1.294225 1_555
C3 O3 1.294358 1_555
C3 O7 1.308673 1_555
O8 P1 1.565915 1_554
O9 P0 1.565955 1_555
O10 P3 1.565936 1_555
O11 P2 1.566004 1_556
O12 P1 1.548249 1_554
O13 P0 1.548438 1_555
O14 P3 1.548074 1_555
O15 P2 1.548101 1_556
O20 P0 1.551352 1_555
O21 P1 1.551332 1_555
O22 P2 1.551318 1_555
O23 P3 1.551485 1_555
O24 P1 1.559695 1_554
O25 P0 1.559691 1_555
O26 P3 1.559834 1_555
O27 P2 1.559608 1_556
