# generated using pymatgen
data_NaLi5Fe2P2(CO7)2
_symmetry_space_group_name_H-M   'P 1'
_cell_length_a   6.54091400
_cell_length_b   8.53598200
_cell_length_c   10.09404336
_cell_angle_alpha   85.89638809
_cell_angle_beta   90.00000000
_cell_angle_gamma   90.00000000
_symmetry_Int_Tables_number   1
_chemical_formula_structural   NaLi5Fe2P2(CO7)2
_chemical_formula_sum   'Na2 Li10 Fe4 P4 C4 O28'
_cell_volume   562.13710658
_cell_formula_units_Z   2
loop_
 _symmetry_equiv_pos_site_id
 _symmetry_equiv_pos_as_xyz
  1  'x, y, z'
loop_
 _atom_site_type_symbol
 _atom_site_label
 _atom_site_symmetry_multiplicity
 _atom_site_fract_x
 _atom_site_fract_y
 _atom_site_fract_z
 _atom_site_occupancy
  Na  Na0  1  0.00130700  0.25680600  0.87831500  1
  Na  Na1  1  0.50130700  0.74319400  0.12168500  1
  Li  Li0  1  0.25599600  0.08629400  0.62318200  1
  Li  Li1  1  0.25016800  0.09230200  0.12899400  1
  Li  Li2  1  0.01980000  0.27244700  0.37535800  1
  Li  Li3  1  0.47333800  0.27536800  0.37170000  1
  Li  Li4  1  0.48003000  0.27573800  0.87332500  1
  Li  Li5  1  0.51980000  0.72755300  0.62464200  1
  Li  Li6  1  0.97333800  0.72463200  0.62830000  1
  Li  Li7  1  0.98003000  0.72426200  0.12667500  1
  Li  Li8  1  0.75599600  0.91370600  0.37681800  1
  Li  Li9  1  0.75016800  0.90769800  0.87100600  1
  Fe  Fe0  1  0.74572200  0.33816800  0.64087400  1
  Fe  Fe1  1  0.74870700  0.34021600  0.14686100  1
  Fe  Fe2  1  0.24572200  0.66183200  0.35912600  1
  Fe  Fe3  1  0.24870700  0.65978400  0.85313900  1
  P  P0  1  0.25093700  0.40946900  0.60316700  1
  P  P1  1  0.24820600  0.41024600  0.10923000  1
  P  P2  1  0.75093700  0.59053100  0.39683300  1
  P  P3  1  0.74820600  0.58975400  0.89077000  1
  C  C0  1  0.75046500  0.03457700  0.60643000  1
  C  C1  1  0.75687700  0.03992000  0.10515700  1
  C  C2  1  0.25046500  0.96542300  0.39357000  1
  C  C3  1  0.25687700  0.96008000  0.89484300  1
  O  O0  1  0.24779200  0.11220400  0.41918900  1
  O  O1  1  0.28075000  0.10250500  0.92810100  1
  O  O2  1  0.75654900  0.07699000  0.72793000  1
  O  O3  1  0.75216100  0.07489600  0.22850900  1
  O  O4  1  0.74654600  0.14274200  0.50782400  1
  O  O5  1  0.73651200  0.15314100  0.01138900  1
  O  O6  1  0.05934600  0.31231200  0.64884600  1
  O  O7  1  0.43251300  0.30375500  0.65606600  1
  O  O8  1  0.06390300  0.29987900  0.14943500  1
  O  O9  1  0.43555000  0.31690000  0.16941400  1
  O  O10  1  0.25566800  0.42768400  0.44784100  1
  O  O11  1  0.75715900  0.42440400  0.34376600  1
  O  O12  1  0.26940700  0.43104100  0.95509900  1
  O  O13  1  0.72458700  0.42645000  0.83552000  1
  O  O14  1  0.25715900  0.57559600  0.65623400  1
  O  O15  1  0.75566800  0.57231600  0.55215900  1
  O  O16  1  0.22458700  0.57355000  0.16448000  1
  O  O17  1  0.76940700  0.56895900  0.04490100  1
  O  O18  1  0.55934600  0.68768800  0.35115400  1
  O  O19  1  0.93251300  0.69624500  0.34393400  1
  O  O20  1  0.56390300  0.70012100  0.85056500  1
  O  O21  1  0.93555000  0.68310000  0.83058600  1
  O  O22  1  0.24654600  0.85725800  0.49217600  1
  O  O23  1  0.23651200  0.84685900  0.98861100  1
  O  O24  1  0.25654900  0.92301000  0.27207000  1
  O  O25  1  0.25216100  0.92510400  0.77149100  1
  O  O26  1  0.74779200  0.88779600  0.58081100  1
  O  O27  1  0.78075000  0.89749500  0.07189900  1
loop_
_geom_bond_atom_site_label_1
_geom_bond_atom_site_label_2
_geom_bond_distance
_geom_bond_site_symmetry_2
Na0 O1 2.287683 1_555
Na0 O5 2.327458 1_456
Na0 O13 2.338827 1_455
Na0 O6 2.361492 1_555
Na0 O12 2.460252 1_555
Na0 O2 2.748949 1_455
Na0 O8 2.817151 1_556
Na1 O27 2.287683 1_555
Na1 O23 2.327458 1_554
Na1 O16 2.338827 1_555
Na1 O18 2.361492 1_555
Na1 O17 2.460252 1_555
Na1 O24 2.748949 1_555
Na1 O20 2.817151 1_554
Li0 O25 1.959616 1_545
Li0 O0 2.055862 1_555
Li0 O7 2.230933 1_555
Li0 O6 2.348462 1_555
Li0 O22 2.438182 1_545
Li1 O24 1.969021 1_545
Li1 O1 2.033319 1_554
Li1 O8 2.172278 1_555
Li1 O9 2.329003 1_555
Li2 O0 2.050366 1_555
Li2 O11 2.162450 1_455
Li2 O10 2.193208 1_555
Li2 O8 2.293948 1_555
Li2 O4 2.448747 1_455
Li3 O0 2.061666 1_555
Li3 O9 2.062149 1_555
Li3 O10 2.109797 1_555
Li3 O11 2.256764 1_555
Li3 O4 2.477997 1_555
Li4 O1 2.018498 1_555
Li4 O13 2.071034 1_555
Li4 O12 2.119739 1_555
Li4 O7 2.210899 1_555
Li4 O5 2.375505 1_556
Li5 O26 2.050366 1_555
Li5 O14 2.162450 1_555
Li5 O15 2.193208 1_555
Li5 O20 2.293948 1_555
Li5 O22 2.448747 1_555
Li6 O26 2.061666 1_555
Li6 O21 2.062149 1_555
Li6 O15 2.109797 1_555
Li6 O14 2.256764 1_655
Li6 O22 2.477997 1_655
Li7 O27 2.018498 1_555
Li7 O16 2.071034 1_655
Li7 O17 2.119739 1_555
Li7 O19 2.210899 1_555
Li7 O23 2.375505 1_654
Li8 O3 1.959616 1_565
Li8 O26 2.055862 1_555
Li8 O19 2.230933 1_555
Li8 O18 2.348462 1_555
Li8 O4 2.438182 1_565
Li9 O2 1.969021 1_565
Li9 O27 2.033319 1_556
Li9 O20 2.172278 1_555
Li9 O21 2.329003 1_555
Fe0 O6 2.064179 1_655
Fe0 O7 2.073745 1_555
Fe0 O15 2.131834 1_555
Fe0 O13 2.158516 1_555
Fe0 O4 2.215194 1_555
Fe0 O2 2.338183 1_555
Fe1 O9 2.068966 1_555
Fe1 O8 2.090079 1_655
Fe1 O17 2.145319 1_555
Fe1 O11 2.162020 1_555
Fe1 O5 2.176885 1_555
Fe1 O3 2.354098 1_555
Fe2 O18 2.064179 1_555
Fe2 O19 2.073745 1_455
Fe2 O10 2.131834 1_555
Fe2 O16 2.158516 1_555
Fe2 O22 2.215194 1_555
Fe2 O24 2.338183 1_555
Fe3 O21 2.068966 1_455
Fe3 O20 2.090079 1_555
Fe3 O12 2.145319 1_555
Fe3 O14 2.162020 1_555
Fe3 O23 2.176885 1_555
Fe3 O25 2.354098 1_555
C0 O26 1.297443 1_545
C0 O2 1.303964 1_555
C0 O4 1.308546 1_555
C1 O27 1.293643 1_545
C1 O3 1.301389 1_555
C1 O5 1.310234 1_555
C2 O0 1.297443 1_565
C2 O24 1.303964 1_555
C2 O22 1.308546 1_555
C3 O1 1.293643 1_565
C3 O25 1.301389 1_555
C3 O23 1.310234 1_555
O6 P0 1.554388 1_555
O7 P0 1.562371 1_555
O8 P1 1.565493 1_555
O9 P1 1.560857 1_555
O10 P0 1.564753 1_555
O11 P2 1.551834 1_555
O12 P1 1.559405 1_556
O13 P3 1.545729 1_555
O14 P0 1.551834 1_555
O15 P2 1.564753 1_555
O16 P1 1.545729 1_555
O17 P3 1.559405 1_554
O18 P2 1.554388 1_555
O19 P2 1.562371 1_555
O20 P3 1.565493 1_555
O21 P3 1.560857 1_555
