# generated using pymatgen
data_Na2CdO3
_symmetry_space_group_name_H-M   'P 1'
_cell_length_a   5.81053649
_cell_length_b   5.81053649
_cell_length_c   5.80900254
_cell_angle_alpha   80.26601352
_cell_angle_beta   80.26601352
_cell_angle_gamma   119.88342299
_symmetry_Int_Tables_number   1
_chemical_formula_structural   Na2CdO3
_chemical_formula_sum   'Na4 Cd2 O6'
_cell_volume   160.06803927
_cell_formula_units_Z   2
loop_
 _symmetry_equiv_pos_site_id
 _symmetry_equiv_pos_as_xyz
  1  'x, y, z'
loop_
 _atom_site_type_symbol
 _atom_site_label
 _atom_site_symmetry_multiplicity
 _atom_site_fract_x
 _atom_site_fract_y
 _atom_site_fract_z
 _atom_site_occupancy
  Na  Na0  1  0.50000000  0.50000000  0.00000000  1
  Na  Na1  1  0.83821200  0.16178800  0.00000000  1
  Na  Na2  1  0.16178800  0.83821200  0.00000000  1
  Na  Na3  1  0.00000000  0.00000000  0.50000000  1
  Cd  Cd0  1  0.66614000  0.33386000  0.50000000  1
  Cd  Cd1  1  0.33386000  0.66614000  0.50000000  1
  O  O0  1  0.56699600  0.92382600  0.72668300  1
  O  O1  1  0.43300400  0.07617400  0.27331700  1
  O  O2  1  0.72223400  0.72223400  0.26920100  1
  O  O3  1  0.92382600  0.56699600  0.72668300  1
  O  O4  1  0.07617400  0.43300400  0.27331700  1
  O  O5  1  0.27776600  0.27776600  0.73079900  1
loop_
_geom_bond_atom_site_label_1
_geom_bond_atom_site_label_2
_geom_bond_distance
_geom_bond_site_symmetry_2
Na0 O2 2.341885 1_555
Na0 O5 2.341885 1_554
Na0 O0 2.500115 1_554
Na0 O3 2.500115 1_554
Na0 O1 2.500115 1_555
Na0 O4 2.500115 1_555
Na1 O3 2.369291 1_554
Na1 O1 2.369291 1_555
Na1 O5 2.449636 1_654
Na1 O2 2.449636 1_545
Na1 O4 2.516585 1_655
Na1 O0 2.516585 1_544
Na2 O4 2.369291 1_555
Na2 O0 2.369291 1_554
Na2 O5 2.449636 1_564
Na2 O2 2.449636 1_455
Na2 O1 2.516585 1_565
Na2 O3 2.516585 1_454
Na3 O0 2.415159 1_445
Na3 O1 2.415159 1_555
Na3 O3 2.415159 1_445
Na3 O4 2.415159 1_555
Na3 O5 2.423841 1_555
Na3 O2 2.423841 1_445
Cd0 O4 2.248813 1_655
Cd0 O0 2.248813 1_545
Cd0 O3 2.249370 1_555
Cd0 O1 2.249370 1_555
Cd0 O5 2.256653 1_555
Cd0 O2 2.256653 1_555
Cd1 O1 2.248813 1_565
Cd1 O3 2.248813 1_455
Cd1 O0 2.249370 1_555
Cd1 O4 2.249370 1_555
Cd1 O5 2.256653 1_555
Cd1 O2 2.256653 1_555
