# generated using pymatgen
data_NaV4O10
_symmetry_space_group_name_H-M   'P 1'
_cell_length_a   6.17130727
_cell_length_b   6.17130727
_cell_length_c   9.57330227
_cell_angle_alpha   79.40726682
_cell_angle_beta   79.40726682
_cell_angle_gamma   34.69368018
_symmetry_Int_Tables_number   1
_chemical_formula_structural   NaV4O10
_chemical_formula_sum   'Na1 V4 O10'
_cell_volume   203.64112019
_cell_formula_units_Z   1
loop_
 _symmetry_equiv_pos_site_id
 _symmetry_equiv_pos_as_xyz
  1  'x, y, z'
loop_
 _atom_site_type_symbol
 _atom_site_label
 _atom_site_symmetry_multiplicity
 _atom_site_fract_x
 _atom_site_fract_y
 _atom_site_fract_z
 _atom_site_occupancy
  Na  Na0  1  0.50000000  0.50000000  0.50000000  1
  V  V0  1  0.91139400  0.91139400  0.16246900  1
  V  V1  1  0.79689000  0.79689000  0.83202100  1
  V  V2  1  0.20311000  0.20311000  0.16797900  1
  V  V3  1  0.08860600  0.08860600  0.83753100  1
  O  O0  1  0.93503400  0.93503400  0.90406200  1
  O  O1  1  0.90633700  0.90633700  0.33437200  1
  O  O2  1  0.84976800  0.84976800  0.66166200  1
  O  O3  1  0.37617000  0.37617000  0.13786000  1
  O  O4  1  0.25841900  0.25841900  0.87712000  1
  O  O5  1  0.74158100  0.74158100  0.12288000  1
  O  O6  1  0.62383000  0.62383000  0.86214000  1
  O  O7  1  0.15023200  0.15023200  0.33833800  1
  O  O8  1  0.09366300  0.09366300  0.66562800  1
  O  O9  1  0.06496600  0.06496600  0.09593800  1
loop_
_geom_bond_atom_site_label_1
_geom_bond_atom_site_label_2
_geom_bond_distance
_geom_bond_site_symmetry_2
Na0 O8 2.791297 1_655
Na0 O1 2.791297 1_545
Na0 O8 2.791297 1_565
Na0 O1 2.791297 1_455
Na0 O7 2.803278 1_655
Na0 O7 2.803278 1_565
Na0 O2 2.803278 1_545
Na0 O2 2.803278 1_455
O0 V3 1.798684 1_665
O0 V1 1.885937 1_555
O0 V0 2.435553 1_556
O1 V0 1.635251 1_555
O2 V1 1.629903 1_555
O3 V0 1.910759 1_545
O3 V0 1.910759 1_455
O3 V2 2.003412 1_555
O4 V1 1.924080 1_455
O4 V1 1.924080 1_545
O4 V3 2.106684 1_555
O5 V2 1.924080 1_565
O5 V2 1.924080 1_655
O5 V0 2.106684 1_555
O6 V3 1.910759 1_655
O6 V3 1.910759 1_565
O6 V1 2.003412 1_555
O7 V2 1.629903 1_555
O8 V3 1.635251 1_555
O9 V0 1.798684 1_445
O9 V2 1.885937 1_555
O9 V3 2.435553 1_554
