# generated using pymatgen
data_Li3Mn3(BO3)4
_symmetry_space_group_name_H-M   'P 1'
_cell_length_a   9.07771900
_cell_length_b   5.34652600
_cell_length_c   10.79983997
_cell_angle_alpha   62.83830848
_cell_angle_beta   90.00000000
_cell_angle_gamma   90.00000000
_symmetry_Int_Tables_number   1
_chemical_formula_structural   Li3Mn3(BO3)4
_chemical_formula_sum   'Li6 Mn6 B8 O24'
_cell_volume   466.35857609
_cell_formula_units_Z   2
loop_
 _symmetry_equiv_pos_site_id
 _symmetry_equiv_pos_as_xyz
  1  'x, y, z'
loop_
 _atom_site_type_symbol
 _atom_site_label
 _atom_site_symmetry_multiplicity
 _atom_site_fract_x
 _atom_site_fract_y
 _atom_site_fract_z
 _atom_site_occupancy
  Li  Li0  1  0.23512600  0.51455200  0.33829800  1
  Li  Li1  1  0.90619100  0.44500800  0.37117300  1
  Li  Li2  1  0.42860800  0.53947000  0.12418300  1
  Li  Li3  1  0.76487400  0.51455200  0.83829800  1
  Li  Li4  1  0.09380900  0.44500800  0.87117300  1
  Li  Li5  1  0.57139200  0.53947000  0.62418300  1
  Mn  Mn0  1  0.57787200  0.98781400  0.87515900  1
  Mn  Mn1  1  0.24336300  0.94356700  0.88253800  1
  Mn  Mn2  1  0.05224700  0.01397500  0.62270000  1
  Mn  Mn3  1  0.42212800  0.98781400  0.37515900  1
  Mn  Mn4  1  0.75663700  0.94356700  0.38253800  1
  Mn  Mn5  1  0.94775300  0.01397500  0.12270000  1
  B  B0  1  0.57365900  0.44649100  0.37984900  1
  B  B1  1  0.90381600  0.96139000  0.87313100  1
  B  B2  1  0.06665400  0.56048800  0.10665000  1
  B  B3  1  0.41303600  0.01934300  0.64412600  1
  B  B4  1  0.09618400  0.96139000  0.37313100  1
  B  B5  1  0.42634100  0.44649100  0.87984900  1
  B  B6  1  0.58696400  0.01934300  0.14412600  1
  B  B7  1  0.93334600  0.56048800  0.60665000  1
  O  O0  1  0.57197300  0.86643400  0.07108500  1
  O  O1  1  0.93130500  0.33269500  0.58211800  1
  O  O2  1  0.19313500  0.72947000  0.07981000  1
  O  O3  1  0.53572700  0.12276900  0.68143100  1
  O  O4  1  0.27248100  0.06299200  0.68448300  1
  O  O5  1  0.94279900  0.62732400  0.15951800  1
  O  O6  1  0.43523300  0.38498200  0.34405100  1
  O  O7  1  0.69871400  0.30312900  0.38374000  1
  O  O8  1  0.77835500  0.84068100  0.86255300  1
  O  O9  1  0.03615100  0.87729300  0.83081900  1
  O  O10  1  0.08508200  0.16649900  0.41928500  1
  O  O11  1  0.42107500  0.67431100  0.91248300  1
  O  O12  1  0.06869500  0.33269500  0.08211800  1
  O  O13  1  0.42802700  0.86643400  0.57108500  1
  O  O14  1  0.80686500  0.72947000  0.57981000  1
  O  O15  1  0.46427300  0.12276900  0.18143100  1
  O  O16  1  0.72751900  0.06299200  0.18448300  1
  O  O17  1  0.05720100  0.62732400  0.65951800  1
  O  O18  1  0.56476700  0.38498200  0.84405100  1
  O  O19  1  0.22164500  0.84068100  0.36255300  1
  O  O20  1  0.96384900  0.87729300  0.33081900  1
  O  O21  1  0.30128600  0.30312900  0.88374000  1
  O  O22  1  0.57892500  0.67431100  0.41248300  1
  O  O23  1  0.91491800  0.16649900  0.91928500  1
loop_
_geom_bond_atom_site_label_1
_geom_bond_atom_site_label_2
_geom_bond_distance
_geom_bond_site_symmetry_2
Li0 O19 1.881741 1_555
Li0 O6 1.934991 1_555
Li0 O10 2.144072 1_555
Li0 O2 2.515976 1_555
Li1 O7 2.011740 1_555
Li1 O5 2.061879 1_555
Li1 O1 2.086534 1_555
Li1 O10 2.101901 1_655
Li1 O20 2.210429 1_555
Li2 O0 2.040400 1_555
Li2 O15 2.047684 1_555
Li2 O11 2.060779 1_554
Li2 O6 2.129225 1_555
Li2 O2 2.320835 1_555
Li3 O8 1.881741 1_555
Li3 O18 1.934991 1_555
Li3 O23 2.144072 1_555
Li3 O14 2.515976 1_555
Li4 O21 2.011740 1_555
Li4 O17 2.061879 1_555
Li4 O12 2.086534 1_556
Li4 O23 2.101901 1_455
Li4 O9 2.210429 1_555
Li5 O13 2.040400 1_555
Li5 O3 2.047684 1_555
Li5 O22 2.060779 1_555
Li5 O18 2.129225 1_555
Li5 O14 2.320835 1_555
Mn0 O0 1.909875 1_556
Mn0 O3 1.914711 1_565
Mn0 O18 1.996197 1_565
Mn0 O8 2.011784 1_555
Mn0 O11 2.093096 1_555
Mn1 O4 1.950842 1_565
Mn1 O2 1.957205 1_556
Mn1 O21 1.998769 1_565
Mn1 O9 2.038736 1_555
Mn1 O11 2.086721 1_555
Mn2 O1 1.902450 1_455
Mn2 O17 1.919147 1_545
Mn2 O10 1.986042 1_555
Mn2 O9 2.026742 1_545
Mn2 O4 2.161121 1_555
Mn3 O13 1.909875 1_555
Mn3 O15 1.914711 1_565
Mn3 O6 1.996197 1_565
Mn3 O19 2.011784 1_555
Mn3 O22 2.093096 1_555
Mn4 O16 1.950842 1_565
Mn4 O14 1.957205 1_555
Mn4 O7 1.998769 1_565
Mn4 O20 2.038736 1_555
Mn4 O22 2.086721 1_555
Mn5 O12 1.902450 1_655
Mn5 O5 1.919147 1_545
Mn5 O23 1.986042 1_554
Mn5 O20 2.026742 1_545
Mn5 O16 2.161121 1_555
B0 O7 1.359623 1_555
B0 O6 1.397399 1_555
B0 O22 1.414949 1_555
B1 O8 1.339390 1_555
B1 O23 1.400092 1_565
B1 O9 1.428877 1_655
B2 O12 1.359567 1_555
B2 O5 1.379881 1_455
B2 O2 1.406926 1_555
B3 O13 1.377652 1_545
B3 O3 1.382732 1_555
B3 O4 1.401878 1_555
B4 O19 1.339390 1_555
B4 O10 1.400092 1_565
B4 O20 1.428877 1_455
B5 O21 1.359623 1_555
B5 O18 1.397399 1_555
B5 O11 1.414949 1_555
B6 O0 1.377652 1_545
B6 O15 1.382732 1_555
B6 O16 1.401878 1_555
B7 O1 1.359567 1_555
B7 O17 1.379881 1_655
B7 O14 1.406926 1_555
