# generated using pymatgen
data_Li4Fe7(OF7)2
_symmetry_space_group_name_H-M   'P 1'
_cell_length_a   6.18790500
_cell_length_b   6.22051538
_cell_length_c   10.77646637
_cell_angle_alpha   91.03348126
_cell_angle_beta   105.74202947
_cell_angle_gamma   119.43502851
_symmetry_Int_Tables_number   1
_chemical_formula_structural   Li4Fe7(OF7)2
_chemical_formula_sum   'Li4 Fe7 O2 F14'
_cell_volume   341.99550697
_cell_formula_units_Z   1
loop_
 _symmetry_equiv_pos_site_id
 _symmetry_equiv_pos_as_xyz
  1  'x, y, z'
loop_
 _atom_site_type_symbol
 _atom_site_label
 _atom_site_symmetry_multiplicity
 _atom_site_fract_x
 _atom_site_fract_y
 _atom_site_fract_z
 _atom_site_occupancy
  Li  Li0  1  0.35696400  0.88858900  0.81302600  1
  Li  Li1  1  0.62121500  0.57672800  0.68001700  1
  Li  Li2  1  0.37878500  0.42327200  0.31998300  1
  Li  Li3  1  0.64303600  0.11141100  0.18697400  1
  Fe  Fe0  1  0.00000000  0.00000000  0.00000000  1
  Fe  Fe1  1  0.01444500  0.25354800  0.74941800  1
  Fe  Fe2  1  0.00000000  0.50000000  0.00000000  1
  Fe  Fe3  1  0.50000000  0.50000000  0.00000000  1
  Fe  Fe4  1  0.00000000  0.50000000  0.50000000  1
  Fe  Fe5  1  0.98555500  0.74645200  0.25058200  1
  Fe  Fe6  1  0.50000000  0.00000000  0.50000000  1
  O  O0  1  0.77199900  0.43641500  0.11210800  1
  O  O1  1  0.22800100  0.56358500  0.88789200  1
  F  F0  1  0.23887500  0.10415000  0.87551500  1
  F  F1  1  0.75312800  0.10558700  0.87968400  1
  F  F2  1  0.24064800  0.35623000  0.12625900  1
  F  F3  1  0.75935200  0.64377000  0.87374100  1
  F  F4  1  0.24687200  0.89441300  0.12031600  1
  F  F5  1  0.76112500  0.89585000  0.12448500  1
  F  F6  1  0.76001600  0.60287800  0.37951100  1
  F  F7  1  0.24912300  0.62751500  0.37740600  1
  F  F8  1  0.24441000  0.08863200  0.36666900  1
  F  F9  1  0.73015500  0.13893300  0.38123700  1
  F  F10  1  0.75559000  0.91136800  0.63333100  1
  F  F11  1  0.26984500  0.86106700  0.61876300  1
  F  F12  1  0.23998400  0.39712200  0.62048900  1
  F  F13  1  0.75087700  0.37248500  0.62259400  1
loop_
_geom_bond_atom_site_label_1
_geom_bond_atom_site_label_2
_geom_bond_distance
_geom_bond_site_symmetry_2
Li0 O1 2.048771 1_555
Li3 O0 2.048771 1_555
Fe1 O1 2.003453 1_555
Fe2 O1 2.000037 1_554
Fe2 O0 2.000037 1_455
Fe3 O0 2.004261 1_555
Fe3 O1 2.004261 1_554
Fe5 O0 2.003453 1_555
F0 Li0 1.995729 1_545
F0 Fe0 2.137837 1_556
F0 Fe1 2.220116 1_555
F0 Fe3 2.295192 1_556
F1 Li0 2.026009 1_545
F1 Fe0 2.094822 1_656
F1 Fe2 2.271767 1_656
F1 Fe1 2.290859 1_655
F2 Li2 1.978087 1_555
F2 Fe0 2.127839 1_555
F2 Fe3 2.246045 1_555
F2 Fe2 2.263181 1_555
F3 Li1 1.978087 1_555
F3 Fe0 2.127839 1_666
F3 Fe3 2.246045 1_556
F3 Fe2 2.263181 1_656
F4 Li3 2.026009 1_565
F4 Fe0 2.094822 1_565
F4 Fe2 2.271767 1_555
F4 Fe5 2.290859 1_455
F5 Li3 1.995729 1_565
F5 Fe0 2.137837 1_665
F5 Fe5 2.220116 1_555
F5 Fe3 2.295192 1_555
F6 Li2 1.946093 1_555
F6 Fe4 2.053896 1_655
F6 Fe5 2.132521 1_555
F7 Li2 1.970734 1_555
F7 Fe4 2.166101 1_555
F7 Fe6 2.182976 1_565
F7 Fe5 2.255702 1_455
F8 Li2 1.959911 1_555
F8 Fe5 2.031493 1_445
F8 Fe6 2.126589 1_555
F9 Li3 1.996628 1_555
F9 Fe6 2.057275 1_555
F9 Fe4 2.126350 1_655
F10 Li1 1.959911 1_555
F10 Fe1 2.031493 1_665
F10 Fe6 2.126589 1_565
F11 Li0 1.996628 1_555
F11 Fe6 2.057275 1_565
F11 Fe4 2.126350 1_555
F12 Li1 1.946093 1_555
F12 Fe4 2.053896 1_555
F12 Fe1 2.132521 1_555
F13 Li1 1.970734 1_555
F13 Fe4 2.166101 1_655
F13 Fe6 2.182976 1_555
F13 Fe1 2.255702 1_655
