# generated using pymatgen
data_Na3CuBAsO7
_symmetry_space_group_name_H-M   'P 1'
_cell_length_a   6.60593500
_cell_length_b   5.28431100
_cell_length_c   9.17156670
_cell_angle_alpha   88.63157805
_cell_angle_beta   90.00000000
_cell_angle_gamma   90.00000000
_symmetry_Int_Tables_number   1
_chemical_formula_structural   Na3CuBAsO7
_chemical_formula_sum   'Na6 Cu2 B2 As2 O14'
_cell_volume   320.06804512
_cell_formula_units_Z   2
loop_
 _symmetry_equiv_pos_site_id
 _symmetry_equiv_pos_as_xyz
  1  'x, y, z'
loop_
 _atom_site_type_symbol
 _atom_site_label
 _atom_site_symmetry_multiplicity
 _atom_site_fract_x
 _atom_site_fract_y
 _atom_site_fract_z
 _atom_site_occupancy
  Na  Na0  1  0.75000000  0.24108500  0.92098600  1
  Na  Na1  1  0.00034600  0.75468600  0.74904900  1
  Na  Na2  1  0.49965400  0.75468600  0.74904900  1
  Na  Na3  1  0.50034600  0.24531400  0.25095100  1
  Na  Na4  1  0.99965400  0.24531400  0.25095100  1
  Na  Na5  1  0.25000000  0.75891500  0.07901400  1
  Cu  Cu0  1  0.25000000  0.22112600  0.66582900  1
  Cu  Cu1  1  0.75000000  0.77887400  0.33417100  1
  B  B0  1  0.25000000  0.26618400  0.93828100  1
  B  B1  1  0.75000000  0.73381600  0.06171900  1
  As  As0  1  0.75000000  0.29884700  0.57613600  1
  As  As1  1  0.25000000  0.70115300  0.42386400  1
  O  O0  1  0.75000000  0.71048400  0.91572700  1
  O  O1  1  0.25000000  0.03471100  0.86945000  1
  O  O2  1  0.25000000  0.47254200  0.84134600  1
  O  O3  1  0.94868400  0.21481600  0.69157000  1
  O  O4  1  0.55131600  0.21481600  0.69157000  1
  O  O5  1  0.75000000  0.62425800  0.54527000  1
  O  O6  1  0.25000000  0.84861200  0.58603700  1
  O  O7  1  0.75000000  0.15138800  0.41396300  1
  O  O8  1  0.25000000  0.37574200  0.45473000  1
  O  O9  1  0.44868400  0.78518400  0.30843000  1
  O  O10  1  0.05131600  0.78518400  0.30843000  1
  O  O11  1  0.75000000  0.52745800  0.15865400  1
  O  O12  1  0.75000000  0.96528900  0.13055000  1
  O  O13  1  0.25000000  0.28951600  0.08427300  1
loop_
_geom_bond_atom_site_label_1
_geom_bond_atom_site_label_2
_geom_bond_distance
_geom_bond_site_symmetry_2
Na0 O12 2.384198 1_546
Na0 O0 2.479767 1_555
Na0 O3 2.486587 1_555
Na0 O4 2.486587 1_555
Na0 O11 2.683105 1_556
Na0 O0 2.805427 1_545
Na1 O0 2.260393 1_455
Na1 O6 2.272886 1_555
Na1 O2 2.366229 1_555
Na1 O1 2.491371 1_565
Na1 O3 2.499041 1_465
Na1 O5 2.600878 1_455
Na2 O0 2.260393 1_555
Na2 O6 2.272886 1_555
Na2 O2 2.366229 1_555
Na2 O1 2.491371 1_565
Na2 O4 2.499041 1_565
Na2 O5 2.600878 1_555
Na3 O13 2.260393 1_555
Na3 O7 2.272886 1_555
Na3 O11 2.366229 1_555
Na3 O12 2.491371 1_545
Na3 O9 2.499041 1_545
Na3 O8 2.600878 1_555
Na4 O13 2.260393 1_655
Na4 O7 2.272886 1_555
Na4 O11 2.366229 1_555
Na4 O12 2.491371 1_545
Na4 O10 2.499041 1_645
Na4 O8 2.600878 1_655
Na5 O1 2.384198 1_564
Na5 O13 2.479767 1_555
Na5 O9 2.486587 1_555
Na5 O10 2.486587 1_555
Na5 O2 2.683105 1_554
Na5 O13 2.805427 1_565
Cu0 O3 2.004609 1_455
Cu0 O4 2.004609 1_555
Cu0 O8 2.083390 1_555
Cu0 O1 2.090491 1_555
Cu0 O2 2.111532 1_555
Cu0 O6 2.116430 1_545
Cu1 O10 2.004609 1_655
Cu1 O9 2.004609 1_555
Cu1 O5 2.083390 1_555
Cu1 O12 2.090491 1_555
Cu1 O11 2.111532 1_555
Cu1 O7 2.116430 1_565
B0 O13 1.347569 1_556
B0 O1 1.389807 1_555
B0 O2 1.390396 1_555
B1 O0 1.347569 1_554
B1 O12 1.389807 1_555
B1 O11 1.390396 1_555
As0 O7 1.695535 1_555
As0 O5 1.736036 1_555
As0 O3 1.737306 1_555
As0 O4 1.737306 1_555
As1 O6 1.695535 1_555
As1 O8 1.736036 1_555
As1 O9 1.737306 1_555
As1 O10 1.737306 1_555
