# generated using pymatgen
data_La7Mn8O23
_symmetry_space_group_name_H-M   'P 1'
_cell_length_a   7.89487600
_cell_length_b   5.56140900
_cell_length_c   11.12010609
_cell_angle_alpha   89.91908076
_cell_angle_beta   90.00000000
_cell_angle_gamma   90.00000000
_symmetry_Int_Tables_number   1
_chemical_formula_structural   La7Mn8O23
_chemical_formula_sum   'La7 Mn8 O23'
_cell_volume   488.24594611
_cell_formula_units_Z   1
loop_
 _symmetry_equiv_pos_site_id
 _symmetry_equiv_pos_as_xyz
  1  'x, y, z'
loop_
 _atom_site_type_symbol
 _atom_site_label
 _atom_site_symmetry_multiplicity
 _atom_site_fract_x
 _atom_site_fract_y
 _atom_site_fract_z
 _atom_site_occupancy
  La  La0  1  0.50000000  0.96951500  0.50470200  1
  La  La1  1  0.50000000  0.97176200  0.00043600  1
  La  La2  1  0.00000000  0.53160500  0.25492200  1
  La  La3  1  0.50000000  0.47081600  0.24716100  1
  La  La4  1  0.50000000  0.46806800  0.74730700  1
  La  La5  1  0.00000000  0.04243600  0.49285900  1
  La  La6  1  0.00000000  0.03334600  0.99266100  1
  Mn  Mn0  1  0.25265200  0.99314400  0.75294600  1
  Mn  Mn1  1  0.74734800  0.99314400  0.75294600  1
  Mn  Mn2  1  0.25075800  0.00016400  0.24880300  1
  Mn  Mn3  1  0.74924200  0.00016400  0.24880300  1
  Mn  Mn4  1  0.24480400  0.49818900  0.99373900  1
  Mn  Mn5  1  0.24454600  0.50266400  0.50517700  1
  Mn  Mn6  1  0.75519600  0.49818900  0.99373900  1
  Mn  Mn7  1  0.75545400  0.50266400  0.50517700  1
  O  O0  1  0.00000000  0.99073600  0.21649500  1
  O  O1  1  0.77740700  0.79434600  0.89620500  1
  O  O2  1  0.78551700  0.78563700  0.39132600  1
  O  O3  1  0.22259300  0.79434600  0.89620500  1
  O  O4  1  0.21448300  0.78563700  0.39132600  1
  O  O5  1  0.70599000  0.72923500  0.63789600  1
  O  O6  1  0.29401000  0.72923500  0.63789600  1
  O  O7  1  0.71404400  0.71501300  0.14103500  1
  O  O8  1  0.28595600  0.71501300  0.14103500  1
  O  O9  1  0.50000000  0.50991200  0.96287500  1
  O  O10  1  0.50000000  0.50312900  0.47003200  1
  O  O11  1  0.00000000  0.48558300  0.03854400  1
  O  O12  1  0.00000000  0.48750600  0.51884100  1
  O  O13  1  0.21451300  0.28195200  0.36022200  1
  O  O14  1  0.21641900  0.26217800  0.86201200  1
  O  O15  1  0.78548700  0.28195200  0.36022200  1
  O  O16  1  0.78358100  0.26217800  0.86201200  1
  O  O17  1  0.27364800  0.20520400  0.60874500  1
  O  O18  1  0.72635200  0.20520400  0.60874500  1
  O  O19  1  0.28810000  0.22269900  0.11067300  1
  O  O20  1  0.71190000  0.22269900  0.11067300  1
  O  O21  1  0.50000000  0.01775600  0.78358800  1
  O  O22  1  0.50000000  0.00885600  0.28343500  1
loop_
_geom_bond_atom_site_label_1
_geom_bond_atom_site_label_2
_geom_bond_distance
_geom_bond_site_symmetry_2
La0 O22 2.469913 1_565
La0 O17 2.500881 1_565
La0 O18 2.500881 1_565
La0 O6 2.572661 1_555
La0 O5 2.572661 1_555
La0 O10 2.622798 1_555
La0 O2 2.778481 1_555
La0 O4 2.778481 1_555
La0 O10 2.992044 1_565
La1 O21 2.424542 1_564
La1 O19 2.500761 1_565
La1 O20 2.500761 1_565
La1 O9 2.602858 1_554
La1 O1 2.667715 1_554
La1 O3 2.667715 1_554
La1 O7 2.707878 1_555
La1 O8 2.707878 1_555
La2 O11 2.420080 1_555
La2 O13 2.482411 1_555
La2 O15 2.482411 1_455
La2 O0 2.588328 1_555
La2 O4 2.677699 1_555
La2 O2 2.677699 1_455
La2 O7 2.781605 1_455
La2 O8 2.781605 1_555
La3 O7 2.467420 1_555
La3 O8 2.467420 1_555
La3 O10 2.485109 1_555
La3 O22 2.600059 1_555
La3 O19 2.648067 1_555
La3 O20 2.648067 1_555
La3 O15 2.785710 1_555
La3 O13 2.785710 1_555
La3 O22 3.019891 1_565
La3 O9 3.168453 1_554
La3 O2 3.274826 1_555
La3 O4 3.274826 1_555
La4 O9 2.408735 1_555
La4 O6 2.495926 1_555
La4 O5 2.495926 1_555
La4 O21 2.536096 1_555
La4 O17 2.776883 1_555
La4 O18 2.776883 1_555
La4 O16 2.818929 1_555
La4 O14 2.818929 1_555
La5 O4 2.487227 1_545
La5 O2 2.487227 1_445
La5 O12 2.492427 1_555
La5 O13 2.610050 1_555
La5 O15 2.610050 1_455
La5 O18 2.674093 1_455
La5 O17 2.674093 1_555
La6 O3 2.451422 1_545
La6 O1 2.451422 1_445
La6 O0 2.499980 1_546
La6 O11 2.567013 1_556
La6 O14 2.577673 1_555
La6 O16 2.577673 1_455
La6 O20 2.829915 1_456
La6 O19 2.829915 1_556
Mn0 O14 1.948471 1_565
Mn0 O3 1.952309 1_555
Mn0 O6 1.975566 1_555
Mn0 O21 1.987040 1_565
Mn0 O17 1.996075 1_565
Mn1 O16 1.948471 1_565
Mn1 O1 1.952309 1_555
Mn1 O5 1.975566 1_555
Mn1 O21 1.987040 1_565
Mn1 O18 1.996075 1_565
Mn2 O19 1.993132 1_555
Mn2 O4 2.002976 1_545
Mn2 O22 2.005662 1_555
Mn2 O8 2.008388 1_545
Mn2 O0 2.012735 1_545
Mn2 O13 2.019502 1_555
Mn3 O20 1.993132 1_555
Mn3 O2 2.002976 1_545
Mn3 O22 2.005662 1_555
Mn3 O7 2.008388 1_545
Mn3 O0 2.012735 1_645
Mn3 O15 2.019502 1_555
Mn4 O3 1.978588 1_555
Mn4 O14 1.980944 1_555
Mn4 O11 1.997091 1_556
Mn4 O19 2.037010 1_556
Mn4 O9 2.044789 1_555
Mn4 O8 2.061085 1_556
Mn5 O12 1.938455 1_555
Mn5 O6 1.980813 1_555
Mn5 O17 2.027434 1_555
Mn5 O4 2.032282 1_555
Mn5 O13 2.041264 1_555
Mn5 O10 2.054296 1_555
Mn6 O1 1.978588 1_555
Mn6 O16 1.980944 1_555
Mn6 O11 1.997091 1_656
Mn6 O20 2.037010 1_556
Mn6 O9 2.044789 1_555
Mn6 O7 2.061085 1_556
Mn7 O12 1.938455 1_655
Mn7 O5 1.980813 1_555
Mn7 O18 2.027434 1_555
Mn7 O2 2.032282 1_555
Mn7 O15 2.041264 1_555
Mn7 O10 2.054296 1_555
