# generated using pymatgen
data_Li8Mn3Fe5(BO3)8
_symmetry_space_group_name_H-M   'P 1'
_cell_length_a   5.23012900
_cell_length_b   6.02453044
_cell_length_c   16.17475335
_cell_angle_alpha   81.80383968
_cell_angle_beta   89.22531502
_cell_angle_gamma   89.04694598
_symmetry_Int_Tables_number   1
_chemical_formula_structural   Li8Mn3Fe5(BO3)8
_chemical_formula_sum   'Li8 Mn3 Fe5 B8 O24'
_cell_volume   504.34397554
_cell_formula_units_Z   1
loop_
 _symmetry_equiv_pos_site_id
 _symmetry_equiv_pos_as_xyz
  1  'x, y, z'
loop_
 _atom_site_type_symbol
 _atom_site_label
 _atom_site_symmetry_multiplicity
 _atom_site_fract_x
 _atom_site_fract_y
 _atom_site_fract_z
 _atom_site_occupancy
  Li  Li0  1  0.84725700  0.06514900  0.39043700  1
  Li  Li1  1  0.15196700  0.43152900  0.11257700  1
  Li  Li2  1  0.65210500  0.18638900  0.85869500  1
  Li  Li3  1  0.34552900  0.31597400  0.63825200  1
  Li  Li4  1  0.65270100  0.68485500  0.36139500  1
  Li  Li5  1  0.34958800  0.81293000  0.14206700  1
  Li  Li6  1  0.84529500  0.56701000  0.88852600  1
  Li  Li7  1  0.15265100  0.93653300  0.60835100  1
  Mn  Mn0  1  0.67082900  0.27158600  0.04087600  1
  Mn  Mn1  1  0.16896300  0.02809300  0.78910100  1
  Mn  Mn2  1  0.32987800  0.72355500  0.96057200  1
  Fe  Fe0  1  0.33031800  0.22726200  0.45680900  1
  Fe  Fe1  1  0.17207500  0.52447900  0.28948700  1
  Fe  Fe2  1  0.82500700  0.47725800  0.70639400  1
  Fe  Fe3  1  0.66105300  0.77606600  0.54159400  1
  Fe  Fe4  1  0.82875500  0.96937100  0.21234800  1
  B  B0  1  0.33022700  0.03529800  0.29712800  1
  B  B1  1  0.82869600  0.28929100  0.54534500  1
  B  B2  1  0.67474100  0.46098300  0.20563600  1
  B  B3  1  0.17108200  0.21614500  0.95251400  1
  B  B4  1  0.83095700  0.78323600  0.04894300  1
  B  B5  1  0.32793700  0.53741800  0.79492600  1
  B  B6  1  0.16967800  0.71207500  0.45394700  1
  B  B7  1  0.66981300  0.96532200  0.70104500  1
  O  O0  1  0.59251100  0.01146200  0.30777100  1
  O  O1  1  0.18804400  0.16784700  0.34665900  1
  O  O2  1  0.70297200  0.17830900  0.48813000  1
  O  O3  1  0.28820300  0.33187500  0.01045500  1
  O  O4  1  0.78741500  0.07754400  0.75925900  1
  O  O5  1  0.81700000  0.32679000  0.15760200  1
  O  O6  1  0.32119600  0.08175200  0.90609200  1
  O  O7  1  0.08954800  0.26271200  0.55743300  1
  O  O8  1  0.41215500  0.48554000  0.19452200  1
  O  O9  1  0.91096400  0.23890800  0.93859600  1
  O  O10  1  0.68549300  0.42033100  0.59531400  1
  O  O11  1  0.20410600  0.42182700  0.73864200  1
  O  O12  1  0.79715100  0.57745500  0.26207700  1
  O  O13  1  0.31472400  0.58082100  0.40473400  1
  O  O14  1  0.09095000  0.76078000  0.06300800  1
  O  O15  1  0.58995200  0.51381800  0.80712100  1
  O  O16  1  0.90979400  0.74061600  0.44274900  1
  O  O17  1  0.68194900  0.91627400  0.09651300  1
  O  O18  1  0.18183200  0.66967900  0.84360000  1
  O  O19  1  0.20724900  0.92373100  0.24007200  1
  O  O20  1  0.71353000  0.66961700  0.99082000  1
  O  O21  1  0.29617500  0.82315500  0.51118000  1
  O  O22  1  0.82003500  0.83246200  0.65316400  1
  O  O23  1  0.40995200  0.98889000  0.68752100  1
loop_
_geom_bond_atom_site_label_1
_geom_bond_atom_site_label_2
_geom_bond_distance
_geom_bond_site_symmetry_2
Li0 O2 1.946517 1_555
Li0 O0 1.963018 1_555
Li0 O1 1.984603 1_655
Li0 O16 2.039629 1_545
Li1 O3 1.957876 1_555
Li1 O5 1.966981 1_455
Li1 O8 1.975087 1_555
Li1 O14 2.052237 1_555
Li2 O4 1.942193 1_555
Li2 O9 1.944598 1_555
Li2 O6 1.960370 1_555
Li2 O15 2.051717 1_555
Li3 O7 1.945622 1_555
Li3 O11 1.958962 1_555
Li3 O10 1.979493 1_555
Li3 O23 2.041815 1_545
Li4 O12 1.953809 1_555
Li4 O16 1.959932 1_555
Li4 O13 1.971530 1_555
Li4 O0 2.055051 1_565
Li5 O14 1.933707 1_555
Li5 O19 1.940604 1_555
Li5 O17 1.955189 1_555
Li5 O8 2.055744 1_555
Li6 O15 1.949872 1_555
Li6 O20 1.959924 1_555
Li6 O18 1.970322 1_655
Li6 O9 2.051716 1_555
Li7 O23 1.930326 1_555
Li7 O21 1.938418 1_555
Li7 O22 1.953816 1_455
Li7 O7 2.042808 1_565
Mn0 O3 2.080928 1_555
Mn0 O9 2.093197 1_554
Mn0 O5 2.118060 1_555
Mn0 O17 2.200766 1_545
Mn0 O20 2.432061 1_554
Mn1 O4 2.066207 1_455
Mn1 O23 2.094921 1_545
Mn1 O6 2.131422 1_555
Mn1 O18 2.213169 1_545
Mn1 O11 2.405209 1_555
Mn2 O20 2.081040 1_555
Mn2 O14 2.097077 1_556
Mn2 O18 2.123111 1_555
Mn2 O6 2.211568 1_565
Mn2 O3 2.395024 1_556
Fe0 O1 2.020556 1_555
Fe0 O2 2.026653 1_555
Fe0 O7 2.077273 1_555
Fe0 O13 2.176618 1_555
Fe0 O21 2.476309 1_545
Fe1 O8 2.007954 1_555
Fe1 O12 2.026301 1_455
Fe1 O13 2.091200 1_555
Fe1 O1 2.215394 1_555
Fe1 O19 2.433263 1_555
Fe2 O10 2.024257 1_555
Fe2 O15 2.062380 1_555
Fe2 O11 2.066666 1_655
Fe2 O22 2.189686 1_555
Fe2 O4 2.448022 1_555
Fe3 O21 1.982902 1_555
Fe3 O22 2.070811 1_555
Fe3 O16 2.079925 1_555
Fe3 O10 2.197113 1_555
Fe3 O2 2.466461 1_565
Fe4 O0 2.005691 1_565
Fe4 O19 2.041112 1_655
Fe4 O17 2.102429 1_555
Fe4 O5 2.208603 1_565
Fe4 O12 2.391032 1_555
B0 O19 1.387243 1_545
B0 O0 1.387378 1_555
B0 O1 1.406790 1_555
B1 O7 1.384259 1_655
B1 O2 1.394045 1_555
B1 O10 1.408308 1_555
B2 O8 1.390198 1_555
B2 O12 1.396090 1_555
B2 O5 1.397948 1_555
B3 O9 1.383324 1_455
B3 O3 1.398459 1_556
B3 O6 1.404278 1_555
B4 O14 1.382959 1_655
B4 O20 1.393789 1_554
B4 O17 1.407343 1_555
B5 O15 1.389199 1_555
B5 O11 1.394597 1_555
B5 O18 1.407479 1_555
B6 O16 1.378358 1_455
B6 O21 1.396583 1_555
B6 O13 1.406264 1_555
B7 O23 1.381284 1_555
B7 O4 1.390330 1_565
B7 O22 1.413199 1_555
