# generated using pymatgen
data_Li2FeSiO4
_symmetry_space_group_name_H-M   'P 1'
_cell_length_a   5.34299951
_cell_length_b   10.40790080
_cell_length_c   6.31991959
_cell_angle_alpha   90.00158636
_cell_angle_beta   89.99920652
_cell_angle_gamma   78.16216039
_symmetry_Int_Tables_number   1
_chemical_formula_structural   Li2FeSiO4
_chemical_formula_sum   'Li8 Fe4 Si4 O16'
_cell_volume   343.97246014
_cell_formula_units_Z   4
loop_
 _symmetry_equiv_pos_site_id
 _symmetry_equiv_pos_as_xyz
  1  'x, y, z'
loop_
 _atom_site_type_symbol
 _atom_site_label
 _atom_site_symmetry_multiplicity
 _atom_site_fract_x
 _atom_site_fract_y
 _atom_site_fract_z
 _atom_site_occupancy
  Li  Li0  1  0.99985700  0.50005200  0.25012300  1
  Li  Li1  1  0.24988400  0.75004800  0.75008000  1
  Li  Li2  1  0.49990700  0.99999200  0.25006500  1
  Li  Li3  1  0.74976000  0.25002700  0.75011900  1
  Li  Li4  1  0.00001300  0.49993900  0.74998600  1
  Li  Li5  1  0.24967300  0.75006100  0.24992700  1
  Li  Li6  1  0.49995800  0.00001700  0.74990500  1
  Li  Li7  1  0.74981000  0.25007400  0.24997400  1
  Fe  Fe0  1  0.49990600  0.49993700  0.99992900  1
  Fe  Fe1  1  0.74950200  0.74988700  0.50019800  1
  Fe  Fe2  1  0.99997000  0.00000900  0.00009600  1
  Fe  Fe3  1  0.24957100  0.24984400  0.49995200  1
  Si  Si0  1  0.50009000  0.50008000  0.50001700  1
  Si  Si1  1  0.74991500  0.75002500  0.99988500  1
  Si  Si2  1  0.00007000  0.00009600  0.49992600  1
  Si  Si3  1  0.24994900  0.25003600  0.99996700  1
  O  O0  1  0.66747300  0.44428400  0.28672400  1
  O  O1  1  0.91742700  0.69421800  0.78665600  1
  O  O2  1  0.16750600  0.94438700  0.28658900  1
  O  O3  1  0.41739900  0.19430600  0.78664800  1
  O  O4  1  0.66755700  0.44435100  0.71335600  1
  O  O5  1  0.91727500  0.69429500  0.21325400  1
  O  O6  1  0.16751000  0.94429900  0.71326000  1
  O  O7  1  0.41752800  0.19425200  0.21323800  1
  O  O8  1  0.22657900  0.44875000  0.50028700  1
  O  O9  1  0.47636000  0.69863300  0.99988800  1
  O  O10  1  0.72659700  0.94875200  0.49983100  1
  O  O11  1  0.97638800  0.19864000  0.00012600  1
  O  O12  1  0.43906500  0.66269500  0.49999000  1
  O  O13  1  0.68922800  0.91266500  0.99990800  1
  O  O14  1  0.93905200  0.16270300  0.50001500  1
  O  O15  1  0.18922500  0.41265000  0.00008400  1
loop_
_geom_bond_atom_site_label_1
_geom_bond_atom_site_label_2
_geom_bond_distance
_geom_bond_site_symmetry_2
Li0 O0 1.991793 1_555
Li0 O5 1.992521 1_555
Li0 O15 1.992635 1_655
Li0 O8 1.996714 1_655
Li1 O12 1.992297 1_555
Li1 O1 1.992452 1_455
Li1 O6 1.992551 1_555
Li1 O9 1.994376 1_555
Li2 O2 1.991019 1_555
Li2 O7 1.992648 1_565
Li2 O13 1.992847 1_554
Li2 O10 1.994536 1_555
Li3 O3 1.991391 1_555
Li3 O14 1.992506 1_555
Li3 O4 1.993235 1_555
Li3 O11 1.995778 1_556
Li4 O4 1.991294 1_455
Li4 O15 1.992233 1_556
Li4 O1 1.992724 1_455
Li4 O8 1.993709 1_555
Li5 O5 1.991909 1_455
Li5 O12 1.992738 1_555
Li5 O2 1.993164 1_555
Li5 O9 1.996123 1_554
Li6 O6 1.991906 1_545
Li6 O13 1.992116 1_545
Li6 O3 1.992876 1_555
Li6 O10 1.995914 1_545
Li7 O7 1.991642 1_555
Li7 O0 1.992069 1_555
Li7 O14 1.992314 1_555
Li7 O11 1.994855 1_555
Fe0 O9 2.045909 1_555
Fe0 O15 2.049280 1_556
Fe0 O4 2.050491 1_555
Fe0 O0 2.051745 1_556
Fe1 O12 2.047503 1_555
Fe1 O10 2.048168 1_555
Fe1 O1 2.050621 1_555
Fe1 O5 2.052821 1_555
Fe2 O11 2.045205 1_555
Fe2 O2 2.049934 1_645
Fe2 O13 2.049935 1_544
Fe2 O6 2.051983 1_644
Fe3 O14 2.047574 1_455
Fe3 O8 2.048525 1_555
Fe3 O3 2.051490 1_555
Fe3 O7 2.051910 1_555
O0 Si0 1.655592 1_555
O1 Si1 1.655613 1_555
O2 Si2 1.655734 1_565
O3 Si3 1.655729 1_555
O4 Si0 1.655918 1_555
O5 Si1 1.655808 1_554
O6 Si2 1.655995 1_565
O7 Si3 1.655986 1_554
O8 Si0 1.655696 1_555
O9 Si1 1.656243 1_555
O10 Si2 1.655576 1_665
O11 Si3 1.656295 1_654
O12 Si0 1.656620 1_555
O13 Si1 1.656900 1_555
O14 Si2 1.656539 1_655
O15 Si3 1.656631 1_554
