# generated using pymatgen
data_Li4MnV3(P2O7)4
_symmetry_space_group_name_H-M   'P 1'
_cell_length_a   9.59318342
_cell_length_b   9.63854490
_cell_length_c   7.16138384
_cell_angle_alpha   79.76081101
_cell_angle_beta   79.12051510
_cell_angle_gamma   119.11758348
_symmetry_Int_Tables_number   1
_chemical_formula_structural   Li4MnV3(P2O7)4
_chemical_formula_sum   'Li4 Mn1 V3 P8 O28'
_cell_volume   539.31226930
_cell_formula_units_Z   1
loop_
 _symmetry_equiv_pos_site_id
 _symmetry_equiv_pos_as_xyz
  1  'x, y, z'
loop_
 _atom_site_type_symbol
 _atom_site_label
 _atom_site_symmetry_multiplicity
 _atom_site_fract_x
 _atom_site_fract_y
 _atom_site_fract_z
 _atom_site_occupancy
  Li  Li0  1  0.06933600  0.43012500  0.32467100  1
  Li  Li1  1  0.31829200  0.18075900  0.67451400  1
  Li  Li2  1  0.56761100  0.92886600  0.32486100  1
  Li  Li3  1  0.82042000  0.68221900  0.67475300  1
  Mn  Mn0  1  0.25888000  0.25774000  0.26796100  1
  V  V0  1  0.75665300  0.75648000  0.27158500  1
  V  V1  1  0.49423800  0.99432500  0.72757500  1
  V  V2  1  0.99345800  0.49237700  0.72797400  1
  P  P0  1  0.34925900  0.52828300  0.52285100  1
  P  P1  1  0.85043000  0.02939000  0.52148800  1
  P  P2  1  0.67052300  0.45512700  0.08684000  1
  P  P3  1  0.17228700  0.95532600  0.08773100  1
  P  P4  1  0.29430200  0.58146000  0.91367400  1
  P  P5  1  0.79483700  0.07866900  0.91392000  1
  P  P6  1  0.21961100  0.89997100  0.48184200  1
  P  P7  1  0.72047700  0.40135000  0.47798400  1
  O  O0  1  0.19013800  0.12391700  0.08433300  1
  O  O1  1  0.01692400  0.19336400  0.39188200  1
  O  O2  1  0.20312700  0.04525100  0.50505300  1
  O  O3  1  0.27797200  0.48218000  0.11468600  1
  O  O4  1  0.48669400  0.31090100  0.14489100  1
  O  O5  1  0.33554000  0.37162100  0.48131600  1
  O  O6  1  0.19939300  0.54159900  0.50645400  1
  O  O7  1  0.70022800  0.04274900  0.50594000  1
  O  O8  1  0.55697300  0.23505600  0.60504400  1
  O  O9  1  0.05632200  0.73114300  0.60461900  1
  O  O10  1  0.62561100  0.05934800  0.91653400  1
  O  O11  1  0.12502000  0.56128700  0.91360800  1
  O  O12  1  0.34525500  0.49898900  0.75330400  1
  O  O13  1  0.75174800  0.40544700  0.24669500  1
  O  O14  1  0.25198900  0.90649500  0.24884500  1
  O  O15  1  0.68843400  0.62230700  0.08528100  1
  O  O16  1  0.51579500  0.69253400  0.39540700  1
  O  O17  1  0.70737500  0.55110300  0.49403200  1
  O  O18  1  0.87845600  0.41682900  0.51727700  1
  O  O19  1  0.37916400  0.91569600  0.51755500  1
  O  O20  1  0.93704100  0.26122700  0.85107300  1
  O  O21  1  0.43814200  0.76441800  0.84670600  1
  O  O22  1  0.27543300  0.97018100  0.88713200  1
  O  O23  1  0.77513100  0.47198800  0.88587900  1
  O  O24  1  0.77825600  0.97486100  0.11374200  1
  O  O25  1  0.98856900  0.81312100  0.14858700  1
  O  O26  1  0.83349400  0.87152400  0.48167300  1
  O  O27  1  0.84558600  0.99797300  0.75222500  1
loop_
_geom_bond_atom_site_label_1
_geom_bond_atom_site_label_2
_geom_bond_distance
_geom_bond_site_symmetry_2
Li0 O18 2.006838 1_455
Li0 O1 2.023273 1_555
Li0 O3 2.034043 1_555
Li0 O6 2.052217 1_555
Li1 O5 2.009564 1_555
Li1 O2 2.016074 1_555
Li1 O8 2.018762 1_555
Li1 O22 2.111835 1_545
Li2 O19 1.990284 1_555
Li2 O16 2.021199 1_555
Li2 O7 2.067561 1_565
Li2 O24 2.074226 1_555
Li3 O9 2.011019 1_655
Li3 O26 2.017864 1_555
Li3 O17 2.055639 1_555
Li3 O23 2.094469 1_555
Mn0 O4 1.959108 1_555
Mn0 O0 1.982547 1_555
Mn0 O1 2.045779 1_555
Mn0 O5 2.077258 1_555
Mn0 O3 2.147671 1_555
Mn0 O2 2.172197 1_555
O0 P3 1.544022 1_545
O1 P1 1.540327 1_455
O2 P6 1.517159 1_545
O3 P4 1.513841 1_554
O4 P2 1.532062 1_555
O5 P0 1.538483 1_555
O6 P0 1.528126 1_555
O6 V2 2.069255 1_455
O7 P1 1.530112 1_555
O7 V1 2.072944 1_545
O8 P7 1.534051 1_555
O8 V1 2.057611 1_545
O9 P6 1.538028 1_555
O9 V2 2.041020 1_455
O10 P5 1.537393 1_555
O10 V1 1.997216 1_545
O11 P4 1.538848 1_555
O11 V2 1.983127 1_455
O12 P0 1.613922 1_555
O12 P4 1.637243 1_555
O13 P7 1.616383 1_555
O13 P2 1.628480 1_555
O14 P3 1.620974 1_555
O14 P6 1.622542 1_555
O15 P2 1.532839 1_555
O15 V0 2.000042 1_555
O16 P0 1.538212 1_555
O16 V0 2.037482 1_555
O17 P7 1.530521 1_555
O17 V0 2.088942 1_555
O18 P7 1.534309 1_555
O18 V2 2.064284 1_555
O19 P6 1.538494 1_555
O19 V1 2.067104 1_555
O20 P5 1.519975 1_555
O20 V2 1.995485 1_555
O21 P4 1.524860 1_555
O21 V1 1.980402 1_555
O22 P3 1.521753 1_556
O22 V1 2.071339 1_555
O23 P2 1.522367 1_556
O23 V2 2.080975 1_555
O24 P5 1.524580 1_564
O24 V0 2.095795 1_555
O25 P3 1.523657 1_655
O25 V0 1.982656 1_555
O26 P1 1.534307 1_565
O26 V0 2.062233 1_555
O27 P1 1.613598 1_565
O27 P5 1.630569 1_565
