# generated using pymatgen
data_Li2YPCO7
_symmetry_space_group_name_H-M   'P 1'
_cell_length_a   6.80625400
_cell_length_b   4.91531400
_cell_length_c   9.08641972
_cell_angle_alpha   86.90790490
_cell_angle_beta   90.00000000
_cell_angle_gamma   90.00000000
_symmetry_Int_Tables_number   1
_chemical_formula_structural   Li2YPCO7
_chemical_formula_sum   'Li4 Y2 P2 C2 O14'
_cell_volume   303.54247596
_cell_formula_units_Z   2
loop_
 _symmetry_equiv_pos_site_id
 _symmetry_equiv_pos_as_xyz
  1  'x, y, z'
loop_
 _atom_site_type_symbol
 _atom_site_label
 _atom_site_symmetry_multiplicity
 _atom_site_fract_x
 _atom_site_fract_y
 _atom_site_fract_z
 _atom_site_occupancy
  Li  Li0  1  0.52082200  0.79883100  0.79756200  1
  Li  Li1  1  0.97917800  0.79883100  0.79756200  1
  Li  Li2  1  0.47917800  0.20116900  0.20243800  1
  Li  Li3  1  0.02082200  0.20116900  0.20243800  1
  Y  Y0  1  0.25000000  0.25472400  0.63731800  1
  Y  Y1  1  0.75000000  0.74527600  0.36268200  1
  P  P0  1  0.75000000  0.27632600  0.59250700  1
  P  P1  1  0.25000000  0.72367400  0.40749300  1
  C  C0  1  0.25000000  0.26005300  0.94014600  1
  C  C1  1  0.75000000  0.73994700  0.05985400  1
  O  O0  1  0.75000000  0.72384200  0.92016000  1
  O  O1  1  0.25000000  0.02606000  0.87681900  1
  O  O2  1  0.25000000  0.47891400  0.84999500  1
  O  O3  1  0.93421900  0.13881300  0.66212800  1
  O  O4  1  0.56578100  0.13881300  0.66212800  1
  O  O5  1  0.25000000  0.75494800  0.57962100  1
  O  O6  1  0.75000000  0.58888300  0.60912800  1
  O  O7  1  0.25000000  0.41111700  0.39087200  1
  O  O8  1  0.75000000  0.24505200  0.42037900  1
  O  O9  1  0.43421900  0.86118700  0.33787200  1
  O  O10  1  0.06578100  0.86118700  0.33787200  1
  O  O11  1  0.75000000  0.52108600  0.15000500  1
  O  O12  1  0.75000000  0.97394000  0.12318100  1
  O  O13  1  0.25000000  0.27615800  0.07984000  1
loop_
_geom_bond_atom_site_label_1
_geom_bond_atom_site_label_2
_geom_bond_distance
_geom_bond_site_symmetry_2
Li0 O0 1.940521 1_555
Li0 O4 2.044215 1_565
Li0 O1 2.291413 1_565
Li0 O2 2.452873 1_555
Li0 O6 2.572988 1_555
Li1 O0 1.940521 1_555
Li1 O3 2.044215 1_565
Li1 O1 2.291413 1_665
Li1 O2 2.452873 1_655
Li1 O6 2.572988 1_555
Li2 O13 1.940521 1_555
Li2 O9 2.044215 1_545
Li2 O12 2.291413 1_545
Li2 O11 2.452873 1_555
Li2 O7 2.572988 1_555
Li3 O13 1.940521 1_555
Li3 O10 2.044215 1_545
Li3 O12 2.291413 1_445
Li3 O11 2.452873 1_455
Li3 O7 2.572988 1_555
C0 O13 1.276039 1_556
C0 O1 1.313523 1_555
C0 O2 1.316519 1_555
C1 O0 1.276039 1_554
C1 O12 1.313523 1_555
C1 O11 1.316519 1_555
O1 Y0 2.394844 1_555
O2 Y0 2.275634 1_555
O3 P0 1.543712 1_555
O3 Y0 2.231814 1_655
O4 P0 1.543712 1_555
O4 Y0 2.231814 1_555
O5 P1 1.579794 1_555
O5 Y0 2.486217 1_555
O5 Y0 2.539380 1_565
O6 P0 1.551807 1_555
O6 Y1 2.328034 1_555
O7 P1 1.551807 1_555
O7 Y0 2.328034 1_555
O8 P0 1.579794 1_555
O8 Y1 2.486217 1_555
O8 Y1 2.539380 1_545
O9 P1 1.543712 1_555
O9 Y1 2.231814 1_555
O10 P1 1.543712 1_555
O10 Y1 2.231814 1_455
O11 Y1 2.275634 1_555
O12 Y1 2.394844 1_555
