# generated using pymatgen
data_Co3OF5
_symmetry_space_group_name_H-M   'P 1'
_cell_length_a   5.68296342
_cell_length_b   5.68296342
_cell_length_c   7.37626793
_cell_angle_alpha   73.07463906
_cell_angle_beta   73.07463906
_cell_angle_gamma   74.11225015
_symmetry_Int_Tables_number   1
_chemical_formula_structural   Co3OF5
_chemical_formula_sum   'Co6 O2 F10'
_cell_volume   213.33454037
_cell_formula_units_Z   2
loop_
 _symmetry_equiv_pos_site_id
 _symmetry_equiv_pos_as_xyz
  1  'x, y, z'
loop_
 _atom_site_type_symbol
 _atom_site_label
 _atom_site_symmetry_multiplicity
 _atom_site_fract_x
 _atom_site_fract_y
 _atom_site_fract_z
 _atom_site_occupancy
  Co  Co0  1  0.33658200  0.33658200  0.16728200  1
  Co  Co1  1  0.30931100  0.30931100  0.65950200  1
  Co  Co2  1  0.00000000  0.00000000  0.00000000  1
  Co  Co3  1  0.00000000  0.00000000  0.50000000  1
  Co  Co4  1  0.66341800  0.66341800  0.83271800  1
  Co  Co5  1  0.69068900  0.69068900  0.34049800  1
  O  O0  1  0.89845600  0.89845600  0.30395600  1
  O  O1  1  0.10154400  0.10154400  0.69604400  1
  F  F0  1  0.63143800  0.02690700  0.66427500  1
  F  F1  1  0.30229800  0.69770200  0.00000000  1
  F  F2  1  0.23881200  0.23881200  0.95838300  1
  F  F3  1  0.55468300  0.55468300  0.63167800  1
  F  F4  1  0.44531700  0.44531700  0.36832200  1
  F  F5  1  0.76118800  0.76118800  0.04161700  1
  F  F6  1  0.02690700  0.63143800  0.66427500  1
  F  F7  1  0.69770200  0.30229800  0.00000000  1
  F  F8  1  0.36856200  0.97309300  0.33572500  1
  F  F9  1  0.97309300  0.36856200  0.33572500  1
loop_
_geom_bond_atom_site_label_1
_geom_bond_atom_site_label_2
_geom_bond_distance
_geom_bond_site_symmetry_2
Co0 F2 2.039072 1_554
Co0 F1 2.053972 1_555
Co0 F7 2.053972 1_555
Co0 F4 2.058864 1_555
Co0 F8 2.067708 1_545
Co0 F9 2.067708 1_455
Co1 O1 1.803772 1_555
Co1 F4 2.049840 1_555
Co1 F2 2.059301 1_555
Co1 F6 2.079474 1_555
Co1 F0 2.079474 1_555
Co1 F3 2.159256 1_555
Co2 F7 2.070461 1_455
Co2 F1 2.070461 1_545
Co2 F5 2.073956 1_445
Co2 F2 2.073956 1_554
Co2 O1 2.090100 1_554
Co2 O0 2.090100 1_445
Co3 O1 1.977685 1_555
Co3 O0 1.977685 1_445
Co3 F9 2.081703 1_455
Co3 F8 2.081703 1_545
Co3 F6 2.081703 1_545
Co3 F0 2.081703 1_455
Co4 F5 2.039072 1_556
Co4 F7 2.053972 1_556
Co4 F1 2.053972 1_556
Co4 F3 2.058864 1_555
Co4 F6 2.067708 1_655
Co4 F0 2.067708 1_565
Co5 O0 1.803772 1_555
Co5 F3 2.049840 1_555
Co5 F5 2.059301 1_555
Co5 F9 2.079474 1_555
Co5 F8 2.079474 1_555
Co5 F4 2.159256 1_555
