# generated using pymatgen
data_Fe3(O2F)2
_symmetry_space_group_name_H-M   'P 1'
_cell_length_a   5.64878322
_cell_length_b   5.64878322
_cell_length_c   7.67983418
_cell_angle_alpha   68.60204258
_cell_angle_beta   68.60204258
_cell_angle_gamma   69.19188668
_symmetry_Int_Tables_number   1
_chemical_formula_structural   Fe3(O2F)2
_chemical_formula_sum   'Fe6 O8 F4'
_cell_volume   205.34228228
_cell_formula_units_Z   2
loop_
 _symmetry_equiv_pos_site_id
 _symmetry_equiv_pos_as_xyz
  1  'x, y, z'
loop_
 _atom_site_type_symbol
 _atom_site_label
 _atom_site_symmetry_multiplicity
 _atom_site_fract_x
 _atom_site_fract_y
 _atom_site_fract_z
 _atom_site_occupancy
  Fe  Fe0  1  0.67596000  0.67596000  0.85393400  1
  Fe  Fe1  1  0.33979400  0.33979400  0.65502900  1
  Fe  Fe2  1  0.65731500  0.65731500  0.32161700  1
  Fe  Fe3  1  0.34292000  0.34292000  0.18574000  1
  Fe  Fe4  1  0.99714700  0.99714700  0.49505600  1
  Fe  Fe5  1  0.99105400  0.99105400  0.99699400  1
  O  O0  1  0.64348400  0.02896900  0.66765100  1
  O  O1  1  0.97025300  0.35397300  0.33417600  1
  O  O2  1  0.77169700  0.77169700  0.04125100  1
  O  O3  1  0.43333400  0.43333400  0.37662800  1
  O  O4  1  0.35397300  0.97025300  0.33417600  1
  O  O5  1  0.02896900  0.64348400  0.66765100  1
  O  O6  1  0.69713900  0.30668600  0.99972600  1
  O  O7  1  0.30668600  0.69713900  0.99972600  1
  F  F0  1  0.89265600  0.89265600  0.29877700  1
  F  F1  1  0.22582300  0.22582300  0.94917900  1
  F  F2  1  0.56835600  0.56835600  0.62269700  1
  F  F3  1  0.10344200  0.10344200  0.69999100  1
loop_
_geom_bond_atom_site_label_1
_geom_bond_atom_site_label_2
_geom_bond_distance
_geom_bond_site_symmetry_2
Fe0 O6 1.958405 1_555
Fe0 O7 1.958405 1_555
Fe0 O5 1.976520 1_655
Fe0 O0 1.976520 1_565
Fe0 O2 1.999382 1_556
Fe1 O3 1.918178 1_555
Fe1 O0 1.972871 1_555
Fe1 O5 1.972871 1_555
Fe2 O3 1.933210 1_555
Fe2 O2 1.933230 1_555
Fe2 O1 1.980411 1_555
Fe2 O4 1.980411 1_555
Fe3 O6 1.980640 1_554
Fe3 O7 1.980640 1_554
Fe3 O4 1.985550 1_545
Fe3 O1 1.985550 1_455
Fe3 O3 1.987159 1_555
Fe4 O1 1.927330 1_565
Fe4 O4 1.927330 1_655
Fe4 O0 1.940828 1_565
Fe4 O5 1.940828 1_655
Fe5 O2 1.913763 1_556
Fe5 O7 1.958197 1_655
Fe5 O6 1.958197 1_565
F0 Fe5 2.080595 1_554
F0 Fe2 2.116751 1_555
F0 Fe4 2.124850 1_555
F1 Fe1 2.025874 1_555
F1 Fe5 2.047211 1_445
F1 Fe3 2.498040 1_556
F2 Fe1 2.027803 1_555
F2 Fe2 2.082121 1_555
F2 Fe0 2.393822 1_555
F3 Fe5 2.044952 1_445
F3 Fe1 2.068299 1_555
F3 Fe4 2.198493 1_445
