# generated using pymatgen
data_Li5InO4
_symmetry_space_group_name_H-M   'P 1'
_cell_length_a   4.81504300
_cell_length_b   6.63432000
_cell_length_c   6.95739200
_cell_angle_alpha   90.00000000
_cell_angle_beta   90.00000000
_cell_angle_gamma   90.00000000
_symmetry_Int_Tables_number   1
_chemical_formula_structural   Li5InO4
_chemical_formula_sum   'Li10 In2 O8'
_cell_volume   222.25065974
_cell_formula_units_Z   2
loop_
 _symmetry_equiv_pos_site_id
 _symmetry_equiv_pos_as_xyz
  1  'x, y, z'
loop_
 _atom_site_type_symbol
 _atom_site_label
 _atom_site_symmetry_multiplicity
 _atom_site_fract_x
 _atom_site_fract_y
 _atom_site_fract_z
 _atom_site_occupancy
  Li  Li0  1  0.24925700  0.76204100  0.80631600  1
  Li  Li1  1  0.24925700  0.23795900  0.80631600  1
  Li  Li2  1  0.76576300  0.50000000  0.00000000  1
  Li  Li3  1  0.24925700  0.76204100  0.19368400  1
  Li  Li4  1  0.24925700  0.23795900  0.19368400  1
  Li  Li5  1  0.75074300  0.73795900  0.30631600  1
  Li  Li6  1  0.75074300  0.26204100  0.30631600  1
  Li  Li7  1  0.23423700  0.00000000  0.50000000  1
  Li  Li8  1  0.75074300  0.26204100  0.69368400  1
  Li  Li9  1  0.75074300  0.73795900  0.69368400  1
  In  In0  1  0.77167200  0.00000000  0.00000000  1
  In  In1  1  0.22832800  0.50000000  0.50000000  1
  O  O0  1  0.00860700  0.00000000  0.74799500  1
  O  O1  1  0.53559600  0.74174100  0.00000000  1
  O  O2  1  0.53559600  0.25825900  0.00000000  1
  O  O3  1  0.00860700  0.00000000  0.25200500  1
  O  O4  1  0.99139300  0.50000000  0.24799400  1
  O  O5  1  0.46440400  0.75825900  0.50000000  1
  O  O6  1  0.46440400  0.24174100  0.50000000  1
  O  O7  1  0.99139300  0.50000000  0.75200500  1
loop_
_geom_bond_atom_site_label_1
_geom_bond_atom_site_label_2
_geom_bond_distance
_geom_bond_site_symmetry_2
Li0 O1 1.932589 1_556
Li0 O0 1.999901 1_565
Li0 O7 2.169487 1_455
Li0 O5 2.369736 1_555
Li1 O2 1.932589 1_556
Li1 O0 1.999901 1_555
Li1 O7 2.169487 1_455
Li1 O6 2.369736 1_555
Li2 O1 1.949457 1_555
Li2 O2 1.949457 1_555
Li2 O4 2.038941 1_555
Li2 O7 2.038947 1_554
Li3 O1 1.932589 1_555
Li3 O3 1.999901 1_565
Li3 O4 2.169486 1_455
Li3 O5 2.369736 1_555
Li4 O2 1.932589 1_555
Li4 O3 1.999901 1_555
Li4 O4 2.169486 1_455
Li4 O6 2.369736 1_555
Li5 O5 1.932589 1_555
Li5 O4 1.999902 1_555
Li5 O3 2.169487 1_665
Li5 O1 2.369736 1_555
Li6 O6 1.932589 1_555
Li6 O4 1.999902 1_555
Li6 O3 2.169487 1_655
Li6 O2 2.369736 1_555
Li7 O6 1.949457 1_555
Li7 O5 1.949457 1_545
Li7 O3 2.038947 1_555
Li7 O0 2.038947 1_555
Li8 O6 1.932589 1_555
Li8 O7 1.999901 1_555
Li8 O0 2.169487 1_655
Li8 O2 2.369736 1_556
Li9 O5 1.932589 1_555
Li9 O7 1.999901 1_555
Li9 O0 2.169487 1_665
Li9 O1 2.369736 1_556
In0 O2 2.056154 1_555
In0 O1 2.056154 1_545
In0 O0 2.091793 1_654
In0 O3 2.091793 1_655
In1 O6 2.056154 1_555
In1 O5 2.056154 1_555
In1 O7 2.091793 1_455
In1 O4 2.091798 1_455
