# generated using pymatgen
data_Li2AlCoO4
_symmetry_space_group_name_H-M   'P 1'
_cell_length_a   5.18502300
_cell_length_b   6.19974300
_cell_length_c   11.03989400
_cell_angle_alpha   90.00000000
_cell_angle_beta   90.00000000
_cell_angle_gamma   90.00000000
_symmetry_Int_Tables_number   1
_chemical_formula_structural   Li2AlCoO4
_chemical_formula_sum   'Li8 Al4 Co4 O16'
_cell_volume   354.88633549
_cell_formula_units_Z   4
loop_
 _symmetry_equiv_pos_site_id
 _symmetry_equiv_pos_as_xyz
  1  'x, y, z'
loop_
 _atom_site_type_symbol
 _atom_site_label
 _atom_site_symmetry_multiplicity
 _atom_site_fract_x
 _atom_site_fract_y
 _atom_site_fract_z
 _atom_site_occupancy
  Li  Li0  1  0.19498900  0.98982200  0.16909900  1
  Li  Li1  1  0.30501100  0.98982200  0.66909900  1
  Li  Li2  1  0.19498900  0.51017800  0.16909900  1
  Li  Li3  1  0.30501100  0.51017800  0.66909900  1
  Li  Li4  1  0.69498900  0.48982200  0.33090100  1
  Li  Li5  1  0.80501100  0.48982200  0.83090100  1
  Li  Li6  1  0.80501100  0.01017800  0.83090100  1
  Li  Li7  1  0.69498900  0.01017800  0.33090100  1
  Al  Al0  1  0.18215200  0.25000000  0.42102800  1
  Al  Al1  1  0.31784800  0.25000000  0.92102800  1
  Al  Al2  1  0.68215200  0.75000000  0.07897200  1
  Al  Al3  1  0.81784800  0.75000000  0.57897200  1
  Co  Co0  1  0.82080200  0.25000000  0.08136000  1
  Co  Co1  1  0.67919800  0.25000000  0.58136000  1
  Co  Co2  1  0.32080200  0.75000000  0.41864000  1
  Co  Co3  1  0.17919800  0.75000000  0.91864000  1
  O  O0  1  0.28392500  0.01457100  0.34111200  1
  O  O1  1  0.21607500  0.01457100  0.84111200  1
  O  O2  1  0.83909000  0.25000000  0.42820600  1
  O  O3  1  0.18639800  0.25000000  0.06876300  1
  O  O4  1  0.31360200  0.25000000  0.56876300  1
  O  O5  1  0.66091000  0.25000000  0.92820600  1
  O  O6  1  0.28392500  0.48542900  0.34111200  1
  O  O7  1  0.21607500  0.48542900  0.84111200  1
  O  O8  1  0.71607500  0.51457100  0.65888800  1
  O  O9  1  0.78392500  0.51457100  0.15888800  1
  O  O10  1  0.68639800  0.75000000  0.43123700  1
  O  O11  1  0.33909000  0.75000000  0.07179400  1
  O  O12  1  0.81360200  0.75000000  0.93123700  1
  O  O13  1  0.16091000  0.75000000  0.57179400  1
  O  O14  1  0.78392500  0.98542900  0.15888800  1
  O  O15  1  0.71607500  0.98542900  0.65888800  1
loop_
_geom_bond_atom_site_label_1
_geom_bond_atom_site_label_2
_geom_bond_distance
_geom_bond_site_symmetry_2
Li0 O3 1.957260 1_565
Li0 O0 1.960207 1_565
Li0 O11 1.980637 1_555
Li0 O14 2.134529 1_455
Li1 O4 1.957260 1_565
Li1 O1 1.960207 1_565
Li1 O13 1.980637 1_555
Li1 O15 2.134529 1_555
Li2 O3 1.957260 1_555
Li2 O6 1.960207 1_555
Li2 O11 1.980637 1_555
Li2 O9 2.134529 1_455
Li3 O4 1.957260 1_555
Li3 O7 1.960207 1_555
Li3 O13 1.980637 1_555
Li3 O8 2.134529 1_555
Li4 O10 1.957260 1_555
Li4 O9 1.960207 1_555
Li4 O2 1.980637 1_555
Li4 O6 2.134529 1_555
Li5 O12 1.957260 1_555
Li5 O8 1.960207 1_555
Li5 O5 1.980637 1_555
Li5 O7 2.134529 1_655
Li6 O12 1.957260 1_545
Li6 O15 1.960207 1_545
Li6 O5 1.980637 1_555
Li6 O1 2.134529 1_655
Li7 O10 1.957260 1_545
Li7 O14 1.960207 1_545
Li7 O2 1.980637 1_555
Li7 O0 2.134529 1_555
Al0 O4 1.767663 1_555
Al0 O2 1.780549 1_455
Al0 O6 1.785296 1_555
Al0 O0 1.785296 1_555
Al1 O3 1.767663 1_556
Al1 O5 1.780549 1_555
Al1 O7 1.785296 1_555
Al1 O1 1.785296 1_555
Al2 O12 1.767663 1_554
Al2 O11 1.780549 1_555
Al2 O9 1.785296 1_555
Al2 O14 1.785296 1_555
Al3 O10 1.767663 1_555
Al3 O13 1.780549 1_655
Al3 O15 1.785296 1_555
Al3 O8 1.785296 1_555
Co0 O14 1.860005 1_545
Co0 O9 1.860005 1_555
Co0 O5 1.883117 1_554
Co0 O3 1.900718 1_655
Co1 O8 1.860005 1_555
Co1 O15 1.860005 1_545
Co1 O2 1.883117 1_555
Co1 O4 1.900718 1_555
Co2 O6 1.860005 1_555
Co2 O0 1.860005 1_565
Co2 O13 1.883117 1_555
Co2 O10 1.900718 1_555
Co3 O7 1.860005 1_555
Co3 O1 1.860005 1_565
Co3 O11 1.883117 1_556
Co3 O12 1.900718 1_455
