# generated using pymatgen
data_Li4Mn3Cr3(SnO8)2
_symmetry_space_group_name_H-M   'P 1'
_cell_length_a   5.94013381
_cell_length_b   5.94013381
_cell_length_c   9.71241053
_cell_angle_alpha   89.41522380
_cell_angle_beta   89.41522380
_cell_angle_gamma   60.59109428
_symmetry_Int_Tables_number   1
_chemical_formula_structural   Li4Mn3Cr3(SnO8)2
_chemical_formula_sum   'Li4 Mn3 Cr3 Sn2 O16'
_cell_volume   298.52166380
_cell_formula_units_Z   1
loop_
 _symmetry_equiv_pos_site_id
 _symmetry_equiv_pos_as_xyz
  1  'x, y, z'
loop_
 _atom_site_type_symbol
 _atom_site_label
 _atom_site_symmetry_multiplicity
 _atom_site_fract_x
 _atom_site_fract_y
 _atom_site_fract_z
 _atom_site_occupancy
  Li  Li0  1  0.67035500  0.67035500  0.89261300  1
  Li  Li1  1  0.99945100  0.99945100  0.99417600  1
  Li  Li2  1  0.99684000  0.99684000  0.49456300  1
  Li  Li3  1  0.33559200  0.33559200  0.38989800  1
  Mn  Mn0  1  0.83051800  0.83051800  0.21517900  1
  Mn  Mn1  1  0.65983600  0.17089600  0.71516900  1
  Mn  Mn2  1  0.17089600  0.65983600  0.71516900  1
  Cr  Cr0  1  0.83082800  0.33818600  0.21482000  1
  Cr  Cr1  1  0.33818600  0.83082800  0.21482000  1
  Cr  Cr2  1  0.16865500  0.16865500  0.71510300  1
  Sn  Sn0  1  0.66405000  0.66405000  0.49087000  1
  Sn  Sn1  1  0.33304100  0.33304100  0.99314900  1
  O  O0  1  0.83737400  0.31635400  0.60093400  1
  O  O1  1  0.51742600  0.51742600  0.33853900  1
  O  O2  1  0.67259700  0.67259700  0.11002800  1
  O  O3  1  0.99504500  0.99504500  0.30921000  1
  O  O4  1  0.99402300  0.99402300  0.80756600  1
  O  O5  1  0.31635400  0.83737400  0.60093400  1
  O  O6  1  0.96677500  0.52228000  0.33452400  1
  O  O7  1  0.52228000  0.96677500  0.33452400  1
  O  O8  1  0.15904100  0.15904100  0.09768200  1
  O  O9  1  0.83536600  0.83536600  0.60161000  1
  O  O10  1  0.48476200  0.03639600  0.83499900  1
  O  O11  1  0.03639600  0.48476200  0.83499900  1
  O  O12  1  0.33807500  0.33807500  0.61011500  1
  O  O13  1  0.68112800  0.15369400  0.10173600  1
  O  O14  1  0.48579300  0.48579300  0.84332100  1
  O  O15  1  0.15369400  0.68112800  0.10173600  1
loop_
_geom_bond_atom_site_label_1
_geom_bond_atom_site_label_2
_geom_bond_distance
_geom_bond_site_symmetry_2
Li0 O14 1.958278 1_555
Li0 O10 1.972273 1_565
Li0 O11 1.972273 1_655
Li0 O2 2.112021 1_556
Li1 O4 1.813946 1_555
Li1 O8 1.931177 1_666
Li1 O15 1.945256 1_656
Li1 O13 1.945256 1_566
Li2 O3 1.800536 1_555
Li2 O9 1.945201 1_555
Li2 O5 1.954810 1_655
Li2 O0 1.954810 1_565
Li3 O1 1.925067 1_555
Li3 O6 1.986107 1_455
Li3 O7 1.986107 1_545
Li3 O12 2.139291 1_555
Mn0 O2 1.925167 1_555
Mn0 O3 1.928418 1_555
Mn0 O7 1.967632 1_555
Mn0 O6 1.967632 1_555
Mn0 O15 1.997623 1_655
Mn0 O13 1.997623 1_565
Mn1 O4 1.954151 1_545
Mn1 O12 1.958423 1_555
Mn1 O10 1.961290 1_555
Mn1 O0 1.985236 1_555
Mn1 O14 2.058879 1_555
Mn1 O9 2.063139 1_545
Mn2 O4 1.954151 1_455
Mn2 O12 1.958423 1_555
Mn2 O11 1.961290 1_555
Mn2 O5 1.985236 1_555
Mn2 O14 2.058879 1_555
Mn2 O9 2.063139 1_455
Cr0 O3 1.993515 1_545
Cr0 O2 2.002478 1_555
Cr0 O1 2.019176 1_555
Cr0 O6 2.027809 1_555
Cr0 O8 2.041992 1_655
Cr0 O13 2.049298 1_555
Cr1 O3 1.993515 1_455
Cr1 O2 2.002478 1_555
Cr1 O1 2.019176 1_555
Cr1 O7 2.027809 1_555
Cr1 O8 2.041992 1_565
Cr1 O15 2.049298 1_555
Cr2 O4 1.994333 1_445
Cr2 O12 2.004521 1_555
Cr2 O10 2.018973 1_555
Cr2 O11 2.018973 1_555
Cr2 O5 2.049605 1_545
Cr2 O0 2.049605 1_455
O0 Sn0 2.087471 1_555
O1 Sn0 2.122188 1_555
O5 Sn0 2.087471 1_555
O6 Sn0 2.175270 1_555
O7 Sn0 2.175270 1_555
O8 Sn1 2.042955 1_554
O9 Sn0 2.071161 1_555
O10 Sn1 2.178070 1_555
O11 Sn1 2.178070 1_555
O13 Sn1 2.093037 1_554
O14 Sn1 2.125763 1_555
O15 Sn1 2.093037 1_554
