# generated using pymatgen
data_Li3V(FeO3)2
_symmetry_space_group_name_H-M   'P 1'
_cell_length_a   6.65980952
_cell_length_b   6.65980952
_cell_length_c   6.02210589
_cell_angle_alpha   76.54044851
_cell_angle_beta   76.54044851
_cell_angle_gamma   26.04967428
_symmetry_Int_Tables_number   1
_chemical_formula_structural   Li3V(FeO3)2
_chemical_formula_sum   'Li3 V1 Fe2 O6'
_cell_volume   113.89994417
_cell_formula_units_Z   1
loop_
 _symmetry_equiv_pos_site_id
 _symmetry_equiv_pos_as_xyz
  1  'x, y, z'
loop_
 _atom_site_type_symbol
 _atom_site_label
 _atom_site_symmetry_multiplicity
 _atom_site_fract_x
 _atom_site_fract_y
 _atom_site_fract_z
 _atom_site_occupancy
  Li  Li0  1  0.00000000  0.00000000  0.00000000  1
  Li  Li1  1  0.66508300  0.66508300  0.67151300  1
  Li  Li2  1  0.33491700  0.33491700  0.32848700  1
  V  V0  1  0.00000000  0.00000000  0.50000000  1
  Fe  Fe0  1  0.66902600  0.66902600  0.15497200  1
  Fe  Fe1  1  0.33097400  0.33097400  0.84502800  1
  O  O0  1  0.15238900  0.15238900  0.41563500  1
  O  O1  1  0.83262600  0.83262600  0.07649100  1
  O  O2  1  0.84761100  0.84761100  0.58436500  1
  O  O3  1  0.49960300  0.49960300  0.72453100  1
  O  O4  1  0.50039700  0.50039700  0.27546900  1
  O  O5  1  0.16737400  0.16737400  0.92350900  1
loop_
_geom_bond_atom_site_label_1
_geom_bond_atom_site_label_2
_geom_bond_distance
_geom_bond_site_symmetry_2
Li0 O5 2.109912 1_554
Li0 O1 2.109912 1_445
Li0 O4 2.238058 1_545
Li0 O4 2.238058 1_455
Li0 O3 2.238058 1_544
Li0 O3 2.238058 1_454
Li1 O3 2.094222 1_555
Li1 O5 2.139678 1_655
Li1 O5 2.139678 1_565
Li1 O0 2.185338 1_655
Li1 O0 2.185338 1_565
Li1 O2 2.300432 1_555
Li2 O4 2.094222 1_555
Li2 O1 2.139678 1_545
Li2 O1 2.139678 1_455
Li2 O2 2.185338 1_545
Li2 O2 2.185338 1_455
Li2 O0 2.300432 1_555
Fe0 O5 2.051953 1_654
Fe0 O5 2.051953 1_564
Fe0 O1 2.061840 1_555
Fe0 O4 2.134582 1_555
Fe0 O0 2.145133 1_655
Fe0 O0 2.145133 1_565
Fe1 O1 2.051953 1_456
Fe1 O1 2.051953 1_546
Fe1 O5 2.061840 1_555
Fe1 O3 2.134582 1_555
Fe1 O2 2.145133 1_455
Fe1 O2 2.145133 1_545
O0 V0 1.920609 1_555
O2 V0 1.920609 1_665
O3 V0 2.019366 1_565
O3 V0 2.019366 1_655
O4 V0 2.019366 1_655
O4 V0 2.019366 1_565
