# generated using pymatgen
data_Na2V6O15
_symmetry_space_group_name_H-M   'P 1'
_cell_length_a   8.10235490
_cell_length_b   8.10235490
_cell_length_c   10.61821322
_cell_angle_alpha   77.25206992
_cell_angle_beta   77.25206992
_cell_angle_gamma   26.15209312
_symmetry_Int_Tables_number   1
_chemical_formula_structural   Na2V6O15
_chemical_formula_sum   'Na2 V6 O15'
_cell_volume   299.24842047
_cell_formula_units_Z   1
loop_
 _symmetry_equiv_pos_site_id
 _symmetry_equiv_pos_as_xyz
  1  'x, y, z'
loop_
 _atom_site_type_symbol
 _atom_site_label
 _atom_site_symmetry_multiplicity
 _atom_site_fract_x
 _atom_site_fract_y
 _atom_site_fract_z
 _atom_site_occupancy
  Na  Na0  1  0.54520900  0.54520900  0.65340900  1
  Na  Na1  1  0.46013600  0.46013600  0.34587000  1
  V  V0  1  0.67769400  0.67769400  0.09586600  1
  V  V1  1  0.10647000  0.10647000  0.90135900  1
  V  V2  1  0.71892500  0.71892500  0.40609700  1
  V  V3  1  0.28646800  0.28646800  0.59475100  1
  V  V4  1  0.88389800  0.88389800  0.11001000  1
  V  V5  1  0.32782800  0.32782800  0.89778000  1
  O  O0  1  0.58226800  0.58226800  0.19377500  1
  O  O1  1  0.19048800  0.19048800  0.04065500  1
  O  O2  1  0.61113400  0.61113400  0.44292900  1
  O  O3  1  0.09578400  0.09578400  0.74854200  1
  O  O4  1  0.74917900  0.74917900  0.20848100  1
  O  O5  1  0.63526100  0.63526100  0.92608500  1
  O  O6  1  0.25889400  0.25889400  0.42185400  1
  O  O7  1  0.75083400  0.75083400  0.58332300  1
  O  O8  1  0.37313600  0.37313600  0.07022800  1
  O  O9  1  0.26145300  0.26145300  0.78077500  1
  O  O10  1  0.90767800  0.90767800  0.25487300  1
  O  O11  1  0.39367800  0.39367800  0.55874100  1
  O  O12  1  0.81264600  0.81264600  0.95323600  1
  O  O13  1  0.42476700  0.42476700  0.80424000  1
  O  O14  1  0.00278600  0.00278600  0.99825100  1
loop_
_geom_bond_atom_site_label_1
_geom_bond_atom_site_label_2
_geom_bond_distance
_geom_bond_site_symmetry_2
Na0 O13 2.190833 1_555
Na0 O2 2.241434 1_555
Na0 O3 2.320199 1_655
Na0 O3 2.320199 1_565
Na0 O11 2.796549 1_555
Na1 O0 2.216750 1_555
Na1 O11 2.266086 1_555
Na1 O10 2.311275 1_545
Na1 O10 2.311275 1_455
Na1 O2 2.802816 1_555
O0 V0 1.624848 1_555
O1 V0 1.921228 1_545
O1 V0 1.921228 1_455
O1 V1 2.198895 1_554
O1 V5 2.347557 1_554
O2 V2 1.657208 1_555
O3 V1 1.668960 1_555
O4 V0 1.820540 1_555
O4 V2 2.043779 1_555
O4 V4 2.146575 1_555
O5 V1 1.920887 1_565
O5 V1 1.920887 1_655
O5 V0 2.060501 1_556
O6 V2 1.958095 1_455
O6 V2 1.958095 1_545
O6 V3 1.980362 1_555
O7 V3 1.929328 1_565
O7 V3 1.929328 1_655
O7 V2 2.055327 1_555
O8 V4 1.897391 1_545
O8 V4 1.897391 1_455
O8 V5 2.111318 1_554
O9 V5 1.797478 1_555
O9 V3 1.924611 1_555
O9 V1 2.490944 1_555
O10 V4 1.663881 1_555
O11 V3 1.648266 1_555
O12 V5 1.923674 1_655
O12 V5 1.923674 1_565
O12 V4 2.210032 1_556
O12 V0 2.317229 1_556
O13 V5 1.624578 1_555
O14 V1 1.724550 1_555
O14 V4 1.980115 1_446
