# generated using pymatgen
data_Li4Ni5Sb3O16
_symmetry_space_group_name_H-M   'P 1'
_cell_length_a   6.00262016
_cell_length_b   6.05178568
_cell_length_c   9.65975669
_cell_angle_alpha   89.98166445
_cell_angle_beta   90.85755779
_cell_angle_gamma   120.26711648
_symmetry_Int_Tables_number   1
_chemical_formula_structural   Li4Ni5Sb3O16
_chemical_formula_sum   'Li4 Ni5 Sb3 O16'
_cell_volume   303.02754767
_cell_formula_units_Z   1
loop_
 _symmetry_equiv_pos_site_id
 _symmetry_equiv_pos_as_xyz
  1  'x, y, z'
loop_
 _atom_site_type_symbol
 _atom_site_label
 _atom_site_symmetry_multiplicity
 _atom_site_fract_x
 _atom_site_fract_y
 _atom_site_fract_z
 _atom_site_occupancy
  Li  Li0  1  0.33773500  0.66904500  0.87697700  1
  Li  Li1  1  0.95762300  0.97865400  0.99224600  1
  Li  Li2  1  0.97406100  0.98701600  0.50401300  1
  Li  Li3  1  0.65896100  0.32973400  0.39702600  1
  Ni  Ni0  1  0.34050200  0.67001500  0.49588200  1
  Ni  Ni1  1  0.66492900  0.83244500  0.21676500  1
  Ni  Ni2  1  0.69218600  0.34609900  0.98207500  1
  Ni  Ni3  1  0.83203900  0.66178400  0.71420700  1
  Ni  Ni4  1  0.83212400  0.17019700  0.71445300  1
  Sb  Sb0  1  0.17250800  0.83303600  0.21528500  1
  Sb  Sb1  1  0.17246000  0.33953000  0.21525400  1
  Sb  Sb2  1  0.34183500  0.17097500  0.71444500  1
  O  O0  1  0.15791500  0.84083800  0.60298500  1
  O  O1  1  0.02992900  0.51499200  0.33767800  1
  O  O2  1  0.32700300  0.66353500  0.09932600  1
  O  O3  1  0.01045500  0.00530800  0.31928800  1
  O  O4  1  0.00162200  0.99942100  0.81022200  1
  O  O5  1  0.15814200  0.31668400  0.60331300  1
  O  O6  1  0.47509100  0.96497900  0.34017100  1
  O  O7  1  0.47504900  0.51039500  0.34011500  1
  O  O8  1  0.32023600  0.16013200  0.10107600  1
  O  O9  1  0.67782900  0.83877800  0.61183400  1
  O  O10  1  0.52592000  0.48601200  0.83559200  1
  O  O11  1  0.52556900  0.04004700  0.83534800  1
  O  O12  1  0.66641200  0.33449000  0.60433100  1
  O  O13  1  0.85403100  0.68214400  0.10164200  1
  O  O14  1  0.96370500  0.48209500  0.82476500  1
  O  O15  1  0.85412800  0.17192300  0.10152200  1
loop_
_geom_bond_atom_site_label_1
_geom_bond_atom_site_label_2
_geom_bond_distance
_geom_bond_site_symmetry_2
Li0 O11 1.983705 1_565
Li0 O10 1.984412 1_555
Li0 O14 1.995243 1_455
Li0 O2 2.149511 1_556
Li1 O4 1.776934 1_655
Li1 O13 1.901824 1_556
Li1 O15 1.902919 1_566
Li1 O8 2.138111 1_666
Li2 O3 1.797560 1_665
Li2 O9 1.870354 1_555
Li2 O0 1.966365 1_655
Li2 O5 1.966879 1_665
Li3 O7 1.978496 1_555
Li3 O6 1.979681 1_545
Li3 O12 2.002238 1_555
Li3 O1 2.016259 1_655
Ni0 O9 2.060534 1_555
Ni0 O0 2.125345 1_555
Ni0 O5 2.126145 1_555
Ni0 O7 2.161758 1_555
Ni0 O6 2.163891 1_555
Ni0 O1 2.200813 1_555
Ni1 O3 2.031957 1_665
Ni1 O2 2.070766 1_555
Ni1 O7 2.077788 1_555
Ni1 O6 2.079780 1_555
Ni1 O13 2.105170 1_555
Ni1 O15 2.105743 1_565
Ni2 O14 2.089005 1_555
Ni2 O15 2.094250 1_556
Ni2 O13 2.095210 1_556
Ni2 O10 2.126979 1_555
Ni2 O11 2.128742 1_555
Ni2 O8 2.261822 1_556
Ni3 O14 1.946299 1_555
Ni3 O4 1.986893 1_655
Ni3 O9 1.988345 1_555
Ni3 O10 1.994034 1_555
Ni3 O12 2.005700 1_555
Ni3 O0 2.019968 1_655
Ni4 O14 1.948166 1_555
Ni4 O9 1.991072 1_545
Ni4 O11 1.993225 1_555
Ni4 O4 1.997578 1_645
Ni4 O12 2.018465 1_555
Ni4 O5 2.020300 1_655
O0 Sb2 2.027815 1_565
O1 Sb0 2.050158 1_555
O1 Sb1 2.050593 1_555
O2 Sb1 2.038484 1_555
O2 Sb0 2.039055 1_555
O3 Sb1 2.022824 1_555
O3 Sb0 2.023534 1_545
O4 Sb2 2.005727 1_565
O5 Sb2 2.022353 1_555
O6 Sb0 1.965927 1_555
O7 Sb1 1.965947 1_555
O8 Sb0 2.044583 1_545
O8 Sb1 2.045205 1_555
O10 Sb2 2.016036 1_555
O11 Sb2 2.012440 1_555
O12 Sb2 2.006089 1_555
O13 Sb0 1.967636 1_655
O15 Sb1 1.967519 1_655
