# generated using pymatgen
data_LiFe2(BO3)2
_symmetry_space_group_name_H-M   'P 1'
_cell_length_a   5.28313600
_cell_length_b   9.06982887
_cell_length_c   11.33064989
_cell_angle_alpha   113.25354701
_cell_angle_beta   102.16082216
_cell_angle_gamma   90.27683904
_symmetry_Int_Tables_number   1
_chemical_formula_structural   LiFe2(BO3)2
_chemical_formula_sum   'Li4 Fe8 B8 O24'
_cell_volume   485.28834193
_cell_formula_units_Z   4
loop_
 _symmetry_equiv_pos_site_id
 _symmetry_equiv_pos_as_xyz
  1  'x, y, z'
loop_
 _atom_site_type_symbol
 _atom_site_label
 _atom_site_symmetry_multiplicity
 _atom_site_fract_x
 _atom_site_fract_y
 _atom_site_fract_z
 _atom_site_occupancy
  Li  Li0  1  0.82569800  0.18292400  0.34419900  1
  Li  Li1  1  0.39135000  0.04017700  0.08887500  1
  Li  Li2  1  0.07066300  0.40306600  0.83421800  1
  Li  Li3  1  0.88825200  0.55391400  0.10381600  1
  Fe  Fe0  1  0.59341800  0.60434700  0.86467900  1
  Fe  Fe1  1  0.90320500  0.89972200  0.11837800  1
  Fe  Fe2  1  0.16161500  0.47349700  0.61601800  1
  Fe  Fe3  1  0.34716900  0.01404800  0.37442900  1
  Fe  Fe4  1  0.64955300  0.98122400  0.62926100  1
  Fe  Fe5  1  0.84786600  0.52599100  0.37052400  1
  Fe  Fe6  1  0.09642700  0.08363400  0.86632800  1
  Fe  Fe7  1  0.39424000  0.40148200  0.11984400  1
  B  B0  1  0.35204000  0.34603800  0.36571900  1
  B  B1  1  0.11260100  0.76180600  0.87940500  1
  B  B2  1  0.84889800  0.85904700  0.37122300  1
  B  B3  1  0.59352300  0.27582900  0.87037200  1
  B  B4  1  0.14200000  0.13703700  0.62248700  1
  B  B5  1  0.39515900  0.72874800  0.12174700  1
  B  B6  1  0.65887200  0.64663000  0.62106700  1
  B  B7  1  0.90283500  0.23315400  0.12862300  1
  O  O0  1  0.87516800  0.76751200  0.91512700  1
  O  O1  1  0.55636200  0.54705800  0.67208300  1
  O  O2  1  0.76733500  0.11271700  0.14299400  1
  O  O3  1  0.46423500  0.20962300  0.36549000  1
  O  O4  1  0.10907200  0.37410700  0.39850000  1
  O  O5  1  0.21257800  0.61118100  0.83499500  1
  O  O6  1  0.73367000  0.41612200  0.88609200  1
  O  O7  1  0.96601300  0.97313100  0.33772800  1
  O  O8  1  0.31363900  0.88547300  0.17202400  1
  O  O9  1  0.36317800  0.09382500  0.57037600  1
  O  O10  1  0.05139300  0.28179300  0.63972200  1
  O  O11  1  0.62544400  0.70995700  0.07663600  1
  O  O12  1  0.35490600  0.28509300  0.90483700  1
  O  O13  1  0.63065900  0.90000300  0.42306900  1
  O  O14  1  0.70281200  0.13119200  0.82378900  1
  O  O15  1  0.02405700  0.02639800  0.65625000  1
  O  O16  1  0.24832700  0.60047100  0.11422200  1
  O  O17  1  0.80622800  0.38559800  0.16238000  1
  O  O18  1  0.86926800  0.59872500  0.56252000  1
  O  O19  1  0.55048700  0.78372200  0.62862600  1
  O  O20  1  0.94019400  0.71329000  0.34728900  1
  O  O21  1  0.24800500  0.89926300  0.89738600  1
  O  O22  1  0.47699800  0.45311800  0.33209000  1
  O  O23  1  0.13249000  0.20781700  0.08607800  1
loop_
_geom_bond_atom_site_label_1
_geom_bond_atom_site_label_2
_geom_bond_distance
_geom_bond_site_symmetry_2
Li0 O3 1.978905 1_555
Li0 O7 2.025308 1_545
Li0 O2 2.062436 1_555
Li0 O4 2.090706 1_655
Li1 O2 1.977428 1_555
Li1 O21 2.005828 1_544
Li1 O23 2.054997 1_555
Li1 O8 2.055766 1_545
Li2 O6 1.979193 1_455
Li2 O10 2.016731 1_555
Li2 O5 2.023745 1_555
Li2 O12 2.055612 1_555
Li3 O16 1.915588 1_655
Li3 O17 1.968053 1_555
Li3 O11 2.051501 1_555
Li3 O6 2.240896 1_554
Li3 O20 2.510730 1_555
Fe0 O0 1.919579 1_555
Fe0 O6 1.945729 1_555
Fe0 O5 1.974280 1_555
Fe0 O1 1.998543 1_555
Fe0 O11 2.173635 1_556
Fe1 O2 1.999330 1_565
Fe1 O11 2.092804 1_555
Fe1 O0 2.106546 1_554
Fe1 O8 2.144172 1_655
Fe1 O7 2.252620 1_555
Fe2 O10 1.964492 1_555
Fe2 O18 2.051612 1_455
Fe2 O1 2.071650 1_555
Fe2 O4 2.217899 1_555
Fe2 O5 2.248742 1_555
Fe3 O3 1.922733 1_555
Fe3 O13 1.932392 1_545
Fe3 O7 1.970725 1_445
Fe3 O9 2.027769 1_555
Fe3 O8 2.089496 1_545
Fe4 O19 1.860630 1_555
Fe4 O15 1.953046 1_665
Fe4 O9 1.976074 1_565
Fe4 O14 2.038437 1_565
Fe4 O13 2.133769 1_555
Fe5 O20 1.895334 1_555
Fe5 O22 1.966280 1_555
Fe5 O18 1.985697 1_555
Fe5 O4 2.020244 1_655
Fe5 O17 2.153919 1_555
Fe6 O21 1.979973 1_545
Fe6 O12 2.118768 1_555
Fe6 O14 2.119747 1_455
Fe6 O15 2.172684 1_555
Fe6 O23 2.255709 1_556
Fe7 O16 1.984725 1_555
Fe7 O23 2.089735 1_555
Fe7 O17 2.146268 1_555
Fe7 O12 2.201462 1_554
Fe7 O22 2.204468 1_555
B0 O3 1.373813 1_555
B0 O22 1.384279 1_555
B0 O4 1.407072 1_555
B1 O21 1.355342 1_555
B1 O0 1.392119 1_455
B1 O5 1.405236 1_555
B2 O20 1.353527 1_555
B2 O13 1.389121 1_555
B2 O7 1.414334 1_555
B3 O14 1.386313 1_555
B3 O12 1.389717 1_555
B3 O6 1.398357 1_555
B4 O10 1.354263 1_555
B4 O15 1.392511 1_555
B4 O9 1.407142 1_555
B5 O16 1.359314 1_555
B5 O11 1.402037 1_555
B5 O8 1.414381 1_555
B6 O19 1.350822 1_555
B6 O18 1.397190 1_555
B6 O1 1.407975 1_555
B7 O2 1.383543 1_555
B7 O23 1.385254 1_655
B7 O17 1.410667 1_555
