# generated using pymatgen
data_Na3Cd4P6H10(ClO8)3
_symmetry_space_group_name_H-M   'P 1'
_cell_length_a   9.32248400
_cell_length_b   9.41197864
_cell_length_c   10.45478129
_cell_angle_alpha   63.99590857
_cell_angle_beta   77.49459887
_cell_angle_gamma   64.13258054
_symmetry_Int_Tables_number   1
_chemical_formula_structural   Na3Cd4P6H10(ClO8)3
_chemical_formula_sum   'Na3 Cd4 P6 H10 Cl3 O24'
_cell_volume   741.49760501
_cell_formula_units_Z   1
loop_
 _symmetry_equiv_pos_site_id
 _symmetry_equiv_pos_as_xyz
  1  'x, y, z'
loop_
 _atom_site_type_symbol
 _atom_site_label
 _atom_site_symmetry_multiplicity
 _atom_site_fract_x
 _atom_site_fract_y
 _atom_site_fract_z
 _atom_site_occupancy
  Na  Na0  1  0.98038300  0.79119000  0.79537300  1
  Na  Na1  1  0.94997500  0.79882700  0.40645100  1
  Na  Na2  1  0.96016800  0.22216900  0.50423200  1
  Cd  Cd0  1  0.25148500  0.00199600  0.09968000  1
  Cd  Cd1  1  0.76771900  0.51012400  0.74071000  1
  Cd  Cd2  1  0.75104400  0.28601600  0.15328300  1
  Cd  Cd3  1  0.30122900  0.97983200  0.75790700  1
  P  P0  1  0.62317300  0.00660300  0.17714200  1
  P  P1  1  0.81978600  0.74711100  0.14196400  1
  P  P2  1  0.29263000  0.74803000  0.62175800  1
  P  P3  1  0.40358300  0.63058100  0.16615800  1
  P  P4  1  0.27215200  0.48616300  0.14703200  1
  P  P5  1  0.62784600  0.05221200  0.59086600  1
  H  H0  1  0.79526300  0.56386200  0.96045600  1
  H  H1  1  0.56766600  0.98176100  0.44348100  1
  H  H2  1  0.75481400  0.62960900  0.24636600  1
  H  H3  1  0.66226400  0.48534500  0.55124700  1
  H  H4  1  0.37665800  0.62382000  0.84338900  1
  H  H5  1  0.15635200  0.33451200  0.87952400  1
  H  H6  1  0.38492000  0.71672100  0.42059300  1
  H  H7  1  0.45254100  0.26340900  0.65372900  1
  H  H8  1  0.38699000  0.31327900  0.20460900  1
  H  H9  1  0.28300100  0.34052500  0.95078000  1
  Cl  Cl0  1  0.13942900  0.42011100  0.59142200  1
  Cl  Cl1  1  0.05673700  0.06190900  0.91440100  1
  Cl  Cl2  1  0.02081800  0.10874500  0.27105900  1
  O  O0  1  0.81961400  0.75191200  0.64578800  1
  O  O1  1  0.72869000  0.14125800  0.48780800  1
  O  O2  1  0.82610500  0.74358500  0.99955000  1
  O  O3  1  0.67236000  0.94901600  0.32713700  1
  O  O4  1  0.94285600  0.76743200  0.19613900  1
  O  O5  1  0.40536200  0.77122800  0.01542800  1
  O  O6  1  0.72168100  0.87361400  0.71757700  1
  O  O7  1  0.16714300  0.23969100  0.58488500  1
  O  O8  1  0.42583600  0.71713300  0.50223700  1
  O  O9  1  0.42166300  0.68039600  0.74650700  1
  O  O10  1  0.15215700  0.72340600  0.55606100  1
  O  O11  1  0.82169800  0.45610900  0.95049000  1
  O  O12  1  0.18863900  0.92874500  0.61881800  1
  O  O13  1  0.26337500  0.53555600  0.98689000  1
  O  O14  1  0.56464900  0.48367200  0.22202900  1
  O  O15  1  0.31746500  0.71933200  0.27230000  1
  O  O16  1  0.12687100  0.48304900  0.24410800  1
  O  O17  1  0.21332800  0.60630400  0.70985600  1
  O  O18  1  0.65983200  0.15880500  0.06613400  1
  O  O19  1  0.76617300  0.41509800  0.59473700  1
  O  O20  1  0.51293300  0.01764600  0.52890900  1
  O  O21  1  0.50813800  0.13846800  0.69637600  1
  O  O22  1  0.25745300  0.26239800  0.92821200  1
  O  O23  1  0.47735200  0.98650500  0.16221000  1
loop_
_geom_bond_atom_site_label_1
_geom_bond_atom_site_label_2
_geom_bond_distance
_geom_bond_site_symmetry_2
Na0 O2 2.284739 1_555
Na0 O6 2.396560 1_555
Na0 O17 2.401954 1_655
Na0 O0 2.614223 1_555
Na0 O12 2.720000 1_655
Na1 O4 2.361421 1_555
Na1 O10 2.374593 1_655
Na1 O3 2.468427 1_555
Na1 O0 2.472951 1_555
Na2 O19 2.315887 1_555
Na2 O7 2.359119 1_655
Na2 O12 2.582617 1_645
Na2 O1 2.641069 1_555
Cd0 O23 2.264292 1_545
Cd0 O22 2.333833 1_554
Cd0 O15 2.357094 1_545
Cd0 O5 2.441899 1_545
Cd0 Cl2 2.620813 1_555
Cd0 Cl1 2.652955 1_554
Cd1 O19 2.084898 1_555
Cd1 O11 2.144492 1_555
Cd1 O0 2.273800 1_555
Cd2 O14 2.192654 1_555
Cd2 O11 2.197934 1_554
Cd2 O18 2.273148 1_555
Cd2 Cl2 2.550124 1_655
Cd3 O12 2.271982 1_555
Cd3 O7 2.290986 1_565
Cd3 Cl1 2.534884 1_565
Cd3 O9 2.587093 1_555
Cd3 O5 2.622867 1_556
Cd3 O21 2.738108 1_565
Cd3 O20 2.751931 1_565
H0 O11 0.981621 1_555
H1 O20 1.043499 1_565
H1 O3 1.441946 1_555
H2 P1 1.421630 1_555
H3 O19 0.974942 1_555
H4 O9 1.011668 1_555
H5 O22 0.977101 1_555
H6 O8 1.009596 1_555
H7 O21 0.979165 1_555
H8 P4 1.433995 1_555
H9 O22 0.991157 1_555
Cl0 O7 1.632877 1_555
Cl0 Na1 3.083178 1_455
Cl2 Na2 2.925828 1_455
Cl2 Na1 2.933250 1_445
O0 O6 1.501163 1_555
O1 P5 1.484640 1_555
O2 P1 1.491662 1_556
O3 P0 1.520662 1_565
O4 P1 1.497196 1_555
O5 P3 1.553889 1_555
O6 P5 1.616138 1_565
O8 P2 1.587327 1_555
O9 P2 1.684178 1_555
O10 O17 1.555628 1_555
O10 P2 1.741940 1_555
O12 P2 1.536891 1_555
O13 P4 1.539338 1_556
O14 P3 1.538718 1_555
O15 P3 1.554203 1_555
O16 P4 1.509477 1_555
O17 P2 1.631723 1_555
O18 P0 1.520993 1_555
O20 P5 1.569222 1_555
O21 P5 1.607135 1_555
O23 P0 1.500114 1_565
