# generated using pymatgen
data_Li5V4O12F
_symmetry_space_group_name_H-M   'P 1'
_cell_length_a   10.14424400
_cell_length_b   4.69309000
_cell_length_c   11.02622476
_cell_angle_alpha   65.30798019
_cell_angle_beta   90.00000000
_cell_angle_gamma   90.00000000
_symmetry_Int_Tables_number   1
_chemical_formula_structural   Li5V4O12F
_chemical_formula_sum   'Li10 V8 O24 F2'
_cell_volume   476.93815569
_cell_formula_units_Z   2
loop_
 _symmetry_equiv_pos_site_id
 _symmetry_equiv_pos_as_xyz
  1  'x, y, z'
loop_
 _atom_site_type_symbol
 _atom_site_label
 _atom_site_symmetry_multiplicity
 _atom_site_fract_x
 _atom_site_fract_y
 _atom_site_fract_z
 _atom_site_occupancy
  Li  Li0  1  0.15613200  0.30029400  0.13732700  1
  Li  Li1  1  0.50000000  0.00000000  0.50000000  1
  Li  Li2  1  0.13808100  0.62104800  0.84084700  1
  Li  Li3  1  0.65613200  0.69970600  0.36267300  1
  Li  Li4  1  0.63808100  0.37895200  0.65915300  1
  Li  Li5  1  0.00000000  0.00000000  0.00000000  1
  Li  Li6  1  0.36191900  0.62104800  0.34084700  1
  Li  Li7  1  0.34386800  0.30029400  0.63732700  1
  Li  Li8  1  0.86191900  0.37895200  0.15915300  1
  Li  Li9  1  0.84386800  0.69970600  0.86267300  1
  V  V0  1  0.15813600  0.96597400  0.48013700  1
  V  V1  1  0.48543100  0.61256500  0.83859000  1
  V  V2  1  0.65813600  0.03402600  0.01986300  1
  V  V3  1  0.01456900  0.61256500  0.33859000  1
  V  V4  1  0.98543100  0.38743500  0.66141000  1
  V  V5  1  0.34186400  0.96597400  0.98013700  1
  V  V6  1  0.51456900  0.38743500  0.16141000  1
  V  V7  1  0.84186400  0.03402600  0.51986300  1
  O  O0  1  0.47822900  0.08820300  0.30716300  1
  O  O1  1  0.69716600  0.88847600  0.49580900  1
  O  O2  1  0.69007700  0.22525800  0.12701900  1
  O  O3  1  0.96029200  0.78945800  0.46158800  1
  O  O4  1  0.89304200  0.66015700  0.69832100  1
  O  O5  1  0.64923200  0.39244300  0.85942300  1
  O  O6  1  0.46029200  0.21054200  0.03841200  1
  O  O7  1  0.19007700  0.77474200  0.37298100  1
  O  O8  1  0.14923200  0.60755700  0.64057700  1
  O  O9  1  0.39304200  0.33984300  0.80167900  1
  O  O10  1  0.97822900  0.91179700  0.19283700  1
  O  O11  1  0.19716600  0.11152400  0.00419100  1
  O  O12  1  0.80283400  0.88847600  0.99580900  1
  O  O13  1  0.02177100  0.08820300  0.80716300  1
  O  O14  1  0.60695800  0.66015700  0.19832100  1
  O  O15  1  0.85076800  0.39244300  0.35942300  1
  O  O16  1  0.80992300  0.22525800  0.62701900  1
  O  O17  1  0.53970800  0.78945800  0.96158800  1
  O  O18  1  0.35076800  0.60755700  0.14057700  1
  O  O19  1  0.10695800  0.33984300  0.30167900  1
  O  O20  1  0.03970800  0.21054200  0.53841200  1
  O  O21  1  0.30992300  0.77474200  0.87298100  1
  O  O22  1  0.30283400  0.11152400  0.50419100  1
  O  O23  1  0.52177100  0.91179700  0.69283700  1
  F  F0  1  0.00000000  0.50000000  0.00000000  1
  F  F1  1  0.50000000  0.50000000  0.50000000  1
loop_
_geom_bond_atom_site_label_1
_geom_bond_atom_site_label_2
_geom_bond_distance
_geom_bond_site_symmetry_2
Li0 O19 1.961710 1_555
Li0 O11 2.049306 1_555
Li0 O18 2.454028 1_555
Li0 O10 2.454267 1_445
Li1 O0 2.001442 1_555
Li1 O23 2.001442 1_545
Li1 O1 2.072844 1_545
Li1 O22 2.072844 1_555
Li2 O21 1.974363 1_555
Li2 O8 2.238272 1_555
Li2 O13 2.378311 1_565
Li2 O11 2.392256 1_556
Li3 O14 1.961710 1_555
Li3 O1 2.049306 1_555
Li3 O15 2.454028 1_555
Li3 O0 2.454267 1_565
Li4 O16 1.974363 1_555
Li4 O5 2.238272 1_555
Li4 O23 2.378311 1_545
Li4 O1 2.392256 1_555
Li5 O10 2.001442 1_445
Li5 O13 2.001442 1_554
Li5 O12 2.072844 1_444
Li5 O11 2.072844 1_555
Li6 O7 1.974363 1_555
Li6 O18 2.238272 1_555
Li6 O0 2.378311 1_565
Li6 O22 2.392256 1_555
Li7 O9 1.961710 1_555
Li7 O22 2.049306 1_555
Li7 O8 2.454028 1_555
Li7 O23 2.454267 1_545
Li8 O2 1.974363 1_555
Li8 O15 2.238272 1_555
Li8 O10 2.378311 1_545
Li8 O12 2.392256 1_554
Li9 O4 1.961710 1_555
Li9 O12 2.049306 1_555
Li9 O5 2.454028 1_555
Li9 O13 2.454267 1_665
O0 V6 1.674877 1_555
O1 V7 1.686088 1_565
O2 V2 1.786721 1_555
O2 V6 2.033231 1_555
O3 V3 1.942239 1_655
O3 V7 1.946720 1_565
O3 V0 2.213053 1_655
O3 V4 2.237441 1_555
O4 V4 1.765614 1_555
O4 V7 2.082191 1_565
O5 V2 1.865734 1_556
O5 V1 1.919047 1_555
O6 V6 1.942239 1_555
O6 V5 1.946720 1_544
O6 V2 2.213053 1_555
O6 V1 2.237441 1_554
O7 V0 1.786721 1_555
O7 V3 2.033231 1_555
O8 V0 1.865734 1_555
O8 V4 1.919047 1_455
O9 V1 1.765614 1_555
O9 V5 2.082191 1_545
O10 V3 1.674877 1_655
O11 V5 1.686088 1_544
O12 V2 1.686088 1_566
O13 V4 1.674877 1_455
O14 V6 1.765614 1_555
O14 V2 2.082191 1_565
O15 V7 1.865734 1_555
O15 V3 1.919047 1_655
O16 V7 1.786721 1_555
O16 V4 2.033231 1_555
O17 V1 1.942239 1_555
O17 V2 1.946720 1_566
O17 V5 2.213053 1_555
O17 V6 2.237441 1_556
O18 V5 1.865734 1_554
O18 V6 1.919047 1_555
O19 V3 1.765614 1_555
O19 V0 2.082191 1_545
O20 V4 1.942239 1_455
O20 V0 1.946720 1_545
O20 V7 2.213053 1_455
O20 V3 2.237441 1_555
O21 V5 1.786721 1_555
O21 V1 2.033231 1_555
O22 V0 1.686088 1_545
O23 V1 1.674877 1_555
F0 Li9 2.119924 1_454
F0 Li0 2.119924 1_555
F0 Li2 2.128704 1_554
F0 Li8 2.128704 1_455
F0 Li5 2.346545 1_565
F0 Li5 2.346545 1_555
F1 Li7 2.119924 1_555
F1 Li3 2.119924 1_555
F1 Li4 2.128704 1_555
F1 Li6 2.128704 1_555
F1 Li1 2.346545 1_555
F1 Li1 2.346545 1_565
