# generated using pymatgen
data_Li3FeSi2O7
_symmetry_space_group_name_H-M   'P 1'
_cell_length_a   8.62073704
_cell_length_b   8.62073704
_cell_length_c   13.04529900
_cell_angle_alpha   90.00000000
_cell_angle_beta   90.00000000
_cell_angle_gamma   119.99999264
_symmetry_Int_Tables_number   1
_chemical_formula_structural   Li3FeSi2O7
_chemical_formula_sum   'Li18 Fe6 Si12 O42'
_cell_volume   839.60206391
_cell_formula_units_Z   6
loop_
 _symmetry_equiv_pos_site_id
 _symmetry_equiv_pos_as_xyz
  1  'x, y, z'
loop_
 _atom_site_type_symbol
 _atom_site_label
 _atom_site_symmetry_multiplicity
 _atom_site_fract_x
 _atom_site_fract_y
 _atom_site_fract_z
 _atom_site_occupancy
  Li  Li0  1  0.02475700  0.69073300  0.89743100  1
  Li  Li1  1  0.02403200  0.69153900  0.56649000  1
  Li  Li2  1  0.33333300  0.66666700  0.21807900  1
  Li  Li3  1  0.33333300  0.66666700  0.73289900  1
  Li  Li4  1  0.00000000  0.00000000  0.46127600  1
  Li  Li5  1  0.00000000  0.00000000  0.96127600  1
  Li  Li6  1  0.30846100  0.33249400  0.56649000  1
  Li  Li7  1  0.30926700  0.33402400  0.89743100  1
  Li  Li8  1  0.66597600  0.97524300  0.89743100  1
  Li  Li9  1  0.66750600  0.97596800  0.56649000  1
  Li  Li10  1  0.33249400  0.02403200  0.06649000  1
  Li  Li11  1  0.33402400  0.02475700  0.39743100  1
  Li  Li12  1  0.69073300  0.66597600  0.39743100  1
  Li  Li13  1  0.69153900  0.66750600  0.06649000  1
  Li  Li14  1  0.66666700  0.33333300  0.23289900  1
  Li  Li15  1  0.66666700  0.33333300  0.71807900  1
  Li  Li16  1  0.97596800  0.30846100  0.06649000  1
  Li  Li17  1  0.97524300  0.30926700  0.39743100  1
  Fe  Fe0  1  0.00000000  0.00000000  0.22991600  1
  Fe  Fe1  1  0.00000000  0.00000000  0.72991600  1
  Fe  Fe2  1  0.33333300  0.66666700  0.50874000  1
  Fe  Fe3  1  0.33333300  0.66666700  0.95607200  1
  Fe  Fe4  1  0.66666700  0.33333300  0.45607200  1
  Fe  Fe5  1  0.66666700  0.33333300  0.00874000  1
  Si  Si0  1  0.02637000  0.67474000  0.34528600  1
  Si  Si1  1  0.02425000  0.67361500  0.12059400  1
  Si  Si2  1  0.32638500  0.35063500  0.12059400  1
  Si  Si3  1  0.32526000  0.35163000  0.34528600  1
  Si  Si4  1  0.64936500  0.97575000  0.12059400  1
  Si  Si5  1  0.64837000  0.97363000  0.34528600  1
  Si  Si6  1  0.35163000  0.02637000  0.84528600  1
  Si  Si7  1  0.35063500  0.02425000  0.62059400  1
  Si  Si8  1  0.67474000  0.64837000  0.84528600  1
  Si  Si9  1  0.67361500  0.64936500  0.62059400  1
  Si  Si10  1  0.97575000  0.32638500  0.62059400  1
  Si  Si11  1  0.97363000  0.32526000  0.84528600  1
  O  O0  1  0.13283500  0.92984800  0.84145500  1
  O  O1  1  0.13255200  0.92638000  0.62687500  1
  O  O2  1  0.13014400  0.69616100  0.23276900  1
  O  O3  1  0.18785900  0.75666400  0.03584900  1
  O  O4  1  0.18835300  0.75832000  0.43085700  1
  O  O5  1  0.11894500  0.53937000  0.60561300  1
  O  O6  1  0.11873700  0.53795200  0.85988400  1
  O  O7  1  0.07015200  0.20298700  0.84145500  1
  O  O8  1  0.41921600  0.88126300  0.85988400  1
  O  O9  1  0.07362000  0.20617100  0.62687500  1
  O  O10  1  0.42042500  0.88105500  0.60561300  1
  O  O11  1  0.24333600  0.43119500  0.03584900  1
  O  O12  1  0.24168000  0.43003300  0.43085700  1
  O  O13  1  0.30383900  0.43398300  0.23276900  1
  O  O14  1  0.20298700  0.13283500  0.34145500  1
  O  O15  1  0.56601700  0.86985600  0.23276900  1
  O  O16  1  0.20617100  0.13255200  0.12687500  1
  O  O17  1  0.56996700  0.81164700  0.43085700  1
  O  O18  1  0.56880500  0.81214100  0.03584900  1
  O  O19  1  0.46063000  0.57957500  0.60561300  1
  O  O20  1  0.46204800  0.58078400  0.85988400  1
  O  O21  1  0.53795200  0.41921600  0.35988400  1
  O  O22  1  0.53937000  0.42042500  0.10561300  1
  O  O23  1  0.43119500  0.18785900  0.53584900  1
  O  O24  1  0.43003300  0.18835300  0.93085700  1
  O  O25  1  0.79382900  0.86744800  0.62687500  1
  O  O26  1  0.43398300  0.13014400  0.73276900  1
  O  O27  1  0.79701300  0.86716500  0.84145500  1
  O  O28  1  0.69616100  0.56601700  0.73276900  1
  O  O29  1  0.75832000  0.56996700  0.93085700  1
  O  O30  1  0.75666400  0.56880500  0.53584900  1
  O  O31  1  0.57957500  0.11894500  0.10561300  1
  O  O32  1  0.92638000  0.79382900  0.12687500  1
  O  O33  1  0.58078400  0.11873700  0.35988400  1
  O  O34  1  0.92984800  0.79701300  0.34145500  1
  O  O35  1  0.88126300  0.46204800  0.35988400  1
  O  O36  1  0.88105500  0.46063000  0.10561300  1
  O  O37  1  0.81164700  0.24168000  0.93085700  1
  O  O38  1  0.81214100  0.24333600  0.53584900  1
  O  O39  1  0.86985600  0.30383900  0.73276900  1
  O  O40  1  0.86744800  0.07362000  0.12687500  1
  O  O41  1  0.86716500  0.07015200  0.34145500  1
loop_
_geom_bond_atom_site_label_1
_geom_bond_atom_site_label_2
_geom_bond_distance
_geom_bond_site_symmetry_2
Li0 O6 1.923041 1_555
Li0 O0 1.931291 1_555
Li0 O29 2.039221 1_455
Li0 O3 2.182075 1_556
Li1 O1 1.923637 1_555
Li1 O5 1.929807 1_555
Li1 O30 2.037926 1_455
Li1 O4 2.157141 1_555
Li2 O2 1.901311 1_555
Li2 O15 1.901316 1_555
Li2 O13 1.901319 1_555
Li3 O8 2.311941 1_555
Li3 O6 2.311943 1_555
Li3 O20 2.311952 1_555
Li3 O10 2.312806 1_555
Li3 O5 2.312807 1_555
Li3 O19 2.312811 1_555
Li4 O41 2.193830 1_455
Li4 O34 2.193830 1_445
Li4 O14 2.193830 1_555
Li5 O0 2.193830 1_545
Li5 O7 2.193830 1_555
Li5 O27 2.193830 1_445
Li6 O9 1.923638 1_555
Li6 O19 1.929800 1_555
Li6 O23 2.037933 1_555
Li6 O12 2.157137 1_555
Li7 O20 1.923034 1_555
Li7 O7 1.931291 1_555
Li7 O24 2.039220 1_555
Li7 O11 2.182075 1_556
Li8 O8 1.923033 1_555
Li8 O27 1.931291 1_555
Li8 O37 2.039221 1_565
Li8 O18 2.182075 1_556
Li9 O25 1.923651 1_555
Li9 O10 1.929799 1_555
Li9 O38 2.037927 1_565
Li9 O17 2.157141 1_555
Li10 O16 1.923651 1_555
Li10 O31 1.929799 1_555
Li10 O3 2.037927 1_545
Li10 O24 2.157141 1_554
Li11 O33 1.923033 1_555
Li11 O14 1.931291 1_555
Li11 O4 2.039221 1_545
Li11 O23 2.182075 1_555
Li12 O21 1.923034 1_555
Li12 O34 1.931291 1_555
Li12 O17 2.039220 1_555
Li12 O30 2.182075 1_555
Li13 O32 1.923638 1_555
Li13 O22 1.929800 1_555
Li13 O18 2.037933 1_555
Li13 O29 2.157137 1_554
Li14 O33 2.311941 1_555
Li14 O35 2.311943 1_555
Li14 O21 2.311952 1_555
Li14 O31 2.312806 1_555
Li14 O36 2.312807 1_555
Li14 O22 2.312811 1_555
Li15 O39 1.901311 1_555
Li15 O26 1.901316 1_555
Li15 O28 1.901319 1_555
Li16 O40 1.923637 1_555
Li16 O36 1.929807 1_555
Li16 O11 2.037926 1_655
Li16 O37 2.157141 1_554
Li17 O35 1.923041 1_555
Li17 O41 1.931291 1_555
Li17 O12 2.039221 1_655
Li17 O38 2.182075 1_555
Fe0 O32 2.059276 1_445
Fe0 O16 2.059277 1_555
Fe0 O40 2.059282 1_455
Fe0 O41 2.118208 1_455
Fe0 O34 2.118208 1_445
Fe0 O14 2.118208 1_555
Fe1 O9 2.059276 1_555
Fe1 O25 2.059277 1_445
Fe1 O1 2.059282 1_545
Fe1 O0 2.118208 1_545
Fe1 O7 2.118208 1_555
Fe1 O27 2.118208 1_445
Fe2 O10 2.046680 1_555
Fe2 O5 2.046680 1_555
Fe2 O19 2.046686 1_555
Fe2 O4 2.050891 1_555
Fe2 O17 2.050897 1_555
Fe2 O12 2.050898 1_555
Fe3 O8 2.043383 1_555
Fe3 O6 2.043385 1_555
Fe3 O20 2.043396 1_555
Fe3 O3 2.056877 1_556
Fe3 O18 2.056883 1_556
Fe3 O11 2.056884 1_556
Fe4 O33 2.043383 1_555
Fe4 O35 2.043385 1_555
Fe4 O21 2.043396 1_555
Fe4 O38 2.056877 1_555
Fe4 O23 2.056883 1_555
Fe4 O30 2.056884 1_555
Fe5 O31 2.046680 1_555
Fe5 O36 2.046680 1_555
Fe5 O22 2.046686 1_555
Fe5 O37 2.050891 1_554
Fe5 O24 2.050897 1_554
Fe5 O29 2.050898 1_554
O0 Si6 1.638004 1_565
O1 Si7 1.633062 1_565
O2 Si0 1.680390 1_555
O2 Si1 1.683780 1_555
O3 Si1 1.647508 1_555
O4 Si0 1.645934 1_555
O5 Si10 1.633009 1_455
O6 Si11 1.633825 1_455
O7 Si11 1.638004 1_455
O8 Si6 1.633831 1_565
O9 Si10 1.633069 1_455
O10 Si7 1.633009 1_565
O11 Si2 1.647508 1_555
O12 Si3 1.645934 1_555
O13 Si3 1.680390 1_555
O13 Si2 1.683780 1_555
O14 Si3 1.638004 1_555
O15 Si5 1.680390 1_555
O15 Si4 1.683780 1_555
O16 Si2 1.633062 1_555
O17 Si5 1.645934 1_555
O18 Si4 1.647508 1_555
O19 Si9 1.633009 1_555
O20 Si8 1.633823 1_555
O21 Si3 1.633823 1_555
O22 Si2 1.633009 1_555
O23 Si7 1.647508 1_555
O24 Si6 1.645934 1_555
O25 Si9 1.633062 1_555
O26 Si6 1.680390 1_555
O26 Si7 1.683780 1_555
O27 Si8 1.638004 1_555
O28 Si8 1.680390 1_555
O28 Si9 1.683780 1_555
O29 Si8 1.645934 1_555
O30 Si9 1.647508 1_555
O31 Si4 1.633009 1_545
O32 Si1 1.633069 1_655
O33 Si5 1.633831 1_545
O34 Si0 1.638004 1_655
O35 Si0 1.633825 1_655
O36 Si1 1.633009 1_655
O37 Si11 1.645934 1_555
O38 Si10 1.647508 1_555
O39 Si11 1.680390 1_555
O39 Si10 1.683780 1_555
O40 Si4 1.633062 1_545
O41 Si5 1.638004 1_545
