# generated using pymatgen
data_KH(IO3)2
_symmetry_space_group_name_H-M   'P 1'
_cell_length_a   7.53855400
_cell_length_b   8.71933400
_cell_length_c   10.69137455
_cell_angle_alpha   67.95625299
_cell_angle_beta   90.00000000
_cell_angle_gamma   90.00000000
_symmetry_Int_Tables_number   1
_chemical_formula_structural   KH(IO3)2
_chemical_formula_sum   'K4 H4 I8 O24'
_cell_volume   651.38334206
_cell_formula_units_Z   4
loop_
 _symmetry_equiv_pos_site_id
 _symmetry_equiv_pos_as_xyz
  1  'x, y, z'
loop_
 _atom_site_type_symbol
 _atom_site_label
 _atom_site_symmetry_multiplicity
 _atom_site_fract_x
 _atom_site_fract_y
 _atom_site_fract_z
 _atom_site_occupancy
  K  K0  1  0.75245500  0.83995600  0.79832300  1
  K  K1  1  0.74754500  0.33995600  0.79832300  1
  K  K2  1  0.25245500  0.66004400  0.20167700  1
  K  K3  1  0.24754500  0.16004400  0.20167700  1
  H  H0  1  0.00000000  0.50000000  0.00000000  1
  H  H1  1  0.50000000  0.00000000  0.00000000  1
  H  H2  1  0.00000000  0.50000000  0.50000000  1
  H  H3  1  0.50000000  0.00000000  0.50000000  1
  I  I0  1  0.30293100  0.57275400  0.87386700  1
  I  I1  1  0.19706900  0.07275400  0.87386700  1
  I  I2  1  0.06526000  0.79552100  0.50605400  1
  I  I3  1  0.56526000  0.70447900  0.49394600  1
  I  I4  1  0.43474000  0.29552100  0.50605400  1
  I  I5  1  0.93474000  0.20447900  0.49394600  1
  I  I6  1  0.80293100  0.92724600  0.12613300  1
  I  I7  1  0.69706900  0.42724600  0.12613300  1
  O  O0  1  0.45259400  0.68532400  0.94183900  1
  O  O1  1  0.84263400  0.51193100  0.97185000  1
  O  O2  1  0.04740600  0.18532400  0.94183900  1
  O  O3  1  0.15320600  0.73430700  0.77009900  1
  O  O4  1  0.65736600  0.01193100  0.97185000  1
  O  O5  1  0.54307500  0.64983300  0.67623500  1
  O  O6  1  0.34679400  0.23430700  0.77009900  1
  O  O7  1  0.85821700  0.88579900  0.53986900  1
  O  O8  1  0.97146000  0.58009700  0.56959500  1
  O  O9  1  0.95692500  0.14983300  0.67623500  1
  O  O10  1  0.47146000  0.91990300  0.43040500  1
  O  O11  1  0.64178300  0.38579900  0.53986900  1
  O  O12  1  0.35821700  0.61420100  0.46013100  1
  O  O13  1  0.52854000  0.08009700  0.56959500  1
  O  O14  1  0.04307500  0.85016700  0.32376500  1
  O  O15  1  0.02854000  0.41990300  0.43040500  1
  O  O16  1  0.14178300  0.11420100  0.46013100  1
  O  O17  1  0.65320600  0.76569300  0.22990100  1
  O  O18  1  0.45692500  0.35016700  0.32376500  1
  O  O19  1  0.34263400  0.98806900  0.02815000  1
  O  O20  1  0.84679400  0.26569300  0.22990100  1
  O  O21  1  0.95259400  0.81467600  0.05816100  1
  O  O22  1  0.15736600  0.48806900  0.02815000  1
  O  O23  1  0.54740600  0.31467600  0.05816100  1
loop_
_geom_bond_atom_site_label_1
_geom_bond_atom_site_label_2
_geom_bond_distance
_geom_bond_site_symmetry_2
K0 O7 2.757136 1_555
K0 O0 2.780155 1_555
K0 O1 2.846320 1_555
K0 O4 2.879671 1_565
K0 O5 2.927039 1_555
K0 O9 2.955129 1_565
K0 O13 3.061074 1_565
K0 O21 3.095597 1_556
K0 O3 3.205502 1_655
K1 O11 2.757136 1_555
K1 O2 2.780155 1_655
K1 O4 2.846320 1_555
K1 O1 2.879671 1_555
K1 O9 2.927039 1_555
K1 O5 2.955129 1_555
K1 O8 3.061074 1_555
K1 O23 3.095597 1_556
K1 O6 3.205502 1_555
K2 O12 2.757136 1_555
K2 O21 2.780155 1_455
K2 O19 2.846320 1_555
K2 O22 2.879671 1_555
K2 O14 2.927039 1_555
K2 O18 2.955129 1_555
K2 O15 3.061074 1_555
K2 O0 3.095597 1_554
K2 O17 3.205502 1_555
K3 O16 2.757136 1_555
K3 O23 2.780155 1_555
K3 O22 2.846320 1_555
K3 O19 2.879671 1_545
K3 O18 2.927039 1_555
K3 O14 2.955129 1_545
K3 O10 3.061074 1_545
K3 O2 3.095597 1_554
K3 O20 3.205502 1_455
H0 O1 1.218702 1_454
H0 O22 1.218702 1_555
H1 O4 1.218702 1_554
H1 O19 1.218702 1_545
H2 O8 1.215624 1_455
H2 O15 1.215624 1_555
H3 O13 1.215624 1_555
H3 O10 1.215624 1_545
I0 O0 1.816556 1_555
I0 O3 1.820987 1_555
I0 O22 1.885734 1_556
I0 O5 2.669767 1_555
I1 O2 1.816556 1_555
I1 O6 1.820987 1_555
I1 O19 1.885734 1_546
I1 O9 2.669767 1_455
I2 O14 1.832005 1_555
I2 O7 1.843925 1_455
I2 O8 1.879334 1_455
I3 O5 1.832005 1_555
I3 O12 1.843925 1_555
I3 O10 1.879334 1_555
I4 O18 1.832005 1_555
I4 O11 1.843925 1_555
I4 O13 1.879334 1_555
I5 O9 1.832005 1_555
I5 O16 1.843925 1_655
I5 O15 1.879334 1_655
I6 O21 1.816556 1_555
I6 O17 1.820987 1_555
I6 O4 1.885734 1_564
I6 O14 2.669767 1_655
I7 O23 1.816556 1_555
I7 O20 1.820987 1_555
I7 O1 1.885734 1_554
I7 O18 2.669767 1_555
