# generated using pymatgen
data_NaLi5Mn2P2(CO7)2
_symmetry_space_group_name_H-M   'P 1'
_cell_length_a   6.63730300
_cell_length_b   8.64248930
_cell_length_c   10.04152962
_cell_angle_alpha   88.17531242
_cell_angle_beta   89.93779447
_cell_angle_gamma   89.63093063
_symmetry_Int_Tables_number   1
_chemical_formula_structural   NaLi5Mn2P2(CO7)2
_chemical_formula_sum   'Na2 Li10 Mn4 P4 C4 O28'
_cell_volume   575.70621453
_cell_formula_units_Z   2
loop_
 _symmetry_equiv_pos_site_id
 _symmetry_equiv_pos_as_xyz
  1  'x, y, z'
loop_
 _atom_site_type_symbol
 _atom_site_label
 _atom_site_symmetry_multiplicity
 _atom_site_fract_x
 _atom_site_fract_y
 _atom_site_fract_z
 _atom_site_occupancy
  Na  Na0  1  0.74921600  0.91367100  0.12349300  1
  Na  Na1  1  0.50026300  0.24851900  0.62401700  1
  Li  Li0  1  0.76333100  0.91834900  0.62765900  1
  Li  Li1  1  0.97211900  0.73326200  0.38913000  1
  Li  Li2  1  0.52863800  0.73377600  0.39012400  1
  Li  Li3  1  0.97628000  0.73153000  0.88338900  1
  Li  Li4  1  0.52296400  0.73363700  0.88261400  1
  Li  Li5  1  0.47243200  0.26840100  0.11470000  1
  Li  Li6  1  0.02935100  0.26973700  0.11377400  1
  Li  Li7  1  0.02083600  0.26693400  0.61444700  1
  Li  Li8  1  0.24322600  0.08380700  0.37035600  1
  Li  Li9  1  0.23733800  0.08659800  0.87263500  1
  Mn  Mn0  1  0.24892000  0.64778600  0.11328100  1
  Mn  Mn1  1  0.25033800  0.64619300  0.61094400  1
  Mn  Mn2  1  0.75527400  0.35125700  0.38330100  1
  Mn  Mn3  1  0.75184500  0.35431100  0.88867000  1
  P  P0  1  0.74909600  0.58474700  0.14422700  1
  P  P1  1  0.75490300  0.59453800  0.64355100  1
  P  P2  1  0.25091800  0.40804400  0.35158300  1
  P  P3  1  0.24580900  0.41170000  0.85454200  1
  C  C0  1  0.24950200  0.96216300  0.13579500  1
  C  C1  1  0.24075800  0.95711100  0.63894000  1
  C  C2  1  0.75083400  0.03844900  0.37136500  1
  C  C3  1  0.75272100  0.04709800  0.86075600  1
  O  O0  1  0.74911400  0.88983400  0.35386300  1
  O  O1  1  0.75080000  0.89744500  0.84587400  1
  O  O2  1  0.24704400  0.92001200  0.01287900  1
  O  O3  1  0.24817600  0.92020500  0.51502200  1
  O  O4  1  0.24855200  0.85790400  0.23262900  1
  O  O5  1  0.25455100  0.84993500  0.73354500  1
  O  O6  1  0.93352300  0.67525400  0.08803700  1
  O  O7  1  0.56386800  0.67657300  0.08882500  1
  O  O8  1  0.93369700  0.69755400  0.59471200  1
  O  O9  1  0.56579200  0.68286900  0.59014500  1
  O  O10  1  0.75065300  0.58467000  0.30025800  1
  O  O11  1  0.24635200  0.57782500  0.40024400  1
  O  O12  1  0.75069000  0.58530800  0.79988400  1
  O  O13  1  0.24983700  0.58108300  0.90252200  1
  O  O14  1  0.74775000  0.41249900  0.10311800  1
  O  O15  1  0.24448700  0.41720400  0.19540100  1
  O  O16  1  0.76946100  0.42681100  0.59381300  1
  O  O17  1  0.23086800  0.42017100  0.69936200  1
  O  O18  1  0.44008200  0.31568100  0.39736100  1
  O  O19  1  0.07147800  0.30935800  0.40560700  1
  O  O20  1  0.43457900  0.31569700  0.89930600  1
  O  O21  1  0.06725900  0.31583200  0.91329800  1
  O  O22  1  0.75567200  0.13401300  0.26890200  1
  O  O23  1  0.75833300  0.13867200  0.75560600  1
  O  O24  1  0.74848500  0.09127300  0.49090500  1
  O  O25  1  0.74949000  0.10691800  0.97699200  1
  O  O26  1  0.25262700  0.10772100  0.16536900  1
  O  O27  1  0.21986900  0.10006100  0.67322400  1
loop_
_geom_bond_atom_site_label_1
_geom_bond_atom_site_label_2
_geom_bond_distance
_geom_bond_site_symmetry_2
Na0 O25 2.190215 1_564
Na0 O0 2.315879 1_555
Na0 O6 2.425336 1_555
Na0 O7 2.431526 1_555
Na0 O22 2.436892 1_565
Na0 O1 2.795705 1_554
Na1 O27 2.311340 1_555
Na1 O23 2.342075 1_555
Na1 O18 2.364610 1_555
Na1 O16 2.379773 1_555
Na1 O17 2.450448 1_555
Na1 O24 2.535723 1_555
Na1 O20 2.874883 1_555
Li0 O24 1.999164 1_565
Li0 O1 2.194438 1_555
Li0 O8 2.245214 1_555
Li0 O23 2.330752 1_565
Li0 O9 2.467183 1_555
Li1 O0 2.022907 1_555
Li1 O8 2.093119 1_555
Li1 O10 2.169434 1_555
Li1 O11 2.255988 1_655
Li2 O0 2.021407 1_555
Li2 O9 2.057164 1_555
Li2 O10 2.166349 1_555
Li2 O11 2.315328 1_555
Li3 O1 2.092118 1_555
Li3 O6 2.115866 1_556
Li3 O12 2.153282 1_555
Li3 O13 2.231291 1_655
Li3 O5 2.577351 1_655
Li4 O1 2.102438 1_555
Li4 O7 2.130512 1_556
Li4 O12 2.158285 1_555
Li4 O13 2.253403 1_555
Li4 O5 2.512305 1_555
Li5 O26 2.072489 1_555
Li5 O15 2.153644 1_555
Li5 O20 2.202687 1_554
Li5 O14 2.218867 1_555
Li6 O21 2.055150 1_554
Li6 O26 2.086613 1_555
Li6 O15 2.104192 1_555
Li6 O14 2.233720 1_455
Li7 O27 2.023951 1_555
Li7 O17 2.126641 1_555
Li7 O19 2.143880 1_555
Li7 O16 2.165335 1_455
Li7 O23 2.488586 1_455
Li8 O3 1.994798 1_545
Li8 O26 2.063091 1_555
Li8 O19 2.288900 1_555
Li8 O18 2.421924 1_555
Li8 O4 2.428290 1_545
Li9 O2 1.982430 1_546
Li9 O27 2.005504 1_555
Li9 O21 2.321148 1_555
Li9 O20 2.402886 1_555
Li9 O5 2.515116 1_545
Mn0 O7 2.119833 1_555
Mn0 O6 2.119857 1_455
Mn0 O15 2.132642 1_555
Mn0 O4 2.207359 1_555
Mn0 O13 2.211084 1_554
Mn0 O2 2.529910 1_555
Mn1 O17 2.124448 1_555
Mn1 O9 2.128690 1_555
Mn1 O8 2.150493 1_455
Mn1 O5 2.180757 1_555
Mn1 O11 2.214986 1_555
Mn1 O3 2.527927 1_555
Mn2 O18 2.120358 1_555
Mn2 O19 2.138241 1_655
Mn2 O10 2.158195 1_555
Mn2 O22 2.232041 1_555
Mn2 O16 2.234454 1_555
Mn2 O24 2.462665 1_555
Mn3 O21 2.131057 1_655
Mn3 O20 2.136218 1_555
Mn3 O12 2.160314 1_555
Mn3 O14 2.226964 1_556
Mn3 O25 2.288644 1_555
Mn3 O23 2.327625 1_555
C0 O2 1.298128 1_555
C0 O26 1.302030 1_565
C0 O4 1.304490 1_555
C1 O3 1.295163 1_555
C1 O27 1.299553 1_565
C1 O5 1.308385 1_555
C2 O24 1.297808 1_555
C2 O22 1.299199 1_555
C2 O0 1.302028 1_545
C3 O25 1.291627 1_555
C3 O23 1.299876 1_555
C3 O1 1.306842 1_545
O6 P0 1.552852 1_555
O7 P0 1.552920 1_555
O8 P1 1.557560 1_555
O9 P1 1.552067 1_555
O10 P0 1.566814 1_555
O11 P2 1.561343 1_555
O12 P1 1.569537 1_555
O13 P3 1.556041 1_555
O14 P0 1.557523 1_555
O15 P2 1.568397 1_555
O16 P1 1.550567 1_555
O17 P3 1.560864 1_555
O18 P2 1.545916 1_555
O19 P2 1.556409 1_555
O20 P3 1.557035 1_555
O21 P3 1.555319 1_555
