# generated using pymatgen
data_Li4Ti3Co3(WO8)2
_symmetry_space_group_name_H-M   'P 1'
_cell_length_a   5.97627261
_cell_length_b   5.99135580
_cell_length_c   9.82758275
_cell_angle_alpha   89.98780672
_cell_angle_beta   90.82016653
_cell_angle_gamma   120.05184452
_symmetry_Int_Tables_number   1
_chemical_formula_structural   Li4Ti3Co3(WO8)2
_chemical_formula_sum   'Li4 Ti3 Co3 W2 O16'
_cell_volume   304.54200941
_cell_formula_units_Z   1
loop_
 _symmetry_equiv_pos_site_id
 _symmetry_equiv_pos_as_xyz
  1  'x, y, z'
loop_
 _atom_site_type_symbol
 _atom_site_label
 _atom_site_symmetry_multiplicity
 _atom_site_fract_x
 _atom_site_fract_y
 _atom_site_fract_z
 _atom_site_occupancy
  Li  Li0  1  0.32864500  0.66416900  0.90489100  1
  Li  Li1  1  0.98813500  0.99401100  0.98335600  1
  Li  Li2  1  0.00834300  0.00473300  0.49160300  1
  Li  Li3  1  0.66797000  0.33347700  0.40728500  1
  Ti  Ti0  1  0.18064400  0.84030100  0.21564200  1
  Ti  Ti1  1  0.18290300  0.34124700  0.21628200  1
  Ti  Ti2  1  0.35936600  0.17867600  0.73256600  1
  Co  Co0  1  0.64261900  0.82088300  0.21093800  1
  Co  Co1  1  0.83298000  0.65575400  0.71162100  1
  Co  Co2  1  0.83363200  0.17814400  0.71160300  1
  W  W0  1  0.34060800  0.67065100  0.49033300  1
  W  W1  1  0.68987600  0.34444400  0.98958200  1
  O  O0  1  0.18220900  0.82834600  0.58621500  1
  O  O1  1  0.04370600  0.52194700  0.34004700  1
  O  O2  1  0.29512000  0.64738300  0.10575100  1
  O  O3  1  0.00717700  0.00407300  0.30239600  1
  O  O4  1  0.01423400  0.00715500  0.79335100  1
  O  O5  1  0.18187500  0.35449900  0.58603800  1
  O  O6  1  0.46686900  0.95961400  0.35001700  1
  O  O7  1  0.46754800  0.50736600  0.35014800  1
  O  O8  1  0.33997400  0.17019100  0.10674200  1
  O  O9  1  0.66182400  0.83084100  0.57954600  1
  O  O10  1  0.50300800  0.46704500  0.85246100  1
  O  O11  1  0.50363100  0.03460200  0.85167300  1
  O  O12  1  0.63792000  0.31920500  0.60826600  1
  O  O13  1  0.83682100  0.66878300  0.08973800  1
  O  O14  1  0.96663200  0.48383000  0.85044200  1
  O  O15  1  0.83573100  0.16892800  0.08930900  1
loop_
_geom_bond_atom_site_label_1
_geom_bond_atom_site_label_2
_geom_bond_distance
_geom_bond_site_symmetry_2
Li0 O14 1.939146 1_455
Li0 O2 1.984405 1_556
Li0 O11 1.995855 1_565
Li0 O10 1.998612 1_555
Li1 O4 1.874373 1_665
Li1 O13 1.992239 1_556
Li1 O15 1.998927 1_566
Li1 O8 2.170351 1_666
Li2 O3 1.859358 1_555
Li2 O9 2.002728 1_445
Li2 O5 2.030975 1_555
Li2 O0 2.032919 1_545
Li3 O12 1.983813 1_555
Li3 O6 2.015794 1_545
Li3 O7 2.016362 1_555
Li3 O1 2.063147 1_655
Co0 O2 2.058856 1_555
Co0 O3 2.075713 1_665
Co0 O7 2.136874 1_555
Co0 O6 2.139674 1_555
Co0 O13 2.166911 1_555
Co0 O15 2.176490 1_565
Co1 O4 1.985635 1_665
Co1 O12 2.017219 1_555
Co1 O14 2.086264 1_555
Co1 O0 2.203556 1_655
Co1 O9 2.206249 1_555
Co1 O10 2.219746 1_555
Co2 O4 1.985489 1_655
Co2 O12 2.017260 1_555
Co2 O14 2.088013 1_555
Co2 O5 2.200242 1_655
Co2 O9 2.211667 1_545
Co2 O11 2.214148 1_555
O0 W0 1.896942 1_555
O0 Ti2 2.308058 1_565
O1 Ti0 2.065627 1_555
O1 Ti1 2.067632 1_555
O1 W0 2.113228 1_555
O2 Ti1 1.944709 1_555
O2 Ti0 1.945254 1_555
O3 Ti1 1.949334 1_555
O3 Ti0 1.951632 1_545
O4 Ti2 1.891905 1_555
O5 W0 1.896718 1_555
O5 Ti2 2.320187 1_555
O6 Ti0 1.972811 1_555
O6 W0 2.046609 1_555
O7 Ti1 1.963638 1_555
O7 W0 2.050465 1_555
O8 Ti1 2.020720 1_555
O8 Ti0 2.025311 1_545
O8 W1 2.161082 1_554
O9 W0 1.865968 1_555
O10 Ti2 1.896502 1_555
O10 W1 2.093032 1_555
O11 Ti2 1.890677 1_555
O11 W1 2.100068 1_555
O12 Ti2 1.904301 1_555
O13 W1 1.945009 1_554
O13 Ti0 2.149890 1_655
O14 W1 1.995917 1_555
O15 W1 1.928560 1_554
O15 Ti1 2.169971 1_655
