# generated using pymatgen
data_Mn6O7F5
_symmetry_space_group_name_H-M   'P 1'
_cell_length_a   4.69724700
_cell_length_b   5.58230052
_cell_length_c   7.75104139
_cell_angle_alpha   85.92091239
_cell_angle_beta   88.59358790
_cell_angle_gamma   88.43078251
_symmetry_Int_Tables_number   1
_chemical_formula_structural   Mn6O7F5
_chemical_formula_sum   'Mn6 O7 F5'
_cell_volume   202.60057334
_cell_formula_units_Z   1
loop_
 _symmetry_equiv_pos_site_id
 _symmetry_equiv_pos_as_xyz
  1  'x, y, z'
loop_
 _atom_site_type_symbol
 _atom_site_label
 _atom_site_symmetry_multiplicity
 _atom_site_fract_x
 _atom_site_fract_y
 _atom_site_fract_z
 _atom_site_occupancy
  Mn  Mn0  1  0.45894100  0.48705900  0.00590900  1
  Mn  Mn1  1  0.51575100  0.84499400  0.67500700  1
  Mn  Mn2  1  0.54294600  0.17783400  0.32773300  1
  Mn  Mn3  1  0.99248000  0.32377500  0.66772200  1
  Mn  Mn4  1  0.98983300  0.65895300  0.33670200  1
  Mn  Mn5  1  0.99908000  0.00718700  0.98572600  1
  O  O0  1  0.81033100  0.37668000  0.44645900  1
  O  O1  1  0.81123600  0.03523900  0.76528100  1
  O  O2  1  0.69777200  0.20732800  0.09496100  1
  O  O3  1  0.69567700  0.87486000  0.43530300  1
  O  O4  1  0.30737200  0.46020800  0.23835600  1
  O  O5  1  0.30394500  0.79403400  0.90085200  1
  O  O6  1  0.18468200  0.28566300  0.88968500  1
  F  F0  1  0.80369300  0.71273200  0.08671500  1
  F  F1  1  0.68834800  0.52373400  0.78157600  1
  F  F2  1  0.30586400  0.14104200  0.55007100  1
  F  F3  1  0.20634000  0.62842900  0.58427500  1
  F  F4  1  0.18571000  0.96025000  0.22766600  1
loop_
_geom_bond_atom_site_label_1
_geom_bond_atom_site_label_2
_geom_bond_distance
_geom_bond_site_symmetry_2
Mn0 O4 1.918320 1_555
Mn0 O5 1.972794 1_554
Mn0 O2 1.990508 1_555
Mn0 O6 2.003868 1_554
Mn1 O1 1.943716 1_565
Mn1 O5 1.998573 1_555
Mn1 O3 2.020063 1_555
Mn2 O2 1.926428 1_555
Mn2 O3 1.957710 1_545
Mn2 O0 1.983655 1_555
Mn2 O4 1.993948 1_555
Mn3 O0 1.935637 1_555
Mn3 O1 1.939373 1_555
Mn3 O6 1.958042 1_655
Mn4 O0 1.940218 1_555
Mn4 O3 1.983406 1_555
Mn4 O4 2.002645 1_655
Mn5 O6 1.899617 1_655
Mn5 O1 1.936755 1_555
Mn5 O5 1.967511 1_645
Mn5 O2 1.989320 1_556
F0 Mn5 2.005300 1_564
F0 Mn4 2.143633 1_555
F0 Mn0 2.208055 1_555
F1 Mn3 2.014082 1_555
F1 Mn0 2.023866 1_556
F1 Mn1 2.073225 1_555
F2 Mn3 2.005804 1_455
F2 Mn2 2.029843 1_555
F2 Mn1 2.090665 1_545
F3 Mn3 2.055466 1_455
F3 Mn1 2.082252 1_555
F3 Mn4 2.187567 1_455
F4 Mn4 2.057684 1_455
F4 Mn5 2.086164 1_464
F4 Mn2 2.280835 1_565
