# generated using pymatgen
data_Sn3(OF)2
_symmetry_space_group_name_H-M   'P 1'
_cell_length_a   5.60870600
_cell_length_b   6.77376200
_cell_length_c   15.53271000
_cell_angle_alpha   90.00000000
_cell_angle_beta   90.00000000
_cell_angle_gamma   90.00000000
_symmetry_Int_Tables_number   1
_chemical_formula_structural   Sn3(OF)2
_chemical_formula_sum   'Sn12 O8 F8'
_cell_volume   590.11933298
_cell_formula_units_Z   4
loop_
 _symmetry_equiv_pos_site_id
 _symmetry_equiv_pos_as_xyz
  1  'x, y, z'
loop_
 _atom_site_type_symbol
 _atom_site_label
 _atom_site_symmetry_multiplicity
 _atom_site_fract_x
 _atom_site_fract_y
 _atom_site_fract_z
 _atom_site_occupancy
  Sn  Sn0  1  0.25000000  0.15863400  0.03591700  1
  Sn  Sn1  1  0.25000000  0.66464700  0.09924900  1
  Sn  Sn2  1  0.75000000  0.01043500  0.18157600  1
  Sn  Sn3  1  0.25000000  0.51043500  0.31842400  1
  Sn  Sn4  1  0.75000000  0.16464700  0.40075100  1
  Sn  Sn5  1  0.75000000  0.65863400  0.46408300  1
  Sn  Sn6  1  0.25000000  0.34136600  0.53591700  1
  Sn  Sn7  1  0.25000000  0.83535300  0.59924900  1
  Sn  Sn8  1  0.75000000  0.48956500  0.68157600  1
  Sn  Sn9  1  0.25000000  0.98956500  0.81842400  1
  Sn  Sn10  1  0.75000000  0.33535300  0.90075100  1
  Sn  Sn11  1  0.75000000  0.84136600  0.96408300  1
  O  O0  1  0.50075500  0.90839700  0.08164900  1
  O  O1  1  0.99924500  0.90839700  0.08164900  1
  O  O2  1  0.00075500  0.40839700  0.41835100  1
  O  O3  1  0.49924500  0.40839700  0.41835100  1
  O  O4  1  0.50075500  0.59160300  0.58164900  1
  O  O5  1  0.99924500  0.59160300  0.58164900  1
  O  O6  1  0.00075500  0.09160300  0.91835100  1
  O  O7  1  0.49924500  0.09160300  0.91835100  1
  F  F0  1  0.75000000  0.35307900  0.03613200  1
  F  F1  1  0.25000000  0.23655500  0.25814500  1
  F  F2  1  0.75000000  0.73655500  0.24185500  1
  F  F3  1  0.25000000  0.85307900  0.46386800  1
  F  F4  1  0.75000000  0.14692100  0.53613200  1
  F  F5  1  0.25000000  0.26344500  0.75814500  1
  F  F6  1  0.75000000  0.76344500  0.74185500  1
  F  F7  1  0.25000000  0.64692100  0.96386800  1
loop_
_geom_bond_atom_site_label_1
_geom_bond_atom_site_label_2
_geom_bond_distance
_geom_bond_site_symmetry_2
O0 Sn1 2.186063 1_555
O0 Sn2 2.200251 1_565
O0 Sn0 2.314251 1_565
O0 Sn11 2.344166 1_554
O1 Sn1 2.186063 1_655
O1 Sn2 2.200251 1_565
O1 Sn0 2.314251 1_665
O1 Sn11 2.344166 1_554
O2 Sn4 2.186063 1_455
O2 Sn3 2.200251 1_555
O2 Sn5 2.314251 1_455
O2 Sn6 2.344166 1_555
O3 Sn4 2.186063 1_555
O3 Sn3 2.200251 1_555
O3 Sn5 2.314251 1_555
O3 Sn6 2.344166 1_555
O4 Sn7 2.186063 1_555
O4 Sn8 2.200251 1_555
O4 Sn6 2.314251 1_555
O4 Sn5 2.344166 1_555
O5 Sn7 2.186063 1_655
O5 Sn8 2.200251 1_555
O5 Sn6 2.314251 1_655
O5 Sn5 2.344166 1_555
O6 Sn10 2.186063 1_455
O6 Sn9 2.200251 1_545
O6 Sn11 2.314251 1_445
O6 Sn0 2.344166 1_556
O7 Sn10 2.186063 1_555
O7 Sn9 2.200251 1_545
O7 Sn11 2.314251 1_545
O7 Sn0 2.344166 1_556
F0 Sn10 2.106259 1_554
F1 Sn3 2.078078 1_555
F2 Sn2 2.078078 1_565
F3 Sn7 2.106259 1_555
F4 Sn4 2.106259 1_555
F5 Sn9 2.078078 1_545
F6 Sn8 2.078078 1_555
F7 Sn1 2.106259 1_556
