# generated using pymatgen
data_BaSr2I6
_symmetry_space_group_name_H-M   'P 1'
_cell_length_a   8.27989800
_cell_length_b   8.50314100
_cell_length_c   24.78888260
_cell_angle_alpha   87.57198391
_cell_angle_beta   90.00000000
_cell_angle_gamma   90.00000000
_symmetry_Int_Tables_number   1
_chemical_formula_structural   BaSr2I6
_chemical_formula_sum   'Ba4 Sr8 I24'
_cell_volume   1743.69791562
_cell_formula_units_Z   4
loop_
 _symmetry_equiv_pos_site_id
 _symmetry_equiv_pos_as_xyz
  1  'x, y, z'
loop_
 _atom_site_type_symbol
 _atom_site_label
 _atom_site_symmetry_multiplicity
 _atom_site_fract_x
 _atom_site_fract_y
 _atom_site_fract_z
 _atom_site_occupancy
  Ba  Ba0  1  0.96145500  0.83325200  0.59403800  1
  Ba  Ba1  1  0.53854500  0.83325200  0.09403800  1
  Ba  Ba2  1  0.46145500  0.16674800  0.90596200  1
  Ba  Ba3  1  0.03854500  0.16674800  0.40596200  1
  Sr  Sr0  1  0.46184900  0.76768300  0.74296900  1
  Sr  Sr1  1  0.02990400  0.66171700  0.90723400  1
  Sr  Sr2  1  0.03815100  0.76768300  0.24296900  1
  Sr  Sr3  1  0.47009600  0.66171700  0.40723400  1
  Sr  Sr4  1  0.52990400  0.33828300  0.59276600  1
  Sr  Sr5  1  0.96184900  0.23231700  0.75703100  1
  Sr  Sr6  1  0.97009600  0.33828300  0.09276600  1
  Sr  Sr7  1  0.53815100  0.23231700  0.25703100  1
  I  I0  1  0.19504800  0.95475100  0.81987500  1
  I  I1  1  0.71422700  0.89561400  0.83966500  1
  I  I2  1  0.28635100  0.86107600  0.98205800  1
  I  I3  1  0.30495200  0.95475100  0.31987500  1
  I  I4  1  0.78577300  0.89561400  0.33966500  1
  I  I5  1  0.21364900  0.86107600  0.48205800  1
  I  I6  1  0.69449700  0.63227300  0.51713500  1
  I  I7  1  0.27342700  0.59594600  0.64551600  1
  I  I8  1  0.76079700  0.53536100  0.68683400  1
  I  I9  1  0.26079700  0.46463900  0.81316600  1
  I  I10  1  0.80550300  0.63227300  0.01713500  1
  I  I11  1  0.77342700  0.40405400  0.85448400  1
  I  I12  1  0.22657300  0.59594600  0.14551600  1
  I  I13  1  0.19449700  0.36772700  0.98286500  1
  I  I14  1  0.73920300  0.53536100  0.18683400  1
  I  I15  1  0.23920300  0.46463900  0.31316600  1
  I  I16  1  0.72657300  0.40405400  0.35448400  1
  I  I17  1  0.30550300  0.36772700  0.48286500  1
  I  I18  1  0.78635100  0.13892400  0.51794200  1
  I  I19  1  0.21422700  0.10438600  0.66033500  1
  I  I20  1  0.69504800  0.04524900  0.68012500  1
  I  I21  1  0.71364900  0.13892400  0.01794200  1
  I  I22  1  0.28577300  0.10438600  0.16033500  1
  I  I23  1  0.80495200  0.04524900  0.18012500  1
loop_
_geom_bond_atom_site_label_1
_geom_bond_atom_site_label_2
_geom_bond_distance
_geom_bond_site_symmetry_2
Ba0 I6 3.422935 1_555
Ba0 I18 3.464186 1_565
Ba0 I5 3.473623 1_655
Ba0 I7 3.486303 1_655
Ba0 I19 3.566162 1_665
Ba0 I20 3.604866 1_565
Ba0 I8 3.738210 1_555
Ba1 I10 3.422935 1_555
Ba1 I21 3.464186 1_565
Ba1 I2 3.473623 1_554
Ba1 I12 3.486303 1_555
Ba1 I22 3.566162 1_565
Ba1 I23 3.604866 1_565
Ba1 I14 3.738210 1_555
Ba2 I13 3.422935 1_555
Ba2 I2 3.464186 1_545
Ba2 I21 3.473623 1_556
Ba2 I11 3.486303 1_555
Ba2 I1 3.566162 1_545
Ba2 I0 3.604866 1_545
Ba2 I9 3.738210 1_555
Ba3 I17 3.422935 1_555
Ba3 I5 3.464186 1_545
Ba3 I18 3.473623 1_455
Ba3 I16 3.486303 1_455
Ba3 I4 3.566162 1_445
Ba3 I3 3.604866 1_545
Ba3 I15 3.738210 1_555
I0 Sr0 3.361789 1_555
I0 Sr5 3.378463 1_465
I0 Sr1 3.508657 1_555
I1 Sr0 3.393598 1_555
I1 Sr1 3.648371 1_655
I1 Sr5 4.012441 1_565
I2 Sr1 3.330010 1_555
I3 Sr2 3.361789 1_555
I3 Sr7 3.378463 1_565
I3 Sr3 3.508657 1_555
I4 Sr2 3.393598 1_655
I4 Sr3 3.648371 1_555
I4 Sr7 4.012441 1_565
I5 Sr3 3.330010 1_555
I6 Sr3 3.298341 1_555
I6 Sr4 3.350263 1_555
I7 Sr0 3.271269 1_555
I7 Sr4 3.355968 1_555
I8 Sr5 3.472646 1_555
I8 Sr0 3.492653 1_555
I8 Sr4 3.497382 1_555
I9 Sr0 3.472646 1_555
I9 Sr5 3.492653 1_455
I9 Sr1 3.497382 1_555
I10 Sr1 3.298341 1_654
I10 Sr6 3.350263 1_555
I11 Sr5 3.271269 1_555
I11 Sr1 3.355968 1_655
I12 Sr2 3.271269 1_555
I12 Sr6 3.355968 1_455
I13 Sr6 3.298341 1_456
I13 Sr1 3.350263 1_555
I14 Sr7 3.472646 1_555
I14 Sr2 3.492653 1_655
I14 Sr6 3.497382 1_555
I15 Sr2 3.472646 1_555
I15 Sr7 3.492653 1_555
I15 Sr3 3.497382 1_555
I16 Sr7 3.271269 1_555
I16 Sr3 3.355968 1_555
I17 Sr4 3.298341 1_555
I17 Sr3 3.350263 1_555
I18 Sr4 3.330010 1_555
I19 Sr5 3.393598 1_455
I19 Sr4 3.648371 1_555
I19 Sr0 4.012441 1_545
I20 Sr5 3.361789 1_555
I20 Sr0 3.378463 1_545
I20 Sr4 3.508657 1_555
I21 Sr6 3.330010 1_555
I22 Sr7 3.393598 1_555
I22 Sr6 3.648371 1_455
I22 Sr2 4.012441 1_545
I23 Sr7 3.361789 1_555
I23 Sr2 3.378463 1_645
I23 Sr6 3.508657 1_555
