# generated using pymatgen
data_Li4V(TeO4)3
_symmetry_space_group_name_H-M   'P 1'
_cell_length_a   8.74833000
_cell_length_b   5.04803500
_cell_length_c   5.22390707
_cell_angle_alpha   87.00631712
_cell_angle_beta   90.00000000
_cell_angle_gamma   90.00000000
_symmetry_Int_Tables_number   1
_chemical_formula_structural   Li4V(TeO4)3
_chemical_formula_sum   'Li4 V1 Te3 O12'
_cell_volume   230.38270332
_cell_formula_units_Z   1
loop_
 _symmetry_equiv_pos_site_id
 _symmetry_equiv_pos_as_xyz
  1  'x, y, z'
loop_
 _atom_site_type_symbol
 _atom_site_label
 _atom_site_symmetry_multiplicity
 _atom_site_fract_x
 _atom_site_fract_y
 _atom_site_fract_z
 _atom_site_occupancy
  Li  Li0  1  0.29564900  0.00000000  0.00000000  1
  Li  Li1  1  0.14855400  0.50000000  0.00000000  1
  Li  Li2  1  0.70148300  0.00000000  0.50000000  1
  Li  Li3  1  0.81312000  0.50000000  0.50000000  1
  V  V0  1  0.89718400  0.00000000  0.00000000  1
  Te  Te0  1  0.60079800  0.50000000  0.00000000  1
  Te  Te1  1  0.07555500  0.00000000  0.50000000  1
  Te  Te2  1  0.39908700  0.50000000  0.50000000  1
  O  O0  1  0.75047600  0.26136700  0.85519900  1
  O  O1  1  0.43821400  0.28471400  0.85365900  1
  O  O2  1  0.06075300  0.20414500  0.81087400  1
  O  O3  1  0.58443000  0.69933300  0.66903000  1
  O  O4  1  0.90520500  0.80651000  0.68028400  1
  O  O5  1  0.22466900  0.77782900  0.67930300  1
  O  O6  1  0.22466900  0.22217100  0.32069700  1
  O  O7  1  0.90520500  0.19349000  0.31971600  1
  O  O8  1  0.58443000  0.30066700  0.33097000  1
  O  O9  1  0.06075300  0.79585500  0.18912600  1
  O  O10  1  0.43821400  0.71528600  0.14634100  1
  O  O11  1  0.75047600  0.73863300  0.14480100  1
loop_
_geom_bond_atom_site_label_1
_geom_bond_atom_site_label_2
_geom_bond_distance
_geom_bond_site_symmetry_2
Li0 O1 2.022585 1_554
Li0 O10 2.022585 1_545
Li0 O6 2.155519 1_555
Li0 O5 2.155519 1_544
Li0 O2 2.480838 1_554
Li0 O9 2.480838 1_545
Li1 O9 1.987641 1_555
Li1 O2 1.987641 1_554
Li1 O5 2.229699 1_554
Li1 O6 2.229699 1_555
Li2 O8 1.997989 1_555
Li2 O3 1.997989 1_545
Li2 O4 2.218387 1_545
Li2 O7 2.218387 1_555
Li2 O0 2.371326 1_555
Li2 O11 2.371326 1_545
Li3 O7 2.020445 1_555
Li3 O4 2.020445 1_555
Li3 O0 2.227324 1_555
Li3 O11 2.227324 1_555
Li3 O3 2.426444 1_555
Li3 O8 2.426444 1_555
O0 Te0 1.957831 1_556
O0 V0 1.963662 1_556
O1 Te0 1.968582 1_556
O1 Te2 2.121723 1_555
O2 Te1 1.972529 1_555
O2 V0 1.994838 1_456
O3 Te0 1.959743 1_556
O3 Te2 2.124637 1_555
O4 V0 1.979597 1_566
O4 Te1 1.991441 1_665
O5 Te1 1.930583 1_565
O5 Te2 2.304300 1_555
O6 Te1 1.930583 1_555
O6 Te2 2.304300 1_555
O7 V0 1.979597 1_555
O7 Te1 1.991441 1_655
O8 Te0 1.959743 1_555
O8 Te2 2.124637 1_555
O9 Te1 1.972529 1_565
O9 V0 1.994838 1_465
O10 Te0 1.968582 1_555
O10 Te2 2.121723 1_555
O11 Te0 1.957831 1_555
O11 V0 1.963662 1_565
