# generated using pymatgen
data_Mg7Mn5O12
_symmetry_space_group_name_H-M   'P 1'
_cell_length_a   3.08715555
_cell_length_b   3.08715555
_cell_length_c   30.38798300
_cell_angle_alpha   90.00000000
_cell_angle_beta   90.00000000
_cell_angle_gamma   119.99999032
_symmetry_Int_Tables_number   1
_chemical_formula_structural   Mg7Mn5O12
_chemical_formula_sum   'Mg7 Mn5 O12'
_cell_volume   250.81272884
_cell_formula_units_Z   1
loop_
 _symmetry_equiv_pos_site_id
 _symmetry_equiv_pos_as_xyz
  1  'x, y, z'
loop_
 _atom_site_type_symbol
 _atom_site_label
 _atom_site_symmetry_multiplicity
 _atom_site_fract_x
 _atom_site_fract_y
 _atom_site_fract_z
 _atom_site_occupancy
  Mg  Mg0  1  0.33333300  0.66666700  0.16648400  1
  Mg  Mg1  1  0.33333300  0.66666700  0.41855200  1
  Mg  Mg2  1  0.33333300  0.66666700  0.66809500  1
  Mg  Mg3  1  0.66666700  0.33333300  0.58664000  1
  Mg  Mg4  1  0.00000000  0.00000000  0.74977900  1
  Mg  Mg5  1  0.33333300  0.66666700  0.91234900  1
  Mg  Mg6  1  0.66666700  0.33333300  0.83128700  1
  Mn  Mn0  1  0.00000000  0.00000000  0.99636700  1
  Mn  Mn1  1  0.66666700  0.33333300  0.08389300  1
  Mn  Mn2  1  0.00000000  0.00000000  0.24878400  1
  Mn  Mn3  1  0.66666700  0.33333300  0.33553500  1
  Mn  Mn4  1  0.00000000  0.00000000  0.50223600  1
  O  O0  1  0.33333300  0.66666700  0.04029400  1
  O  O1  1  0.00000000  0.00000000  0.12785800  1
  O  O2  1  0.66666700  0.33333300  0.20505300  1
  O  O3  1  0.33333300  0.66666700  0.29207500  1
  O  O4  1  0.00000000  0.00000000  0.37952200  1
  O  O5  1  0.66666700  0.33333300  0.45768200  1
  O  O6  1  0.33333300  0.66666700  0.54691400  1
  O  O7  1  0.00000000  0.00000000  0.62731100  1
  O  O8  1  0.66666700  0.33333300  0.70893800  1
  O  O9  1  0.33333300  0.66666700  0.79060300  1
  O  O10  1  0.00000000  0.00000000  0.87189400  1
  O  O11  1  0.66666700  0.33333300  0.95185800  1
loop_
_geom_bond_atom_site_label_1
_geom_bond_atom_site_label_2
_geom_bond_distance
_geom_bond_site_symmetry_2
Mg0 O2 2.133190 1_455
Mg0 O2 2.133190 1_565
Mg0 O2 2.133195 1_555
Mg0 O1 2.134142 1_565
Mg0 O1 2.134145 1_555
Mg0 O1 2.134145 1_665
Mg1 O4 2.140919 1_565
Mg1 O4 2.140921 1_555
Mg1 O4 2.140921 1_665
Mg1 O5 2.142604 1_455
Mg1 O5 2.142604 1_565
Mg1 O5 2.142608 1_555
Mg2 O7 2.170900 1_565
Mg2 O7 2.170903 1_555
Mg2 O7 2.170903 1_665
Mg2 O8 2.171925 1_455
Mg2 O8 2.171925 1_565
Mg2 O8 2.171929 1_555
Mg3 O6 2.152708 1_545
Mg3 O6 2.152708 1_655
Mg3 O6 2.152712 1_555
Mg3 O7 2.168942 1_655
Mg3 O7 2.168944 1_555
Mg3 O7 2.168944 1_665
Mg4 O9 2.171595 1_545
Mg4 O9 2.171597 1_445
Mg4 O9 2.171597 1_555
Mg4 O8 2.171890 1_455
Mg4 O8 2.171892 1_555
Mg4 O8 2.171892 1_445
Mg5 O11 2.149017 1_455
Mg5 O11 2.149017 1_565
Mg5 O11 2.149021 1_555
Mg5 O10 2.165208 1_565
Mg5 O10 2.165211 1_555
Mg5 O10 2.165211 1_665
Mg6 O10 2.167834 1_655
Mg6 O10 2.167837 1_665
Mg6 O10 2.167837 1_555
Mg6 O9 2.169167 1_545
Mg6 O9 2.169167 1_655
Mg6 O9 2.169171 1_555
Mn0 O0 2.226807 1_546
Mn0 O0 2.226809 1_556
Mn0 O0 2.226809 1_446
Mn0 O11 2.237453 1_455
Mn0 O11 2.237456 1_445
Mn0 O11 2.237456 1_555
Mn1 O0 2.220847 1_655
Mn1 O0 2.220847 1_545
Mn1 O0 2.220851 1_555
Mn1 O1 2.227499 1_655
Mn1 O1 2.227502 1_555
Mn1 O1 2.227502 1_665
Mn2 O3 2.215276 1_545
Mn2 O3 2.215278 1_555
Mn2 O3 2.215278 1_445
Mn2 O2 2.223242 1_455
Mn2 O2 2.223244 1_445
Mn2 O2 2.223244 1_555
Mn3 O3 2.218329 1_545
Mn3 O3 2.218329 1_655
Mn3 O3 2.218333 1_555
Mn3 O4 2.227900 1_655
Mn3 O4 2.227903 1_555
Mn3 O4 2.227903 1_665
Mn4 O5 2.238280 1_455
Mn4 O5 2.238283 1_555
Mn4 O5 2.238283 1_445
Mn4 O6 2.240562 1_545
Mn4 O6 2.240564 1_445
Mn4 O6 2.240564 1_555
