# generated using pymatgen
data_Na6W10O33
_symmetry_space_group_name_H-M   'P 1'
_cell_length_a   7.73855300
_cell_length_b   8.24552044
_cell_length_c   12.32350962
_cell_angle_alpha   71.12206430
_cell_angle_beta   72.80241400
_cell_angle_gamma   79.14608025
_symmetry_Int_Tables_number   1
_chemical_formula_structural   Na6W10O33
_chemical_formula_sum   'Na6 W10 O33'
_cell_volume   707.03736347
_cell_formula_units_Z   1
loop_
 _symmetry_equiv_pos_site_id
 _symmetry_equiv_pos_as_xyz
  1  'x, y, z'
loop_
 _atom_site_type_symbol
 _atom_site_label
 _atom_site_symmetry_multiplicity
 _atom_site_fract_x
 _atom_site_fract_y
 _atom_site_fract_z
 _atom_site_occupancy
  Na  Na0  1  0.14350300  0.84432400  0.77154000  1
  Na  Na1  1  0.89619400  0.65687800  0.21481000  1
  Na  Na2  1  0.63316200  0.38706800  0.75979700  1
  Na  Na3  1  0.36683800  0.61293200  0.24020300  1
  Na  Na4  1  0.10380600  0.34312200  0.78519000  1
  Na  Na5  1  0.85649700  0.15567600  0.22846000  1
  W  W0  1  0.67736400  0.93243900  0.68091300  1
  W  W1  1  0.71136100  0.60995900  0.98036200  1
  W  W2  1  0.55395400  0.77343200  0.50026900  1
  W  W3  1  0.28092400  0.98293000  0.02767700  1
  W  W4  1  0.05124000  0.77039500  0.50740100  1
  W  W5  1  0.94876000  0.22960500  0.49259900  1
  W  W6  1  0.71907600  0.01707000  0.97232300  1
  W  W7  1  0.44604600  0.22656800  0.49973100  1
  W  W8  1  0.28863900  0.39004100  0.01963800  1
  W  W9  1  0.32263600  0.06756100  0.31908700  1
  O  O0  1  0.93923400  0.96585300  0.61976700  1
  O  O1  1  0.85414000  0.81460800  0.92517200  1
  O  O2  1  0.46450200  0.94097400  0.62182900  1
  O  O3  1  0.67170700  0.72450300  0.79050500  1
  O  O4  1  0.78152200  0.81278100  0.53032300  1
  O  O5  1  0.77893100  0.99173100  0.10529200  1
  O  O6  1  0.30149200  0.83739800  0.47838900  1
  O  O7  1  0.38826000  0.92545800  0.22943000  1
  O  O8  1  0.88797000  0.47081100  0.92085500  1
  O  O9  1  0.50000000  0.50000000  0.00000000  1
  O  O10  1  0.66741100  0.71316700  0.37087900  1
  O  O11  1  0.51328500  0.57928300  0.61275800  1
  O  O12  1  0.06259400  0.61476300  0.64294600  1
  O  O13  1  0.51872500  0.84359700  0.00695800  1
  O  O14  1  0.29052500  0.45708000  0.86663900  1
  O  O15  1  0.15124100  0.82115000  0.13676800  1
  O  O16  1  0.10157400  0.65637600  0.40158700  1
  O  O17  1  0.89842600  0.34362400  0.59841300  1
  O  O18  1  0.84875900  0.17885000  0.86323200  1
  O  O19  1  0.70947500  0.54292000  0.13336100  1
  O  O20  1  0.48127500  0.15640300  0.99304200  1
  O  O21  1  0.93740600  0.38523700  0.35705400  1
  O  O22  1  0.48671500  0.42071700  0.38724200  1
  O  O23  1  0.33258900  0.28683300  0.62912100  1
  O  O24  1  0.11203000  0.52918900  0.07914500  1
  O  O25  1  0.61174000  0.07454200  0.77057000  1
  O  O26  1  0.69850800  0.16260200  0.52161100  1
  O  O27  1  0.22106900  0.00826900  0.89470800  1
  O  O28  1  0.21847800  0.18721900  0.46967700  1
  O  O29  1  0.32829300  0.27549700  0.20949500  1
  O  O30  1  0.53549800  0.05902600  0.37817100  1
  O  O31  1  0.14586000  0.18539200  0.07482800  1
  O  O32  1  0.06076600  0.03414700  0.38023300  1
loop_
_geom_bond_atom_site_label_1
_geom_bond_atom_site_label_2
_geom_bond_distance
_geom_bond_site_symmetry_2
Na0 O1 2.461354 1_455
Na0 O27 2.581419 1_565
Na0 O0 2.634417 1_455
Na0 O2 2.700664 1_555
Na1 O10 2.302969 1_555
Na1 O24 2.349240 1_655
Na1 O15 2.386733 1_655
Na1 O21 2.390014 1_555
Na1 O19 2.440808 1_555
Na1 O5 2.763615 1_555
Na2 O11 2.288638 1_555
Na2 O17 2.463220 1_555
Na2 O18 2.473596 1_555
Na2 O25 2.571422 1_555
Na2 O14 2.635971 1_555
Na2 O20 2.927027 1_555
Na3 O22 2.288638 1_555
Na3 O16 2.463220 1_555
Na3 O15 2.473596 1_555
Na3 O7 2.571422 1_555
Na3 O19 2.635971 1_555
Na3 O13 2.927027 1_555
Na4 O23 2.302969 1_555
Na4 O8 2.349240 1_455
Na4 O18 2.386733 1_455
Na4 O12 2.390014 1_555
Na4 O14 2.440808 1_555
Na4 O27 2.763615 1_555
Na5 O31 2.461354 1_655
Na5 O5 2.581419 1_545
Na5 O32 2.634417 1_655
Na5 O30 2.700664 1_555
O0 W0 1.980743 1_555
O0 W5 2.231062 1_565
O0 W4 2.339773 1_655
O1 W6 1.956639 1_565
O1 W1 2.011457 1_555
O2 W0 1.970014 1_555
O2 W2 2.235534 1_555
O2 W7 2.353163 1_565
O3 W0 1.805671 1_555
O3 W1 2.312111 1_555
O4 W4 1.999741 1_655
O4 W2 2.005585 1_555
O4 W0 2.251210 1_555
O5 W6 1.770364 1_564
O6 W2 1.999801 1_555
O6 W4 2.012242 1_555
O6 W9 2.235740 1_565
O7 W9 1.770153 1_565
O8 W1 1.755933 1_555
O9 W8 1.933479 1_555
O9 W1 1.933479 1_554
O10 W2 1.755252 1_555
O11 W2 1.754767 1_555
O12 W4 1.761225 1_555
O13 W3 1.971627 1_555
O13 W6 2.163513 1_564
O13 W1 2.253677 1_554
O14 W8 1.781333 1_556
O15 W3 1.771953 1_555
O16 W4 1.758142 1_555
O17 W5 1.758142 1_555
O18 W6 1.771953 1_555
O19 W1 1.781333 1_554
O20 W6 1.971627 1_555
O20 W3 2.163513 1_546
O20 W8 2.253677 1_556
O21 W5 1.761225 1_555
O22 W7 1.754767 1_555
O23 W7 1.755252 1_555
O24 W8 1.755933 1_555
O25 W0 1.770153 1_545
O26 W7 1.999801 1_555
O26 W5 2.012242 1_555
O26 W0 2.235740 1_545
O27 W3 1.770364 1_546
O28 W5 1.999741 1_455
O28 W7 2.005585 1_555
O28 W9 2.251210 1_555
O29 W9 1.805671 1_555
O29 W8 2.312111 1_555
O30 W9 1.970014 1_555
O30 W7 2.235534 1_555
O30 W2 2.353163 1_545
O31 W3 1.956639 1_545
O31 W8 2.011457 1_555
O32 W9 1.980743 1_555
O32 W4 2.231062 1_545
O32 W5 2.339773 1_455
