# generated using pymatgen
data_H6AuBrN2
_symmetry_space_group_name_H-M   'P 1'
_cell_length_a   7.07616600
_cell_length_b   11.60557800
_cell_length_c   13.27864500
_cell_angle_alpha   90.00000000
_cell_angle_beta   90.00000000
_cell_angle_gamma   90.00000000
_symmetry_Int_Tables_number   1
_chemical_formula_structural   H6AuBrN2
_chemical_formula_sum   'H48 Au8 Br8 N16'
_cell_volume   1090.48211625
_cell_formula_units_Z   8
loop_
 _symmetry_equiv_pos_site_id
 _symmetry_equiv_pos_as_xyz
  1  'x, y, z'
loop_
 _atom_site_type_symbol
 _atom_site_label
 _atom_site_symmetry_multiplicity
 _atom_site_fract_x
 _atom_site_fract_y
 _atom_site_fract_z
 _atom_site_occupancy
  H  H0  1  0.50782700  0.45891900  0.39694100  1
  H  H1  1  0.00782700  0.04108100  0.10305900  1
  H  H2  1  0.49217300  0.95891900  0.60305900  1
  H  H3  1  0.99217300  0.54108100  0.89694100  1
  H  H4  1  0.49217300  0.54108100  0.60305900  1
  H  H5  1  0.99217300  0.95891900  0.89694100  1
  H  H6  1  0.50782700  0.04108100  0.39694100  1
  H  H7  1  0.00782700  0.45891900  0.10305900  1
  H  H8  1  0.73869700  0.45822200  0.42627000  1
  H  H9  1  0.23869700  0.04177800  0.07373000  1
  H  H10  1  0.26130300  0.95822200  0.57373000  1
  H  H11  1  0.76130300  0.54177800  0.92627000  1
  H  H12  1  0.26130300  0.54177800  0.57373000  1
  H  H13  1  0.76130300  0.95822200  0.92627000  1
  H  H14  1  0.73869700  0.04177800  0.42627000  1
  H  H15  1  0.23869700  0.45822200  0.07373000  1
  H  H16  1  0.66822600  0.45816800  0.30533900  1
  H  H17  1  0.16822600  0.04183200  0.19466100  1
  H  H18  1  0.33177400  0.95816800  0.69466100  1
  H  H19  1  0.83177400  0.54183200  0.80533900  1
  H  H20  1  0.33177400  0.54183200  0.69466100  1
  H  H21  1  0.83177400  0.95816800  0.80533900  1
  H  H22  1  0.66822600  0.04183200  0.30533900  1
  H  H23  1  0.16822600  0.45816800  0.19466100  1
  H  H24  1  0.10857900  0.17788700  0.81734700  1
  H  H25  1  0.60857900  0.32211300  0.68265300  1
  H  H26  1  0.89142100  0.67788700  0.18265300  1
  H  H27  1  0.39142100  0.82211300  0.31734700  1
  H  H28  1  0.89142100  0.82211300  0.18265300  1
  H  H29  1  0.39142100  0.67788700  0.31734700  1
  H  H30  1  0.10857900  0.32211300  0.81734700  1
  H  H31  1  0.60857900  0.17788700  0.68265300  1
  H  H32  1  0.96285300  0.25000000  0.74035900  1
  H  H33  1  0.46285300  0.25000000  0.75964100  1
  H  H34  1  0.03714700  0.75000000  0.25964100  1
  H  H35  1  0.53714700  0.75000000  0.24035900  1
  H  H36  1  0.66801700  0.25000000  0.09653700  1
  H  H37  1  0.16801700  0.25000000  0.40346300  1
  H  H38  1  0.33198300  0.75000000  0.90346300  1
  H  H39  1  0.83198300  0.75000000  0.59653700  1
  H  H40  1  0.52903500  0.32267500  0.01740900  1
  H  H41  1  0.02903500  0.17732500  0.48259100  1
  H  H42  1  0.47096500  0.82267500  0.98259100  1
  H  H43  1  0.97096500  0.67732500  0.51740900  1
  H  H44  1  0.47096500  0.67732500  0.98259100  1
  H  H45  1  0.97096500  0.82267500  0.51740900  1
  H  H46  1  0.52903500  0.17732500  0.01740900  1
  H  H47  1  0.02903500  0.32267500  0.48259100  1
  Au  Au0  1  0.63577500  0.25000000  0.37795400  1
  Au  Au1  1  0.13577500  0.25000000  0.12204600  1
  Au  Au2  1  0.36422500  0.75000000  0.62204600  1
  Au  Au3  1  0.86422500  0.75000000  0.87795400  1
  Au  Au4  1  0.82070900  0.25000000  0.91971000  1
  Au  Au5  1  0.32070900  0.25000000  0.58029000  1
  Au  Au6  1  0.17929100  0.75000000  0.08029000  1
  Au  Au7  1  0.67929100  0.75000000  0.41971000  1
  Br  Br0  1  0.65810700  0.53392800  0.12777300  1
  Br  Br1  1  0.15810700  0.96607200  0.37222700  1
  Br  Br2  1  0.34189300  0.03392800  0.87222700  1
  Br  Br3  1  0.84189300  0.46607200  0.62777300  1
  Br  Br4  1  0.34189300  0.46607200  0.87222700  1
  Br  Br5  1  0.84189300  0.03392800  0.62777300  1
  Br  Br6  1  0.65810700  0.96607200  0.12777300  1
  Br  Br7  1  0.15810700  0.53392800  0.37222700  1
  N  N0  1  0.63892800  0.42702900  0.37668400  1
  N  N1  1  0.13892800  0.07297100  0.12331600  1
  N  N2  1  0.36107200  0.92702900  0.62331600  1
  N  N3  1  0.86107200  0.57297100  0.87668400  1
  N  N4  1  0.36107200  0.57297100  0.62331600  1
  N  N5  1  0.86107200  0.92702900  0.87668400  1
  N  N6  1  0.63892800  0.07297100  0.37668400  1
  N  N7  1  0.13892800  0.42702900  0.12331600  1
  N  N8  1  0.02314500  0.25000000  0.80994900  1
  N  N9  1  0.52314500  0.25000000  0.69005100  1
  N  N10  1  0.97685500  0.75000000  0.19005100  1
  N  N11  1  0.47685500  0.75000000  0.30994900  1
  N  N12  1  0.61109500  0.25000000  0.02604200  1
  N  N13  1  0.11109500  0.25000000  0.47395800  1
  N  N14  1  0.38890500  0.75000000  0.97395800  1
  N  N15  1  0.88890500  0.75000000  0.52604200  1
loop_
_geom_bond_atom_site_label_1
_geom_bond_atom_site_label_2
_geom_bond_distance
_geom_bond_site_symmetry_2
H0 N0 1.034380 1_555
H1 N1 1.034380 1_555
H2 N2 1.034380 1_555
H3 N3 1.034380 1_555
H4 N4 1.034380 1_555
H5 N5 1.034380 1_555
H6 N6 1.034380 1_555
H7 N7 1.034380 1_555
H8 N0 1.031019 1_555
H9 N1 1.031019 1_555
H10 N2 1.031019 1_555
H11 N3 1.031019 1_555
H12 N4 1.031019 1_555
H13 N5 1.031019 1_555
H14 N6 1.031019 1_555
H15 N7 1.031019 1_555
H16 N0 1.034930 1_555
H17 N1 1.034930 1_555
H18 N2 1.034930 1_555
H19 N3 1.034930 1_555
H20 N4 1.034930 1_555
H21 N5 1.034930 1_555
H22 N6 1.034930 1_555
H23 N7 1.034930 1_555
H24 N8 1.037087 1_555
H25 N9 1.037087 1_555
H26 N10 1.037087 1_555
H27 N11 1.037087 1_555
H28 N10 1.037087 1_555
H29 N11 1.037087 1_555
H30 N8 1.037087 1_555
H31 N9 1.037087 1_555
H32 N8 1.017795 1_655
H33 N9 1.017795 1_555
H34 N10 1.017795 1_455
H35 N11 1.017795 1_555
H36 N12 1.019059 1_555
H37 N13 1.019059 1_555
H38 N14 1.019059 1_555
H39 N15 1.019059 1_555
H40 N12 1.030389 1_555
H41 N13 1.030389 1_555
H42 N14 1.030389 1_555
H43 N15 1.030389 1_555
H44 N14 1.030389 1_555
H45 N15 1.030389 1_555
H46 N12 1.030389 1_555
H47 N13 1.030389 1_555
Au0 N0 2.054714 1_555
Au0 N6 2.054714 1_555
Au1 N7 2.054714 1_555
Au1 N1 2.054714 1_555
Au2 N2 2.054714 1_555
Au2 N4 2.054714 1_555
Au3 N3 2.054714 1_555
Au3 N5 2.054714 1_555
Au4 N8 2.043578 1_655
Au4 N12 2.047842 1_556
Au5 N9 2.043578 1_555
Au5 N13 2.047842 1_555
Au6 N10 2.043578 1_455
Au6 N14 2.047842 1_554
Au7 N11 2.043578 1_555
Au7 N15 2.047842 1_555
