# generated using pymatgen
data_LiNiPO4
_symmetry_space_group_name_H-M   'P 1'
_cell_length_a   5.43753566
_cell_length_b   6.22565516
_cell_length_c   5.43753429
_cell_angle_alpha   76.58129115
_cell_angle_beta   62.05896484
_cell_angle_gamma   103.41863916
_symmetry_Int_Tables_number   1
_chemical_formula_structural   LiNiPO4
_chemical_formula_sum   'Li2 Ni2 P2 O8'
_cell_volume   145.20432830
_cell_formula_units_Z   2
loop_
 _symmetry_equiv_pos_site_id
 _symmetry_equiv_pos_as_xyz
  1  'x, y, z'
loop_
 _atom_site_type_symbol
 _atom_site_label
 _atom_site_symmetry_multiplicity
 _atom_site_fract_x
 _atom_site_fract_y
 _atom_site_fract_z
 _atom_site_occupancy
  Li  Li0  1  0.81227400  0.25000000  0.81227500  1
  Li  Li1  1  0.56227800  0.75000000  0.56227800  1
  Ni  Ni0  1  0.18697700  0.75000300  0.18696000  1
  Ni  Ni1  1  0.43697000  0.25000100  0.43697400  1
  P  P0  1  0.12119300  0.24999900  0.12119400  1
  P  P1  1  0.87118800  0.74999900  0.87118900  1
  O  O0  1  0.77919600  0.10790100  0.26911400  1
  O  O1  1  0.87697400  0.60788300  0.67131700  1
  O  O2  1  0.26911300  0.39209900  0.77919600  1
  O  O3  1  0.67131500  0.89211700  0.87697500  1
  O  O4  1  0.28905700  0.08742200  0.16721600  1
  O  O5  1  0.75462200  0.58743300  0.20163100  1
  O  O6  1  0.16721600  0.41257700  0.28905700  1
  O  O7  1  0.20162800  0.91256500  0.75462500  1
loop_
_geom_bond_atom_site_label_1
_geom_bond_atom_site_label_2
_geom_bond_distance
_geom_bond_site_symmetry_2
Li0 O1 2.065517 1_555
Li0 O3 2.065518 1_545
Li0 O4 2.335520 1_556
Li0 O6 2.335524 1_655
Li0 O2 2.339466 1_655
Li0 O0 2.339467 1_556
Li1 O0 2.065607 1_565
Li1 O2 2.065609 1_555
Li1 O5 2.335432 1_555
Li1 O7 2.335437 1_555
Li1 O1 2.339325 1_555
Li1 O3 2.339325 1_555
Ni0 O4 2.007656 1_565
Ni0 O6 2.007669 1_555
Ni0 O3 2.150851 1_554
Ni0 O1 2.150938 1_455
Ni0 O7 2.289074 1_554
Ni0 O5 2.289124 1_455
Ni1 O5 2.007711 1_555
Ni1 O7 2.007726 1_545
Ni1 O2 2.150716 1_555
Ni1 O0 2.150744 1_555
Ni1 O6 2.289021 1_555
Ni1 O4 2.289039 1_555
O0 P0 1.546689 1_655
O1 P1 1.546651 1_555
O2 P0 1.546695 1_556
O3 P1 1.546664 1_555
O4 P0 1.563808 1_555
O5 P1 1.563807 1_554
O6 P0 1.563810 1_555
O7 P1 1.563802 1_455
