# generated using pymatgen
data_LiMnSiO4
_symmetry_space_group_name_H-M   'P 1'
_cell_length_a   4.91435436
_cell_length_b   9.25090946
_cell_length_c   6.32511700
_cell_angle_alpha   90.00019718
_cell_angle_beta   89.99980528
_cell_angle_gamma   98.31893419
_symmetry_Int_Tables_number   1
_chemical_formula_structural   LiMnSiO4
_chemical_formula_sum   'Li4 Mn4 Si4 O16'
_cell_volume   284.52839787
_cell_formula_units_Z   4
loop_
 _symmetry_equiv_pos_site_id
 _symmetry_equiv_pos_as_xyz
  1  'x, y, z'
loop_
 _atom_site_type_symbol
 _atom_site_label
 _atom_site_symmetry_multiplicity
 _atom_site_fract_x
 _atom_site_fract_y
 _atom_site_fract_z
 _atom_site_occupancy
  Li  Li0  1  0.49001100  0.16332700  0.74999900  1
  Li  Li1  1  0.99001200  0.66332400  0.74999900  1
  Li  Li2  1  0.00998900  0.33667700  0.24999900  1
  Li  Li3  1  0.50999000  0.83667700  0.25000000  1
  Mn  Mn0  1  0.50003000  0.50000100  0.00000100  1
  Mn  Mn1  1  0.49997100  0.49998900  0.49999200  1
  Mn  Mn2  1  0.99997700  0.00002200  0.99998900  1
  Mn  Mn3  1  0.00002800  0.99997100  0.50000700  1
  Si  Si0  1  0.51914500  0.17308400  0.25000100  1
  Si  Si1  1  0.01914300  0.67308100  0.25000800  1
  Si  Si2  1  0.98085800  0.32692000  0.75000800  1
  Si  Si3  1  0.48085700  0.82691300  0.75000200  1
  O  O0  1  0.67265500  0.38257500  0.74999800  1
  O  O1  1  0.17265800  0.88257500  0.75000100  1
  O  O2  1  0.58973400  0.35515800  0.25000000  1
  O  O3  1  0.08972600  0.85516000  0.25000000  1
  O  O4  1  0.91027400  0.14484200  0.74999900  1
  O  O5  1  0.41026700  0.64484700  0.75000000  1
  O  O6  1  0.82734600  0.11742500  0.25000000  1
  O  O7  1  0.32734200  0.61743000  0.24999800  1
  O  O8  1  0.34896600  0.11631700  0.03650600  1
  O  O9  1  0.84898600  0.61632000  0.03650700  1
  O  O10  1  0.34896400  0.11631700  0.46349300  1
  O  O11  1  0.84895600  0.61631100  0.46349200  1
  O  O12  1  0.15101200  0.38368200  0.53650700  1
  O  O13  1  0.65103100  0.88368200  0.53651000  1
  O  O14  1  0.15103700  0.38369100  0.96348900  1
  O  O15  1  0.65103200  0.88368300  0.96349300  1
loop_
_geom_bond_atom_site_label_1
_geom_bond_atom_site_label_2
_geom_bond_distance
_geom_bond_site_symmetry_2
Li0 O10 1.966310 1_555
Li0 O8 1.966311 1_556
Li0 O0 2.095859 1_555
Li0 O4 2.096900 1_555
Li1 O9 1.966278 1_556
Li1 O11 1.966335 1_555
Li1 O1 2.095887 1_655
Li1 O5 2.096845 1_655
Li2 O12 1.966276 1_555
Li2 O14 1.966340 1_554
Li2 O6 2.095891 1_455
Li2 O2 2.096853 1_455
Li3 O15 1.966300 1_554
Li3 O13 1.966316 1_555
Li3 O7 2.095856 1_555
Li3 O3 2.096901 1_555
Mn0 O9 1.902131 1_555
Mn0 O14 1.902248 1_554
Mn0 O2 2.158962 1_555
Mn0 O5 2.159075 1_554
Mn0 O0 2.160294 1_554
Mn0 O7 2.160426 1_555
Mn1 O12 1.902101 1_555
Mn1 O11 1.902254 1_555
Mn1 O2 2.158934 1_555
Mn1 O5 2.159085 1_555
Mn1 O7 2.160349 1_555
Mn1 O0 2.160391 1_555
Mn2 O15 1.902159 1_545
Mn2 O8 1.902175 1_656
Mn2 O4 2.158781 1_555
Mn2 O3 2.159197 1_646
Mn2 O6 2.160226 1_556
Mn2 O1 2.160462 1_645
Mn3 O10 1.902164 1_565
Mn3 O13 1.902172 1_455
Mn3 O3 2.158789 1_555
Mn3 O4 2.159162 1_465
Mn3 O1 2.160119 1_555
Mn3 O6 2.160598 1_465
O0 Si2 1.668773 1_555
O1 Si3 1.668783 1_555
O2 Si0 1.669820 1_555
O3 Si1 1.669863 1_555
O4 Si2 1.669854 1_555
O5 Si3 1.669748 1_555
O6 Si0 1.668780 1_555
O7 Si1 1.668738 1_555
O8 Si0 1.634520 1_555
O9 Si1 1.634487 1_655
O10 Si0 1.634507 1_555
O11 Si1 1.634485 1_655
O12 Si2 1.634481 1_455
O13 Si3 1.634495 1_555
O14 Si2 1.634456 1_455
O15 Si3 1.634496 1_555
