# generated using pymatgen
data_Li4Cu3Ni3(WO8)2
_symmetry_space_group_name_H-M   'P 1'
_cell_length_a   5.93701364
_cell_length_b   5.93701364
_cell_length_c   9.86205736
_cell_angle_alpha   86.67741722
_cell_angle_beta   86.67741722
_cell_angle_gamma   58.24449779
_symmetry_Int_Tables_number   1
_chemical_formula_structural   Li4Cu3Ni3(WO8)2
_chemical_formula_sum   'Li4 Cu3 Ni3 W2 O16'
_cell_volume   294.92986611
_cell_formula_units_Z   1
loop_
 _symmetry_equiv_pos_site_id
 _symmetry_equiv_pos_as_xyz
  1  'x, y, z'
loop_
 _atom_site_type_symbol
 _atom_site_label
 _atom_site_symmetry_multiplicity
 _atom_site_fract_x
 _atom_site_fract_y
 _atom_site_fract_z
 _atom_site_occupancy
  Li  Li0  1  0.66344800  0.66344800  0.90818800  1
  Li  Li1  1  0.99890300  0.99890300  0.98658500  1
  Li  Li2  1  0.00725700  0.00725700  0.48780500  1
  Li  Li3  1  0.34354100  0.34354100  0.41360100  1
  Cu  Cu0  1  0.83812200  0.33733900  0.21139600  1
  Cu  Cu1  1  0.33733900  0.83812200  0.21139600  1
  Cu  Cu2  1  0.16849600  0.16849600  0.71253400  1
  Ni  Ni0  1  0.82950400  0.82950400  0.21547500  1
  Ni  Ni1  1  0.66251400  0.16978400  0.71249800  1
  Ni  Ni2  1  0.16978400  0.66251400  0.71249800  1
  W  W0  1  0.68745400  0.68745400  0.48916000  1
  W  W1  1  0.33874700  0.33874700  0.97878000  1
  O  O0  1  0.82347300  0.34020000  0.58424700  1
  O  O1  1  0.53100300  0.53100300  0.33338000  1
  O  O2  1  0.66320200  0.66320200  0.11802600  1
  O  O3  1  0.00227500  0.00227500  0.29803600  1
  O  O4  1  0.00377400  0.00377400  0.79888500  1
  O  O5  1  0.34020000  0.82347300  0.58424700  1
  O  O6  1  0.98060600  0.52855600  0.36476500  1
  O  O7  1  0.52855600  0.98060600  0.36476500  1
  O  O8  1  0.15332400  0.15332400  0.09299200  1
  O  O9  1  0.82783100  0.82783100  0.59921400  1
  O  O10  1  0.46898300  0.03392200  0.85087700  1
  O  O11  1  0.03392200  0.46898300  0.85087700  1
  O  O12  1  0.32991700  0.32991700  0.61835800  1
  O  O13  1  0.64156700  0.14337600  0.07868600  1
  O  O14  1  0.48444100  0.48444100  0.85171900  1
  O  O15  1  0.14337600  0.64156700  0.07868600  1
loop_
_geom_bond_atom_site_label_1
_geom_bond_atom_site_label_2
_geom_bond_distance
_geom_bond_site_symmetry_2
Li0 O11 1.936188 1_655
Li0 O10 1.936188 1_565
Li0 O14 1.973618 1_555
Li0 O2 2.069267 1_556
Li1 O4 1.848444 1_665
Li1 O8 1.972316 1_666
Li1 O13 2.003266 1_566
Li1 O15 2.003266 1_656
Li2 O3 1.875650 1_555
Li2 O0 1.957002 1_455
Li2 O5 1.957002 1_545
Li2 O9 2.097578 1_445
Li3 O6 1.910265 1_455
Li3 O7 1.910265 1_545
Li3 O12 2.014890 1_555
Li3 O1 2.050120 1_555
Cu0 O2 1.859791 1_555
Cu0 O3 1.869746 1_655
Cu0 O1 1.947628 1_555
Cu0 O8 1.949789 1_655
Cu0 O6 2.377051 1_555
Cu0 O13 2.483351 1_555
Cu1 O2 1.859791 1_555
Cu1 O3 1.869746 1_565
Cu1 O1 1.947628 1_555
Cu1 O8 1.949789 1_565
Cu1 O7 2.377051 1_555
Cu1 O15 2.483351 1_555
Cu2 O4 1.857860 1_555
Cu2 O12 1.860085 1_555
Cu2 O10 2.082761 1_555
Cu2 O11 2.082761 1_555
Cu2 O0 2.188321 1_455
Cu2 O5 2.188321 1_545
Ni0 O3 2.017018 1_665
Ni0 O2 2.029621 1_555
Ni0 O15 2.057143 1_655
Ni0 O13 2.057143 1_565
Ni0 O6 2.079876 1_555
Ni0 O7 2.079876 1_555
Ni1 O12 1.949137 1_555
Ni1 O4 1.950132 1_655
Ni1 O0 2.065404 1_555
Ni1 O9 2.090821 1_545
Ni1 O10 2.121182 1_555
Ni1 O14 2.131411 1_555
Ni2 O12 1.949137 1_555
Ni2 O4 1.950132 1_565
Ni2 O5 2.065404 1_555
Ni2 O9 2.090821 1_455
Ni2 O11 2.121182 1_555
Ni2 O14 2.131411 1_555
O0 W0 1.973110 1_555
O1 W0 2.307541 1_555
O5 W0 1.973110 1_555
O6 W0 1.892760 1_555
O7 W0 1.892760 1_555
O8 W1 2.163479 1_554
O9 W0 1.872967 1_555
O10 W1 2.035385 1_555
O11 W1 2.035385 1_555
O13 W1 1.851018 1_554
O14 W1 1.898129 1_555
O15 W1 1.851018 1_554
