# generated using pymatgen
data_MnPO4
_symmetry_space_group_name_H-M   'P 1'
_cell_length_a   8.62601986
_cell_length_b   8.62601986
_cell_length_c   8.62602012
_cell_angle_alpha   59.66299305
_cell_angle_beta   59.66299305
_cell_angle_gamma   59.66300148
_symmetry_Int_Tables_number   1
_chemical_formula_structural   MnPO4
_chemical_formula_sum   'Mn6 P6 O24'
_cell_volume   450.37916760
_cell_formula_units_Z   6
loop_
 _symmetry_equiv_pos_site_id
 _symmetry_equiv_pos_as_xyz
  1  'x, y, z'
loop_
 _atom_site_type_symbol
 _atom_site_label
 _atom_site_symmetry_multiplicity
 _atom_site_fract_x
 _atom_site_fract_y
 _atom_site_fract_z
 _atom_site_occupancy
  Mn  Mn0  1  0.00000000  0.00000000  0.00000000  1
  Mn  Mn1  1  0.35624800  0.35624800  0.35624800  1
  Mn  Mn2  1  0.85624800  0.85624800  0.85624800  1
  Mn  Mn3  1  0.50000000  0.50000000  0.50000000  1
  Mn  Mn4  1  0.14375200  0.14375200  0.14375200  1
  Mn  Mn5  1  0.64375200  0.64375200  0.64375200  1
  P  P0  1  0.04020100  0.45979900  0.75000000  1
  P  P1  1  0.45979900  0.75000000  0.04020100  1
  P  P2  1  0.75000000  0.04020100  0.45979900  1
  P  P3  1  0.25000000  0.95979900  0.54020100  1
  P  P4  1  0.54020100  0.25000000  0.95979900  1
  P  P5  1  0.95979900  0.54020100  0.25000000  1
  O  O0  1  0.48829500  0.69857800  0.88013300  1
  O  O1  1  0.69857800  0.88013300  0.48829500  1
  O  O2  1  0.88013300  0.48829500  0.69857800  1
  O  O3  1  0.05630500  0.26393700  0.91647400  1
  O  O4  1  0.01170500  0.61986700  0.80142200  1
  O  O5  1  0.23606300  0.44369500  0.58352600  1
  O  O6  1  0.26393700  0.91647400  0.05630500  1
  O  O7  1  0.44369500  0.58352600  0.23606300  1
  O  O8  1  0.19857800  0.98829500  0.38013300  1
  O  O9  1  0.58352600  0.23606300  0.44369500  1
  O  O10  1  0.08352600  0.94369500  0.73606300  1
  O  O11  1  0.38013300  0.19857800  0.98829500  1
  O  O12  1  0.61986700  0.80142200  0.01170500  1
  O  O13  1  0.91647400  0.05630500  0.26393700  1
  O  O14  1  0.41647400  0.76393700  0.55630500  1
  O  O15  1  0.80142200  0.01170500  0.61986700  1
  O  O16  1  0.55630500  0.41647400  0.76393700  1
  O  O17  1  0.73606300  0.08352600  0.94369500  1
  O  O18  1  0.76393700  0.55630500  0.41647400  1
  O  O19  1  0.98829500  0.38013300  0.19857800  1
  O  O20  1  0.94369500  0.73606300  0.08352600  1
  O  O21  1  0.11986700  0.51170500  0.30142200  1
  O  O22  1  0.30142200  0.11986700  0.51170500  1
  O  O23  1  0.51170500  0.30142200  0.11986700  1
loop_
_geom_bond_atom_site_label_1
_geom_bond_atom_site_label_2
_geom_bond_distance
_geom_bond_site_symmetry_2
Mn0 O20 2.246099 1_445
Mn0 O3 2.246099 1_554
Mn0 O13 2.246099 1_455
Mn0 O10 2.246099 1_544
Mn0 O17 2.246099 1_454
Mn0 O6 2.246099 1_545
Mn1 O22 1.936725 1_555
Mn1 O23 1.936725 1_555
Mn1 O21 1.936725 1_555
Mn1 O7 2.034236 1_555
Mn1 O5 2.034236 1_555
Mn1 O9 2.034236 1_555
Mn2 O12 1.936725 1_556
Mn2 O15 1.936725 1_565
Mn2 O4 1.936725 1_655
Mn2 O10 2.034236 1_655
Mn2 O20 2.034236 1_556
Mn2 O17 2.034236 1_565
Mn3 O5 2.246099 1_555
Mn3 O18 2.246099 1_555
Mn3 O7 2.246099 1_555
Mn3 O16 2.246099 1_555
Mn3 O14 2.246099 1_555
Mn3 O9 2.246099 1_555
Mn4 O11 1.936725 1_554
Mn4 O8 1.936725 1_545
Mn4 O19 1.936725 1_455
Mn4 O13 2.034236 1_455
Mn4 O3 2.034236 1_554
Mn4 O6 2.034236 1_545
Mn5 O1 1.936725 1_555
Mn5 O0 1.936725 1_555
Mn5 O2 1.936725 1_555
Mn5 O16 2.034236 1_555
Mn5 O18 2.034236 1_555
Mn5 O14 2.034236 1_555
O0 P1 1.526216 1_556
O1 P2 1.526216 1_565
O2 P0 1.526216 1_655
O3 P0 1.565076 1_555
O4 P0 1.526216 1_555
O5 P0 1.565076 1_555
O6 P1 1.565076 1_555
O7 P1 1.565076 1_555
O8 P3 1.526216 1_555
O9 P2 1.565076 1_555
O10 P3 1.565076 1_555
O11 P4 1.526216 1_555
O12 P1 1.526216 1_555
O13 P2 1.565076 1_555
O14 P3 1.565076 1_555
O15 P2 1.526216 1_555
O16 P4 1.565076 1_555
O17 P4 1.565076 1_555
O18 P5 1.565076 1_555
O19 P5 1.526216 1_555
O20 P5 1.565076 1_555
O21 P5 1.526216 1_455
O22 P3 1.526216 1_545
O23 P4 1.526216 1_554
