# generated using pymatgen
data_Li4Mn7O12
_symmetry_space_group_name_H-M   'P 1'
_cell_length_a   5.24574000
_cell_length_b   10.02083997
_cell_length_c   13.80620631
_cell_angle_alpha   79.32417815
_cell_angle_beta   79.90898779
_cell_angle_gamma   84.59974930
_symmetry_Int_Tables_number   1
_chemical_formula_structural   Li4Mn7O12
_chemical_formula_sum   'Li12 Mn21 O36'
_cell_volume   700.72541992
_cell_formula_units_Z   3
loop_
 _symmetry_equiv_pos_site_id
 _symmetry_equiv_pos_as_xyz
  1  'x, y, z'
loop_
 _atom_site_type_symbol
 _atom_site_label
 _atom_site_symmetry_multiplicity
 _atom_site_fract_x
 _atom_site_fract_y
 _atom_site_fract_z
 _atom_site_occupancy
  Li  Li0  1  0.47628000  0.75104000  0.30538600  1
  Li  Li1  1  0.05760400  0.50646600  0.89145200  1
  Li  Li2  1  0.39059100  0.50147900  0.21811000  1
  Li  Li3  1  0.27294000  0.51164800  0.44549500  1
  Li  Li4  1  0.22157600  0.99055900  0.05026200  1
  Li  Li5  1  0.78614200  0.99207200  0.94692900  1
  Li  Li6  1  0.11438800  0.99385100  0.28514400  1
  Li  Li7  1  0.81147700  0.75167900  0.63914900  1
  Li  Li8  1  0.72095900  0.50119900  0.55503500  1
  Li  Li9  1  0.58357100  0.51123000  0.78353400  1
  Li  Li10  1  0.44806500  0.99444000  0.61134300  1
  Li  Li11  1  0.13844800  0.74196700  0.97402600  1
  Mn  Mn0  1  0.86143400  0.25095100  0.02517400  1
  Mn  Mn1  1  0.66576000  0.99159800  0.17042100  1
  Mn  Mn2  1  0.37872100  0.75159600  0.52447500  1
  Mn  Mn3  1  0.59454700  0.74987500  0.08310600  1
  Mn  Mn4  1  0.15782500  0.50852200  0.66981600  1
  Mn  Mn5  1  0.20532900  0.24790400  0.36194200  1
  Mn  Mn6  1  0.07744100  0.24949500  0.58443600  1
  Mn  Mn7  1  0.96222600  0.24543400  0.80794400  1
  Mn  Mn8  1  0.99464200  0.99134200  0.49830500  1
  Mn  Mn9  1  0.29134700  0.25088200  0.13763600  1
  Mn  Mn10  1  0.69989900  0.75525900  0.86152900  1
  Mn  Mn11  1  0.04586100  0.74608800  0.19136600  1
  Mn  Mn12  1  0.91251000  0.75100000  0.41637500  1
  Mn  Mn13  1  0.49113300  0.50626400  0.00337800  1
  Mn  Mn14  1  0.82627800  0.50706100  0.33108400  1
  Mn  Mn15  1  0.52783000  0.25164800  0.69202300  1
  Mn  Mn16  1  0.41218900  0.24951900  0.91389200  1
  Mn  Mn17  1  0.74938200  0.24880500  0.24998400  1
  Mn  Mn18  1  0.32423800  0.99301800  0.83321900  1
  Mn  Mn19  1  0.63456200  0.24824500  0.47300600  1
  Mn  Mn20  1  0.24242000  0.75289400  0.75285200  1
  O  O0  1  0.87325000  0.86988900  0.07423800  1
  O  O1  1  0.72891500  0.63779000  0.20645800  1
  O  O2  1  0.50692400  0.36620000  0.35535400  1
  O  O3  1  0.57696400  0.37097900  0.12277500  1
  O  O4  1  0.40329900  0.37647400  0.58116200  1
  O  O5  1  0.15581900  0.87512200  0.60562800  1
  O  O6  1  0.43174200  0.12862700  0.24590200  1
  O  O7  1  0.04361600  0.86686100  0.84431100  1
  O  O8  1  0.35644700  0.86128600  0.16967000  1
  O  O9  1  0.31519400  0.14919800  0.48722800  1
  O  O10  1  0.23556300  0.13962300  0.70075800  1
  O  O11  1  0.56935800  0.13333600  0.03280800  1
  O  O12  1  0.18622700  0.86934400  0.40833000  1
  O  O13  1  0.93825500  0.64441700  0.76904200  1
  O  O14  1  0.30149100  0.63833900  0.09912500  1
  O  O15  1  0.06797400  0.63038100  0.54095600  1
  O  O16  1  0.79260000  0.64518000  0.98427800  1
  O  O17  1  0.12761200  0.63222800  0.33043600  1
  O  O18  1  0.84291200  0.36004800  0.67764400  1
  O  O19  1  0.18258900  0.35310400  0.01145600  1
  O  O20  1  0.92803500  0.36577000  0.46577600  1
  O  O21  1  0.73841500  0.37541900  0.91301400  1
  O  O22  1  0.06960700  0.36558100  0.25314200  1
  O  O23  1  0.48492300  0.86951100  0.95386900  1
  O  O24  1  0.76429300  0.11916300  0.57975100  1
  O  O25  1  0.82649000  0.86542800  0.28143500  1
  O  O26  1  0.69121700  0.85393900  0.51011900  1
  O  O27  1  0.61246400  0.13699100  0.81694900  1
  O  O28  1  0.99109100  0.13721700  0.14212600  1
  O  O29  1  0.91957100  0.12756100  0.37691500  1
  O  O30  1  0.53397300  0.86395000  0.75041000  1
  O  O31  1  0.61287000  0.63690900  0.43378700  1
  O  O32  1  0.38158800  0.61742200  0.88563400  1
  O  O33  1  0.45432300  0.63554100  0.66735000  1
  O  O34  1  0.28053400  0.37466500  0.79678500  1
  O  O35  1  0.10359000  0.10911400  0.92281400  1
loop_
_geom_bond_atom_site_label_1
_geom_bond_atom_site_label_2
_geom_bond_distance
_geom_bond_site_symmetry_2
Li0 O31 2.122186 1_555
Li0 O1 2.136958 1_555
Li0 O8 2.154429 1_555
Li0 O25 2.200295 1_555
Li0 O17 2.217681 1_555
Li0 O12 2.295095 1_555
Li1 O32 2.099021 1_555
Li1 O13 2.121649 1_455
Li1 O34 2.152544 1_555
Li1 O21 2.170492 1_455
Li1 O19 2.187298 1_556
Li1 O16 2.275768 1_455
Li2 O14 2.027706 1_555
Li2 O3 2.084352 1_555
Li2 O22 2.196776 1_555
Li2 O2 2.257925 1_555
Li2 O1 2.305713 1_555
Li2 O17 2.384875 1_555
Li3 O17 2.025944 1_555
Li3 O15 2.037723 1_555
Li3 O2 2.231530 1_555
Li3 O31 2.242003 1_555
Li3 O4 2.268307 1_555
Li3 O20 2.378543 1_455
Li4 O8 2.083609 1_555
Li4 O35 2.087889 1_564
Li4 O23 2.188450 1_554
Li4 O0 2.228489 1_455
Li4 O28 2.247002 1_465
Li4 O11 2.375490 1_565
Li5 O0 2.043538 1_556
Li5 O23 2.069531 1_555
Li5 O35 2.070788 1_665
Li5 O11 2.132896 1_566
Li5 O7 2.252747 1_655
Li5 O27 2.348967 1_565
Li6 O12 1.985214 1_555
Li6 O25 2.087321 1_455
Li6 O29 2.088663 1_465
Li6 O6 2.173710 1_565
Li6 O28 2.367001 1_465
Li6 O8 2.382532 1_555
Li7 O26 2.053601 1_555
Li7 O13 2.093523 1_555
Li7 O15 2.188426 1_655
Li7 O5 2.218718 1_655
Li7 O33 2.236754 1_555
Li7 O30 2.300622 1_555
Li8 O31 2.077767 1_555
Li8 O20 2.100815 1_555
Li8 O4 2.117391 1_555
Li8 O18 2.144164 1_555
Li8 O15 2.292062 1_655
Li8 O33 2.414985 1_555
Li9 O32 2.015489 1_555
Li9 O33 2.016498 1_555
Li9 O34 2.155934 1_555
Li9 O21 2.259852 1_555
Li9 O13 2.349699 1_555
Li9 O18 2.453343 1_555
Li10 O5 2.051447 1_555
Li10 O24 2.106851 1_565
Li10 O10 2.181998 1_565
Li10 O30 2.204859 1_555
Li10 O9 2.248910 1_565
Li10 O26 2.308380 1_555
Li11 O7 2.094188 1_555
Li11 O32 2.095926 1_555
Li11 O16 2.107722 1_455
Li11 O14 2.116328 1_556
Li11 O0 2.267097 1_456
Li11 O23 2.267723 1_555
Mn0 O21 1.962927 1_554
Mn0 O28 1.981361 1_555
Mn0 O11 1.996245 1_555
Mn0 O19 2.015666 1_655
Mn0 O3 2.246616 1_555
Mn0 O35 2.325130 1_654
Mn1 O25 2.047625 1_555
Mn1 O6 2.059881 1_565
Mn1 O0 2.068638 1_555
Mn1 O8 2.178943 1_555
Mn1 O11 2.254868 1_565
Mn1 O28 2.284371 1_565
Mn2 O26 1.976247 1_555
Mn2 O5 1.984218 1_555
Mn2 O31 2.031169 1_555
Mn2 O15 2.079602 1_555
Mn2 O12 2.150651 1_555
Mn2 O33 2.176730 1_555
Mn3 O14 1.942703 1_555
Mn3 O0 1.952552 1_555
Mn3 O16 1.967286 1_554
Mn3 O8 1.985840 1_555
Mn3 O1 2.054650 1_555
Mn3 O23 2.094952 1_554
Mn4 O15 2.063733 1_555
Mn4 O33 2.092465 1_555
Mn4 O4 2.152732 1_555
Mn4 O34 2.155962 1_555
Mn4 O13 2.213788 1_455
Mn4 O18 2.301035 1_455
Mn5 O22 1.927241 1_555
Mn5 O29 1.970625 1_455
Mn5 O9 1.977520 1_555
Mn5 O2 2.044296 1_555
Mn5 O20 2.266987 1_455
Mn5 O6 2.276268 1_555
Mn6 O9 2.010985 1_555
Mn6 O18 2.028233 1_455
Mn6 O10 2.029568 1_555
Mn6 O20 2.055856 1_455
Mn6 O24 2.209233 1_455
Mn6 O4 2.214517 1_555
Mn7 O35 2.085639 1_655
Mn7 O18 2.107323 1_555
Mn7 O34 2.175273 1_655
Mn7 O27 2.192714 1_555
Mn7 O10 2.218500 1_655
Mn7 O21 2.234898 1_555
Mn8 O5 1.970029 1_655
Mn8 O12 1.985348 1_655
Mn8 O29 2.027224 1_565
Mn8 O24 2.032568 1_565
Mn8 O26 2.166620 1_555
Mn8 O9 2.382039 1_665
Mn9 O6 1.953198 1_555
Mn9 O3 1.968616 1_555
Mn9 O19 1.996672 1_555
Mn9 O28 2.014781 1_455
Mn9 O22 2.234859 1_555
Mn9 O11 2.275431 1_555
Mn10 O16 1.954603 1_555
Mn10 O30 1.991950 1_555
Mn10 O23 2.000443 1_555
Mn10 O13 2.032771 1_555
Mn10 O7 2.165420 1_655
Mn10 O32 2.208125 1_555
Mn11 O25 2.022675 1_455
Mn11 O1 2.029752 1_455
Mn11 O8 2.032650 1_555
Mn11 O14 2.055316 1_555
Mn11 O0 2.128923 1_455
Mn11 O17 2.134716 1_555
Mn12 O12 1.922547 1_655
Mn12 O26 1.956905 1_555
Mn12 O17 1.974543 1_655
Mn12 O31 1.984835 1_555
Mn12 O25 2.096418 1_555
Mn12 O15 2.149453 1_655
Mn13 O32 1.936369 1_554
Mn13 O3 2.018681 1_555
Mn13 O14 2.104353 1_555
Mn13 O16 2.154173 1_554
Mn13 O21 2.162671 1_554
Mn13 O19 2.308376 1_555
Mn14 O1 2.069876 1_555
Mn14 O17 2.106192 1_655
Mn14 O22 2.130859 1_655
Mn14 O31 2.193178 1_555
Mn14 O20 2.231081 1_555
Mn14 O2 2.232564 1_555
Mn15 O4 1.954807 1_555
Mn15 O10 1.958140 1_555
Mn15 O27 1.982446 1_555
Mn15 O18 2.023439 1_555
Mn15 O34 2.235299 1_555
Mn15 O24 2.341488 1_555
Mn16 O27 2.002519 1_555
Mn16 O19 2.014120 1_556
Mn16 O34 2.034882 1_555
Mn16 O11 2.077529 1_556
Mn16 O35 2.215850 1_555
Mn16 O21 2.216715 1_555
Mn17 O22 2.146533 1_655
Mn17 O6 2.160010 1_555
Mn17 O28 2.182645 1_555
Mn17 O2 2.195895 1_555
Mn17 O29 2.213466 1_555
Mn17 O3 2.225531 1_555
Mn18 O7 1.997048 1_555
Mn18 O35 2.000315 1_565
Mn18 O30 2.007386 1_555
Mn18 O23 2.132772 1_555
Mn18 O27 2.142300 1_565
Mn18 O10 2.212046 1_565
Mn19 O24 1.946198 1_555
Mn19 O9 1.988941 1_555
Mn19 O2 2.001170 1_555
Mn19 O20 2.002699 1_555
Mn19 O29 2.239838 1_555
Mn19 O4 2.266111 1_555
Mn20 O33 1.954607 1_555
Mn20 O7 1.958297 1_555
Mn20 O30 1.966500 1_555
Mn20 O13 1.972031 1_455
Mn20 O32 2.257640 1_555
Mn20 O5 2.265944 1_555
