# generated using pymatgen
data_Li2Sn3(P2O7)2
_symmetry_space_group_name_H-M   'P 1'
_cell_length_a   6.00348700
_cell_length_b   7.29777867
_cell_length_c   16.32414190
_cell_angle_alpha   82.83037746
_cell_angle_beta   84.66598180
_cell_angle_gamma   68.56868690
_symmetry_Int_Tables_number   1
_chemical_formula_structural   Li2Sn3(P2O7)2
_chemical_formula_sum   'Li4 Sn6 P8 O28'
_cell_volume   659.66955421
_cell_formula_units_Z   2
loop_
 _symmetry_equiv_pos_site_id
 _symmetry_equiv_pos_as_xyz
  1  'x, y, z'
loop_
 _atom_site_type_symbol
 _atom_site_label
 _atom_site_symmetry_multiplicity
 _atom_site_fract_x
 _atom_site_fract_y
 _atom_site_fract_z
 _atom_site_occupancy
  Li  Li0  1  0.12002400  0.15745700  0.99325800  1
  Li  Li1  1  0.30185300  0.67526500  0.10039100  1
  Li  Li2  1  0.69814700  0.32473500  0.89960900  1
  Li  Li3  1  0.87997600  0.84254300  0.00674200  1
  Sn  Sn0  1  0.14021400  0.27961000  0.58119300  1
  Sn  Sn1  1  0.09690000  0.61212600  0.82267100  1
  Sn  Sn2  1  0.27040100  0.97271100  0.32628500  1
  Sn  Sn3  1  0.72959900  0.02728900  0.67371500  1
  Sn  Sn4  1  0.90310000  0.38787400  0.17732900  1
  Sn  Sn5  1  0.85978600  0.72039000  0.41880700  1
  P  P0  1  0.16884300  0.08137000  0.80969400  1
  P  P1  1  0.38596400  0.44733300  0.32376400  1
  P  P2  1  0.54590900  0.23321400  0.06736900  1
  P  P3  1  0.26385000  0.80085600  0.54309100  1
  P  P4  1  0.73615000  0.19914400  0.45690900  1
  P  P5  1  0.45409100  0.76678600  0.93263100  1
  P  P6  1  0.61403600  0.55266700  0.67623600  1
  P  P7  1  0.83115700  0.91863000  0.19030600  1
  O  O0  1  0.98812100  0.04390700  0.19822900  1
  O  O1  1  0.28455200  0.28876000  0.04892000  1
  O  O2  1  0.24772000  0.32919100  0.29638100  1
  O  O3  1  0.04357300  0.23967800  0.87002500  1
  O  O4  1  0.21451100  0.65588400  0.34620000  1
  O  O5  1  0.11321200  0.67711800  0.53196500  1
  O  O6  1  0.25867000  0.16084100  0.72772100  1
  O  O7  1  0.58648400  0.06847200  0.14771700  1
  O  O8  1  0.12579700  0.96605600  0.60086200  1
  O  O9  1  0.72915400  0.13561000  0.99865100  1
  O  O10  1  0.49359500  0.33800500  0.41225200  1
  O  O11  1  0.40120100  0.58926000  0.90655300  1
  O  O12  1  0.63964200  0.11367100  0.53669300  1
  O  O13  1  0.58617700  0.47329700  0.26517500  1
  O  O14  1  0.41382300  0.52670300  0.73482500  1
  O  O15  1  0.36035800  0.88632900  0.46330700  1
  O  O16  1  0.59879900  0.41074000  0.09344700  1
  O  O17  1  0.50640500  0.66199500  0.58774800  1
  O  O18  1  0.27084600  0.86439000  0.00134900  1
  O  O19  1  0.87420300  0.03394400  0.39913800  1
  O  O20  1  0.41351600  0.93152800  0.85228300  1
  O  O21  1  0.74133000  0.83915900  0.27227900  1
  O  O22  1  0.88678800  0.32288200  0.46803500  1
  O  O23  1  0.78548900  0.34411600  0.65380000  1
  O  O24  1  0.95642700  0.76032200  0.12997500  1
  O  O25  1  0.75228000  0.67080900  0.70361900  1
  O  O26  1  0.71544800  0.71124000  0.95108000  1
  O  O27  1  0.01187900  0.95609300  0.80177100  1
loop_
_geom_bond_atom_site_label_1
_geom_bond_atom_site_label_2
_geom_bond_distance
_geom_bond_site_symmetry_2
Li0 O1 1.948150 1_556
Li0 O18 1.986972 1_546
Li0 O3 2.070418 1_555
Li0 O9 2.402313 1_455
Li1 O18 1.965896 1_555
Li1 O24 1.966458 1_455
Li1 O16 2.102304 1_555
Li2 O9 1.965896 1_555
Li2 O3 1.966458 1_655
Li2 O11 2.102304 1_555
Li3 O26 1.948150 1_554
Li3 O9 1.986972 1_564
Li3 O24 2.070418 1_555
Li3 O18 2.402313 1_655
O0 P7 1.556377 1_545
O0 Sn4 2.358030 1_555
O0 Sn2 2.693644 1_645
O1 P2 1.519715 1_555
O2 P1 1.523172 1_555
O2 Sn2 2.541889 1_545
O3 P0 1.543246 1_555
O4 P1 1.560201 1_555
O4 Sn5 2.258084 1_455
O4 Sn2 2.433774 1_555
O5 P3 1.527916 1_555
O5 Sn5 2.419192 1_455
O6 P0 1.522649 1_555
O6 Sn0 2.515293 1_555
O6 Sn3 2.730881 1_555
O7 P7 1.631887 1_545
O7 P2 1.636107 1_555
O8 P3 1.561418 1_555
O8 Sn0 2.302788 1_565
O8 Sn3 2.470145 1_465
O9 P2 1.540560 1_556
O10 P4 1.616602 1_555
O10 P1 1.627809 1_555
O11 P5 1.556886 1_555
O11 Sn1 2.329283 1_555
O12 P4 1.530374 1_555
O12 Sn3 2.305649 1_555
O13 P1 1.517512 1_555
O13 Sn4 2.216791 1_555
O14 P6 1.517512 1_555
O14 Sn1 2.216791 1_555
O15 P3 1.530374 1_555
O15 Sn2 2.305649 1_555
O16 P2 1.556886 1_555
O16 Sn4 2.329283 1_555
O17 P3 1.616602 1_555
O17 P6 1.627809 1_555
O18 P5 1.540560 1_554
O19 P4 1.561418 1_555
O19 Sn5 2.302788 1_545
O19 Sn2 2.470145 1_645
O20 P0 1.631887 1_565
O20 P5 1.636107 1_555
O21 P7 1.522649 1_555
O21 Sn5 2.515293 1_555
O21 Sn2 2.730881 1_555
O22 P4 1.527916 1_555
O22 Sn0 2.419192 1_655
O23 P6 1.560201 1_555
O23 Sn0 2.258084 1_655
O23 Sn3 2.433774 1_555
O24 P7 1.543246 1_555
O25 P6 1.523172 1_555
O25 Sn3 2.541889 1_565
O26 P5 1.519715 1_555
O27 P0 1.556377 1_565
O27 Sn1 2.358030 1_555
O27 Sn3 2.693644 1_465
