# generated using pymatgen
data_Li6FeO4
_symmetry_space_group_name_H-M   'P 1'
_cell_length_a   6.68641903
_cell_length_b   8.16087126
_cell_length_c   8.15925516
_cell_angle_alpha   110.17051265
_cell_angle_beta   89.99800706
_cell_angle_gamma   90.01037626
_symmetry_Int_Tables_number   1
_chemical_formula_structural   Li6FeO4
_chemical_formula_sum   'Li24 Fe4 O16'
_cell_volume   417.92066134
_cell_formula_units_Z   4
loop_
 _symmetry_equiv_pos_site_id
 _symmetry_equiv_pos_as_xyz
  1  'x, y, z'
loop_
 _atom_site_type_symbol
 _atom_site_label
 _atom_site_symmetry_multiplicity
 _atom_site_fract_x
 _atom_site_fract_y
 _atom_site_fract_z
 _atom_site_occupancy
  Li  Li0  1  0.24999400  0.47417600  0.22411400  1
  Li  Li1  1  0.24998000  0.97418800  0.72413800  1
  Li  Li2  1  0.24997400  0.22417000  0.97410300  1
  Li  Li3  1  0.24998800  0.72416400  0.47410000  1
  Li  Li4  1  0.75004800  0.52587900  0.77584300  1
  Li  Li5  1  0.75003700  0.02587000  0.27582300  1
  Li  Li6  1  0.75001900  0.77588200  0.02586000  1
  Li  Li7  1  0.75005100  0.27589500  0.52585900  1
  Li  Li8  1  0.03513700  0.64261700  0.10734000  1
  Li  Li9  1  0.03519000  0.14262500  0.60736000  1
  Li  Li10  1  0.03510900  0.85747700  0.89251200  1
  Li  Li11  1  0.03513300  0.35746900  0.39251100  1
  Li  Li12  1  0.46496300  0.64257700  0.10741500  1
  Li  Li13  1  0.46492400  0.14259600  0.60741500  1
  Li  Li14  1  0.46479600  0.85743600  0.89257200  1
  Li  Li15  1  0.46480600  0.35743600  0.39256800  1
  Li  Li16  1  0.53501400  0.14260100  0.10747700  1
  Li  Li17  1  0.53505700  0.64259600  0.60746700  1
  Li  Li18  1  0.53519200  0.35744600  0.89257400  1
  Li  Li19  1  0.53520700  0.85743500  0.39257600  1
  Li  Li20  1  0.96484300  0.14263400  0.10740000  1
  Li  Li21  1  0.96481300  0.64264000  0.60740000  1
  Li  Li22  1  0.96489800  0.35748100  0.89249500  1
  Li  Li23  1  0.96488900  0.85747600  0.39250000  1
  Fe  Fe0  1  0.25024900  0.99981900  0.25017800  1
  Fe  Fe1  1  0.74964900  0.99972700  0.75009400  1
  Fe  Fe2  1  0.25039700  0.50008700  0.74995800  1
  Fe  Fe3  1  0.74974800  0.49971000  0.25016900  1
  O  O0  1  0.01625700  0.60543100  0.35537200  1
  O  O1  1  0.01623600  0.10541900  0.85537600  1
  O  O2  1  0.25008100  0.23842400  0.22235900  1
  O  O3  1  0.25007800  0.73855500  0.72217900  1
  O  O4  1  0.25013200  0.47243000  0.98841600  1
  O  O5  1  0.25010100  0.97226200  0.48853600  1
  O  O6  1  0.48360100  0.60537800  0.35520800  1
  O  O7  1  0.48359900  0.10542100  0.85522400  1
  O  O8  1  0.51648400  0.39476300  0.64457800  1
  O  O9  1  0.51628700  0.89470600  0.14456800  1
  O  O10  1  0.74998300  0.76130700  0.77799800  1
  O  O11  1  0.74994600  0.26142500  0.27788300  1
  O  O12  1  0.74992300  0.52761600  0.01157600  1
  O  O13  1  0.75002300  0.02761300  0.51156900  1
  O  O14  1  0.98376900  0.39468300  0.64455500  1
  O  O15  1  0.98374700  0.89463300  0.14460400  1
loop_
_geom_bond_atom_site_label_1
_geom_bond_atom_site_label_2
_geom_bond_distance
_geom_bond_site_symmetry_2
Li0 O4 1.918254 1_554
Li0 O2 1.919051 1_555
Li0 O6 1.984962 1_555
Li0 O0 1.986518 1_555
Li1 O5 1.916974 1_555
Li1 O3 1.917518 1_555
Li1 O7 1.985091 1_565
Li1 O1 1.986428 1_565
Li2 O1 1.916324 1_555
Li2 O7 1.916345 1_555
Li2 O2 1.988474 1_556
Li2 O4 1.988773 1_555
Li3 O0 1.916240 1_555
Li3 O6 1.916415 1_555
Li3 O3 1.986705 1_555
Li3 O5 1.987159 1_555
Li4 O10 1.915306 1_555
Li4 O12 1.918564 1_556
Li4 O8 1.984981 1_555
Li4 O14 1.986350 1_555
Li5 O11 1.916603 1_555
Li5 O13 1.918653 1_555
Li5 O9 1.986069 1_545
Li5 O15 1.986211 1_545
Li6 O15 1.916315 1_555
Li6 O9 1.916669 1_555
Li6 O10 1.984499 1_554
Li6 O12 1.988891 1_555
Li7 O8 1.915918 1_555
Li7 O14 1.916231 1_555
Li7 O11 1.985677 1_555
Li7 O13 1.989007 1_555
Li8 O4 2.002071 1_554
Li8 O15 2.002352 1_455
Li8 O12 2.149871 1_455
Li8 O0 2.151075 1_555
Li9 O5 2.002225 1_545
Li9 O14 2.002836 1_455
Li9 O13 2.149667 1_455
Li9 O1 2.151051 1_555
Li10 O3 2.002407 1_555
Li10 O15 2.002629 1_456
Li10 O10 2.148831 1_455
Li10 O1 2.150554 1_565
Li11 O2 2.001775 1_555
Li11 O14 2.002154 1_455
Li11 O11 2.149260 1_455
Li11 O0 2.150728 1_555
Li12 O4 2.000949 1_554
Li12 O9 2.003235 1_555
Li12 O12 2.148646 1_555
Li12 O6 2.149115 1_555
Li13 O5 2.001475 1_545
Li13 O8 2.003791 1_555
Li13 O7 2.149168 1_555
Li13 O13 2.149539 1_555
Li14 O3 2.001196 1_555
Li14 O9 2.001831 1_556
Li14 O10 2.149467 1_555
Li14 O7 2.151635 1_565
Li15 O2 2.000701 1_555
Li15 O8 2.002064 1_555
Li15 O11 2.149261 1_555
Li15 O6 2.151330 1_555
Li16 O11 2.002165 1_555
Li16 O7 2.003936 1_554
Li16 O2 2.148203 1_555
Li16 O9 2.149903 1_545
Li17 O10 2.002449 1_555
Li17 O6 2.003968 1_555
Li17 O3 2.148283 1_555
Li17 O8 2.149418 1_555
Li18 O12 2.000574 1_556
Li18 O7 2.002391 1_555
Li18 O4 2.149303 1_555
Li18 O8 2.151230 1_555
Li19 O13 2.000999 1_565
Li19 O6 2.002631 1_555
Li19 O5 2.149383 1_555
Li19 O9 2.151235 1_555
Li20 O1 2.002026 1_654
Li20 O11 2.002445 1_555
Li20 O2 2.149957 1_655
Li20 O15 2.151301 1_545
Li21 O0 2.002126 1_655
Li21 O10 2.002372 1_555
Li21 O3 2.149879 1_655
Li21 O14 2.150780 1_555
Li22 O12 2.002066 1_556
Li22 O1 2.002898 1_655
Li22 O4 2.150131 1_655
Li22 O14 2.150390 1_555
Li23 O13 2.001528 1_565
Li23 O0 2.002782 1_655
Li23 O5 2.149788 1_655
Li23 O15 2.149859 1_555
Fe0 O9 2.033060 1_555
Fe0 O5 2.033357 1_555
Fe0 O15 2.035638 1_455
Fe0 O2 2.036667 1_565
Fe1 O7 2.033361 1_565
Fe1 O10 2.035473 1_555
Fe1 O13 2.035897 1_565
Fe1 O1 2.036619 1_665
Fe2 O8 2.033302 1_555
Fe2 O4 2.034528 1_555
Fe2 O3 2.035412 1_555
Fe2 O14 2.036480 1_455
Fe3 O6 2.033665 1_555
Fe3 O11 2.033692 1_555
Fe3 O0 2.036051 1_655
Fe3 O12 2.036519 1_555
