# generated using pymatgen
data_Sr2Cu3(SO)2
_symmetry_space_group_name_H-M   'P 1'
_cell_length_a   9.61901650
_cell_length_b   9.61901650
_cell_length_c   9.61901650
_cell_angle_alpha   156.39634766
_cell_angle_beta   156.39634766
_cell_angle_gamma   33.62554674
_symmetry_Int_Tables_number   1
_chemical_formula_structural   Sr2Cu3(SO)2
_chemical_formula_sum   'Sr2 Cu3 S2 O2'
_cell_volume   142.55485815
_cell_formula_units_Z   1
loop_
 _symmetry_equiv_pos_site_id
 _symmetry_equiv_pos_as_xyz
  1  'x, y, z'
loop_
 _atom_site_type_symbol
 _atom_site_label
 _atom_site_symmetry_multiplicity
 _atom_site_fract_x
 _atom_site_fract_y
 _atom_site_fract_z
 _atom_site_occupancy
  Sr  Sr0  1  0.59176000  0.59176000  0.00000000  1
  Sr  Sr1  1  0.40824000  0.40824000  0.00000000  1
  Cu  Cu0  1  0.00000000  0.00000000  0.00000000  1
  Cu  Cu1  1  0.25000000  0.75000000  0.50000000  1
  Cu  Cu2  1  0.75000000  0.25000000  0.50000000  1
  S  S0  1  0.17411600  0.17411600  0.00000000  1
  S  S1  1  0.82588400  0.82588400  0.00000000  1
  O  O0  1  0.00000000  0.50000000  0.50000000  1
  O  O1  1  0.50000000  0.00000000  0.50000000  1
loop_
_geom_bond_atom_site_label_1
_geom_bond_atom_site_label_2
_geom_bond_distance
_geom_bond_site_symmetry_2
Cu0 O1 1.967351 1_454
Cu0 O0 1.967351 1_544
Cu0 O0 1.967351 1_555
Cu0 O1 1.967351 1_555
Cu1 S1 2.413163 1_556
Cu1 S1 2.413163 1_455
Cu1 S0 2.413163 1_566
Cu1 S0 2.413163 1_555
Cu2 S1 2.413163 1_556
Cu2 S1 2.413163 1_545
Cu2 S0 2.413163 1_656
Cu2 S0 2.413163 1_555
S0 Sr0 3.168777 1_444
S0 Sr0 3.168777 1_545
S0 Sr0 3.168777 1_455
S0 Sr0 3.168777 1_556
S1 Sr1 3.168777 1_554
S1 Sr1 3.168777 1_655
S1 Sr1 3.168777 1_666
S1 Sr1 3.168777 1_565
O0 Sr1 2.593449 1_455
O0 Sr1 2.593449 1_556
O0 Sr0 2.593449 1_556
O0 Sr0 2.593449 1_455
O1 Sr1 2.593449 1_545
O1 Sr1 2.593449 1_556
O1 Sr0 2.593449 1_545
O1 Sr0 2.593449 1_556
