# generated using pymatgen
data_Li5V2Ni5O12
_symmetry_space_group_name_H-M   'P 1'
_cell_length_a   5.13140885
_cell_length_b   5.13140840
_cell_length_c   9.78248367
_cell_angle_alpha   84.60836345
_cell_angle_beta   95.39163490
_cell_angle_gamma   58.73573264
_symmetry_Int_Tables_number   1
_chemical_formula_structural   Li5V2Ni5O12
_chemical_formula_sum   'Li5 V2 Ni5 O12'
_cell_volume   216.10087885
_cell_formula_units_Z   1
loop_
 _symmetry_equiv_pos_site_id
 _symmetry_equiv_pos_as_xyz
  1  'x, y, z'
loop_
 _atom_site_type_symbol
 _atom_site_label
 _atom_site_symmetry_multiplicity
 _atom_site_fract_x
 _atom_site_fract_y
 _atom_site_fract_z
 _atom_site_occupancy
  Li  Li0  1  0.16745300  0.67457100  0.50267900  1
  Li  Li1  1  0.32580000  0.83137000  0.99546000  1
  Li  Li2  1  0.67457100  0.16745300  0.99732100  1
  Li  Li3  1  0.83137000  0.32580000  0.50454000  1
  Li  Li4  1  0.92060900  0.92060900  0.75000000  1
  V  V0  1  0.25275100  0.25275100  0.75000000  1
  V  V1  1  0.74786900  0.74786900  0.25000000  1
  Ni  Ni0  1  0.07874400  0.07874400  0.25000000  1
  Ni  Ni1  1  0.99627500  0.50668900  0.99682200  1
  Ni  Ni2  1  0.50668900  0.99627500  0.50317800  1
  Ni  Ni3  1  0.41855200  0.41855200  0.25000000  1
  Ni  Ni4  1  0.58178600  0.58178600  0.75000000  1
  O  O0  1  0.98223700  0.21905400  0.86632800  1
  O  O1  1  0.21905400  0.98223700  0.63367200  1
  O  O2  1  0.10498300  0.39257900  0.36509300  1
  O  O3  1  0.39257900  0.10498300  0.13490700  1
  O  O4  1  0.29189400  0.51545500  0.86559600  1
  O  O5  1  0.51545500  0.29189400  0.63440400  1
  O  O6  1  0.47266900  0.71075000  0.37187700  1
  O  O7  1  0.71075000  0.47266900  0.12812300  1
  O  O8  1  0.59926900  0.89677100  0.86496000  1
  O  O9  1  0.89677100  0.59926900  0.63504000  1
  O  O10  1  0.78687900  0.02498700  0.37160800  1
  O  O11  1  0.02498700  0.78687900  0.12839200  1
loop_
_geom_bond_atom_site_label_1
_geom_bond_atom_site_label_2
_geom_bond_distance
_geom_bond_site_symmetry_2
Li0 O10 2.035273 1_465
Li0 O5 2.039028 1_555
Li0 O9 2.134520 1_455
Li0 O6 2.181394 1_555
Li0 O2 2.185072 1_555
Li0 O1 2.225984 1_555
Li1 O0 2.032297 1_465
Li1 O7 2.066282 1_556
Li1 O8 2.111051 1_555
Li1 O3 2.172795 1_566
Li1 O11 2.193873 1_556
Li1 O4 2.215927 1_555
Li2 O11 2.035273 1_646
Li2 O4 2.039028 1_555
Li2 O8 2.134520 1_545
Li2 O7 2.181394 1_556
Li2 O3 2.185072 1_556
Li2 O0 2.225985 1_555
Li3 O1 2.032297 1_645
Li3 O6 2.066282 1_555
Li3 O9 2.111051 1_555
Li3 O2 2.172795 1_655
Li3 O10 2.193872 1_555
Li3 O5 2.215927 1_555
Li4 O4 2.067080 1_655
Li4 O5 2.067080 1_565
Li4 O0 2.122000 1_565
Li4 O1 2.122000 1_655
Li4 O9 2.128527 1_555
Li4 O8 2.128527 1_555
Ni0 O7 2.057983 1_455
Ni0 O6 2.057983 1_545
Ni0 O2 2.101553 1_555
Ni0 O3 2.101553 1_555
Ni0 O11 2.106258 1_545
Ni0 O10 2.106259 1_455
Ni1 O0 2.064083 1_555
Ni1 O11 2.068204 1_656
Ni1 O4 2.092126 1_655
Ni1 O7 2.098557 1_556
Ni1 O8 2.146879 1_555
Ni1 O3 2.195148 1_656
Ni2 O1 2.064083 1_555
Ni2 O10 2.068204 1_565
Ni2 O5 2.092126 1_565
Ni2 O6 2.098557 1_555
Ni2 O9 2.146879 1_555
Ni2 O2 2.195148 1_565
Ni3 O10 2.056702 1_555
Ni3 O11 2.056702 1_555
Ni3 O3 2.099832 1_555
Ni3 O2 2.099832 1_555
Ni3 O6 2.110136 1_555
Ni3 O7 2.110136 1_555
Ni4 O1 2.043163 1_555
Ni4 O0 2.043163 1_555
Ni4 O8 2.087674 1_555
Ni4 O9 2.087674 1_555
Ni4 O5 2.092068 1_555
Ni4 O4 2.092068 1_555
O0 V0 1.939272 1_655
O1 V0 1.939272 1_565
O2 V1 1.925691 1_455
O3 V1 1.925691 1_545
O4 V0 1.913411 1_555
O5 V0 1.913411 1_555
O6 V1 2.001222 1_555
O7 V1 2.001222 1_555
O8 V0 1.905245 1_565
O9 V0 1.905245 1_655
O10 V1 2.011467 1_545
O11 V1 2.011468 1_455
