# generated using pymatgen
data_Li6Fe5SbO12
_symmetry_space_group_name_H-M   'P 1'
_cell_length_a   5.31157430
_cell_length_b   5.31157430
_cell_length_c   10.47490792
_cell_angle_alpha   86.10990060
_cell_angle_beta   86.10990060
_cell_angle_gamma   120.19889672
_symmetry_Int_Tables_number   1
_chemical_formula_structural   Li6Fe5SbO12
_chemical_formula_sum   'Li6 Fe5 Sb1 O12'
_cell_volume   253.04267165
_cell_formula_units_Z   1
loop_
 _symmetry_equiv_pos_site_id
 _symmetry_equiv_pos_as_xyz
  1  'x, y, z'
loop_
 _atom_site_type_symbol
 _atom_site_label
 _atom_site_symmetry_multiplicity
 _atom_site_fract_x
 _atom_site_fract_y
 _atom_site_fract_z
 _atom_site_occupancy
  Li  Li0  1  0.88306100  0.55239900  0.28401900  1
  Li  Li1  1  0.77950900  0.77950900  0.71113500  1
  Li  Li2  1  0.44760100  0.11693900  0.71598100  1
  Li  Li3  1  0.55239900  0.88306100  0.28401900  1
  Li  Li4  1  0.22049100  0.22049100  0.28886500  1
  Li  Li5  1  0.11693900  0.44760100  0.71598100  1
  Fe  Fe0  1  0.83030000  0.16970000  0.50000000  1
  Fe  Fe1  1  0.50000000  0.50000000  0.50000000  1
  Fe  Fe2  1  0.16970000  0.83030000  0.50000000  1
  Fe  Fe3  1  0.66136100  0.33863900  0.00000000  1
  Fe  Fe4  1  0.33863900  0.66136100  0.00000000  1
  Sb  Sb0  1  0.00000000  0.00000000  0.00000000  1
  O  O0  1  0.03098000  0.35004400  0.89791000  1
  O  O1  1  0.64995600  0.96902000  0.10209000  1
  O  O2  1  0.82377700  0.47290000  0.61274500  1
  O  O3  1  0.86723700  0.86723700  0.39180500  1
  O  O4  1  0.52710000  0.17622300  0.38725500  1
  O  O5  1  0.71148700  0.71148700  0.89282700  1
  O  O6  1  0.28851300  0.28851300  0.10717300  1
  O  O7  1  0.47290000  0.82377700  0.61274500  1
  O  O8  1  0.13276300  0.13276300  0.60819500  1
  O  O9  1  0.17622300  0.52710000  0.38725500  1
  O  O10  1  0.35004400  0.03098000  0.89791000  1
  O  O11  1  0.96902000  0.64995600  0.10209000  1
loop_
_geom_bond_atom_site_label_1
_geom_bond_atom_site_label_2
_geom_bond_distance
_geom_bond_site_symmetry_2
Li0 O11 1.902253 1_555
Li0 O9 2.007845 1_655
Li0 O4 2.089365 1_555
Li0 O3 2.112597 1_555
Li1 O5 1.888213 1_555
Li1 O8 2.028088 1_665
Li1 O2 2.085625 1_555
Li1 O7 2.085625 1_555
Li2 O10 1.902253 1_555
Li2 O7 2.007845 1_545
Li2 O2 2.089365 1_555
Li2 O8 2.112597 1_555
Li3 O1 1.902253 1_555
Li3 O4 2.007845 1_565
Li3 O9 2.089365 1_555
Li3 O3 2.112597 1_555
Li4 O6 1.888213 1_555
Li4 O3 2.028088 1_445
Li4 O9 2.085625 1_555
Li4 O4 2.085625 1_555
Li5 O0 1.902253 1_555
Li5 O2 2.007845 1_455
Li5 O7 2.089365 1_555
Li5 O8 2.112597 1_555
Fe0 O7 2.065650 1_545
Fe0 O9 2.065650 1_655
Fe0 O2 2.073212 1_555
Fe0 O4 2.073212 1_555
Fe0 O8 2.106638 1_655
Fe0 O3 2.106638 1_545
Fe1 O8 2.113418 1_555
Fe1 O3 2.113418 1_555
Fe1 O7 2.207852 1_555
Fe1 O2 2.207852 1_555
Fe1 O4 2.207852 1_555
Fe1 O9 2.207852 1_555
Fe2 O2 2.065650 1_455
Fe2 O4 2.065650 1_565
Fe2 O7 2.073212 1_555
Fe2 O9 2.073212 1_555
Fe2 O8 2.106638 1_565
Fe2 O3 2.106638 1_455
Fe3 O10 2.075328 1_554
Fe3 O11 2.075328 1_555
Fe3 O6 2.092973 1_555
Fe3 O5 2.092973 1_554
Fe3 O1 2.142039 1_545
Fe3 O0 2.142039 1_654
Fe4 O0 2.075328 1_554
Fe4 O1 2.075328 1_555
Fe4 O6 2.092973 1_555
Fe4 O5 2.092973 1_554
Fe4 O11 2.142039 1_455
Fe4 O10 2.142039 1_564
O0 Sb0 2.006527 1_556
O1 Sb0 2.006527 1_665
O5 Sb0 2.015310 1_666
O6 Sb0 2.015310 1_555
O10 Sb0 2.006527 1_556
O11 Sb0 2.006527 1_665
