# generated using pymatgen
data_LiFe2(BO3)2
_symmetry_space_group_name_H-M   'P 1'
_cell_length_a   5.23009600
_cell_length_b   9.14581790
_cell_length_c   11.25422594
_cell_angle_alpha   66.93033826
_cell_angle_beta   76.92479869
_cell_angle_gamma   89.03543816
_symmetry_Int_Tables_number   1
_chemical_formula_structural   LiFe2(BO3)2
_chemical_formula_sum   'Li4 Fe8 B8 O24'
_cell_volume   480.88635532
_cell_formula_units_Z   4
loop_
 _symmetry_equiv_pos_site_id
 _symmetry_equiv_pos_as_xyz
  1  'x, y, z'
loop_
 _atom_site_type_symbol
 _atom_site_label
 _atom_site_symmetry_multiplicity
 _atom_site_fract_x
 _atom_site_fract_y
 _atom_site_fract_z
 _atom_site_occupancy
  Li  Li0  1  0.97202500  0.97306900  0.39976900  1
  Li  Li1  1  0.71245100  0.72189900  0.91068400  1
  Li  Li2  1  0.51760100  0.49665700  0.65449500  1
  Li  Li3  1  0.47144500  0.46911900  0.40290900  1
  Fe  Fe0  1  0.97949000  0.64768100  0.37680100  1
  Fe  Fe1  1  0.73742700  0.07044300  0.88086100  1
  Fe  Fe2  1  0.50587800  0.85148700  0.62987900  1
  Fe  Fe3  1  0.76629600  0.42906900  0.13197300  1
  Fe  Fe4  1  0.22698700  0.55620900  0.88172900  1
  Fe  Fe5  1  0.47327800  0.15123100  0.37847300  1
  Fe  Fe6  1  0.03461000  0.34079200  0.62855000  1
  Fe  Fe7  1  0.26599900  0.93060900  0.13303800  1
  B  B0  1  0.97767400  0.31398000  0.37412300  1
  B  B1  1  0.73452000  0.39698800  0.87499700  1
  B  B2  1  0.53643700  0.18555100  0.62691900  1
  B  B3  1  0.76404200  0.10342400  0.13120400  1
  B  B4  1  0.47181400  0.80843500  0.38310000  1
  B  B5  1  0.23434200  0.89284600  0.87939100  1
  B  B6  1  0.01034700  0.68259100  0.62544900  1
  B  B7  1  0.26700100  0.60526500  0.12699200  1
  O  O0  1  0.97240100  0.90239400  0.88031600  1
  O  O1  1  0.88971700  0.28004100  0.84950600  1
  O  O2  1  0.83686500  0.49509300  0.92667500  1
  O  O3  1  0.86876400  0.81124900  0.62421600  1
  O  O4  1  0.91860100  0.56837000  0.58883900  1
  O  O5  1  0.74453400  0.15504900  0.68868200  1
  O  O6  1  0.73729600  0.35045000  0.33208100  1
  O  O7  1  0.49814300  0.41995400  0.84437100  1
  O  O8  1  0.38816900  0.79115500  0.83055400  1
  O  O9  1  0.57056400  0.91663500  0.42726600  1
  O  O10  1  0.59038200  0.67516400  0.38686600  1
  O  O11  1  0.36188200  0.97903000  0.93092000  1
  O  O12  1  0.63344500  0.01765900  0.07959900  1
  O  O13  1  0.42160500  0.32811700  0.60323100  1
  O  O14  1  0.44979200  0.07623500  0.58406000  1
  O  O15  1  0.62944500  0.21514300  0.17076500  1
  O  O16  1  0.53377700  0.59645700  0.11461600  1
  O  O17  1  0.25388600  0.66815500  0.66223500  1
  O  O18  1  0.23909000  0.84654700  0.33723400  1
  O  O19  1  0.08694000  0.42112800  0.41291800  1
  O  O20  1  0.09011900  0.17798000  0.37883400  1
  O  O21  1  0.13174000  0.51262900  0.08417900  1
  O  O22  1  0.13758800  0.71402500  0.17243600  1
  O  O23  1  0.01151300  0.07235900  0.14636200  1
loop_
_geom_bond_atom_site_label_1
_geom_bond_atom_site_label_2
_geom_bond_distance
_geom_bond_site_symmetry_2
Li0 O20 1.891098 1_665
Li0 O18 1.980989 1_655
Li0 O9 2.094788 1_555
Li0 O3 2.311375 1_555
Li0 O23 2.590525 1_665
Li1 O0 2.028164 1_555
Li1 O8 2.073440 1_555
Li1 O16 2.111656 1_556
Li1 O2 2.115089 1_555
Li2 O7 1.948856 1_555
Li2 O13 1.953208 1_555
Li2 O4 2.083273 1_555
Li2 O17 2.085658 1_555
Li3 O10 1.921641 1_555
Li3 O6 1.967823 1_555
Li3 O19 2.034189 1_555
Li3 O13 2.068949 1_555
Fe0 O10 2.029364 1_555
Fe0 O19 2.044108 1_655
Fe0 O22 2.098682 1_655
Fe0 O18 2.127111 1_655
Fe0 O4 2.151626 1_555
Fe1 O0 1.952667 1_545
Fe1 O1 1.956452 1_555
Fe1 O5 1.982666 1_555
Fe1 O11 2.014867 1_545
Fe1 O12 2.035599 1_556
Fe2 O3 1.918792 1_555
Fe2 O14 1.947951 1_565
Fe2 O17 2.014875 1_555
Fe2 O8 2.046888 1_555
Fe2 O9 2.064459 1_555
Fe3 O16 1.916023 1_555
Fe3 O15 1.940938 1_555
Fe3 O21 1.946362 1_655
Fe3 O6 2.047404 1_555
Fe3 O2 2.089832 1_554
Fe4 O7 1.955051 1_555
Fe4 O2 2.020215 1_455
Fe4 O21 2.092763 1_556
Fe4 O8 2.128618 1_555
Fe4 O17 2.244022 1_555
Fe5 O20 2.014027 1_555
Fe5 O9 2.080920 1_545
Fe5 O14 2.114092 1_555
Fe5 O6 2.124160 1_555
Fe5 O15 2.134125 1_555
Fe6 O13 1.987041 1_555
Fe6 O4 2.061845 1_455
Fe6 O5 2.089675 1_455
Fe6 O19 2.193821 1_555
Fe6 O1 2.268337 1_455
Fe7 O23 1.865118 1_565
Fe7 O22 1.947589 1_555
Fe7 O12 1.960126 1_565
Fe7 O11 2.079345 1_554
Fe7 O18 2.089180 1_555
B0 O20 1.354099 1_655
B0 O19 1.394481 1_655
B0 O6 1.430741 1_555
B1 O7 1.348558 1_555
B1 O1 1.411037 1_555
B1 O2 1.412735 1_555
B2 O13 1.380414 1_555
B2 O5 1.387670 1_555
B2 O14 1.389124 1_555
B3 O23 1.354461 1_655
B3 O15 1.388622 1_555
B3 O12 1.404865 1_555
B4 O10 1.348316 1_555
B4 O18 1.413658 1_555
B4 O9 1.418419 1_555
B5 O0 1.369234 1_455
B5 O11 1.397682 1_555
B5 O8 1.410562 1_555
B6 O3 1.376816 1_455
B6 O4 1.391017 1_455
B6 O17 1.414678 1_555
B7 O16 1.374675 1_555
B7 O22 1.388707 1_555
B7 O21 1.394539 1_555
