# generated using pymatgen
data_LiVCoO4
_symmetry_space_group_name_H-M   'P 1'
_cell_length_a   4.94942800
_cell_length_b   6.07035100
_cell_length_c   10.56003000
_cell_angle_alpha   90.00000000
_cell_angle_beta   90.00000000
_cell_angle_gamma   90.00000000
_symmetry_Int_Tables_number   1
_chemical_formula_structural   LiVCoO4
_chemical_formula_sum   'Li4 V4 Co4 O16'
_cell_volume   317.27362195
_cell_formula_units_Z   4
loop_
 _symmetry_equiv_pos_site_id
 _symmetry_equiv_pos_as_xyz
  1  'x, y, z'
loop_
 _atom_site_type_symbol
 _atom_site_label
 _atom_site_symmetry_multiplicity
 _atom_site_fract_x
 _atom_site_fract_y
 _atom_site_fract_z
 _atom_site_occupancy
  Li  Li0  1  0.50000000  0.50000000  0.00000000  1
  Li  Li1  1  0.00000000  0.50000000  0.50000000  1
  Li  Li2  1  0.50000000  0.00000000  0.00000000  1
  Li  Li3  1  0.00000000  0.00000000  0.50000000  1
  V  V0  1  0.93117500  0.75000000  0.90571900  1
  V  V1  1  0.56882500  0.75000000  0.40571900  1
  V  V2  1  0.43117500  0.25000000  0.59428100  1
  V  V3  1  0.06882500  0.25000000  0.09428100  1
  Co  Co0  1  0.48877100  0.75000000  0.73023300  1
  Co  Co1  1  0.01122900  0.75000000  0.23023300  1
  Co  Co2  1  0.98877100  0.25000000  0.76976700  1
  Co  Co3  1  0.51122900  0.25000000  0.26976700  1
  O  O0  1  0.77787800  0.52268700  0.82955100  1
  O  O1  1  0.72212200  0.52268700  0.32955100  1
  O  O2  1  0.70474900  0.75000000  0.55702900  1
  O  O3  1  0.28206800  0.75000000  0.90575300  1
  O  O4  1  0.21793200  0.75000000  0.40575300  1
  O  O5  1  0.79525100  0.75000000  0.05702900  1
  O  O6  1  0.77787800  0.97731300  0.82955100  1
  O  O7  1  0.72212200  0.97731300  0.32955100  1
  O  O8  1  0.22212200  0.02268700  0.17044900  1
  O  O9  1  0.27787800  0.02268700  0.67044900  1
  O  O10  1  0.29525100  0.25000000  0.44297100  1
  O  O11  1  0.20474900  0.25000000  0.94297100  1
  O  O12  1  0.78206800  0.25000000  0.59424700  1
  O  O13  1  0.71793200  0.25000000  0.09424700  1
  O  O14  1  0.27787800  0.47731300  0.67044900  1
  O  O15  1  0.22212200  0.47731300  0.17044900  1
loop_
_geom_bond_atom_site_label_1
_geom_bond_atom_site_label_2
_geom_bond_distance
_geom_bond_site_symmetry_2
Li0 O13 2.111175 1_555
Li0 O3 2.111175 1_554
Li0 O5 2.191168 1_555
Li0 O11 2.191168 1_554
Li0 O15 2.269433 1_555
Li0 O0 2.269433 1_554
Li1 O4 2.111175 1_555
Li1 O12 2.111175 1_455
Li1 O10 2.191168 1_555
Li1 O2 2.191168 1_455
Li1 O14 2.269433 1_555
Li1 O1 2.269433 1_455
Li2 O13 2.111175 1_555
Li2 O3 2.111175 1_544
Li2 O5 2.191168 1_545
Li2 O11 2.191168 1_554
Li2 O8 2.269433 1_555
Li2 O6 2.269433 1_544
Li3 O12 2.111175 1_455
Li3 O4 2.111175 1_545
Li3 O10 2.191168 1_555
Li3 O2 2.191168 1_445
Li3 O9 2.269433 1_555
Li3 O7 2.269433 1_445
Co0 O9 2.056240 1_565
Co0 O14 2.056240 1_555
Co0 O3 2.117098 1_555
Co0 O2 2.118508 1_555
Co0 O0 2.247563 1_555
Co0 O6 2.247563 1_555
Co1 O8 2.056240 1_565
Co1 O15 2.056240 1_555
Co1 O4 2.117098 1_555
Co1 O5 2.118508 1_455
Co1 O1 2.247563 1_455
Co1 O7 2.247563 1_455
Co2 O0 2.056240 1_555
Co2 O6 2.056240 1_545
Co2 O12 2.117098 1_555
Co2 O11 2.118508 1_655
Co2 O9 2.247563 1_655
Co2 O14 2.247563 1_655
Co3 O7 2.056240 1_545
Co3 O1 2.056240 1_555
Co3 O13 2.117098 1_555
Co3 O10 2.118508 1_555
Co3 O8 2.247563 1_555
Co3 O15 2.247563 1_555
O0 V0 1.768240 1_555
O1 V1 1.768240 1_555
O2 V1 1.733688 1_555
O3 V0 1.736720 1_455
O4 V1 1.736720 1_555
O5 V0 1.733688 1_554
O6 V0 1.768240 1_555
O7 V1 1.768240 1_555
O8 V3 1.768240 1_555
O9 V2 1.768240 1_555
O10 V2 1.733688 1_555
O11 V3 1.733688 1_556
O12 V2 1.736720 1_555
O13 V3 1.736720 1_655
O14 V2 1.768240 1_555
O15 V3 1.768240 1_555
