# generated using pymatgen
data_MgH40C10Br2(N2O)10
_symmetry_space_group_name_H-M   'P 1'
_cell_length_a   7.20174200
_cell_length_b   9.87148500
_cell_length_c   24.05636989
_cell_angle_alpha   86.09887797
_cell_angle_beta   90.00000000
_cell_angle_gamma   90.00000000
_symmetry_Int_Tables_number   1
_chemical_formula_structural   MgH40C10Br2(N2O)10
_chemical_formula_sum   'Mg2 H80 C20 Br4 N40 O20'
_cell_volume   1706.25010293
_cell_formula_units_Z   2
loop_
 _symmetry_equiv_pos_site_id
 _symmetry_equiv_pos_as_xyz
  1  'x, y, z'
loop_
 _atom_site_type_symbol
 _atom_site_label
 _atom_site_symmetry_multiplicity
 _atom_site_fract_x
 _atom_site_fract_y
 _atom_site_fract_z
 _atom_site_occupancy
  Mg  Mg0  1  0.00000000  0.00000000  0.00000000  1
  Mg  Mg1  1  0.50000000  0.00000000  0.50000000  1
  H  H0  1  0.73871300  0.22883000  0.00600400  1
  H  H1  1  0.23871300  0.77117000  0.49399600  1
  H  H2  1  0.26128700  0.77117000  0.99399600  1
  H  H3  1  0.76128700  0.22883000  0.50600400  1
  H  H4  1  0.62065900  0.32034200  0.05534500  1
  H  H5  1  0.12065900  0.67965800  0.44465500  1
  H  H6  1  0.37934100  0.67965800  0.94465500  1
  H  H7  1  0.87934100  0.32034200  0.55534500  1
  H  H8  1  0.69694500  0.26639400  0.15078100  1
  H  H9  1  0.19694500  0.73360600  0.34921900  1
  H  H10  1  0.30305500  0.73360600  0.84921900  1
  H  H11  1  0.80305500  0.26639400  0.65078100  1
  H  H12  1  0.78297900  0.10749600  0.16918800  1
  H  H13  1  0.28297900  0.89250400  0.33081200  1
  H  H14  1  0.21702100  0.89250400  0.83081200  1
  H  H15  1  0.71702100  0.10749600  0.66918800  1
  H  H16  1  0.66927700  0.26220200  0.87188400  1
  H  H17  1  0.16927700  0.73779800  0.62811600  1
  H  H18  1  0.33072300  0.73779800  0.12811600  1
  H  H19  1  0.83072300  0.26220200  0.37188400  1
  H  H20  1  0.57281000  0.13611500  0.83404400  1
  H  H21  1  0.07281000  0.86388500  0.66595600  1
  H  H22  1  0.42719000  0.86388500  0.16595600  1
  H  H23  1  0.92719000  0.13611500  0.33404400  1
  H  H24  1  0.57849000  0.90775600  0.87275200  1
  H  H25  1  0.07849000  0.09224400  0.62724800  1
  H  H26  1  0.42151000  0.09224400  0.12724800  1
  H  H27  1  0.92151000  0.90775600  0.37275200  1
  H  H28  1  0.70875800  0.86999600  0.93311000  1
  H  H29  1  0.20875800  0.13000400  0.56689000  1
  H  H30  1  0.29124200  0.13000400  0.06689000  1
  H  H31  1  0.79124200  0.86999600  0.43311000  1
  H  H32  1  0.33834700  0.39800200  0.99966500  1
  H  H33  1  0.83834700  0.60199800  0.50033500  1
  H  H34  1  0.66165300  0.60199800  0.00033500  1
  H  H35  1  0.16165300  0.39800200  0.49966500  1
  H  H36  1  0.34349000  0.42951000  0.92753400  1
  H  H37  1  0.84349000  0.57049000  0.57246600  1
  H  H38  1  0.65651000  0.57049000  0.07246600  1
  H  H39  1  0.15651000  0.42951000  0.42753400  1
  H  H40  1  0.07709000  0.14763500  0.89613900  1
  H  H41  1  0.57709000  0.85236500  0.60386100  1
  H  H42  1  0.92291000  0.85236500  0.10386100  1
  H  H43  1  0.42291000  0.14763500  0.39613900  1
  H  H44  1  0.14511900  0.31194100  0.87079500  1
  H  H45  1  0.64511900  0.68805900  0.62920500  1
  H  H46  1  0.85488100  0.68805900  0.12920500  1
  H  H47  1  0.35488100  0.31194100  0.37079500  1
  H  H48  1  0.30518500  0.50065200  0.68459100  1
  H  H49  1  0.80518500  0.49934800  0.81540900  1
  H  H50  1  0.69481500  0.49934800  0.31540900  1
  H  H51  1  0.19481500  0.50065200  0.18459100  1
  H  H52  1  0.07133100  0.49950800  0.67009600  1
  H  H53  1  0.57133100  0.50049200  0.82990400  1
  H  H54  1  0.92866900  0.50049200  0.32990400  1
  H  H55  1  0.42866900  0.49950800  0.17009600  1
  H  H56  1  0.43650500  0.36686200  0.55865900  1
  H  H57  1  0.93650500  0.63313800  0.94134100  1
  H  H58  1  0.56349500  0.63313800  0.44134100  1
  H  H59  1  0.06349500  0.36686200  0.05865900  1
  H  H60  1  0.51500200  0.42994100  0.62071600  1
  H  H61  1  0.01500200  0.57005900  0.87928400  1
  H  H62  1  0.48499800  0.57005900  0.37928400  1
  H  H63  1  0.98499800  0.42994100  0.12071600  1
  H  H64  1  0.98984100  0.71872300  0.23994700  1
  H  H65  1  0.48984100  0.28127700  0.26005300  1
  H  H66  1  0.01015900  0.28127700  0.76005300  1
  H  H67  1  0.51015900  0.71872300  0.73994700  1
  H  H68  1  0.10782400  0.87466600  0.23832500  1
  H  H69  1  0.60782400  0.12533400  0.26167500  1
  H  H70  1  0.89217600  0.12533400  0.76167500  1
  H  H71  1  0.39217600  0.87466600  0.73832500  1
  H  H72  1  0.54392600  0.87357600  0.25255900  1
  H  H73  1  0.04392600  0.12642400  0.24744100  1
  H  H74  1  0.45607400  0.12642400  0.74744100  1
  H  H75  1  0.95607400  0.87357600  0.75255900  1
  H  H76  1  0.66045400  0.71877900  0.24222800  1
  H  H77  1  0.16045400  0.28122100  0.25777200  1
  H  H78  1  0.33954600  0.28122100  0.75777200  1
  H  H79  1  0.83954600  0.71877900  0.74222800  1
  C  C0  1  0.77946700  0.15756400  0.08540300  1
  C  C1  1  0.27946700  0.84243600  0.41459700  1
  C  C2  1  0.22053300  0.84243600  0.91459700  1
  C  C3  1  0.72053300  0.15756400  0.58540300  1
  C  C4  1  0.70502500  0.06919100  0.90772700  1
  C  C5  1  0.20502500  0.93080900  0.59227300  1
  C  C6  1  0.29497500  0.93080900  0.09227300  1
  C  C7  1  0.79497500  0.06919100  0.40772700  1
  C  C8  1  0.20055800  0.25781500  0.95404900  1
  C  C9  1  0.70055800  0.74218500  0.54595100  1
  C  C10  1  0.79944200  0.74218500  0.04595100  1
  C  C11  1  0.29944200  0.25781500  0.45404900  1
  C  C12  1  0.23223600  0.44513400  0.60615800  1
  C  C13  1  0.73223600  0.55486600  0.89384200  1
  C  C14  1  0.76776400  0.55486600  0.39384200  1
  C  C15  1  0.26776400  0.44513400  0.10615800  1
  C  C16  1  0.82589700  0.89052000  0.24403800  1
  C  C17  1  0.32589700  0.10948000  0.25596200  1
  C  C18  1  0.17410300  0.10948000  0.75596200  1
  C  C19  1  0.67410300  0.89052000  0.74403800  1
  Br  Br0  1  0.77373300  0.47831500  0.19843700  1
  Br  Br1  1  0.27373300  0.52168500  0.30156300  1
  Br  Br2  1  0.22626700  0.52168500  0.80156300  1
  Br  Br3  1  0.72626700  0.47831500  0.69843700  1
  N  N0  1  0.72459100  0.25468700  0.04625900  1
  N  N1  1  0.22459100  0.74531300  0.45374100  1
  N  N2  1  0.27540900  0.74531300  0.95374100  1
  N  N3  1  0.77540900  0.25468700  0.54625900  1
  N  N4  1  0.72127500  0.17002500  0.13893400  1
  N  N5  1  0.22127500  0.82997500  0.36106600  1
  N  N6  1  0.27872500  0.82997500  0.86106600  1
  N  N7  1  0.77872500  0.17002500  0.63893400  1
  N  N8  1  0.63448400  0.16303600  0.86960800  1
  N  N9  1  0.13448400  0.83696400  0.63039200  1
  N  N10  1  0.36551600  0.83696400  0.13039200  1
  N  N11  1  0.86551600  0.16303600  0.36960800  1
  N  N12  1  0.67659800  0.93655800  0.90001900  1
  N  N13  1  0.17659800  0.06344200  0.59998100  1
  N  N14  1  0.32340200  0.06344200  0.09998100  1
  N  N15  1  0.82340200  0.93655800  0.40001900  1
  N  N16  1  0.29062300  0.37549000  0.96114000  1
  N  N17  1  0.79062300  0.62451000  0.53886000  1
  N  N18  1  0.70937700  0.62451000  0.03886000  1
  N  N19  1  0.20937700  0.37549000  0.46114000  1
  N  N20  1  0.13973900  0.23730900  0.90219000  1
  N  N21  1  0.63973900  0.76269100  0.59781000  1
  N  N22  1  0.86026100  0.76269100  0.09781000  1
  N  N23  1  0.36026100  0.23730900  0.40219000  1
  N  N24  1  0.20402300  0.50697500  0.65497200  1
  N  N25  1  0.70402300  0.49302500  0.84502800  1
  N  N26  1  0.79597700  0.49302500  0.34502800  1
  N  N27  1  0.29597700  0.50697500  0.15497200  1
  N  N28  1  0.41021700  0.41880700  0.59269900  1
  N  N29  1  0.91021700  0.58119300  0.90730100  1
  N  N30  1  0.58978300  0.58119300  0.40730100  1
  N  N31  1  0.08978300  0.41880700  0.09269900  1
  N  N32  1  0.98559700  0.82177900  0.23649900  1
  N  N33  1  0.48559700  0.17822100  0.26350100  1
  N  N34  1  0.01440300  0.17822100  0.76350100  1
  N  N35  1  0.51440300  0.82177900  0.73649900  1
  N  N36  1  0.66439600  0.82049800  0.24685100  1
  N  N37  1  0.16439600  0.17950200  0.25314900  1
  N  N38  1  0.33560400  0.17950200  0.75314900  1
  N  N39  1  0.83560400  0.82049800  0.74685100  1
  O  O0  1  0.87912600  0.05828800  0.07324600  1
  O  O1  1  0.37912600  0.94171200  0.42675400  1
  O  O2  1  0.12087400  0.94171200  0.92675400  1
  O  O3  1  0.62087400  0.05828800  0.57324600  1
  O  O4  1  0.79800400  0.10656300  0.94904600  1
  O  O5  1  0.29800400  0.89343700  0.55095400  1
  O  O6  1  0.20199600  0.89343700  0.05095400  1
  O  O7  1  0.70199600  0.10656300  0.44904600  1
  O  O8  1  0.17163800  0.17212000  0.99527500  1
  O  O9  1  0.67163800  0.82788000  0.50472500  1
  O  O10  1  0.82836200  0.82788000  0.00472500  1
  O  O11  1  0.32836200  0.17212000  0.49527500  1
  O  O12  1  0.09757100  0.42177200  0.57480200  1
  O  O13  1  0.59757100  0.57822800  0.92519800  1
  O  O14  1  0.90242900  0.57822800  0.42519800  1
  O  O15  1  0.40242900  0.42177200  0.07480200  1
  O  O16  1  0.82772900  0.01911200  0.24738500  1
  O  O17  1  0.32772900  0.98088800  0.25261500  1
  O  O18  1  0.17227100  0.98088800  0.75261500  1
  O  O19  1  0.67227100  0.01911200  0.74738500  1
loop_
_geom_bond_atom_site_label_1
_geom_bond_atom_site_label_2
_geom_bond_distance
_geom_bond_site_symmetry_2
Mg0 O0 2.081241 1_455
Mg0 O2 2.081241 1_544
Mg0 O8 2.097961 1_554
Mg0 O10 2.097961 1_445
Mg0 O6 2.133036 1_545
Mg0 O4 2.133036 1_454
Mg1 O1 2.081241 1_545
Mg1 O3 2.081241 1_555
Mg1 O11 2.097961 1_555
Mg1 O9 2.097961 1_545
Mg1 O7 2.133036 1_555
Mg1 O5 2.133036 1_545
H0 N0 1.023184 1_555
H1 N1 1.023184 1_555
H2 N2 1.023184 1_555
H3 N3 1.023184 1_555
H4 N0 1.023397 1_555
H5 N1 1.023397 1_555
H6 N2 1.023397 1_555
H7 N3 1.023397 1_555
H8 N4 1.026546 1_555
H9 N5 1.026546 1_555
H10 N6 1.026546 1_555
H11 N7 1.026546 1_555
H12 N4 1.023250 1_555
H13 N5 1.023250 1_555
H14 N6 1.023250 1_555
H15 N7 1.023250 1_555
H16 N8 1.015555 1_555
H17 N9 1.015555 1_555
H18 N10 1.015555 1_555
H19 N11 1.015555 1_555
H20 N8 1.015277 1_555
H21 N9 1.015277 1_555
H22 N10 1.015277 1_555
H23 N11 1.015277 1_555
H24 N12 1.017688 1_555
H25 N13 1.017688 1_555
H26 N14 1.017688 1_555
H27 N15 1.017688 1_555
H28 N12 1.023670 1_555
H29 N13 1.023670 1_555
H30 N14 1.023670 1_555
H31 N15 1.023670 1_555
H32 N16 1.026860 1_555
H33 N17 1.026860 1_555
H34 N18 1.026860 1_555
H35 N19 1.026860 1_555
H36 N16 1.012045 1_555
H37 N17 1.012045 1_555
H38 N18 1.012045 1_555
H39 N19 1.012045 1_555
H40 N20 1.012864 1_555
H41 N21 1.012864 1_555
H42 N22 1.012864 1_555
H43 N23 1.012864 1_555
H44 N20 1.019295 1_555
H45 N21 1.019295 1_555
H46 N22 1.019295 1_555
H47 N23 1.019295 1_555
H48 N24 1.017994 1_555
H49 N25 1.017994 1_555
H50 N26 1.017994 1_555
H51 N27 1.017994 1_555
H52 N24 1.023402 1_555
H53 N25 1.023402 1_555
H54 N26 1.023402 1_555
H55 N27 1.023402 1_555
H56 N28 1.013152 1_555
H57 N29 1.013152 1_555
H58 N30 1.013152 1_555
H59 N31 1.013152 1_555
H60 N28 1.022689 1_555
H61 N29 1.022689 1_455
H62 N30 1.022689 1_555
H63 N31 1.022689 1_655
H64 N32 1.015512 1_555
H65 N33 1.015512 1_555
H66 N34 1.015512 1_555
H67 N35 1.015512 1_555
H68 N32 1.025888 1_455
H69 N33 1.025888 1_555
H70 N34 1.025888 1_655
H71 N35 1.025888 1_555
H72 N36 1.027568 1_555
H73 N37 1.027568 1_555
H74 N38 1.027568 1_555
H75 N39 1.027568 1_555
H76 N36 1.018146 1_555
H77 N37 1.018146 1_555
H78 N38 1.018146 1_555
H79 N39 1.018146 1_555
C0 O0 1.264931 1_555
C0 N0 1.356195 1_555
C0 N4 1.367716 1_555
C1 O1 1.264931 1_555
C1 N1 1.356195 1_555
C1 N5 1.367716 1_555
C2 O2 1.264931 1_555
C2 N2 1.356195 1_555
C2 N6 1.367716 1_555
C3 O3 1.264931 1_555
C3 N3 1.356195 1_555
C3 N7 1.367716 1_555
C4 O4 1.273727 1_555
C4 N12 1.350391 1_545
C4 N8 1.357050 1_555
C5 O5 1.273727 1_555
C5 N13 1.350391 1_565
C5 N9 1.357050 1_555
C6 O6 1.273727 1_555
C6 N14 1.350391 1_565
C6 N10 1.357050 1_555
C7 O7 1.273727 1_555
C7 N15 1.350391 1_545
C7 N11 1.357050 1_555
C8 O8 1.276086 1_555
C8 N20 1.350385 1_555
C8 N16 1.351352 1_555
C9 O9 1.276086 1_555
C9 N21 1.350385 1_555
C9 N17 1.351352 1_555
C10 O10 1.276086 1_555
C10 N22 1.350385 1_555
C10 N18 1.351352 1_555
C11 O11 1.276086 1_555
C11 N23 1.350385 1_555
C11 N19 1.351352 1_555
C12 O12 1.259522 1_555
C12 N28 1.351578 1_555
C12 N24 1.374933 1_555
C13 O13 1.259522 1_555
C13 N29 1.351578 1_555
C13 N25 1.374933 1_555
C14 O14 1.259522 1_555
C14 N30 1.351578 1_555
C14 N26 1.374933 1_555
C15 O15 1.259522 1_555
C15 N31 1.351578 1_555
C15 N27 1.374933 1_555
C16 O16 1.277468 1_565
C16 N36 1.352323 1_555
C16 N32 1.353837 1_555
C17 O17 1.277468 1_545
C17 N37 1.352323 1_555
C17 N33 1.353837 1_555
C18 O18 1.277468 1_545
C18 N38 1.352323 1_555
C18 N34 1.353837 1_555
C19 O19 1.277468 1_565
C19 N39 1.352323 1_555
C19 N35 1.353837 1_555
