# generated using pymatgen
data_H9CN5Cl2
_symmetry_space_group_name_H-M   'P 1'
_cell_length_a   21.52837000
_cell_length_b   4.62825800
_cell_length_c   7.02976417
_cell_angle_alpha   84.55421978
_cell_angle_beta   90.00000000
_cell_angle_gamma   90.00000000
_symmetry_Int_Tables_number   1
_chemical_formula_structural   H9CN5Cl2
_chemical_formula_sum   'H36 C4 N20 Cl8'
_cell_volume   697.27616441
_cell_formula_units_Z   4
loop_
 _symmetry_equiv_pos_site_id
 _symmetry_equiv_pos_as_xyz
  1  'x, y, z'
loop_
 _atom_site_type_symbol
 _atom_site_label
 _atom_site_symmetry_multiplicity
 _atom_site_fract_x
 _atom_site_fract_y
 _atom_site_fract_z
 _atom_site_occupancy
  H  H0  1  0.95290100  0.84506500  0.87652300  1
  H  H1  1  0.59887700  0.86987900  0.56806600  1
  H  H2  1  0.54709900  0.84506500  0.37652300  1
  H  H3  1  0.90112300  0.86987900  0.06806600  1
  H  H4  1  0.87999200  0.80854900  0.51156900  1
  H  H5  1  0.95479100  0.73405800  0.59734600  1
  H  H6  1  0.71273500  0.72394000  0.67730900  1
  H  H7  1  0.62000800  0.80854900  0.01156900  1
  H  H8  1  0.35253200  0.67713000  0.82781300  1
  H  H9  1  0.54520900  0.73405800  0.09734600  1
  H  H10  1  0.78726500  0.72394000  0.17730900  1
  H  H11  1  0.14746800  0.67713000  0.32781300  1
  H  H12  1  0.29272100  0.63382200  0.55558200  1
  H  H13  1  0.18651000  0.60105700  0.72594800  1
  H  H14  1  0.57818300  0.50819900  0.95113700  1
  H  H15  1  0.20727900  0.63382200  0.05558200  1
  H  H16  1  0.31349000  0.60105700  0.22594800  1
  H  H17  1  0.92181700  0.50819900  0.45113700  1
  H  H18  1  0.07818300  0.49180100  0.54886300  1
  H  H19  1  0.68651000  0.39894300  0.77405200  1
  H  H20  1  0.79272100  0.36617800  0.94441800  1
  H  H21  1  0.42181700  0.49180100  0.04886300  1
  H  H22  1  0.81349000  0.39894300  0.27405200  1
  H  H23  1  0.70727900  0.36617800  0.44441800  1
  H  H24  1  0.85253200  0.32287000  0.67218700  1
  H  H25  1  0.21273500  0.27606000  0.82269100  1
  H  H26  1  0.45479100  0.26594200  0.90265400  1
  H  H27  1  0.64746800  0.32287000  0.17218700  1
  H  H28  1  0.37999200  0.19145100  0.98843100  1
  H  H29  1  0.28726500  0.27606000  0.32269100  1
  H  H30  1  0.04520900  0.26594200  0.40265400  1
  H  H31  1  0.12000800  0.19145100  0.48843100  1
  H  H32  1  0.09887700  0.13012100  0.93193400  1
  H  H33  1  0.45290100  0.15493500  0.62347700  1
  H  H34  1  0.40112300  0.13012100  0.43193400  1
  H  H35  1  0.04709900  0.15493500  0.12347700  1
  C  C0  1  0.87504700  0.58902200  0.88391800  1
  C  C1  1  0.62495300  0.58902200  0.38391800  1
  C  C2  1  0.37504700  0.41097800  0.61608200  1
  C  C3  1  0.12495300  0.41097800  0.11608200  1
  N  N0  1  0.90977200  0.80360500  0.93569000  1
  N  N1  1  0.59022800  0.80360500  0.43569000  1
  N  N2  1  0.91154400  0.64411000  0.56031700  1
  N  N3  1  0.67681500  0.57676100  0.67904200  1
  N  N4  1  0.58845600  0.64411000  0.06031700  1
  N  N5  1  0.38616400  0.53558300  0.78218300  1
  N  N6  1  0.82318500  0.57676100  0.17904200  1
  N  N7  1  0.82878200  0.48086600  0.99632700  1
  N  N8  1  0.32878200  0.51913400  0.50367300  1
  N  N9  1  0.11383600  0.53558300  0.28218300  1
  N  N10  1  0.88616400  0.46441700  0.71781700  1
  N  N11  1  0.67121800  0.48086600  0.49632700  1
  N  N12  1  0.17121800  0.51913400  0.00367300  1
  N  N13  1  0.17681500  0.42323900  0.82095800  1
  N  N14  1  0.61383600  0.46441700  0.21781700  1
  N  N15  1  0.41154400  0.35589000  0.93968300  1
  N  N16  1  0.32318500  0.42323900  0.32095800  1
  N  N17  1  0.08845600  0.35589000  0.43968300  1
  N  N18  1  0.40977200  0.19639500  0.56431000  1
  N  N19  1  0.09022800  0.19639500  0.06431000  1
  Cl  Cl0  1  0.29277300  0.94580700  0.96096100  1
  Cl  Cl1  1  0.20722700  0.94580700  0.46096100  1
  Cl  Cl2  1  0.04137300  0.81676500  0.71233800  1
  Cl  Cl3  1  0.45862700  0.81676500  0.21233800  1
  Cl  Cl4  1  0.54137300  0.18323500  0.78766200  1
  Cl  Cl5  1  0.95862700  0.18323500  0.28766200  1
  Cl  Cl6  1  0.79277300  0.05419300  0.53903900  1
  Cl  Cl7  1  0.70722700  0.05419300  0.03903900  1
loop_
_geom_bond_atom_site_label_1
_geom_bond_atom_site_label_2
_geom_bond_distance
_geom_bond_site_symmetry_2
H0 N0 1.027996 1_555
H1 N1 1.024157 1_555
H2 N1 1.027996 1_555
H3 N0 1.024157 1_554
H4 N2 1.052878 1_555
H5 N2 1.062293 1_555
H6 N3 1.029842 1_555
H7 N4 1.052878 1_555
H8 N5 1.046992 1_555
H9 N4 1.062293 1_555
H10 N6 1.029842 1_555
H11 N9 1.046992 1_555
H12 N8 1.026826 1_555
H13 N13 1.030838 1_555
H14 N4 1.060802 1_556
H15 N12 1.026826 1_555
H16 N16 1.030838 1_555
H17 N2 1.060802 1_555
H18 N17 1.060802 1_555
H19 N3 1.030838 1_555
H20 N7 1.026826 1_555
H21 N15 1.060802 1_554
H22 N6 1.030838 1_555
H23 N11 1.026826 1_555
H24 N10 1.046992 1_555
H25 N13 1.029842 1_555
H26 N15 1.062293 1_555
H27 N14 1.046992 1_555
H28 N15 1.052878 1_555
H29 N16 1.029842 1_555
H30 N17 1.062293 1_555
H31 N17 1.052878 1_555
H32 N19 1.024157 1_556
H33 N18 1.027996 1_555
H34 N18 1.024157 1_555
H35 N19 1.027996 1_555
C0 N0 1.321463 1_555
C0 N7 1.338641 1_555
C0 N10 1.371528 1_555
C1 N1 1.321463 1_555
C1 N11 1.338641 1_555
C1 N14 1.371528 1_555
C2 N18 1.321463 1_555
C2 N8 1.338641 1_555
C2 N5 1.371528 1_555
C3 N19 1.321463 1_555
C3 N12 1.338641 1_555
C3 N9 1.371528 1_555
N6 N7 1.403389 1_554
N10 N2 1.428740 1_555
N11 N3 1.403389 1_555
N12 N13 1.403389 1_554
N14 N4 1.428740 1_555
N15 N5 1.428740 1_555
N16 N8 1.403389 1_555
N17 N9 1.428740 1_555
Cl0 H8 2.073268 1_555
Cl1 H11 2.073268 1_555
Cl6 H24 2.073268 1_555
Cl7 H27 2.073268 1_555
