# generated using pymatgen
data_Mn4(PO4)3
_symmetry_space_group_name_H-M   'P 1'
_cell_length_a   9.83802556
_cell_length_b   9.83802556
_cell_length_c   9.83802543
_cell_angle_alpha   51.12758634
_cell_angle_beta   51.12758634
_cell_angle_gamma   51.12758421
_symmetry_Int_Tables_number   1
_chemical_formula_structural   Mn4(PO4)3
_chemical_formula_sum   'Mn8 P6 O24'
_cell_volume   532.52185608
_cell_formula_units_Z   2
loop_
 _symmetry_equiv_pos_site_id
 _symmetry_equiv_pos_as_xyz
  1  'x, y, z'
loop_
 _atom_site_type_symbol
 _atom_site_label
 _atom_site_symmetry_multiplicity
 _atom_site_fract_x
 _atom_site_fract_y
 _atom_site_fract_z
 _atom_site_occupancy
  Mn  Mn0  1  0.71125500  0.71125500  0.71125500  1
  Mn  Mn1  1  0.21125500  0.21125500  0.21125500  1
  Mn  Mn2  1  0.19342900  0.53673600  0.73295300  1
  Mn  Mn3  1  0.23295300  0.03673600  0.69342900  1
  Mn  Mn4  1  0.69342900  0.23295300  0.03673600  1
  Mn  Mn5  1  0.03673600  0.69342900  0.23295300  1
  Mn  Mn6  1  0.73295300  0.19342900  0.53673600  1
  Mn  Mn7  1  0.53673600  0.73295300  0.19342900  1
  P  P0  1  0.82970200  0.42010500  0.09577100  1
  P  P1  1  0.32970200  0.59577100  0.92010500  1
  P  P2  1  0.59577100  0.92010500  0.32970200  1
  P  P3  1  0.09577100  0.82970200  0.42010500  1
  P  P4  1  0.92010500  0.32970200  0.59577100  1
  P  P5  1  0.42010500  0.09577100  0.82970200  1
  O  O0  1  0.01939500  0.03445800  0.40224500  1
  O  O1  1  0.93358700  0.21157900  0.79438300  1
  O  O2  1  0.26176700  0.10856400  0.82570800  1
  O  O3  1  0.10856300  0.82570800  0.26176700  1
  O  O4  1  0.40224500  0.01939500  0.03445800  1
  O  O5  1  0.76176700  0.32570800  0.60856300  1
  O  O6  1  0.53445800  0.51939500  0.90224500  1
  O  O7  1  0.71157900  0.43358700  0.29438300  1
  O  O8  1  0.12075700  0.21463600  0.47910600  1
  O  O9  1  0.79438300  0.93358700  0.21157900  1
  O  O10  1  0.32570800  0.60856300  0.76176700  1
  O  O11  1  0.03445800  0.40224500  0.01939500  1
  O  O12  1  0.47910600  0.12075700  0.21463600  1
  O  O13  1  0.21463600  0.47910600  0.12075700  1
  O  O14  1  0.62075700  0.97910600  0.71463600  1
  O  O15  1  0.97910600  0.71463600  0.62075700  1
  O  O16  1  0.71463600  0.62075700  0.97910600  1
  O  O17  1  0.21157900  0.79438300  0.93358700  1
  O  O18  1  0.82570800  0.26176700  0.10856300  1
  O  O19  1  0.51939500  0.90224500  0.53445800  1
  O  O20  1  0.43358700  0.29438300  0.71157900  1
  O  O21  1  0.90224500  0.53445800  0.51939500  1
  O  O22  1  0.29438300  0.71157900  0.43358700  1
  O  O23  1  0.60856300  0.76176700  0.32570800  1
loop_
_geom_bond_atom_site_label_1
_geom_bond_atom_site_label_2
_geom_bond_distance
_geom_bond_site_symmetry_2
Mn0 O16 2.205839 1_555
Mn0 O14 2.205839 1_555
Mn0 O15 2.205839 1_555
Mn0 O19 2.384454 1_555
Mn0 O21 2.384454 1_555
Mn0 O6 2.384455 1_555
Mn1 O8 2.205839 1_555
Mn1 O12 2.205839 1_555
Mn1 O13 2.205839 1_555
Mn1 O4 2.384454 1_555
Mn1 O11 2.384454 1_555
Mn1 O0 2.384455 1_555
Mn2 O10 2.035179 1_555
Mn2 O20 2.060626 1_555
Mn2 O11 2.126802 1_556
Mn2 O15 2.142851 1_455
Mn2 O22 2.175613 1_555
Mn3 O2 2.035187 1_555
Mn3 O17 2.060627 1_545
Mn3 O19 2.126802 1_545
Mn3 O8 2.142851 1_555
Mn3 O1 2.175613 1_455
Mn4 O18 2.035179 1_555
Mn4 O1 2.060627 1_554
Mn4 O6 2.126802 1_554
Mn4 O12 2.142851 1_555
Mn4 O9 2.175613 1_545
Mn5 O3 2.035179 1_555
Mn5 O9 2.060626 1_455
Mn5 O21 2.126802 1_455
Mn5 O13 2.142851 1_555
Mn5 O17 2.175613 1_554
Mn6 O5 2.035179 1_555
Mn6 O7 2.060627 1_555
Mn6 O0 2.126802 1_655
Mn6 O14 2.142851 1_545
Mn6 O20 2.175613 1_555
Mn7 O23 2.035179 1_555
Mn7 O22 2.060627 1_555
Mn7 O4 2.126802 1_565
Mn7 O16 2.142851 1_554
Mn7 O7 2.175613 1_555
O0 P3 1.573172 1_545
O1 P4 1.570894 1_555
O2 P5 1.506139 1_555
O3 P3 1.506145 1_555
O4 P5 1.573172 1_554
O5 P4 1.506145 1_555
O6 P1 1.573172 1_555
O7 P0 1.570894 1_555
O8 P4 1.574070 1_455
O9 P2 1.570894 1_555
O10 P1 1.506145 1_555
O11 P0 1.573172 1_455
O12 P2 1.574070 1_545
O13 P1 1.574070 1_554
O14 P5 1.574070 1_565
O15 P3 1.574070 1_655
O16 P0 1.574070 1_556
O17 P1 1.570894 1_555
O18 P0 1.506145 1_555
O19 P2 1.573172 1_555
O20 P5 1.570894 1_555
O21 P4 1.573172 1_555
O22 P3 1.570894 1_555
O23 P2 1.506145 1_555
