# generated using pymatgen
data_V(SiO3)2
_symmetry_space_group_name_H-M   'P 1'
_cell_length_a   5.32799200
_cell_length_b   8.81961100
_cell_length_c   17.99261200
_cell_angle_alpha   90.00000000
_cell_angle_beta   90.00000000
_cell_angle_gamma   90.00000000
_symmetry_Int_Tables_number   1
_chemical_formula_structural   V(SiO3)2
_chemical_formula_sum   'V8 Si16 O48'
_cell_volume   845.48753517
_cell_formula_units_Z   8
loop_
 _symmetry_equiv_pos_site_id
 _symmetry_equiv_pos_as_xyz
  1  'x, y, z'
loop_
 _atom_site_type_symbol
 _atom_site_label
 _atom_site_symmetry_multiplicity
 _atom_site_fract_x
 _atom_site_fract_y
 _atom_site_fract_z
 _atom_site_occupancy
  V  V0  1  0.62084200  0.64581300  0.12586400  1
  V  V1  1  0.12084200  0.85418700  0.12586400  1
  V  V2  1  0.12084200  0.35418700  0.37413600  1
  V  V3  1  0.62084200  0.14581300  0.37413600  1
  V  V4  1  0.37915800  0.85418700  0.62586400  1
  V  V5  1  0.87915800  0.64581300  0.62586400  1
  V  V6  1  0.37915800  0.35418700  0.87413600  1
  V  V7  1  0.87915800  0.14581300  0.87413600  1
  Si  Si0  1  0.69679400  0.33297900  0.02520900  1
  Si  Si1  1  0.19679400  0.16702100  0.02520900  1
  Si  Si2  1  0.44938300  0.33484600  0.22372400  1
  Si  Si3  1  0.94938300  0.16515400  0.22372400  1
  Si  Si4  1  0.44938300  0.83484600  0.27627600  1
  Si  Si5  1  0.94938300  0.66515400  0.27627600  1
  Si  Si6  1  0.69679400  0.83297900  0.47479100  1
  Si  Si7  1  0.19679400  0.66702100  0.47479100  1
  Si  Si8  1  0.80320600  0.33297900  0.52520900  1
  Si  Si9  1  0.30320600  0.16702100  0.52520900  1
  Si  Si10  1  0.05061700  0.33484600  0.72372400  1
  Si  Si11  1  0.55061700  0.16515400  0.72372400  1
  Si  Si12  1  0.05061700  0.83484600  0.77627600  1
  Si  Si13  1  0.55061700  0.66515400  0.77627600  1
  Si  Si14  1  0.80320600  0.83297900  0.97479100  1
  Si  Si15  1  0.30320600  0.66702100  0.97479100  1
  O  O0  1  0.92966400  0.23142300  0.05509400  1
  O  O1  1  0.42966400  0.26857700  0.05509400  1
  O  O2  1  0.80688000  0.81627900  0.06707800  1
  O  O3  1  0.30688000  0.68372100  0.06707800  1
  O  O4  1  0.73039200  0.50435000  0.05750300  1
  O  O5  1  0.23039200  0.99565000  0.05750300  1
  O  O6  1  0.43637000  0.81886300  0.18353800  1
  O  O7  1  0.93637000  0.68113700  0.18353800  1
  O  O8  1  0.99430400  0.99362700  0.19383900  1
  O  O9  1  0.49430400  0.50637300  0.19383900  1
  O  O10  1  0.68191900  0.23118900  0.19455500  1
  O  O11  1  0.18191900  0.26881100  0.19455500  1
  O  O12  1  0.18191900  0.76881100  0.30544500  1
  O  O13  1  0.68191900  0.73118900  0.30544500  1
  O  O14  1  0.99430400  0.49362700  0.30616100  1
  O  O15  1  0.49430400  0.00637300  0.30616100  1
  O  O16  1  0.43637000  0.31886300  0.31646200  1
  O  O17  1  0.93637000  0.18113700  0.31646200  1
  O  O18  1  0.73039200  0.00435000  0.44249700  1
  O  O19  1  0.23039200  0.49565000  0.44249700  1
  O  O20  1  0.80688000  0.31627900  0.43292200  1
  O  O21  1  0.30688000  0.18372100  0.43292200  1
  O  O22  1  0.42966400  0.76857700  0.44490600  1
  O  O23  1  0.92966400  0.73142300  0.44490600  1
  O  O24  1  0.07033600  0.26857700  0.55509400  1
  O  O25  1  0.57033600  0.23142300  0.55509400  1
  O  O26  1  0.69312000  0.81627900  0.56707800  1
  O  O27  1  0.19312000  0.68372100  0.56707800  1
  O  O28  1  0.76960800  0.50435000  0.55750300  1
  O  O29  1  0.26960800  0.99565000  0.55750300  1
  O  O30  1  0.06363000  0.81886300  0.68353800  1
  O  O31  1  0.56363000  0.68113700  0.68353800  1
  O  O32  1  0.50569600  0.99362700  0.69383900  1
  O  O33  1  0.00569600  0.50637300  0.69383900  1
  O  O34  1  0.31808100  0.26881100  0.69455500  1
  O  O35  1  0.81808100  0.23118900  0.69455500  1
  O  O36  1  0.31808100  0.76881100  0.80544500  1
  O  O37  1  0.81808100  0.73118900  0.80544500  1
  O  O38  1  0.50569600  0.49362700  0.80616100  1
  O  O39  1  0.00569600  0.00637300  0.80616100  1
  O  O40  1  0.06363000  0.31886300  0.81646200  1
  O  O41  1  0.56363000  0.18113700  0.81646200  1
  O  O42  1  0.76960800  0.00435000  0.94249700  1
  O  O43  1  0.26960800  0.49565000  0.94249700  1
  O  O44  1  0.69312000  0.31627900  0.93292200  1
  O  O45  1  0.19312000  0.18372100  0.93292200  1
  O  O46  1  0.07033600  0.76857700  0.94490600  1
  O  O47  1  0.57033600  0.73142300  0.94490600  1
loop_
_geom_bond_atom_site_label_1
_geom_bond_atom_site_label_2
_geom_bond_distance
_geom_bond_site_symmetry_2
O0 Si0 1.621971 1_555
O0 Si1 1.624021 1_655
O1 Si1 1.621971 1_555
O1 Si0 1.624021 1_555
O2 Si14 1.667119 1_554
O2 V1 2.007176 1_655
O2 V0 2.088444 1_555
O3 Si15 1.667119 1_554
O3 V0 2.007176 1_555
O3 V1 2.088444 1_555
O4 Si0 1.629133 1_555
O4 V0 1.846671 1_555
O5 Si1 1.629133 1_565
O5 V1 1.846671 1_555
O6 Si4 1.675977 1_555
O6 V1 2.000023 1_555
O6 V0 2.090992 1_555
O7 Si5 1.675977 1_555
O7 V0 2.000023 1_555
O7 V1 2.090992 1_655
O8 Si3 1.623263 1_565
O8 V1 1.860862 1_655
O9 Si2 1.623263 1_555
O9 V0 1.860862 1_555
O10 Si3 1.626466 1_555
O10 Si2 1.626723 1_555
O11 Si2 1.626466 1_555
O11 Si3 1.626723 1_455
O12 Si4 1.626466 1_555
O12 Si5 1.626723 1_455
O13 Si5 1.626466 1_555
O13 Si4 1.626723 1_555
O14 Si5 1.623263 1_555
O14 V2 1.860862 1_655
O15 Si4 1.623263 1_545
O15 V3 1.860862 1_555
O16 Si2 1.675977 1_555
O16 V2 2.000023 1_555
O16 V3 2.090992 1_555
O17 Si3 1.675977 1_555
O17 V3 2.000023 1_555
O17 V2 2.090992 1_655
O18 Si6 1.629133 1_545
O18 V3 1.846671 1_555
O19 Si7 1.629133 1_555
O19 V2 1.846671 1_555
O20 Si8 1.667119 1_555
O20 V2 2.007176 1_655
O20 V3 2.088444 1_555
O21 Si9 1.667119 1_555
O21 V3 2.007176 1_555
O21 V2 2.088444 1_555
O22 Si7 1.621971 1_555
O22 Si6 1.624021 1_555
O23 Si6 1.621971 1_555
O23 Si7 1.624021 1_655
O24 Si9 1.621971 1_555
O24 Si8 1.624021 1_455
O25 Si8 1.621971 1_555
O25 Si9 1.624021 1_555
O26 Si6 1.667119 1_555
O26 V4 2.007176 1_555
O26 V5 2.088444 1_555
O27 Si7 1.667119 1_555
O27 V5 2.007176 1_455
O27 V4 2.088444 1_555
O28 Si8 1.629133 1_555
O28 V5 1.846671 1_555
O29 Si9 1.629133 1_565
O29 V4 1.846671 1_555
O30 Si12 1.675977 1_555
O30 V4 2.000023 1_555
O30 V5 2.090992 1_455
O31 Si13 1.675977 1_555
O31 V5 2.000023 1_555
O31 V4 2.090992 1_555
O32 Si11 1.623263 1_565
O32 V4 1.860862 1_555
O33 Si10 1.623263 1_555
O33 V5 1.860862 1_455
O34 Si10 1.626466 1_555
O34 Si11 1.626723 1_555
O35 Si11 1.626466 1_555
O35 Si10 1.626723 1_655
O36 Si12 1.626466 1_555
O36 Si13 1.626723 1_555
O37 Si13 1.626466 1_555
O37 Si12 1.626723 1_655
O38 Si13 1.623263 1_555
O38 V6 1.860862 1_555
O39 Si12 1.623263 1_545
O39 V7 1.860862 1_455
O40 Si10 1.675977 1_555
O40 V6 2.000023 1_555
O40 V7 2.090992 1_455
O41 Si11 1.675977 1_555
O41 V7 2.000023 1_555
O41 V6 2.090992 1_555
O42 Si14 1.629133 1_545
O42 V7 1.846671 1_555
O43 Si15 1.629133 1_555
O43 V6 1.846671 1_555
O44 Si0 1.667119 1_556
O44 V6 2.007176 1_555
O44 V7 2.088444 1_555
O45 Si1 1.667119 1_556
O45 V7 2.007176 1_455
O45 V6 2.088444 1_555
O46 Si15 1.621971 1_555
O46 Si14 1.624021 1_455
O47 Si14 1.621971 1_555
O47 Si15 1.624021 1_555
