# generated using pymatgen
data_Li4Bi2O5
_symmetry_space_group_name_H-M   'P 1'
_cell_length_a   5.37481400
_cell_length_b   8.84370000
_cell_length_c   13.91147300
_cell_angle_alpha   90.00000000
_cell_angle_beta   90.00000000
_cell_angle_gamma   90.00000000
_symmetry_Int_Tables_number   1
_chemical_formula_structural   Li4Bi2O5
_chemical_formula_sum   'Li16 Bi8 O20'
_cell_volume   661.25742064
_cell_formula_units_Z   4
loop_
 _symmetry_equiv_pos_site_id
 _symmetry_equiv_pos_as_xyz
  1  'x, y, z'
loop_
 _atom_site_type_symbol
 _atom_site_label
 _atom_site_symmetry_multiplicity
 _atom_site_fract_x
 _atom_site_fract_y
 _atom_site_fract_z
 _atom_site_occupancy
  Li  Li0  1  0.44026300  0.86134600  0.03514200  1
  Li  Li1  1  0.05973700  0.63865400  0.03514200  1
  Li  Li2  1  0.25000000  0.75000000  0.25231000  1
  Li  Li3  1  0.50000000  0.03682900  0.25000000  1
  Li  Li4  1  0.00000000  0.46317100  0.25000000  1
  Li  Li5  1  0.75000000  0.75000000  0.24769000  1
  Li  Li6  1  0.94026300  0.63865400  0.46485800  1
  Li  Li7  1  0.55973700  0.86134600  0.46485800  1
  Li  Li8  1  0.44026300  0.13865400  0.53514200  1
  Li  Li9  1  0.05973700  0.36134600  0.53514200  1
  Li  Li10  1  0.25000000  0.25000000  0.75231000  1
  Li  Li11  1  0.00000000  0.53682900  0.75000000  1
  Li  Li12  1  0.50000000  0.96317100  0.75000000  1
  Li  Li13  1  0.75000000  0.25000000  0.74769000  1
  Li  Li14  1  0.94026300  0.36134600  0.96485800  1
  Li  Li15  1  0.55973700  0.13865400  0.96485800  1
  Bi  Bi0  1  0.53055100  0.44711300  0.11817500  1
  Bi  Bi1  1  0.96944900  0.05288700  0.11817500  1
  Bi  Bi2  1  0.03055100  0.05288700  0.38182500  1
  Bi  Bi3  1  0.46944900  0.44711300  0.38182500  1
  Bi  Bi4  1  0.53055100  0.55288700  0.61817500  1
  Bi  Bi5  1  0.96944900  0.94711300  0.61817500  1
  Bi  Bi6  1  0.03055100  0.94711300  0.88182500  1
  Bi  Bi7  1  0.46944900  0.55288700  0.88182500  1
  O  O0  1  0.05878600  0.85862000  0.03759500  1
  O  O1  1  0.44121400  0.64138000  0.03759500  1
  O  O2  1  0.92657500  0.47283400  0.11822600  1
  O  O3  1  0.57342500  0.02716600  0.11822600  1
  O  O4  1  0.00000000  0.89139100  0.25000000  1
  O  O5  1  0.50000000  0.60860900  0.25000000  1
  O  O6  1  0.07342500  0.47283400  0.38177400  1
  O  O7  1  0.42657500  0.02716600  0.38177400  1
  O  O8  1  0.55878600  0.64138000  0.46240500  1
  O  O9  1  0.94121400  0.85862000  0.46240500  1
  O  O10  1  0.05878600  0.14138000  0.53759500  1
  O  O11  1  0.44121400  0.35862000  0.53759500  1
  O  O12  1  0.57342500  0.97283400  0.61822600  1
  O  O13  1  0.92657500  0.52716600  0.61822600  1
  O  O14  1  0.00000000  0.10860900  0.75000000  1
  O  O15  1  0.50000000  0.39139100  0.75000000  1
  O  O16  1  0.07342500  0.52716600  0.88177400  1
  O  O17  1  0.42657500  0.97283400  0.88177400  1
  O  O18  1  0.55878600  0.35862000  0.96240500  1
  O  O19  1  0.94121400  0.14138000  0.96240500  1
loop_
_geom_bond_atom_site_label_1
_geom_bond_atom_site_label_2
_geom_bond_distance
_geom_bond_site_symmetry_2
Li0 O1 1.945619 1_555
Li0 O3 1.999672 1_565
Li0 O0 2.050794 1_555
Li0 O17 2.351528 1_554
Li1 O0 1.945619 1_555
Li1 O2 1.999672 1_455
Li1 O1 2.050794 1_555
Li1 O16 2.351528 1_554
Li2 O4 1.835789 1_555
Li2 O5 1.835789 1_555
Li3 O3 1.877115 1_555
Li3 O7 1.877115 1_555
Li4 O6 1.877115 1_555
Li4 O2 1.877115 1_455
Li5 O5 1.835789 1_555
Li5 O4 1.835789 1_655
Li6 O9 1.945619 1_555
Li6 O6 1.999672 1_655
Li6 O8 2.050794 1_555
Li6 O13 2.351528 1_555
Li7 O8 1.945619 1_555
Li7 O7 1.999672 1_565
Li7 O9 2.050794 1_555
Li7 O12 2.351528 1_555
Li8 O11 1.945619 1_555
Li8 O12 1.999672 1_545
Li8 O10 2.050794 1_555
Li8 O7 2.351528 1_555
Li9 O10 1.945619 1_555
Li9 O13 1.999672 1_455
Li9 O11 2.050794 1_555
Li9 O6 2.351528 1_555
Li10 O14 1.835789 1_555
Li10 O15 1.835789 1_555
Li11 O13 1.877115 1_455
Li11 O16 1.877115 1_555
Li12 O17 1.877115 1_555
Li12 O12 1.877115 1_555
Li13 O14 1.835789 1_655
Li13 O15 1.835789 1_555
Li14 O19 1.945619 1_555
Li14 O16 1.999672 1_655
Li14 O18 2.050794 1_555
Li14 O2 2.351528 1_556
Li15 O18 1.945619 1_555
Li15 O17 1.999672 1_545
Li15 O19 2.050794 1_555
Li15 O3 2.351528 1_556
Bi0 O1 2.106854 1_555
Bi0 O2 2.140675 1_555
Bi0 O18 2.308971 1_554
Bi0 O5 2.330214 1_555
Bi1 O0 2.106854 1_645
Bi1 O3 2.140675 1_555
Bi1 O19 2.308971 1_554
Bi1 O4 2.330214 1_645
Bi2 O9 2.106854 1_445
Bi2 O7 2.140675 1_555
Bi2 O10 2.308971 1_555
Bi2 O4 2.330214 1_545
Bi3 O8 2.106854 1_555
Bi3 O6 2.140675 1_555
Bi3 O11 2.308971 1_555
Bi3 O5 2.330214 1_555
Bi4 O11 2.106854 1_555
Bi4 O13 2.140675 1_555
Bi4 O8 2.308971 1_555
Bi4 O15 2.330214 1_555
Bi5 O10 2.106854 1_665
Bi5 O12 2.140675 1_555
Bi5 O9 2.308971 1_555
Bi5 O14 2.330214 1_665
Bi6 O19 2.106854 1_465
Bi6 O17 2.140675 1_555
Bi6 O0 2.308971 1_556
Bi6 O14 2.330214 1_565
Bi7 O18 2.106854 1_555
Bi7 O16 2.140675 1_555
Bi7 O1 2.308971 1_556
Bi7 O15 2.330214 1_555
