# generated using pymatgen
data_Li24Ti5Cr7O36
_symmetry_space_group_name_H-M   'P 1'
_cell_length_a   5.05296700
_cell_length_b   9.78743444
_cell_length_c   13.40966449
_cell_angle_alpha   97.29308337
_cell_angle_beta   100.77317373
_cell_angle_gamma   94.65953808
_symmetry_Int_Tables_number   1
_chemical_formula_structural   Li24Ti5Cr7O36
_chemical_formula_sum   'Li24 Ti5 Cr7 O36'
_cell_volume   642.46330617
_cell_formula_units_Z   1
loop_
 _symmetry_equiv_pos_site_id
 _symmetry_equiv_pos_as_xyz
  1  'x, y, z'
loop_
 _atom_site_type_symbol
 _atom_site_label
 _atom_site_symmetry_multiplicity
 _atom_site_fract_x
 _atom_site_fract_y
 _atom_site_fract_z
 _atom_site_occupancy
  Li  Li0  1  0.17347500  0.99854600  0.83276900  1
  Li  Li1  1  0.05021800  0.99954900  0.61350800  1
  Li  Li2  1  0.00022200  0.74966800  0.24930600  1
  Li  Li3  1  0.33327200  0.74945300  0.91677400  1
  Li  Li4  1  0.04921900  0.50030800  0.11313100  1
  Li  Li5  1  0.37445900  0.49862800  0.77761800  1
  Li  Li6  1  0.16448700  0.49924700  0.33448400  1
  Li  Li7  1  0.50479500  0.49942400  0.99902600  1
  Li  Li8  1  0.29113900  0.50083100  0.55552900  1
  Li  Li9  1  0.33391000  0.25038700  0.41807800  1
  Li  Li10  1  0.50054600  0.99955200  0.50033100  1
  Li  Li11  1  0.28255600  0.99796700  0.05216300  1
  Li  Li12  1  0.61508500  0.99959500  0.71984500  1
  Li  Li13  1  0.38734800  0.00012400  0.28119900  1
  Li  Li14  1  0.71401400  0.00178800  0.94676000  1
  Li  Li15  1  0.66637100  0.75041600  0.58285000  1
  Li  Li16  1  0.70936500  0.49978000  0.44442800  1
  Li  Li17  1  0.83512600  0.50195500  0.66607200  1
  Li  Li18  1  0.61942400  0.50070700  0.22163400  1
  Li  Li19  1  0.95184200  0.50102500  0.88787100  1
  Li  Li20  1  0.66412300  0.24963100  0.08293000  1
  Li  Li21  1  0.82862100  0.00160500  0.16719200  1
  Li  Li22  1  0.99950900  0.24970600  0.74967600  1
  Li  Li23  1  0.94959800  0.99980900  0.38581100  1
  Ti  Ti0  1  0.10829600  0.24827400  0.97188100  1
  Ti  Ti1  1  0.11143200  0.75246900  0.47282900  1
  Ti  Ti2  1  0.22168800  0.24684800  0.19374700  1
  Ti  Ti3  1  0.77762300  0.74942100  0.80845500  1
  Ti  Ti4  1  0.89865600  0.25591300  0.52770800  1
  Cr  Cr0  1  0.22100100  0.74962300  0.69355200  1
  Cr  Cr1  1  0.45392500  0.25055500  0.64030900  1
  Cr  Cr2  1  0.54939200  0.24858100  0.85887800  1
  Cr  Cr3  1  0.43945700  0.74817500  0.13473300  1
  Cr  Cr4  1  0.55708900  0.75028400  0.35784500  1
  Cr  Cr5  1  0.77297100  0.25016900  0.30665200  1
  Cr  Cr6  1  0.89048100  0.75048100  0.03144800  1
  O  O0  1  0.00042400  0.86266100  0.93136800  1
  O  O1  1  0.06999100  0.63374000  0.78615300  1
  O  O2  1  0.00657600  0.36516900  0.43011100  1
  O  O3  1  0.14759200  0.36216100  0.64488700  1
  O  O4  1  0.27020400  0.36526600  0.88048900  1
  O  O5  1  0.33645100  0.86360500  0.59624400  1
  O  O6  1  0.06747000  0.13574900  0.28663500  1
  O  O7  1  0.19449700  0.13757300  0.52547500  1
  O  O8  1  0.40073300  0.13311800  0.95225500  1
  O  O9  1  0.13292600  0.86200500  0.14089900  1
  O  O10  1  0.26673500  0.86491900  0.38053400  1
  O  O11  1  0.47462800  0.86309100  0.81062900  1
  O  O12  1  0.33284700  0.13901100  0.74186700  1
  O  O13  1  0.19789500  0.63665700  0.02566400  1
  O  O14  1  0.40400700  0.63533600  0.45013100  1
  O  O15  1  0.51754000  0.63798200  0.69014600  1
  O  O16  1  0.33211800  0.63883400  0.23521500  1
  O  O17  1  0.66825900  0.63748900  0.90701800  1
  O  O18  1  0.33132800  0.36409500  0.09585200  1
  O  O19  1  0.66648200  0.36171100  0.75776900  1
  O  O20  1  0.48504000  0.36232700  0.31149600  1
  O  O21  1  0.59960600  0.36675500  0.54750100  1
  O  O22  1  0.80600500  0.36223000  0.97449600  1
  O  O23  1  0.66404300  0.85948400  0.26148000  1
  O  O24  1  0.51999900  0.13525800  0.18873500  1
  O  O25  1  0.72959600  0.13496400  0.61880900  1
  O  O26  1  0.85226800  0.13818600  0.85490100  1
  O  O27  1  0.59098300  0.86445400  0.05171400  1
  O  O28  1  0.81148000  0.86475500  0.47663400  1
  O  O29  1  0.93729100  0.86441300  0.71520300  1
  O  O30  1  0.66690800  0.13768000  0.40127000  1
  O  O31  1  0.74412000  0.63514600  0.11610300  1
  O  O32  1  0.84918400  0.63736500  0.35563400  1
  O  O33  1  0.99987300  0.63756000  0.57272600  1
  O  O34  1  0.92706400  0.36393000  0.21620500  1
  O  O35  1  0.99710300  0.13482600  0.07073400  1
loop_
_geom_bond_atom_site_label_1
_geom_bond_atom_site_label_2
_geom_bond_distance
_geom_bond_site_symmetry_2
Li0 O29 2.037103 1_455
Li0 O8 2.037481 1_565
Li0 O11 2.134977 1_555
Li0 O12 2.153374 1_565
Li0 O0 2.229642 1_555
Li0 O26 2.242270 1_465
Li1 O5 2.067710 1_555
Li1 O7 2.077644 1_565
Li1 O29 2.135615 1_455
Li1 O25 2.180444 1_465
Li1 O28 2.205331 1_455
Li1 O12 2.243480 1_565
Li2 O16 2.094511 1_555
Li2 O9 2.102902 1_555
Li2 O23 2.103147 1_455
Li2 O32 2.119432 1_455
Li2 O31 2.124481 1_455
Li2 O10 2.132109 1_555
Li3 O11 2.103839 1_555
Li3 O17 2.104969 1_555
Li3 O0 2.113160 1_555
Li3 O13 2.116323 1_556
Li3 O1 2.121542 1_555
Li3 O27 2.144945 1_556
Li4 O18 2.053502 1_555
Li4 O13 2.070005 1_555
Li4 O31 2.111898 1_455
Li4 O34 2.174074 1_455
Li4 O16 2.192822 1_555
Li4 O22 2.242974 1_454
Li5 O15 2.078904 1_555
Li5 O19 2.102736 1_555
Li5 O1 2.118173 1_555
Li5 O4 2.121622 1_555
Li5 O3 2.156610 1_555
Li5 O17 2.274297 1_555
Li6 O14 2.038591 1_555
Li6 O34 2.050889 1_455
Li6 O2 2.154703 1_555
Li6 O32 2.206285 1_455
Li6 O20 2.224610 1_555
Li6 O16 2.247489 1_555
Li7 O4 2.041743 1_555
Li7 O31 2.047321 1_556
Li7 O22 2.152861 1_555
Li7 O17 2.157184 1_555
Li7 O13 2.181788 1_556
Li7 O18 2.209520 1_556
Li8 O33 2.092515 1_455
Li8 O3 2.093295 1_555
Li8 O21 2.126559 1_555
Li8 O14 2.169710 1_555
Li8 O15 2.175441 1_555
Li8 O2 2.208581 1_555
Li9 O2 2.092725 1_555
Li9 O7 2.108577 1_555
Li9 O30 2.116391 1_555
Li9 O21 2.119038 1_555
Li9 O20 2.120346 1_555
Li9 O6 2.131568 1_555
Li10 O25 2.036896 1_565
Li10 O10 2.052538 1_555
Li10 O28 2.174173 1_555
Li10 O7 2.179165 1_565
Li10 O5 2.183134 1_555
Li10 O30 2.233310 1_565
Li11 O35 2.073702 1_465
Li11 O9 2.081650 1_555
Li11 O27 2.113965 1_555
Li11 O8 2.126476 1_564
Li11 O0 2.166862 1_554
Li11 O24 2.211540 1_565
Li12 O11 2.086283 1_555
Li12 O12 2.086699 1_565
Li12 O25 2.133100 1_565
Li12 O5 2.182659 1_555
Li12 O29 2.184509 1_555
Li12 O26 2.203853 1_565
Li13 O23 2.068316 1_545
Li13 O24 2.078218 1_555
Li13 O10 2.125308 1_545
Li13 O30 2.165839 1_555
Li13 O6 2.178981 1_555
Li13 O9 2.277603 1_545
Li14 O0 2.086085 1_645
Li14 O26 2.091706 1_555
Li14 O8 2.124540 1_555
Li14 O35 2.182693 1_556
Li14 O27 2.201272 1_546
Li14 O11 2.217398 1_545
Li15 O5 2.097655 1_555
Li15 O33 2.104328 1_555
Li15 O28 2.116711 1_555
Li15 O15 2.125730 1_555
Li15 O14 2.135409 1_555
Li15 O29 2.147006 1_555
Li16 O32 2.072981 1_555
Li16 O2 2.095968 1_655
Li16 O14 2.120799 1_555
Li16 O21 2.130558 1_555
Li16 O20 2.158770 1_555
Li16 O33 2.253534 1_555
Li17 O1 2.043174 1_655
Li17 O21 2.048894 1_555
Li17 O33 2.157130 1_555
Li17 O19 2.180014 1_555
Li17 O3 2.205806 1_655
Li17 O15 2.209890 1_555
Li18 O20 2.078068 1_555
Li18 O16 2.079325 1_555
Li18 O34 2.137644 1_555
Li18 O32 2.173315 1_555
Li18 O31 2.191432 1_555
Li18 O18 2.223770 1_555
Li19 O17 2.065082 1_555
Li19 O22 2.072622 1_555
Li19 O1 2.128951 1_655
Li19 O4 2.176366 1_655
Li19 O13 2.229906 1_656
Li19 O19 2.262345 1_555
Li20 O24 2.110340 1_555
Li20 O18 2.116277 1_555
Li20 O35 2.117459 1_555
Li20 O22 2.123913 1_554
Li20 O8 2.125213 1_554
Li20 O34 2.138680 1_555
Li21 O27 2.038857 1_545
Li21 O6 2.057127 1_655
Li21 O24 2.151846 1_555
Li21 O35 2.181165 1_555
Li21 O9 2.185683 1_645
Li21 O23 2.208337 1_545
Li22 O12 2.086960 1_655
Li22 O19 2.093569 1_555
Li22 O26 2.094628 1_555
Li22 O3 2.097092 1_655
Li22 O25 2.134703 1_555
Li22 O4 2.138966 1_655
Li23 O30 2.063273 1_565
Li23 O28 2.072249 1_555
Li23 O6 2.123743 1_665
Li23 O10 2.162951 1_655
Li23 O23 2.223794 1_555
Li23 O7 2.253510 1_665
Cr0 O15 1.928772 1_555
Cr0 O29 1.932912 1_455
Cr0 O33 1.936373 1_455
Cr0 O5 1.958562 1_555
Cr0 O11 1.978501 1_555
Cr0 O1 1.995438 1_555
Cr1 O19 1.886996 1_555
Cr1 O25 1.904399 1_555
Cr1 O3 1.971329 1_555
Cr1 O7 1.972303 1_555
Cr1 O21 1.987458 1_555
Cr1 O12 2.000320 1_555
Cr2 O12 1.884045 1_555
Cr2 O4 1.925869 1_555
Cr2 O26 1.948595 1_555
Cr2 O22 1.974490 1_555
Cr2 O8 1.995549 1_555
Cr2 O19 1.997239 1_555
Cr3 O13 1.879144 1_555
Cr3 O27 1.902507 1_555
Cr3 O16 1.949363 1_555
Cr3 O9 1.987958 1_555
Cr3 O23 1.992839 1_555
Cr3 O31 2.001610 1_555
Cr4 O23 1.903181 1_555
Cr4 O32 1.916715 1_555
Cr4 O16 1.957176 1_555
Cr4 O10 1.962547 1_555
Cr4 O14 1.991352 1_555
Cr4 O28 1.998100 1_555
Cr5 O20 1.898080 1_555
Cr5 O30 1.903215 1_555
Cr5 O34 1.967759 1_555
Cr5 O6 1.970878 1_655
Cr5 O24 1.989582 1_555
Cr5 O2 1.995374 1_655
Cr6 O9 1.884198 1_655
Cr6 O31 1.900907 1_555
Cr6 O0 1.966958 1_654
Cr6 O17 1.974160 1_554
Cr6 O27 1.989848 1_555
Cr6 O13 1.991048 1_655
O0 Ti3 1.962715 1_455
O1 Ti3 1.976059 1_455
O2 Ti4 1.918603 1_455
O3 Ti4 1.940722 1_455
O4 Ti0 2.015268 1_555
O5 Ti1 1.963009 1_555
O6 Ti2 1.977426 1_555
O7 Ti4 1.966294 1_455
O8 Ti0 1.965645 1_555
O10 Ti1 1.981792 1_555
O11 Ti3 1.966675 1_555
O14 Ti1 1.986837 1_555
O15 Ti3 1.995498 1_555
O17 Ti3 1.948013 1_555
O18 Ti2 1.974369 1_555
O18 Ti0 1.983002 1_554
O20 Ti2 2.014557 1_555
O21 Ti4 1.968230 1_555
O22 Ti0 1.966022 1_655
O24 Ti2 1.938093 1_555
O25 Ti4 2.053406 1_555
O26 Ti0 1.970041 1_655
O28 Ti1 1.947529 1_655
O29 Ti3 2.016996 1_555
O30 Ti4 2.030894 1_555
O32 Ti1 2.006071 1_655
O33 Ti1 1.984672 1_655
O34 Ti2 1.994321 1_655
O35 Ti2 1.962100 1_655
O35 Ti0 1.963807 1_654
