# generated using pymatgen
data_Sr2Ti6N2O11
_symmetry_space_group_name_H-M   'P 1'
_cell_length_a   7.84652548
_cell_length_b   7.84652548
_cell_length_c   9.30616291
_cell_angle_alpha   81.39181505
_cell_angle_beta   81.39181505
_cell_angle_gamma   28.41003821
_symmetry_Int_Tables_number   1
_chemical_formula_structural   Sr2Ti6N2O11
_chemical_formula_sum   'Sr2 Ti6 N2 O11'
_cell_volume   269.33382239
_cell_formula_units_Z   1
loop_
 _symmetry_equiv_pos_site_id
 _symmetry_equiv_pos_as_xyz
  1  'x, y, z'
loop_
 _atom_site_type_symbol
 _atom_site_label
 _atom_site_symmetry_multiplicity
 _atom_site_fract_x
 _atom_site_fract_y
 _atom_site_fract_z
 _atom_site_occupancy
  Sr  Sr0  1  0.55521400  0.55521400  0.23830700  1
  Sr  Sr1  1  0.45538500  0.45538500  0.77289600  1
  Ti  Ti0  1  0.12129400  0.12129400  0.91325000  1
  Ti  Ti1  1  0.16596900  0.16596900  0.55793900  1
  Ti  Ti2  1  0.24169200  0.24169200  0.24277000  1
  Ti  Ti3  1  0.76844600  0.76844600  0.76859100  1
  Ti  Ti4  1  0.83251700  0.83251700  0.43511300  1
  Ti  Ti5  1  0.88806700  0.88806700  0.11042500  1
  N  N0  1  0.29278900  0.29278900  0.42079400  1
  N  N1  1  0.93197500  0.93197500  0.28685800  1
  O  O0  1  0.06851700  0.06851700  0.70556800  1
  O  O1  1  0.12278900  0.12278900  0.38332900  1
  O  O2  1  0.15456800  0.15456800  0.09568300  1
  O  O3  1  0.63965200  0.63965200  0.88672500  1
  O  O4  1  0.69717700  0.69717700  0.57412100  1
  O  O5  1  0.75512300  0.75512300  0.23190700  1
  O  O6  1  0.24014200  0.24014200  0.76126200  1
  O  O7  1  0.35858800  0.35858800  0.10842900  1
  O  O8  1  0.83857200  0.83857200  0.90175000  1
  O  O9  1  0.87218900  0.87218900  0.61740200  1
  O  O10  1  0.99933400  0.99933400  0.98688100  1
loop_
_geom_bond_atom_site_label_1
_geom_bond_atom_site_label_2
_geom_bond_distance
_geom_bond_site_symmetry_2
N0 Ti2 1.935633 1_555
N0 Ti4 2.028639 1_545
N0 Ti4 2.028639 1_455
N0 Ti1 2.142639 1_555
N1 Ti5 1.865679 1_555
N1 Ti4 1.883693 1_555
N1 Sr0 2.676776 1_565
N1 Sr0 2.676776 1_655
O0 Ti1 1.859169 1_555
O0 Ti0 2.204374 1_555
O0 Sr1 2.594077 1_455
O0 Sr1 2.594077 1_545
O1 Ti1 1.844344 1_555
O1 Ti2 2.062156 1_555
O1 Sr0 2.648426 1_455
O1 Sr0 2.648426 1_545
O2 Ti0 1.844989 1_554
O2 Ti2 2.047114 1_555
O2 Sr0 2.671003 1_455
O2 Sr0 2.671003 1_545
O3 Ti0 1.955788 1_565
O3 Ti0 1.955788 1_655
O3 Ti3 2.093464 1_555
O4 Ti1 1.994399 1_655
O4 Ti1 1.994399 1_565
O4 Ti3 2.248720 1_555
O4 Ti4 2.256169 1_555
O5 Ti2 1.937280 1_655
O5 Ti2 1.937280 1_565
O5 Ti5 2.159299 1_555
O5 Ti4 2.376971 1_555
O6 Ti3 1.976511 1_545
O6 Ti3 1.976511 1_455
O6 Ti0 2.116596 1_555
O6 Ti1 2.347953 1_555
O7 Ti5 1.977752 1_545
O7 Ti5 1.977752 1_455
O7 Ti2 2.009734 1_555
O8 Ti3 1.755564 1_555
O8 Ti5 2.188547 1_556
O8 Sr1 2.765039 1_565
O8 Sr1 2.765039 1_655
O9 Ti4 1.886327 1_555
O9 Ti3 1.945464 1_555
O9 Sr1 2.822928 1_565
O9 Sr1 2.822928 1_655
O10 Ti0 1.876023 1_665
O10 Ti5 1.893733 1_556
O10 Sr1 2.920827 1_655
O10 Sr1 2.920827 1_565
