# generated using pymatgen
data_Ti3N2O3
_symmetry_space_group_name_H-M   'P 1'
_cell_length_a   3.83291682
_cell_length_b   5.21650584
_cell_length_c   9.84370510
_cell_angle_alpha   90.46323578
_cell_angle_beta   90.00000000
_cell_angle_gamma   111.55435588
_symmetry_Int_Tables_number   1
_chemical_formula_structural   Ti3N2O3
_chemical_formula_sum   'Ti6 N4 O6'
_cell_volume   183.04870438
_cell_formula_units_Z   2
loop_
 _symmetry_equiv_pos_site_id
 _symmetry_equiv_pos_as_xyz
  1  'x, y, z'
loop_
 _atom_site_type_symbol
 _atom_site_label
 _atom_site_symmetry_multiplicity
 _atom_site_fract_x
 _atom_site_fract_y
 _atom_site_fract_z
 _atom_site_occupancy
  Ti  Ti0  1  0.14583611  0.29167222  0.56518524  1
  Ti  Ti1  1  0.14697848  0.29395696  0.94013313  1
  Ti  Ti2  1  0.20013442  0.40026885  0.24875247  1
  Ti  Ti3  1  0.80044501  0.60089001  0.75699066  1
  Ti  Ti4  1  0.85907715  0.71815430  0.05664708  1
  Ti  Ti5  1  0.86485114  0.72970228  0.43950698  1
  N  N0  1  0.30553191  0.61106081  0.42798533  1
  N  N1  1  0.31085991  0.62171883  0.07935680  1
  N  N2  1  0.23752044  0.47504088  0.74483499  1
  N  N3  1  0.69371606  0.38743113  0.92705357  1
  O  O0  1  0.04736989  0.09473679  0.11782303  1
  O  O1  1  0.04254317  0.08508833  0.37771310  1
  O  O2  1  0.95247043  0.90493885  0.61514513  1
  O  O3  1  0.95445643  0.90891385  0.88149295  1
  O  O4  1  0.68454432  0.36908864  0.57003046  1
  O  O5  1  0.75366714  0.50733527  0.25134908  1
loop_
_geom_bond_atom_site_label_1
_geom_bond_atom_site_label_2
_geom_bond_distance
_geom_bond_site_symmetry_2
N0 Ti5 2.003959 1_555
N0 Ti5 2.003970 1_455
N0 Ti2 2.031590 1_555
N0 Ti0 2.064361 1_555
N1 Ti4 1.985826 1_555
N1 Ti4 1.985830 1_455
N1 Ti2 1.991482 1_555
N1 Ti1 2.090233 1_554
N2 Ti0 1.972672 1_555
N2 Ti3 2.014615 1_555
N2 Ti3 2.014615 1_455
N2 Ti1 2.120634 1_555
N3 Ti1 1.973846 1_655
N3 Ti1 1.973850 1_555
N3 Ti3 1.976141 1_555
N3 Ti4 2.041184 1_556
O0 Ti4 1.918775 1_445
O0 Ti2 1.955823 1_555
O0 Ti1 2.005760 1_554
O1 Ti5 1.833361 1_445
O1 Ti2 1.995896 1_555
O1 Ti0 2.092366 1_555
O2 Ti5 1.920021 1_555
O2 Ti0 1.943830 1_665
O2 Ti3 2.039979 1_555
O3 Ti3 1.924454 1_555
O3 Ti1 1.950467 1_665
O3 Ti4 1.963940 1_556
O4 Ti0 1.953421 1_555
O4 Ti0 1.953421 1_655
O4 Ti3 2.148446 1_555
O4 Ti5 2.179670 1_555
O5 Ti2 1.985714 1_555
O5 Ti2 1.985718 1_655
O5 Ti5 2.135354 1_555
O5 Ti4 2.180271 1_555
