# generated using pymatgen
data_Ga(W3O10)4
_symmetry_space_group_name_H-M   'P 1'
_cell_length_a   15.54054571
_cell_length_b   15.54054571
_cell_length_c   15.48203337
_cell_angle_alpha   70.52675098
_cell_angle_beta   70.52675098
_cell_angle_gamma   109.45578832
_symmetry_Int_Tables_number   1
_chemical_formula_structural   Ga(W3O10)4
_chemical_formula_sum   'Ga1 W12 O40'
_cell_volume   2878.72105356
_cell_formula_units_Z   1
loop_
 _symmetry_equiv_pos_site_id
 _symmetry_equiv_pos_as_xyz
  1  'x, y, z'
loop_
 _atom_site_type_symbol
 _atom_site_label
 _atom_site_symmetry_multiplicity
 _atom_site_fract_x
 _atom_site_fract_y
 _atom_site_fract_z
 _atom_site_occupancy
  Ga  Ga0  1  0.30630600  0.30630600  0.55810400  1
  W  W0  1  0.16113400  0.02228400  0.70846600  1
  W  W1  1  0.02228400  0.16113400  0.70846600  1
  W  W2  1  0.15584100  0.15584100  0.84663200  1
  W  W3  1  0.30728000  0.17215000  0.40804200  1
  W  W4  1  0.17215000  0.30728000  0.40804200  1
  W  W5  1  0.44204800  0.44204800  0.27276100  1
  W  W6  1  0.45805000  0.17238800  0.55732800  1
  W  W7  1  0.17238800  0.45805000  0.55732800  1
  W  W8  1  0.45532600  0.30515900  0.69484200  1
  W  W9  1  0.30515900  0.45532600  0.69484200  1
  W  W10  1  0.59211600  0.44307300  0.42233900  1
  W  W11  1  0.44307300  0.59211600  0.42233900  1
  O  O0  1  0.10699700  0.88710700  0.75846900  1
  O  O1  1  0.88710700  0.10699700  0.75846900  1
  O  O2  1  0.10595400  0.10595400  0.98179600  1
  O  O3  1  0.30762900  0.08718900  0.35816600  1
  O  O4  1  0.08718900  0.30762900  0.35816600  1
  O  O5  1  0.52708500  0.52708500  0.13749800  1
  O  O6  1  0.51150400  0.09081700  0.55294100  1
  O  O7  1  0.09081700  0.51150400  0.55294100  1
  O  O8  1  0.50626000  0.30679000  0.77892000  1
  O  O9  1  0.30679000  0.50626000  0.77892000  1
  O  O10  1  0.72647500  0.52923200  0.33725600  1
  O  O11  1  0.52923200  0.72647500  0.33725600  1
  O  O12  1  0.41012700  0.17985300  0.45528500  1
  O  O13  1  0.17985300  0.41012700  0.45528500  1
  O  O14  1  0.58618000  0.30838100  0.44827300  1
  O  O15  1  0.30838100  0.58618000  0.44827300  1
  O  O16  1  0.30888000  0.07249200  0.66334800  1
  O  O17  1  0.07249200  0.30888000  0.66334800  1
  O  O18  1  0.53755100  0.53755100  0.43050700  1
  O  O19  1  0.40804000  0.40804000  0.68582400  1
  O  O20  1  0.03313000  0.03313000  0.72680500  1
  O  O21  1  0.13856500  0.02845700  0.83839800  1
  O  O22  1  0.02845700  0.13856500  0.83839800  1
  O  O23  1  0.58375100  0.41635600  0.55887100  1
  O  O24  1  0.41635600  0.58375100  0.55887100  1
  O  O25  1  0.20567300  0.07615300  0.55882500  1
  O  O26  1  0.07615300  0.20567300  0.55882500  1
  O  O27  1  0.30589700  0.20279100  0.79242600  1
  O  O28  1  0.20279200  0.30589700  0.79242600  1
  O  O29  1  0.53821400  0.43527100  0.32643200  1
  O  O30  1  0.43527100  0.53821400  0.32643200  1
  O  O31  1  0.41665700  0.30705000  0.27843600  1
  O  O32  1  0.30705000  0.41665700  0.27843600  1
  O  O33  1  0.47815400  0.19828800  0.66706700  1
  O  O34  1  0.19828800  0.47815400  0.66706700  1
  O  O35  1  0.19810400  0.19810400  0.38863300  1
  O  O36  1  0.18861200  0.18861200  0.67507500  1
  O  O37  1  0.30900200  0.30900200  0.43883200  1
  O  O38  1  0.42190300  0.30387200  0.56048700  1
  O  O39  1  0.30387200  0.42190300  0.56048700  1
loop_
_geom_bond_atom_site_label_1
_geom_bond_atom_site_label_2
_geom_bond_distance
_geom_bond_site_symmetry_2
Ga0 O37 1.819068 1_555
Ga0 O39 1.821679 1_555
Ga0 O38 1.821679 1_555
Ga0 O36 1.823427 1_555
O0 W0 1.739044 1_565
O1 W1 1.739044 1_655
O2 W2 1.737064 1_555
O3 W3 1.738199 1_555
O4 W4 1.738199 1_555
O5 W5 1.739132 1_555
O6 W6 1.738656 1_555
O7 W7 1.738656 1_555
O8 W8 1.737009 1_555
O9 W9 1.737009 1_555
O10 W10 1.736543 1_555
O11 W11 1.736543 1_555
O12 W6 1.945201 1_555
O12 W3 1.953000 1_555
O13 W7 1.945201 1_555
O13 W4 1.953000 1_555
O14 W10 1.958949 1_555
O14 W6 1.964210 1_555
O15 W11 1.958949 1_555
O15 W7 1.964210 1_555
O16 W0 1.934539 1_555
O16 W6 1.960848 1_555
O17 W1 1.934539 1_555
O17 W7 1.960848 1_555
O18 W10 1.942280 1_555
O18 W11 1.942280 1_555
O19 W9 1.953967 1_555
O19 W8 1.953967 1_555
O20 W1 1.986163 1_555
O20 W0 1.986163 1_555
O21 W2 1.960673 1_555
O21 W0 1.964553 1_555
O22 W2 1.960673 1_555
O22 W1 1.964553 1_555
O23 W10 1.962929 1_555
O23 W8 1.968955 1_555
O24 W11 1.962929 1_555
O24 W9 1.968955 1_555
O25 W0 1.949094 1_555
O25 W3 1.954381 1_555
O26 W1 1.949094 1_555
O26 W4 1.954381 1_555
O27 W8 1.950222 1_555
O27 W2 1.956564 1_555
O28 W9 1.950220 1_555
O28 W2 1.956561 1_555
O29 W10 1.950071 1_555
O29 W5 1.951782 1_555
O30 W11 1.950071 1_555
O30 W5 1.951782 1_555
O31 W3 1.964174 1_555
O31 W5 1.966547 1_555
O32 W4 1.964174 1_555
O32 W5 1.966547 1_555
O33 W8 1.958594 1_555
O33 W6 1.967800 1_555
O34 W9 1.958594 1_555
O34 W7 1.967800 1_555
O35 W3 1.961274 1_555
O35 W4 1.961274 1_555
O36 W1 2.314634 1_555
O36 W0 2.314634 1_555
O36 W2 2.365759 1_555
O37 W5 2.285612 1_555
O37 W3 2.323267 1_555
O37 W4 2.323267 1_555
O38 W6 2.303499 1_555
O38 W8 2.310439 1_555
O38 W10 2.362715 1_555
O39 W7 2.303499 1_555
O39 W9 2.310439 1_555
O39 W11 2.362715 1_555
