# generated using pymatgen
data_Li2VFe(P2O7)2
_symmetry_space_group_name_H-M   'P 1'
_cell_length_a   4.89308000
_cell_length_b   7.04944637
_cell_length_c   24.72827721
_cell_angle_alpha   90.09529150
_cell_angle_beta   89.97039319
_cell_angle_gamma   108.83734586
_symmetry_Int_Tables_number   1
_chemical_formula_structural   Li2VFe(P2O7)2
_chemical_formula_sum   'Li6 V3 Fe3 P12 O42'
_cell_volume   807.27818519
_cell_formula_units_Z   3
loop_
 _symmetry_equiv_pos_site_id
 _symmetry_equiv_pos_as_xyz
  1  'x, y, z'
loop_
 _atom_site_type_symbol
 _atom_site_label
 _atom_site_symmetry_multiplicity
 _atom_site_fract_x
 _atom_site_fract_y
 _atom_site_fract_z
 _atom_site_occupancy
  Li  Li0  1  0.17604900  0.67478500  0.37905500  1
  Li  Li1  1  0.17571900  0.67591700  0.04563600  1
  Li  Li2  1  0.17620100  0.67671000  0.71242300  1
  Li  Li3  1  0.82382800  0.32466900  0.87922100  1
  Li  Li4  1  0.82465700  0.32433000  0.54535400  1
  Li  Li5  1  0.82383500  0.32458300  0.21263500  1
  V  V0  1  0.21478600  0.72823400  0.83309400  1
  V  V1  1  0.21529000  0.72821400  0.16677700  1
  V  V2  1  0.78364300  0.27139300  0.66709200  1
  Fe  Fe0  1  0.21706100  0.73270100  0.50045700  1
  Fe  Fe1  1  0.78366700  0.26834600  0.33329500  1
  Fe  Fe2  1  0.78316000  0.26767600  0.00010700  1
  P  P0  1  0.40068500  0.52186000  0.94010200  1
  P  P1  1  0.39925300  0.52195900  0.60631900  1
  P  P2  1  0.40071900  0.52192400  0.27339000  1
  P  P3  1  0.21322200  0.08626000  0.73860600  1
  P  P4  1  0.21237700  0.08536000  0.40545600  1
  P  P5  1  0.21270400  0.08632700  0.07219900  1
  P  P6  1  0.78668200  0.91457000  0.90533000  1
  P  P7  1  0.78694700  0.91316000  0.57202700  1
  P  P8  1  0.78677900  0.91451300  0.23868200  1
  P  P9  1  0.59971100  0.47782800  0.77332300  1
  P  P10  1  0.60010200  0.47825800  0.43990000  1
  P  P11  1  0.60065500  0.47821700  0.10644200  1
  O  O0  1  0.04976200  0.85278200  0.89215400  1
  O  O1  1  0.04952700  0.85262700  0.22535200  1
  O  O2  1  0.05100400  0.85306000  0.55840800  1
  O  O3  1  0.13248000  0.88594200  0.10158300  1
  O  O4  1  0.13143500  0.88596200  0.76798200  1
  O  O5  1  0.13262900  0.88417200  0.43537100  1
  O  O6  1  0.18792500  0.48251800  0.98763500  1
  O  O7  1  0.18770400  0.48236000  0.32087900  1
  O  O8  1  0.18706400  0.48248900  0.65395300  1
  O  O9  1  0.24706300  0.50680900  0.21874500  1
  O  O10  1  0.24696300  0.50650200  0.88544800  1
  O  O11  1  0.24791500  0.50741700  0.55149700  1
  O  O12  1  0.39748700  0.60521800  0.77399600  1
  O  O13  1  0.39806300  0.60539100  0.44027400  1
  O  O14  1  0.39777000  0.60476800  0.10733400  1
  O  O15  1  0.60259100  0.91773100  0.85544900  1
  O  O16  1  0.60099900  0.91582900  0.52225800  1
  O  O17  1  0.60229000  0.91761600  0.18881200  1
  O  O18  1  0.59609900  0.75365600  0.94916000  1
  O  O19  1  0.59509700  0.75277400  0.61577900  1
  O  O20  1  0.59640800  0.75355500  0.28253900  1
  O  O21  1  0.40437900  0.24752000  0.78253500  1
  O  O22  1  0.40523100  0.24742700  0.11579900  1
  O  O23  1  0.40483900  0.24632000  0.44915400  1
  O  O24  1  0.39821800  0.08289600  0.68871400  1
  O  O25  1  0.39866600  0.08315900  0.35561100  1
  O  O26  1  0.39871100  0.08383300  0.02223300  1
  O  O27  1  0.60221500  0.39419400  0.94032700  1
  O  O28  1  0.60219400  0.39532000  0.60720000  1
  O  O29  1  0.60196600  0.39405200  0.27370900  1
  O  O30  1  0.75223100  0.49417000  0.71863000  1
  O  O31  1  0.75270600  0.49164400  0.38486300  1
  O  O32  1  0.75191000  0.49285500  0.05144000  1
  O  O33  1  0.81292200  0.51779500  0.82065900  1
  O  O34  1  0.81251700  0.51755300  0.48742900  1
  O  O35  1  0.81278000  0.51756700  0.15388900  1
  O  O36  1  0.86828800  0.11622000  0.93510200  1
  O  O37  1  0.86819200  0.11612500  0.26848300  1
  O  O38  1  0.86814600  0.11413700  0.60141200  1
  O  O39  1  0.95101200  0.14829400  0.72521300  1
  O  O40  1  0.94833900  0.14542200  0.39195200  1
  O  O41  1  0.94853200  0.14652600  0.05853900  1
loop_
_geom_bond_atom_site_label_1
_geom_bond_atom_site_label_2
_geom_bond_distance
_geom_bond_site_symmetry_2
Li0 O7 1.989031 1_555
Li0 O13 2.014565 1_555
Li0 O31 2.061952 1_455
Li0 O5 2.087725 1_555
Li1 O6 1.991334 1_554
Li1 O14 2.028783 1_555
Li1 O32 2.063608 1_455
Li1 O3 2.084703 1_555
Li2 O8 2.002061 1_555
Li2 O12 2.025173 1_555
Li2 O30 2.063859 1_455
Li2 O4 2.076795 1_555
Li3 O33 2.001749 1_555
Li3 O27 2.009570 1_555
Li3 O10 2.058964 1_655
Li3 O36 2.080767 1_555
Li4 O34 1.992346 1_555
Li4 O28 2.030208 1_555
Li4 O11 2.061943 1_655
Li4 O38 2.091220 1_555
Li5 O35 2.004538 1_555
Li5 O29 2.009586 1_555
Li5 O9 2.059943 1_655
Li5 O37 2.080104 1_555
Fe0 O2 1.968149 1_555
Fe0 O16 1.979665 1_555
Fe0 O5 2.047559 1_555
Fe0 O11 2.073550 1_555
Fe0 O13 2.076564 1_555
Fe0 O34 2.093487 1_455
Fe1 O40 1.990057 1_555
Fe1 O25 1.992691 1_555
Fe1 O37 2.042387 1_555
Fe1 O29 2.064289 1_555
Fe1 O31 2.067378 1_555
Fe1 O7 2.086548 1_655
Fe2 O41 1.980793 1_555
Fe2 O26 1.986101 1_555
Fe2 O36 2.044057 1_554
Fe2 O27 2.068879 1_554
Fe2 O32 2.074690 1_555
Fe2 O6 2.091734 1_654
O0 P6 1.521224 1_455
O0 V0 2.002036 1_555
O1 P8 1.520903 1_455
O1 V1 1.994753 1_555
O2 P7 1.521474 1_455
O3 P5 1.523990 1_565
O3 V1 2.072933 1_555
O4 P3 1.523077 1_565
O4 V0 2.072334 1_555
O5 P4 1.535178 1_565
O6 P0 1.534817 1_555
O7 P2 1.534700 1_555
O8 P1 1.534971 1_555
O8 V2 2.078609 1_455
O9 P2 1.533434 1_555
O9 V1 2.067659 1_555
O10 P0 1.533628 1_555
O10 V0 2.076042 1_555
O11 P1 1.532388 1_555
O12 P9 1.536099 1_555
O12 V0 2.044979 1_555
O13 P10 1.533856 1_555
O14 P11 1.534175 1_555
O14 V1 2.052164 1_555
O15 P6 1.532168 1_555
O15 V0 2.013088 1_555
O16 P7 1.534637 1_555
O17 P8 1.533021 1_555
O17 V1 2.007823 1_555
O18 P0 1.620048 1_555
O18 P6 1.628199 1_555
O19 P1 1.616355 1_555
O19 P7 1.627180 1_555
O20 P2 1.619763 1_555
O20 P8 1.628444 1_555
O21 P9 1.612525 1_555
O21 P3 1.630184 1_555
O22 P11 1.615932 1_555
O22 P5 1.626564 1_555
O23 P10 1.621970 1_555
O23 P4 1.627554 1_555
O24 P3 1.534498 1_555
O24 V2 1.997822 1_555
O25 P4 1.535671 1_555
O26 P5 1.537666 1_555
O27 P0 1.534764 1_555
O28 P1 1.534948 1_555
O28 V2 2.061905 1_555
O29 P2 1.534779 1_555
O30 P9 1.530796 1_555
O30 V2 2.064747 1_555
O31 P10 1.540320 1_555
O32 P11 1.535706 1_555
O33 P9 1.532410 1_555
O33 V0 2.068136 1_655
O34 P10 1.533825 1_555
O35 P11 1.531377 1_555
O35 V1 2.072696 1_655
O36 P6 1.533768 1_545
O37 P8 1.533923 1_545
O38 P7 1.525284 1_545
O38 V2 2.080163 1_555
O39 P3 1.519963 1_655
O39 V2 1.988378 1_555
O40 P4 1.521217 1_655
O41 P5 1.523221 1_655
