# generated using pymatgen
data_Li3Fe4(OF3)3
_symmetry_space_group_name_H-M   'P 1'
_cell_length_a   5.95410600
_cell_length_b   6.00913059
_cell_length_c   6.03792767
_cell_angle_alpha   99.87926994
_cell_angle_beta   99.27753667
_cell_angle_gamma   98.91735371
_symmetry_Int_Tables_number   1
_chemical_formula_structural   Li3Fe4(OF3)3
_chemical_formula_sum   'Li3 Fe4 O3 F9'
_cell_volume   206.30325233
_cell_formula_units_Z   1
loop_
 _symmetry_equiv_pos_site_id
 _symmetry_equiv_pos_as_xyz
  1  'x, y, z'
loop_
 _atom_site_type_symbol
 _atom_site_label
 _atom_site_symmetry_multiplicity
 _atom_site_fract_x
 _atom_site_fract_y
 _atom_site_fract_z
 _atom_site_occupancy
  Li  Li0  1  0.85152500  0.65959800  0.40930800  1
  Li  Li1  1  0.69445100  0.40009900  0.86910400  1
  Li  Li2  1  0.12095900  0.32911200  0.59892000  1
  Fe  Fe0  1  0.59519900  0.12665200  0.31939600  1
  Fe  Fe1  1  0.32392300  0.63549600  0.15110300  1
  Fe  Fe2  1  0.99833800  0.00180700  0.99402400  1
  Fe  Fe3  1  0.42791900  0.88212000  0.69132400  1
  O  O0  1  0.31716800  0.95071300  0.10228500  1
  O  O1  1  0.57529500  0.82309500  0.41852900  1
  O  O2  1  0.69426000  0.05380800  0.89365400  1
  F  F0  1  0.92207200  0.68247100  0.04931100  1
  F  F1  1  0.93393000  0.10563200  0.30865100  1
  F  F2  1  0.56339200  0.40859200  0.17928200  1
  F  F3  1  0.79351100  0.39086500  0.57391100  1
  F  F4  1  0.38726900  0.17452100  0.56517900  1
  F  F5  1  0.17485100  0.56601300  0.40345300  1
  F  F6  1  0.42223300  0.60177800  0.82875200  1
  F  F7  1  0.07894400  0.88171700  0.68666700  1
  F  F8  1  0.12475800  0.32591200  0.95714800  1
loop_
_geom_bond_atom_site_label_1
_geom_bond_atom_site_label_2
_geom_bond_distance
_geom_bond_site_symmetry_2
Li0 O1 2.045755 1_555
Li1 O2 2.111236 1_555
Fe0 O0 1.964376 1_545
Fe0 O1 2.007541 1_545
Fe1 O0 1.971751 1_555
Fe1 O1 2.047255 1_555
Fe2 O2 1.905115 1_555
Fe2 O0 1.993674 1_646
Fe3 O2 1.872778 1_565
Fe3 O1 1.992695 1_555
F0 Fe2 1.999620 1_564
F0 Li1 2.019384 1_554
F0 Li0 2.301962 1_555
F0 Fe1 2.444796 1_655
F1 Fe2 2.011847 1_554
F1 Fe0 2.050893 1_555
F1 Li2 2.052962 1_655
F2 Fe0 2.039996 1_555
F2 Fe1 2.127237 1_555
F2 Li1 2.137710 1_554
F2 Li0 2.204063 1_555
F3 Li1 1.960335 1_555
F3 Li2 2.027381 1_655
F3 Li0 2.050198 1_555
F3 Fe0 2.067140 1_555
F4 Li2 1.978531 1_555
F4 Fe3 2.063406 1_545
F4 Fe0 2.091439 1_555
F4 Li1 2.417808 1_555
F5 Fe1 1.955299 1_555
F5 Li2 2.019762 1_555
F5 Li0 2.091491 1_455
F5 Fe3 2.456631 1_555
F6 Fe3 1.999661 1_555
F6 Fe1 2.107293 1_556
F6 Li1 2.176718 1_555
F6 Li2 2.309568 1_555
F7 Fe2 2.032264 1_465
F7 Fe3 2.073106 1_555
F7 Li0 2.088325 1_455
F8 Fe2 2.039024 1_455
F8 Fe1 2.087878 1_556
F8 Li2 2.162842 1_555
