# generated using pymatgen
data_K2PH3O5
_symmetry_space_group_name_H-M   'P 1'
_cell_length_a   10.20105000
_cell_length_b   9.83660600
_cell_length_c   12.04161773
_cell_angle_alpha   72.63495528
_cell_angle_beta   90.00000000
_cell_angle_gamma   90.00000000
_symmetry_Int_Tables_number   1
_chemical_formula_structural   K2PH3O5
_chemical_formula_sum   'K16 P8 H24 O40'
_cell_volume   1153.22938336
_cell_formula_units_Z   8
loop_
 _symmetry_equiv_pos_site_id
 _symmetry_equiv_pos_as_xyz
  1  'x, y, z'
loop_
 _atom_site_type_symbol
 _atom_site_label
 _atom_site_symmetry_multiplicity
 _atom_site_fract_x
 _atom_site_fract_y
 _atom_site_fract_z
 _atom_site_occupancy
  K  K0  1  0.68653600  0.85905100  0.51140900  1
  K  K1  1  0.61058800  0.64992400  0.85659600  1
  K  K2  1  0.08210600  0.75143100  0.60154400  1
  K  K3  1  0.81346400  0.85905100  0.01140900  1
  K  K4  1  0.94437500  0.48516500  0.86639300  1
  K  K5  1  0.88941200  0.64992400  0.35659600  1
  K  K6  1  0.41789400  0.75143100  0.10154400  1
  K  K7  1  0.44437500  0.51483500  0.63360700  1
  K  K8  1  0.55562500  0.48516500  0.36639300  1
  K  K9  1  0.58210700  0.24856900  0.89845600  1
  K  K10  1  0.11058800  0.35007600  0.64340400  1
  K  K11  1  0.05562500  0.51483500  0.13360700  1
  K  K12  1  0.18653600  0.14094900  0.98859100  1
  K  K13  1  0.91789400  0.24856900  0.39845600  1
  K  K14  1  0.38941200  0.35007600  0.14340400  1
  K  K15  1  0.31346400  0.14094900  0.48859100  1
  P  P0  1  0.18969300  0.81141700  0.86450200  1
  P  P1  1  0.31030700  0.81141700  0.36450200  1
  P  P2  1  0.27268000  0.51402700  0.87325800  1
  P  P3  1  0.77268000  0.48597300  0.62674200  1
  P  P4  1  0.22732000  0.51402700  0.37325800  1
  P  P5  1  0.72732000  0.48597300  0.12674200  1
  P  P6  1  0.68969300  0.18858300  0.63549800  1
  P  P7  1  0.81030700  0.18858300  0.13549800  1
  H  H0  1  0.61534700  0.98979300  0.84328500  1
  H  H1  1  0.46944000  0.94284900  0.87877500  1
  H  H2  1  0.80949400  0.92430700  0.73620100  1
  H  H3  1  0.88465300  0.98979300  0.34328500  1
  H  H4  1  0.91923800  0.80840800  0.79360200  1
  H  H5  1  0.03056000  0.94284900  0.37877500  1
  H  H6  1  0.37593900  0.84483600  0.69269700  1
  H  H7  1  0.41325500  0.83801000  0.57177100  1
  H  H8  1  0.69050600  0.92430700  0.23620100  1
  H  H9  1  0.58076200  0.80840800  0.29360200  1
  H  H10  1  0.12406100  0.84483600  0.19269700  1
  H  H11  1  0.08674500  0.83801000  0.07177100  1
  H  H12  1  0.91325500  0.16199000  0.92822900  1
  H  H13  1  0.87593900  0.15516400  0.80730300  1
  H  H14  1  0.41923800  0.19159200  0.70639800  1
  H  H15  1  0.30949400  0.07569300  0.76379900  1
  H  H16  1  0.58674500  0.16199000  0.42822900  1
  H  H17  1  0.62406100  0.15516400  0.30730300  1
  H  H18  1  0.96944000  0.05715100  0.62122500  1
  H  H19  1  0.08076200  0.19159200  0.20639800  1
  H  H20  1  0.11534700  0.01020700  0.65671500  1
  H  H21  1  0.19050600  0.07569300  0.26379900  1
  H  H22  1  0.53056000  0.05715100  0.12122500  1
  H  H23  1  0.38465300  0.01020700  0.15671500  1
  O  O0  1  0.56000000  0.91930500  0.90323100  1
  O  O1  1  0.22691000  0.88960000  0.95236400  1
  O  O2  1  0.22510900  0.89946200  0.73790500  1
  O  O3  1  0.83749900  0.82600900  0.74417400  1
  O  O4  1  0.04814300  0.75574900  0.87720400  1
  O  O5  1  0.45386800  0.82647600  0.64870600  1
  O  O6  1  0.94000000  0.91930500  0.40323100  1
  O  O7  1  0.27309000  0.88960000  0.45236400  1
  O  O8  1  0.28923600  0.67371900  0.89636700  1
  O  O9  1  0.27489100  0.89946200  0.23790500  1
  O  O10  1  0.66250100  0.82600900  0.24417400  1
  O  O11  1  0.45185700  0.75574900  0.37720400  1
  O  O12  1  0.04613200  0.82647600  0.14870600  1
  O  O13  1  0.20805200  0.53778500  0.75438400  1
  O  O14  1  0.21076400  0.67371900  0.39636700  1
  O  O15  1  0.18935100  0.42447300  0.97487200  1
  O  O16  1  0.41480600  0.46208900  0.87928100  1
  O  O17  1  0.91480600  0.53791100  0.62071900  1
  O  O18  1  0.68935100  0.57552700  0.52512800  1
  O  O19  1  0.70805200  0.46221500  0.74561600  1
  O  O20  1  0.29194800  0.53778500  0.25438400  1
  O  O21  1  0.31064900  0.42447300  0.47487200  1
  O  O22  1  0.08519400  0.46208900  0.37928100  1
  O  O23  1  0.58519400  0.53791100  0.12071900  1
  O  O24  1  0.81064900  0.57552700  0.02512800  1
  O  O25  1  0.78923600  0.32628100  0.60363300  1
  O  O26  1  0.79194800  0.46221500  0.24561600  1
  O  O27  1  0.95386800  0.17352400  0.85129400  1
  O  O28  1  0.54814300  0.24425100  0.62279600  1
  O  O29  1  0.33749900  0.17399100  0.75582600  1
  O  O30  1  0.72510900  0.10053800  0.76209500  1
  O  O31  1  0.71076400  0.32628100  0.10363300  1
  O  O32  1  0.72691000  0.11040000  0.54763600  1
  O  O33  1  0.06000000  0.08069500  0.59676900  1
  O  O34  1  0.54613200  0.17352400  0.35129400  1
  O  O35  1  0.95185700  0.24425100  0.12279600  1
  O  O36  1  0.16250100  0.17399100  0.25582600  1
  O  O37  1  0.77489100  0.10053800  0.26209500  1
  O  O38  1  0.77309000  0.11040000  0.04763600  1
  O  O39  1  0.44000000  0.08069500  0.09676900  1
loop_
_geom_bond_atom_site_label_1
_geom_bond_atom_site_label_2
_geom_bond_distance
_geom_bond_site_symmetry_2
K0 O32 2.667695 1_565
K0 O18 2.744292 1_555
K1 O16 2.678792 1_555
K1 O19 2.767052 1_555
K1 O24 2.816469 1_556
K1 O0 2.913983 1_555
K1 O3 2.964970 1_555
K1 O5 3.040311 1_555
K1 O23 3.050363 1_556
K2 O17 2.662283 1_455
K2 O13 2.673137 1_555
K2 O7 2.722573 1_555
K3 O38 2.667695 1_565
K3 O24 2.744292 1_555
K4 O24 2.705302 1_556
K4 O15 2.800410 1_655
K4 O19 2.858979 1_555
K4 O17 2.862794 1_555
K4 O4 2.903197 1_655
K4 O13 2.984174 1_655
K5 O22 2.678792 1_655
K5 O26 2.767052 1_555
K5 O18 2.816469 1_555
K5 O6 2.913983 1_555
K5 O10 2.964970 1_555
K5 O12 3.040311 1_655
K5 O17 3.050363 1_555
K6 O23 2.662283 1_555
K6 O20 2.673137 1_555
K6 O1 2.722573 1_554
K7 O21 2.705302 1_555
K7 O18 2.800410 1_555
K7 O13 2.858979 1_555
K7 O16 2.862794 1_555
K7 O28 2.903197 1_555
K7 O19 2.984174 1_555
K8 O18 2.705302 1_555
K8 O21 2.800410 1_555
K8 O26 2.858979 1_555
K8 O23 2.862794 1_555
K8 O11 2.903197 1_555
K8 O20 2.984174 1_555
K9 O16 2.662289 1_555
K9 O19 2.673132 1_555
K9 O38 2.722566 1_556
K10 O17 2.678792 1_455
K10 O13 2.767052 1_555
K10 O21 2.816469 1_555
K10 O33 2.913983 1_555
K10 O29 2.964970 1_555
K10 O27 3.040311 1_455
K10 O22 3.050363 1_555
K11 O15 2.705302 1_554
K11 O24 2.800410 1_455
K11 O20 2.858979 1_555
K11 O22 2.862794 1_555
K11 O35 2.903197 1_455
K11 O26 2.984174 1_455
K12 O1 2.667695 1_545
K12 O15 2.744292 1_555
K13 O22 2.662283 1_655
K13 O26 2.673137 1_555
K13 O32 2.722573 1_555
K14 O23 2.678792 1_555
K14 O20 2.767052 1_555
K14 O15 2.816469 1_554
K14 O39 2.913983 1_555
K14 O36 2.964970 1_555
K14 O34 3.040311 1_555
K14 O16 3.050363 1_554
K15 O7 2.667695 1_545
K15 O21 2.744292 1_555
H0 O0 1.010855 1_555
H0 O30 1.661471 1_565
H1 O0 0.976252 1_555
H2 O3 0.985063 1_555
H3 O6 1.010855 1_555
H3 O37 1.661471 1_565
H4 O3 1.008950 1_555
H4 O4 1.643055 1_655
H5 O6 0.976252 1_455
H6 O5 1.001142 1_555
H7 O5 0.989964 1_555
H8 O10 0.985063 1_555
H9 O10 1.008950 1_555
H9 O11 1.643055 1_555
H10 O12 1.001142 1_555
H11 O12 0.989964 1_555
H12 O27 0.989964 1_555
H13 O27 1.001142 1_555
H14 O29 1.008950 1_555
H14 O28 1.643055 1_555
H15 O29 0.985063 1_555
H16 O34 0.989964 1_555
H17 O34 1.001142 1_555
H18 O33 0.976252 1_655
H19 O36 1.008950 1_555
H19 O35 1.643055 1_455
H20 O33 1.010855 1_555
H20 O2 1.661471 1_545
H21 O36 0.985063 1_555
H22 O39 0.976252 1_555
H23 O39 1.010855 1_555
H23 O9 1.661471 1_545
O1 P0 1.529914 1_555
O2 P0 1.554478 1_555
O4 P0 1.535664 1_555
O7 P1 1.529914 1_555
O8 P0 1.644002 1_555
O8 P2 1.683561 1_555
O9 P1 1.554478 1_555
O11 P1 1.535664 1_555
O13 P2 1.529242 1_555
O14 P1 1.644002 1_555
O14 P4 1.683561 1_555
O15 P2 1.533740 1_555
O16 P2 1.531723 1_555
O17 P3 1.531723 1_555
O18 P3 1.533740 1_555
O19 P3 1.529242 1_555
O20 P4 1.529242 1_555
O21 P4 1.533740 1_555
O22 P4 1.531723 1_555
O23 P5 1.531723 1_555
O24 P5 1.533740 1_555
O25 P6 1.644002 1_555
O25 P3 1.683561 1_555
O26 P5 1.529242 1_555
O28 P6 1.535664 1_555
O30 P6 1.554478 1_555
O31 P7 1.644002 1_555
O31 P5 1.683561 1_555
O32 P6 1.529914 1_555
O35 P7 1.535664 1_555
O37 P7 1.554478 1_555
O38 P7 1.529914 1_555
