# generated using pymatgen
data_Ba6Li2Ta9Ti7O42
_symmetry_space_group_name_H-M   'P 1'
_cell_length_a   9.24490140
_cell_length_b   9.24490140
_cell_length_c   11.87978753
_cell_angle_alpha   89.97491870
_cell_angle_beta   89.97491870
_cell_angle_gamma   119.86108585
_symmetry_Int_Tables_number   1
_chemical_formula_structural   Ba6Li2Ta9Ti7O42
_chemical_formula_sum   'Ba6 Li2 Ta9 Ti7 O42'
_cell_volume   880.54170055
_cell_formula_units_Z   1
loop_
 _symmetry_equiv_pos_site_id
 _symmetry_equiv_pos_as_xyz
  1  'x, y, z'
loop_
 _atom_site_type_symbol
 _atom_site_label
 _atom_site_symmetry_multiplicity
 _atom_site_fract_x
 _atom_site_fract_y
 _atom_site_fract_z
 _atom_site_occupancy
  Ba  Ba0  1  0.59498300  0.59498300  0.24465500  1
  Ba  Ba1  1  0.41272000  0.41272000  0.75111800  1
  Ba  Ba2  1  0.99968600  0.40771700  0.24354200  1
  Ba  Ba3  1  0.99515200  0.59422500  0.74937500  1
  Ba  Ba4  1  0.59422500  0.99515200  0.74937500  1
  Ba  Ba5  1  0.40771700  0.99968600  0.24354200  1
  Li  Li0  1  0.99919000  0.99919000  0.23592700  1
  Li  Li1  1  0.99582200  0.99582200  0.74378800  1
  Ta  Ta0  1  0.24896400  0.24896400  0.41085500  1
  Ta  Ta1  1  0.33546300  0.66596100  0.00457600  1
  Ta  Ta2  1  0.33308700  0.66685700  0.50741300  1
  Ta  Ta3  1  0.99810700  0.24649900  0.91155200  1
  Ta  Ta4  1  0.75132800  0.99871100  0.40963200  1
  Ta  Ta5  1  0.99871100  0.75132800  0.40963200  1
  Ta  Ta6  1  0.66596100  0.33546300  0.00457600  1
  Ta  Ta7  1  0.66685700  0.33308700  0.50741300  1
  Ta  Ta8  1  0.24649900  0.99810700  0.91155200  1
  Ti  Ti0  1  0.74928200  0.74928200  0.91288800  1
  Ti  Ti1  1  0.75203100  0.75203100  0.59721200  1
  Ti  Ti2  1  0.24949700  0.24949700  0.09105500  1
  Ti  Ti3  1  0.00074600  0.24910000  0.59172600  1
  Ti  Ti4  1  0.74936300  0.99443100  0.08656200  1
  Ti  Ti5  1  0.99443100  0.74936300  0.08656200  1
  Ti  Ti6  1  0.24910000  0.00074600  0.59172600  1
  O  O0  1  0.80500300  0.80500300  0.07750400  1
  O  O1  1  0.80141800  0.80141800  0.42312000  1
  O  O2  1  0.79238700  0.79238700  0.75112300  1
  O  O3  1  0.51789400  0.68637000  0.90266400  1
  O  O4  1  0.51760200  0.68592100  0.60027500  1
  O  O5  1  0.20303200  0.20303200  0.25021200  1
  O  O6  1  0.20129600  0.20129600  0.57636500  1
  O  O7  1  0.19891700  0.19891700  0.92253900  1
  O  O8  1  0.51719400  0.83162200  0.10173600  1
  O  O9  1  0.51620700  0.83081600  0.40025500  1
  O  O10  1  0.31426500  0.48205900  0.10069500  1
  O  O11  1  0.31464400  0.48380800  0.40038700  1
  O  O12  1  0.16774900  0.48244500  0.59998800  1
  O  O13  1  0.16870700  0.48291400  0.90076300  1
  O  O14  1  0.31484700  0.83281300  0.60011600  1
  O  O15  1  0.31670600  0.83207900  0.89905300  1
  O  O16  1  0.00117700  0.20050500  0.07667400  1
  O  O17  1  0.99996600  0.19913600  0.42312000  1
  O  O18  1  0.99981400  0.20269600  0.74980600  1
  O  O19  1  0.16730700  0.68691600  0.09683800  1
  O  O20  1  0.16913500  0.68553200  0.40081800  1
  O  O21  1  0.79977400  0.99991000  0.57602200  1
  O  O22  1  0.80214000  0.00181800  0.92247900  1
  O  O23  1  0.79596800  0.99987100  0.24968500  1
  O  O24  1  0.83281300  0.31484700  0.60011600  1
  O  O25  1  0.83207900  0.31670600  0.89905300  1
  O  O26  1  0.99987100  0.79596800  0.24968500  1
  O  O27  1  0.99991000  0.79977400  0.57602200  1
  O  O28  1  0.00181800  0.80214000  0.92247900  1
  O  O29  1  0.68691600  0.16730700  0.09683800  1
  O  O30  1  0.68553200  0.16913500  0.40081800  1
  O  O31  1  0.83081600  0.51620700  0.40025500  1
  O  O32  1  0.83162200  0.51719400  0.10173600  1
  O  O33  1  0.68592100  0.51760200  0.60027500  1
  O  O34  1  0.68637000  0.51789400  0.90266400  1
  O  O35  1  0.48244500  0.16774900  0.59998800  1
  O  O36  1  0.48291400  0.16870700  0.90076300  1
  O  O37  1  0.48380800  0.31464400  0.40038700  1
  O  O38  1  0.48205900  0.31426500  0.10069500  1
  O  O39  1  0.20269600  0.99981400  0.74980600  1
  O  O40  1  0.19913600  0.99996600  0.42312000  1
  O  O41  1  0.20050500  0.00117700  0.07667400  1
loop_
_geom_bond_atom_site_label_1
_geom_bond_atom_site_label_2
_geom_bond_distance
_geom_bond_site_symmetry_2
Ba0 O0 2.778855 1_555
Ba0 O38 2.838544 1_555
Ba0 O10 2.838544 1_555
Ba0 O1 2.856499 1_555
Ba0 O37 2.921921 1_555
Ba0 O11 2.921921 1_555
Ba0 O32 3.122565 1_555
Ba0 O8 3.122565 1_555
Ba0 O31 3.206919 1_555
Ba0 O9 3.206919 1_555
Ba0 O26 3.246791 1_555
Ba0 O23 3.246791 1_555
Ba1 O7 2.839609 1_555
Ba1 O33 2.843665 1_555
Ba1 O4 2.843665 1_555
Ba1 O34 2.853568 1_555
Ba1 O3 2.853568 1_555
Ba1 O6 2.855432 1_555
Ba2 O16 2.762111 1_655
Ba2 O32 2.800561 1_555
Ba2 O19 2.848127 1_655
Ba2 O17 2.875924 1_555
Ba2 O31 2.909916 1_555
Ba2 O20 2.922625 1_655
Ba2 O10 3.132783 1_655
Ba2 O29 3.153780 1_555
Ba2 O30 3.225459 1_555
Ba2 O11 3.226642 1_655
Ba2 O5 3.265505 1_655
Ba2 O23 3.270671 1_545
Ba3 O27 2.787001 1_555
Ba3 O28 2.795179 1_655
Ba3 O25 2.856413 1_555
Ba3 O24 2.865976 1_555
Ba3 O12 2.899071 1_655
Ba3 O13 2.917691 1_655
Ba3 O33 3.130646 1_555
Ba3 O34 3.154612 1_555
Ba3 O14 3.200759 1_655
Ba3 O2 3.207839 1_555
Ba3 O15 3.214488 1_655
Ba3 O39 3.252231 1_655
Ba4 O21 2.787001 1_555
Ba4 O22 2.795179 1_565
Ba4 O15 2.856413 1_555
Ba4 O14 2.865976 1_555
Ba4 O35 2.899071 1_565
Ba4 O36 2.917691 1_565
Ba4 O4 3.130646 1_555
Ba4 O3 3.154612 1_555
Ba4 O24 3.200759 1_565
Ba4 O2 3.207839 1_555
Ba4 O25 3.214488 1_565
Ba4 O18 3.252231 1_565
Ba5 O41 2.762111 1_565
Ba5 O8 2.800561 1_555
Ba5 O29 2.848127 1_565
Ba5 O40 2.875924 1_555
Ba5 O9 2.909916 1_555
Ba5 O30 2.922625 1_565
Ba5 O38 3.132783 1_565
Ba5 O19 3.153780 1_555
Ba5 O20 3.225459 1_555
Ba5 O37 3.226642 1_565
Ba5 O5 3.265505 1_565
Ba5 O26 3.270671 1_455
Li0 O26 1.888923 1_555
Li0 O23 1.888923 1_555
Li0 O5 1.896212 1_665
Li0 O0 2.604686 1_555
Li0 O16 2.646935 1_665
Li0 O41 2.646935 1_665
Li1 O2 1.886621 1_555
Li1 O39 1.895806 1_655
Li1 O18 1.895806 1_565
O0 Ti0 2.023024 1_554
O0 Ti5 2.059168 1_555
O0 Ti4 2.059168 1_555
O1 Ta4 2.099480 1_555
O1 Ta5 2.099480 1_555
O1 Ti1 2.117791 1_555
O2 Ti1 1.866582 1_555
O2 Ti0 1.962445 1_555
O3 Ti0 1.921036 1_555
O3 Ta1 2.006734 1_556
O4 Ti1 1.937220 1_555
O4 Ta2 1.964775 1_555
O5 Ti2 1.938768 1_555
O5 Ta0 1.955633 1_555
O6 Ta0 2.014830 1_555
O6 Ti6 2.117048 1_555
O6 Ti3 2.117048 1_555
O7 Ti2 2.056442 1_556
O7 Ta3 2.114330 1_455
O7 Ta8 2.114330 1_545
O8 Ti4 1.920233 1_555
O8 Ta1 1.985317 1_555
O9 Ta4 1.946053 1_555
O9 Ta2 2.055545 1_555
O10 Ti2 1.926789 1_555
O10 Ta1 1.974621 1_555
O11 Ta0 1.945458 1_555
O11 Ta2 2.055279 1_555
O12 Ti3 1.931516 1_555
O12 Ta2 1.963258 1_555
O13 Ta3 1.961592 1_455
O13 Ta1 2.041312 1_556
O14 Ti6 1.931147 1_565
O14 Ta2 1.963196 1_555
O15 Ta8 1.947165 1_555
O15 Ta1 2.055180 1_556
O16 Ta3 2.010193 1_454
O16 Ti2 2.114129 1_555
O16 Ti4 2.155448 1_445
O17 Ti3 2.054980 1_655
O17 Ta0 2.115693 1_655
O17 Ta4 2.121788 1_545
O18 Ti3 1.925211 1_655
O18 Ta3 1.965566 1_555
O19 Ti5 1.954845 1_455
O19 Ta1 1.988515 1_555
O20 Ta5 1.953866 1_455
O20 Ta2 2.047650 1_555
O21 Ta4 2.025790 1_555
O21 Ti1 2.121761 1_555
O21 Ti3 2.128955 1_665
O22 Ti4 2.002063 1_546
O22 Ta3 2.081965 1_555
O22 Ti0 2.136975 1_545
O23 Ta4 1.943151 1_555
O23 Ti4 1.980589 1_555
O24 Ti3 1.931147 1_655
O24 Ta7 1.963196 1_555
O25 Ta3 1.947165 1_555
O25 Ta6 2.055180 1_556
O26 Ta5 1.943151 1_555
O26 Ti5 1.980589 1_555
O27 Ta5 2.025790 1_555
O27 Ti1 2.121761 1_555
O27 Ti6 2.128955 1_665
O28 Ti5 2.002063 1_456
O28 Ta8 2.081965 1_555
O28 Ti0 2.136975 1_455
O29 Ti4 1.954845 1_545
O29 Ta6 1.988515 1_555
O30 Ta4 1.953866 1_545
O30 Ta7 2.047650 1_555
O31 Ta5 1.946053 1_555
O31 Ta7 2.055545 1_555
O32 Ti5 1.920233 1_555
O32 Ta6 1.985317 1_555
O33 Ti1 1.937220 1_555
O33 Ta7 1.964775 1_555
O34 Ti0 1.921036 1_555
O34 Ta6 2.006734 1_556
O35 Ti6 1.931516 1_555
O35 Ta7 1.963258 1_555
O36 Ta8 1.961592 1_545
O36 Ta6 2.041312 1_556
O37 Ta0 1.945458 1_555
O37 Ta7 2.055279 1_555
O38 Ti2 1.926789 1_555
O38 Ta6 1.974621 1_555
O39 Ti6 1.925211 1_565
O39 Ta8 1.965566 1_555
O40 Ti6 2.054980 1_565
O40 Ta0 2.115693 1_565
O40 Ta5 2.121788 1_455
O41 Ta8 2.010193 1_544
O41 Ti2 2.114129 1_555
O41 Ti5 2.155448 1_445
