# generated using pymatgen
data_Ba2Ti11O24
_symmetry_space_group_name_H-M   'P 1'
_cell_length_a   7.32914100
_cell_length_b   7.40645532
_cell_length_c   8.97652966
_cell_angle_alpha   101.90005984
_cell_angle_beta   102.08977593
_cell_angle_gamma   87.55033854
_symmetry_Int_Tables_number   1
_chemical_formula_structural   Ba2Ti11O24
_chemical_formula_sum   'Ba2 Ti11 O24'
_cell_volume   466.22528564
_cell_formula_units_Z   1
loop_
 _symmetry_equiv_pos_site_id
 _symmetry_equiv_pos_as_xyz
  1  'x, y, z'
loop_
 _atom_site_type_symbol
 _atom_site_label
 _atom_site_symmetry_multiplicity
 _atom_site_fract_x
 _atom_site_fract_y
 _atom_site_fract_z
 _atom_site_occupancy
  Ba  Ba0  1  0.00295900  0.99988700  0.22449100  1
  Ba  Ba1  1  0.01822400  0.00550900  0.78576100  1
  Ti  Ti0  1  0.47321900  0.18376500  0.62180900  1
  Ti  Ti1  1  0.47718400  0.18765800  0.26592300  1
  Ti  Ti2  1  0.19062100  0.50889800  0.10997500  1
  Ti  Ti3  1  0.17716600  0.53675700  0.45423100  1
  Ti  Ti4  1  0.18849200  0.50954200  0.78908100  1
  Ti  Ti5  1  0.80691200  0.47935900  0.21223300  1
  Ti  Ti6  1  0.80203900  0.48752600  0.88255700  1
  Ti  Ti7  1  0.80894300  0.47128700  0.54617200  1
  Ti  Ti8  1  0.52146500  0.83508700  0.73197300  1
  Ti  Ti9  1  0.50587500  0.83840900  0.05148100  1
  Ti  Ti10  1  0.52018400  0.81938700  0.39004400  1
  O  O0  1  0.33244500  0.02904300  0.08271600  1
  O  O1  1  0.36244100  0.04369300  0.40085800  1
  O  O2  1  0.34579500  0.03099000  0.70855300  1
  O  O3  1  0.28677100  0.37132900  0.27720900  1
  O  O4  1  0.28381300  0.37888600  0.94249000  1
  O  O5  1  0.29371000  0.37988300  0.61185000  1
  O  O6  1  0.04822600  0.64534300  0.28340800  1
  O  O7  1  0.04940600  0.64734700  0.61459400  1
  O  O8  1  0.04870900  0.64904400  0.95072400  1
  O  O9  1  0.62317400  0.29196800  0.48360600  1
  O  O10  1  0.64075100  0.29593600  0.80025400  1
  O  O11  1  0.64026300  0.28959200  0.17482800  1
  O  O12  1  0.37809900  0.70102400  0.18555900  1
  O  O13  1  0.38393400  0.70166300  0.50966900  1
  O  O14  1  0.36840600  0.71492400  0.84458400  1
  O  O15  1  0.95121800  0.35740200  0.05030600  1
  O  O16  1  0.95654100  0.35937800  0.38751300  1
  O  O17  1  0.95726400  0.36022500  0.71667900  1
  O  O18  1  0.71033400  0.62596700  0.71738800  1
  O  O19  1  0.70107100  0.61950400  0.05636500  1
  O  O20  1  0.71229800  0.62804800  0.39088300  1
  O  O21  1  0.65607200  0.92904400  0.93433300  1
  O  O22  1  0.64473900  0.95041300  0.26211700  1
  O  O23  1  0.64918200  0.95277700  0.60352400  1
loop_
_geom_bond_atom_site_label_1
_geom_bond_atom_site_label_2
_geom_bond_distance
_geom_bond_site_symmetry_2
Ba0 O22 2.765146 1_455
Ba0 O1 2.768985 1_565
Ba0 O6 2.776683 1_555
Ba0 O16 2.805463 1_465
Ba0 O0 2.990489 1_565
Ba0 O21 3.209299 1_454
Ba0 O8 3.246687 1_554
Ba0 O15 3.312599 1_465
Ba1 O2 2.658857 1_555
Ba1 O7 2.804324 1_545
Ba1 O17 2.818114 1_455
Ba1 O23 2.849157 1_445
O0 Ti9 1.876279 1_545
O0 Ti1 1.946531 1_555
O1 Ti10 1.980483 1_545
O1 Ti0 2.053805 1_555
O1 Ti1 2.085008 1_555
O2 Ti0 1.875406 1_555
O2 Ti8 1.913074 1_545
O3 Ti1 1.910109 1_555
O3 Ti2 1.978532 1_555
O3 Ti3 2.078268 1_555
O4 Ti4 1.846524 1_555
O4 Ti2 1.852278 1_556
O5 Ti0 1.920862 1_555
O5 Ti4 1.966836 1_555
O5 Ti3 2.041646 1_555
O6 Ti3 1.930747 1_555
O6 Ti5 2.106216 1_455
O6 Ti2 2.115593 1_555
O7 Ti3 1.905952 1_555
O7 Ti4 2.106098 1_555
O7 Ti7 2.143907 1_455
O8 Ti2 2.024741 1_556
O8 Ti4 2.033818 1_555
O8 Ti6 2.119794 1_455
O9 Ti7 1.860033 1_555
O9 Ti1 2.032796 1_555
O9 Ti0 2.108466 1_555
O10 Ti6 1.817131 1_555
O10 Ti0 1.864989 1_555
O11 Ti5 1.833115 1_555
O11 Ti1 1.846173 1_555
O12 Ti2 1.936922 1_555
O12 Ti10 1.958561 1_555
O12 Ti9 2.102282 1_555
O13 Ti3 1.904620 1_555
O13 Ti10 1.954547 1_555
O13 Ti8 2.098566 1_555
O14 Ti4 1.970937 1_555
O14 Ti9 1.973644 1_556
O14 Ti8 2.000921 1_555
O15 Ti5 2.016956 1_555
O15 Ti2 2.037482 1_655
O15 Ti6 2.051944 1_554
O16 Ti7 1.991849 1_555
O16 Ti3 2.037334 1_655
O16 Ti5 2.058752 1_555
O17 Ti4 1.979865 1_655
O17 Ti7 1.986654 1_555
O17 Ti6 2.106967 1_555
O18 Ti6 1.962641 1_555
O18 Ti7 1.966034 1_555
O18 Ti8 2.034992 1_555
O19 Ti5 1.926718 1_555
O19 Ti6 1.931357 1_554
O19 Ti9 2.117074 1_555
O20 Ti10 1.954557 1_555
O20 Ti5 1.984326 1_555
O20 Ti7 1.994097 1_555
O21 Ti8 1.882520 1_555
O21 Ti9 1.899326 1_556
O22 Ti9 1.979457 1_555
O22 Ti10 2.016984 1_555
O22 Ti1 2.098845 1_565
O23 Ti8 1.975302 1_555
O23 Ti10 2.020467 1_555
O23 Ti0 2.097918 1_565
