# generated using pymatgen
data_Li2Cu2F5
_symmetry_space_group_name_H-M   'P 1'
_cell_length_a   3.01562800
_cell_length_b   9.95832600
_cell_length_c   14.07718994
_cell_angle_alpha   86.86889385
_cell_angle_beta   90.00000000
_cell_angle_gamma   90.00000000
_symmetry_Int_Tables_number   1
_chemical_formula_structural   Li2Cu2F5
_chemical_formula_sum   'Li8 Cu8 F20'
_cell_volume   422.11546339
_cell_formula_units_Z   4
loop_
 _symmetry_equiv_pos_site_id
 _symmetry_equiv_pos_as_xyz
  1  'x, y, z'
loop_
 _atom_site_type_symbol
 _atom_site_label
 _atom_site_symmetry_multiplicity
 _atom_site_fract_x
 _atom_site_fract_y
 _atom_site_fract_z
 _atom_site_occupancy
  Li  Li0  1  0.69269700  0.89174300  0.70724500  1
  Li  Li1  1  0.80730300  0.89174300  0.20724500  1
  Li  Li2  1  0.18108000  0.68653400  0.59604700  1
  Li  Li3  1  0.31892000  0.68653400  0.09604700  1
  Li  Li4  1  0.68108000  0.31346600  0.90395300  1
  Li  Li5  1  0.81892000  0.31346600  0.40395300  1
  Li  Li6  1  0.19269700  0.10825700  0.79275500  1
  Li  Li7  1  0.30730300  0.10825700  0.29275500  1
  Cu  Cu0  1  0.76370000  0.88837400  0.95353200  1
  Cu  Cu1  1  0.73630000  0.88837400  0.45353200  1
  Cu  Cu2  1  0.20317200  0.61345000  0.82437400  1
  Cu  Cu3  1  0.29682800  0.61345000  0.32437400  1
  Cu  Cu4  1  0.70317200  0.38655000  0.67562600  1
  Cu  Cu5  1  0.79682800  0.38655000  0.17562600  1
  Cu  Cu6  1  0.26370000  0.11162600  0.54646800  1
  Cu  Cu7  1  0.23630000  0.11162600  0.04646800  1
  F  F0  1  0.70627200  0.97188000  0.83262800  1
  F  F1  1  0.79372800  0.97188000  0.33262800  1
  F  F2  1  0.67538800  0.82468700  0.57892900  1
  F  F3  1  0.18634200  0.75962100  0.73632300  1
  F  F4  1  0.82461200  0.82468700  0.07892900  1
  F  F5  1  0.34823000  0.72138800  0.93728900  1
  F  F6  1  0.31365800  0.75962100  0.23632300  1
  F  F7  1  0.15177000  0.72138800  0.43728900  1
  F  F8  1  0.68195700  0.56154600  0.62621000  1
  F  F9  1  0.81804300  0.56154600  0.12621000  1
  F  F10  1  0.18195700  0.43845400  0.87379000  1
  F  F11  1  0.31804300  0.43845400  0.37379000  1
  F  F12  1  0.84823000  0.27861200  0.56271100  1
  F  F13  1  0.68634200  0.24037900  0.76367700  1
  F  F14  1  0.65177000  0.27861200  0.06271100  1
  F  F15  1  0.17538800  0.17531300  0.92107100  1
  F  F16  1  0.81365800  0.24037900  0.26367700  1
  F  F17  1  0.32461200  0.17531300  0.42107100  1
  F  F18  1  0.20627200  0.02812000  0.66737200  1
  F  F19  1  0.29372800  0.02812000  0.16737200  1
loop_
_geom_bond_atom_site_label_1
_geom_bond_atom_site_label_2
_geom_bond_distance
_geom_bond_site_symmetry_2
Cu0 F4 1.851954 1_556
Cu0 F0 1.861093 1_555
Cu0 F5 2.104478 1_555
Cu0 F5 2.442593 1_655
Cu1 F2 1.851954 1_555
Cu1 F1 1.861093 1_555
Cu1 F7 2.104478 1_655
Cu1 F7 2.442593 1_555
Cu2 F10 1.841864 1_555
Cu2 F3 1.860292 1_555
Cu2 F5 2.014935 1_555
Cu3 F11 1.841864 1_555
Cu3 F6 1.860292 1_555
Cu3 F7 2.014935 1_555
Cu4 F8 1.841864 1_555
Cu4 F13 1.860292 1_555
Cu4 F12 2.014935 1_555
Cu5 F9 1.841864 1_555
Cu5 F16 1.860292 1_555
Cu5 F14 2.014935 1_555
Cu6 F17 1.851954 1_555
Cu6 F18 1.861093 1_555
Cu6 F12 2.104478 1_455
Cu6 F12 2.442593 1_555
Cu7 F15 1.851954 1_554
Cu7 F19 1.861093 1_555
Cu7 F14 2.104478 1_555
Cu7 F14 2.442593 1_455
F0 Li0 1.976808 1_555
F0 Li6 2.056188 1_665
F0 Li6 2.115375 1_565
F1 Li1 1.976808 1_555
F1 Li7 2.056188 1_565
F1 Li7 2.115375 1_665
F2 Li0 1.960415 1_555
F2 Li2 2.033872 1_555
F2 Li2 2.059166 1_655
F3 Li0 2.013927 1_455
F3 Li0 2.042422 1_555
F3 Li2 2.141587 1_555
F4 Li1 1.960415 1_555
F4 Li3 2.033872 1_655
F4 Li3 2.059166 1_555
F5 Li3 2.244587 1_556
F6 Li1 2.013927 1_555
F6 Li1 2.042422 1_455
F6 Li3 2.141587 1_555
F7 Li2 2.244587 1_555
F8 Li2 1.984263 1_655
F8 Li2 1.988279 1_555
F9 Li3 1.984263 1_555
F9 Li3 1.988279 1_655
F10 Li4 1.984263 1_555
F10 Li4 1.988279 1_455
F11 Li5 1.984263 1_455
F11 Li5 1.988279 1_555
F12 Li5 2.244587 1_555
F13 Li6 2.013927 1_555
F13 Li6 2.042422 1_655
F13 Li4 2.141587 1_555
F14 Li4 2.244587 1_554
F15 Li6 1.960415 1_555
F15 Li4 2.033872 1_455
F15 Li4 2.059166 1_555
F16 Li7 2.013927 1_655
F16 Li7 2.042422 1_555
F16 Li5 2.141587 1_555
F17 Li7 1.960415 1_555
F17 Li5 2.033872 1_555
F17 Li5 2.059166 1_455
F18 Li6 1.976808 1_555
F18 Li0 2.056188 1_545
F18 Li0 2.115375 1_445
F19 Li7 1.976808 1_555
F19 Li1 2.056188 1_445
F19 Li1 2.115375 1_545
