# generated using pymatgen
data_Mn2P4O13
_symmetry_space_group_name_H-M   'P 1'
_cell_length_a   9.00230300
_cell_length_b   8.38444400
_cell_length_c   13.39916293
_cell_angle_alpha   72.12860566
_cell_angle_beta   90.00000000
_cell_angle_gamma   90.00000000
_symmetry_Int_Tables_number   1
_chemical_formula_structural   Mn2P4O13
_chemical_formula_sum   'Mn8 P16 O52'
_cell_volume   962.55912574
_cell_formula_units_Z   4
loop_
 _symmetry_equiv_pos_site_id
 _symmetry_equiv_pos_as_xyz
  1  'x, y, z'
loop_
 _atom_site_type_symbol
 _atom_site_label
 _atom_site_symmetry_multiplicity
 _atom_site_fract_x
 _atom_site_fract_y
 _atom_site_fract_z
 _atom_site_occupancy
  Mn  Mn0  1  0.00107200  0.96516600  0.72209700  1
  Mn  Mn1  1  0.49892800  0.96516600  0.22209700  1
  Mn  Mn2  1  0.99881100  0.55625300  0.73797400  1
  Mn  Mn3  1  0.49881100  0.44374700  0.76202600  1
  Mn  Mn4  1  0.50118900  0.55625300  0.23797400  1
  Mn  Mn5  1  0.00118900  0.44374700  0.26202600  1
  Mn  Mn6  1  0.50107200  0.03483400  0.77790300  1
  Mn  Mn7  1  0.99892800  0.03483400  0.27790300  1
  P  P0  1  0.75893100  0.85962400  0.92900000  1
  P  P1  1  0.27581900  0.72525200  0.84177700  1
  P  P2  1  0.70221700  0.77322100  0.65991900  1
  P  P3  1  0.74106900  0.85962400  0.42900000  1
  P  P4  1  0.74856800  0.49725700  0.93192000  1
  P  P5  1  0.22418100  0.72525200  0.34177700  1
  P  P6  1  0.79778300  0.77322100  0.15991900  1
  P  P7  1  0.24856800  0.50274300  0.56808000  1
  P  P8  1  0.75143200  0.49725700  0.43192000  1
  P  P9  1  0.20221700  0.22677900  0.84008100  1
  P  P10  1  0.77581900  0.27474800  0.65822300  1
  P  P11  1  0.25143200  0.50274300  0.06808000  1
  P  P12  1  0.25893100  0.14037600  0.57100000  1
  P  P13  1  0.29778300  0.22677900  0.34008100  1
  P  P14  1  0.72418100  0.27474800  0.15822300  1
  P  P15  1  0.24106900  0.14037600  0.07100000  1
  O  O0  1  0.62398300  0.97259600  0.90481100  1
  O  O1  1  0.88737000  0.89735400  0.85438400  1
  O  O2  1  0.35174200  0.88008200  0.85501000  1
  O  O3  1  0.63004500  0.87375800  0.72088600  1
  O  O4  1  0.87601700  0.97259600  0.40481100  1
  O  O5  1  0.67559400  0.87196400  0.53676100  1
  O  O6  1  0.69955800  0.66905300  0.95474100  1
  O  O7  1  0.13161700  0.76733800  0.77504900  1
  O  O8  1  0.87484300  0.75868000  0.67250700  1
  O  O9  1  0.61263000  0.89735400  0.35438400  1
  O  O10  1  0.20816300  0.62486600  0.95636700  1
  O  O11  1  0.14825800  0.88008200  0.35501000  1
  O  O12  1  0.86995500  0.87375800  0.22088600  1
  O  O13  1  0.37518200  0.61417800  0.80396700  1
  O  O14  1  0.88930500  0.53244800  0.86934900  1
  O  O15  1  0.63668900  0.59929700  0.67743700  1
  O  O16  1  0.82440600  0.87196400  0.03676100  1
  O  O17  1  0.80044200  0.66905300  0.45474100  1
  O  O18  1  0.36838300  0.76733800  0.27504900  1
  O  O19  1  0.62515700  0.75868000  0.17250700  1
  O  O20  1  0.11732600  0.57698800  0.60792900  1
  O  O21  1  0.29183700  0.62486600  0.45636700  1
  O  O22  1  0.61732600  0.42301200  0.89207100  1
  O  O23  1  0.13668900  0.40070300  0.82256300  1
  O  O24  1  0.38930500  0.46755200  0.63065100  1
  O  O25  1  0.12481800  0.61417800  0.30396700  1
  O  O26  1  0.87518200  0.38582200  0.69603300  1
  O  O27  1  0.61069500  0.53244800  0.36934900  1
  O  O28  1  0.86331100  0.59929700  0.17743700  1
  O  O29  1  0.38267400  0.57698800  0.10792900  1
  O  O30  1  0.70816300  0.37513400  0.54363300  1
  O  O31  1  0.88267400  0.42301200  0.39207100  1
  O  O32  1  0.37484300  0.24132000  0.82749300  1
  O  O33  1  0.63161700  0.23266200  0.72495100  1
  O  O34  1  0.19955800  0.33094700  0.54525900  1
  O  O35  1  0.17559400  0.12803600  0.96323900  1
  O  O36  1  0.36331100  0.40070300  0.32256300  1
  O  O37  1  0.11069500  0.46755200  0.13065100  1
  O  O38  1  0.62481800  0.38582200  0.19603300  1
  O  O39  1  0.13004500  0.12624200  0.77911400  1
  O  O40  1  0.85174200  0.11991800  0.64499000  1
  O  O41  1  0.79183700  0.37513400  0.04363300  1
  O  O42  1  0.38737000  0.10264600  0.64561600  1
  O  O43  1  0.12515700  0.24132000  0.32749300  1
  O  O44  1  0.86838300  0.23266200  0.22495100  1
  O  O45  1  0.30044200  0.33094700  0.04525900  1
  O  O46  1  0.32440600  0.12803600  0.46323900  1
  O  O47  1  0.12398300  0.02740400  0.59518900  1
  O  O48  1  0.36995500  0.12624200  0.27911400  1
  O  O49  1  0.64825800  0.11991800  0.14499000  1
  O  O50  1  0.11263000  0.10264600  0.14561600  1
  O  O51  1  0.37601700  0.02740400  0.09518900  1
loop_
_geom_bond_atom_site_label_1
_geom_bond_atom_site_label_2
_geom_bond_distance
_geom_bond_site_symmetry_2
Mn0 O40 1.932711 1_465
Mn0 O47 1.960498 1_565
Mn0 O1 1.973401 1_455
Mn0 O7 1.978237 1_555
Mn0 O39 2.094975 1_565
Mn0 O8 2.331557 1_455
Mn1 O49 1.932711 1_565
Mn1 O51 1.960498 1_565
Mn1 O9 1.973401 1_555
Mn1 O18 1.978237 1_555
Mn1 O48 2.094975 1_565
Mn1 O19 2.331557 1_555
Mn2 O23 1.902351 1_655
Mn2 O14 1.973504 1_555
Mn2 O8 1.995437 1_555
Mn2 O20 2.004713 1_655
Mn2 O26 2.022200 1_555
Mn2 O7 2.312590 1_655
Mn3 O15 1.902351 1_555
Mn3 O24 1.973504 1_555
Mn3 O32 1.995437 1_555
Mn3 O22 2.004713 1_555
Mn3 O13 2.022200 1_555
Mn3 O33 2.312590 1_555
Mn4 O36 1.902351 1_555
Mn4 O27 1.973504 1_555
Mn4 O19 1.995437 1_555
Mn4 O29 2.004713 1_555
Mn4 O38 2.022200 1_555
Mn4 O18 2.312590 1_555
Mn5 O28 1.902351 1_455
Mn5 O37 1.973504 1_555
Mn5 O43 1.995437 1_555
Mn5 O31 2.004713 1_455
Mn5 O25 2.022200 1_555
Mn5 O44 2.312590 1_455
Mn6 O2 1.932711 1_545
Mn6 O0 1.960498 1_545
Mn6 O42 1.973401 1_555
Mn6 O33 1.978237 1_555
Mn6 O3 2.094975 1_545
Mn6 O32 2.331557 1_555
Mn7 O11 1.932711 1_645
Mn7 O4 1.960498 1_545
Mn7 O50 1.973401 1_655
Mn7 O44 1.978237 1_555
Mn7 O12 2.094975 1_545
Mn7 O43 2.331557 1_655
O0 P0 1.513165 1_555
O1 P0 1.497479 1_555
O2 P1 1.524825 1_555
O3 P2 1.490861 1_555
O4 P3 1.513165 1_555
O5 P3 1.592070 1_555
O5 P2 1.620968 1_555
O6 P0 1.618476 1_555
O6 P4 1.622741 1_555
O7 P1 1.554182 1_555
O8 P2 1.563875 1_555
O9 P3 1.497479 1_555
O10 P11 1.581155 1_556
O10 P1 1.625941 1_555
O11 P5 1.524825 1_555
O12 P6 1.490861 1_555
O13 P1 1.487844 1_555
O14 P4 1.497772 1_555
O15 P2 1.522993 1_555
O16 P0 1.592070 1_554
O16 P6 1.620968 1_555
O17 P3 1.618476 1_555
O17 P8 1.622741 1_555
O18 P5 1.554182 1_555
O19 P6 1.563875 1_555
O20 P7 1.507483 1_555
O21 P7 1.581155 1_555
O21 P5 1.625941 1_555
O22 P4 1.507483 1_555
O23 P9 1.522993 1_555
O24 P7 1.497772 1_555
O25 P5 1.487844 1_555
O26 P10 1.487844 1_555
O27 P8 1.497772 1_555
O28 P6 1.522993 1_555
O29 P11 1.507483 1_555
O30 P8 1.581155 1_555
O30 P10 1.625941 1_555
O31 P8 1.507483 1_555
O32 P9 1.563875 1_555
O33 P10 1.554182 1_555
O34 P12 1.618476 1_555
O34 P7 1.622741 1_555
O35 P15 1.592070 1_556
O35 P9 1.620968 1_555
O36 P13 1.522993 1_555
O37 P11 1.497772 1_555
O38 P14 1.487844 1_555
O39 P9 1.490861 1_555
O40 P10 1.524825 1_555
O41 P4 1.581155 1_554
O41 P14 1.625941 1_555
O42 P12 1.497479 1_555
O43 P13 1.563875 1_555
O44 P14 1.554182 1_555
O45 P15 1.618476 1_555
O45 P11 1.622741 1_555
O46 P12 1.592070 1_555
O46 P13 1.620968 1_555
O47 P12 1.513165 1_555
O48 P13 1.490861 1_555
O49 P14 1.524825 1_555
O50 P15 1.497479 1_555
O51 P15 1.513165 1_555
