# generated using pymatgen
data_Sm2WO6
_symmetry_space_group_name_H-M   'P 1'
_cell_length_a   5.45277057
_cell_length_b   7.75945992
_cell_length_c   11.58171850
_cell_angle_alpha   76.01990057
_cell_angle_beta   90.00000000
_cell_angle_gamma   90.00000000
_symmetry_Int_Tables_number   1
_chemical_formula_structural   Sm2WO6
_chemical_formula_sum   'Sm8 W4 O24'
_cell_volume   475.51412751
_cell_formula_units_Z   4
loop_
 _symmetry_equiv_pos_site_id
 _symmetry_equiv_pos_as_xyz
  1  'x, y, z'
loop_
 _atom_site_type_symbol
 _atom_site_label
 _atom_site_symmetry_multiplicity
 _atom_site_fract_x
 _atom_site_fract_y
 _atom_site_fract_z
 _atom_site_occupancy
  Sm  Sm0  1  0.73654980  -0.00000000  0.75000000  1
  Sm  Sm1  1  0.26345020  -0.00000000  0.25000000  1
  Sm  Sm2  1  0.19197717  0.79834014  0.57659490  1
  Sm  Sm3  1  0.80802283  0.79834014  0.07659490  1
  Sm  Sm4  1  0.68260204  0.50000000  0.75000000  1
  Sm  Sm5  1  0.31739796  0.50000000  0.25000000  1
  Sm  Sm6  1  0.19197717  0.20165986  0.92340510  1
  Sm  Sm7  1  0.80802283  0.20165986  0.42340510  1
  W  W0  1  0.25201328  0.72207516  0.88673093  1
  W  W1  1  0.74798672  0.72207516  0.38673093  1
  W  W2  1  0.25201328  0.27792484  0.61326907  1
  W  W3  1  0.74798672  0.27792484  0.11326907  1
  O  O0  1  0.03911013  0.93464689  0.89625611  1
  O  O1  1  0.51292663  0.85396634  0.92970369  1
  O  O2  1  0.96088987  0.93464689  0.39625611  1
  O  O3  1  0.46038354  0.78222199  0.73232427  1
  O  O4  1  0.48707337  0.85396634  0.42970369  1
  O  O5  1  0.99085038  0.70952595  0.77393957  1
  O  O6  1  0.53961646  0.78222199  0.23232427  1
  O  O7  1  0.84647890  0.63744949  0.54521220  1
  O  O8  1  0.35789694  0.49448932  0.88895507  1
  O  O9  1  0.00914962  0.70952595  0.27393957  1
  O  O10  1  0.35789694  0.50551068  0.61104493  1
  O  O11  1  0.84647890  0.36255051  0.95478780  1
  O  O12  1  0.15352110  0.63744949  0.04521220  1
  O  O13  1  0.64210306  0.49448932  0.38895507  1
  O  O14  1  0.99085038  0.29047405  0.72606043  1
  O  O15  1  0.64210306  0.50551068  0.11104493  1
  O  O16  1  0.15352110  0.36255051  0.45478780  1
  O  O17  1  0.46038354  0.21777801  0.76767573  1
  O  O18  1  0.00914962  0.29047405  0.22606043  1
  O  O19  1  0.51292663  0.14603366  0.57029631  1
  O  O20  1  0.53961646  0.21777801  0.26767573  1
  O  O21  1  0.03911013  0.06535311  0.60374389  1
  O  O22  1  0.48707337  0.14603366  0.07029631  1
  O  O23  1  0.96088987  0.06535311  0.10374389  1
loop_
_geom_bond_atom_site_label_1
_geom_bond_atom_site_label_2
_geom_bond_distance
_geom_bond_site_symmetry_2
O0 W0 2.041682 1_555
O0 Sm6 2.324029 1_565
O0 Sm0 2.330927 1_465
O0 Sm3 2.449787 1_456
O1 W0 1.888184 1_555
O1 Sm3 2.305416 1_556
O1 Sm0 2.441942 1_565
O2 W1 2.041682 1_555
O2 Sm7 2.324029 1_565
O2 Sm1 2.330927 1_665
O2 Sm2 2.449787 1_655
O3 W0 2.074486 1_555
O3 Sm2 2.302537 1_555
O3 Sm0 2.309169 1_565
O3 Sm4 2.467621 1_555
O4 W1 1.888184 1_555
O4 Sm2 2.305416 1_555
O4 Sm1 2.441942 1_565
O5 W0 1.950733 1_655
O5 Sm4 2.400633 1_555
O5 Sm2 2.478013 1_655
O5 Sm0 2.603434 1_565
O6 W1 2.074486 1_555
O6 Sm3 2.302537 1_555
O6 Sm1 2.309169 1_565
O6 Sm5 2.467621 1_555
O7 W1 1.872505 1_555
O7 Sm2 2.336467 1_655
O7 Sm4 2.517771 1_555
O8 W0 1.852183 1_555
O8 Sm4 2.386078 1_555
O8 Sm6 2.388005 1_555
O9 W1 1.950733 1_455
O9 Sm5 2.400633 1_555
O9 Sm3 2.478013 1_455
O9 Sm1 2.603434 1_565
O10 W2 1.852183 1_555
O10 Sm4 2.386078 1_555
O10 Sm2 2.388005 1_555
O11 W3 1.872505 1_556
O11 Sm6 2.336467 1_655
O11 Sm4 2.517771 1_555
O12 W0 1.872505 1_554
O12 Sm3 2.336467 1_455
O12 Sm5 2.517771 1_555
O13 W1 1.852183 1_555
O13 Sm5 2.386078 1_555
O13 Sm7 2.388005 1_555
O14 W2 1.950733 1_655
O14 Sm4 2.400633 1_555
O14 Sm6 2.478013 1_655
O14 Sm0 2.603434 1_555
O15 W3 1.852183 1_555
O15 Sm5 2.386078 1_555
O15 Sm3 2.388005 1_555
O16 W2 1.872505 1_555
O16 Sm7 2.336467 1_455
O16 Sm5 2.517771 1_555
O17 W2 2.074486 1_555
O17 Sm6 2.302537 1_555
O17 Sm0 2.309169 1_555
O17 Sm4 2.467621 1_555
O18 W3 1.950733 1_455
O18 Sm5 2.400633 1_555
O18 Sm7 2.478013 1_455
O18 Sm1 2.603434 1_555
O19 W2 1.888184 1_555
O19 Sm7 2.305416 1_555
O19 Sm0 2.441942 1_555
O20 W3 2.074486 1_555
O20 Sm7 2.302537 1_555
O20 Sm1 2.309169 1_555
O20 Sm5 2.467621 1_555
O21 W2 2.041682 1_555
O21 Sm2 2.324029 1_545
O21 Sm0 2.330927 1_455
O21 Sm7 2.449787 1_455
O22 W3 1.888184 1_555
O22 Sm6 2.305416 1_554
O22 Sm1 2.441942 1_555
O23 W3 2.041682 1_555
O23 Sm3 2.324029 1_545
O23 Sm1 2.330927 1_655
O23 Sm6 2.449787 1_654
