# generated using pymatgen
data_CoH16C3N8O7
_symmetry_space_group_name_H-M   'P 1'
_cell_length_a   8.24638729
_cell_length_b   8.24638729
_cell_length_c   10.37821739
_cell_angle_alpha   67.63107922
_cell_angle_beta   67.63107922
_cell_angle_gamma   83.62280131
_symmetry_Int_Tables_number   1
_chemical_formula_structural   CoH16C3N8O7
_chemical_formula_sum   'Co2 H32 C6 N16 O14'
_cell_volume   603.06298793
_cell_formula_units_Z   2
loop_
 _symmetry_equiv_pos_site_id
 _symmetry_equiv_pos_as_xyz
  1  'x, y, z'
loop_
 _atom_site_type_symbol
 _atom_site_label
 _atom_site_symmetry_multiplicity
 _atom_site_fract_x
 _atom_site_fract_y
 _atom_site_fract_z
 _atom_site_occupancy
  Co  Co0  1  0.92277400  0.07296400  0.00575000  1
  Co  Co1  1  0.07296400  0.92277400  0.50575000  1
  H  H0  1  0.62167300  0.98537600  0.00201300  1
  H  H1  1  0.98537600  0.62167300  0.50201300  1
  H  H2  1  0.77431700  0.90339700  0.88864600  1
  H  H3  1  0.90339700  0.77431700  0.38864600  1
  H  H4  1  0.64426600  0.65459000  0.10941500  1
  H  H5  1  0.65459000  0.64426600  0.60941500  1
  H  H6  1  0.14105400  0.85956500  0.89325300  1
  H  H7  1  0.85956500  0.14105400  0.39325300  1
  H  H8  1  0.14813400  0.04270200  0.74468800  1
  H  H9  1  0.04270200  0.14813400  0.24468800  1
  H  H10  1  0.41143600  0.98489900  0.82520100  1
  H  H11  1  0.98489900  0.41143600  0.32520100  1
  H  H12  1  0.03244200  0.39440800  0.77901700  1
  H  H13  1  0.39440800  0.03244200  0.27901700  1
  H  H14  1  0.85986100  0.32270000  0.76566300  1
  H  H15  1  0.32270000  0.85986100  0.26566300  1
  H  H16  1  0.75384600  0.53829400  0.87079100  1
  H  H17  1  0.53829400  0.75384600  0.37079100  1
  H  H18  1  0.31904300  0.53077200  0.07566700  1
  H  H19  1  0.53077200  0.31904300  0.57566700  1
  H  H20  1  0.42173900  0.61334600  0.89160800  1
  H  H21  1  0.61334600  0.42173900  0.39160800  1
  H  H22  1  0.35802700  0.39314000  0.97932200  1
  H  H23  1  0.39314000  0.35802700  0.47932200  1
  H  H24  1  0.07072700  0.47173300  0.02592500  1
  H  H25  1  0.47173300  0.07072700  0.52592500  1
  H  H26  1  0.17832300  0.59327500  0.85001300  1
  H  H27  1  0.59327500  0.17832300  0.35001300  1
  H  H28  1  0.14364400  0.74952300  0.17840500  1
  H  H29  1  0.74952300  0.14364400  0.67840500  1
  H  H30  1  0.22728800  0.60550600  0.28357100  1
  H  H31  1  0.60550600  0.22728800  0.78357100  1
  C  C0  1  0.81652700  0.70859800  0.19049200  1
  C  C1  1  0.70859800  0.81652700  0.69049200  1
  C  C2  1  0.28460000  0.13470700  0.95208000  1
  C  C3  1  0.13470700  0.28460000  0.45208000  1
  C  C4  1  0.68781300  0.33651900  0.07401900  1
  C  C5  1  0.33651900  0.68781300  0.57401900  1
  N  N0  1  0.73763200  0.92046400  0.98933000  1
  N  N1  1  0.92046400  0.73763200  0.48933000  1
  N  N2  1  0.71044600  0.75498900  0.10800900  1
  N  N3  1  0.75498900  0.71044600  0.60800900  1
  N  N4  1  0.14535100  0.99502900  0.85300900  1
  N  N5  1  0.99502900  0.14535100  0.35300900  1
  N  N6  1  0.30087300  0.05647200  0.85164900  1
  N  N7  1  0.05647200  0.30087300  0.35164900  1
  N  N8  1  0.91176500  0.32987200  0.84017200  1
  N  N9  1  0.32987200  0.91176500  0.34017200  1
  N  N10  1  0.80032400  0.42471300  0.92678100  1
  N  N11  1  0.42471300  0.80032400  0.42678100  1
  N  N12  1  0.32349800  0.51984200  0.97828000  1
  N  N13  1  0.51984200  0.32349800  0.47828000  1
  N  N14  1  0.15926500  0.57555700  0.95868200  1
  N  N15  1  0.57555700  0.15926500  0.45868200  1
  O  O0  1  0.92173400  0.82647200  0.17384900  1
  O  O1  1  0.82647200  0.92173400  0.67384900  1
  O  O2  1  0.79872400  0.55234800  0.28571000  1
  O  O3  1  0.55234800  0.79872400  0.78571000  1
  O  O4  1  0.13098700  0.16746500  0.03091700  1
  O  O5  1  0.16746500  0.13098700  0.53091700  1
  O  O6  1  0.42657900  0.17714300  0.95691900  1
  O  O7  1  0.17714300  0.42657900  0.45691900  1
  O  O8  1  0.71533400  0.17344800  0.13920900  1
  O  O9  1  0.17344800  0.71533400  0.63920900  1
  O  O10  1  0.57035100  0.42409400  0.13517100  1
  O  O11  1  0.42409400  0.57035100  0.63517100  1
  O  O12  1  0.25755800  0.70828000  0.18714500  1
  O  O13  1  0.70828000  0.25755800  0.68714500  1
loop_
_geom_bond_atom_site_label_1
_geom_bond_atom_site_label_2
_geom_bond_distance
_geom_bond_site_symmetry_2
Co0 O8 2.070405 1_555
Co0 O4 2.101697 1_655
Co0 O0 2.113936 1_545
Co0 N4 2.143258 1_644
Co0 N0 2.174666 1_544
Co0 N8 2.180486 1_554
Co1 O9 2.070405 1_555
Co1 O5 2.101697 1_565
Co1 O1 2.113936 1_455
Co1 N5 2.143258 1_465
Co1 N1 2.174666 1_455
Co1 N9 2.180486 1_555
H0 N0 1.030717 1_554
H1 N1 1.030717 1_555
H2 N0 1.032017 1_555
H3 N1 1.032017 1_555
H4 N2 1.033749 1_555
H5 N3 1.033749 1_555
H6 N4 1.032469 1_555
H7 N5 1.032469 1_555
H8 N4 1.031911 1_545
H9 N5 1.031911 1_455
H10 N6 1.033567 1_565
H11 N7 1.033567 1_655
H12 N8 1.027712 1_455
H13 N9 1.027712 1_545
H14 N8 1.037785 1_555
H15 N9 1.037785 1_555
H16 N10 1.018501 1_555
H17 N11 1.018501 1_555
H18 N12 1.035053 1_554
H19 N13 1.035053 1_555
H20 N12 1.056491 1_555
H21 N13 1.056491 1_555
H22 N12 1.049059 1_555
H23 N13 1.049059 1_555
H24 N14 1.024399 1_554
H25 N15 1.024399 1_555
H26 N14 1.030889 1_555
H27 N15 1.030889 1_555
H28 O12 0.988298 1_555
H29 O13 0.988298 1_555
H30 O12 0.996678 1_555
H31 O13 0.996678 1_555
C0 O2 1.273091 1_555
C0 O0 1.293394 1_555
C0 N2 1.375046 1_555
C1 O3 1.273091 1_555
C1 O1 1.293394 1_555
C1 N3 1.375046 1_555
C2 O6 1.282550 1_555
C2 O4 1.284679 1_556
C2 N6 1.380848 1_555
C3 O7 1.282550 1_555
C3 O5 1.284679 1_555
C3 N7 1.380848 1_555
C4 O10 1.260209 1_555
C4 O8 1.293896 1_555
C4 N10 1.396307 1_554
C5 O11 1.260209 1_555
C5 O9 1.293896 1_555
C5 N11 1.396307 1_555
N4 N6 1.423676 1_565
N5 N7 1.423676 1_655
N10 N8 1.418033 1_555
N11 N9 1.418033 1_555
