# generated using pymatgen
data_Mg2FeO4
_symmetry_space_group_name_H-M   'P 1'
_cell_length_a   5.91871100
_cell_length_b   5.16292500
_cell_length_c   11.02650093
_cell_angle_alpha   62.14096443
_cell_angle_beta   90.00000000
_cell_angle_gamma   90.00000000
_symmetry_Int_Tables_number   1
_chemical_formula_structural   Mg2FeO4
_chemical_formula_sum   'Mg8 Fe4 O16'
_cell_volume   297.89419404
_cell_formula_units_Z   4
loop_
 _symmetry_equiv_pos_site_id
 _symmetry_equiv_pos_as_xyz
  1  'x, y, z'
loop_
 _atom_site_type_symbol
 _atom_site_label
 _atom_site_symmetry_multiplicity
 _atom_site_fract_x
 _atom_site_fract_y
 _atom_site_fract_z
 _atom_site_occupancy
  Mg  Mg0  1  0.12957300  0.70803900  0.03885500  1
  Mg  Mg1  1  0.62957300  0.29196100  0.46114500  1
  Mg  Mg2  1  0.61483800  0.99568100  0.74591900  1
  Mg  Mg3  1  0.11483800  0.00431900  0.75408100  1
  Mg  Mg4  1  0.88516200  0.99568100  0.24591900  1
  Mg  Mg5  1  0.38516200  0.00431900  0.25408100  1
  Mg  Mg6  1  0.37042700  0.70803900  0.53885500  1
  Mg  Mg7  1  0.87042700  0.29196100  0.96114500  1
  Fe  Fe0  1  0.63073600  0.72889500  0.02847900  1
  Fe  Fe1  1  0.13073600  0.27110500  0.47152100  1
  Fe  Fe2  1  0.86926400  0.72889500  0.52847900  1
  Fe  Fe3  1  0.36926400  0.27110500  0.97152100  1
  O  O0  1  0.87920300  0.29354200  0.60763500  1
  O  O1  1  0.13844500  0.18114700  0.88468300  1
  O  O2  1  0.39800900  0.81600200  0.11992000  1
  O  O3  1  0.35890000  0.26510100  0.60755000  1
  O  O4  1  0.89800900  0.18399800  0.38008000  1
  O  O5  1  0.85890000  0.73489900  0.89245000  1
  O  O6  1  0.62079700  0.29354200  0.10763500  1
  O  O7  1  0.36155500  0.18114700  0.38468300  1
  O  O8  1  0.63844500  0.81885300  0.61531700  1
  O  O9  1  0.37920300  0.70645800  0.89236500  1
  O  O10  1  0.14110000  0.26510100  0.10755000  1
  O  O11  1  0.10199100  0.81600200  0.61992000  1
  O  O12  1  0.64110000  0.73489900  0.39245000  1
  O  O13  1  0.60199100  0.18399800  0.88008000  1
  O  O14  1  0.86155500  0.81885300  0.11531700  1
  O  O15  1  0.12079700  0.70645800  0.39236500  1
loop_
_geom_bond_atom_site_label_1
_geom_bond_atom_site_label_2
_geom_bond_distance
_geom_bond_site_symmetry_2
Mg0 O14 2.001346 1_455
Mg0 O2 2.024751 1_555
Mg0 O10 2.046753 1_555
Mg0 O9 2.191909 1_554
Mg0 O1 2.231202 1_564
Mg0 O5 2.232173 1_454
Mg1 O7 2.001346 1_555
Mg1 O4 2.024751 1_555
Mg1 O12 2.046753 1_555
Mg1 O0 2.191909 1_555
Mg1 O8 2.231202 1_545
Mg1 O3 2.232173 1_555
Mg2 O8 2.038522 1_555
Mg2 O5 2.115868 1_555
Mg2 O13 2.117479 1_565
Mg2 O9 2.128099 1_555
Mg2 O3 2.138674 1_565
Mg2 O0 2.224116 1_565
Mg3 O1 2.038522 1_555
Mg3 O3 2.115868 1_555
Mg3 O11 2.117479 1_545
Mg3 O0 2.128099 1_455
Mg3 O5 2.138674 1_445
Mg3 O9 2.224116 1_545
Mg4 O14 2.038522 1_555
Mg4 O12 2.115868 1_555
Mg4 O4 2.117479 1_565
Mg4 O15 2.128099 1_655
Mg4 O10 2.138674 1_665
Mg4 O6 2.224116 1_565
Mg5 O7 2.038522 1_555
Mg5 O10 2.115868 1_555
Mg5 O2 2.117479 1_545
Mg5 O6 2.128099 1_555
Mg5 O12 2.138674 1_545
Mg5 O15 2.224116 1_545
Mg6 O8 2.001346 1_555
Mg6 O11 2.024751 1_555
Mg6 O3 2.046753 1_555
Mg6 O15 2.191909 1_555
Mg6 O7 2.231202 1_565
Mg6 O12 2.232173 1_555
Mg7 O1 2.001346 1_655
Mg7 O13 2.024751 1_555
Mg7 O5 2.046753 1_555
Mg7 O6 2.191909 1_556
Mg7 O14 2.231202 1_546
Mg7 O10 2.232173 1_656
Fe0 O14 1.847851 1_555
Fe0 O2 1.881492 1_555
Fe0 O6 1.995968 1_555
Fe0 O5 2.007725 1_554
Fe0 O13 2.152689 1_564
Fe0 O9 2.155197 1_554
Fe1 O7 1.847851 1_555
Fe1 O4 1.881492 1_455
Fe1 O15 1.995968 1_555
Fe1 O3 2.007725 1_555
Fe1 O11 2.152689 1_545
Fe1 O0 2.155197 1_455
Fe2 O8 1.847851 1_555
Fe2 O11 1.881492 1_655
Fe2 O0 1.995968 1_555
Fe2 O12 2.007725 1_555
Fe2 O4 2.152689 1_565
Fe2 O15 2.155197 1_655
Fe3 O1 1.847851 1_555
Fe3 O13 1.881492 1_555
Fe3 O9 1.995968 1_555
Fe3 O10 2.007725 1_556
Fe3 O2 2.152689 1_546
Fe3 O6 2.155197 1_556
