# generated using pymatgen
data_LiNiPO4
_symmetry_space_group_name_H-M   'P 1'
_cell_length_a   4.83326000
_cell_length_b   6.39743800
_cell_length_c   9.86315100
_cell_angle_alpha   90.00000000
_cell_angle_beta   90.00000000
_cell_angle_gamma   90.00000000
_symmetry_Int_Tables_number   1
_chemical_formula_structural   LiNiPO4
_chemical_formula_sum   'Li4 Ni4 P4 O16'
_cell_volume   304.97337495
_cell_formula_units_Z   4
loop_
 _symmetry_equiv_pos_site_id
 _symmetry_equiv_pos_as_xyz
  1  'x, y, z'
loop_
 _atom_site_type_symbol
 _atom_site_label
 _atom_site_symmetry_multiplicity
 _atom_site_fract_x
 _atom_site_fract_y
 _atom_site_fract_z
 _atom_site_occupancy
  Li  Li0  1  0.43085000  0.77228900  0.16914900  1
  Li  Li1  1  0.56915000  0.27228900  0.33085100  1
  Li  Li2  1  0.06915000  0.22771100  0.66914900  1
  Li  Li3  1  0.93085000  0.72771100  0.83085100  1
  Ni  Ni0  1  0.98225000  0.04224600  0.02143900  1
  Ni  Ni1  1  0.01775000  0.54224600  0.47856100  1
  Ni  Ni2  1  0.51775000  0.95775400  0.52143900  1
  Ni  Ni3  1  0.48225000  0.45775400  0.97856100  1
  P  P0  1  0.91299900  0.49807700  0.15412500  1
  P  P1  1  0.08700100  0.99807700  0.34587500  1
  P  P2  1  0.58700100  0.50192300  0.65412500  1
  P  P3  1  0.41299900  0.00192300  0.84587500  1
  O  O0  1  0.76571300  0.67941600  0.07578900  1
  O  O1  1  0.78131800  0.29748500  0.08792800  1
  O  O2  1  0.22993900  0.50468300  0.14189100  1
  O  O3  1  0.17990700  0.00039600  0.19610500  1
  O  O4  1  0.82009300  0.50039600  0.30389500  1
  O  O5  1  0.77006100  0.00468300  0.35810900  1
  O  O6  1  0.21868200  0.79748500  0.41207200  1
  O  O7  1  0.23428700  0.17941600  0.42421100  1
  O  O8  1  0.73428700  0.32058400  0.57578900  1
  O  O9  1  0.71868200  0.70251500  0.58792800  1
  O  O10  1  0.27006100  0.49531700  0.64189100  1
  O  O11  1  0.32009300  0.99960400  0.69610500  1
  O  O12  1  0.67990700  0.49960400  0.80389500  1
  O  O13  1  0.72993900  0.99531700  0.85810900  1
  O  O14  1  0.28131800  0.20251500  0.91207200  1
  O  O15  1  0.26571300  0.82058400  0.92421100  1
loop_
_geom_bond_atom_site_label_1
_geom_bond_atom_site_label_2
_geom_bond_distance
_geom_bond_site_symmetry_2
Li0 O3 1.916065 1_565
Li0 O0 1.954586 1_555
Li0 O2 1.986491 1_555
Li1 O4 1.916065 1_555
Li1 O7 1.954586 1_555
Li1 O5 1.986491 1_555
Li2 O11 1.916065 1_545
Li2 O8 1.954586 1_455
Li2 O10 1.986491 1_555
Li3 O12 1.916065 1_555
Li3 O15 1.954586 1_655
Li3 O13 1.986491 1_555
Ni0 O3 1.988020 1_655
Ni0 O1 2.009848 1_555
Ni0 O13 2.042653 1_544
Ni0 O14 2.074670 1_654
Ni0 O15 2.192622 1_644
Ni1 O4 1.988020 1_455
Ni1 O6 2.009848 1_555
Ni1 O10 2.042653 1_555
Ni1 O9 2.074670 1_455
Ni1 O8 2.192622 1_455
Ni2 O11 1.988020 1_555
Ni2 O9 2.009848 1_555
Ni2 O5 2.042653 1_565
Ni2 O6 2.074670 1_555
Ni2 O7 2.192622 1_565
Ni3 O12 1.988020 1_555
Ni3 O14 2.009848 1_555
Ni3 O2 2.042653 1_556
Ni3 O1 2.074670 1_556
Ni3 O0 2.192622 1_556
O0 P0 1.565112 1_555
O1 P0 1.574215 1_555
O2 P0 1.537180 1_455
O3 P1 1.544017 1_545
O4 P0 1.544017 1_555
O5 P1 1.537180 1_645
O6 P1 1.574215 1_555
O7 P1 1.565112 1_545
O8 P2 1.565112 1_555
O9 P2 1.574215 1_555
O10 P2 1.537180 1_555
O11 P3 1.544017 1_565
O12 P2 1.544017 1_555
O13 P3 1.537180 1_565
O14 P3 1.574215 1_555
O15 P3 1.565112 1_565
