# generated using pymatgen
data_LiMn(PO3)4
_symmetry_space_group_name_H-M   'P 1'
_cell_length_a   7.42834707
_cell_length_b   7.42834707
_cell_length_c   18.11383600
_cell_angle_alpha   90.00000000
_cell_angle_beta   90.00000000
_cell_angle_gamma   99.79150689
_symmetry_Int_Tables_number   1
_chemical_formula_structural   LiMn(PO3)4
_chemical_formula_sum   'Li4 Mn4 P16 O48'
_cell_volume   984.96763128
_cell_formula_units_Z   4
loop_
 _symmetry_equiv_pos_site_id
 _symmetry_equiv_pos_as_xyz
  1  'x, y, z'
loop_
 _atom_site_type_symbol
 _atom_site_label
 _atom_site_symmetry_multiplicity
 _atom_site_fract_x
 _atom_site_fract_y
 _atom_site_fract_z
 _atom_site_occupancy
  Li  Li0  1  0.20447800  0.09897400  0.64454400  1
  Li  Li1  1  0.90102600  0.79552200  0.85545600  1
  Li  Li2  1  0.79552200  0.90102600  0.14454400  1
  Li  Li3  1  0.09897400  0.20447800  0.35545600  1
  Mn  Mn0  1  0.57676700  0.96549100  0.88395400  1
  Mn  Mn1  1  0.03450900  0.42323300  0.61604600  1
  Mn  Mn2  1  0.42323300  0.03450900  0.38395400  1
  Mn  Mn3  1  0.96549100  0.57676700  0.11604600  1
  P  P0  1  0.04206700  0.76626900  0.34781200  1
  P  P1  1  0.23373100  0.95793300  0.15218800  1
  P  P2  1  0.29840300  0.78771300  0.00845500  1
  P  P3  1  0.21228700  0.70159700  0.49154500  1
  P  P4  1  0.37783500  0.62216500  0.75000000  1
  P  P5  1  0.66022400  0.75974200  0.30885800  1
  P  P6  1  0.24025800  0.33977600  0.19114200  1
  P  P7  1  0.35571400  0.35571400  0.50000000  1
  P  P8  1  0.64428600  0.64428500  0.00000000  1
  P  P9  1  0.33977600  0.24025800  0.80885800  1
  P  P10  1  0.75974200  0.66022400  0.69114200  1
  P  P11  1  0.62216500  0.37783500  0.25000000  1
  P  P12  1  0.78771300  0.29840300  0.99154500  1
  P  P13  1  0.70159700  0.21228700  0.50845500  1
  P  P14  1  0.76626900  0.04206700  0.65218800  1
  P  P15  1  0.95793300  0.23373100  0.84781200  1
  O  O0  1  0.04261000  0.83928800  0.14427700  1
  O  O1  1  0.16071200  0.95739000  0.35572300  1
  O  O2  1  0.34840300  0.94601900  0.21664700  1
  O  O3  1  0.05398100  0.65159700  0.28335300  1
  O  O4  1  0.10869500  0.68360700  0.00979700  1
  O  O5  1  0.31639300  0.89130500  0.49020300  1
  O  O6  1  0.07627900  0.65560100  0.42349800  1
  O  O7  1  0.34439900  0.92372100  0.07650200  1
  O  O8  1  0.35172400  0.89234900  0.93807700  1
  O  O9  1  0.10765100  0.64827600  0.56192300  1
  O  O10  1  0.42037200  0.78950200  0.79678700  1
  O  O11  1  0.21049800  0.57962800  0.70321300  1
  O  O12  1  0.50341700  0.81407900  0.35368100  1
  O  O13  1  0.18592100  0.49658300  0.14631900  1
  O  O14  1  0.35583000  0.56156100  0.47793500  1
  O  O15  1  0.43843900  0.64417000  0.02206500  1
  O  O16  1  0.80428100  0.83628300  0.63594000  1
  O  O17  1  0.16371700  0.19571900  0.86406000  1
  O  O18  1  0.54223400  0.60873400  0.69094900  1
  O  O19  1  0.39126600  0.45776600  0.80905100  1
  O  O20  1  0.24013800  0.30925400  0.56897100  1
  O  O21  1  0.69074600  0.75986200  0.93102900  1
  O  O22  1  0.16318700  0.29482000  0.26508300  1
  O  O23  1  0.70518000  0.83681300  0.23491700  1
  O  O24  1  0.29482000  0.16318700  0.73491700  1
  O  O25  1  0.83681300  0.70518000  0.76508300  1
  O  O26  1  0.30925400  0.24013800  0.43102900  1
  O  O27  1  0.75986200  0.69074600  0.06897100  1
  O  O28  1  0.45776600  0.39126600  0.19094900  1
  O  O29  1  0.60873400  0.54223400  0.30905100  1
  O  O30  1  0.19571900  0.16371700  0.13594000  1
  O  O31  1  0.83628300  0.80428100  0.36406000  1
  O  O32  1  0.64417000  0.43843900  0.97793500  1
  O  O33  1  0.56156100  0.35583000  0.52206500  1
  O  O34  1  0.49658300  0.18592100  0.85368100  1
  O  O35  1  0.81407900  0.50341700  0.64631900  1
  O  O36  1  0.78950200  0.42037200  0.20321300  1
  O  O37  1  0.57962800  0.21049800  0.29678700  1
  O  O38  1  0.64827600  0.10765100  0.43807700  1
  O  O39  1  0.89234900  0.35172400  0.06192300  1
  O  O40  1  0.65560100  0.07627900  0.57650200  1
  O  O41  1  0.92372100  0.34439900  0.92349800  1
  O  O42  1  0.68360700  0.10869500  0.99020300  1
  O  O43  1  0.89130500  0.31639300  0.50979700  1
  O  O44  1  0.65159700  0.05398100  0.71664700  1
  O  O45  1  0.94601900  0.34840300  0.78335300  1
  O  O46  1  0.95739000  0.16071200  0.64427700  1
  O  O47  1  0.83928800  0.04261000  0.85572300  1
loop_
_geom_bond_atom_site_label_1
_geom_bond_atom_site_label_2
_geom_bond_distance
_geom_bond_site_symmetry_2
Li0 O24 1.802439 1_555
Li0 O46 1.966100 1_455
Li0 O20 2.059930 1_555
Li1 O25 1.802439 1_555
Li1 O47 1.966100 1_565
Li1 O21 2.059930 1_555
Li2 O23 1.802439 1_555
Li2 O0 1.966100 1_655
Li2 O27 2.059930 1_555
Li3 O22 1.802439 1_555
Li3 O1 1.966100 1_545
Li3 O26 2.059930 1_555
Mn0 O34 1.915303 1_565
Mn0 O8 1.934420 1_555
Mn0 O47 2.003144 1_565
Mn0 O21 2.053548 1_555
Mn0 O10 2.243919 1_555
Mn0 O42 2.275592 1_565
Mn1 O35 1.915303 1_455
Mn1 O9 1.934420 1_555
Mn1 O46 2.003144 1_455
Mn1 O20 2.053548 1_555
Mn1 O11 2.243919 1_555
Mn1 O43 2.275592 1_455
Mn2 O12 1.915303 1_545
Mn2 O38 1.934420 1_555
Mn2 O1 2.003144 1_545
Mn2 O26 2.053548 1_555
Mn2 O37 2.243919 1_555
Mn2 O5 2.275592 1_545
Mn3 O13 1.915303 1_655
Mn3 O39 1.934420 1_555
Mn3 O0 2.003144 1_655
Mn3 O27 2.053548 1_555
Mn3 O36 2.243919 1_555
Mn3 O4 2.275592 1_655
O0 P1 1.545086 1_555
O1 P0 1.545086 1_555
O2 P1 1.456834 1_555
O3 P0 1.456834 1_555
O4 P2 1.487905 1_555
O5 P3 1.487905 1_555
O6 P3 1.593534 1_555
O6 P0 1.640428 1_555
O7 P2 1.593534 1_555
O7 P1 1.640428 1_555
O8 P2 1.510456 1_556
O9 P3 1.510456 1_555
O10 P4 1.493196 1_555
O11 P4 1.493196 1_555
O12 P5 1.529327 1_555
O13 P6 1.529327 1_555
O14 P7 1.580334 1_555
O14 P3 1.630062 1_555
O15 P8 1.580335 1_555
O15 P2 1.630062 1_555
O16 P14 1.627847 1_565
O16 P10 1.634791 1_555
O17 P15 1.627847 1_455
O17 P9 1.634791 1_555
O18 P10 1.595832 1_555
O18 P4 1.639172 1_555
O19 P9 1.595832 1_555
O19 P4 1.639172 1_555
O20 P7 1.521920 1_555
O21 P8 1.521924 1_556
O22 P6 1.472458 1_555
O23 P5 1.472458 1_555
O24 P9 1.472458 1_555
O25 P10 1.472458 1_555
O26 P7 1.521920 1_555
O27 P8 1.521921 1_555
O28 P6 1.595832 1_555
O28 P11 1.639172 1_555
O29 P5 1.595832 1_555
O29 P11 1.639172 1_555
O30 P1 1.627847 1_545
O30 P6 1.634791 1_555
O31 P0 1.627847 1_655
O31 P5 1.634791 1_555
O32 P8 1.580326 1_556
O32 P12 1.630062 1_555
O33 P7 1.580334 1_555
O33 P13 1.630062 1_555
O34 P9 1.529327 1_555
O35 P10 1.529327 1_555
O36 P11 1.493196 1_555
O37 P11 1.493196 1_555
O38 P13 1.510456 1_555
O39 P12 1.510456 1_554
O40 P13 1.593534 1_555
O40 P14 1.640428 1_555
O41 P12 1.593534 1_555
O41 P15 1.640428 1_555
O42 P12 1.487905 1_555
O43 P13 1.487905 1_555
O44 P14 1.456834 1_555
O45 P15 1.456834 1_555
O46 P14 1.545086 1_555
O47 P15 1.545086 1_555
