# generated using pymatgen
data_Li2Cu(PO3)4
_symmetry_space_group_name_H-M   'P 1'
_cell_length_a   7.90803620
_cell_length_b   7.90803620
_cell_length_c   8.26614046
_cell_angle_alpha   84.36345391
_cell_angle_beta   84.36345391
_cell_angle_gamma   102.79481634
_symmetry_Int_Tables_number   1
_chemical_formula_structural   Li2Cu(PO3)4
_chemical_formula_sum   'Li4 Cu2 P8 O24'
_cell_volume   497.81857012
_cell_formula_units_Z   2
loop_
 _symmetry_equiv_pos_site_id
 _symmetry_equiv_pos_as_xyz
  1  'x, y, z'
loop_
 _atom_site_type_symbol
 _atom_site_label
 _atom_site_symmetry_multiplicity
 _atom_site_fract_x
 _atom_site_fract_y
 _atom_site_fract_z
 _atom_site_occupancy
  Li  Li0  1  0.45126900  0.82163000  0.94865600  1
  Li  Li1  1  0.82163000  0.45126900  0.44865600  1
  Li  Li2  1  0.16524700  0.52266000  0.54270200  1
  Li  Li3  1  0.52266000  0.16524700  0.04270200  1
  Cu  Cu0  1  0.81665000  0.10530500  0.74652400  1
  Cu  Cu1  1  0.10530500  0.81665000  0.24652400  1
  P  P0  1  0.92592400  0.75877500  0.68847600  1
  P  P1  1  0.75877500  0.92592400  0.18847600  1
  P  P2  1  0.81785600  0.44416500  0.92168100  1
  P  P3  1  0.44416500  0.81785600  0.42168100  1
  P  P4  1  0.49270200  0.14776800  0.58246900  1
  P  P5  1  0.14776800  0.49270200  0.08246900  1
  P  P6  1  0.17669700  0.02966000  0.81954400  1
  P  P7  1  0.02966000  0.17669700  0.31954400  1
  O  O0  1  0.83180600  0.89826400  0.64153500  1
  O  O1  1  0.96727800  0.64526000  0.56071200  1
  O  O2  1  0.89826400  0.83180600  0.14153500  1
  O  O3  1  0.64526000  0.96727800  0.06071200  1
  O  O4  1  0.81224500  0.64097100  0.85008600  1
  O  O5  1  0.64097100  0.81224500  0.35008600  1
  O  O6  1  0.28653600  0.00102000  0.95399100  1
  O  O7  1  0.78993000  0.33684300  0.78050800  1
  O  O8  1  0.00102000  0.28653600  0.45399100  1
  O  O9  1  0.38592600  0.69495400  0.57588800  1
  O  O10  1  0.33684300  0.78993000  0.28050800  1
  O  O11  1  0.69495400  0.38592600  0.07588800  1
  O  O12  1  0.10746000  0.84274400  0.75509400  1
  O  O13  1  0.32667900  0.57656500  0.00035600  1
  O  O14  1  0.84274400  0.10746000  0.25509400  1
  O  O15  1  0.57656500  0.32667900  0.50035600  1
  O  O16  1  0.56983700  0.05652900  0.71793500  1
  O  O17  1  0.02177300  0.46476200  0.94119300  1
  O  O18  1  0.05652900  0.56983700  0.21793500  1
  O  O19  1  0.46476200  0.02177300  0.44119300  1
  O  O20  1  0.29519400  0.14519800  0.65859000  1
  O  O21  1  0.14519800  0.29519400  0.15859000  1
  O  O22  1  0.02780600  0.11677700  0.85344600  1
  O  O23  1  0.11677700  0.02780600  0.35344600  1
loop_
_geom_bond_atom_site_label_1
_geom_bond_atom_site_label_2
_geom_bond_distance
_geom_bond_site_symmetry_2
Li0 O13 1.953978 1_556
Li0 O3 2.060123 1_556
Li0 O6 2.128626 1_565
Li0 O16 2.479610 1_565
Li1 O15 1.953978 1_555
Li1 O1 2.060123 1_555
Li1 O8 2.128626 1_655
Li1 O18 2.479610 1_655
Li2 O1 2.016910 1_455
Li2 O9 2.022741 1_555
Li2 O8 2.256777 1_555
Li3 O3 2.016910 1_545
Li3 O11 2.022741 1_555
Li3 O6 2.256777 1_554
Cu0 O7 1.933108 1_555
Cu0 O16 1.946595 1_555
Cu0 O0 1.947781 1_545
Cu0 O22 1.953531 1_655
Cu1 O10 1.933108 1_555
Cu1 O18 1.946595 1_555
Cu1 O2 1.947781 1_455
Cu1 O23 1.953531 1_565
O0 P0 1.502536 1_555
O1 P0 1.508831 1_555
O2 P1 1.502536 1_555
O3 P1 1.508831 1_555
O4 P0 1.615342 1_555
O4 P2 1.621496 1_555
O5 P1 1.615342 1_555
O5 P3 1.621496 1_555
O6 P6 1.506059 1_555
O7 P2 1.514271 1_555
O8 P7 1.506059 1_555
O9 P3 1.491521 1_555
O10 P3 1.514271 1_555
O11 P2 1.491521 1_554
O12 P0 1.615549 1_455
O12 P6 1.619268 1_565
O13 P5 1.486482 1_555
O14 P1 1.615549 1_545
O14 P7 1.619268 1_655
O15 P4 1.486482 1_555
O16 P4 1.522166 1_555
O17 P5 1.608445 1_556
O17 P2 1.610243 1_455
O18 P5 1.522166 1_555
O19 P4 1.608445 1_555
O19 P3 1.610243 1_545
O20 P6 1.618688 1_555
O20 P4 1.620570 1_555
O21 P7 1.618688 1_555
O21 P5 1.620570 1_555
O22 P6 1.507280 1_555
O23 P7 1.507280 1_555
