# generated using pymatgen
data_BaTi14O28
_symmetry_space_group_name_H-M   'P 1'
_cell_length_a   8.48568500
_cell_length_b   10.43621177
_cell_length_c   13.51711835
_cell_angle_alpha   96.19053384
_cell_angle_beta   95.17713863
_cell_angle_gamma   111.25803430
_symmetry_Int_Tables_number   1
_chemical_formula_structural   BaTi14O28
_chemical_formula_sum   'Ba2 Ti28 O56'
_cell_volume   1098.23933261
_cell_formula_units_Z   2
loop_
 _symmetry_equiv_pos_site_id
 _symmetry_equiv_pos_as_xyz
  1  'x, y, z'
loop_
 _atom_site_type_symbol
 _atom_site_label
 _atom_site_symmetry_multiplicity
 _atom_site_fract_x
 _atom_site_fract_y
 _atom_site_fract_z
 _atom_site_occupancy
  Ba  Ba0  1  0.21464300  0.28559500  0.21382200  1
  Ba  Ba1  1  0.78535700  0.71440500  0.78617800  1
  Ti  Ti0  1  0.47045900  0.73416800  0.28912000  1
  Ti  Ti1  1  0.61635900  0.59570000  0.43409200  1
  Ti  Ti2  1  0.50934700  0.64903500  0.03201300  1
  Ti  Ti3  1  0.37118700  0.79290600  0.88780900  1
  Ti  Ti4  1  0.05263800  0.78253400  0.53718900  1
  Ti  Ti5  1  0.32796500  0.48976600  0.82326300  1
  Ti  Ti6  1  0.49065300  0.35096500  0.96798700  1
  Ti  Ti7  1  0.19669900  0.63859900  0.68042100  1
  Ti  Ti8  1  0.62881300  0.20709400  0.11219100  1
  Ti  Ti9  1  0.23785700  0.55991800  0.42534300  1
  Ti  Ti10  1  0.38364100  0.40430000  0.56590800  1
  Ti  Ti11  1  0.95320400  0.84038500  0.13473000  1
  Ti  Ti12  1  0.09644000  0.69735900  0.27691200  1
  Ti  Ti13  1  0.52954100  0.26583200  0.71088000  1
  Ti  Ti14  1  0.76214300  0.44008200  0.57465700  1
  Ti  Ti15  1  0.90356000  0.30264100  0.72308800  1
  Ti  Ti16  1  0.04679600  0.15961500  0.86527000  1
  Ti  Ti17  1  0.32594600  0.87897400  0.14668200  1
  Ti  Ti18  1  0.18655200  0.01686100  0.99742500  1
  Ti  Ti19  1  0.67203500  0.51023400  0.17673700  1
  Ti  Ti20  1  0.94736200  0.21746600  0.46281100  1
  Ti  Ti21  1  0.80330100  0.36140100  0.31957900  1
  Ti  Ti22  1  0.08244300  0.07777500  0.60309300  1
  Ti  Ti23  1  0.24138700  0.94124400  0.74213100  1
  Ti  Ti24  1  0.91755700  0.92222500  0.39690700  1
  Ti  Ti25  1  0.75861300  0.05875600  0.25786900  1
  Ti  Ti26  1  0.81344800  0.98313900  0.00257500  1
  Ti  Ti27  1  0.67405400  0.12102600  0.85331800  1
  O  O0  1  0.60069800  0.82092800  0.96322000  1
  O  O1  1  0.61851200  0.56653700  0.57476700  1
  O  O2  1  0.33083000  0.84646000  0.28740500  1
  O  O3  1  0.47338000  0.70522700  0.43021500  1
  O  O4  1  0.44588200  0.74356300  0.14085300  1
  O  O5  1  0.58359100  0.59471400  0.28329500  1
  O  O6  1  0.26319400  0.81687700  0.62793400  1
  O  O7  1  0.41116000  0.67533600  0.77045500  1
  O  O8  1  0.55300300  0.53234500  0.91175000  1
  O  O9  1  0.58884000  0.32466400  0.22954500  1
  O  O10  1  0.15738600  0.75704700  0.79760800  1
  O  O11  1  0.30353800  0.61459300  0.93950600  1
  O  O12  1  0.44699700  0.46765500  0.08825000  1
  O  O13  1  0.97980500  0.83231800  0.28320500  1
  O  O14  1  0.12290800  0.69052700  0.42645000  1
  O  O15  1  0.26591300  0.54824100  0.56938200  1
  O  O16  1  0.38148800  0.43346300  0.42523300  1
  O  O17  1  0.09454900  0.72759100  0.13626800  1
  O  O18  1  0.23649300  0.57793600  0.27849100  1
  O  O19  1  0.52662000  0.29477300  0.56978500  1
  O  O20  1  0.41640900  0.40528600  0.71670500  1
  O  O21  1  0.55411800  0.25643700  0.85914700  1
  O  O22  1  0.96570300  0.61129800  0.60549600  1
  O  O23  1  0.82672500  0.75208600  0.45803900  1
  O  O24  1  0.25624400  0.32297700  0.88908600  1
  O  O25  1  0.53894400  0.03963300  0.17390500  1
  O  O26  1  0.11073500  0.46808800  0.74586100  1
  O  O27  1  0.39930200  0.17907200  0.03678000  1
  O  O28  1  0.03429700  0.38870200  0.39450400  1
  O  O29  1  0.74375600  0.67702300  0.11091400  1
  O  O30  1  0.88926500  0.53191200  0.25413900  1
  O  O31  1  0.17327500  0.24791400  0.54196100  1
  O  O32  1  0.31161700  0.10959900  0.67908400  1
  O  O33  1  0.46105600  0.96036700  0.82609500  1
  O  O34  1  0.73408700  0.45175900  0.43061800  1
  O  O35  1  0.87709200  0.30947300  0.57355000  1
  O  O36  1  0.76350700  0.42206400  0.72150900  1
  O  O37  1  0.04648800  0.13680600  0.00629700  1
  O  O38  1  0.90545100  0.27240900  0.86373200  1
  O  O39  1  0.18707500  0.99657200  0.14573500  1
  O  O40  1  0.30283500  0.88327900  0.99921900  1
  O  O41  1  0.15357200  0.02255000  0.85339100  1
  O  O42  1  0.02019500  0.16768200  0.71679500  1
  O  O43  1  0.84261400  0.24295300  0.20239200  1
  O  O44  1  0.98248300  0.10475800  0.33967500  1
  O  O45  1  0.69646200  0.38540700  0.06049400  1
  O  O46  1  0.11883500  0.95793300  0.48585200  1
  O  O47  1  0.88116500  0.04206700  0.51414800  1
  O  O48  1  0.73680600  0.18312300  0.37206600  1
  O  O49  1  0.01751700  0.89524200  0.66032500  1
  O  O50  1  0.69716500  0.11672100  0.00078100  1
  O  O51  1  0.84642800  0.97745000  0.14660900  1
  O  O52  1  0.95351200  0.86319400  0.99370300  1
  O  O53  1  0.81292500  0.00342800  0.85426500  1
  O  O54  1  0.66917000  0.15354000  0.71259500  1
  O  O55  1  0.68838300  0.89040100  0.32091600  1
loop_
_geom_bond_atom_site_label_1
_geom_bond_atom_site_label_2
_geom_bond_distance
_geom_bond_site_symmetry_2
Ba0 O39 2.974999 1_545
Ba0 O44 2.989642 1_455
Ba0 O12 2.993602 1_555
Ba0 O37 3.007920 1_555
Ba0 O43 3.011058 1_455
Ba0 O18 3.015304 1_555
Ba0 O9 3.035582 1_555
Ba0 O16 3.047393 1_555
Ba0 O28 3.281243 1_555
Ba0 O27 3.283945 1_555
Ba1 O53 2.974999 1_565
Ba1 O49 2.989642 1_655
Ba1 O8 2.993602 1_555
Ba1 O52 3.007920 1_555
Ba1 O10 3.011058 1_655
Ba1 O36 3.015304 1_555
Ba1 O7 3.035582 1_555
Ba1 O1 3.047393 1_555
Ba1 O22 3.281243 1_555
Ba1 O0 3.283945 1_555
O0 Ti26 1.955585 1_556
O0 Ti3 2.020394 1_555
O0 Ti2 2.040877 1_556
O1 Ti1 1.957376 1_555
O1 Ti10 2.078341 1_555
O1 Ti14 2.096044 1_555
O2 Ti0 1.945645 1_555
O2 Ti17 1.967303 1_555
O2 Ti12 2.013608 1_555
O3 Ti1 1.946388 1_555
O3 Ti0 1.962237 1_555
O3 Ti9 2.013778 1_555
O4 Ti2 1.908639 1_555
O4 Ti0 2.012827 1_555
O4 Ti17 2.018033 1_555
O5 Ti19 1.953516 1_555
O5 Ti0 2.011957 1_555
O5 Ti1 2.030609 1_555
O6 Ti4 1.967403 1_555
O6 Ti7 1.969527 1_555
O6 Ti23 1.973627 1_555
O7 Ti7 1.983345 1_555
O7 Ti3 2.028790 1_555
O7 Ti5 2.038675 1_555
O8 Ti6 2.024254 1_555
O8 Ti5 2.032858 1_555
O8 Ti2 2.066819 1_556
O9 Ti21 1.983345 1_555
O9 Ti8 2.028790 1_555
O9 Ti19 2.038675 1_555
O10 Ti3 1.981966 1_555
O10 Ti7 2.029925 1_555
O10 Ti23 2.044379 1_555
O11 Ti2 1.948473 1_556
O11 Ti3 1.964449 1_555
O11 Ti5 2.005508 1_555
O12 Ti2 2.024254 1_555
O12 Ti19 2.032858 1_555
O12 Ti6 2.066819 1_554
O13 Ti24 1.927802 1_555
O13 Ti12 1.992674 1_655
O13 Ti11 2.013546 1_555
O14 Ti9 1.942154 1_555
O14 Ti4 1.945370 1_555
O14 Ti12 2.025349 1_555
O15 Ti7 1.934537 1_555
O15 Ti9 1.962362 1_555
O15 Ti10 2.082854 1_555
O16 Ti10 1.957376 1_555
O16 Ti1 2.078341 1_555
O16 Ti9 2.096044 1_555
O17 Ti12 1.959979 1_555
O17 Ti11 1.961953 1_455
O17 Ti17 2.005997 1_555
O18 Ti12 2.010325 1_555
O18 Ti9 2.013384 1_555
O18 Ti0 2.042404 1_555
O19 Ti10 1.946388 1_555
O19 Ti13 1.962237 1_555
O19 Ti14 2.013778 1_555
O20 Ti5 1.953516 1_555
O20 Ti13 2.011957 1_555
O20 Ti10 2.030609 1_555
O21 Ti6 1.908639 1_555
O21 Ti13 2.012827 1_555
O21 Ti27 2.018033 1_555
O22 Ti14 1.954887 1_555
O22 Ti4 2.028079 1_655
O22 Ti7 2.030671 1_655
O23 Ti1 1.903730 1_555
O23 Ti24 1.966890 1_555
O23 Ti4 2.008835 1_655
O24 Ti16 1.936548 1_555
O24 Ti5 1.963525 1_555
O24 Ti6 2.075579 1_555
O25 Ti17 1.939806 1_545
O25 Ti8 1.947959 1_555
O25 Ti25 2.025385 1_555
O26 Ti15 1.937332 1_455
O26 Ti5 1.960163 1_555
O26 Ti7 1.998948 1_555
O27 Ti18 1.955585 1_554
O27 Ti8 2.020394 1_555
O27 Ti6 2.040877 1_554
O28 Ti9 1.954887 1_555
O28 Ti20 2.028079 1_455
O28 Ti21 2.030671 1_455
O29 Ti11 1.936548 1_555
O29 Ti19 1.963525 1_555
O29 Ti2 2.075579 1_555
O30 Ti12 1.937332 1_655
O30 Ti19 1.960163 1_555
O30 Ti21 1.998948 1_555
O31 Ti10 1.903730 1_555
O31 Ti22 1.966890 1_555
O31 Ti20 2.008835 1_455
O32 Ti13 1.944709 1_555
O32 Ti23 1.955440 1_545
O32 Ti22 2.011176 1_555
O33 Ti27 1.939806 1_565
O33 Ti3 1.947959 1_555
O33 Ti23 2.025385 1_555
O34 Ti21 1.934537 1_555
O34 Ti14 1.962362 1_555
O34 Ti1 2.082854 1_555
O35 Ti14 1.942154 1_555
O35 Ti20 1.945370 1_555
O35 Ti15 2.025349 1_555
O36 Ti15 2.010325 1_555
O36 Ti14 2.013384 1_555
O36 Ti13 2.042404 1_555
O37 Ti16 1.946505 1_554
O37 Ti18 2.016465 1_554
O37 Ti26 2.037132 1_445
O38 Ti15 1.959979 1_555
O38 Ti16 1.961953 1_655
O38 Ti27 2.005997 1_555
O39 Ti17 1.986058 1_555
O39 Ti18 2.038233 1_564
O39 Ti11 2.041133 1_455
O40 Ti3 1.934374 1_555
O40 Ti18 1.979447 1_565
O40 Ti17 1.992180 1_556
O41 Ti16 1.951781 1_555
O41 Ti18 1.952180 1_555
O41 Ti23 1.980547 1_545
O42 Ti22 1.927802 1_555
O42 Ti15 1.992674 1_455
O42 Ti16 2.013546 1_555
O43 Ti8 1.981966 1_555
O43 Ti21 2.029925 1_555
O43 Ti25 2.044379 1_555
O44 Ti25 1.976645 1_555
O44 Ti20 2.040644 1_555
O44 Ti24 2.040726 1_545
O45 Ti6 1.948473 1_554
O45 Ti8 1.964449 1_555
O45 Ti19 2.005508 1_555
O46 Ti24 1.890182 1_455
O46 Ti4 1.935585 1_555
O46 Ti22 2.027805 1_565
O47 Ti22 1.890182 1_655
O47 Ti20 1.935585 1_555
O47 Ti24 2.027805 1_545
O48 Ti20 1.967403 1_555
O48 Ti21 1.969527 1_555
O48 Ti25 1.973627 1_555
O49 Ti23 1.976645 1_555
O49 Ti4 2.040644 1_555
O49 Ti22 2.040726 1_565
O50 Ti8 1.934374 1_555
O50 Ti26 1.979447 1_545
O50 Ti27 1.992180 1_554
O51 Ti11 1.951781 1_555
O51 Ti26 1.952180 1_555
O51 Ti25 1.980547 1_565
O52 Ti11 1.946505 1_556
O52 Ti26 2.016465 1_556
O52 Ti18 2.037132 1_665
O53 Ti27 1.986058 1_555
O53 Ti26 2.038233 1_546
O53 Ti16 2.041133 1_655
O54 Ti13 1.945645 1_555
O54 Ti27 1.967303 1_555
O54 Ti15 2.013608 1_555
O55 Ti0 1.944709 1_555
O55 Ti25 1.955440 1_565
O55 Ti24 2.011176 1_555
