# generated using pymatgen
data_LiV4OF11
_symmetry_space_group_name_H-M   'P 1'
_cell_length_a   5.26938800
_cell_length_b   5.52681849
_cell_length_c   17.31581562
_cell_angle_alpha   89.02990099
_cell_angle_beta   98.21559791
_cell_angle_gamma   117.88852661
_symmetry_Int_Tables_number   1
_chemical_formula_structural   LiV4OF11
_chemical_formula_sum   'Li2 V8 O2 F22'
_cell_volume   440.42648889
_cell_formula_units_Z   2
loop_
 _symmetry_equiv_pos_site_id
 _symmetry_equiv_pos_as_xyz
  1  'x, y, z'
loop_
 _atom_site_type_symbol
 _atom_site_label
 _atom_site_symmetry_multiplicity
 _atom_site_fract_x
 _atom_site_fract_y
 _atom_site_fract_z
 _atom_site_occupancy
  Li  Li0  1  0.61827000  0.29636400  0.94524400  1
  Li  Li1  1  0.19495200  0.67933800  0.69566300  1
  V  V0  1  0.99035900  0.01086400  0.00705300  1
  V  V1  1  0.75824600  0.36537100  0.12303700  1
  V  V2  1  0.99024800  0.49906100  0.49725900  1
  V  V3  1  0.51757800  0.24589900  0.74740800  1
  V  V4  1  0.50469300  0.74689600  0.24932800  1
  V  V5  1  0.24628300  0.12393600  0.37383800  1
  V  V6  1  0.74545600  0.88766100  0.62737300  1
  V  V7  1  0.25388000  0.62588000  0.87725300  1
  O  O0  1  0.82276300  0.21965700  0.03337900  1
  O  O1  1  0.65119800  0.02418700  0.70984900  1
  F  F0  1  0.73380000  0.05981300  0.18963200  1
  F  F1  1  0.76501100  0.18243600  0.55898800  1
  F  F2  1  0.75256800  0.66669300  0.05734900  1
  F  F3  1  0.68389500  0.53602500  0.21290500  1
  F  F4  1  0.67354100  0.33789200  0.40970300  1
  F  F5  1  0.80698400  0.40319900  0.84830700  1
  F  F6  1  0.82748900  0.91011600  0.33881500  1
  F  F7  1  0.81872900  0.71058800  0.53877300  1
  F  F8  1  0.32192800  0.15150200  0.08861400  1
  F  F9  1  0.77747100  0.58037200  0.68989000  1
  F  F10  1  0.27869900  0.44150100  0.31292400  1
  F  F11  1  0.67888700  0.84142800  0.90987800  1
  F  F12  1  0.18190400  0.09640400  0.66168600  1
  F  F13  1  0.17593600  0.29164400  0.46317900  1
  F  F14  1  0.18325200  0.59227300  0.16202600  1
  F  F15  1  0.31637700  0.47462300  0.78109200  1
  F  F16  1  0.30198800  0.64443900  0.59422000  1
  F  F17  1  0.32395100  0.95885300  0.28721200  1
  F  F18  1  0.25689700  0.31563100  0.93380700  1
  F  F19  1  0.22428100  0.81609100  0.44052000  1
  F  F20  1  0.26096200  0.91972500  0.80996900  1
  F  F21  1  0.18362600  0.79673500  0.96206300  1
loop_
_geom_bond_atom_site_label_1
_geom_bond_atom_site_label_2
_geom_bond_distance
_geom_bond_site_symmetry_2
Li0 O0 1.898785 1_556
Li1 O1 2.243489 1_565
O0 V0 1.845423 1_555
O0 V1 1.903604 1_555
O1 V3 1.839897 1_555
O1 V6 1.856191 1_545
F0 V4 1.964642 1_545
F0 V1 1.992804 1_555
F1 V6 1.969644 1_545
F1 V2 1.992403 1_555
F2 V0 1.993201 1_565
F2 V1 2.010177 1_555
F3 V4 1.967828 1_555
F3 V1 2.008548 1_555
F4 V2 1.951675 1_555
F4 V5 1.996857 1_555
F5 Li0 2.012259 1_555
F5 V3 2.045389 1_555
F5 V7 2.069684 1_655
F6 V5 1.958656 1_665
F6 V4 1.991647 1_555
F7 V2 1.975582 1_555
F7 V6 2.008524 1_555
F8 V0 1.926874 1_455
F8 V1 2.031823 1_555
F9 Li1 1.990462 1_655
F9 V6 2.058700 1_555
F9 V3 2.060051 1_555
F10 V4 1.977669 1_555
F10 V5 1.982557 1_555
F11 V7 1.979683 1_555
F11 V0 2.056279 1_566
F12 V3 1.984583 1_555
F12 V6 2.030689 1_445
F12 Li1 2.398937 1_545
F13 V2 1.963930 1_455
F13 V5 1.980822 1_555
F14 V4 1.960187 1_555
F14 V1 2.003274 1_455
F15 V7 2.010292 1_555
F15 Li1 2.056165 1_555
F15 V3 2.125491 1_555
F16 Li1 1.958887 1_555
F16 V2 2.045873 1_455
F16 V6 2.073957 1_555
F17 V5 1.954751 1_565
F17 V4 1.989470 1_555
F18 Li0 1.938503 1_555
F18 V7 1.965603 1_555
F18 V0 2.154534 1_456
F19 V2 1.955178 1_455
F19 V5 2.007148 1_565
F20 V7 1.971782 1_555
F20 V3 2.079385 1_565
F20 Li1 2.294275 1_555
F21 V7 1.927362 1_555
F21 V0 2.104769 1_466
