# generated using pymatgen
data_FeCo9O20
_symmetry_space_group_name_H-M   'P 1'
_cell_length_a   4.92288800
_cell_length_b   7.52758219
_cell_length_c   9.79259143
_cell_angle_alpha   80.39040598
_cell_angle_beta   85.71568962
_cell_angle_gamma   71.14885933
_symmetry_Int_Tables_number   1
_chemical_formula_structural   FeCo9O20
_chemical_formula_sum   'Fe1 Co9 O20'
_cell_volume   338.52076069
_cell_formula_units_Z   1
loop_
 _symmetry_equiv_pos_site_id
 _symmetry_equiv_pos_as_xyz
  1  'x, y, z'
loop_
 _atom_site_type_symbol
 _atom_site_label
 _atom_site_symmetry_multiplicity
 _atom_site_fract_x
 _atom_site_fract_y
 _atom_site_fract_z
 _atom_site_occupancy
  Fe  Fe0  1  0.50000000  0.50000000  0.50000000  1
  Co  Co0  1  0.89854100  0.70444700  0.50170300  1
  Co  Co1  1  0.60012200  0.79994200  0.00001500  1
  Co  Co2  1  0.29750300  0.90188200  0.50142700  1
  Co  Co3  1  0.00000000  0.00000000  0.00000000  1
  Co  Co4  1  0.39987800  0.20005800  0.99998500  1
  Co  Co5  1  0.70249700  0.09811800  0.49857300  1
  Co  Co6  1  0.10145900  0.29555300  0.49829700  1
  Co  Co7  1  0.79991300  0.39997400  0.00015900  1
  Co  Co8  1  0.20008700  0.60002600  0.99984100  1
  O  O0  1  0.20954500  0.69408400  0.60259500  1
  O  O1  1  0.92970900  0.77964200  0.09623800  1
  O  O2  1  0.27092600  0.82024700  0.90370800  1
  O  O3  1  0.57093000  0.72784300  0.40211300  1
  O  O4  1  0.32937300  0.97970100  0.09627400  1
  O  O5  1  0.96951400  0.92077600  0.40323600  1
  O  O6  1  0.62839700  0.88171900  0.59745100  1
  O  O7  1  0.67062700  0.02029900  0.90372600  1
  O  O8  1  0.37160300  0.11828100  0.40254900  1
  O  O9  1  0.72907400  0.17975300  0.09629200  1
  O  O10  1  0.03048600  0.07922400  0.59676400  1
  O  O11  1  0.07029100  0.22035800  0.90376200  1
  O  O12  1  0.42907000  0.27215700  0.59788700  1
  O  O13  1  0.12951000  0.37993000  0.09634400  1
  O  O14  1  0.47054900  0.42030100  0.90352700  1
  O  O15  1  0.79045500  0.30591600  0.39740500  1
  O  O16  1  0.52945100  0.57969900  0.09647300  1
  O  O17  1  0.83284100  0.47780000  0.59744100  1
  O  O18  1  0.87049000  0.62007000  0.90365600  1
  O  O19  1  0.16715900  0.52220000  0.40255900  1
loop_
_geom_bond_atom_site_label_1
_geom_bond_atom_site_label_2
_geom_bond_distance
_geom_bond_site_symmetry_2
Fe0 O17 1.904377 1_555
Fe0 O19 1.904377 1_555
Fe0 O12 1.941772 1_555
Fe0 O3 1.941772 1_555
Fe0 O0 2.028257 1_555
Fe0 O15 2.028257 1_555
Co0 O0 1.857253 1_655
Co0 O5 1.869957 1_555
Co0 O6 1.874314 1_555
Co0 O3 1.891382 1_555
Co0 O19 1.911507 1_655
Co0 O17 1.916145 1_555
Co1 O2 1.886605 1_554
Co1 O7 1.887325 1_564
Co1 O16 1.887506 1_555
Co1 O1 1.887838 1_555
Co1 O4 1.889106 1_555
Co1 O18 1.889329 1_554
Co2 O0 1.863322 1_555
Co2 O10 1.865574 1_565
Co2 O8 1.878499 1_565
Co2 O3 1.887921 1_555
Co2 O6 1.892663 1_555
Co2 O5 1.894679 1_455
Co3 O1 1.886709 1_445
Co3 O11 1.886709 1_554
Co3 O4 1.887198 1_545
Co3 O7 1.887198 1_454
Co3 O9 1.889644 1_455
Co3 O2 1.889644 1_544
Co4 O9 1.886605 1_556
Co4 O4 1.887325 1_546
Co4 O14 1.887506 1_555
Co4 O11 1.887838 1_555
Co4 O7 1.889106 1_555
Co4 O13 1.889329 1_556
Co5 O15 1.863322 1_555
Co5 O5 1.865574 1_545
Co5 O6 1.878499 1_545
Co5 O12 1.887921 1_555
Co5 O8 1.892663 1_555
Co5 O10 1.894679 1_655
Co6 O15 1.857253 1_455
Co6 O10 1.869957 1_555
Co6 O8 1.874314 1_555
Co6 O12 1.891382 1_555
Co6 O17 1.911507 1_455
Co6 O19 1.916145 1_555
Co7 O18 1.886511 1_554
Co7 O9 1.886641 1_555
Co7 O13 1.888217 1_655
Co7 O11 1.888459 1_654
Co7 O16 1.888648 1_555
Co7 O14 1.889031 1_554
Co8 O13 1.886511 1_556
Co8 O2 1.886641 1_555
Co8 O18 1.888217 1_455
Co8 O1 1.888459 1_456
Co8 O14 1.888648 1_555
Co8 O16 1.889031 1_556
