# generated using pymatgen
data_Ba2CaP4(H3O8)2
_symmetry_space_group_name_H-M   'P 1'
_cell_length_a   10.18978023
_cell_length_b   5.49884072
_cell_length_c   12.34885898
_cell_angle_alpha   79.42394766
_cell_angle_beta   90.00000000
_cell_angle_gamma   90.00000000
_symmetry_Int_Tables_number   1
_chemical_formula_structural   Ba2CaP4(H3O8)2
_chemical_formula_sum   'Ba4 Ca2 P8 H12 O32'
_cell_volume   680.17657880
_cell_formula_units_Z   2
loop_
 _symmetry_equiv_pos_site_id
 _symmetry_equiv_pos_as_xyz
  1  'x, y, z'
loop_
 _atom_site_type_symbol
 _atom_site_label
 _atom_site_symmetry_multiplicity
 _atom_site_fract_x
 _atom_site_fract_y
 _atom_site_fract_z
 _atom_site_occupancy
  Ba  Ba0  1  0.65578444  0.85908309  0.82419044  1
  Ba  Ba1  1  0.84421556  0.85908309  0.32419044  1
  Ba  Ba2  1  0.15578444  0.14091691  0.67580956  1
  Ba  Ba3  1  0.34421556  0.14091691  0.17580956  1
  Ca  Ca0  1  0.50000000  0.00000000  0.50000000  1
  Ca  Ca1  1  -0.00000000  0.00000000  -0.00000000  1
  P  P0  1  0.30558110  0.76310315  0.94539712  1
  P  P1  1  0.19441890  0.76310315  0.44539712  1
  P  P2  1  0.99207200  0.58654935  0.79823391  1
  P  P3  1  0.50792800  0.58654935  0.29823391  1
  P  P4  1  0.49207200  0.41345065  0.70176609  1
  P  P5  1  0.00792800  0.41345065  0.20176609  1
  P  P6  1  0.80558110  0.23689685  0.55460288  1
  P  P7  1  0.69441890  0.23689685  0.05460288  1
  H  H0  1  0.03525276  0.70336535  0.56596067  1
  H  H1  1  0.32655465  0.61911073  0.75780104  1
  H  H2  1  0.18215049  0.43707876  0.93605501  1
  H  H3  1  0.68215049  0.56292124  0.56394499  1
  H  H4  1  0.46474724  0.70336535  0.06596067  1
  H  H5  1  0.82655465  0.38088927  0.74219896  1
  H  H6  1  0.17344535  0.61911073  0.25780104  1
  H  H7  1  0.53525276  0.29663465  0.93403933  1
  H  H8  1  0.31784951  0.43707876  0.43605501  1
  H  H9  1  0.81784951  0.56292124  0.06394499  1
  H  H10  1  0.67344535  0.38088927  0.24219896  1
  H  H11  1  0.96474724  0.29663465  0.43403933  1
  O  O0  1  0.30656248  0.83735087  0.82154404  1
  O  O1  1  0.99015523  0.81858348  0.84739266  1
  O  O2  1  0.45335341  0.75600449  0.98251528  1
  O  O3  1  0.27234764  0.92585563  0.50728787  1
  O  O4  1  0.19343752  0.83735087  0.32154404  1
  O  O5  1  0.50984477  0.81858348  0.34739266  1
  O  O6  1  0.04664659  0.75600449  0.48251528  1
  O  O7  1  0.22765236  0.92585563  0.00728787  1
  O  O8  1  0.05974327  0.62800591  0.68591785  1
  O  O9  1  0.55683252  0.63619288  0.62789559  1
  O  O10  1  0.26042052  0.48407885  0.97854888  1
  O  O11  1  0.84253731  0.52357048  0.78166271  1
  O  O12  1  0.34253731  0.47642952  0.71833729  1
  O  O13  1  0.76042052  0.51592115  0.52145112  1
  O  O14  1  0.05683252  0.36380712  0.87210441  1
  O  O15  1  0.55974327  0.37199409  0.81408215  1
  O  O16  1  0.44025673  0.62800591  0.18591785  1
  O  O17  1  0.94316748  0.63619288  0.12789559  1
  O  O18  1  0.23957948  0.48407885  0.47854888  1
  O  O19  1  0.65746269  0.52357048  0.28166271  1
  O  O20  1  0.15746269  0.47642952  0.21833729  1
  O  O21  1  0.73957948  0.51592115  0.02145112  1
  O  O22  1  0.44316748  0.36380712  0.37210441  1
  O  O23  1  0.94025673  0.37199409  0.31408215  1
  O  O24  1  0.77234764  0.07414437  0.99271213  1
  O  O25  1  0.95335341  0.24399551  0.51748472  1
  O  O26  1  0.49015523  0.18141652  0.65260734  1
  O  O27  1  0.80656248  0.16264913  0.67845596  1
  O  O28  1  0.72765236  0.07414437  0.49271213  1
  O  O29  1  0.54664659  0.24399551  0.01748472  1
  O  O30  1  0.00984477  0.18141652  0.15260734  1
  O  O31  1  0.69343752  0.16264913  0.17845596  1
loop_
_geom_bond_atom_site_label_1
_geom_bond_atom_site_label_2
_geom_bond_distance
_geom_bond_site_symmetry_2
Ba0 O27 2.698695 1_565
Ba0 O11 2.767044 1_555
Ba0 O2 2.826988 1_555
Ba0 O24 2.836096 1_565
Ba0 O15 2.875761 1_555
Ba0 O21 2.921695 1_556
Ba0 O15 2.966281 1_565
Ba0 O26 3.016782 1_565
Ba0 O9 3.079821 1_555
Ba1 O31 2.698695 1_565
Ba1 O19 2.767044 1_555
Ba1 O6 2.826988 1_655
Ba1 O28 2.836096 1_565
Ba1 O23 2.875761 1_555
Ba1 O13 2.921695 1_555
Ba1 O23 2.966281 1_565
Ba1 O30 3.016782 1_665
Ba1 O17 3.079821 1_555
Ba2 O0 2.698695 1_545
Ba2 O12 2.767044 1_555
Ba2 O25 2.826988 1_455
Ba2 O3 2.836096 1_545
Ba2 O8 2.875761 1_555
Ba2 O18 2.921695 1_555
Ba2 O8 2.966281 1_545
Ba2 O1 3.016782 1_445
Ba2 O14 3.079821 1_555
Ba3 O4 2.698695 1_545
Ba3 O20 2.767044 1_555
Ba3 O29 2.826988 1_555
Ba3 O7 2.836096 1_545
Ba3 O16 2.875761 1_555
Ba3 O10 2.921695 1_554
Ba3 O16 2.966281 1_545
Ba3 O5 3.016782 1_545
Ba3 O22 3.079821 1_555
Ca0 O5 2.290583 1_545
Ca0 O26 2.290583 1_555
Ca0 O3 2.354144 1_545
Ca0 O28 2.354144 1_555
Ca0 O22 2.381601 1_555
Ca0 O9 2.381601 1_545
Ca1 O1 2.290583 1_444
Ca1 O30 2.290583 1_555
Ca1 O7 2.354144 1_545
Ca1 O24 2.354144 1_454
Ca1 O14 2.381601 1_554
Ca1 O17 2.381601 1_445
H0 O6 1.024506 1_555
H0 O8 1.484255 1_555
H1 O12 1.009920 1_555
H1 O0 1.564619 1_555
H2 O10 1.013920 1_555
H2 O14 1.591672 1_555
H3 O13 1.013920 1_555
H3 O9 1.591672 1_555
H4 O2 1.024506 1_554
H4 O16 1.484255 1_555
H5 O11 1.009920 1_555
H5 O27 1.564619 1_555
H6 O20 1.009920 1_555
H6 O4 1.564619 1_555
H7 O29 1.024506 1_556
H7 O15 1.484255 1_555
H8 O18 1.013920 1_555
H8 O22 1.591672 1_555
H9 O21 1.013920 1_555
H9 O17 1.591672 1_555
H10 O19 1.009920 1_555
H10 O31 1.564619 1_555
H11 O25 1.024506 1_555
H11 O23 1.484255 1_555
O0 P0 1.508897 1_555
O1 P2 1.510360 1_555
O2 P0 1.572384 1_555
O3 P1 1.505556 1_555
O4 P1 1.508897 1_555
O5 P3 1.510360 1_555
O6 P1 1.572384 1_555
O7 P0 1.505556 1_554
O8 P2 1.528100 1_455
O9 P4 1.535465 1_555
O10 P0 1.582054 1_555
O11 P2 1.584159 1_555
O12 P4 1.584159 1_555
O13 P6 1.582054 1_555
O14 P2 1.535465 1_455
O15 P4 1.528100 1_555
O16 P3 1.528100 1_555
O17 P5 1.535465 1_655
O18 P1 1.582054 1_555
O19 P3 1.584159 1_555
O20 P5 1.584159 1_555
O21 P7 1.582054 1_555
O22 P3 1.535465 1_555
O23 P5 1.528100 1_655
O24 P7 1.505556 1_556
O25 P6 1.572384 1_555
O26 P4 1.510360 1_555
O27 P6 1.508897 1_555
O28 P6 1.505556 1_555
O29 P7 1.572384 1_555
O30 P5 1.510360 1_555
O31 P7 1.508897 1_555
