# generated using pymatgen
data_Zn3Ni7O10
_symmetry_space_group_name_H-M   'P 1'
_cell_length_a   3.00985800
_cell_length_b   3.00985800
_cell_length_c   24.56463550
_cell_angle_alpha   93.51237251
_cell_angle_beta   90.00000000
_cell_angle_gamma   120.00000000
_symmetry_Int_Tables_number   1
_chemical_formula_structural   Zn3Ni7O10
_chemical_formula_sum   'Zn3 Ni7 O10'
_cell_volume   192.23990916
_cell_formula_units_Z   1
loop_
 _symmetry_equiv_pos_site_id
 _symmetry_equiv_pos_as_xyz
  1  'x, y, z'
loop_
 _atom_site_type_symbol
 _atom_site_label
 _atom_site_symmetry_multiplicity
 _atom_site_fract_x
 _atom_site_fract_y
 _atom_site_fract_z
 _atom_site_occupancy
  Zn  Zn0  1  0.99994000  0.99988100  0.99982000  1
  Zn  Zn1  1  0.10000000  0.20000000  0.30000000  1
  Zn  Zn2  1  0.20006000  0.40011900  0.60018000  1
  Ni  Ni0  1  0.39976900  0.79953900  0.19930700  1
  Ni  Ni1  1  0.70019000  0.40038100  0.10057100  1
  Ni  Ni2  1  0.80023100  0.60046100  0.40069300  1
  Ni  Ni3  1  0.49981000  0.99961900  0.49942900  1
  Ni  Ni4  1  0.90037500  0.80075000  0.70112500  1
  Ni  Ni5  1  0.29962500  0.59925000  0.89887500  1
  Ni  Ni6  1  0.60000000  0.20000000  0.80000000  1
  O  O0  1  0.35047300  0.70094700  0.05142100  1
  O  O1  1  0.04998900  0.09997700  0.14996700  1
  O  O2  1  0.74950800  0.49901600  0.24852400  1
  O  O3  1  0.45049200  0.90098400  0.35147600  1
  O  O4  1  0.15001100  0.30002300  0.45003300  1
  O  O5  1  0.84952700  0.69905300  0.54857900  1
  O  O6  1  0.55058000  0.10115900  0.65173900  1
  O  O7  1  0.25019000  0.50038100  0.75057100  1
  O  O8  1  0.94981000  0.89961900  0.84942900  1
  O  O9  1  0.64942000  0.29884100  0.94826100  1
loop_
_geom_bond_atom_site_label_1
_geom_bond_atom_site_label_2
_geom_bond_distance
_geom_bond_site_symmetry_2
Ni0 O2 2.115207 1_565
Ni0 O2 2.115209 1_455
Ni0 O2 2.115211 1_555
Ni0 O1 2.116924 1_565
Ni0 O1 2.116929 1_665
Ni0 O1 2.116933 1_555
Ni1 O0 2.114273 1_655
Ni1 O0 2.114273 1_555
Ni1 O0 2.114275 1_545
Ni1 O1 2.117710 1_665
Ni1 O1 2.117712 1_555
Ni1 O1 2.117716 1_655
Ni2 O3 2.115207 1_545
Ni2 O3 2.115209 1_655
Ni2 O3 2.115211 1_555
Ni2 O4 2.116924 1_655
Ni2 O4 2.116929 1_555
Ni2 O4 2.116933 1_665
Ni3 O5 2.114273 1_555
Ni3 O5 2.114273 1_455
Ni3 O5 2.114275 1_565
Ni3 O4 2.117710 1_555
Ni3 O4 2.117712 1_665
Ni3 O4 2.117716 1_565
Ni4 O6 2.117571 1_565
Ni4 O6 2.117573 1_555
Ni4 O6 2.117573 1_665
Ni4 O7 2.118412 1_655
Ni4 O7 2.118414 1_665
Ni4 O7 2.118414 1_555
Ni5 O9 2.117571 1_555
Ni5 O9 2.117573 1_565
Ni5 O9 2.117573 1_455
Ni5 O8 2.118412 1_455
Ni5 O8 2.118414 1_445
Ni5 O8 2.118414 1_555
Ni6 O8 2.118174 1_555
Ni6 O7 2.118174 1_545
Ni6 O8 2.118174 1_445
Ni6 O7 2.118174 1_655
Ni6 O8 2.118176 1_545
Ni6 O7 2.118176 1_555
O0 Zn0 2.149047 1_444
O0 Zn0 2.149051 1_454
O0 Zn0 2.149051 1_554
O2 Zn1 2.147249 1_665
O2 Zn1 2.147249 1_655
O2 Zn1 2.147249 1_555
O3 Zn1 2.147249 1_555
O3 Zn1 2.147249 1_565
O3 Zn1 2.147249 1_665
O5 Zn2 2.149047 1_665
O5 Zn2 2.149051 1_555
O5 Zn2 2.149051 1_655
O6 Zn2 2.148444 1_555
O6 Zn2 2.148444 1_655
O6 Zn2 2.148446 1_545
O9 Zn0 2.148444 1_545
O9 Zn0 2.148444 1_445
O9 Zn0 2.148446 1_555
