# generated using pymatgen
data_Rb8Fe2O7
_symmetry_space_group_name_H-M   'P 1'
_cell_length_a   12.86462100
_cell_length_b   10.19477000
_cell_length_c   11.97813492
_cell_angle_alpha   72.36029788
_cell_angle_beta   90.00000000
_cell_angle_gamma   90.00000000
_symmetry_Int_Tables_number   1
_chemical_formula_structural   Rb8Fe2O7
_chemical_formula_sum   'Rb32 Fe8 O28'
_cell_volume   1497.08973721
_cell_formula_units_Z   4
loop_
 _symmetry_equiv_pos_site_id
 _symmetry_equiv_pos_as_xyz
  1  'x, y, z'
loop_
 _atom_site_type_symbol
 _atom_site_label
 _atom_site_symmetry_multiplicity
 _atom_site_fract_x
 _atom_site_fract_y
 _atom_site_fract_z
 _atom_site_occupancy
  Rb  Rb0  1  0.52100300  0.88363900  0.92301200  1
  Rb  Rb1  1  0.53995300  0.92382200  0.64348600  1
  Rb  Rb2  1  0.25858000  0.89589200  0.53175000  1
  Rb  Rb3  1  0.97899700  0.88363900  0.42301200  1
  Rb  Rb4  1  0.05701800  0.75181600  0.71526200  1
  Rb  Rb5  1  0.96004700  0.92382200  0.14348600  1
  Rb  Rb6  1  0.75712600  0.71038500  0.56860700  1
  Rb  Rb7  1  0.24142000  0.89589200  0.03175000  1
  Rb  Rb8  1  0.52635800  0.57217100  0.85559900  1
  Rb  Rb9  1  0.49227500  0.66646300  0.51445400  1
  Rb  Rb10  1  0.44298200  0.75181600  0.21526200  1
  Rb  Rb11  1  0.77218500  0.50265500  0.87226900  1
  Rb  Rb12  1  0.74287400  0.71038500  0.06860700  1
  Rb  Rb13  1  0.27218500  0.49734500  0.62773100  1
  Rb  Rb14  1  0.97364200  0.57217100  0.35559900  1
  Rb  Rb15  1  0.99227500  0.33353700  0.98554600  1
  Rb  Rb16  1  0.00772500  0.66646300  0.01445400  1
  Rb  Rb17  1  0.02635800  0.42782900  0.64440100  1
  Rb  Rb18  1  0.72781500  0.50265500  0.37226900  1
  Rb  Rb19  1  0.25712600  0.28961500  0.93139300  1
  Rb  Rb20  1  0.22781500  0.49734500  0.12773100  1
  Rb  Rb21  1  0.55701800  0.24818400  0.78473800  1
  Rb  Rb22  1  0.50772500  0.33353700  0.48554600  1
  Rb  Rb23  1  0.47364200  0.42782900  0.14440100  1
  Rb  Rb24  1  0.75858000  0.10410800  0.96825000  1
  Rb  Rb25  1  0.24287400  0.28961500  0.43139300  1
  Rb  Rb26  1  0.03995300  0.07617800  0.85651400  1
  Rb  Rb27  1  0.94298200  0.24818400  0.28473800  1
  Rb  Rb28  1  0.02100300  0.11636100  0.57698800  1
  Rb  Rb29  1  0.74142000  0.10410800  0.46825000  1
  Rb  Rb30  1  0.46004700  0.07617800  0.35651400  1
  Rb  Rb31  1  0.47899700  0.11636100  0.07698800  1
  Fe  Fe0  1  0.79638100  0.91437700  0.76942800  1
  Fe  Fe1  1  0.70361900  0.91437700  0.26942800  1
  Fe  Fe2  1  0.28722300  0.70539600  0.84079400  1
  Fe  Fe3  1  0.21277700  0.70539600  0.34079400  1
  Fe  Fe4  1  0.78722300  0.29460400  0.65920600  1
  Fe  Fe5  1  0.71277700  0.29460400  0.15920600  1
  Fe  Fe6  1  0.29638100  0.08562300  0.73057200  1
  Fe  Fe7  1  0.20361900  0.08562300  0.23057200  1
  O  O0  1  0.88143000  0.88623800  0.90856600  1
  O  O1  1  0.22446700  0.89617400  0.78274700  1
  O  O2  1  0.87742800  0.90029700  0.63886100  1
  O  O3  1  0.61857000  0.88623800  0.40856600  1
  O  O4  1  0.68554100  0.77992100  0.80636700  1
  O  O5  1  0.27553300  0.89617400  0.28274700  1
  O  O6  1  0.62257200  0.90029700  0.13886100  1
  O  O7  1  0.37163600  0.68604800  0.71334600  1
  O  O8  1  0.81445900  0.77992100  0.30636700  1
  O  O9  1  0.17048000  0.57533800  0.88498500  1
  O  O10  1  0.12556200  0.67492500  0.47789900  1
  O  O11  1  0.12836400  0.68604800  0.21334600  1
  O  O12  1  0.32952000  0.57533800  0.38498500  1
  O  O13  1  0.62556200  0.32507500  0.02210100  1
  O  O14  1  0.37443800  0.67492500  0.97789900  1
  O  O15  1  0.67048000  0.42466200  0.61501500  1
  O  O16  1  0.87163600  0.31395200  0.78665400  1
  O  O17  1  0.87443800  0.32507500  0.52210100  1
  O  O18  1  0.82952000  0.42466200  0.11501500  1
  O  O19  1  0.18554100  0.22007900  0.69363300  1
  O  O20  1  0.62836400  0.31395200  0.28665400  1
  O  O21  1  0.37742800  0.09970300  0.86113900  1
  O  O22  1  0.72446700  0.10382600  0.71725300  1
  O  O23  1  0.31445900  0.22007900  0.19363300  1
  O  O24  1  0.38143000  0.11376200  0.59143400  1
  O  O25  1  0.12257200  0.09970300  0.36113900  1
  O  O26  1  0.77553300  0.10382600  0.21725300  1
  O  O27  1  0.11857000  0.11376200  0.09143400  1
loop_
_geom_bond_atom_site_label_1
_geom_bond_atom_site_label_2
_geom_bond_distance
_geom_bond_site_symmetry_2
Fe0 O2 1.920858 1_555
Fe0 O4 1.934005 1_555
Fe0 O0 1.940939 1_555
Fe0 O22 2.060387 1_565
Fe1 O6 1.920858 1_555
Fe1 O8 1.934005 1_555
Fe1 O3 1.940939 1_555
Fe1 O26 2.060387 1_565
Fe2 O7 1.931617 1_555
Fe2 O14 1.934734 1_555
Fe2 O9 1.966834 1_555
Fe2 O1 2.024457 1_555
Fe3 O11 1.931617 1_555
Fe3 O10 1.934734 1_555
Fe3 O12 1.966834 1_555
Fe3 O5 2.024457 1_555
Fe4 O16 1.931617 1_555
Fe4 O17 1.934734 1_555
Fe4 O15 1.966834 1_555
Fe4 O22 2.024457 1_555
Fe5 O20 1.931617 1_555
Fe5 O13 1.934734 1_555
Fe5 O18 1.966834 1_555
Fe5 O26 2.024457 1_555
Fe6 O21 1.920858 1_555
Fe6 O19 1.934005 1_555
Fe6 O24 1.940939 1_555
Fe6 O1 2.060387 1_545
Fe7 O25 1.920858 1_555
Fe7 O23 1.934005 1_555
Fe7 O27 1.940939 1_555
Fe7 O5 2.060387 1_545
O0 Rb16 2.747044 1_656
O0 Rb26 2.750555 1_665
O0 Rb12 2.825464 1_556
O0 Rb24 2.984059 1_565
O0 Rb5 3.121088 1_556
O1 Rb4 2.860200 1_555
O1 Rb7 2.989687 1_556
O1 Rb2 3.039200 1_555
O1 Rb26 3.281082 1_565
O2 Rb4 2.761712 1_655
O2 Rb28 2.797037 1_665
O2 Rb6 2.799871 1_555
O2 Rb3 2.947358 1_555
O2 Rb29 2.996923 1_565
O3 Rb9 2.747044 1_555
O3 Rb30 2.750555 1_565
O3 Rb6 2.825464 1_555
O3 Rb29 2.984059 1_565
O3 Rb1 3.121088 1_555
O4 Rb1 2.780621 1_555
O4 Rb8 2.875790 1_555
O4 Rb0 2.906211 1_555
O4 Rb11 2.916035 1_555
O4 Rb12 3.092538 1_556
O4 Rb6 3.268770 1_555
O5 Rb10 2.860200 1_555
O5 Rb2 2.989687 1_555
O5 Rb7 3.039200 1_555
O5 Rb30 3.281082 1_565
O6 Rb10 2.761712 1_555
O6 Rb31 2.797037 1_565
O6 Rb12 2.799871 1_555
O6 Rb0 2.947358 1_554
O6 Rb24 2.996923 1_564
O7 Rb8 2.648419 1_555
O7 Rb13 2.754114 1_555
O7 Rb9 2.900413 1_555
O7 Rb2 2.933117 1_555
O7 Rb1 3.167897 1_555
O8 Rb5 2.780621 1_555
O8 Rb14 2.875790 1_555
O8 Rb3 2.906211 1_555
O8 Rb18 2.916035 1_555
O8 Rb6 3.092538 1_555
O8 Rb12 3.268770 1_555
O9 Rb4 2.698838 1_555
O9 Rb20 2.868708 1_556
O9 Rb16 2.919773 1_556
O9 Rb19 3.009156 1_555
O9 Rb15 3.314183 1_455
O10 Rb3 2.768940 1_455
O10 Rb14 2.827204 1_455
O10 Rb13 2.843810 1_555
O10 Rb17 2.984500 1_555
O10 Rb2 3.049542 1_555
O10 Rb4 3.290345 1_555
O11 Rb14 2.648419 1_455
O11 Rb20 2.754114 1_555
O11 Rb16 2.900413 1_555
O11 Rb7 2.933117 1_555
O11 Rb5 3.167897 1_455
O12 Rb10 2.698838 1_555
O12 Rb13 2.868708 1_555
O12 Rb9 2.919773 1_555
O12 Rb25 3.009156 1_555
O12 Rb22 3.314183 1_555
O13 Rb31 2.768940 1_555
O13 Rb23 2.827204 1_555
O13 Rb11 2.843810 1_554
O13 Rb8 2.984500 1_554
O13 Rb24 3.049542 1_554
O13 Rb21 3.290345 1_554
O14 Rb0 2.768940 1_555
O14 Rb8 2.827204 1_555
O14 Rb20 2.843810 1_556
O14 Rb23 2.984500 1_556
O14 Rb7 3.049542 1_556
O14 Rb10 3.290345 1_556
O15 Rb21 2.698838 1_555
O15 Rb18 2.868708 1_555
O15 Rb22 2.919773 1_555
O15 Rb6 3.009156 1_555
O15 Rb9 3.314183 1_555
O16 Rb17 2.648419 1_655
O16 Rb11 2.754114 1_555
O16 Rb15 2.900413 1_555
O16 Rb24 2.933117 1_555
O16 Rb26 3.167897 1_655
O17 Rb28 2.768940 1_655
O17 Rb17 2.827204 1_655
O17 Rb18 2.843810 1_555
O17 Rb14 2.984500 1_555
O17 Rb29 3.049542 1_555
O17 Rb27 3.290345 1_555
O18 Rb27 2.698838 1_555
O18 Rb11 2.868708 1_554
O18 Rb15 2.919773 1_554
O18 Rb12 3.009156 1_555
O18 Rb16 3.314183 1_655
O19 Rb26 2.780621 1_555
O19 Rb17 2.875790 1_555
O19 Rb28 2.906211 1_555
O19 Rb13 2.916035 1_555
O19 Rb25 3.092538 1_555
O19 Rb19 3.268770 1_555
O20 Rb23 2.648419 1_555
O20 Rb18 2.754114 1_555
O20 Rb22 2.900413 1_555
O20 Rb29 2.933117 1_555
O20 Rb30 3.167897 1_555
O21 Rb21 2.761712 1_555
O21 Rb0 2.797037 1_545
O21 Rb19 2.799871 1_555
O21 Rb31 2.947358 1_556
O21 Rb7 2.996923 1_546
O22 Rb21 2.860200 1_555
O22 Rb29 2.989687 1_555
O22 Rb24 3.039200 1_555
O22 Rb1 3.281082 1_545
O23 Rb30 2.780621 1_555
O23 Rb23 2.875790 1_555
O23 Rb31 2.906211 1_555
O23 Rb20 2.916035 1_555
O23 Rb19 3.092538 1_554
O23 Rb25 3.268770 1_555
O24 Rb22 2.747044 1_555
O24 Rb1 2.750555 1_545
O24 Rb25 2.825464 1_555
O24 Rb2 2.984059 1_545
O24 Rb30 3.121088 1_555
O25 Rb27 2.761712 1_455
O25 Rb3 2.797037 1_445
O25 Rb25 2.799871 1_555
O25 Rb28 2.947358 1_555
O25 Rb2 2.996923 1_545
O26 Rb27 2.860200 1_555
O26 Rb24 2.989687 1_554
O26 Rb29 3.039200 1_555
O26 Rb5 3.281082 1_545
O27 Rb15 2.747044 1_454
O27 Rb5 2.750555 1_445
O27 Rb19 2.825464 1_554
O27 Rb7 2.984059 1_545
O27 Rb26 3.121088 1_554
