# generated using pymatgen
data_Li4V11O22
_symmetry_space_group_name_H-M   'P 1'
_cell_length_a   5.12366900
_cell_length_b   9.01745243
_cell_length_c   10.15792631
_cell_angle_alpha   114.21577835
_cell_angle_beta   94.50286455
_cell_angle_gamma   95.28540405
_symmetry_Int_Tables_number   1
_chemical_formula_structural   Li4V11O22
_chemical_formula_sum   'Li4 V11 O22'
_cell_volume   422.69519477
_cell_formula_units_Z   1
loop_
 _symmetry_equiv_pos_site_id
 _symmetry_equiv_pos_as_xyz
  1  'x, y, z'
loop_
 _atom_site_type_symbol
 _atom_site_label
 _atom_site_symmetry_multiplicity
 _atom_site_fract_x
 _atom_site_fract_y
 _atom_site_fract_z
 _atom_site_occupancy
  Li  Li0  1  0.99911800  0.99849300  0.99874000  1
  Li  Li1  1  0.90232500  0.61966700  0.80973500  1
  Li  Li2  1  0.71757000  0.91232700  0.46071600  1
  Li  Li3  1  0.12895300  0.37533500  0.18538600  1
  V  V0  1  0.09556400  0.86125400  0.67996700  1
  V  V1  1  0.72025900  0.40533700  0.96202200  1
  V  V2  1  0.17763100  0.23257200  0.84299500  1
  V  V3  1  0.54345400  0.67809000  0.59025200  1
  V  V4  1  0.37209900  0.96298300  0.22425500  1
  V  V5  1  0.63394900  0.04081000  0.77913100  1
  V  V6  1  0.99590400  0.50442500  0.49383600  1
  V  V7  1  0.45245400  0.31648700  0.41651500  1
  V  V8  1  0.82342200  0.76260600  0.14189700  1
  V  V9  1  0.27788900  0.59393300  0.04236700  1
  V  V10  1  0.90997000  0.13595400  0.32210200  1
  O  O0  1  0.62273200  0.59991500  0.95106000  1
  O  O1  1  0.78014300  0.84065500  0.78125100  1
  O  O2  1  0.04101900  0.43466000  0.86208600  1
  O  O3  1  0.42364600  0.87173600  0.58742400  1
  O  O4  1  0.21457100  0.66496500  0.68235700  1
  O  O5  1  0.88189300  0.21920600  0.96228500  1
  O  O6  1  0.05295500  0.93032200  0.31335400  1
  O  O7  1  0.49332900  0.24587400  0.77630600  1
  O  O8  1  0.86436600  0.72138300  0.50574000  1
  O  O9  1  0.28308000  0.02437300  0.85792600  1
  O  O10  1  0.67541200  0.49332900  0.60038600  1
  O  O11  1  0.32877700  0.51731500  0.40658100  1
  O  O12  1  0.14894000  0.30049600  0.49836500  1
  O  O13  1  0.67878100  0.96994000  0.13280700  1
  O  O14  1  0.51776000  0.76261800  0.23053300  1
  O  O15  1  0.12016600  0.79644900  0.04198900  1
  O  O16  1  0.94376900  0.06245300  0.67686700  1
  O  O17  1  0.76531500  0.33524000  0.32085600  1
  O  O18  1  0.57218300  0.10853400  0.41012100  1
  O  O19  1  0.95272500  0.56397800  0.14010600  1
  O  O20  1  0.23737700  0.15985200  0.22106400  1
  O  O21  1  0.39346200  0.38839200  0.04224000  1
loop_
_geom_bond_atom_site_label_1
_geom_bond_atom_site_label_2
_geom_bond_distance
_geom_bond_site_symmetry_2
Li0 O15 2.172343 1_656
Li0 O9 2.180668 1_665
Li0 O1 2.214134 1_555
Li0 O13 2.274980 1_556
Li0 O5 2.291061 1_565
Li0 O20 2.291673 1_666
Li1 O2 2.111357 1_655
Li1 O10 2.133576 1_555
Li1 O0 2.151841 1_555
Li1 O4 2.244712 1_655
Li1 O1 2.262974 1_555
Li1 O15 2.350834 1_656
Li2 O8 2.137792 1_555
Li2 O3 2.155874 1_555
Li2 O16 2.206746 1_565
Li2 O18 2.208633 1_565
Li2 O14 2.262239 1_555
Li2 O6 2.402437 1_655
Li3 O21 2.094126 1_555
Li3 O11 2.184787 1_555
Li3 O19 2.186351 1_455
Li3 O20 2.227236 1_555
Li3 O5 2.307422 1_454
Li3 O17 2.486432 1_455
O0 V1 1.911486 1_555
O0 V8 2.010848 1_556
O0 V9 2.065367 1_556
O1 V0 2.016772 1_655
O1 V5 2.024250 1_565
O1 V3 2.086547 1_555
O2 V2 1.953150 1_555
O2 V9 2.015328 1_556
O2 V1 2.050249 1_455
O3 V3 1.913819 1_555
O3 V0 2.002514 1_555
O3 V5 2.051818 1_565
O4 V0 1.933171 1_555
O4 V3 2.007613 1_555
O4 V6 2.026875 1_455
O5 V1 1.939688 1_555
O5 V2 2.037971 1_655
O5 V5 2.111922 1_555
O6 V8 1.973218 1_455
O6 V4 1.985457 1_555
O6 V10 2.026888 1_465
O7 V2 1.814570 1_555
O7 V1 2.025011 1_555
O7 V5 2.055491 1_555
O8 V0 1.921088 1_655
O8 V3 1.992793 1_555
O8 V6 2.087587 1_555
O9 V0 1.907902 1_545
O9 V5 2.041720 1_555
O9 V2 2.060882 1_555
O10 V3 1.892305 1_555
O10 V6 2.053181 1_555
O10 V7 2.054858 1_555
O11 V3 1.989386 1_555
O11 V6 1.998319 1_455
O11 V7 2.010619 1_555
O12 V7 1.841323 1_555
O12 V10 2.012010 1_455
O12 V6 2.080373 1_455
O13 V4 1.895987 1_555
O13 V10 2.072630 1_565
O13 V8 2.106984 1_555
O14 V8 1.866736 1_555
O14 V4 2.039852 1_555
O14 V9 2.092667 1_555
O15 V8 1.961022 1_455
O15 V9 2.065225 1_555
O15 V4 2.082302 1_555
O16 V2 1.963913 1_655
O16 V5 2.001304 1_555
O16 V0 2.049528 1_645
O17 V7 1.967694 1_555
O17 V6 1.988388 1_555
O17 V10 2.010336 1_555
O18 V4 1.937413 1_545
O18 V7 2.003800 1_555
O18 V10 2.049725 1_555
O19 V8 1.959880 1_555
O19 V1 1.990563 1_554
O19 V9 2.056974 1_655
O20 V4 1.974466 1_545
O20 V7 2.054350 1_555
O20 V10 2.073421 1_455
O21 V1 1.939118 1_554
O21 V9 1.996576 1_555
O21 V2 2.079142 1_554
