# generated using pymatgen
data_Li5Ni3(SbO5)2
_symmetry_space_group_name_H-M   'P 1'
_cell_length_a   5.43121657
_cell_length_b   10.42443563
_cell_length_c   8.01812733
_cell_angle_alpha   70.04015692
_cell_angle_beta   74.76881902
_cell_angle_gamma   96.31876830
_symmetry_Int_Tables_number   1
_chemical_formula_structural   Li5Ni3(SbO5)2
_chemical_formula_sum   'Li10 Ni6 Sb4 O20'
_cell_volume   401.59890147
_cell_formula_units_Z   2
loop_
 _symmetry_equiv_pos_site_id
 _symmetry_equiv_pos_as_xyz
  1  'x, y, z'
loop_
 _atom_site_type_symbol
 _atom_site_label
 _atom_site_symmetry_multiplicity
 _atom_site_fract_x
 _atom_site_fract_y
 _atom_site_fract_z
 _atom_site_occupancy
  Li  Li0  1  0.99994000  0.99999500  0.50000600  1
  Li  Li1  1  0.49995200  0.50000300  0.00000900  1
  Li  Li2  1  0.56726800  0.07594600  0.30696600  1
  Li  Li3  1  0.06723700  0.57598100  0.80701300  1
  Li  Li4  1  0.43262900  0.92401500  0.69303400  1
  Li  Li5  1  0.93266800  0.42402600  0.19307000  1
  Li  Li6  1  0.69583300  0.19712700  0.60423200  1
  Li  Li7  1  0.19589600  0.69708400  0.10429600  1
  Li  Li8  1  0.30412700  0.80292100  0.39569600  1
  Li  Li9  1  0.80397900  0.30289000  0.89581100  1
  Ni  Ni0  1  0.00028500  0.49991500  0.50042500  1
  Ni  Ni1  1  0.59701600  0.59721100  0.30037600  1
  Ni  Ni2  1  0.40302500  0.40281600  0.69964900  1
  Ni  Ni3  1  0.50022800  0.00016200  0.99967700  1
  Ni  Ni4  1  0.09687200  0.09715400  0.80030700  1
  Ni  Ni5  1  0.90326300  0.90283400  0.19962300  1
  Sb  Sb0  1  0.30654000  0.29898400  0.40267700  1
  Sb  Sb1  1  0.80651600  0.79899500  0.90269300  1
  Sb  Sb2  1  0.69344100  0.70102500  0.59728800  1
  Sb  Sb3  1  0.19345800  0.20097900  0.09733500  1
  O  O0  1  0.61706300  0.39188900  0.44128400  1
  O  O1  1  0.11707700  0.89191700  0.94120600  1
  O  O2  1  0.38283100  0.60811800  0.55875400  1
  O  O3  1  0.88287600  0.10810500  0.05875000  1
  O  O4  1  0.06817500  0.29786500  0.64396700  1
  O  O5  1  0.56820700  0.79798500  0.14388400  1
  O  O6  1  0.93182500  0.70199800  0.35613400  1
  O  O7  1  0.43178900  0.20209500  0.85601500  1
  O  O8  1  0.99193600  0.21195800  0.34691500  1
  O  O9  1  0.49186800  0.71193600  0.84695300  1
  O  O10  1  0.00803900  0.78802600  0.65308600  1
  O  O11  1  0.50806900  0.28805400  0.15304500  1
  O  O12  1  0.23588500  0.00716100  0.23908400  1
  O  O13  1  0.73555100  0.50709800  0.73934700  1
  O  O14  1  0.76441900  0.99285400  0.76058000  1
  O  O15  1  0.26429200  0.49287500  0.26084200  1
  O  O16  1  0.34970200  0.10886300  0.54552100  1
  O  O17  1  0.84972800  0.60883400  0.04557900  1
  O  O18  1  0.65030800  0.89115300  0.45442200  1
  O  O19  1  0.15019000  0.39115200  0.95445100  1
loop_
_geom_bond_atom_site_label_1
_geom_bond_atom_site_label_2
_geom_bond_distance
_geom_bond_site_symmetry_2
Li0 O14 2.115573 1_555
Li0 O12 2.118542 1_665
Li0 O8 2.142056 1_565
Li0 O10 2.142235 1_655
Li0 O18 2.280441 1_555
Li0 O16 2.280841 1_665
Li1 O13 2.116471 1_554
Li1 O15 2.117577 1_555
Li1 O9 2.141854 1_554
Li1 O11 2.142009 1_555
Li1 O19 2.280948 1_554
Li1 O17 2.280968 1_555
Li2 O18 2.056363 1_545
Li2 O16 2.126612 1_555
Li2 O12 2.132328 1_555
Li2 O3 2.153401 1_555
Li2 O11 2.239965 1_555
Li3 O19 2.056381 1_555
Li3 O17 2.126226 1_456
Li3 O13 2.133080 1_455
Li3 O2 2.153645 1_555
Li3 O10 2.239440 1_555
Li4 O16 2.056654 1_565
Li4 O18 2.126885 1_555
Li4 O14 2.132853 1_555
Li4 O1 2.153162 1_555
Li4 O9 2.239801 1_555
Li5 O17 2.056313 1_555
Li5 O19 2.126710 1_654
Li5 O15 2.133171 1_655
Li5 O0 2.153438 1_555
Li5 O8 2.239621 1_555
Li6 O0 2.164714 1_555
Li6 O7 2.168286 1_555
Li6 O14 2.200509 1_545
Li6 O8 2.202523 1_555
Li6 O16 2.232090 1_555
Li6 O4 2.322361 1_655
Li7 O1 2.165776 1_554
Li7 O6 2.168451 1_455
Li7 O15 2.199993 1_555
Li7 O9 2.202262 1_554
Li7 O17 2.232232 1_455
Li7 O5 2.322290 1_555
Li8 O2 2.165168 1_555
Li8 O5 2.168407 1_555
Li8 O12 2.200044 1_565
Li8 O10 2.202686 1_555
Li8 O18 2.232260 1_555
Li8 O6 2.322232 1_455
Li9 O3 2.165188 1_556
Li9 O4 2.169253 1_655
Li9 O13 2.199872 1_555
Li9 O11 2.201527 1_556
Li9 O19 2.232127 1_655
Li9 O7 2.322148 1_555
Ni0 O13 2.101726 1_455
Ni0 O15 2.103280 1_555
Ni0 O4 2.153098 1_555
Ni0 O6 2.156162 1_455
Ni0 O2 2.482474 1_555
Ni0 O0 2.488432 1_455
Ni1 O0 2.081938 1_555
Ni1 O5 2.088465 1_555
Ni1 O17 2.096046 1_555
Ni1 O2 2.140511 1_555
Ni1 O15 2.157028 1_555
Ni1 O6 2.241224 1_555
Ni2 O2 2.081986 1_555
Ni2 O7 2.087655 1_555
Ni2 O19 2.096191 1_555
Ni2 O0 2.140280 1_555
Ni2 O13 2.156595 1_555
Ni2 O4 2.241849 1_555
Ni3 O14 2.102000 1_545
Ni3 O12 2.102862 1_556
Ni3 O7 2.153594 1_555
Ni3 O5 2.155694 1_546
Ni3 O3 2.485148 1_556
Ni3 O1 2.486051 1_545
Ni4 O1 2.081436 1_545
Ni4 O4 2.087389 1_555
Ni4 O16 2.095918 1_555
Ni4 O3 2.140851 1_456
Ni4 O14 2.156482 1_445
Ni4 O7 2.242216 1_555
Ni5 O3 2.081999 1_565
Ni5 O6 2.088568 1_555
Ni5 O18 2.096367 1_555
Ni5 O1 2.140227 1_654
Ni5 O12 2.156215 1_665
Ni5 O5 2.242524 1_555
O0 Sb0 1.999395 1_555
O1 Sb1 1.999237 1_455
O2 Sb2 1.999480 1_555
O3 Sb3 1.999422 1_655
O4 Sb0 2.020999 1_555
O5 Sb1 2.020701 1_554
O6 Sb2 2.020777 1_555
O7 Sb3 2.021128 1_556
O8 Sb3 2.061263 1_655
O8 Sb0 2.068726 1_655
O9 Sb2 2.061605 1_555
O9 Sb1 2.068967 1_555
O10 Sb1 2.061402 1_455
O10 Sb2 2.068757 1_455
O11 Sb0 2.061401 1_555
O11 Sb3 2.068730 1_555
O12 Sb3 2.024691 1_555
O13 Sb2 2.025607 1_555
O14 Sb1 2.025110 1_555
O15 Sb0 2.025127 1_555
O16 Sb0 1.997072 1_555
O17 Sb1 1.997601 1_554
O18 Sb2 1.997118 1_555
O19 Sb3 1.997813 1_556
