# generated using pymatgen
data_LiMnF3
_symmetry_space_group_name_H-M   'P 1'
_cell_length_a   7.13011900
_cell_length_b   7.27453905
_cell_length_c   7.96669627
_cell_angle_alpha   95.14485351
_cell_angle_beta   103.13989847
_cell_angle_gamma   89.95698015
_symmetry_Int_Tables_number   1
_chemical_formula_structural   LiMnF3
_chemical_formula_sum   'Li6 Mn6 F18'
_cell_volume   400.69694128
_cell_formula_units_Z   6
loop_
 _symmetry_equiv_pos_site_id
 _symmetry_equiv_pos_as_xyz
  1  'x, y, z'
loop_
 _atom_site_type_symbol
 _atom_site_label
 _atom_site_symmetry_multiplicity
 _atom_site_fract_x
 _atom_site_fract_y
 _atom_site_fract_z
 _atom_site_occupancy
  Li  Li0  1  0.26279300  0.45176600  0.08322200  1
  Li  Li1  1  0.58843100  0.23788300  0.32490200  1
  Li  Li2  1  0.07371500  0.24545800  0.33024100  1
  Li  Li3  1  0.92628500  0.75454200  0.66975900  1
  Li  Li4  1  0.41156900  0.76211700  0.67509800  1
  Li  Li5  1  0.73720700  0.54823400  0.91677800  1
  Mn  Mn0  1  0.76209400  0.04132400  0.04120100  1
  Mn  Mn1  1  0.23790600  0.95867600  0.95879900  1
  Mn  Mn2  1  0.56406000  0.73780700  0.26736600  1
  Mn  Mn3  1  0.07791300  0.74880100  0.28908100  1
  Mn  Mn4  1  0.92208700  0.25119900  0.71091900  1
  Mn  Mn5  1  0.43594000  0.26219300  0.73263400  1
  F  F0  1  0.77710000  0.74960000  0.08865100  1
  F  F1  1  0.26648900  0.70835500  0.07788000  1
  F  F2  1  0.49926300  0.00773800  0.17104500  1
  F  F3  1  0.51268500  0.45541300  0.22648200  1
  F  F4  1  0.82176400  0.18842000  0.28444400  1
  F  F5  1  0.09834100  0.46698500  0.23898800  1
  F  F6  1  0.09024500  0.00997500  0.17761900  1
  F  F7  1  0.84862100  0.76359900  0.42848900  1
  F  F8  1  0.37181500  0.78134000  0.43564300  1
  F  F9  1  0.62818500  0.21866000  0.56435700  1
  F  F10  1  0.15137900  0.23640100  0.57151100  1
  F  F11  1  0.90975500  0.99002500  0.82238100  1
  F  F12  1  0.90165900  0.53301500  0.76101200  1
  F  F13  1  0.17823600  0.81158000  0.71555600  1
  F  F14  1  0.48731500  0.54458700  0.77351800  1
  F  F15  1  0.50073700  0.99226200  0.82895500  1
  F  F16  1  0.73351100  0.29164500  0.92212000  1
  F  F17  1  0.22290000  0.25040000  0.91134900  1
loop_
_geom_bond_atom_site_label_1
_geom_bond_atom_site_label_2
_geom_bond_distance
_geom_bond_site_symmetry_2
F0 Li5 1.888219 1_554
F0 Mn0 2.187018 1_565
F0 Mn2 2.312408 1_555
F0 Mn3 2.365276 1_655
F1 Li0 1.871205 1_555
F1 Mn1 2.116325 1_554
F1 Mn2 2.304964 1_555
F1 Mn3 2.380063 1_555
F2 Li1 1.997202 1_555
F2 Mn2 2.183072 1_545
F2 Mn1 2.217952 1_544
F2 Mn0 2.359885 1_555
F3 Li1 1.854526 1_555
F3 Li0 1.883622 1_555
F3 Mn2 2.070566 1_555
F4 Li2 1.791214 1_655
F4 Li1 1.795365 1_555
F4 Mn0 2.082115 1_555
F5 Li2 1.850640 1_555
F5 Li0 1.887809 1_555
F5 Mn3 2.064597 1_555
F6 Li2 2.029299 1_555
F6 Mn3 2.178135 1_545
F6 Mn1 2.236950 1_544
F6 Mn0 2.365400 1_455
F7 Li3 1.882624 1_555
F7 Mn2 2.138409 1_555
F7 Mn3 2.172954 1_655
F8 Li4 1.881761 1_555
F8 Mn2 2.129583 1_555
F8 Mn3 2.156253 1_555
F9 Li1 1.881761 1_555
F9 Mn5 2.129583 1_555
F9 Mn4 2.156253 1_555
F10 Li2 1.882624 1_555
F10 Mn5 2.138409 1_555
F10 Mn4 2.172954 1_455
F11 Li3 2.029299 1_555
F11 Mn4 2.178135 1_565
F11 Mn0 2.236950 1_566
F11 Mn1 2.365400 1_655
F12 Li3 1.850640 1_555
F12 Li5 1.887809 1_555
F12 Mn4 2.064597 1_555
F13 Li3 1.791214 1_455
F13 Li4 1.795365 1_555
F13 Mn1 2.082115 1_555
F14 Li4 1.854526 1_555
F14 Li5 1.883622 1_555
F14 Mn5 2.070566 1_555
F15 Li4 1.997202 1_555
F15 Mn5 2.183072 1_565
F15 Mn0 2.217952 1_566
F15 Mn1 2.359885 1_555
F16 Li5 1.871205 1_555
F16 Mn0 2.116325 1_556
F16 Mn5 2.304964 1_555
F16 Mn4 2.380063 1_555
F17 Li0 1.888219 1_556
F17 Mn1 2.187018 1_545
F17 Mn5 2.312408 1_555
F17 Mn4 2.365276 1_455
