# generated using pymatgen
data_Fe2O3F
_symmetry_space_group_name_H-M   'P 1'
_cell_length_a   3.01180600
_cell_length_b   4.74961600
_cell_length_c   9.90007800
_cell_angle_alpha   90.00000000
_cell_angle_beta   90.00000000
_cell_angle_gamma   90.00000000
_symmetry_Int_Tables_number   1
_chemical_formula_structural   Fe2O3F
_chemical_formula_sum   'Fe4 O6 F2'
_cell_volume   141.61984325
_cell_formula_units_Z   2
loop_
 _symmetry_equiv_pos_site_id
 _symmetry_equiv_pos_as_xyz
  1  'x, y, z'
loop_
 _atom_site_type_symbol
 _atom_site_label
 _atom_site_symmetry_multiplicity
 _atom_site_fract_x
 _atom_site_fract_y
 _atom_site_fract_z
 _atom_site_occupancy
  Fe  Fe0  1  0.00000000  0.22437800  0.85661900  1
  Fe  Fe1  1  0.00000000  0.77562200  0.35661900  1
  Fe  Fe2  1  0.50000000  0.72052100  0.64258400  1
  Fe  Fe3  1  0.50000000  0.27947900  0.14258400  1
  O  O0  1  0.00000000  0.93420300  0.71523800  1
  O  O1  1  0.00000000  0.57621600  0.53719700  1
  O  O2  1  0.00000000  0.06579700  0.21523800  1
  O  O3  1  0.00000000  0.42378400  0.03719700  1
  O  O4  1  0.50000000  0.42643800  0.78182700  1
  O  O5  1  0.50000000  0.57356200  0.28182700  1
  F  F0  1  0.50000000  0.00023800  0.95462100  1
  F  F1  1  0.50000000  0.99976200  0.45462100  1
loop_
_geom_bond_atom_site_label_1
_geom_bond_atom_site_label_2
_geom_bond_distance
_geom_bond_site_symmetry_2
Fe0 O4 1.933143 1_455
Fe0 O4 1.933143 1_555
Fe0 O0 1.964333 1_545
Fe0 O3 2.023117 1_556
Fe1 O5 1.933143 1_455
Fe1 O5 1.933143 1_555
Fe1 O2 1.964333 1_565
Fe1 O1 2.023117 1_555
Fe2 O0 1.953240 1_555
Fe2 O0 1.953240 1_655
Fe2 O1 1.956033 1_555
Fe2 O1 1.956033 1_655
Fe2 O4 1.962474 1_555
Fe3 O2 1.953240 1_655
Fe3 O2 1.953240 1_555
Fe3 O3 1.956033 1_655
Fe3 O3 1.956033 1_555
Fe3 O5 1.962474 1_555
F0 Fe0 2.083846 1_655
F0 Fe0 2.083846 1_555
F0 Fe3 2.285125 1_556
F1 Fe1 2.083846 1_655
F1 Fe1 2.083846 1_555
F1 Fe2 2.285125 1_555
