# generated using pymatgen
data_In2WO6
_symmetry_space_group_name_H-M   'P 1'
_cell_length_a   4.90405900
_cell_length_b   9.07141900
_cell_length_c   20.89367100
_cell_angle_alpha   90.00000000
_cell_angle_beta   90.00000000
_cell_angle_gamma   90.00000000
_symmetry_Int_Tables_number   1
_chemical_formula_structural   In2WO6
_chemical_formula_sum   'In16 W8 O48'
_cell_volume   929.49201959
_cell_formula_units_Z   8
loop_
 _symmetry_equiv_pos_site_id
 _symmetry_equiv_pos_as_xyz
  1  'x, y, z'
loop_
 _atom_site_type_symbol
 _atom_site_label
 _atom_site_symmetry_multiplicity
 _atom_site_fract_x
 _atom_site_fract_y
 _atom_site_fract_z
 _atom_site_occupancy
  In  In0  1  0.48382200  0.13132700  0.43839300  1
  In  In1  1  0.48474300  0.13929000  0.67123800  1
  In  In2  1  0.51373900  0.20582700  0.93326900  1
  In  In3  1  0.50029700  0.19336100  0.19979800  1
  In  In4  1  0.00029700  0.30663900  0.80020200  1
  In  In5  1  0.01373900  0.29417300  0.06673100  1
  In  In6  1  0.98474300  0.36071000  0.32876200  1
  In  In7  1  0.98382200  0.36867300  0.56160700  1
  In  In8  1  0.51617800  0.63132700  0.06160700  1
  In  In9  1  0.51525700  0.63929000  0.82876200  1
  In  In10  1  0.48626100  0.70582700  0.56673100  1
  In  In11  1  0.49970300  0.69336100  0.30020200  1
  In  In12  1  0.99970300  0.80663900  0.69979800  1
  In  In13  1  0.98626100  0.79417300  0.43326900  1
  In  In14  1  0.01525700  0.86071000  0.17123800  1
  In  In15  1  0.01617800  0.86867300  0.93839300  1
  W  W0  1  0.97824700  0.00415800  0.56052200  1
  W  W1  1  0.98583000  0.00889600  0.31130500  1
  W  W2  1  0.48583000  0.49110400  0.68869500  1
  W  W3  1  0.47824700  0.49584200  0.43947800  1
  W  W4  1  0.02175300  0.50415800  0.93947800  1
  W  W5  1  0.01417000  0.50889600  0.18869500  1
  W  W6  1  0.51417000  0.99110400  0.81130500  1
  W  W7  1  0.52175300  0.99584200  0.06052200  1
  O  O0  1  0.21680200  0.01928200  0.23488800  1
  O  O1  1  0.73602200  0.02180000  0.13847600  1
  O  O2  1  0.74265400  0.01698300  0.88757300  1
  O  O3  1  0.29096700  0.01996200  0.98505800  1
  O  O4  1  0.29731200  0.14493300  0.10701200  1
  O  O5  1  0.74606000  0.14757100  0.01845100  1
  O  O6  1  0.28708400  0.15069900  0.84712500  1
  O  O7  1  0.73265100  0.13351500  0.76392100  1
  O  O8  1  0.20671600  0.15816000  0.35535200  1
  O  O9  1  0.19695900  0.16435100  0.59423300  1
  O  O10  1  0.75322900  0.15826800  0.52541600  1
  O  O11  1  0.76320200  0.17471600  0.28208800  1
  O  O12  1  0.26320200  0.32528400  0.71791200  1
  O  O13  1  0.25322900  0.34173200  0.47458400  1
  O  O14  1  0.69695900  0.33564900  0.40576700  1
  O  O15  1  0.70671600  0.34184000  0.64464800  1
  O  O16  1  0.23265100  0.36648500  0.23607900  1
  O  O17  1  0.78708400  0.34930100  0.15287500  1
  O  O18  1  0.24606000  0.35242900  0.98154900  1
  O  O19  1  0.79731200  0.35506700  0.89298800  1
  O  O20  1  0.79096700  0.48003800  0.01494200  1
  O  O21  1  0.24265400  0.48301700  0.11242700  1
  O  O22  1  0.23602200  0.47820000  0.86152400  1
  O  O23  1  0.71680200  0.48071800  0.76511200  1
  O  O24  1  0.78319800  0.51928200  0.26511200  1
  O  O25  1  0.26397800  0.52180000  0.36152400  1
  O  O26  1  0.25734600  0.51698300  0.61242700  1
  O  O27  1  0.70903300  0.51996200  0.51494200  1
  O  O28  1  0.70268800  0.64493300  0.39298800  1
  O  O29  1  0.25394000  0.64757100  0.48154900  1
  O  O30  1  0.71291600  0.65069900  0.65287500  1
  O  O31  1  0.26734900  0.63351500  0.73607900  1
  O  O32  1  0.79328400  0.65816000  0.14464800  1
  O  O33  1  0.80304100  0.66435100  0.90576700  1
  O  O34  1  0.24677100  0.65826800  0.97458400  1
  O  O35  1  0.23679800  0.67471600  0.21791200  1
  O  O36  1  0.73679800  0.82528400  0.78208800  1
  O  O37  1  0.74677100  0.84173200  0.02541600  1
  O  O38  1  0.30304100  0.83564900  0.09423300  1
  O  O39  1  0.29328400  0.84184000  0.85535200  1
  O  O40  1  0.76734900  0.86648500  0.26392100  1
  O  O41  1  0.21291600  0.84930100  0.34712500  1
  O  O42  1  0.75394000  0.85242900  0.51845100  1
  O  O43  1  0.20268800  0.85506700  0.60701200  1
  O  O44  1  0.20903300  0.98003800  0.48505800  1
  O  O45  1  0.75734600  0.98301700  0.38757300  1
  O  O46  1  0.76397800  0.97820000  0.63847600  1
  O  O47  1  0.28319800  0.98071800  0.73488800  1
loop_
_geom_bond_atom_site_label_1
_geom_bond_atom_site_label_2
_geom_bond_distance
_geom_bond_site_symmetry_2
In0 O44 2.156410 1_545
In0 O45 2.176419 1_545
In0 O8 2.217276 1_555
In0 O14 2.234419 1_555
In0 O10 2.260802 1_555
In0 O13 2.343846 1_555
In1 O46 2.116417 1_545
In1 O9 2.152230 1_555
In1 O47 2.194243 1_545
In1 O15 2.206746 1_555
In1 O12 2.231169 1_555
In1 O7 2.287092 1_555
In2 O19 2.115438 1_555
In2 O18 2.123532 1_555
In2 O6 2.173729 1_555
In2 O5 2.178274 1_556
In2 O2 2.259751 1_555
In2 O3 2.281925 1_555
In3 O11 2.155699 1_555
In3 O16 2.182620 1_555
In3 O17 2.222673 1_555
In3 O4 2.223115 1_555
In3 O0 2.228023 1_555
In3 O1 2.323793 1_555
In4 O12 2.155699 1_555
In4 O7 2.182620 1_455
In4 O6 2.222673 1_555
In4 O19 2.223115 1_455
In4 O23 2.228023 1_455
In4 O22 2.323793 1_555
In5 O4 2.115438 1_555
In5 O5 2.123532 1_455
In5 O17 2.173729 1_455
In5 O18 2.178274 1_554
In5 O21 2.259751 1_555
In5 O20 2.281925 1_455
In6 O25 2.116417 1_655
In6 O14 2.152230 1_555
In6 O24 2.194243 1_555
In6 O8 2.206746 1_655
In6 O11 2.231169 1_555
In6 O16 2.287092 1_655
In7 O27 2.156410 1_555
In7 O26 2.176419 1_655
In7 O15 2.217276 1_555
In7 O9 2.234419 1_655
In7 O13 2.260802 1_655
In7 O10 2.343846 1_555
In8 O20 2.156410 1_555
In8 O21 2.176419 1_555
In8 O32 2.217276 1_555
In8 O38 2.234419 1_555
In8 O34 2.260802 1_554
In8 O37 2.343846 1_555
In9 O22 2.116417 1_555
In9 O33 2.152230 1_555
In9 O23 2.194243 1_555
In9 O39 2.206746 1_555
In9 O36 2.231169 1_555
In9 O31 2.287092 1_555
In10 O43 2.115438 1_555
In10 O42 2.123532 1_555
In10 O30 2.173729 1_555
In10 O29 2.178274 1_555
In10 O26 2.259751 1_555
In10 O27 2.281925 1_555
In11 O35 2.155699 1_555
In11 O40 2.182620 1_555
In11 O41 2.222673 1_555
In11 O28 2.223115 1_555
In11 O24 2.228023 1_555
In11 O25 2.323793 1_555
In12 O36 2.155699 1_555
In12 O31 2.182620 1_655
In12 O30 2.222673 1_555
In12 O43 2.223115 1_655
In12 O47 2.228023 1_655
In12 O46 2.323793 1_555
In13 O28 2.115438 1_555
In13 O29 2.123532 1_655
In13 O41 2.173729 1_655
In13 O42 2.178274 1_555
In13 O45 2.259751 1_555
In13 O44 2.281925 1_655
In14 O1 2.116417 1_465
In14 O38 2.152230 1_555
In14 O0 2.194243 1_565
In14 O32 2.206746 1_455
In14 O35 2.231169 1_555
In14 O40 2.287092 1_455
In15 O3 2.156410 1_565
In15 O2 2.176419 1_465
In15 O39 2.217276 1_555
In15 O33 2.234419 1_455
In15 O37 2.260802 1_456
In15 O34 2.343846 1_555
O0 W1 1.959877 1_455
O1 W7 1.952541 1_545
O2 W6 1.962124 1_545
O3 W7 1.953168 1_546
O4 W7 1.996036 1_545
O5 W7 1.969054 1_545
O6 W6 1.973907 1_545
O7 W6 1.948607 1_545
O8 W1 1.963104 1_455
O9 W0 1.938621 1_455
O10 W0 1.926168 1_555
O11 W1 1.956354 1_555
O12 W2 1.956354 1_555
O13 W3 1.926168 1_555
O14 W3 1.938621 1_555
O15 W2 1.963104 1_555
O16 W5 1.948607 1_555
O17 W5 1.973907 1_655
O18 W4 1.969054 1_555
O19 W4 1.996036 1_655
O20 W4 1.953168 1_654
O21 W5 1.962124 1_555
O22 W4 1.952541 1_555
O23 W2 1.959877 1_555
O24 W5 1.959877 1_655
O25 W3 1.952541 1_555
O26 W2 1.962124 1_555
O27 W3 1.953168 1_555
O28 W3 1.996036 1_555
O29 W3 1.969054 1_555
O30 W2 1.973907 1_555
O31 W2 1.948607 1_555
O32 W5 1.963104 1_655
O33 W4 1.938621 1_655
O34 W4 1.926168 1_555
O35 W5 1.956354 1_555
O36 W6 1.956354 1_555
O37 W7 1.926168 1_555
O38 W7 1.938621 1_555
O39 W6 1.963104 1_555
O40 W1 1.948607 1_565
O41 W1 1.973907 1_465
O42 W0 1.969054 1_565
O43 W0 1.996036 1_465
O44 W0 1.953168 1_465
O45 W1 1.962124 1_565
O46 W0 1.952541 1_565
O47 W6 1.959877 1_555
