# generated using pymatgen
data_LiMn(PO3)3
_symmetry_space_group_name_H-M   'P 1'
_cell_length_a   5.39371600
_cell_length_b   10.30487300
_cell_length_c   11.74210800
_cell_angle_alpha   90.00000000
_cell_angle_beta   90.00000000
_cell_angle_gamma   90.00000000
_symmetry_Int_Tables_number   1
_chemical_formula_structural   LiMn(PO3)3
_chemical_formula_sum   'Li4 Mn4 P12 O36'
_cell_volume   652.64466128
_cell_formula_units_Z   4
loop_
 _symmetry_equiv_pos_site_id
 _symmetry_equiv_pos_as_xyz
  1  'x, y, z'
loop_
 _atom_site_type_symbol
 _atom_site_label
 _atom_site_symmetry_multiplicity
 _atom_site_fract_x
 _atom_site_fract_y
 _atom_site_fract_z
 _atom_site_occupancy
  Li  Li0  1  0.57359600  0.03788700  0.86368400  1
  Li  Li1  1  0.07359600  0.46211300  0.13631600  1
  Li  Li2  1  0.42640400  0.53788700  0.63631600  1
  Li  Li3  1  0.92640400  0.96211300  0.36368400  1
  Mn  Mn0  1  0.10958100  0.10947800  0.08913500  1
  Mn  Mn1  1  0.60958100  0.39052200  0.91086500  1
  Mn  Mn2  1  0.89041900  0.60947800  0.41086500  1
  Mn  Mn3  1  0.39041900  0.89052200  0.58913500  1
  P  P0  1  0.88242100  0.07690400  0.62253800  1
  P  P1  1  0.37947900  0.13981300  0.36601600  1
  P  P2  1  0.09216600  0.21476200  0.81700100  1
  P  P3  1  0.59216600  0.28523800  0.18299900  1
  P  P4  1  0.87947900  0.36018700  0.63398400  1
  P  P5  1  0.38242100  0.42309600  0.37746200  1
  P  P6  1  0.11757900  0.57690400  0.87746200  1
  P  P7  1  0.62052100  0.63981300  0.13398400  1
  P  P8  1  0.90783400  0.71476200  0.68299900  1
  P  P9  1  0.40783400  0.78523800  0.31700100  1
  P  P10  1  0.12052100  0.86018700  0.86601600  1
  P  P11  1  0.61757900  0.92309600  0.12253800  1
  O  O0  1  0.01547100  0.98740100  0.54177200  1
  O  O1  1  0.63347900  0.03635100  0.66901500  1
  O  O2  1  0.48768700  0.04021200  0.44460700  1
  O  O3  1  0.07301500  0.09542300  0.72856500  1
  O  O4  1  0.13836700  0.11722000  0.30552700  1
  O  O5  1  0.59369900  0.16598900  0.27076900  1
  O  O6  1  0.34090400  0.20937600  0.87465500  1
  O  O7  1  0.86123400  0.21842300  0.89037200  1
  O  O8  1  0.87485200  0.22060600  0.56849500  1
  O  O9  1  0.37485200  0.27939400  0.43150500  1
  O  O10  1  0.36123400  0.28157700  0.10962800  1
  O  O11  1  0.84090400  0.29062400  0.12534500  1
  O  O12  1  0.09369900  0.33401100  0.72923100  1
  O  O13  1  0.63836700  0.38278000  0.69447300  1
  O  O14  1  0.57301500  0.40457700  0.27143500  1
  O  O15  1  0.98768700  0.45978800  0.55539300  1
  O  O16  1  0.13347900  0.46364900  0.33098500  1
  O  O17  1  0.51547100  0.51259900  0.45822800  1
  O  O18  1  0.98452900  0.48740100  0.95822800  1
  O  O19  1  0.36652100  0.53635100  0.83098500  1
  O  O20  1  0.51231300  0.54021200  0.05539300  1
  O  O21  1  0.92698500  0.59542300  0.77143500  1
  O  O22  1  0.86163300  0.61722000  0.19447300  1
  O  O23  1  0.40630100  0.66598900  0.22923100  1
  O  O24  1  0.65909600  0.70937600  0.62534500  1
  O  O25  1  0.13876600  0.71842300  0.60962800  1
  O  O26  1  0.12514800  0.72060600  0.93150500  1
  O  O27  1  0.62514800  0.77939400  0.06849500  1
  O  O28  1  0.63876600  0.78157700  0.39037200  1
  O  O29  1  0.15909600  0.79062400  0.37465500  1
  O  O30  1  0.90630100  0.83401100  0.77076900  1
  O  O31  1  0.36163300  0.88278000  0.80552700  1
  O  O32  1  0.42698500  0.90457700  0.22856500  1
  O  O33  1  0.01231300  0.95978800  0.94460700  1
  O  O34  1  0.86652100  0.96364900  0.16901500  1
  O  O35  1  0.48452900  0.01259900  0.04177200  1
loop_
_geom_bond_atom_site_label_1
_geom_bond_atom_site_label_2
_geom_bond_distance
_geom_bond_site_symmetry_2
Li0 O31 2.080419 1_545
Li0 O35 2.161368 1_556
Li0 O6 2.171337 1_555
Li0 O1 2.308586 1_555
Li0 O7 2.442591 1_555
Li1 O22 2.080419 1_455
Li1 O18 2.161368 1_454
Li1 O11 2.171337 1_455
Li1 O16 2.308586 1_555
Li1 O10 2.442591 1_555
Li2 O13 2.080419 1_555
Li2 O17 2.161368 1_555
Li2 O24 2.171337 1_555
Li2 O19 2.308586 1_555
Li2 O25 2.442591 1_555
Li3 O4 2.080419 1_665
Li3 O0 2.161368 1_655
Li3 O29 2.171337 1_655
Li3 O34 2.308586 1_555
Li3 O28 2.442591 1_555
Mn0 O34 2.203800 1_445
Mn0 O10 2.246206 1_555
Mn0 O35 2.322908 1_555
Mn0 O33 2.352591 1_544
Mn0 O11 2.401121 1_455
Mn0 O4 2.546887 1_555
Mn1 O19 2.203800 1_555
Mn1 O7 2.246206 1_555
Mn1 O18 2.322908 1_555
Mn1 O20 2.352591 1_556
Mn1 O6 2.401121 1_555
Mn1 O13 2.546887 1_555
Mn2 O16 2.203800 1_655
Mn2 O28 2.246206 1_555
Mn2 O17 2.322908 1_555
Mn2 O15 2.352591 1_555
Mn2 O29 2.401121 1_655
Mn2 O22 2.546887 1_555
Mn3 O1 2.203800 1_565
Mn3 O25 2.246206 1_555
Mn3 O0 2.322908 1_555
Mn3 O2 2.352591 1_565
Mn3 O24 2.401121 1_555
Mn3 O31 2.546887 1_555
O0 P0 1.505012 1_465
O1 P0 1.508432 1_555
O2 P1 1.498563 1_555
O3 P2 1.612867 1_555
O3 P0 1.625792 1_455
O4 P1 1.499986 1_555
O5 P3 1.603832 1_555
O5 P1 1.630529 1_555
O6 P2 1.503772 1_555
O7 P2 1.514969 1_655
O8 P0 1.611588 1_555
O8 P4 1.631209 1_555
O9 P5 1.611588 1_555
O9 P1 1.631209 1_555
O10 P3 1.514969 1_555
O11 P3 1.503772 1_555
O12 P2 1.603832 1_555
O12 P4 1.630529 1_455
O13 P4 1.499986 1_555
O14 P3 1.612867 1_555
O14 P5 1.625792 1_555
O15 P4 1.498563 1_555
O16 P5 1.508432 1_555
O17 P5 1.505012 1_555
O18 P6 1.505012 1_655
O19 P6 1.508432 1_555
O20 P7 1.498563 1_555
O21 P8 1.612867 1_555
O21 P6 1.625792 1_655
O22 P7 1.499986 1_555
O23 P9 1.603832 1_555
O23 P7 1.630529 1_555
O24 P8 1.503772 1_555
O25 P8 1.514969 1_455
O26 P6 1.611588 1_555
O26 P10 1.631209 1_555
O27 P11 1.611588 1_555
O27 P7 1.631209 1_555
O28 P9 1.514969 1_555
O29 P9 1.503772 1_555
O30 P8 1.603832 1_555
O30 P10 1.630529 1_655
O31 P10 1.499986 1_555
O32 P9 1.612867 1_555
O32 P11 1.625792 1_555
O33 P10 1.498563 1_555
O34 P11 1.508432 1_555
O35 P11 1.505012 1_545
