# generated using pymatgen
data_SiH18C2N8(OF3)2
_symmetry_space_group_name_H-M   'P 1'
_cell_length_a   6.63376500
_cell_length_b   6.74915507
_cell_length_c   8.15416758
_cell_angle_alpha   109.05528022
_cell_angle_beta   97.34443216
_cell_angle_gamma   89.36379681
_symmetry_Int_Tables_number   1
_chemical_formula_structural   SiH18C2N8(OF3)2
_chemical_formula_sum   'Si1 H18 C2 N8 O2 F6'
_cell_volume   342.06204925
_cell_formula_units_Z   1
loop_
 _symmetry_equiv_pos_site_id
 _symmetry_equiv_pos_as_xyz
  1  'x, y, z'
loop_
 _atom_site_type_symbol
 _atom_site_label
 _atom_site_symmetry_multiplicity
 _atom_site_fract_x
 _atom_site_fract_y
 _atom_site_fract_z
 _atom_site_occupancy
  Si  Si0  1  0.00000000  0.00000000  0.00000000  1
  H  H0  1  0.87239600  0.45739300  0.68890400  1
  H  H1  1  0.77393300  0.64324000  0.07428600  1
  H  H2  1  0.87478700  0.21222300  0.68836100  1
  H  H3  1  0.74898100  0.41621500  0.08463500  1
  H  H4  1  0.82788600  0.81611500  0.62481800  1
  H  H5  1  0.77111000  0.69415700  0.39594300  1
  H  H6  1  0.70132400  0.14852200  0.31894200  1
  H  H7  1  0.54195500  0.36423100  0.73824800  1
  H  H8  1  0.45086700  0.10737200  0.20819400  1
  H  H9  1  0.54913300  0.89262800  0.79180600  1
  H  H10  1  0.45804500  0.63576900  0.26175200  1
  H  H11  1  0.29867600  0.85147800  0.68105800  1
  H  H12  1  0.22889000  0.30584300  0.60405700  1
  H  H13  1  0.17211400  0.18388500  0.37518200  1
  H  H14  1  0.25101900  0.58378500  0.91536500  1
  H  H15  1  0.12521300  0.78777700  0.31163900  1
  H  H16  1  0.22606700  0.35676000  0.92571400  1
  H  H17  1  0.12760400  0.54260700  0.31109600  1
  C  C0  1  0.52417500  0.76136700  0.52648700  1
  C  C1  1  0.47582500  0.23863300  0.47351300  1
  N  N0  1  0.81451600  0.30894300  0.62189000  1
  N  N1  1  0.72390800  0.75558300  0.51667500  1
  N  N2  1  0.60367000  0.31148500  0.62343700  1
  N  N3  1  0.54852000  0.16362200  0.32047300  1
  N  N4  1  0.45148000  0.83637800  0.67952700  1
  N  N5  1  0.39633000  0.68851500  0.37656300  1
  N  N6  1  0.27609200  0.24441700  0.48332500  1
  N  N7  1  0.18548400  0.69105700  0.37811000  1
  O  O0  1  0.72642400  0.56492100  0.14539400  1
  O  O1  1  0.27357600  0.43507900  0.85460600  1
  F  F0  1  0.95188100  0.01567300  0.20620500  1
  F  F1  1  0.87038400  0.76074600  0.91398700  1
  F  F2  1  0.77675600  0.12399100  0.96842400  1
  F  F3  1  0.22324400  0.87600900  0.03157600  1
  F  F4  1  0.12961600  0.23925400  0.08601300  1
  F  F5  1  0.04811900  0.98432700  0.79379500  1
loop_
_geom_bond_atom_site_label_1
_geom_bond_atom_site_label_2
_geom_bond_distance
_geom_bond_site_symmetry_2
H0 N0 1.023361 1_555
H1 O0 0.982587 1_555
H2 N0 1.024493 1_555
H3 O0 0.982896 1_555
H4 N1 1.017741 1_555
H5 N1 1.023979 1_555
H6 N3 1.018907 1_555
H7 N2 1.023684 1_555
H8 N3 1.014332 1_555
H9 N4 1.014332 1_555
H10 N5 1.023684 1_555
H11 N4 1.018907 1_555
H12 N6 1.023979 1_555
H13 N6 1.017741 1_555
H14 O1 0.982896 1_555
H15 N7 1.024493 1_555
H16 O1 0.982587 1_555
H17 N7 1.023361 1_555
C0 N4 1.334939 1_555
C0 N1 1.336943 1_555
C0 N5 1.344335 1_555
C1 N3 1.334939 1_555
C1 N6 1.336943 1_555
C1 N2 1.344335 1_555
N0 N2 1.400236 1_555
N5 N7 1.400236 1_555
F0 Si0 1.720648 1_655
F1 Si0 1.725064 1_666
F2 Si0 1.724956 1_656
F3 Si0 1.724956 1_565
F4 Si0 1.725064 1_555
F5 Si0 1.720648 1_566
