# generated using pymatgen
data_Li2Ni(CO3)2
_symmetry_space_group_name_H-M   'P 1'
_cell_length_a   5.43452740
_cell_length_b   16.21216407
_cell_length_c   6.02392295
_cell_angle_alpha   89.98437623
_cell_angle_beta   63.17635547
_cell_angle_gamma   89.89571142
_symmetry_Int_Tables_number   1
_chemical_formula_structural   Li2Ni(CO3)2
_chemical_formula_sum   'Li8 Ni4 C8 O24'
_cell_volume   473.63172412
_cell_formula_units_Z   4
loop_
 _symmetry_equiv_pos_site_id
 _symmetry_equiv_pos_as_xyz
  1  'x, y, z'
loop_
 _atom_site_type_symbol
 _atom_site_label
 _atom_site_symmetry_multiplicity
 _atom_site_fract_x
 _atom_site_fract_y
 _atom_site_fract_z
 _atom_site_occupancy
  Li  Li0  1  0.88991500  0.32150100  0.90217800  1
  Li  Li1  1  0.38614700  0.82134600  0.90198200  1
  Li  Li2  1  0.79028100  0.07154300  0.59815500  1
  Li  Li3  1  0.28670300  0.57151700  0.59898200  1
  Li  Li4  1  0.88822800  0.42870700  0.40252200  1
  Li  Li5  1  0.38980100  0.92836700  0.40130000  1
  Li  Li6  1  0.29037100  0.17860700  0.09829200  1
  Li  Li7  1  0.78605700  0.67835700  0.09883600  1
  Ni  Ni0  1  0.98867300  0.75022600  0.50005500  1
  Ni  Ni1  1  0.48798700  0.49962200  0.00007600  1
  Ni  Ni2  1  0.48801700  0.25022400  0.50013800  1
  Ni  Ni3  1  0.98895000  0.00026000  0.00034800  1
  C  C0  1  0.32587100  0.35311400  0.93444100  1
  C  C1  1  0.82317400  0.85291500  0.93514000  1
  C  C2  1  0.26037100  0.10267900  0.56518000  1
  C  C3  1  0.75677200  0.60272900  0.56491600  1
  C  C4  1  0.32512700  0.39696400  0.43476800  1
  C  C5  1  0.82641300  0.89718400  0.43461300  1
  C  C6  1  0.76000700  0.14723300  0.06526900  1
  C  C7  1  0.25686800  0.64727300  0.06499000  1
  O  O0  1  0.11733300  0.40212400  0.00860300  1
  O  O1  1  0.61230000  0.90086900  0.00983000  1
  O  O2  1  0.12404900  0.15026500  0.48974300  1
  O  O3  1  0.62045800  0.65041900  0.48986600  1
  O  O4  1  0.11620600  0.34834200  0.50905700  1
  O  O5  1  0.61739300  0.84862800  0.50846400  1
  O  O6  1  0.62558800  0.09883400  0.99023600  1
  O  O7  1  0.12086600  0.59970800  0.98973500  1
  O  O8  1  0.55804000  0.37984700  0.91932600  1
  O  O9  1  0.05483200  0.88031000  0.92014400  1
  O  O10  1  0.47639200  0.13052300  0.58041100  1
  O  O11  1  0.97324000  0.63026900  0.57976600  1
  O  O12  1  0.55756100  0.36997900  0.41944400  1
  O  O13  1  0.05796100  0.86996200  0.42027600  1
  O  O14  1  0.97702100  0.12015400  0.08042600  1
  O  O15  1  0.47310400  0.61939500  0.08023600  1
  O  O16  1  0.30493400  0.27679100  0.87218800  1
  O  O17  1  0.80542000  0.77650100  0.87169500  1
  O  O18  1  0.18040700  0.02624700  0.62882200  1
  O  O19  1  0.67646500  0.52624600  0.62872500  1
  O  O20  1  0.30428300  0.47319800  0.37205900  1
  O  O21  1  0.80697700  0.97363300  0.37191900  1
  O  O22  1  0.67682800  0.22357600  0.12816900  1
  O  O23  1  0.17662600  0.72381200  0.12868100  1
loop_
_geom_bond_atom_site_label_1
_geom_bond_atom_site_label_2
_geom_bond_distance
_geom_bond_site_symmetry_2
Li0 O8 1.996007 1_555
Li0 O22 2.073031 1_556
Li0 O0 2.090055 1_656
Li0 O4 2.163986 1_655
Li0 O16 2.295954 1_655
Li1 O9 1.995929 1_555
Li1 O23 2.064893 1_556
Li1 O1 2.078838 1_556
Li1 O5 2.169609 1_555
Li1 O17 2.317870 1_555
Li2 O10 1.998544 1_555
Li2 O21 2.067418 1_545
Li2 O2 2.069867 1_655
Li2 O6 2.160223 1_555
Li2 O18 2.327265 1_655
Li3 O11 1.998659 1_455
Li3 O3 2.071285 1_555
Li3 O20 2.073937 1_555
Li3 O7 2.155538 1_555
Li3 O19 2.322542 1_555
Li4 O12 1.996755 1_555
Li4 O19 2.064229 1_555
Li4 O4 2.087014 1_655
Li4 O0 2.167714 1_655
Li4 O20 2.301684 1_655
Li5 O13 1.995488 1_555
Li5 O18 2.068463 1_565
Li5 O5 2.081356 1_555
Li5 O1 2.155707 1_555
Li5 O21 2.313810 1_555
Li6 O14 1.995208 1_455
Li6 O16 2.072954 1_554
Li6 O6 2.082489 1_554
Li6 O2 2.160084 1_555
Li6 O22 2.306851 1_555
Li7 O15 1.999203 1_555
Li7 O7 2.069109 1_654
Li7 O17 2.069886 1_554
Li7 O3 2.156698 1_555
Li7 O23 2.330406 1_655
Ni0 O13 1.994934 1_655
Ni0 O11 1.995856 1_555
Ni0 O23 2.041596 1_655
Ni0 O17 2.042550 1_555
Ni1 O15 1.993718 1_555
Ni1 O8 1.995715 1_554
Ni1 O19 2.042738 1_554
Ni1 O20 2.045351 1_555
Ni2 O10 1.994031 1_555
Ni2 O12 1.996210 1_555
Ni2 O22 2.045538 1_555
Ni2 O16 2.045710 1_555
Ni3 O9 1.996281 1_644
Ni3 O14 1.996711 1_555
Ni3 O18 2.041676 1_654
Ni3 O21 2.043946 1_545
C0 O0 1.286573 1_556
C0 O8 1.298605 1_555
C0 O16 1.312979 1_555
C1 O1 1.285212 1_556
C1 O9 1.299904 1_655
C1 O17 1.313037 1_555
C2 O2 1.285335 1_555
C2 O10 1.299832 1_555
C2 O18 1.312481 1_555
C3 O3 1.284886 1_555
C3 O11 1.299299 1_555
C3 O19 1.313781 1_555
C4 O4 1.286564 1_555
C4 O12 1.299341 1_555
C4 O20 1.311822 1_555
C5 O5 1.286435 1_555
C5 O13 1.298307 1_655
C5 O21 1.313460 1_555
C6 O6 1.286033 1_554
C6 O14 1.298942 1_555
C6 O22 1.312788 1_555
C7 O7 1.284945 1_554
C7 O15 1.299656 1_555
C7 O23 1.313164 1_555
