# generated using pymatgen
data_LiVOF3
_symmetry_space_group_name_H-M   'P 1'
_cell_length_a   6.08277600
_cell_length_b   6.08251500
_cell_length_c   8.38820800
_cell_angle_alpha   89.99978451
_cell_angle_beta   89.99997692
_cell_angle_gamma   89.99828564
_symmetry_Int_Tables_number   1
_chemical_formula_structural   LiVOF3
_chemical_formula_sum   'Li4 V4 O4 F12'
_cell_volume   310.35175332
_cell_formula_units_Z   4
loop_
 _symmetry_equiv_pos_site_id
 _symmetry_equiv_pos_as_xyz
  1  'x, y, z'
loop_
 _atom_site_type_symbol
 _atom_site_label
 _atom_site_symmetry_multiplicity
 _atom_site_fract_x
 _atom_site_fract_y
 _atom_site_fract_z
 _atom_site_occupancy
  Li  Li0  1  0.24905300  0.25352200  0.37626800  1
  Li  Li1  1  0.25352100  0.75094500  0.12627800  1
  Li  Li2  1  0.74646500  0.24903400  0.62625400  1
  Li  Li3  1  0.75095000  0.74649000  0.87627200  1
  V  V0  1  0.00060200  0.26088300  0.01858600  1
  V  V1  1  0.26089100  0.99938200  0.76857000  1
  V  V2  1  0.73912400  0.00061700  0.26854800  1
  V  V3  1  0.99939800  0.73911000  0.51856900  1
  O  O0  1  0.01752700  0.78150600  0.72244700  1
  O  O1  1  0.21851300  0.01751600  0.97244200  1
  O  O2  1  0.78147100  0.98249400  0.47241800  1
  O  O3  1  0.98247200  0.21850600  0.22244700  1
  F  F0  1  0.00924800  0.22521600  0.76707000  1
  F  F1  1  0.21428800  0.53267500  0.46585000  1
  F  F2  1  0.21369400  0.48146200  0.01982800  1
  F  F3  1  0.22519900  0.99073700  0.51707100  1
  F  F4  1  0.46731700  0.21428400  0.71586600  1
  F  F5  1  0.48148000  0.78627800  0.76982500  1
  F  F6  1  0.51854200  0.21370400  0.26985000  1
  F  F7  1  0.53269300  0.78572900  0.21585200  1
  F  F8  1  0.77478900  0.00926000  0.01706400  1
  F  F9  1  0.78629500  0.51853600  0.51982500  1
  F  F10  1  0.78572000  0.46733900  0.96587000  1
  F  F11  1  0.99074900  0.77477500  0.26705700  1
loop_
_geom_bond_atom_site_label_1
_geom_bond_atom_site_label_2
_geom_bond_distance
_geom_bond_site_symmetry_2
Li0 O3 2.083182 1_455
Li1 O1 2.083140 1_564
Li2 O2 2.083000 1_545
Li3 O0 2.083182 1_655
O0 V3 1.733018 1_455
O0 V1 2.024209 1_555
O1 V1 1.732953 1_545
O1 V0 2.024328 1_556
O2 V2 1.732904 1_565
O2 V3 2.024477 1_555
O3 V0 1.732858 1_655
O3 V2 2.024153 1_555
F0 Li2 1.992796 1_455
F0 V1 2.056677 1_545
F0 V0 2.121546 1_556
F1 V3 1.865660 1_455
F1 Li0 1.868796 1_555
F2 V0 1.865587 1_555
F2 Li1 1.882233 1_555
F3 Li0 1.992706 1_565
F3 V3 2.056522 1_455
F3 V1 2.121420 1_555
F4 V1 1.865692 1_545
F4 Li2 1.868933 1_555
F5 V1 1.865629 1_555
F5 Li3 1.882166 1_555
F6 V2 1.865529 1_555
F6 Li0 1.882175 1_555
F7 V2 1.865639 1_565
F7 Li1 1.868962 1_555
F8 Li3 1.992579 1_544
F8 V0 2.056554 1_655
F8 V2 2.121277 1_555
F9 V3 1.865612 1_555
F9 Li2 1.882246 1_555
F10 V0 1.865704 1_656
F10 Li3 1.868838 1_555
F11 Li1 1.992564 1_655
F11 V2 2.056628 1_565
F11 V3 2.121510 1_555
