# generated using pymatgen
data_Cs3LaO3
_symmetry_space_group_name_H-M   'P 1'
_cell_length_a   7.80062773
_cell_length_b   7.80062773
_cell_length_c   7.83448508
_cell_angle_alpha   85.28075671
_cell_angle_beta   85.28075671
_cell_angle_gamma   116.45573422
_symmetry_Int_Tables_number   1
_chemical_formula_structural   Cs3LaO3
_chemical_formula_sum   'Cs6 La2 O6'
_cell_volume   421.56107968
_cell_formula_units_Z   2
loop_
 _symmetry_equiv_pos_site_id
 _symmetry_equiv_pos_as_xyz
  1  'x, y, z'
loop_
 _atom_site_type_symbol
 _atom_site_label
 _atom_site_symmetry_multiplicity
 _atom_site_fract_x
 _atom_site_fract_y
 _atom_site_fract_z
 _atom_site_occupancy
  Cs  Cs0  1  0.64560200  0.64560200  0.64852900  1
  Cs  Cs1  1  0.78771600  0.21228400  0.50000000  1
  Cs  Cs2  1  0.21228400  0.78771600  0.50000000  1
  Cs  Cs3  1  0.74197500  0.25802500  0.00000000  1
  Cs  Cs4  1  0.25802500  0.74197500  0.00000000  1
  Cs  Cs5  1  0.35439800  0.35439800  0.35147100  1
  La  La0  1  0.81869200  0.81869200  0.15370500  1
  La  La1  1  0.18130800  0.18130800  0.84629500  1
  O  O0  1  0.89803200  0.89803200  0.85331300  1
  O  O1  1  0.54685600  0.82583200  0.26878400  1
  O  O2  1  0.82583200  0.54685600  0.26878400  1
  O  O3  1  0.45314400  0.17416800  0.73121600  1
  O  O4  1  0.17416800  0.45314400  0.73121600  1
  O  O5  1  0.10196800  0.10196800  0.14668700  1
loop_
_geom_bond_atom_site_label_1
_geom_bond_atom_site_label_2
_geom_bond_distance
_geom_bond_site_symmetry_2
Cs0 O0 2.813128 1_555
Cs0 O4 3.275075 1_555
Cs0 O3 3.275075 1_555
Cs0 O1 3.474898 1_555
Cs0 O2 3.474898 1_555
Cs1 O3 2.936537 1_555
Cs1 O2 2.936537 1_555
Cs1 O4 3.508710 1_655
Cs1 O1 3.508710 1_545
Cs2 O4 2.936537 1_555
Cs2 O1 2.936537 1_555
Cs2 O3 3.508710 1_565
Cs2 O2 3.508710 1_455
Cs3 O2 3.103655 1_555
Cs3 O3 3.103655 1_554
Cs3 O1 3.442300 1_545
Cs3 O4 3.442300 1_654
Cs4 O1 3.103655 1_555
Cs4 O4 3.103655 1_554
Cs4 O2 3.442300 1_455
Cs4 O3 3.442300 1_564
Cs5 O5 2.813128 1_555
Cs5 O2 3.275075 1_555
Cs5 O1 3.275075 1_555
Cs5 O3 3.474898 1_555
Cs5 O4 3.474898 1_555
La0 O1 2.260831 1_555
La0 O2 2.260831 1_555
La0 O5 2.319078 1_665
La0 O0 2.341799 1_554
La1 O3 2.260831 1_555
La1 O4 2.260831 1_555
La1 O0 2.319078 1_445
La1 O5 2.341799 1_556
