# generated using pymatgen
data_VSb3(PO4)6
_symmetry_space_group_name_H-M   'P 1'
_cell_length_a   8.90879371
_cell_length_b   8.90879371
_cell_length_c   8.90879356
_cell_angle_alpha   58.18117741
_cell_angle_beta   58.18117741
_cell_angle_gamma   58.18117896
_symmetry_Int_Tables_number   1
_chemical_formula_structural   VSb3(PO4)6
_chemical_formula_sum   'V1 Sb3 P6 O24'
_cell_volume   479.12843545
_cell_formula_units_Z   1
loop_
 _symmetry_equiv_pos_site_id
 _symmetry_equiv_pos_as_xyz
  1  'x, y, z'
loop_
 _atom_site_type_symbol
 _atom_site_label
 _atom_site_symmetry_multiplicity
 _atom_site_fract_x
 _atom_site_fract_y
 _atom_site_fract_z
 _atom_site_occupancy
  V  V0  1  0.14182600  0.14182600  0.14182600  1
  Sb  Sb0  1  0.85673000  0.85673000  0.85673000  1
  Sb  Sb1  1  0.64327100  0.64327100  0.64327100  1
  Sb  Sb2  1  0.35577100  0.35577100  0.35577100  1
  P  P0  1  0.53512900  0.96223200  0.24869900  1
  P  P1  1  0.24869900  0.53512900  0.96223200  1
  P  P2  1  0.96223200  0.24869900  0.53512900  1
  P  P3  1  0.03881600  0.75027700  0.46060300  1
  P  P4  1  0.75027700  0.46060300  0.03881600  1
  P  P5  1  0.46060300  0.03881600  0.75027700  1
  O  O0  1  0.48914600  0.86744600  0.71964500  1
  O  O1  1  0.86744600  0.71964500  0.48914600  1
  O  O2  1  0.72138000  0.93800800  0.07754400  1
  O  O3  1  0.71964500  0.48914600  0.86744600  1
  O  O4  1  0.56374100  0.78054100  0.42278500  1
  O  O5  1  0.36781900  0.99073000  0.22211000  1
  O  O6  1  0.07754400  0.72138000  0.93800800  1
  O  O7  1  0.42278500  0.56374100  0.78054100  1
  O  O8  1  0.78054100  0.42278500  0.56374100  1
  O  O9  1  0.01404900  0.76778400  0.63823000  1
  O  O10  1  0.06119500  0.92008600  0.28641200  1
  O  O11  1  0.76778400  0.63823000  0.01404900  1
  O  O12  1  0.22211000  0.36781900  0.99073000  1
  O  O13  1  0.93800800  0.07754400  0.72138000  1
  O  O14  1  0.99073000  0.22211000  0.36781900  1
  O  O15  1  0.21669000  0.57100900  0.44536400  1
  O  O16  1  0.57100900  0.44536400  0.21669000  1
  O  O17  1  0.92008600  0.28641200  0.06119500  1
  O  O18  1  0.63823000  0.01404900  0.76778400  1
  O  O19  1  0.44536400  0.21669000  0.57100900  1
  O  O20  1  0.27551700  0.51847700  0.13093500  1
  O  O21  1  0.28641200  0.06119500  0.92008600  1
  O  O22  1  0.13093500  0.27551700  0.51847700  1
  O  O23  1  0.51847700  0.13093500  0.27551700  1
loop_
_geom_bond_atom_site_label_1
_geom_bond_atom_site_label_2
_geom_bond_distance
_geom_bond_site_symmetry_2
O0 P5 1.557797 1_565
O0 Sb1 1.973059 1_555
O1 P3 1.557797 1_655
O1 Sb1 1.973059 1_555
O2 P0 1.557651 1_555
O2 Sb0 1.981964 1_554
O3 P4 1.557797 1_556
O3 Sb1 1.973059 1_555
O4 P0 1.557231 1_555
O4 Sb1 1.968946 1_555
O5 P0 1.500701 1_555
O5 V0 2.005613 1_565
O6 P1 1.557651 1_555
O6 Sb0 1.981964 1_455
O7 P1 1.557231 1_555
O7 Sb1 1.968946 1_555
O8 P2 1.557231 1_555
O8 Sb1 1.968946 1_555
O9 P3 1.559782 1_555
O9 Sb0 1.989965 1_455
O10 P3 1.500930 1_555
O10 V0 1.978637 1_565
O11 P4 1.559783 1_555
O11 Sb0 1.989965 1_554
O12 P1 1.500701 1_555
O12 V0 2.005613 1_556
O13 P2 1.557651 1_555
O13 Sb0 1.981964 1_545
O14 P2 1.500701 1_555
O14 V0 2.005613 1_655
O15 P3 1.553475 1_555
O15 Sb2 1.978605 1_555
O16 P4 1.553475 1_555
O16 Sb2 1.978605 1_555
O17 P4 1.500931 1_555
O17 V0 1.978637 1_655
O18 P5 1.559783 1_555
O18 Sb0 1.989965 1_545
O19 P5 1.553475 1_555
O19 Sb2 1.978605 1_555
O20 P1 1.563354 1_554
O20 Sb2 1.995016 1_555
O21 P5 1.500930 1_555
O21 V0 1.978637 1_556
O22 P2 1.563354 1_455
O22 Sb2 1.995016 1_555
O23 P0 1.563354 1_545
O23 Sb2 1.995016 1_555
