# generated using pymatgen
data_Li2Cr3NiO8
_symmetry_space_group_name_H-M   'P 1'
_cell_length_a   8.33552700
_cell_length_b   8.38919617
_cell_length_c   8.30941328
_cell_angle_alpha   90.15752502
_cell_angle_beta   89.67840382
_cell_angle_gamma   90.11358920
_symmetry_Int_Tables_number   1
_chemical_formula_structural   Li2Cr3NiO8
_chemical_formula_sum   'Li8 Cr12 Ni4 O32'
_cell_volume   581.05126323
_cell_formula_units_Z   4
loop_
 _symmetry_equiv_pos_site_id
 _symmetry_equiv_pos_as_xyz
  1  'x, y, z'
loop_
 _atom_site_type_symbol
 _atom_site_label
 _atom_site_symmetry_multiplicity
 _atom_site_fract_x
 _atom_site_fract_y
 _atom_site_fract_z
 _atom_site_occupancy
  Li  Li0  1  0.99756800  0.99982000  0.00366700  1
  Li  Li1  1  0.25059500  0.25068700  0.25193600  1
  Li  Li2  1  0.24952000  0.75021900  0.74854900  1
  Li  Li3  1  0.49637000  0.00172400  0.49720100  1
  Li  Li4  1  0.49627400  0.49995000  0.99937700  1
  Li  Li5  1  0.75001000  0.24772200  0.74759100  1
  Li  Li6  1  0.75068200  0.75018100  0.24981500  1
  Li  Li7  1  0.99923400  0.49847600  0.50233000  1
  Cr  Cr0  1  0.12972800  0.12830700  0.62841500  1
  Cr  Cr1  1  0.12747500  0.37729400  0.87956900  1
  Cr  Cr2  1  0.12806000  0.62571300  0.13056000  1
  Cr  Cr3  1  0.37656200  0.38017600  0.62250900  1
  Cr  Cr4  1  0.37494600  0.62149900  0.37362900  1
  Cr  Cr5  1  0.37473000  0.87770100  0.12352700  1
  Cr  Cr6  1  0.62721500  0.37823400  0.37091200  1
  Cr  Cr7  1  0.62741500  0.12242700  0.12063900  1
  Cr  Cr8  1  0.62695200  0.86730000  0.87445800  1
  Cr  Cr9  1  0.87614700  0.12813000  0.37652300  1
  Cr  Cr10  1  0.87819700  0.87086700  0.62489800  1
  Cr  Cr11  1  0.87897000  0.62470000  0.88224800  1
  Ni  Ni0  1  0.12404900  0.87514000  0.37236200  1
  Ni  Ni1  1  0.37263500  0.12500800  0.87654200  1
  Ni  Ni2  1  0.62318900  0.62516700  0.62451800  1
  Ni  Ni3  1  0.87185700  0.37337300  0.12344500  1
  O  O0  1  0.10243700  0.12978200  0.39474200  1
  O  O1  1  0.11114900  0.88823400  0.60460800  1
  O  O2  1  0.11630800  0.61571500  0.89405400  1
  O  O3  1  0.12178400  0.13985900  0.85529500  1
  O  O4  1  0.12344400  0.38971400  0.10357300  1
  O  O5  1  0.13910300  0.36484800  0.64083900  1
  O  O6  1  0.13293900  0.62575100  0.35252000  1
  O  O7  1  0.13682600  0.86398000  0.14314100  1
  O  O8  1  0.35299500  0.14390900  0.62360300  1
  O  O9  1  0.35519600  0.36779800  0.85945800  1
  O  O10  1  0.35898700  0.64429200  0.13022600  1
  O  O11  1  0.37656200  0.60327700  0.61244400  1
  O  O12  1  0.35501300  0.86322300  0.35846300  1
  O  O13  1  0.39083600  0.38500900  0.38558700  1
  O  O14  1  0.39496200  0.10409600  0.13083500  1
  O  O15  1  0.38997300  0.87741400  0.89462100  1
  O  O16  1  0.60321300  0.37050600  0.60567000  1
  O  O17  1  0.61467100  0.60602800  0.37877700  1
  O  O18  1  0.61358200  0.88447100  0.10866200  1
  O  O19  1  0.62271600  0.35800400  0.14295200  1
  O  O20  1  0.62465000  0.10466300  0.89594600  1
  O  O21  1  0.64255700  0.13341300  0.35994600  1
  O  O22  1  0.64602700  0.88088100  0.64478800  1
  O  O23  1  0.64153400  0.64375300  0.87558700  1
  O  O24  1  0.85878600  0.35707300  0.37370200  1
  O  O25  1  0.85587500  0.13089600  0.14038600  1
  O  O26  1  0.86668200  0.85664300  0.86401300  1
  O  O27  1  0.89038300  0.89197200  0.38685100  1
  O  O28  1  0.87382000  0.64751900  0.64370000  1
  O  O29  1  0.89082900  0.10631000  0.61530600  1
  O  O30  1  0.89379200  0.39878600  0.86702600  1
  O  O31  1  0.89398700  0.62250000  0.10759600  1
loop_
_geom_bond_atom_site_label_1
_geom_bond_atom_site_label_2
_geom_bond_distance
_geom_bond_site_symmetry_2
Li0 O25 1.969256 1_565
Li0 O3 1.990244 1_664
Li0 O26 1.995246 1_554
Li0 O7 2.004211 1_655
Li1 O13 1.967774 1_555
Li1 O0 1.986771 1_555
Li1 O14 1.989607 1_555
Li1 O4 2.007719 1_555
Li2 O11 1.975888 1_555
Li2 O2 1.988845 1_555
Li2 O15 1.996597 1_555
Li2 O1 2.032208 1_555
Li3 O8 1.984679 1_555
Li3 O21 1.998026 1_555
Li3 O12 2.017392 1_545
Li3 O22 2.029017 1_545
Li4 O10 1.985531 1_556
Li4 O23 1.991627 1_555
Li4 O9 1.991687 1_555
Li4 O19 1.994763 1_556
Li5 O16 1.994209 1_555
Li5 O29 1.994323 1_555
Li5 O30 2.006939 1_555
Li5 O20 2.010130 1_555
Li6 O17 1.970832 1_555
Li6 O31 1.988226 1_555
Li6 O18 1.994567 1_555
Li6 O27 2.017304 1_555
Li7 O6 1.979595 1_655
Li7 O24 1.980332 1_555
Li7 O5 1.991976 1_655
Li7 O28 2.004861 1_555
Cr0 O8 1.865599 1_555
Cr0 O3 1.888260 1_555
Cr0 O0 1.956310 1_555
Cr0 O5 1.988193 1_555
Cr0 O29 2.003062 1_455
Cr0 O1 2.028869 1_545
Cr1 O4 1.864088 1_556
Cr1 O9 1.906385 1_555
Cr1 O30 1.959936 1_455
Cr1 O5 1.987996 1_555
Cr1 O3 2.002019 1_555
Cr1 O2 2.005762 1_555
Cr2 O6 1.845033 1_555
Cr2 O10 1.930877 1_555
Cr2 O31 1.961621 1_455
Cr2 O2 1.969763 1_554
Cr2 O4 1.992208 1_555
Cr2 O7 2.002524 1_555
Cr3 O11 1.873735 1_555
Cr3 O16 1.895527 1_555
Cr3 O13 1.972132 1_555
Cr3 O9 1.978942 1_555
Cr3 O5 1.988280 1_555
Cr3 O8 1.991454 1_555
Cr4 O11 1.990834 1_555
Cr4 O13 1.991430 1_555
Cr4 O17 2.003405 1_555
Cr4 O6 2.026241 1_555
Cr4 O10 2.037194 1_555
Cr4 O12 2.039294 1_555
Cr5 O15 1.905597 1_554
Cr5 O14 1.907242 1_565
Cr5 O12 1.962242 1_555
Cr5 O10 1.963168 1_555
Cr5 O7 1.991956 1_555
Cr5 O18 1.994799 1_555
Cr6 O19 1.901909 1_555
Cr6 O17 1.914990 1_555
Cr6 O24 1.939037 1_555
Cr6 O16 1.961053 1_555
Cr6 O13 1.974351 1_555
Cr6 O21 2.059817 1_555
Cr7 O20 1.872864 1_554
Cr7 O25 1.913470 1_555
Cr7 O14 1.944798 1_555
Cr7 O19 1.984915 1_555
Cr7 O21 1.995075 1_555
Cr7 O18 2.001593 1_545
Cr8 O23 1.879607 1_555
Cr8 O22 1.917826 1_555
Cr8 O18 1.953601 1_556
Cr8 O15 1.983464 1_555
Cr8 O20 1.998905 1_565
Cr8 O26 2.001837 1_555
Cr9 O0 1.893179 1_655
Cr9 O24 1.926595 1_555
Cr9 O21 1.953332 1_555
Cr9 O25 1.970571 1_555
Cr9 O27 1.987080 1_545
Cr9 O29 1.997532 1_555
Cr10 O28 1.880905 1_555
Cr10 O22 1.943342 1_555
Cr10 O1 1.953328 1_655
Cr10 O29 1.979574 1_565
Cr10 O27 1.988434 1_555
Cr10 O26 1.992577 1_555
Cr11 O31 1.877534 1_556
Cr11 O30 1.903318 1_555
Cr11 O26 1.955053 1_555
Cr11 O2 1.982911 1_655
Cr11 O23 1.987007 1_555
Cr11 O28 1.992651 1_555
Ni0 O7 1.909121 1_555
Ni0 O12 1.930792 1_555
Ni0 O1 1.935050 1_555
Ni0 O27 1.956131 1_455
Ni0 O6 2.099630 1_555
Ni0 O0 2.151634 1_565
Ni1 O9 2.047654 1_555
Ni1 O15 2.088303 1_545
Ni1 O3 2.103371 1_555
Ni1 O20 2.115030 1_555
Ni1 O8 2.115466 1_555
Ni1 O14 2.129994 1_556
Ni2 O17 2.049443 1_555
Ni2 O11 2.066562 1_555
Ni2 O23 2.098040 1_555
Ni2 O28 2.104068 1_555
Ni2 O16 2.147907 1_555
Ni2 O22 2.159490 1_555
Ni3 O25 2.043470 1_555
Ni3 O19 2.085892 1_555
Ni3 O24 2.086577 1_555
Ni3 O31 2.102161 1_555
Ni3 O4 2.106900 1_655
Ni3 O30 2.148650 1_554
