# generated using pymatgen
data_Li5Fe4P4O16F
_symmetry_space_group_name_H-M   'P 1'
_cell_length_a   8.30637992
_cell_length_b   8.30637992
_cell_length_c   8.30637992
_cell_angle_alpha   95.93920808
_cell_angle_beta   95.93920808
_cell_angle_gamma   142.47179832
_symmetry_Int_Tables_number   1
_chemical_formula_structural   Li5Fe4P4O16F
_chemical_formula_sum   'Li5 Fe4 P4 O16 F1'
_cell_volume   330.55412523
_cell_formula_units_Z   1
loop_
 _symmetry_equiv_pos_site_id
 _symmetry_equiv_pos_as_xyz
  1  'x, y, z'
loop_
 _atom_site_type_symbol
 _atom_site_label
 _atom_site_symmetry_multiplicity
 _atom_site_fract_x
 _atom_site_fract_y
 _atom_site_fract_z
 _atom_site_occupancy
  Li  Li0  1  0.50000000  0.50000000  0.00000000  1
  Li  Li1  1  0.11512500  0.44395300  0.44775600  1
  Li  Li2  1  0.33263100  0.88487500  0.32882800  1
  Li  Li3  1  0.55604700  0.00380300  0.67117200  1
  Li  Li4  1  0.99619700  0.66736900  0.55224400  1
  Fe  Fe0  1  0.84769000  0.12685300  0.04233500  1
  Fe  Fe1  1  0.87314700  0.91548100  0.72083700  1
  Fe  Fe2  1  0.19464500  0.15231000  0.27916300  1
  Fe  Fe3  1  0.08451900  0.80535500  0.95766500  1
  P  P0  1  0.62737000  0.78892500  0.34814100  1
  P  P1  1  0.72077100  0.37263000  0.16155500  1
  P  P2  1  0.21107500  0.55921600  0.83844500  1
  P  P3  1  0.44078400  0.27922900  0.65185900  1
  O  O0  1  0.38411300  0.50547200  0.20413400  1
  O  O1  1  0.84555400  0.03731400  0.27114700  1
  O  O2  1  0.20582100  0.67472100  0.99129500  1
  O  O3  1  0.32527900  0.31657400  0.53110000  1
  O  O4  1  0.50834100  0.83224300  0.44326300  1
  O  O5  1  0.93492200  0.49165900  0.32390100  1
  O  O6  1  0.82002100  0.61588700  0.12135900  1
  O  O7  1  0.42559300  0.15444600  0.19176000  1
  O  O8  1  0.96268600  0.23383300  0.80824000  1
  O  O9  1  0.49452800  0.69866200  0.87864100  1
  O  O10  1  0.16775700  0.61102100  0.67609900  1
  O  O11  1  0.38897900  0.06507800  0.55673700  1
  O  O12  1  0.78547400  0.79417900  0.46890000  1
  O  O13  1  0.68342600  0.21452600  0.00870500  1
  O  O14  1  0.76616700  0.57440700  0.72885300  1
  O  O15  1  0.30133800  0.17997900  0.79586600  1
  F  F0  1  0.00000000  0.00000000  0.00000000  1
loop_
_geom_bond_atom_site_label_1
_geom_bond_atom_site_label_2
_geom_bond_distance
_geom_bond_site_symmetry_2
Li0 O0 2.048170 1_555
Li0 O6 2.048170 1_555
Li0 O15 2.048170 1_554
Li0 O9 2.048170 1_554
Li1 O10 2.008936 1_555
Li1 O5 2.040199 1_455
Li1 O4 2.100792 1_555
Li1 O1 2.207591 1_455
Li2 O4 2.008926 1_555
Li2 O11 2.040199 1_565
Li2 O5 2.100789 1_455
Li2 O7 2.207591 1_565
Li3 O11 2.008933 1_555
Li3 O4 2.040195 1_545
Li3 O10 2.100792 1_545
Li3 O8 2.207591 1_555
Li4 O5 2.008933 1_555
Li4 O10 2.040192 1_655
Li4 O11 2.100789 1_665
Li4 O14 2.207591 1_555
Fe0 O13 2.002329 1_555
Fe0 O1 2.108158 1_555
Fe0 O9 2.174706 1_544
Fe0 O8 2.208782 1_554
Fe1 O12 2.002328 1_555
Fe1 O8 2.108166 1_565
Fe1 O15 2.174703 1_665
Fe1 O14 2.208774 1_555
Fe2 O3 2.002329 1_555
Fe2 O7 2.108158 1_555
Fe2 O0 2.174706 1_555
Fe2 O1 2.208782 1_455
Fe3 O2 2.002321 1_555
Fe3 O14 2.108161 1_455
Fe3 O6 2.174710 1_456
Fe3 O7 2.208781 1_566
O0 P0 1.558317 1_555
O1 P0 1.591389 1_545
O2 P2 1.536282 1_555
O3 P3 1.536282 1_555
O4 P0 1.548668 1_555
O5 P1 1.548662 1_555
O6 P1 1.558317 1_555
O7 P1 1.591389 1_555
O8 P2 1.591389 1_655
O9 P2 1.558317 1_555
O10 P2 1.548665 1_555
O11 P3 1.548662 1_555
O12 P0 1.536282 1_555
O13 P1 1.536282 1_555
O14 P3 1.591389 1_555
O15 P3 1.558317 1_555
F0 Fe1 2.228067 1_444
F0 Fe2 2.228069 1_555
F0 Fe0 2.228069 1_455
F0 Fe3 2.228076 1_544
