# generated using pymatgen
data_Na2(NiO2)7
_symmetry_space_group_name_H-M   'P 1'
_cell_length_a   4.84406100
_cell_length_b   6.50572648
_cell_length_c   9.01526939
_cell_angle_alpha   99.80471673
_cell_angle_beta   94.73478836
_cell_angle_gamma   103.70902700
_symmetry_Int_Tables_number   1
_chemical_formula_structural   Na2(NiO2)7
_chemical_formula_sum   'Na2 Ni7 O14'
_cell_volume   269.73253425
_cell_formula_units_Z   1
loop_
 _symmetry_equiv_pos_site_id
 _symmetry_equiv_pos_as_xyz
  1  'x, y, z'
loop_
 _atom_site_type_symbol
 _atom_site_label
 _atom_site_symmetry_multiplicity
 _atom_site_fract_x
 _atom_site_fract_y
 _atom_site_fract_z
 _atom_site_occupancy
  Na  Na0  1  0.13623000  0.77980400  0.78651100  1
  Na  Na1  1  0.86377000  0.22019600  0.21348900  1
  Ni  Ni0  1  0.56741900  0.14347600  0.64140400  1
  Ni  Ni1  1  0.43258100  0.85652400  0.35859600  1
  Ni  Ni2  1  0.13635000  0.28166700  0.78474500  1
  Ni  Ni3  1  0.28968100  0.57393400  0.07288600  1
  Ni  Ni4  1  0.00000000  0.00000000  0.50000000  1
  Ni  Ni5  1  0.86365000  0.71833300  0.21525500  1
  Ni  Ni6  1  0.71031900  0.42606600  0.92711400  1
  O  O0  1  0.69989700  0.12005200  0.44791200  1
  O  O1  1  0.42059900  0.14347800  0.82442200  1
  O  O2  1  0.40112500  0.54354900  0.87153700  1
  O  O3  1  0.59887500  0.45645100  0.12846300  1
  O  O4  1  0.57940100  0.85652200  0.17557800  1
  O  O5  1  0.26686100  0.26351500  0.59167900  1
  O  O6  1  0.30010300  0.87994800  0.55208800  1
  O  O7  1  0.86864900  0.01918800  0.69128400  1
  O  O8  1  0.83741400  0.40432400  0.73068400  1
  O  O9  1  0.16258600  0.59567600  0.26931600  1
  O  O10  1  0.13135100  0.98081200  0.30871600  1
  O  O11  1  0.73313900  0.73648500  0.40832100  1
  O  O12  1  0.99904300  0.29160800  0.97186200  1
  O  O13  1  0.00095700  0.70839200  0.02813800  1
loop_
_geom_bond_atom_site_label_1
_geom_bond_atom_site_label_2
_geom_bond_distance
_geom_bond_site_symmetry_2
Na0 O1 2.390442 1_565
Na0 O2 2.402121 1_555
Na0 O13 2.413790 1_556
Na0 O6 2.453929 1_555
Na0 O7 2.463926 1_465
Na0 O8 2.469961 1_455
Na1 O4 2.390442 1_545
Na1 O3 2.402121 1_555
Na1 O12 2.413790 1_554
Na1 O0 2.453929 1_555
Na1 O10 2.463926 1_645
Na1 O9 2.469961 1_655
Ni0 O1 1.849835 1_555
Ni0 O5 1.865726 1_555
Ni0 O8 1.883408 1_555
Ni0 O7 1.886787 1_555
Ni0 O6 1.889411 1_545
Ni0 O0 1.902244 1_555
Ni1 O4 1.849835 1_555
Ni1 O11 1.865726 1_555
Ni1 O9 1.883408 1_555
Ni1 O10 1.886787 1_555
Ni1 O0 1.889411 1_565
Ni1 O6 1.902244 1_555
Ni2 O1 1.856620 1_555
Ni2 O12 1.860295 1_455
Ni2 O2 1.872038 1_555
Ni2 O8 1.880113 1_455
Ni2 O7 1.894069 1_455
Ni2 O5 1.894770 1_555
Ni3 O13 1.868400 1_555
Ni3 O3 1.904630 1_555
Ni3 O9 1.915977 1_555
Ni3 O2 1.927604 1_554
Ni3 O12 2.044040 1_454
Ni3 O4 2.046816 1_555
Ni4 O0 1.869272 1_455
Ni4 O6 1.869272 1_545
Ni4 O10 1.881413 1_545
Ni4 O7 1.881413 1_455
Ni4 O5 1.893097 1_555
Ni4 O11 1.893097 1_445
Ni5 O4 1.856620 1_555
Ni5 O13 1.860295 1_655
Ni5 O3 1.872038 1_555
Ni5 O9 1.880113 1_655
Ni5 O10 1.894069 1_655
Ni5 O11 1.894770 1_555
Ni6 O12 1.868400 1_555
Ni6 O2 1.904630 1_555
Ni6 O8 1.915977 1_555
Ni6 O3 1.927604 1_556
Ni6 O13 2.044040 1_656
Ni6 O1 2.046816 1_555
