# generated using pymatgen
data_K4Li5Mn2O8
_symmetry_space_group_name_H-M   'P 1'
_cell_length_a   5.55544200
_cell_length_b   8.92256475
_cell_length_c   10.95176928
_cell_angle_alpha   90.90499857
_cell_angle_beta   100.01470079
_cell_angle_gamma   90.05913512
_symmetry_Int_Tables_number   1
_chemical_formula_structural   K4Li5Mn2O8
_chemical_formula_sum   'K8 Li10 Mn4 O16'
_cell_volume   534.52378138
_cell_formula_units_Z   2
loop_
 _symmetry_equiv_pos_site_id
 _symmetry_equiv_pos_as_xyz
  1  'x, y, z'
loop_
 _atom_site_type_symbol
 _atom_site_label
 _atom_site_symmetry_multiplicity
 _atom_site_fract_x
 _atom_site_fract_y
 _atom_site_fract_z
 _atom_site_occupancy
  K  K0  1  0.92521900  0.00965900  0.15117900  1
  K  K1  1  0.83390600  0.76146000  0.63575100  1
  K  K2  1  0.66944200  0.49251700  0.37012000  1
  K  K3  1  0.59684800  0.23800100  0.85331500  1
  K  K4  1  0.37516700  0.75971000  0.15727000  1
  K  K5  1  0.28956700  0.46883000  0.64797600  1
  K  K6  1  0.16573600  0.23230400  0.37179800  1
  K  K7  1  0.06597200  0.03634400  0.81589100  1
  Li  Li0  1  0.90131200  0.74649600  0.30532700  1
  Li  Li1  1  0.89969300  0.47194700  0.80094900  1
  Li  Li2  1  0.68969600  0.48602600  0.07422600  1
  Li  Li3  1  0.77076600  0.98316300  0.42318200  1
  Li  Li4  1  0.58929000  0.24227000  0.19750400  1
  Li  Li5  1  0.40755100  0.76228600  0.79888800  1
  Li  Li6  1  0.46909800  0.97658900  0.99444200  1
  Li  Li7  1  0.31390100  0.52720500  0.93373700  1
  Li  Li8  1  0.22093200  0.01472000  0.56477800  1
  Li  Li9  1  0.08941000  0.51812600  0.20147300  1
  Mn  Mn0  1  0.84563600  0.71237900  0.95317100  1
  Mn  Mn1  1  0.15941600  0.30054700  0.05023700  1
  Mn  Mn2  1  0.31828500  0.77272300  0.44696500  1
  Mn  Mn3  1  0.70066100  0.21936700  0.55497100  1
  O  O0  1  0.90332300  0.32055800  0.15052700  1
  O  O1  1  0.84931600  0.69266100  0.12877900  1
  O  O2  1  0.89193200  0.05966300  0.58917800  1
  O  O3  1  0.78329800  0.40557800  0.62377800  1
  O  O4  1  0.66640400  0.19473200  0.38191100  1
  O  O5  1  0.67666200  0.90298400  0.90365600  1
  O  O6  1  0.60566800  0.78300800  0.38826900  1
  O  O7  1  0.64515700  0.54285900  0.89191800  1
  O  O8  1  0.36646500  0.46405300  0.11930100  1
  O  O9  1  0.41552500  0.19441900  0.60664000  1
  O  O10  1  0.33143400  0.10551600  0.08507300  1
  O  O11  1  0.32463700  0.80301300  0.61228100  1
  O  O12  1  0.18039400  0.60126400  0.37030900  1
  O  O13  1  0.10258700  0.91803800  0.38584400  1
  O  O14  1  0.15206000  0.33085000  0.88200100  1
  O  O15  1  0.10651900  0.69523800  0.85938800  1
loop_
_geom_bond_atom_site_label_1
_geom_bond_atom_site_label_2
_geom_bond_distance
_geom_bond_site_symmetry_2
K0 O10 2.632906 1_655
K0 O13 2.726056 1_645
K0 O0 2.776875 1_555
K0 O1 2.859664 1_545
K0 O5 2.962277 1_544
K1 O15 2.720098 1_655
K1 O2 2.746247 1_565
K1 O6 2.795080 1_555
K1 O11 2.807221 1_655
K1 O11 2.821389 1_555
K1 O3 3.186136 1_555
K2 O6 2.625494 1_555
K2 O4 2.662357 1_555
K2 O3 2.859559 1_555
K2 O12 2.886217 1_555
K2 O8 2.968519 1_555
K2 O12 2.998524 1_655
K3 O14 2.675227 1_555
K3 O9 2.735636 1_555
K3 O7 2.751816 1_555
K4 O6 2.634241 1_555
K4 O8 2.663172 1_555
K4 O1 2.770740 1_555
K5 O9 2.601576 1_555
K5 O3 2.834067 1_455
K5 O3 2.857184 1_555
K5 O11 3.023878 1_555
K5 O14 3.073574 1_555
K5 O7 3.095506 1_555
K5 O12 3.238057 1_555
K6 O9 2.727986 1_555
K6 O0 2.729780 1_455
K6 O4 2.785134 1_555
K6 O4 2.815296 1_455
K6 O13 2.835463 1_545
K7 O2 2.514905 1_455
K7 O14 2.734022 1_555
K7 O5 2.787698 1_445
Li0 O1 1.956724 1_555
Li0 O13 1.995370 1_655
Li0 O6 2.034574 1_555
Li0 O12 2.058886 1_655
Li1 O7 1.965799 1_555
Li1 O14 1.986109 1_655
Li1 O3 2.015005 1_555
Li1 O15 2.323454 1_655
Li2 O8 1.953784 1_555
Li2 O0 1.996040 1_555
Li2 O7 2.040878 1_554
Li2 O1 2.078494 1_555
Li3 O2 1.938607 1_565
Li3 O6 2.007471 1_555
Li3 O4 2.010488 1_565
Li3 O13 2.039588 1_655
Li4 O0 2.029100 1_555
Li4 O4 2.041733 1_555
Li4 O10 2.095840 1_555
Li4 O8 2.423158 1_555
Li5 O15 1.997389 1_555
Li5 O11 2.053591 1_555
Li5 O5 2.116988 1_555
Li5 O7 2.492837 1_555
Li6 O10 1.767252 1_566
Li6 O5 1.768964 1_555
Li7 O7 1.977498 1_555
Li7 O15 1.988480 1_555
Li7 O14 1.996771 1_555
Li7 O8 2.088767 1_556
Li8 O2 1.934127 1_455
Li8 O9 1.936620 1_555
Li8 O11 2.024802 1_545
Li8 O13 2.124606 1_545
Li9 O12 1.963566 1_555
Li9 O8 1.970087 1_555
Li9 O0 2.062063 1_455
Li9 O1 2.124199 1_455
Mn0 O7 1.919084 1_555
Mn0 O15 1.921474 1_655
Mn0 O1 1.930586 1_556
Mn0 O5 1.980652 1_555
Mn1 O14 1.859862 1_554
Mn1 O8 1.919017 1_555
Mn1 O0 1.949405 1_455
Mn1 O10 1.996149 1_555
Mn2 O11 1.820580 1_555
Mn2 O13 1.821198 1_555
Mn2 O6 1.824580 1_555
Mn2 O12 1.834504 1_555
Mn3 O2 1.783684 1_555
Mn3 O9 1.787176 1_555
Mn3 O3 1.837846 1_555
Mn3 O4 1.880970 1_555
