# generated using pymatgen
data_H8Se2N2O5
_symmetry_space_group_name_H-M   'P 1'
_cell_length_a   7.06424300
_cell_length_b   7.55196100
_cell_length_c   13.53868600
_cell_angle_alpha   90.00000000
_cell_angle_beta   90.00000000
_cell_angle_gamma   90.00000000
_symmetry_Int_Tables_number   1
_chemical_formula_structural   H8Se2N2O5
_chemical_formula_sum   'H32 Se8 N8 O20'
_cell_volume   722.27383808
_cell_formula_units_Z   4
loop_
 _symmetry_equiv_pos_site_id
 _symmetry_equiv_pos_as_xyz
  1  'x, y, z'
loop_
 _atom_site_type_symbol
 _atom_site_label
 _atom_site_symmetry_multiplicity
 _atom_site_fract_x
 _atom_site_fract_y
 _atom_site_fract_z
 _atom_site_occupancy
  H  H0  1  0.21072600  0.62997400  0.95351800  1
  H  H1  1  0.71072600  0.87002600  0.04648200  1
  H  H2  1  0.78927400  0.12997400  0.54648200  1
  H  H3  1  0.28927400  0.37002600  0.45351800  1
  H  H4  1  0.13515300  0.63208200  0.07606900  1
  H  H5  1  0.63515300  0.86791800  0.92393100  1
  H  H6  1  0.86484700  0.13208200  0.42393100  1
  H  H7  1  0.36484700  0.36791800  0.57606900  1
  H  H8  1  0.07057600  0.79398400  0.99305500  1
  H  H9  1  0.57057600  0.70601600  0.00694500  1
  H  H10  1  0.92942400  0.29398400  0.50694500  1
  H  H11  1  0.42942400  0.20601600  0.49305500  1
  H  H12  1  0.98415600  0.58256200  0.98007900  1
  H  H13  1  0.48415600  0.91743800  0.01992100  1
  H  H14  1  0.01584400  0.08256200  0.51992100  1
  H  H15  1  0.51584400  0.41743800  0.48007900  1
  H  H16  1  0.63272200  0.24730300  0.25369700  1
  H  H17  1  0.13272200  0.25269700  0.74630300  1
  H  H18  1  0.36727800  0.74730300  0.24630300  1
  H  H19  1  0.86727800  0.75269700  0.75369700  1
  H  H20  1  0.60042800  0.45656300  0.29086000  1
  H  H21  1  0.10042800  0.04343700  0.70914000  1
  H  H22  1  0.39957200  0.95656300  0.20914000  1
  H  H23  1  0.89957200  0.54343700  0.79086000  1
  H  H24  1  0.54559500  0.40105300  0.17028500  1
  H  H25  1  0.04559500  0.09894700  0.82971500  1
  H  H26  1  0.45440500  0.90105300  0.32971500  1
  H  H27  1  0.95440500  0.59894700  0.67028500  1
  H  H28  1  0.40750900  0.33440600  0.26693500  1
  H  H29  1  0.90750900  0.16559400  0.73306500  1
  H  H30  1  0.59249100  0.83440600  0.23306500  1
  H  H31  1  0.09249100  0.66559400  0.76693500  1
  Se  Se0  1  0.14796000  0.17478100  0.03445900  1
  Se  Se1  1  0.64796000  0.32521900  0.96554100  1
  Se  Se2  1  0.85204000  0.67478100  0.46554100  1
  Se  Se3  1  0.35204000  0.82521900  0.53445900  1
  Se  Se4  1  0.95790300  0.99251200  0.22577700  1
  Se  Se5  1  0.45790300  0.50748800  0.77422300  1
  Se  Se6  1  0.04209700  0.49251200  0.27422300  1
  Se  Se7  1  0.54209700  0.00748800  0.72577700  1
  N  N0  1  0.09979100  0.65863100  0.00203900  1
  N  N1  1  0.59979100  0.84136900  0.99796100  1
  N  N2  1  0.90020900  0.15863100  0.49796100  1
  N  N3  1  0.40020900  0.34136900  0.50203900  1
  N  N4  1  0.54641200  0.35917100  0.24437100  1
  N  N5  1  0.04641200  0.14082900  0.75562900  1
  N  N6  1  0.45358800  0.85917100  0.25562900  1
  N  N7  1  0.95358800  0.64082900  0.74437100  1
  O  O0  1  0.32648400  0.06773700  0.09413000  1
  O  O1  1  0.82648400  0.43226300  0.90587000  1
  O  O2  1  0.67351600  0.56773700  0.40587000  1
  O  O3  1  0.17351600  0.93226300  0.59413000  1
  O  O4  1  0.05888300  0.02367900  0.95456000  1
  O  O5  1  0.55888300  0.47632100  0.04544000  1
  O  O6  1  0.94111700  0.52367900  0.54544000  1
  O  O7  1  0.44111700  0.97632100  0.45456000  1
  O  O8  1  0.95952400  0.17918200  0.13103300  1
  O  O9  1  0.45952400  0.32081800  0.86896700  1
  O  O10  1  0.04047600  0.67918200  0.36896700  1
  O  O11  1  0.54047600  0.82081800  0.63103300  1
  O  O12  1  0.79570200  0.08848600  0.30083900  1
  O  O13  1  0.29570200  0.41151400  0.69916100  1
  O  O14  1  0.20429800  0.58848600  0.19916100  1
  O  O15  1  0.70429800  0.91151400  0.80083900  1
  O  O16  1  0.83368400  0.83724300  0.16378600  1
  O  O17  1  0.33368400  0.66275700  0.83621400  1
  O  O18  1  0.16631600  0.33724300  0.33621400  1
  O  O19  1  0.66631600  0.16275700  0.66378600  1
loop_
_geom_bond_atom_site_label_1
_geom_bond_atom_site_label_2
_geom_bond_distance
_geom_bond_site_symmetry_2
H0 N0 1.045232 1_556
H1 N1 1.045232 1_554
H2 N2 1.045232 1_555
H3 N3 1.045232 1_555
H4 N0 1.052210 1_555
H5 N1 1.052210 1_555
H6 N2 1.052210 1_555
H7 N3 1.052210 1_555
H8 N0 1.049877 1_556
H9 N1 1.049877 1_554
H10 N2 1.049877 1_555
H11 N3 1.049877 1_555
H12 N0 1.041965 1_656
H13 N1 1.041965 1_554
H14 N2 1.041965 1_455
H15 N3 1.041965 1_555
H16 N4 1.049485 1_555
H17 N5 1.049485 1_555
H18 N6 1.049485 1_555
H19 N7 1.049485 1_555
H20 N4 1.040534 1_555
H21 N5 1.040534 1_555
H22 N6 1.040534 1_555
H23 N7 1.040534 1_555
H24 N4 1.051730 1_555
H25 N5 1.051730 1_555
H26 N6 1.051730 1_555
H27 N7 1.051730 1_555
H28 N4 1.044577 1_555
H29 N5 1.044577 1_655
H30 N6 1.044577 1_555
H31 N7 1.044577 1_455
O0 Se0 1.701944 1_555
O1 Se1 1.701944 1_555
O2 Se2 1.701944 1_555
O3 Se3 1.701944 1_555
O4 Se0 1.693591 1_556
O5 Se1 1.693591 1_554
O6 Se2 1.693591 1_555
O7 Se3 1.693591 1_555
O8 Se0 1.866173 1_655
O8 Se4 1.905990 1_545
O9 Se1 1.866173 1_555
O9 Se5 1.905990 1_555
O10 Se2 1.866173 1_455
O10 Se6 1.905990 1_555
O11 Se3 1.866173 1_555
O11 Se7 1.905990 1_565
O12 Se4 1.694399 1_545
O13 Se5 1.694399 1_555
O14 Se6 1.694399 1_555
O15 Se7 1.694399 1_565
O16 Se4 1.688008 1_555
O17 Se5 1.688008 1_555
O18 Se6 1.688008 1_555
O19 Se7 1.688008 1_555
