# generated using pymatgen
data_Ce2Ga10Ni
_symmetry_space_group_name_H-M   'P 1'
_cell_length_a   13.46279497
_cell_length_b   13.46279497
_cell_length_c   13.46279497
_cell_angle_alpha   161.44720449
_cell_angle_beta   161.44720449
_cell_angle_gamma   26.35486558
_symmetry_Int_Tables_number   1
_chemical_formula_structural   Ce2Ga10Ni
_chemical_formula_sum   'Ce2 Ga10 Ni1'
_cell_volume   246.94052841
_cell_formula_units_Z   1
loop_
 _symmetry_equiv_pos_site_id
 _symmetry_equiv_pos_as_xyz
  1  'x, y, z'
loop_
 _atom_site_type_symbol
 _atom_site_label
 _atom_site_symmetry_multiplicity
 _atom_site_fract_x
 _atom_site_fract_y
 _atom_site_fract_z
 _atom_site_occupancy
  Ce  Ce0  1  0.64219800  0.64219800  0.00000000  1
  Ce  Ce1  1  0.35780200  0.35780200  0.00000000  1
  Ga  Ga0  1  0.80388500  0.80388500  0.00000000  1
  Ga  Ga1  1  0.25000000  0.75000000  0.50000000  1
  Ga  Ga2  1  0.75000000  0.25000000  0.50000000  1
  Ga  Ga3  1  0.45081900  0.95081900  0.50000000  1
  Ga  Ga4  1  0.95081900  0.45081900  0.50000000  1
  Ga  Ga5  1  0.54918100  0.04918100  0.50000000  1
  Ga  Ga6  1  0.04918100  0.54918100  0.50000000  1
  Ga  Ga7  1  0.10423600  0.10423600  0.00000000  1
  Ga  Ga8  1  0.89576400  0.89576400  0.00000000  1
  Ga  Ga9  1  0.19611500  0.19611500  0.00000000  1
  Ni  Ni0  1  0.50000000  0.50000000  0.00000000  1
loop_
_geom_bond_atom_site_label_1
_geom_bond_atom_site_label_2
_geom_bond_distance
_geom_bond_site_symmetry_2
Ce0 Ga7 3.226412 1_554
Ce0 Ga7 3.226412 1_565
Ce0 Ga7 3.226412 1_655
Ce0 Ga7 3.226412 1_666
Ce0 Ga6 3.264405 1_655
Ce0 Ga5 3.264405 1_565
Ce0 Ga5 3.264405 1_554
Ce0 Ga6 3.264405 1_554
Ce0 Ga9 3.378947 1_565
Ce0 Ga9 3.378947 1_655
Ce0 Ga9 3.378947 1_666
Ce0 Ga9 3.378947 1_554
Ce0 Ga2 3.563291 1_565
Ce0 Ga1 3.563291 1_554
Ce0 Ga1 3.563291 1_655
Ce0 Ga2 3.563291 1_554
Ce1 Ga8 3.226412 1_444
Ce1 Ga8 3.226412 1_455
Ce1 Ga8 3.226412 1_556
Ce1 Ga8 3.226412 1_545
Ce1 Ga3 3.264405 1_544
Ce1 Ga4 3.264405 1_454
Ce1 Ga3 3.264405 1_555
Ce1 Ga4 3.264405 1_555
Ce1 Ga0 3.378947 1_444
Ce1 Ga0 3.378947 1_545
Ce1 Ga0 3.378947 1_455
Ce1 Ga0 3.378947 1_556
Ce1 Ga2 3.563291 1_454
Ce1 Ga1 3.563291 1_544
Ce1 Ga2 3.563291 1_555
Ce1 Ga1 3.563291 1_555
Ga0 Ga8 2.408756 1_555
Ga0 Ga1 2.589458 1_655
Ga0 Ga1 2.589458 1_554
Ga0 Ga2 2.589458 1_565
Ga0 Ga2 2.589458 1_554
Ga1 Ga9 2.589458 1_555
Ga1 Ga9 2.589458 1_566
Ga2 Ga9 2.589458 1_555
Ga2 Ga9 2.589458 1_656
Ga3 Ni0 2.524295 1_566
Ga3 Ni0 2.524295 1_555
Ga3 Ga5 2.578718 1_565
Ga3 Ga8 2.606318 1_455
Ga3 Ga8 2.606318 1_556
Ga4 Ni0 2.524295 1_656
Ga4 Ni0 2.524295 1_555
Ga4 Ga6 2.578718 1_655
Ga4 Ga8 2.606318 1_545
Ga4 Ga8 2.606318 1_556
Ga5 Ni0 2.524295 1_545
Ga5 Ni0 2.524295 1_556
Ga5 Ga7 2.606318 1_656
Ga5 Ga7 2.606318 1_555
Ga6 Ni0 2.524295 1_455
Ga6 Ni0 2.524295 1_556
Ga6 Ga7 2.606318 1_566
Ga6 Ga7 2.606318 1_555
Ga7 Ga9 2.408756 1_555
