# generated using pymatgen
data_UTeP
_symmetry_space_group_name_H-M   'P 1'
_cell_length_a   9.03527863
_cell_length_b   9.03527863
_cell_length_c   9.03527863
_cell_angle_alpha   153.59054719
_cell_angle_beta   153.59054719
_cell_angle_gamma   37.69501067
_symmetry_Int_Tables_number   1
_chemical_formula_structural   UTeP
_chemical_formula_sum   'U2 Te2 P2'
_cell_volume   145.70074169
_cell_formula_units_Z   2
loop_
 _symmetry_equiv_pos_site_id
 _symmetry_equiv_pos_as_xyz
  1  'x, y, z'
loop_
 _atom_site_type_symbol
 _atom_site_label
 _atom_site_symmetry_multiplicity
 _atom_site_fract_x
 _atom_site_fract_y
 _atom_site_fract_z
 _atom_site_occupancy
  U  U0  1  0.89102095  0.89102095  -0.00000000  1
  U  U1  1  0.10897905  0.10897905  0.00000000  1
  Te  Te0  1  0.31739469  0.31739469  0.00000000  1
  Te  Te1  1  0.68260531  0.68260531  -0.00000000  1
  P  P0  1  0.50000000  0.00000000  0.50000000  1
  P  P1  1  0.00000000  0.50000000  0.50000000  1
loop_
_geom_bond_atom_site_label_1
_geom_bond_atom_site_label_2
_geom_bond_distance
_geom_bond_site_symmetry_2
Te0 U0 3.178852 1_545
Te0 U0 3.178852 1_444
Te0 U0 3.178852 1_455
Te0 U0 3.178852 1_556
Te0 U1 3.564250 1_555
Te1 U1 3.178852 1_666
Te1 U1 3.178852 1_554
Te1 U1 3.178852 1_565
Te1 U1 3.178852 1_655
Te1 U0 3.564250 1_555
P0 U0 2.780882 1_546
P0 U1 2.780882 1_555
P0 U0 2.780882 1_445
P0 U1 2.780882 1_656
P1 U0 2.780882 1_445
P1 U1 2.780882 1_555
P1 U0 2.780882 1_456
P1 U1 2.780882 1_566
