# generated using pymatgen
data_NaZnMoO5
_symmetry_space_group_name_H-M   'P 1'
_cell_length_a   6.22349800
_cell_length_b   7.96443900
_cell_length_c   9.41407700
_cell_angle_alpha   90.00000000
_cell_angle_beta   90.00000000
_cell_angle_gamma   90.00000000
_symmetry_Int_Tables_number   1
_chemical_formula_structural   NaZnMoO5
_chemical_formula_sum   'Na4 Zn4 Mo4 O20'
_cell_volume   466.62444978
_cell_formula_units_Z   4
loop_
 _symmetry_equiv_pos_site_id
 _symmetry_equiv_pos_as_xyz
  1  'x, y, z'
loop_
 _atom_site_type_symbol
 _atom_site_label
 _atom_site_symmetry_multiplicity
 _atom_site_fract_x
 _atom_site_fract_y
 _atom_site_fract_z
 _atom_site_occupancy
  Na  Na0  1  0.65623700  0.86006500  0.18561300  1
  Na  Na1  1  0.15623700  0.13993500  0.81438700  1
  Na  Na2  1  0.15623700  0.63993500  0.68561300  1
  Na  Na3  1  0.65623700  0.36006500  0.31438700  1
  Zn  Zn0  1  0.40424600  0.00585400  0.49790300  1
  Zn  Zn1  1  0.90424600  0.99414600  0.50209700  1
  Zn  Zn2  1  0.90424600  0.49414600  0.99790300  1
  Zn  Zn3  1  0.40424600  0.50585400  0.00209700  1
  Mo  Mo0  1  0.15212500  0.62164900  0.32687300  1
  Mo  Mo1  1  0.65212500  0.37835100  0.67312700  1
  Mo  Mo2  1  0.65212500  0.87835100  0.82687300  1
  Mo  Mo3  1  0.15212500  0.12164900  0.17312700  1
  O  O0  1  0.91168900  0.60681200  0.22077200  1
  O  O1  1  0.41168900  0.39318800  0.77922800  1
  O  O2  1  0.41168900  0.89318800  0.72077200  1
  O  O3  1  0.91168900  0.10681200  0.27922800  1
  O  O4  1  0.39000500  0.61189400  0.21505700  1
  O  O5  1  0.89000500  0.38810600  0.78494300  1
  O  O6  1  0.89000500  0.88810600  0.71505700  1
  O  O7  1  0.39000500  0.11189400  0.28494300  1
  O  O8  1  0.15794500  0.95228000  0.05434500  1
  O  O9  1  0.65794500  0.04772000  0.94565500  1
  O  O10  1  0.65794500  0.54772000  0.55434500  1
  O  O11  1  0.15794500  0.45228000  0.44565500  1
  O  O12  1  0.65072600  0.38221700  0.06802500  1
  O  O13  1  0.15072600  0.61778300  0.93197500  1
  O  O14  1  0.15072600  0.11778300  0.56802500  1
  O  O15  1  0.65072600  0.88221700  0.43197500  1
  O  O16  1  0.15211800  0.81193600  0.43682200  1
  O  O17  1  0.65211800  0.18806400  0.56317800  1
  O  O18  1  0.65211800  0.68806400  0.93682200  1
  O  O19  1  0.15211800  0.31193600  0.06317800  1
loop_
_geom_bond_atom_site_label_1
_geom_bond_atom_site_label_2
_geom_bond_distance
_geom_bond_site_symmetry_2
Na0 O15 2.326225 1_555
Na0 O0 2.589478 1_555
Na0 O4 2.594003 1_555
Na0 O3 2.676973 1_565
Na0 O9 2.708662 1_564
Na0 O18 2.713461 1_554
Na0 O7 2.764498 1_565
Na1 O14 2.326225 1_555
Na1 O1 2.589478 1_555
Na1 O5 2.594003 1_455
Na1 O2 2.676973 1_545
Na1 O8 2.708662 1_546
Na1 O19 2.713461 1_556
Na1 O6 2.764498 1_445
Na2 O13 2.326225 1_555
Na2 O2 2.589478 1_555
Na2 O6 2.594003 1_455
Na2 O1 2.676973 1_555
Na2 O11 2.708662 1_555
Na2 O16 2.713461 1_555
Na2 O5 2.764498 1_455
Na3 O12 2.326225 1_555
Na3 O3 2.589478 1_555
Na3 O7 2.594003 1_555
Na3 O0 2.676973 1_555
Na3 O10 2.708662 1_555
Na3 O17 2.713461 1_555
Na3 O4 2.764498 1_555
Mo0 O11 1.752525 1_555
Mo0 O0 1.802976 1_455
Mo0 O4 1.818190 1_555
Mo0 O16 1.835264 1_555
Mo1 O10 1.752525 1_555
Mo1 O1 1.802976 1_555
Mo1 O5 1.818190 1_555
Mo1 O17 1.835264 1_555
Mo2 O9 1.752525 1_565
Mo2 O2 1.802976 1_555
Mo2 O6 1.818190 1_555
Mo2 O18 1.835264 1_555
Mo3 O8 1.752525 1_545
Mo3 O3 1.802976 1_455
Mo3 O7 1.818190 1_555
Mo3 O19 1.835264 1_555
O0 Zn2 2.282407 1_554
O1 Zn3 2.282407 1_556
O2 Zn0 2.282407 1_565
O3 Zn1 2.282407 1_545
O4 Zn3 2.177253 1_555
O5 Zn2 2.177253 1_555
O6 Zn1 2.177253 1_555
O7 Zn0 2.177253 1_555
O12 Zn3 1.925590 1_555
O12 Zn2 1.928693 1_554
O13 Zn2 1.925590 1_455
O13 Zn3 1.928693 1_556
O14 Zn1 1.925590 1_445
O14 Zn0 1.928693 1_555
O15 Zn0 1.925590 1_565
O15 Zn1 1.928693 1_555
O16 Zn1 2.205291 1_455
O16 Zn0 2.275544 1_565
O17 Zn0 2.205291 1_555
O17 Zn1 2.275544 1_545
O18 Zn3 2.205291 1_556
O18 Zn2 2.275544 1_555
O19 Zn2 2.205291 1_454
O19 Zn3 2.275544 1_555
