# generated using pymatgen
data_Li3V3P8O29
_symmetry_space_group_name_H-M   'P 1'
_cell_length_a   9.76165200
_cell_length_b   9.76880538
_cell_length_c   14.02539641
_cell_angle_alpha   89.47772654
_cell_angle_beta   89.49492654
_cell_angle_gamma   60.03149192
_symmetry_Int_Tables_number   1
_chemical_formula_structural   Li3V3P8O29
_chemical_formula_sum   'Li6 V6 P16 O58'
_cell_volume   1158.57721986
_cell_formula_units_Z   2
loop_
 _symmetry_equiv_pos_site_id
 _symmetry_equiv_pos_as_xyz
  1  'x, y, z'
loop_
 _atom_site_type_symbol
 _atom_site_label
 _atom_site_symmetry_multiplicity
 _atom_site_fract_x
 _atom_site_fract_y
 _atom_site_fract_z
 _atom_site_occupancy
  Li  Li0  1  0.09389100  0.68242500  0.94649700  1
  Li  Li1  1  0.22491700  0.08978600  0.94173400  1
  Li  Li2  1  0.90333700  0.76647800  0.55651400  1
  Li  Li3  1  0.09846600  0.23465900  0.43842200  1
  Li  Li4  1  0.77039500  0.91355400  0.06327100  1
  Li  Li5  1  0.00026300  0.99936000  0.49524900  1
  V  V0  1  0.00174400  0.56270500  0.75040700  1
  V  V1  1  0.99415600  0.43389300  0.24489000  1
  V  V2  1  0.56087000  0.00933200  0.25603200  1
  V  V3  1  0.43904200  0.99292200  0.74506200  1
  V  V4  1  0.56429700  0.43459700  0.74938700  1
  V  V5  1  0.43762100  0.56244400  0.25144700  1
  P  P0  1  0.68919400  0.22889300  0.15555900  1
  P  P1  1  0.69133000  0.08661200  0.66009100  1
  P  P2  1  0.22474800  0.69241300  0.65476900  1
  P  P3  1  0.33294400  0.33050500  0.87003900  1
  P  P4  1  0.32658500  0.33724300  0.37199300  1
  P  P5  1  0.09155000  0.68170500  0.16085600  1
  P  P6  1  0.91133300  0.77147800  0.34168700  1
  P  P7  1  0.23154700  0.08598500  0.15665400  1
  P  P8  1  0.76981000  0.91165500  0.84448100  1
  P  P9  1  0.08791600  0.22592400  0.65753200  1
  P  P10  1  0.91033200  0.31392300  0.84081900  1
  P  P11  1  0.67038400  0.66383100  0.62869300  1
  P  P12  1  0.66330400  0.67397800  0.12878700  1
  P  P13  1  0.77669300  0.30544100  0.34408500  1
  P  P14  1  0.30938700  0.91209700  0.34016100  1
  P  P15  1  0.31335500  0.77042300  0.84174600  1
  O  O0  1  0.79390300  0.21210600  0.43157600  1
  O  O1  1  0.65596100  0.25850500  0.66475200  1
  O  O2  1  0.76031200  0.98765600  0.93683500  1
  O  O3  1  0.65921100  0.08528900  0.16362600  1
  O  O4  1  0.52792900  0.38283700  0.17809700  1
  O  O5  1  0.47647800  0.33673200  0.82243300  1
  O  O6  1  0.38246000  0.53435300  0.67107900  1
  O  O7  1  0.23192700  0.76112800  0.92909700  1
  O  O8  1  0.25948400  0.65595100  0.16454900  1
  O  O9  1  0.47986300  0.18756200  0.32640900  1
  O  O10  1  0.53181200  0.08614000  0.67271800  1
  O  O11  1  0.33012500  0.48217100  0.32627200  1
  O  O12  1  0.32419800  0.34108100  0.97560200  1
  O  O13  1  0.33106200  0.32798000  0.47766400  1
  O  O14  1  0.18156900  0.48396300  0.82644300  1
  O  O15  1  0.38288900  0.09450500  0.17866100  1
  O  O16  1  0.33319500  0.18154500  0.82971000  1
  O  O17  1  0.08408800  0.65733700  0.66349900  1
  O  O18  1  0.00117700  0.79353300  0.25061000  1
  O  O19  1  0.98426800  0.78125400  0.43246500  1
  O  O20  1  0.00063800  0.75648900  0.07140900  1
  O  O21  1  0.09733100  0.52141600  0.17874000  1
  O  O22  1  0.18106500  0.32945900  0.33189500  1
  O  O23  1  0.91709600  0.74197400  0.83738300  1
  O  O24  1  0.09112100  0.38188400  0.67479000  1
  O  O25  1  0.25906300  0.08613500  0.66960300  1
  O  O26  1  0.79074400  0.00611300  0.75655900  1
  O  O27  1  0.78705400  0.99398800  0.57658700  1
  O  O28  1  0.21126000  0.00479800  0.42326800  1
  O  O29  1  0.73993800  0.91221300  0.33181200  1
  O  O30  1  0.91159500  0.61541600  0.32649300  1
  O  O31  1  0.08783800  0.25657000  0.16744200  1
  O  O32  1  0.81790200  0.67106500  0.67034700  1
  O  O33  1  0.90522500  0.47531100  0.82083600  1
  O  O34  1  0.00575600  0.23444600  0.92597200  1
  O  O35  1  0.01727200  0.22277500  0.56472900  1
  O  O36  1  0.99281600  0.20823000  0.74566400  1
  O  O37  1  0.91629200  0.34188300  0.33642000  1
  O  O38  1  0.66579100  0.82122700  0.16971600  1
  O  O39  1  0.61833200  0.90367400  0.82100600  1
  O  O40  1  0.81607800  0.52338500  0.17541700  1
  O  O41  1  0.67316800  0.66698000  0.02334600  1
  O  O42  1  0.67233400  0.67265800  0.52320000  1
  O  O43  1  0.66939000  0.51814400  0.67365600  1
  O  O44  1  0.46741400  0.91433600  0.32818900  1
  O  O45  1  0.51903500  0.81341100  0.67398100  1
  O  O46  1  0.74004200  0.34436100  0.83508000  1
  O  O47  1  0.79535900  0.20532300  0.24927700  1
  O  O48  1  0.76493500  0.23523100  0.06597700  1
  O  O49  1  0.61853200  0.46444000  0.32977100  1
  O  O50  1  0.52272000  0.66397000  0.17659100  1
  O  O51  1  0.47408900  0.61711100  0.82272500  1
  O  O52  1  0.34064500  0.91440400  0.83883000  1
  O  O53  1  0.24051800  0.00961400  0.06464200  1
  O  O54  1  0.20951100  0.99150100  0.24373900  1
  O  O55  1  0.34528200  0.74001900  0.33552400  1
  O  O56  1  0.20829200  0.78546100  0.56745100  1
  O  O57  1  0.20612300  0.79488500  0.74907900  1
loop_
_geom_bond_atom_site_label_1
_geom_bond_atom_site_label_2
_geom_bond_distance
_geom_bond_site_symmetry_2
Li0 O7 1.868710 1_555
Li0 O20 1.938665 1_556
Li0 O23 2.164762 1_455
Li0 O14 2.388051 1_555
Li1 O53 1.862533 1_556
Li1 O34 1.898698 1_555
Li1 O52 2.092186 1_545
Li1 O16 2.298016 1_555
Li2 O19 1.938327 1_555
Li2 O27 1.947469 1_555
Li2 O17 2.153967 1_655
Li2 O32 2.199832 1_555
Li3 O28 1.958102 1_555
Li3 O35 1.960441 1_555
Li3 O22 2.107028 1_555
Li3 O37 2.112545 1_455
Li4 O2 1.893896 1_554
Li4 O20 1.993695 1_655
Li4 O3 2.042205 1_565
Li4 O38 2.225677 1_555
Li5 O0 2.233824 1_465
Li5 O56 2.296498 1_555
Li5 O28 2.309976 1_565
Li5 O27 2.387893 1_455
Li5 O19 2.389220 1_455
Li5 O35 2.478737 1_565
O0 P13 1.481730 1_555
O1 P1 1.538035 1_555
O1 V4 1.910385 1_555
O2 P8 1.477925 1_555
O3 P0 1.572623 1_555
O3 V2 1.955500 1_555
O4 P0 1.573022 1_555
O4 V5 1.839996 1_555
O5 P3 1.574990 1_555
O5 V4 1.866524 1_555
O6 P2 1.559328 1_555
O6 V4 1.895622 1_555
O7 P15 1.481190 1_555
O8 P5 1.530539 1_555
O8 V5 1.942627 1_555
O9 P4 1.612447 1_555
O9 V2 1.809171 1_555
O10 P1 1.567937 1_555
O10 V3 1.862708 1_545
O11 P4 1.564849 1_555
O11 V5 1.898695 1_555
O12 P3 1.483839 1_555
O13 P4 1.483711 1_555
O14 P3 1.609608 1_555
O14 V0 1.865323 1_555
O15 P7 1.554382 1_555
O15 V2 1.860365 1_555
O16 P3 1.564882 1_555
O16 V3 1.997131 1_545
O17 P2 1.576084 1_555
O17 V0 1.921205 1_555
O18 P5 1.612142 1_555
O18 P6 1.615961 1_455
O19 P6 1.491031 1_555
O20 P5 1.500109 1_555
O21 P5 1.556516 1_555
O21 V1 1.853516 1_455
O22 P4 1.569302 1_555
O22 V1 2.003939 1_455
O23 P8 1.563388 1_555
O23 V0 1.952746 1_655
O24 P9 1.560521 1_555
O24 V0 1.866640 1_555
O25 P9 1.551169 1_555
O25 V3 1.858187 1_545
O26 P8 1.605318 1_545
O26 P1 1.622378 1_555
O27 P1 1.489581 1_565
O28 P14 1.493051 1_545
O29 P6 1.552790 1_555
O29 V2 1.855479 1_565
O30 P6 1.540018 1_555
O30 V1 1.922725 1_555
O31 P7 1.559856 1_555
O31 V1 1.857695 1_455
O32 P11 1.592861 1_555
O32 V0 1.928201 1_655
O33 P10 1.574888 1_555
O33 V0 1.834160 1_655
O34 P10 1.475475 1_455
O35 P9 1.486070 1_555
O36 P9 1.598678 1_655
O36 P10 1.634351 1_555
O37 P13 1.573742 1_555
O37 V1 1.917787 1_555
O38 P12 1.565067 1_555
O38 V2 2.007403 1_565
O39 P8 1.557302 1_555
O39 V3 1.857214 1_555
O40 P12 1.619810 1_555
O40 V1 1.797663 1_555
O41 P12 1.481116 1_555
O42 P11 1.481815 1_555
O43 P11 1.555818 1_555
O43 V4 1.910022 1_555
O44 P14 1.561210 1_555
O44 V2 1.878841 1_565
O45 P11 1.601555 1_555
O45 V3 1.824527 1_555
O46 P10 1.538275 1_555
O46 V4 1.915963 1_555
O47 P13 1.612235 1_555
O47 P0 1.623227 1_555
O48 P0 1.468679 1_555
O49 P13 1.562212 1_555
O49 V5 1.888907 1_555
O50 P12 1.568122 1_555
O50 V5 1.888046 1_555
O51 P15 1.558300 1_555
O51 V4 1.860444 1_555
O52 P15 1.556932 1_555
O52 V3 1.983905 1_555
O53 P7 1.476467 1_555
O54 P7 1.600995 1_565
O54 P14 1.621627 1_555
O55 P14 1.538147 1_555
O55 V5 1.915364 1_555
O56 P2 1.479575 1_555
O57 P15 1.615684 1_555
O57 P2 1.619511 1_555
