# generated using pymatgen
data_LiFePHO5
_symmetry_space_group_name_H-M   'P 1'
_cell_length_a   5.16605900
_cell_length_b   5.42603330
_cell_length_c   7.41552630
_cell_angle_alpha   106.20145203
_cell_angle_beta   108.63036056
_cell_angle_gamma   98.17224855
_symmetry_Int_Tables_number   1
_chemical_formula_structural   LiFePHO5
_chemical_formula_sum   'Li2 Fe2 P2 H2 O10'
_cell_volume   182.93962467
_cell_formula_units_Z   2
loop_
 _symmetry_equiv_pos_site_id
 _symmetry_equiv_pos_as_xyz
  1  'x, y, z'
loop_
 _atom_site_type_symbol
 _atom_site_label
 _atom_site_symmetry_multiplicity
 _atom_site_fract_x
 _atom_site_fract_y
 _atom_site_fract_z
 _atom_site_occupancy
  Li  Li0  1  0.74761000  0.39750300  0.82180000  1
  Li  Li1  1  0.25239000  0.60249700  0.17820000  1
  Fe  Fe0  1  0.00000000  0.00000000  0.50000000  1
  Fe  Fe1  1  0.00000000  0.00000000  0.00000000  1
  P  P0  1  0.67737300  0.36254400  0.23349000  1
  P  P1  1  0.32262700  0.63745600  0.76651000  1
  H  H0  1  0.35614500  0.05985700  0.33640600  1
  H  H1  1  0.64385500  0.94014300  0.66359400  1
  O  O0  1  0.84144400  0.05174300  0.72582600  1
  O  O1  1  0.72991100  0.20847100  0.38278300  1
  O  O2  1  0.30886900  0.34247600  0.66025700  1
  O  O3  1  0.36923400  0.24724200  0.07391600  1
  O  O4  1  0.88624800  0.34302900  0.12067800  1
  O  O5  1  0.11375200  0.65697100  0.87932200  1
  O  O6  1  0.63076600  0.75275800  0.92608400  1
  O  O7  1  0.69113100  0.65752400  0.33974300  1
  O  O8  1  0.27008900  0.79152900  0.61721700  1
  O  O9  1  0.15855600  0.94825700  0.27417400  1
loop_
_geom_bond_atom_site_label_1
_geom_bond_atom_site_label_2
_geom_bond_distance
_geom_bond_site_symmetry_2
Li0 O0 1.998789 1_555
Li0 O5 2.033267 1_655
Li0 O6 2.115497 1_555
Li0 O2 2.129484 1_555
Li0 O4 2.219014 1_556
Li1 O9 1.998789 1_555
Li1 O4 2.033267 1_455
Li1 O3 2.115497 1_555
Li1 O7 2.129484 1_555
Li1 O5 2.219014 1_554
Fe0 O2 2.030930 1_555
Fe0 O7 2.030930 1_445
Fe0 O1 2.050473 1_455
Fe0 O8 2.050473 1_545
Fe0 O0 2.057556 1_455
Fe0 O9 2.057556 1_545
Fe1 O3 1.983130 1_555
Fe1 O6 1.983130 1_444
Fe1 O0 2.050200 1_454
Fe1 O9 2.050200 1_545
Fe1 O5 2.080391 1_544
Fe1 O4 2.080391 1_455
H0 O9 0.994461 1_545
H1 O0 0.994461 1_565
O1 P0 1.545060 1_555
O2 P1 1.554295 1_555
O3 P0 1.557532 1_555
O4 P0 1.560521 1_555
O5 P1 1.560521 1_555
O6 P1 1.557532 1_555
O7 P0 1.554295 1_555
O8 P1 1.545060 1_555
