# generated using pymatgen
data_Ti(NCl3)2
_symmetry_space_group_name_H-M   'P 1'
_cell_length_a   6.83872808
_cell_length_b   6.83872808
_cell_length_c   6.83872808
_cell_angle_alpha   60.00000000
_cell_angle_beta   60.00000000
_cell_angle_gamma   60.00000000
_symmetry_Int_Tables_number   1
_chemical_formula_structural   Ti(NCl3)2
_chemical_formula_sum   'Ti1 N2 Cl6'
_cell_volume   226.15750766
_cell_formula_units_Z   1
loop_
 _symmetry_equiv_pos_site_id
 _symmetry_equiv_pos_as_xyz
  1  'x, y, z'
loop_
 _atom_site_type_symbol
 _atom_site_label
 _atom_site_symmetry_multiplicity
 _atom_site_fract_x
 _atom_site_fract_y
 _atom_site_fract_z
 _atom_site_occupancy
  Ti  Ti0  1  0.50000000  0.50000000  0.50000000  1
  N  N0  1  0.25000000  0.25000000  0.25000000  1
  N  N1  1  0.75000000  0.75000000  0.75000000  1
  Cl  Cl0  1  0.74204500  0.25795500  0.25795500  1
  Cl  Cl1  1  0.74204500  0.25795500  0.74204500  1
  Cl  Cl2  1  0.74204500  0.74204500  0.25795500  1
  Cl  Cl3  1  0.25795500  0.74204500  0.74204500  1
  Cl  Cl4  1  0.25795500  0.74204500  0.25795500  1
  Cl  Cl5  1  0.25795500  0.25795500  0.74204500  1
loop_
_geom_bond_atom_site_label_1
_geom_bond_atom_site_label_2
_geom_bond_distance
_geom_bond_site_symmetry_2
Cl0 Ti0 2.340919 1_555
Cl1 Ti0 2.340919 1_555
Cl2 Ti0 2.340919 1_555
Cl3 Ti0 2.340919 1_555
Cl4 Ti0 2.340919 1_555
Cl5 Ti0 2.340919 1_555
