# generated using pymatgen
data_Mn3Cr3(WO8)2
_symmetry_space_group_name_H-M   'P 1'
_cell_length_a   5.95062800
_cell_length_b   5.96161624
_cell_length_c   9.22456496
_cell_angle_alpha   90.27616623
_cell_angle_beta   90.11733619
_cell_angle_gamma   119.93681812
_symmetry_Int_Tables_number   1
_chemical_formula_structural   Mn3Cr3(WO8)2
_chemical_formula_sum   'Mn3 Cr3 W2 O16'
_cell_volume   283.57550237
_cell_formula_units_Z   1
loop_
 _symmetry_equiv_pos_site_id
 _symmetry_equiv_pos_as_xyz
  1  'x, y, z'
loop_
 _atom_site_type_symbol
 _atom_site_label
 _atom_site_symmetry_multiplicity
 _atom_site_fract_x
 _atom_site_fract_y
 _atom_site_fract_z
 _atom_site_occupancy
  Mn  Mn0  1  0.17409800  0.83540000  0.21290300  1
  Mn  Mn1  1  0.33993700  0.16866700  0.71439500  1
  Mn  Mn2  1  0.83701200  0.66958400  0.70763100  1
  Cr  Cr0  1  0.16965600  0.33580600  0.20996000  1
  Cr  Cr1  1  0.66457100  0.83327100  0.21293600  1
  Cr  Cr2  1  0.83135700  0.16818700  0.71252600  1
  W  W0  1  0.33401700  0.66141400  0.49006800  1
  W  W1  1  0.67399400  0.33669700  0.99236000  1
  O  O0  1  0.17522100  0.34728500  0.59803500  1
  O  O1  1  0.47682800  0.52530100  0.34415100  1
  O  O2  1  0.32902500  0.67145800  0.10866600  1
  O  O3  1  0.00740600  0.99840900  0.30740600  1
  O  O4  1  0.00451500  0.99547200  0.80513700  1
  O  O5  1  0.65114700  0.83660400  0.59053000  1
  O  O6  1  0.04650400  0.53205800  0.33928300  1
  O  O7  1  0.47218500  0.95596900  0.33949500  1
  O  O8  1  0.82100400  0.16770300  0.09634000  1
  O  O9  1  0.18470400  0.83503900  0.59412400  1
  O  O10  1  0.51340400  0.04186200  0.83714200  1
  O  O11  1  0.95100000  0.46462400  0.85120300  1
  O  O12  1  0.66224400  0.33895700  0.61154100  1
  O  O13  1  0.34924100  0.16771400  0.09827700  1
  O  O14  1  0.50459200  0.45917400  0.84521800  1
  O  O15  1  0.82613900  0.65314300  0.09639100  1
loop_
_geom_bond_atom_site_label_1
_geom_bond_atom_site_label_2
_geom_bond_distance
_geom_bond_site_symmetry_2
Mn0 O2 1.903577 1_555
Mn0 O3 1.909378 1_555
Mn0 O7 1.933279 1_555
Mn0 O6 1.964542 1_555
Mn0 O13 2.023120 1_565
Mn0 O15 2.087378 1_455
Mn1 O12 1.919023 1_555
Mn1 O14 1.922792 1_555
Mn1 O10 1.923896 1_555
Mn1 O4 1.925849 1_545
Mn1 O9 2.044724 1_545
Mn1 O0 2.072486 1_555
Mn2 O4 1.903614 1_655
Mn2 O12 1.919841 1_555
Mn2 O9 2.081319 1_655
Mn2 O5 2.118062 1_555
Mn2 O11 2.132198 1_555
Mn2 O14 2.155521 1_555
Cr0 O3 1.966906 1_545
Cr0 O2 1.975899 1_555
Cr0 O1 2.016396 1_555
Cr0 O6 2.043258 1_555
Cr0 O13 2.066633 1_555
Cr0 O8 2.076767 1_455
Cr1 O3 1.967338 1_655
Cr1 O2 1.975674 1_555
Cr1 O7 2.010389 1_555
Cr1 O1 2.015886 1_555
Cr1 O8 2.042247 1_565
Cr1 O15 2.063219 1_555
Cr2 O4 1.978776 1_645
Cr2 O12 1.986147 1_555
Cr2 O11 1.996286 1_555
Cr2 O10 2.015790 1_555
Cr2 O5 2.044961 1_545
Cr2 O0 2.069183 1_655
O0 W0 1.909844 1_555
O1 W0 1.968461 1_555
O5 W0 1.878077 1_555
O6 W0 2.029668 1_555
O7 W0 2.067854 1_555
O8 W1 1.893630 1_554
O9 W0 1.921988 1_555
O10 W1 2.084815 1_555
O11 W1 1.938521 1_555
O13 W1 1.943737 1_554
O14 W1 2.032289 1_555
O15 W1 1.890462 1_554
