# generated using pymatgen
data_Li2CoBO4
_symmetry_space_group_name_H-M   'P 1'
_cell_length_a   5.10600400
_cell_length_b   6.42507600
_cell_length_c   10.68289642
_cell_angle_alpha   84.81155965
_cell_angle_beta   90.00000000
_cell_angle_gamma   90.00000000
_symmetry_Int_Tables_number   1
_chemical_formula_structural   Li2CoBO4
_chemical_formula_sum   'Li8 Co4 B4 O16'
_cell_volume   349.03206871
_cell_formula_units_Z   4
loop_
 _symmetry_equiv_pos_site_id
 _symmetry_equiv_pos_as_xyz
  1  'x, y, z'
loop_
 _atom_site_type_symbol
 _atom_site_label
 _atom_site_symmetry_multiplicity
 _atom_site_fract_x
 _atom_site_fract_y
 _atom_site_fract_z
 _atom_site_occupancy
  Li  Li0  1  0.65245800  0.89961500  0.79241700  1
  Li  Li1  1  0.84754200  0.89961500  0.29241700  1
  Li  Li2  1  0.82774300  0.78260600  0.57066500  1
  Li  Li3  1  0.67225700  0.78260600  0.07066500  1
  Li  Li4  1  0.32774300  0.21739400  0.92933500  1
  Li  Li5  1  0.17225700  0.21739400  0.42933500  1
  Li  Li6  1  0.15245800  0.10038500  0.70758300  1
  Li  Li7  1  0.34754200  0.10038500  0.20758300  1
  Co  Co0  1  0.84024500  0.49707000  0.84589100  1
  Co  Co1  1  0.34024500  0.50293000  0.65410900  1
  Co  Co2  1  0.65975500  0.49707000  0.34589100  1
  Co  Co3  1  0.15975500  0.50293000  0.15410900  1
  B  B0  1  0.17634400  0.80389900  0.93699300  1
  B  B1  1  0.32365600  0.80389900  0.43699300  1
  B  B2  1  0.67634400  0.19610100  0.56300700  1
  B  B3  1  0.82365600  0.19610100  0.06300700  1
  O  O0  1  0.30143200  0.94457800  0.85640400  1
  O  O1  1  0.19856800  0.94457800  0.35640400  1
  O  O2  1  0.90955200  0.75209600  0.92307900  1
  O  O3  1  0.59044800  0.75209600  0.42307900  1
  O  O4  1  0.19316000  0.70751400  0.54196200  1
  O  O5  1  0.65885800  0.61235400  0.71168200  1
  O  O6  1  0.30684000  0.70751400  0.04196200  1
  O  O7  1  0.84114200  0.61235400  0.21168200  1
  O  O8  1  0.15885800  0.38764600  0.78831800  1
  O  O9  1  0.69316000  0.29248600  0.95803800  1
  O  O10  1  0.34114200  0.38764600  0.28831800  1
  O  O11  1  0.80684000  0.29248600  0.45803800  1
  O  O12  1  0.40955200  0.24790400  0.57692100  1
  O  O13  1  0.09044800  0.24790400  0.07692100  1
  O  O14  1  0.80143200  0.05542200  0.64359600  1
  O  O15  1  0.69856800  0.05542200  0.14359600  1
loop_
_geom_bond_atom_site_label_1
_geom_bond_atom_site_label_2
_geom_bond_distance
_geom_bond_site_symmetry_2
Li0 O0 1.949082 1_555
Li0 O14 1.954607 1_565
Li0 O2 2.081037 1_555
Li0 O5 2.106981 1_555
Li1 O1 1.949082 1_655
Li1 O15 1.954607 1_565
Li1 O3 2.081037 1_555
Li1 O7 2.106981 1_555
Li2 O4 1.958276 1_655
Li2 O5 1.977775 1_555
Li2 O14 1.986102 1_565
Li2 O3 2.012010 1_555
Li3 O6 1.958276 1_555
Li3 O7 1.977775 1_555
Li3 O15 1.986102 1_565
Li3 O2 2.012010 1_554
Li4 O9 1.958276 1_555
Li4 O8 1.977775 1_555
Li4 O0 1.986102 1_545
Li4 O13 2.012010 1_556
Li5 O11 1.958276 1_455
Li5 O10 1.977775 1_555
Li5 O1 1.986102 1_545
Li5 O12 2.012010 1_555
Li6 O14 1.949082 1_455
Li6 O0 1.954607 1_545
Li6 O12 2.081037 1_555
Li6 O8 2.106981 1_555
Li7 O15 1.949082 1_555
Li7 O1 1.954607 1_545
Li7 O13 2.081037 1_555
Li7 O10 2.106981 1_555
Co0 O5 1.808305 1_555
Co0 O9 1.855360 1_555
Co0 O8 1.896677 1_655
Co0 O2 1.932470 1_555
Co1 O8 1.808305 1_555
Co1 O4 1.855360 1_555
Co1 O5 1.896677 1_555
Co1 O12 1.932470 1_555
Co2 O7 1.808305 1_555
Co2 O11 1.855360 1_555
Co2 O10 1.896677 1_555
Co2 O3 1.932470 1_555
Co3 O10 1.808305 1_555
Co3 O6 1.855360 1_555
Co3 O7 1.896677 1_455
Co3 O13 1.932470 1_555
B0 O0 1.351064 1_555
B0 O6 1.399771 1_556
B0 O2 1.413338 1_455
B1 O1 1.351064 1_555
B1 O4 1.399771 1_555
B1 O3 1.413338 1_555
B2 O14 1.351064 1_555
B2 O11 1.399771 1_555
B2 O12 1.413338 1_555
B3 O15 1.351064 1_555
B3 O9 1.399771 1_554
B3 O13 1.413338 1_655
