# generated using pymatgen
data_Li4Mn3Cu3(TeO8)2
_symmetry_space_group_name_H-M   'P 1'
_cell_length_a   5.97529303
_cell_length_b   5.97529303
_cell_length_c   9.89960746
_cell_angle_alpha   87.61511787
_cell_angle_beta   87.61511787
_cell_angle_gamma   59.62499556
_symmetry_Int_Tables_number   1
_chemical_formula_structural   Li4Mn3Cu3(TeO8)2
_chemical_formula_sum   'Li4 Mn3 Cu3 Te2 O16'
_cell_volume   304.58846302
_cell_formula_units_Z   1
loop_
 _symmetry_equiv_pos_site_id
 _symmetry_equiv_pos_as_xyz
  1  'x, y, z'
loop_
 _atom_site_type_symbol
 _atom_site_label
 _atom_site_symmetry_multiplicity
 _atom_site_fract_x
 _atom_site_fract_y
 _atom_site_fract_z
 _atom_site_occupancy
  Li  Li0  1  0.66803000  0.66803000  0.91782500  1
  Li  Li1  1  0.99799100  0.99799100  0.98412400  1
  Li  Li2  1  0.99966600  0.99966600  0.47789300  1
  Li  Li3  1  0.34144800  0.34144800  0.41140200  1
  Mn  Mn0  1  0.82829600  0.82829600  0.21229300  1
  Mn  Mn1  1  0.66204000  0.17002400  0.71156400  1
  Mn  Mn2  1  0.17002400  0.66204000  0.71156400  1
  Cu  Cu0  1  0.83040100  0.33701400  0.20986200  1
  Cu  Cu1  1  0.33701400  0.83040100  0.20986200  1
  Cu  Cu2  1  0.16985500  0.16985500  0.71063700  1
  Te  Te0  1  0.66942600  0.66942600  0.48038800  1
  Te  Te1  1  0.33002500  0.33002500  0.98322100  1
  O  O0  1  0.82659400  0.33545400  0.58469000  1
  O  O1  1  0.52601500  0.52601500  0.35309000  1
  O  O2  1  0.67048400  0.67048400  0.12162400  1
  O  O3  1  0.99401400  0.99401400  0.28984700  1
  O  O4  1  0.99571100  0.99571100  0.79364100  1
  O  O5  1  0.33545400  0.82659400  0.58469000  1
  O  O6  1  0.97424300  0.53233800  0.35878300  1
  O  O7  1  0.53233800  0.97424300  0.35878300  1
  O  O8  1  0.16066500  0.16066500  0.08340200  1
  O  O9  1  0.82295000  0.82295000  0.59282000  1
  O  O10  1  0.49089900  0.03734000  0.85422000  1
  O  O11  1  0.03734000  0.49089900  0.85422000  1
  O  O12  1  0.34055800  0.34055800  0.61959500  1
  O  O13  1  0.64768600  0.15926800  0.08915100  1
  O  O14  1  0.48548800  0.48548800  0.85941000  1
  O  O15  1  0.15926800  0.64768600  0.08915100  1
loop_
_geom_bond_atom_site_label_1
_geom_bond_atom_site_label_2
_geom_bond_distance
_geom_bond_site_symmetry_2
Li0 O11 1.991019 1_655
Li0 O10 1.991019 1_565
Li0 O14 2.005497 1_555
Li0 O2 2.018910 1_556
Li1 O4 1.886989 1_555
Li1 O8 1.992516 1_666
Li1 O13 2.062373 1_566
Li1 O15 2.062373 1_656
Li2 O3 1.865311 1_555
Li2 O5 2.049422 1_655
Li2 O0 2.049422 1_565
Li2 O9 2.109988 1_555
Li3 O1 1.972261 1_555
Li3 O6 1.975181 1_455
Li3 O7 1.975181 1_545
Li3 O12 2.060607 1_555
Mn0 O2 1.903733 1_555
Mn0 O3 1.915372 1_555
Mn0 O15 2.076609 1_655
Mn0 O13 2.076609 1_565
Mn0 O7 2.079207 1_555
Mn0 O6 2.079207 1_555
Mn1 O12 1.909473 1_555
Mn1 O4 1.919497 1_545
Mn1 O10 2.067679 1_555
Mn1 O0 2.073232 1_555
Mn1 O9 2.167833 1_545
Mn1 O14 2.213214 1_555
Mn2 O12 1.909473 1_555
Mn2 O4 1.919497 1_455
Mn2 O11 2.067679 1_555
Mn2 O5 2.073232 1_555
Mn2 O9 2.167833 1_455
Mn2 O14 2.213214 1_555
Cu0 O2 1.909332 1_555
Cu0 O3 1.919976 1_545
Cu0 O8 2.091222 1_655
Cu0 O1 2.105998 1_555
Cu0 O13 2.266029 1_555
Cu0 O6 2.353186 1_555
Cu1 O2 1.909332 1_555
Cu1 O3 1.919976 1_455
Cu1 O8 2.091222 1_565
Cu1 O1 2.105998 1_555
Cu1 O15 2.266029 1_555
Cu1 O7 2.353186 1_555
Cu2 O12 1.947374 1_555
Cu2 O4 1.947675 1_445
Cu2 O0 2.190497 1_455
Cu2 O5 2.190497 1_545
Cu2 O11 2.219122 1_555
Cu2 O10 2.219122 1_555
O0 Te0 1.986043 1_555
O1 Te0 1.994771 1_555
O5 Te0 1.986043 1_555
O6 Te0 1.956621 1_555
O7 Te0 1.956621 1_555
O8 Te1 1.974941 1_554
O9 Te0 1.985677 1_555
O10 Te1 1.999260 1_555
O11 Te1 1.999260 1_555
O13 Te1 1.965098 1_554
O14 Te1 1.977704 1_555
O15 Te1 1.965098 1_554
