# generated using pymatgen
data_CaAl2H16N9
_symmetry_space_group_name_H-M   'P 1'
_cell_length_a   8.87298172
_cell_length_b   8.87298172
_cell_length_c   10.29466004
_cell_angle_alpha   62.32865315
_cell_angle_beta   62.32865315
_cell_angle_gamma   69.86767934
_symmetry_Int_Tables_number   1
_chemical_formula_structural   CaAl2H16N9
_chemical_formula_sum   'Ca2 Al4 H32 N18'
_cell_volume   627.10689105
_cell_formula_units_Z   2
loop_
 _symmetry_equiv_pos_site_id
 _symmetry_equiv_pos_as_xyz
  1  'x, y, z'
loop_
 _atom_site_type_symbol
 _atom_site_label
 _atom_site_symmetry_multiplicity
 _atom_site_fract_x
 _atom_site_fract_y
 _atom_site_fract_z
 _atom_site_occupancy
  Ca  Ca0  1  0.06319900  0.93680100  0.75000000  1
  Ca  Ca1  1  0.93680100  0.06319900  0.25000000  1
  Al  Al0  1  0.17271500  0.21966300  0.79533400  1
  Al  Al1  1  0.21966300  0.17271500  0.29533400  1
  Al  Al2  1  0.82728500  0.78033700  0.20466600  1
  Al  Al3  1  0.78033700  0.82728500  0.70466600  1
  H  H0  1  0.96403500  0.38515000  0.96347200  1
  H  H1  1  0.38515000  0.96403500  0.46347200  1
  H  H2  1  0.03596500  0.61485000  0.03652800  1
  H  H3  1  0.61485000  0.03596500  0.53652800  1
  H  H4  1  0.14494200  0.31700600  0.99492700  1
  H  H5  1  0.31700600  0.14494200  0.49492700  1
  H  H6  1  0.85505800  0.68299400  0.00507300  1
  H  H7  1  0.68299400  0.85505800  0.50507300  1
  H  H8  1  0.47360300  0.29723600  0.61582700  1
  H  H9  1  0.29723600  0.47360300  0.11582700  1
  H  H10  1  0.52639700  0.70276400  0.38417300  1
  H  H11  1  0.70276400  0.52639700  0.88417300  1
  H  H12  1  0.32938700  0.45039000  0.55326900  1
  H  H13  1  0.45039000  0.32938700  0.05326900  1
  H  H14  1  0.67061300  0.54961000  0.44673100  1
  H  H15  1  0.54961000  0.67061300  0.94673100  1
  H  H16  1  0.22209400  0.90833500  0.97480800  1
  H  H17  1  0.90833500  0.22209400  0.47480800  1
  H  H18  1  0.77790600  0.09166500  0.02519200  1
  H  H19  1  0.09166500  0.77790600  0.52519200  1
  H  H20  1  0.37697300  0.93747900  0.80318600  1
  H  H21  1  0.93747900  0.37697300  0.30318600  1
  H  H22  1  0.62302700  0.06252100  0.19681400  1
  H  H23  1  0.06252100  0.62302700  0.69681400  1
  H  H24  1  0.02620200  0.32242400  0.60216500  1
  H  H25  1  0.32242400  0.02620200  0.10216500  1
  H  H26  1  0.97379800  0.67757600  0.39783500  1
  H  H27  1  0.67757600  0.97379800  0.89783500  1
  H  H28  1  0.87734400  0.28984600  0.77803300  1
  H  H29  1  0.28984600  0.87734400  0.27803300  1
  H  H30  1  0.12265600  0.71015400  0.22196700  1
  H  H31  1  0.71015400  0.12265600  0.72196700  1
  N  N0  1  0.06123600  0.28117800  0.97495600  1
  N  N1  1  0.28117800  0.06123600  0.47495600  1
  N  N2  1  0.93876400  0.71882200  0.02504400  1
  N  N3  1  0.71882200  0.93876400  0.52504400  1
  N  N4  1  0.35089000  0.32335100  0.62031800  1
  N  N5  1  0.32335100  0.35089000  0.12031800  1
  N  N6  1  0.64911000  0.67664900  0.37968200  1
  N  N7  1  0.67664900  0.64911000  0.87968200  1
  N  N8  1  0.24972500  0.97854100  0.85705100  1
  N  N9  1  0.97854100  0.24972500  0.35705100  1
  N  N10  1  0.75027500  0.02145900  0.14294900  1
  N  N11  1  0.02145900  0.75027500  0.64294900  1
  N  N12  1  0.00320200  0.25127100  0.71917000  1
  N  N13  1  0.25127100  0.00320200  0.21917000  1
  N  N14  1  0.99679800  0.74872900  0.28083000  1
  N  N15  1  0.74872900  0.99679800  0.78083000  1
  N  N16  1  0.64684000  0.35316000  0.25000000  1
  N  N17  1  0.35316000  0.64684000  0.75000000  1
loop_
_geom_bond_atom_site_label_1
_geom_bond_atom_site_label_2
_geom_bond_distance
_geom_bond_site_symmetry_2
Ca0 N1 2.541070 1_565
Ca0 N2 2.541070 1_456
Ca0 N12 2.545917 1_565
Ca0 N15 2.545917 1_455
Ca0 N11 2.566314 1_555
Ca0 N8 2.566314 1_555
Ca0 N17 2.946547 1_555
Ca1 N0 2.541070 1_654
Ca1 N3 2.541070 1_545
Ca1 N14 2.545917 1_545
Ca1 N13 2.545917 1_655
Ca1 N10 2.566314 1_555
Ca1 N9 2.566314 1_555
Ca1 N16 2.946547 1_555
Al0 N4 1.846098 1_555
Al0 N12 1.885855 1_555
Al0 N0 1.887490 1_555
Al0 N8 1.892687 1_545
Al1 N5 1.846098 1_555
Al1 N13 1.885855 1_555
Al1 N1 1.887490 1_555
Al1 N9 1.892687 1_455
Al2 N6 1.846098 1_555
Al2 N14 1.885855 1_555
Al2 N2 1.887490 1_555
Al2 N10 1.892687 1_565
Al3 N7 1.846098 1_555
Al3 N15 1.885855 1_555
Al3 N3 1.887490 1_555
Al3 N11 1.892687 1_655
H0 N0 1.026933 1_655
H1 N1 1.026933 1_565
H2 N2 1.026933 1_455
H3 N3 1.026933 1_545
H4 N0 1.029579 1_555
H5 N1 1.029579 1_555
H6 N2 1.029579 1_555
H7 N3 1.029579 1_555
H8 N4 1.015331 1_555
H9 N5 1.015331 1_555
H10 N6 1.015331 1_555
H11 N7 1.015331 1_555
H12 N4 1.017384 1_555
H13 N5 1.017384 1_555
H14 N6 1.017384 1_555
H15 N7 1.017384 1_555
H16 N8 1.022467 1_555
H17 N9 1.022467 1_555
H18 N10 1.022467 1_555
H19 N11 1.022467 1_555
H20 N8 1.018821 1_555
H21 N9 1.018821 1_555
H22 N10 1.018821 1_555
H23 N11 1.018821 1_555
H24 N12 1.022341 1_555
H25 N13 1.022341 1_555
H26 N14 1.022341 1_555
H27 N15 1.022341 1_555
H28 N12 1.016095 1_655
H29 N13 1.016095 1_565
H30 N14 1.016095 1_455
H31 N15 1.016095 1_545
