# generated using pymatgen
data_Li2FeF4
_symmetry_space_group_name_H-M   'P 1'
_cell_length_a   8.81868800
_cell_length_b   7.05621800
_cell_length_c   10.55423724
_cell_angle_alpha   89.22510014
_cell_angle_beta   90.00000000
_cell_angle_gamma   90.00000000
_symmetry_Int_Tables_number   1
_chemical_formula_structural   Li2FeF4
_chemical_formula_sum   'Li16 Fe8 F32'
_cell_volume   656.69407716
_cell_formula_units_Z   8
loop_
 _symmetry_equiv_pos_site_id
 _symmetry_equiv_pos_as_xyz
  1  'x, y, z'
loop_
 _atom_site_type_symbol
 _atom_site_label
 _atom_site_symmetry_multiplicity
 _atom_site_fract_x
 _atom_site_fract_y
 _atom_site_fract_z
 _atom_site_occupancy
  Li  Li0  1  0.55837800  0.82292500  0.64932200  1
  Li  Li1  1  0.06334900  0.74479100  0.86644200  1
  Li  Li2  1  0.94162200  0.82292500  0.14932200  1
  Li  Li3  1  0.43665100  0.74479100  0.36644200  1
  Li  Li4  1  0.41728800  0.70747400  0.88831500  1
  Li  Li5  1  0.88905600  0.73824600  0.62825700  1
  Li  Li6  1  0.08271200  0.70747400  0.38831500  1
  Li  Li7  1  0.61094400  0.73824600  0.12825700  1
  Li  Li8  1  0.38905600  0.26175400  0.87174300  1
  Li  Li9  1  0.91728800  0.29252600  0.61168500  1
  Li  Li10  1  0.11094400  0.26175400  0.37174300  1
  Li  Li11  1  0.58271200  0.29252600  0.11168500  1
  Li  Li12  1  0.56334900  0.25520900  0.63355800  1
  Li  Li13  1  0.05837800  0.17707500  0.85067800  1
  Li  Li14  1  0.93665100  0.25520900  0.13355800  1
  Li  Li15  1  0.44162200  0.17707500  0.35067800  1
  Fe  Fe0  1  0.24536200  0.98061700  0.61307300  1
  Fe  Fe1  1  0.25463800  0.98061700  0.11307300  1
  Fe  Fe2  1  0.24869700  0.52610800  0.63147100  1
  Fe  Fe3  1  0.74869700  0.47389200  0.86852900  1
  Fe  Fe4  1  0.25130300  0.52610800  0.13147100  1
  Fe  Fe5  1  0.75130300  0.47389200  0.36852900  1
  Fe  Fe6  1  0.74536200  0.01938300  0.88692700  1
  Fe  Fe7  1  0.75463800  0.01938300  0.38692700  1
  F  F0  1  0.94405100  0.95342900  0.81011400  1
  F  F1  1  0.55594900  0.95342900  0.31011400  1
  F  F2  1  0.73011800  0.88628900  0.55973300  1
  F  F3  1  0.76988200  0.88628900  0.05973300  1
  F  F4  1  0.24487000  0.74201700  0.76839900  1
  F  F5  1  0.07469200  0.81999700  0.55505400  1
  F  F6  1  0.62554400  0.74716200  0.81640900  1
  F  F7  1  0.25513000  0.74201700  0.26839900  1
  F  F8  1  0.42530800  0.81999700  0.05505400  1
  F  F9  1  0.39540700  0.73697600  0.54287200  1
  F  F10  1  0.87445600  0.74716200  0.31640900  1
  F  F11  1  0.10459300  0.73697600  0.04287200  1
  F  F12  1  0.92957800  0.58032900  0.77910700  1
  F  F13  1  0.57042200  0.58032900  0.27910700  1
  F  F14  1  0.33851900  0.48233300  0.96499700  1
  F  F15  1  0.83851900  0.51766700  0.53500300  1
  F  F16  1  0.16148100  0.48233300  0.46499700  1
  F  F17  1  0.66148100  0.51766700  0.03500300  1
  F  F18  1  0.42957800  0.41967100  0.72089300  1
  F  F19  1  0.07042200  0.41967100  0.22089300  1
  F  F20  1  0.89540700  0.26302400  0.95712800  1
  F  F21  1  0.12554400  0.25283800  0.68359100  1
  F  F22  1  0.60459300  0.26302400  0.45712800  1
  F  F23  1  0.57469200  0.18000300  0.94494600  1
  F  F24  1  0.74487000  0.25798300  0.73160100  1
  F  F25  1  0.37445600  0.25283800  0.18359100  1
  F  F26  1  0.92530800  0.18000300  0.44494600  1
  F  F27  1  0.75513000  0.25798300  0.23160100  1
  F  F28  1  0.23011800  0.11371100  0.94026700  1
  F  F29  1  0.26988200  0.11371100  0.44026700  1
  F  F30  1  0.44405100  0.04657100  0.68988600  1
  F  F31  1  0.05594900  0.04657100  0.18988600  1
loop_
_geom_bond_atom_site_label_1
_geom_bond_atom_site_label_2
_geom_bond_distance
_geom_bond_site_symmetry_2
F0 Li1 1.898401 1_655
F0 Li13 1.925732 1_665
F0 Fe6 1.988504 1_565
F1 Li3 1.898401 1_555
F1 Li15 1.925732 1_565
F1 Fe7 1.988504 1_565
F2 Li0 1.837471 1_555
F2 Li5 1.886372 1_555
F2 Fe7 2.051533 1_565
F3 Li2 1.837471 1_555
F3 Li7 1.886372 1_555
F3 Fe6 2.051533 1_564
F4 Li1 1.906349 1_555
F4 Li4 1.991177 1_555
F4 Fe2 2.114300 1_555
F4 Fe0 2.333962 1_555
F5 Li5 1.896735 1_455
F5 Li6 1.941679 1_555
F5 Fe0 1.985837 1_555
F6 Li0 1.928985 1_555
F6 Li4 2.005374 1_555
F6 Fe3 2.274107 1_555
F6 Fe6 2.323521 1_565
F7 Li3 1.906349 1_555
F7 Li6 1.991177 1_555
F7 Fe4 2.114300 1_555
F7 Fe1 2.333962 1_555
F8 Li7 1.896735 1_555
F8 Li4 1.941679 1_554
F8 Fe1 1.985837 1_555
F9 Li3 1.897343 1_555
F9 Li0 1.927176 1_555
F9 Fe2 2.173614 1_555
F9 Fe0 2.299971 1_555
F10 Li2 1.928985 1_555
F10 Li6 2.005374 1_655
F10 Fe5 2.274107 1_555
F10 Fe7 2.323521 1_565
F11 Li1 1.897343 1_554
F11 Li2 1.927176 1_455
F11 Fe4 2.173614 1_555
F11 Fe1 2.299971 1_555
F12 Li1 1.901824 1_655
F12 Li5 1.963715 1_555
F12 Fe3 1.995010 1_555
F13 Li3 1.901824 1_555
F13 Li7 1.963715 1_555
F13 Fe5 1.995010 1_555
F14 Li4 1.904347 1_555
F14 Li8 1.905598 1_555
F14 Fe4 1.946464 1_556
F15 Li9 1.904347 1_555
F15 Li5 1.905598 1_555
F15 Fe5 1.946464 1_555
F16 Li6 1.904347 1_555
F16 Li10 1.905598 1_555
F16 Fe2 1.946464 1_555
F17 Li11 1.904347 1_555
F17 Li7 1.905598 1_555
F17 Fe3 1.946464 1_554
F18 Li12 1.901824 1_555
F18 Li8 1.963715 1_555
F18 Fe2 1.995010 1_555
F19 Li14 1.901824 1_455
F19 Li10 1.963715 1_555
F19 Fe4 1.995010 1_555
F20 Li14 1.897343 1_556
F20 Li13 1.927176 1_655
F20 Fe3 2.173614 1_555
F20 Fe6 2.299971 1_555
F21 Li13 1.928985 1_555
F21 Li9 2.005374 1_455
F21 Fe2 2.274107 1_555
F21 Fe0 2.323521 1_545
F22 Li12 1.897343 1_555
F22 Li15 1.927176 1_555
F22 Fe5 2.173614 1_555
F22 Fe7 2.299971 1_555
F23 Li8 1.896735 1_555
F23 Li11 1.941679 1_556
F23 Fe6 1.985837 1_555
F24 Li12 1.906349 1_555
F24 Li9 1.991177 1_555
F24 Fe3 2.114300 1_555
F24 Fe6 2.333962 1_555
F25 Li15 1.928985 1_555
F25 Li11 2.005374 1_555
F25 Fe4 2.274107 1_555
F25 Fe1 2.323521 1_545
F26 Li10 1.896735 1_655
F26 Li9 1.941679 1_555
F26 Fe7 1.985837 1_555
F27 Li14 1.906349 1_555
F27 Li11 1.991177 1_555
F27 Fe5 2.114300 1_555
F27 Fe7 2.333962 1_555
F28 Li13 1.837471 1_555
F28 Li8 1.886372 1_555
F28 Fe1 2.051533 1_546
F29 Li15 1.837471 1_555
F29 Li10 1.886372 1_555
F29 Fe0 2.051533 1_545
F30 Li12 1.898401 1_555
F30 Li0 1.925732 1_545
F30 Fe0 1.988504 1_545
F31 Li14 1.898401 1_455
F31 Li2 1.925732 1_445
F31 Fe1 1.988504 1_545
