# generated using pymatgen
data_Sr5(CoO3)4
_symmetry_space_group_name_H-M   'P 1'
_cell_length_a   9.56500361
_cell_length_b   9.56500361
_cell_length_c   20.23545100
_cell_angle_alpha   90.00000000
_cell_angle_beta   90.00000000
_cell_angle_gamma   119.99999730
_symmetry_Int_Tables_number   1
_chemical_formula_structural   Sr5(CoO3)4
_chemical_formula_sum   'Sr30 Co24 O72'
_cell_volume   1603.29636606
_cell_formula_units_Z   6
loop_
 _symmetry_equiv_pos_site_id
 _symmetry_equiv_pos_as_xyz
  1  'x, y, z'
loop_
 _atom_site_type_symbol
 _atom_site_label
 _atom_site_symmetry_multiplicity
 _atom_site_fract_x
 _atom_site_fract_y
 _atom_site_fract_z
 _atom_site_occupancy
  Sr  Sr0  1  0.66548500  0.99883900  0.34956000  1
  Sr  Sr1  1  0.69771300  0.66934600  0.04919200  1
  Sr  Sr2  1  0.36030100  0.36030100  0.75000000  1
  Sr  Sr3  1  0.00116100  0.33451500  0.84956000  1
  Sr  Sr4  1  0.36030100  0.00000000  0.25000000  1
  Sr  Sr5  1  0.63969900  0.63969900  0.25000000  1
  Sr  Sr6  1  0.69771300  0.02836700  0.54919200  1
  Sr  Sr7  1  0.00116100  0.66664600  0.34956000  1
  Sr  Sr8  1  0.97163300  0.30228700  0.04919200  1
  Sr  Sr9  1  0.66664600  0.66548500  0.65044000  1
  Sr  Sr10  1  0.30228700  0.33065400  0.95080800  1
  Sr  Sr11  1  0.66934600  0.69771300  0.45080800  1
  Sr  Sr12  1  0.33335400  0.99883900  0.84956000  1
  Sr  Sr13  1  0.00000000  0.63969900  0.75000000  1
  Sr  Sr14  1  0.33065400  0.30228700  0.54919200  1
  Sr  Sr15  1  0.33451500  0.00116100  0.65044000  1
  Sr  Sr16  1  0.30228700  0.97163300  0.45080800  1
  Sr  Sr17  1  0.66664600  0.00116100  0.15044000  1
  Sr  Sr18  1  0.99883900  0.66548500  0.15044000  1
  Sr  Sr19  1  0.00000000  0.36030100  0.25000000  1
  Sr  Sr20  1  0.66934600  0.97163300  0.95080800  1
  Sr  Sr21  1  0.33451500  0.33335400  0.15044000  1
  Sr  Sr22  1  0.33335400  0.33451500  0.34956000  1
  Sr  Sr23  1  0.02836700  0.33065400  0.45080800  1
  Sr  Sr24  1  0.66548500  0.66664600  0.84956000  1
  Sr  Sr25  1  0.63969900  0.00000000  0.75000000  1
  Sr  Sr26  1  0.33065400  0.02836700  0.04919200  1
  Sr  Sr27  1  0.99883900  0.33335400  0.65044000  1
  Sr  Sr28  1  0.02836700  0.69771300  0.95080800  1
  Sr  Sr29  1  0.97163300  0.66934600  0.54919200  1
  Co  Co0  1  0.66666700  0.33333300  0.57903200  1
  Co  Co1  1  0.66666700  0.33333300  0.07903200  1
  Co  Co2  1  0.66666700  0.33333300  0.45008200  1
  Co  Co3  1  0.33333300  0.66666700  0.67757600  1
  Co  Co4  1  0.00000000  0.00000000  0.00000000  1
  Co  Co5  1  0.00000000  0.00000000  0.87736800  1
  Co  Co6  1  0.00000000  0.00000000  0.62263200  1
  Co  Co7  1  0.00000000  0.00000000  0.50000000  1
  Co  Co8  1  0.66666700  0.33333300  0.20054500  1
  Co  Co9  1  0.66666700  0.33333300  0.32242400  1
  Co  Co10  1  0.00000000  0.00000000  0.25000000  1
  Co  Co11  1  0.00000000  0.00000000  0.37736800  1
  Co  Co12  1  0.66666700  0.33333300  0.70054500  1
  Co  Co13  1  0.66666700  0.33333300  0.82242400  1
  Co  Co14  1  0.33333300  0.66666700  0.54991800  1
  Co  Co15  1  0.33333300  0.66666700  0.79945500  1
  Co  Co16  1  0.33333300  0.66666700  0.17757600  1
  Co  Co17  1  0.00000000  0.00000000  0.12263200  1
  Co  Co18  1  0.33333300  0.66666700  0.04991800  1
  Co  Co19  1  0.00000000  0.00000000  0.75000000  1
  Co  Co20  1  0.33333300  0.66666700  0.42096800  1
  Co  Co21  1  0.66666700  0.33333300  0.95008200  1
  Co  Co22  1  0.33333300  0.66666700  0.29945500  1
  Co  Co23  1  0.33333300  0.66666700  0.92096800  1
  O  O0  1  0.48362300  0.66013000  0.98034300  1
  O  O1  1  0.33987000  0.82349300  0.98034300  1
  O  O2  1  0.66013000  0.17650700  0.01965700  1
  O  O3  1  0.14341900  0.15583300  0.81823900  1
  O  O4  1  0.33391100  0.82020500  0.35742600  1
  O  O5  1  0.18023800  0.66456200  0.61829100  1
  O  O6  1  0.81976200  0.33543800  0.38170900  1
  O  O7  1  0.81715000  0.49289400  0.25984900  1
  O  O8  1  0.48362300  0.82349300  0.48034300  1
  O  O9  1  0.32425600  0.81715000  0.74015100  1
  O  O10  1  0.16257100  0.01363900  0.94025800  1
  O  O11  1  0.82349300  0.33987000  0.51965700  1
  O  O12  1  0.81715000  0.32425600  0.75984900  1
  O  O13  1  0.82349300  0.48362300  0.01965700  1
  O  O14  1  0.51370600  0.17979500  0.14257400  1
  O  O15  1  0.18285000  0.67574400  0.24015100  1
  O  O16  1  0.82020500  0.48629400  0.64257400  1
  O  O17  1  0.48629400  0.82020500  0.85742600  1
  O  O18  1  0.98758600  0.84416700  0.68176100  1
  O  O19  1  0.84416700  0.98758600  0.81823900  1
  O  O20  1  0.49289400  0.67574400  0.74015100  1
  O  O21  1  0.17979500  0.51370600  0.35742600  1
  O  O22  1  0.51567600  0.18023800  0.38170900  1
  O  O23  1  0.33543800  0.81976200  0.11829100  1
  O  O24  1  0.50710600  0.32425600  0.25984900  1
  O  O25  1  0.85658100  0.01241400  0.68176100  1
  O  O26  1  0.01241400  0.85658100  0.81823900  1
  O  O27  1  0.85106800  0.83742900  0.94025800  1
  O  O28  1  0.01241400  0.15583300  0.31823900  1
  O  O29  1  0.14893200  0.16257100  0.05974200  1
  O  O30  1  0.67574400  0.49289400  0.75984900  1
  O  O31  1  0.81976200  0.48432400  0.88170900  1
  O  O32  1  0.66608900  0.48629400  0.14257400  1
  O  O33  1  0.15583300  0.01241400  0.18176100  1
  O  O34  1  0.85106800  0.01363900  0.44025800  1
  O  O35  1  0.18285000  0.50710600  0.74015100  1
  O  O36  1  0.48629400  0.66608900  0.35742600  1
  O  O37  1  0.48432400  0.81976200  0.61829100  1
  O  O38  1  0.50710600  0.18285000  0.75984900  1
  O  O39  1  0.98636100  0.14893200  0.94025800  1
  O  O40  1  0.85658100  0.84416700  0.18176100  1
  O  O41  1  0.98636100  0.83742900  0.44025800  1
  O  O42  1  0.33987000  0.51637700  0.48034300  1
  O  O43  1  0.18023800  0.51567600  0.11829100  1
  O  O44  1  0.01363900  0.16257100  0.55974200  1
  O  O45  1  0.17979500  0.66608900  0.85742600  1
  O  O46  1  0.83742900  0.98636100  0.05974200  1
  O  O47  1  0.32425600  0.50710600  0.24015100  1
  O  O48  1  0.14893200  0.98636100  0.55974200  1
  O  O49  1  0.15583300  0.14341900  0.68176100  1
  O  O50  1  0.98758600  0.14341900  0.18176100  1
  O  O51  1  0.66608900  0.17979500  0.64257400  1
  O  O52  1  0.51637700  0.33987000  0.01965700  1
  O  O53  1  0.01363900  0.85106800  0.05974200  1
  O  O54  1  0.33543800  0.51567600  0.61829100  1
  O  O55  1  0.51637700  0.17650700  0.51965700  1
  O  O56  1  0.84416700  0.85658100  0.31823900  1
  O  O57  1  0.17650700  0.66013000  0.48034300  1
  O  O58  1  0.14341900  0.98758600  0.31823900  1
  O  O59  1  0.67574400  0.18285000  0.25984900  1
  O  O60  1  0.33391100  0.51370600  0.85742600  1
  O  O61  1  0.51370600  0.33391100  0.64257400  1
  O  O62  1  0.48432400  0.66456200  0.11829100  1
  O  O63  1  0.83742900  0.85106800  0.55974200  1
  O  O64  1  0.49289400  0.81715000  0.24015100  1
  O  O65  1  0.51567600  0.33543800  0.88170900  1
  O  O66  1  0.17650700  0.51637700  0.98034300  1
  O  O67  1  0.82020500  0.33391100  0.14257400  1
  O  O68  1  0.16257100  0.14893200  0.44025800  1
  O  O69  1  0.66456200  0.18023800  0.88170900  1
  O  O70  1  0.66456200  0.48432400  0.38170900  1
  O  O71  1  0.66013000  0.48362300  0.51965700  1
loop_
_geom_bond_atom_site_label_1
_geom_bond_atom_site_label_2
_geom_bond_distance
_geom_bond_site_symmetry_2
Co0 O11 1.898366 1_555
Co0 O55 1.898370 1_555
Co0 O71 1.898374 1_555
Co0 O51 1.949861 1_555
Co0 O16 1.949864 1_555
Co0 O61 1.949868 1_555
Co1 O2 1.898366 1_555
Co1 O13 1.898370 1_555
Co1 O52 1.898374 1_555
Co1 O67 1.949861 1_555
Co1 O14 1.949864 1_555
Co1 O32 1.949868 1_555
Co2 O6 2.007359 1_555
Co2 O22 2.007362 1_555
Co2 O70 2.007366 1_555
Co2 O11 2.035282 1_555
Co2 O55 2.035285 1_555
Co2 O71 2.035289 1_555
Co3 O5 1.885321 1_555
Co3 O37 1.885325 1_555
Co3 O54 1.885329 1_555
Co3 O9 1.951318 1_555
Co3 O35 1.951322 1_555
Co3 O20 1.951325 1_555
Co4 O53 1.921878 1_545
Co4 O39 1.921878 1_454
Co4 O46 1.921878 1_445
Co4 O10 1.921878 1_554
Co4 O29 1.921878 1_555
Co4 O27 1.921878 1_444
Co5 O26 1.868274 1_545
Co5 O19 1.868274 1_445
Co5 O3 1.868274 1_555
Co5 O39 1.962572 1_455
Co5 O10 1.962572 1_555
Co5 O27 1.962572 1_445
Co6 O25 1.868274 1_455
Co6 O18 1.868274 1_445
Co6 O49 1.868274 1_555
Co6 O48 1.962572 1_545
Co6 O44 1.962572 1_555
Co6 O63 1.962572 1_445
Co7 O48 1.921878 1_545
Co7 O34 1.921878 1_455
Co7 O41 1.921878 1_445
Co7 O44 1.921878 1_555
Co7 O68 1.921878 1_555
Co7 O63 1.921878 1_445
Co8 O67 1.877436 1_555
Co8 O14 1.877439 1_555
Co8 O32 1.877443 1_555
Co8 O59 1.909030 1_555
Co8 O7 1.909035 1_555
Co8 O24 1.909038 1_555
Co9 O6 1.885321 1_555
Co9 O22 1.885325 1_555
Co9 O70 1.885329 1_555
Co9 O59 1.951318 1_555
Co9 O7 1.951322 1_555
Co9 O24 1.951325 1_555
Co10 O58 1.991374 1_545
Co10 O50 1.991374 1_455
Co10 O28 1.991374 1_555
Co10 O33 1.991374 1_555
Co10 O56 1.991374 1_445
Co10 O40 1.991374 1_445
Co11 O58 1.868274 1_545
Co11 O28 1.868274 1_555
Co11 O56 1.868274 1_445
Co11 O34 1.962572 1_455
Co11 O41 1.962572 1_445
Co11 O68 1.962572 1_555
Co12 O51 1.877436 1_555
Co12 O16 1.877439 1_555
Co12 O61 1.877443 1_555
Co12 O12 1.909030 1_555
Co12 O38 1.909035 1_555
Co12 O30 1.909038 1_555
Co13 O69 1.885321 1_555
Co13 O31 1.885325 1_555
Co13 O65 1.885329 1_555
Co13 O12 1.951318 1_555
Co13 O38 1.951322 1_555
Co13 O30 1.951325 1_555
Co14 O5 2.007359 1_555
Co14 O37 2.007362 1_555
Co14 O54 2.007366 1_555
Co14 O57 2.035282 1_555
Co14 O8 2.035285 1_555
Co14 O42 2.035289 1_555
Co15 O45 1.877436 1_555
Co15 O17 1.877439 1_555
Co15 O60 1.877443 1_555
Co15 O9 1.909030 1_555
Co15 O35 1.909035 1_555
Co15 O20 1.909038 1_555
Co16 O23 1.885321 1_555
Co16 O43 1.885325 1_555
Co16 O62 1.885329 1_555
Co16 O15 1.951318 1_555
Co16 O64 1.951322 1_555
Co16 O47 1.951325 1_555
Co17 O50 1.868274 1_455
Co17 O33 1.868274 1_555
Co17 O40 1.868274 1_445
Co17 O53 1.962572 1_545
Co17 O46 1.962572 1_445
Co17 O29 1.962572 1_555
Co18 O23 2.007359 1_555
Co18 O43 2.007362 1_555
Co18 O62 2.007366 1_555
Co18 O1 2.035282 1_554
Co18 O66 2.035285 1_554
Co18 O0 2.035289 1_554
Co19 O26 1.991374 1_545
Co19 O25 1.991374 1_455
Co19 O19 1.991374 1_445
Co19 O18 1.991374 1_445
Co19 O3 1.991374 1_555
Co19 O49 1.991374 1_555
Co20 O57 1.898366 1_555
Co20 O8 1.898370 1_555
Co20 O42 1.898374 1_555
Co20 O4 1.949861 1_555
Co20 O21 1.949864 1_555
Co20 O36 1.949868 1_555
Co21 O69 2.007359 1_555
Co21 O31 2.007362 1_555
Co21 O65 2.007366 1_555
Co21 O2 2.035282 1_556
Co21 O13 2.035285 1_556
Co21 O52 2.035289 1_556
Co22 O4 1.877436 1_555
Co22 O21 1.877439 1_555
Co22 O36 1.877443 1_555
Co22 O15 1.909030 1_555
Co22 O64 1.909035 1_555
Co22 O47 1.909038 1_555
Co23 O1 1.898366 1_555
Co23 O66 1.898370 1_555
Co23 O0 1.898374 1_555
Co23 O45 1.949861 1_555
Co23 O17 1.949864 1_555
Co23 O60 1.949868 1_555
O0 Sr1 2.441640 1_556
O0 Sr20 2.664125 1_555
O0 Sr10 2.798405 1_555
O0 Sr24 3.150409 1_555
O1 Sr26 2.441640 1_566
O1 Sr28 2.664125 1_555
O1 Sr20 2.798405 1_555
O1 Sr12 3.150409 1_555
O2 Sr20 2.441640 1_544
O2 Sr8 2.664125 1_555
O2 Sr26 2.798405 1_555
O2 Sr17 3.150409 1_555
O3 Sr2 2.444989 1_555
O3 Sr3 2.738569 1_555
O3 Sr12 2.947072 1_545
O3 Sr10 3.124191 1_555
O4 Sr16 2.489618 1_555
O4 Sr4 2.704180 1_565
O4 Sr0 2.753956 1_555
O4 Sr7 2.763659 1_555
O5 Sr29 2.455555 1_455
O5 Sr27 2.823692 1_455
O5 Sr15 2.866257 1_565
O5 Sr13 3.117998 1_555
O6 Sr23 2.455555 1_655
O6 Sr7 2.823692 1_655
O6 Sr0 2.866257 1_545
O6 Sr19 3.117998 1_655
O7 Sr7 2.496041 1_655
O7 Sr19 2.631572 1_655
O7 Sr5 2.697355 1_555
O7 Sr18 2.788910 1_555
O8 Sr6 2.441640 1_565
O8 Sr11 2.664125 1_555
O8 Sr16 2.798405 1_555
O8 Sr0 3.150409 1_555
O9 Sr15 2.496041 1_565
O9 Sr25 2.631572 1_565
O9 Sr13 2.697355 1_555
O9 Sr12 2.788909 1_555
O10 Sr12 2.507613 1_545
O10 Sr28 2.635494 1_545
O10 Sr10 2.640793 1_555
O10 Sr26 2.690199 1_556
O11 Sr23 2.441640 1_655
O11 Sr6 2.664125 1_555
O11 Sr29 2.798405 1_555
O11 Sr27 3.150409 1_555
O12 Sr3 2.496041 1_655
O12 Sr13 2.631572 1_655
O12 Sr25 2.697355 1_555
O12 Sr27 2.788909 1_555
O13 Sr28 2.441640 1_654
O13 Sr1 2.664125 1_555
O13 Sr8 2.798405 1_555
O13 Sr18 3.150409 1_555
O14 Sr26 2.489618 1_555
O14 Sr4 2.704180 1_555
O14 Sr17 2.753956 1_555
O14 Sr21 2.763659 1_555
O15 Sr18 2.496041 1_455
O15 Sr19 2.631572 1_555
O15 Sr4 2.697355 1_565
O15 Sr7 2.788909 1_555
O16 Sr29 2.489618 1_555
O16 Sr13 2.704180 1_655
O16 Sr27 2.753956 1_555
O16 Sr9 2.763659 1_555
O17 Sr20 2.489618 1_555
O17 Sr25 2.704180 1_565
O17 Sr12 2.753956 1_555
O17 Sr24 2.763659 1_555
O18 Sr13 2.444989 1_655
O18 Sr9 2.738569 1_555
O18 Sr15 2.947072 1_665
O18 Sr29 3.124190 1_555
O19 Sr25 2.444989 1_565
O19 Sr24 2.738569 1_555
O19 Sr3 2.947072 1_665
O19 Sr20 3.124190 1_555
O20 Sr9 2.496041 1_555
O20 Sr2 2.631572 1_555
O20 Sr25 2.697355 1_565
O20 Sr24 2.788909 1_555
O21 Sr23 2.489618 1_555
O21 Sr19 2.704180 1_555
O21 Sr7 2.753956 1_555
O21 Sr22 2.763659 1_555
O22 Sr16 2.455555 1_545
O22 Sr0 2.823692 1_545
O22 Sr22 2.866257 1_555
O22 Sr4 3.117998 1_555
O23 Sr26 2.455555 1_565
O23 Sr17 2.823692 1_565
O23 Sr18 2.866257 1_455
O23 Sr4 3.117998 1_565
O24 Sr22 2.496041 1_555
O24 Sr5 2.631572 1_555
O24 Sr4 2.697355 1_555
O24 Sr21 2.788909 1_555
O25 Sr25 2.444989 1_555
O25 Sr27 2.738569 1_555
O25 Sr9 2.947072 1_545
O25 Sr6 3.124190 1_555
O26 Sr13 2.444989 1_555
O26 Sr12 2.738569 1_555
O26 Sr24 2.947072 1_455
O26 Sr28 3.124190 1_555
O27 Sr24 2.507613 1_555
O27 Sr20 2.635494 1_555
O27 Sr28 2.640793 1_655
O27 Sr1 2.690199 1_556
O28 Sr19 2.444989 1_555
O28 Sr22 2.738569 1_555
O28 Sr0 2.947072 1_445
O28 Sr23 3.124190 1_555
O29 Sr21 2.507613 1_555
O29 Sr26 2.635494 1_555
O29 Sr8 2.640793 1_455
O29 Sr10 2.690199 1_554
O30 Sr24 2.496041 1_555
O30 Sr2 2.631572 1_555
O30 Sr13 2.697355 1_655
O30 Sr9 2.788909 1_555
O31 Sr28 2.455555 1_655
O31 Sr3 2.823692 1_655
O31 Sr24 2.866257 1_555
O31 Sr13 3.117998 1_655
O32 Sr1 2.489618 1_555
O32 Sr5 2.704180 1_555
O32 Sr21 2.753956 1_555
O32 Sr18 2.763659 1_555
O33 Sr4 2.444989 1_555
O33 Sr21 2.738569 1_555
O33 Sr18 2.947072 1_445
O33 Sr26 3.124190 1_555
O34 Sr0 2.507613 1_545
O34 Sr11 2.635494 1_545
O34 Sr23 2.640793 1_655
O34 Sr6 2.690199 1_555
O35 Sr27 2.496041 1_455
O35 Sr13 2.631572 1_555
O35 Sr2 2.697355 1_555
O35 Sr3 2.788910 1_555
O36 Sr11 2.489618 1_555
O36 Sr5 2.704180 1_555
O36 Sr22 2.753956 1_555
O36 Sr0 2.763659 1_555
O37 Sr6 2.455555 1_565
O37 Sr15 2.823692 1_565
O37 Sr9 2.866257 1_555
O37 Sr25 3.117998 1_565
O38 Sr12 2.496041 1_545
O38 Sr25 2.631572 1_555
O38 Sr2 2.697355 1_555
O38 Sr15 2.788910 1_555
O39 Sr3 2.507613 1_655
O39 Sr10 2.635494 1_655
O39 Sr20 2.640793 1_545
O39 Sr8 2.690199 1_556
O40 Sr5 2.444989 1_555
O40 Sr18 2.738569 1_555
O40 Sr17 2.947072 1_565
O40 Sr1 3.124191 1_555
O41 Sr7 2.507613 1_655
O41 Sr16 2.635494 1_655
O41 Sr11 2.640793 1_555
O41 Sr29 2.690199 1_555
O42 Sr14 2.441640 1_555
O42 Sr23 2.664125 1_555
O42 Sr11 2.798405 1_555
O42 Sr22 3.150409 1_555
O43 Sr8 2.455555 1_455
O43 Sr18 2.823692 1_455
O43 Sr21 2.866257 1_555
O43 Sr19 3.117998 1_555
O44 Sr27 2.507613 1_455
O44 Sr6 2.635494 1_455
O44 Sr14 2.640793 1_555
O44 Sr23 2.690199 1_555
O45 Sr28 2.489618 1_555
O45 Sr13 2.704180 1_555
O45 Sr3 2.753956 1_555
O45 Sr12 2.763659 1_555
O46 Sr17 2.507613 1_565
O46 Sr8 2.635494 1_565
O46 Sr1 2.640793 1_555
O46 Sr20 2.690199 1_554
O47 Sr21 2.496041 1_555
O47 Sr5 2.631572 1_555
O47 Sr19 2.697355 1_555
O47 Sr22 2.788909 1_555
O48 Sr15 2.507613 1_565
O48 Sr14 2.635494 1_565
O48 Sr29 2.640793 1_455
O48 Sr16 2.690199 1_555
O49 Sr2 2.444989 1_555
O49 Sr15 2.738569 1_555
O49 Sr27 2.947072 1_455
O49 Sr14 3.124191 1_555
O50 Sr19 2.444989 1_655
O50 Sr17 2.738569 1_555
O50 Sr21 2.947072 1_655
O50 Sr8 3.124190 1_555
O51 Sr6 2.489618 1_555
O51 Sr25 2.704180 1_555
O51 Sr15 2.753956 1_555
O51 Sr27 2.763659 1_555
O52 Sr10 2.441640 1_554
O52 Sr26 2.664125 1_555
O52 Sr1 2.798405 1_555
O52 Sr21 3.150409 1_555
O53 Sr18 2.507613 1_455
O53 Sr1 2.635494 1_455
O53 Sr26 2.640793 1_565
O53 Sr28 2.690199 1_554
O54 Sr14 2.455555 1_555
O54 Sr9 2.823692 1_555
O54 Sr27 2.866257 1_455
O54 Sr2 3.117998 1_555
O55 Sr16 2.441640 1_545
O55 Sr14 2.664125 1_555
O55 Sr6 2.798405 1_555
O55 Sr15 3.150409 1_555
O56 Sr5 2.444989 1_555
O56 Sr0 2.738569 1_555
O56 Sr7 2.947072 1_655
O56 Sr11 3.124191 1_555
O57 Sr29 2.441640 1_455
O57 Sr16 2.664125 1_555
O57 Sr23 2.798405 1_555
O57 Sr7 3.150409 1_555
O58 Sr4 2.444989 1_565
O58 Sr7 2.738569 1_555
O58 Sr22 2.947072 1_565
O58 Sr16 3.124190 1_555
O59 Sr0 2.496041 1_545
O59 Sr4 2.631572 1_555
O59 Sr19 2.697355 1_655
O59 Sr17 2.788909 1_555
O60 Sr10 2.489618 1_555
O60 Sr2 2.704180 1_555
O60 Sr24 2.753956 1_555
O60 Sr3 2.763659 1_555
O61 Sr14 2.489618 1_555
O61 Sr2 2.704180 1_555
O61 Sr9 2.753956 1_555
O61 Sr15 2.763659 1_555
O62 Sr1 2.455555 1_555
O62 Sr21 2.823692 1_555
O62 Sr17 2.866257 1_565
O62 Sr5 3.117998 1_555
O63 Sr9 2.507613 1_555
O63 Sr29 2.635494 1_555
O63 Sr6 2.640793 1_565
O63 Sr11 2.690199 1_555
O64 Sr17 2.496041 1_565
O64 Sr4 2.631572 1_565
O64 Sr5 2.697355 1_555
O64 Sr0 2.788910 1_555
O65 Sr10 2.455555 1_555
O65 Sr24 2.823692 1_555
O65 Sr12 2.866257 1_545
O65 Sr2 3.117998 1_555
O66 Sr8 2.441640 1_456
O66 Sr10 2.664125 1_555
O66 Sr28 2.798405 1_555
O66 Sr3 3.150409 1_555
O67 Sr8 2.489618 1_555
O67 Sr19 2.704180 1_655
O67 Sr18 2.753956 1_555
O67 Sr17 2.763659 1_555
O68 Sr22 2.507613 1_555
O68 Sr23 2.635494 1_555
O68 Sr16 2.640793 1_545
O68 Sr14 2.690199 1_555
O69 Sr20 2.455555 1_545
O69 Sr12 2.823692 1_545
O69 Sr3 2.866257 1_655
O69 Sr25 3.117998 1_555
O70 Sr11 2.455555 1_555
O70 Sr22 2.823692 1_555
O70 Sr7 2.866257 1_655
O70 Sr5 3.117998 1_555
O71 Sr11 2.441640 1_555
O71 Sr29 2.664125 1_555
O71 Sr14 2.798405 1_555
O71 Sr9 3.150409 1_555
