# generated using pymatgen
data_LiFeP2O7
_symmetry_space_group_name_H-M   'P 1'
_cell_length_a   5.16133200
_cell_length_b   8.14329500
_cell_length_c   13.66739286
_cell_angle_alpha   69.97843608
_cell_angle_beta   90.00000000
_cell_angle_gamma   90.00000000
_symmetry_Int_Tables_number   1
_chemical_formula_structural   LiFeP2O7
_chemical_formula_sum   'Li4 Fe4 P8 O28'
_cell_volume   539.72673603
_cell_formula_units_Z   4
loop_
 _symmetry_equiv_pos_site_id
 _symmetry_equiv_pos_as_xyz
  1  'x, y, z'
loop_
 _atom_site_type_symbol
 _atom_site_label
 _atom_site_symmetry_multiplicity
 _atom_site_fract_x
 _atom_site_fract_y
 _atom_site_fract_z
 _atom_site_occupancy
  Li  Li0  1  0.50719400  0.42880900  0.82541000  1
  Li  Li1  1  0.92297100  0.97520000  0.16404100  1
  Li  Li2  1  0.07702900  0.97520000  0.66404100  1
  Li  Li3  1  0.49280600  0.42880900  0.32541000  1
  Fe  Fe0  1  0.01480500  0.72876600  0.36661000  1
  Fe  Fe1  1  0.98519500  0.72876600  0.86661000  1
  Fe  Fe2  1  0.50656200  0.26916300  0.14454700  1
  Fe  Fe3  1  0.49343800  0.26916300  0.64454700  1
  P  P0  1  0.45738100  0.82087600  0.20025800  1
  P  P1  1  0.01438600  0.30063500  0.98104200  1
  P  P2  1  0.52089000  0.69645200  0.51999000  1
  P  P3  1  0.54261900  0.82087600  0.70025800  1
  P  P4  1  0.98484600  0.17779700  0.30375600  1
  P  P5  1  0.98561400  0.30063500  0.48104200  1
  P  P6  1  0.47911000  0.69645200  0.01999000  1
  P  P7  1  0.01515400  0.17779700  0.80375600  1
  O  O0  1  0.97309000  0.15565500  0.92492700  1
  O  O1  1  0.27253900  0.27570700  0.77138500  1
  O  O2  1  0.78123500  0.28053100  0.74356000  1
  O  O3  1  0.44302500  0.51973600  0.59694900  1
  O  O4  1  0.30489100  0.30694400  0.00352400  1
  O  O5  1  0.80515100  0.70221600  0.48699800  1
  O  O6  1  0.90129700  0.47070000  0.90464600  1
  O  O7  1  0.34002900  0.76878400  0.42713000  1
  O  O8  1  0.49994600  0.01058000  0.19181300  1
  O  O9  1  0.34649400  0.69455100  0.77130100  1
  O  O10  1  0.96765000  0.99201700  0.30175200  1
  O  O11  1  0.82693100  0.76360000  0.72364200  1
  O  O12  1  0.49101900  0.83418000  0.58074900  1
  O  O13  1  0.85616600  0.22244400  0.08099700  1
  O  O14  1  0.65997100  0.76878400  0.92713000  1
  O  O15  1  0.02691000  0.15565500  0.42492700  1
  O  O16  1  0.72746100  0.27570700  0.27138500  1
  O  O17  1  0.50005400  0.01058000  0.69181300  1
  O  O18  1  0.21876500  0.28053100  0.24356000  1
  O  O19  1  0.03235000  0.99201700  0.80175200  1
  O  O20  1  0.14383400  0.22244400  0.58099700  1
  O  O21  1  0.55697500  0.51973600  0.09694900  1
  O  O22  1  0.69510900  0.30694400  0.50352400  1
  O  O23  1  0.19484900  0.70221600  0.98699800  1
  O  O24  1  0.09870300  0.47070000  0.40464600  1
  O  O25  1  0.65350600  0.69455100  0.27130100  1
  O  O26  1  0.17306900  0.76360000  0.22364200  1
  O  O27  1  0.50898100  0.83418000  0.08074900  1
loop_
_geom_bond_atom_site_label_1
_geom_bond_atom_site_label_2
_geom_bond_distance
_geom_bond_site_symmetry_2
Li0 O1 2.048612 1_555
Li0 O9 2.195900 1_555
Li0 O2 2.373802 1_555
Li0 O6 2.383204 1_555
Li0 O4 2.519313 1_556
Li1 O10 1.947028 1_555
Li1 O13 1.973838 1_565
Li1 O26 2.082746 1_655
Li1 O8 2.251462 1_565
Li2 O19 1.947028 1_555
Li2 O20 1.973838 1_565
Li2 O11 2.082746 1_455
Li2 O17 2.251462 1_565
Li3 O16 2.048612 1_555
Li3 O25 2.195900 1_555
Li3 O18 2.373802 1_555
Li3 O24 2.383204 1_555
Li3 O22 2.519313 1_555
Fe0 O5 1.918694 1_455
Fe0 O7 1.947462 1_555
Fe0 O24 2.031261 1_555
Fe0 O10 2.034545 1_455
Fe0 O26 2.046042 1_555
Fe0 O25 2.345295 1_455
Fe1 O23 1.918694 1_655
Fe1 O14 1.947462 1_555
Fe1 O6 2.031261 1_555
Fe1 O19 2.034545 1_655
Fe1 O11 2.046042 1_555
Fe1 O9 2.345295 1_655
Fe2 O21 1.935344 1_555
Fe2 O8 1.980169 1_555
Fe2 O18 2.032756 1_555
Fe2 O16 2.090736 1_555
Fe2 O13 2.093167 1_555
Fe2 O4 2.118253 1_555
Fe3 O3 1.935344 1_555
Fe3 O17 1.980169 1_555
Fe3 O2 2.032756 1_555
Fe3 O1 2.090736 1_555
Fe3 O20 2.093167 1_555
Fe3 O22 2.118253 1_555
O0 P7 1.617966 1_655
O0 P1 1.627115 1_655
O1 P7 1.534496 1_555
O2 P7 1.537242 1_655
O3 P2 1.517322 1_555
O4 P1 1.534941 1_554
O5 P2 1.530885 1_555
O6 P1 1.535798 1_655
O7 P2 1.522235 1_555
O8 P0 1.525106 1_545
O9 P3 1.530276 1_555
O10 P4 1.525041 1_565
O11 P3 1.539792 1_555
O12 P2 1.615242 1_555
O12 P3 1.621547 1_555
O13 P1 1.530676 1_654
O14 P6 1.522235 1_556
O15 P4 1.617966 1_455
O15 P5 1.627115 1_455
O16 P4 1.534496 1_555
O17 P3 1.525106 1_545
O18 P4 1.537242 1_455
O19 P7 1.525041 1_565
O20 P5 1.530676 1_455
O21 P6 1.517322 1_555
O22 P5 1.534941 1_555
O23 P6 1.530885 1_556
O24 P5 1.535798 1_455
O25 P0 1.530276 1_555
O26 P0 1.539792 1_555
O27 P6 1.615242 1_555
O27 P0 1.621547 1_555
