# generated using pymatgen
data_Li2MnO2F
_symmetry_space_group_name_H-M   'P 1'
_cell_length_a   5.11558620
_cell_length_b   5.20220067
_cell_length_c   9.91557908
_cell_angle_alpha   84.48811108
_cell_angle_beta   101.76731164
_cell_angle_gamma   119.12799937
_symmetry_Int_Tables_number   1
_chemical_formula_structural   Li2MnO2F
_chemical_formula_sum   'Li8 Mn4 O8 F4'
_cell_volume   225.65923274
_cell_formula_units_Z   4
loop_
 _symmetry_equiv_pos_site_id
 _symmetry_equiv_pos_as_xyz
  1  'x, y, z'
loop_
 _atom_site_type_symbol
 _atom_site_label
 _atom_site_symmetry_multiplicity
 _atom_site_fract_x
 _atom_site_fract_y
 _atom_site_fract_z
 _atom_site_occupancy
  Li  Li0  1  0.00000900  0.49999400  0.00000500  1
  Li  Li1  1  0.50002200  0.50000200  0.50000700  1
  Li  Li2  1  0.13478300  0.81856600  0.49516300  1
  Li  Li3  1  0.86527600  0.18142900  0.50482400  1
  Li  Li4  1  0.29931100  0.12791600  0.00267400  1
  Li  Li5  1  0.70074800  0.87208200  0.99733000  1
  Li  Li6  1  0.05506300  0.14579500  0.25266000  1
  Li  Li7  1  0.94495200  0.85420800  0.74735300  1
  Mn  Mn0  1  0.76351000  0.50403600  0.24765900  1
  Mn  Mn1  1  0.41023200  0.83256000  0.25038000  1
  Mn  Mn2  1  0.23643000  0.49595800  0.75233900  1
  Mn  Mn3  1  0.58974900  0.16747400  0.74962200  1
  O  O0  1  0.06076300  0.82647700  0.12790800  1
  O  O1  1  0.93923600  0.17353600  0.87209100  1
  O  O2  1  0.31588200  0.83565600  0.85393800  1
  O  O3  1  0.68411300  0.16435400  0.14605800  1
  O  O4  1  0.12865700  0.52307600  0.36258600  1
  O  O5  1  0.87132000  0.47692800  0.63740200  1
  O  O6  1  0.23893300  0.20218400  0.64178900  1
  O  O7  1  0.76105800  0.79781500  0.35821100  1
  F  F0  1  0.55378200  0.83340800  0.61313800  1
  F  F1  1  0.44623800  0.16660000  0.38686900  1
  F  F2  1  0.62085200  0.51505200  0.88006600  1
  F  F3  1  0.37908000  0.48489600  0.11992800  1
loop_
_geom_bond_atom_site_label_1
_geom_bond_atom_site_label_2
_geom_bond_distance
_geom_bond_site_symmetry_2
Li0 O1 2.080511 1_454
Li0 O0 2.080580 1_555
Li0 O3 2.340794 1_455
Li0 O2 2.340876 1_554
Li1 O7 2.119790 1_555
Li1 O6 2.119810 1_555
Li1 O5 2.147850 1_555
Li1 O4 2.148234 1_555
Li2 O7 2.068598 1_455
Li2 O4 2.101565 1_555
Li2 O5 2.219503 1_455
Li2 O6 2.363601 1_565
Li3 O6 2.068386 1_655
Li3 O5 2.101805 1_555
Li3 O4 2.219372 1_655
Li3 O7 2.363393 1_545
Li4 O0 1.967552 1_545
Li4 O3 2.116414 1_555
Li4 O1 2.125922 1_454
Li4 O2 2.258551 1_544
Li5 O1 1.967508 1_565
Li5 O2 2.116717 1_555
Li5 O0 2.125619 1_656
Li5 O3 2.258703 1_566
Li6 O3 2.016985 1_455
Li6 O7 2.064452 1_445
Li6 O4 2.169378 1_555
Li6 O0 2.178770 1_545
Li7 O2 2.016826 1_655
Li7 O6 2.064466 1_665
Li7 O5 2.169439 1_555
Li7 O1 2.178765 1_565
Mn0 O4 1.941899 1_655
Mn0 O3 1.943934 1_555
Mn0 O7 1.970680 1_555
Mn0 O0 2.099181 1_655
Mn1 O0 1.933532 1_555
Mn1 O7 1.973008 1_555
Mn1 O3 1.976387 1_565
Mn1 O4 1.989128 1_555
Mn2 O5 1.941802 1_455
Mn2 O2 1.943899 1_555
Mn2 O6 1.970776 1_555
Mn2 O1 2.099012 1_455
Mn3 O1 1.933632 1_555
Mn3 O6 1.972884 1_555
Mn3 O2 1.976384 1_545
Mn3 O5 1.989143 1_555
F0 Li1 2.031217 1_555
F0 Li3 2.118107 1_565
F0 Li7 2.125493 1_555
F0 Li2 2.191390 1_555
F0 Mn3 2.219122 1_565
F0 Mn2 2.301392 1_555
F1 Li1 2.031194 1_555
F1 Li2 2.117934 1_545
F1 Li6 2.125478 1_555
F1 Li3 2.191520 1_555
F1 Mn1 2.218963 1_545
F1 Mn0 2.301239 1_555
F2 Mn2 2.073475 1_555
F2 Li0 2.090872 1_656
F2 Li5 2.109678 1_555
F2 Mn3 2.247891 1_555
F2 Li7 2.278053 1_555
F2 Li4 2.315148 1_556
F3 Mn0 2.073439 1_555
F3 Li0 2.090537 1_555
F3 Li4 2.109627 1_555
F3 Mn1 2.248201 1_555
F3 Li6 2.277873 1_555
F3 Li5 2.315470 1_554
