# generated using pymatgen
data_LiV(PO3)4
_symmetry_space_group_name_H-M   'P 1'
_cell_length_a   8.63728628
_cell_length_b   8.63728628
_cell_length_c   9.21905977
_cell_angle_alpha   64.40358450
_cell_angle_beta   64.40358450
_cell_angle_gamma   56.07588985
_symmetry_Int_Tables_number   1
_chemical_formula_structural   LiV(PO3)4
_chemical_formula_sum   'Li2 V2 P8 O24'
_cell_volume   497.65431208
_cell_formula_units_Z   2
loop_
 _symmetry_equiv_pos_site_id
 _symmetry_equiv_pos_as_xyz
  1  'x, y, z'
loop_
 _atom_site_type_symbol
 _atom_site_label
 _atom_site_symmetry_multiplicity
 _atom_site_fract_x
 _atom_site_fract_y
 _atom_site_fract_z
 _atom_site_occupancy
  Li  Li0  1  0.00000000  0.00000000  0.50000000  1
  Li  Li1  1  0.00000000  0.00000000  0.00000000  1
  V  V0  1  0.33313800  0.66686200  0.75000000  1
  V  V1  1  0.66686200  0.33313800  0.25000000  1
  P  P0  1  0.30374700  0.41422200  0.14009800  1
  P  P1  1  0.65613000  0.04767800  0.10678300  1
  P  P2  1  0.95232200  0.34387000  0.39321700  1
  P  P3  1  0.58577800  0.69625300  0.35990200  1
  P  P4  1  0.41422200  0.30374700  0.64009800  1
  P  P5  1  0.04767800  0.65613000  0.60678300  1
  P  P6  1  0.34387000  0.95232200  0.89321700  1
  P  P7  1  0.69625300  0.58577800  0.85990200  1
  O  O0  1  0.72476700  0.08617500  0.20975600  1
  O  O1  1  0.21755500  0.57034300  0.99818300  1
  O  O2  1  0.13730500  0.38098900  0.29257200  1
  O  O3  1  0.43921200  0.21056900  0.09170000  1
  O  O4  1  0.58914700  0.54961200  0.79647800  1
  O  O5  1  0.78943100  0.56078800  0.40830000  1
  O  O6  1  0.61901100  0.86269500  0.20742800  1
  O  O7  1  0.98194200  0.20627500  0.55708500  1
  O  O8  1  0.42965700  0.78244500  0.50181700  1
  O  O9  1  0.79372500  0.01805800  0.94291500  1
  O  O10  1  0.91382500  0.27523300  0.29024400  1
  O  O11  1  0.45038800  0.41085300  0.70352200  1
  O  O12  1  0.54961200  0.58914700  0.29647800  1
  O  O13  1  0.08617500  0.72476700  0.70975600  1
  O  O14  1  0.20627500  0.98194200  0.05708500  1
  O  O15  1  0.57034300  0.21755500  0.49818300  1
  O  O16  1  0.01805800  0.79372500  0.44291500  1
  O  O17  1  0.38098900  0.13730500  0.79257200  1
  O  O18  1  0.21056900  0.43921200  0.59170000  1
  O  O19  1  0.41085300  0.45038800  0.20352200  1
  O  O20  1  0.56078800  0.78943100  0.90830000  1
  O  O21  1  0.86269500  0.61901100  0.70742800  1
  O  O22  1  0.78244500  0.42965700  0.00181700  1
  O  O23  1  0.27523300  0.91382500  0.79024400  1
loop_
_geom_bond_atom_site_label_1
_geom_bond_atom_site_label_2
_geom_bond_distance
_geom_bond_site_symmetry_2
Li0 O7 1.976020 1_455
Li0 O16 1.976020 1_545
Li0 O13 2.289393 1_545
Li0 O10 2.289393 1_455
Li1 O14 1.976020 1_545
Li1 O9 1.976020 1_454
Li1 O23 2.289393 1_544
Li1 O0 2.289393 1_455
O0 P1 1.530448 1_555
O0 V1 2.066530 1_555
O1 P0 1.510286 1_556
O1 V0 2.057624 1_555
O2 P0 1.578254 1_555
O2 P2 1.596963 1_455
O3 P0 1.609973 1_555
O3 P1 1.619536 1_555
O4 P7 1.497680 1_555
O4 V0 2.010696 1_555
O5 P3 1.609973 1_555
O5 P2 1.619536 1_555
O6 P3 1.578254 1_555
O6 P1 1.596963 1_565
O7 P2 1.484369 1_555
O8 P3 1.510286 1_555
O8 V0 2.057624 1_555
O9 P1 1.484369 1_556
O10 P2 1.530448 1_555
O10 V1 2.066530 1_555
O11 P4 1.497680 1_555
O11 V0 2.010696 1_555
O12 P3 1.497680 1_555
O12 V1 2.010696 1_555
O13 P5 1.530448 1_555
O13 V0 2.066530 1_555
O14 P6 1.484369 1_554
O15 P4 1.510286 1_555
O15 V1 2.057624 1_555
O16 P5 1.484369 1_555
O17 P4 1.578254 1_555
O17 P6 1.596963 1_545
O18 P4 1.609973 1_555
O18 P5 1.619536 1_555
O19 P0 1.497680 1_555
O19 V1 2.010696 1_555
O20 P7 1.609973 1_555
O20 P6 1.619536 1_555
O21 P7 1.578254 1_555
O21 P5 1.596963 1_655
O22 P7 1.510286 1_554
O22 V1 2.057624 1_555
O23 P6 1.530448 1_555
O23 V0 2.066530 1_555
