# generated using pymatgen
data_Li3Mn4FeO8
_symmetry_space_group_name_H-M   'P 1'
_cell_length_a   6.20024201
_cell_length_b   6.20024201
_cell_length_c   5.98844371
_cell_angle_alpha   61.15869322
_cell_angle_beta   61.15869322
_cell_angle_gamma   57.69673592
_symmetry_Int_Tables_number   1
_chemical_formula_structural   Li3Mn4FeO8
_chemical_formula_sum   'Li3 Mn4 Fe1 O8'
_cell_volume   162.41579143
_cell_formula_units_Z   1
loop_
 _symmetry_equiv_pos_site_id
 _symmetry_equiv_pos_as_xyz
  1  'x, y, z'
loop_
 _atom_site_type_symbol
 _atom_site_label
 _atom_site_symmetry_multiplicity
 _atom_site_fract_x
 _atom_site_fract_y
 _atom_site_fract_z
 _atom_site_occupancy
  Li  Li0  1  0.00000000  0.50000000  0.50000000  1
  Li  Li1  1  0.00000000  0.00000000  0.50000000  1
  Li  Li2  1  0.50000000  0.00000000  0.50000000  1
  Mn  Mn0  1  0.50000000  0.50000000  0.50000000  1
  Mn  Mn1  1  0.00000000  0.00000000  0.00000000  1
  Mn  Mn2  1  0.00000000  0.50000000  0.00000000  1
  Mn  Mn3  1  0.50000000  0.00000000  0.00000000  1
  Fe  Fe0  1  0.50000000  0.50000000  0.00000000  1
  O  O0  1  0.72867600  0.72867600  0.79081400  1
  O  O1  1  0.74606000  0.26199700  0.75280100  1
  O  O2  1  0.26199700  0.74606000  0.75280100  1
  O  O3  1  0.24793200  0.24793200  0.77091000  1
  O  O4  1  0.75206800  0.75206800  0.22909000  1
  O  O5  1  0.73800300  0.25394000  0.24719900  1
  O  O6  1  0.25394000  0.73800300  0.24719900  1
  O  O7  1  0.27132400  0.27132400  0.20918600  1
loop_
_geom_bond_atom_site_label_1
_geom_bond_atom_site_label_2
_geom_bond_distance
_geom_bond_site_symmetry_2
Li0 O3 2.197658 1_555
Li0 O4 2.197658 1_455
Li0 O0 2.208992 1_455
Li0 O7 2.208992 1_555
Li0 O1 2.230886 1_455
Li0 O6 2.230886 1_555
Li1 O2 2.179221 1_545
Li1 O1 2.179221 1_455
Li1 O5 2.179221 1_455
Li1 O6 2.179221 1_545
Li1 O0 2.462669 1_445
Li1 O7 2.462669 1_555
Li2 O3 2.197658 1_555
Li2 O4 2.197658 1_545
Li2 O0 2.208992 1_545
Li2 O7 2.208992 1_555
Li2 O2 2.230886 1_545
Li2 O5 2.230886 1_555
Mn0 O1 2.112758 1_555
Mn0 O2 2.112758 1_555
Mn0 O5 2.112758 1_555
Mn0 O6 2.112758 1_555
Mn0 O4 2.288108 1_555
Mn0 O3 2.288108 1_555
Mn1 O5 2.122322 1_455
Mn1 O6 2.122322 1_545
Mn1 O1 2.122322 1_454
Mn1 O2 2.122322 1_544
Mn1 O3 2.250493 1_554
Mn1 O4 2.250493 1_445
Mn2 O4 2.038116 1_455
Mn2 O3 2.038116 1_554
Mn2 O7 2.044470 1_555
Mn2 O0 2.044470 1_454
Mn2 O5 2.303843 1_455
Mn2 O2 2.303843 1_554
Mn3 O4 2.038116 1_545
Mn3 O3 2.038116 1_554
Mn3 O7 2.044470 1_555
Mn3 O0 2.044470 1_544
Mn3 O6 2.303843 1_545
Mn3 O1 2.303843 1_554
Fe0 O5 2.054019 1_555
Fe0 O6 2.054019 1_555
Fe0 O1 2.054019 1_554
Fe0 O2 2.054019 1_554
Fe0 O0 2.076368 1_554
Fe0 O7 2.076368 1_555
