# generated using pymatgen
data_Li3Fe8(BO3)8
_symmetry_space_group_name_H-M   'P 1'
_cell_length_a   5.29709700
_cell_length_b   9.09203835
_cell_length_c   10.12415218
_cell_angle_alpha   89.41527998
_cell_angle_beta   89.80686981
_cell_angle_gamma   89.74457020
_symmetry_Int_Tables_number   1
_chemical_formula_structural   Li3Fe8(BO3)8
_chemical_formula_sum   'Li3 Fe8 B8 O24'
_cell_volume   487.56050277
_cell_formula_units_Z   1
loop_
 _symmetry_equiv_pos_site_id
 _symmetry_equiv_pos_as_xyz
  1  'x, y, z'
loop_
 _atom_site_type_symbol
 _atom_site_label
 _atom_site_symmetry_multiplicity
 _atom_site_fract_x
 _atom_site_fract_y
 _atom_site_fract_z
 _atom_site_occupancy
  Li  Li0  1  0.65192600  0.98575300  0.83315800  1
  Li  Li1  1  0.15668000  0.49023400  0.84398100  1
  Li  Li2  1  0.64539000  0.00653100  0.33378000  1
  Fe  Fe0  1  0.84668600  0.83005000  0.11974000  1
  Fe  Fe1  1  0.15843300  0.83618500  0.37196100  1
  Fe  Fe2  1  0.66277800  0.65431300  0.87565300  1
  Fe  Fe3  1  0.34527300  0.67062900  0.62197300  1
  Fe  Fe4  1  0.66160600  0.34325100  0.36915600  1
  Fe  Fe5  1  0.85071100  0.17105100  0.62186600  1
  Fe  Fe6  1  0.33586800  0.33578000  0.11937500  1
  Fe  Fe7  1  0.16133400  0.15374500  0.87411500  1
  B  B0  1  0.83886200  0.83116600  0.62726000  1
  B  B1  1  0.66157300  0.67080500  0.37195000  1
  B  B2  1  0.16588600  0.82997800  0.87222100  1
  B  B3  1  0.33824700  0.66825900  0.11918800  1
  B  B4  1  0.66655900  0.32771200  0.87079100  1
  B  B5  1  0.34489600  0.33234700  0.62394500  1
  B  B6  1  0.83761400  0.17033200  0.12924100  1
  B  B7  1  0.17490800  0.17033800  0.37010600  1
  O  O0  1  0.74793200  0.97331100  0.63911000  1
  O  O1  1  0.91255200  0.83348900  0.91760700  1
  O  O2  1  0.30564800  0.95516400  0.86949100  1
  O  O3  1  0.77593300  0.79977900  0.32278700  1
  O  O4  1  0.69015600  0.71559600  0.67086100  1
  O  O5  1  0.19359800  0.78623900  0.16278300  1
  O  O6  1  0.07608100  0.80621900  0.57706700  1
  O  O7  1  0.58469200  0.69199900  0.07739100  1
  O  O8  1  0.77549700  0.53591400  0.36185700  1
  O  O9  1  0.42682800  0.68485500  0.43067600  1
  O  O10  1  0.26846800  0.69644000  0.82891200  1
  O  O11  1  0.80340500  0.45235300  0.86824200  1
  O  O12  1  0.23549800  0.53108200  0.11206600  1
  O  O13  1  0.68938600  0.29035400  0.17068900  1
  O  O14  1  0.58265600  0.30716200  0.56533900  1
  O  O15  1  0.26245800  0.46962000  0.65085000  1
  O  O16  1  0.41644600  0.32423400  0.91858100  1
  O  O17  1  0.91687800  0.18190600  0.41245700  1
  O  O18  1  0.77079500  0.19421200  0.82294200  1
  O  O19  1  0.29661800  0.29976300  0.32693900  1
  O  O20  1  0.19893500  0.21181900  0.66072700  1
  O  O21  1  0.74574900  0.03131500  0.14422800  1
  O  O22  1  0.07343100  0.19609300  0.07632300  1
  O  O23  1  0.29408100  0.03947100  0.37082500  1
loop_
_geom_bond_atom_site_label_1
_geom_bond_atom_site_label_2
_geom_bond_distance
_geom_bond_site_symmetry_2
Li0 O2 1.890795 1_555
Li0 O18 2.001399 1_565
Li0 O0 2.031810 1_555
Li0 O1 2.126082 1_555
Li1 O11 1.918790 1_455
Li1 O10 1.972909 1_555
Li1 O15 2.042398 1_555
Li1 O16 2.169552 1_555
Li2 O23 1.919893 1_555
Li2 O21 2.000379 1_555
Li2 O3 2.004085 1_545
Li2 O17 2.301993 1_555
Fe0 O21 1.922381 1_565
Fe0 O7 1.927641 1_555
Fe0 O5 1.928929 1_655
Fe0 O1 2.074739 1_554
Fe0 O3 2.103855 1_555
Fe1 O23 1.985935 1_565
Fe1 O9 2.058953 1_555
Fe1 O3 2.116317 1_455
Fe1 O6 2.135388 1_555
Fe1 O5 2.177612 1_555
Fe2 O11 1.980530 1_555
Fe2 O7 2.113604 1_556
Fe2 O4 2.146012 1_555
Fe2 O1 2.149874 1_555
Fe2 O10 2.174656 1_555
Fe3 O15 1.900880 1_555
Fe3 O6 1.933136 1_555
Fe3 O4 1.940747 1_555
Fe3 O9 1.985947 1_555
Fe3 O10 2.147883 1_555
Fe4 O8 1.855897 1_555
Fe4 O19 2.023067 1_555
Fe4 O17 2.036116 1_555
Fe4 O14 2.051785 1_555
Fe4 O13 2.075424 1_555
Fe5 O0 1.887025 1_545
Fe5 O20 1.925775 1_655
Fe5 O14 1.962268 1_555
Fe5 O18 2.090422 1_555
Fe5 O17 2.149044 1_555
Fe6 O12 1.852134 1_555
Fe6 O22 1.940781 1_555
Fe6 O13 1.985562 1_555
Fe6 O16 2.079391 1_554
Fe6 O19 2.133073 1_555
Fe7 O2 1.958468 1_545
Fe7 O16 2.113912 1_555
Fe7 O22 2.136373 1_556
Fe7 O18 2.163318 1_455
Fe7 O20 2.227203 1_555
B0 O6 1.372645 1_655
B0 O0 1.383432 1_555
B0 O4 1.383843 1_555
B1 O8 1.369050 1_555
B1 O9 1.382450 1_555
B1 O3 1.407895 1_555
B2 O2 1.360544 1_555
B2 O10 1.401791 1_555
B2 O1 1.417288 1_455
B3 O12 1.365700 1_555
B3 O7 1.388077 1_555
B3 O5 1.390176 1_555
B4 O11 1.347947 1_555
B4 O16 1.409299 1_555
B4 O18 1.420226 1_555
B5 O15 1.350517 1_555
B5 O20 1.390908 1_555
B5 O14 1.409194 1_555
B6 O21 1.363252 1_555
B6 O22 1.377602 1_655
B6 O13 1.408152 1_555
B7 O23 1.344415 1_555
B7 O19 1.409157 1_555
B7 O17 1.434838 1_455
