# generated using pymatgen
data_NbV3(PO4)6
_symmetry_space_group_name_H-M   'P 1'
_cell_length_a   8.80344766
_cell_length_b   8.80344766
_cell_length_c   8.80344748
_cell_angle_alpha   58.63746888
_cell_angle_beta   58.63746888
_cell_angle_gamma   58.63747114
_symmetry_Int_Tables_number   1
_chemical_formula_structural   NbV3(PO4)6
_chemical_formula_sum   'Nb1 V3 P6 O24'
_cell_volume   467.41451086
_cell_formula_units_Z   1
loop_
 _symmetry_equiv_pos_site_id
 _symmetry_equiv_pos_as_xyz
  1  'x, y, z'
loop_
 _atom_site_type_symbol
 _atom_site_label
 _atom_site_symmetry_multiplicity
 _atom_site_fract_x
 _atom_site_fract_y
 _atom_site_fract_z
 _atom_site_occupancy
  Nb  Nb0  1  0.13936200  0.13936200  0.13936200  1
  V  V0  1  0.85779300  0.85779300  0.85779300  1
  V  V1  1  0.64058600  0.64058600  0.64058600  1
  V  V2  1  0.35741700  0.35741700  0.35741700  1
  P  P0  1  0.54024400  0.96440700  0.25001900  1
  P  P1  1  0.25001900  0.54024400  0.96440700  1
  P  P2  1  0.96440700  0.25001900  0.54024400  1
  P  P3  1  0.03256800  0.74100500  0.47361900  1
  P  P4  1  0.74100500  0.47361900  0.03256800  1
  P  P5  1  0.47361900  0.03256800  0.74100500  1
  O  O0  1  0.50189800  0.85783100  0.71553400  1
  O  O1  1  0.85783100  0.71553400  0.50189800  1
  O  O2  1  0.71792300  0.93416700  0.07776600  1
  O  O3  1  0.71553400  0.50189800  0.85783100  1
  O  O4  1  0.56700100  0.78306900  0.42685900  1
  O  O5  1  0.36474900  0.99103200  0.22542900  1
  O  O6  1  0.07776600  0.71792300  0.93416700  1
  O  O7  1  0.42685900  0.56700100  0.78306900  1
  O  O8  1  0.78306900  0.42685900  0.56700100  1
  O  O9  1  0.00564500  0.77831300  0.63888100  1
  O  O10  1  0.05679000  0.91759700  0.29110600  1
  O  O11  1  0.77831300  0.63888100  0.00564500  1
  O  O12  1  0.22542900  0.36474900  0.99103200  1
  O  O13  1  0.93416700  0.07776600  0.71792300  1
  O  O14  1  0.99103200  0.22542900  0.36474900  1
  O  O15  1  0.21319600  0.57203600  0.44140100  1
  O  O16  1  0.57203600  0.44140100  0.21319600  1
  O  O17  1  0.91759700  0.29110600  0.05679000  1
  O  O18  1  0.63888100  0.00564500  0.77831300  1
  O  O19  1  0.44140100  0.21319600  0.57203600  1
  O  O20  1  0.28090700  0.50820600  0.13564300  1
  O  O21  1  0.29110600  0.05679000  0.91759700  1
  O  O22  1  0.13564300  0.28090700  0.50820600  1
  O  O23  1  0.50820600  0.13564300  0.28090700  1
loop_
_geom_bond_atom_site_label_1
_geom_bond_atom_site_label_2
_geom_bond_distance
_geom_bond_site_symmetry_2
Nb0 O10 1.968794 1_545
Nb0 O21 1.968794 1_554
Nb0 O17 1.968794 1_455
Nb0 O12 2.013525 1_554
Nb0 O14 2.013525 1_455
Nb0 O5 2.013525 1_545
O0 P5 1.543016 1_565
O0 V1 1.904758 1_555
O1 P3 1.543016 1_655
O1 V1 1.904758 1_555
O2 P0 1.528026 1_555
O2 V0 1.931281 1_554
O3 P4 1.543016 1_556
O3 V1 1.904758 1_555
O4 P0 1.559156 1_555
O4 V1 1.870691 1_555
O5 P0 1.551477 1_555
O6 P1 1.528026 1_555
O6 V0 1.931282 1_455
O7 P1 1.559156 1_555
O7 V1 1.870691 1_555
O8 P2 1.559156 1_555
O8 V1 1.870691 1_555
O9 P3 1.529095 1_555
O9 V0 1.934519 1_455
O10 P3 1.559590 1_555
O11 P4 1.529095 1_555
O11 V0 1.934519 1_554
O12 P1 1.551477 1_555
O13 P2 1.528026 1_555
O13 V0 1.931281 1_545
O14 P2 1.551477 1_555
O15 P3 1.526202 1_555
O15 V2 1.925720 1_555
O16 P4 1.526201 1_555
O16 V2 1.925720 1_555
O17 P4 1.559590 1_555
O18 P5 1.529095 1_555
O18 V0 1.934519 1_545
O19 P5 1.526201 1_555
O19 V2 1.925720 1_555
O20 P1 1.526509 1_554
O20 V2 1.941137 1_555
O21 P5 1.559590 1_555
O22 P2 1.526509 1_455
O22 V2 1.941137 1_555
O23 P0 1.526509 1_545
O23 V2 1.941137 1_555
