# generated using pymatgen
data_Fe2Ni(PO4)3
_symmetry_space_group_name_H-M   'P 1'
_cell_length_a   8.49224612
_cell_length_b   8.49224612
_cell_length_c   8.49224594
_cell_angle_alpha   61.08463059
_cell_angle_beta   61.08463059
_cell_angle_gamma   61.08462206
_symmetry_Int_Tables_number   1
_chemical_formula_structural   Fe2Ni(PO4)3
_chemical_formula_sum   'Fe4 Ni2 P6 O24'
_cell_volume   443.63879499
_cell_formula_units_Z   2
loop_
 _symmetry_equiv_pos_site_id
 _symmetry_equiv_pos_as_xyz
  1  'x, y, z'
loop_
 _atom_site_type_symbol
 _atom_site_label
 _atom_site_symmetry_multiplicity
 _atom_site_fract_x
 _atom_site_fract_y
 _atom_site_fract_z
 _atom_site_occupancy
  Fe  Fe0  1  0.14423600  0.14423600  0.14423600  1
  Fe  Fe1  1  0.35576400  0.35576400  0.35576400  1
  Fe  Fe2  1  0.64423600  0.64423600  0.64423600  1
  Fe  Fe3  1  0.85576400  0.85576400  0.85576400  1
  Ni  Ni0  1  0.00000000  0.00000000  0.00000000  1
  Ni  Ni1  1  0.50000000  0.50000000  0.50000000  1
  P  P0  1  0.75000000  0.04634700  0.45365300  1
  P  P1  1  0.04634700  0.45365300  0.75000000  1
  P  P2  1  0.45365300  0.75000000  0.04634700  1
  P  P3  1  0.54634700  0.25000000  0.95365300  1
  P  P4  1  0.95365300  0.54634700  0.25000000  1
  P  P5  1  0.25000000  0.95365300  0.54634700  1
  O  O0  1  0.31975600  0.10918300  0.50483800  1
  O  O1  1  0.50483800  0.31975600  0.10918300  1
  O  O2  1  0.90759100  0.06100900  0.25397800  1
  O  O3  1  0.10918300  0.50483800  0.31975600  1
  O  O4  1  0.81975600  0.00483800  0.60918300  1
  O  O5  1  0.59240900  0.24602200  0.43899100  1
  O  O6  1  0.06100900  0.25397800  0.90759100  1
  O  O7  1  0.24602200  0.43899100  0.59240900  1
  O  O8  1  0.39081700  0.18024400  0.99516200  1
  O  O9  1  0.43899100  0.59240900  0.24602200  1
  O  O10  1  0.74602200  0.09240900  0.93899100  1
  O  O11  1  0.99516200  0.39081700  0.18024400  1
  O  O12  1  0.00483800  0.60918300  0.81975600  1
  O  O13  1  0.25397800  0.90759100  0.06100900  1
  O  O14  1  0.56100900  0.40759100  0.75397800  1
  O  O15  1  0.60918300  0.81975600  0.00483800  1
  O  O16  1  0.75397800  0.56100900  0.40759100  1
  O  O17  1  0.93899100  0.74602200  0.09240900  1
  O  O18  1  0.40759100  0.75397800  0.56100900  1
  O  O19  1  0.18024400  0.99516200  0.39081700  1
  O  O20  1  0.89081700  0.49516200  0.68024400  1
  O  O21  1  0.09240900  0.93899100  0.74602200  1
  O  O22  1  0.49516200  0.68024400  0.89081700  1
  O  O23  1  0.68024400  0.89081700  0.49516200  1
loop_
_geom_bond_atom_site_label_1
_geom_bond_atom_site_label_2
_geom_bond_distance
_geom_bond_site_symmetry_2
Fe0 O11 1.939694 1_455
Fe0 O19 1.939694 1_545
Fe0 O8 1.939694 1_554
Fe0 O13 2.081392 1_545
Fe0 O6 2.081392 1_554
Fe0 O2 2.081392 1_455
Fe1 O3 1.939694 1_555
Fe1 O1 1.939694 1_555
Fe1 O0 1.939694 1_555
Fe1 O5 2.081392 1_555
Fe1 O7 2.081392 1_555
Fe1 O9 2.081392 1_555
Fe2 O20 1.939694 1_555
Fe2 O22 1.939694 1_555
Fe2 O23 1.939694 1_555
Fe2 O18 2.081392 1_555
Fe2 O16 2.081392 1_555
Fe2 O14 2.081392 1_555
Fe3 O12 1.939694 1_655
Fe3 O4 1.939694 1_565
Fe3 O15 1.939694 1_556
Fe3 O10 2.081392 1_565
Fe3 O17 2.081392 1_556
Fe3 O21 2.081392 1_655
Ni0 O13 2.141703 1_545
Ni0 O10 2.141703 1_454
Ni0 O2 2.141703 1_455
Ni0 O21 2.141703 1_544
Ni0 O6 2.141704 1_554
Ni0 O17 2.141704 1_445
Ni1 O18 2.141703 1_555
Ni1 O5 2.141703 1_555
Ni1 O14 2.141703 1_555
Ni1 O9 2.141703 1_555
Ni1 O16 2.141704 1_555
Ni1 O7 2.141704 1_555
O0 P5 1.524515 1_545
O1 P3 1.524514 1_554
O2 P0 1.563442 1_555
O3 P4 1.524514 1_455
O4 P0 1.524514 1_555
O5 P0 1.563442 1_555
O6 P1 1.563442 1_555
O7 P1 1.563442 1_555
O8 P3 1.524515 1_555
O9 P2 1.563442 1_555
O10 P3 1.563442 1_555
O11 P4 1.524514 1_555
O12 P1 1.524514 1_555
O13 P2 1.563442 1_555
O14 P3 1.563442 1_555
O15 P2 1.524515 1_555
O16 P4 1.563442 1_555
O17 P4 1.563442 1_555
O18 P5 1.563442 1_555
O19 P5 1.524514 1_555
O20 P1 1.524514 1_655
O21 P5 1.563442 1_555
O22 P2 1.524514 1_556
O23 P0 1.524515 1_565
