# generated using pymatgen
data_TbPrO4
_symmetry_space_group_name_H-M   'P 1'
_cell_length_a   5.55149600
_cell_length_b   7.96245500
_cell_length_c   7.99533410
_cell_angle_alpha   85.48776312
_cell_angle_beta   90.00000000
_cell_angle_gamma   90.00000000
_symmetry_Int_Tables_number   1
_chemical_formula_structural   TbPrO4
_chemical_formula_sum   'Tb4 Pr4 O16'
_cell_volume   352.32663510
_cell_formula_units_Z   4
loop_
 _symmetry_equiv_pos_site_id
 _symmetry_equiv_pos_as_xyz
  1  'x, y, z'
loop_
 _atom_site_type_symbol
 _atom_site_label
 _atom_site_symmetry_multiplicity
 _atom_site_fract_x
 _atom_site_fract_y
 _atom_site_fract_z
 _atom_site_occupancy
  Tb  Tb0  1  0.74764400  0.38772200  0.62642900  1
  Tb  Tb1  1  0.75235600  0.88772200  0.62642900  1
  Tb  Tb2  1  0.24764400  0.11227800  0.37357100  1
  Tb  Tb3  1  0.25235600  0.61227800  0.37357100  1
  Pr  Pr0  1  0.24817400  0.13397100  0.87550800  1
  Pr  Pr1  1  0.25182600  0.63397100  0.87550800  1
  Pr  Pr2  1  0.74817400  0.36602900  0.12449200  1
  Pr  Pr3  1  0.75182600  0.86602900  0.12449200  1
  O  O0  1  0.98967400  0.38424900  0.86460600  1
  O  O1  1  0.51032600  0.88424900  0.86460600  1
  O  O2  1  0.50545500  0.38529100  0.86299200  1
  O  O3  1  0.99454500  0.88529100  0.86299200  1
  O  O4  1  0.50058000  0.13711200  0.61160600  1
  O  O5  1  0.98823700  0.14313700  0.60447300  1
  O  O6  1  0.99942000  0.63711200  0.61160600  1
  O  O7  1  0.51176300  0.64313700  0.60447300  1
  O  O8  1  0.48823700  0.35686300  0.39552700  1
  O  O9  1  0.00058000  0.36288800  0.38839400  1
  O  O10  1  0.01176300  0.85686300  0.39552700  1
  O  O11  1  0.49942000  0.86288800  0.38839400  1
  O  O12  1  0.00545500  0.11470900  0.13700800  1
  O  O13  1  0.49454500  0.61470900  0.13700800  1
  O  O14  1  0.48967400  0.11575100  0.13539400  1
  O  O15  1  0.01032600  0.61575100  0.13539400  1
loop_
_geom_bond_atom_site_label_1
_geom_bond_atom_site_label_2
_geom_bond_distance
_geom_bond_site_symmetry_2
O0 Tb0 2.328990 1_555
O0 Pr0 2.451740 1_655
O0 Pr2 2.467513 1_556
O0 Pr1 2.471155 1_655
O1 Tb1 2.328990 1_555
O1 Pr1 2.451740 1_555
O1 Pr3 2.467513 1_556
O1 Pr0 2.471155 1_565
O2 Tb0 2.319422 1_555
O2 Pr1 2.438139 1_555
O2 Pr0 2.454186 1_555
O2 Pr2 2.481947 1_556
O3 Tb1 2.319422 1_555
O3 Pr0 2.438139 1_665
O3 Pr1 2.454186 1_655
O3 Pr3 2.481947 1_556
O4 Tb2 2.385806 1_555
O4 Tb1 2.423614 1_545
O4 Tb0 2.431949 1_555
O4 Pr0 2.531364 1_555
O5 Tb2 2.369358 1_655
O5 Tb0 2.379352 1_555
O5 Tb1 2.413602 1_545
O5 Pr0 2.599761 1_655
O6 Tb3 2.385806 1_655
O6 Tb0 2.423614 1_555
O6 Tb1 2.431949 1_555
O6 Pr1 2.531364 1_655
O7 Tb3 2.369358 1_555
O7 Tb1 2.379352 1_555
O7 Tb0 2.413602 1_555
O7 Pr1 2.599761 1_555
O8 Tb0 2.369358 1_555
O8 Tb2 2.379352 1_555
O8 Tb3 2.413602 1_555
O8 Pr2 2.599761 1_555
O9 Tb0 2.385806 1_455
O9 Tb3 2.423614 1_555
O9 Tb2 2.431949 1_555
O9 Pr2 2.531364 1_455
O10 Tb1 2.369358 1_455
O10 Tb3 2.379352 1_555
O10 Tb2 2.413602 1_565
O10 Pr3 2.599761 1_455
O11 Tb1 2.385806 1_555
O11 Tb2 2.423614 1_565
O11 Tb3 2.431949 1_555
O11 Pr3 2.531364 1_555
O12 Tb2 2.319422 1_555
O12 Pr3 2.438139 1_445
O12 Pr2 2.454186 1_455
O12 Pr0 2.481947 1_554
O13 Tb3 2.319422 1_555
O13 Pr2 2.438139 1_555
O13 Pr3 2.454186 1_555
O13 Pr1 2.481947 1_554
O14 Tb2 2.328990 1_555
O14 Pr2 2.451740 1_555
O14 Pr0 2.467513 1_554
O14 Pr3 2.471155 1_545
O15 Tb3 2.328990 1_555
O15 Pr3 2.451740 1_455
O15 Pr1 2.467513 1_554
O15 Pr2 2.471155 1_455
