# generated using pymatgen
data_Na5CrO4
_symmetry_space_group_name_H-M   'P 1'
_cell_length_a   5.37908800
_cell_length_b   10.54918331
_cell_length_c   10.54031345
_cell_angle_alpha   92.75980826
_cell_angle_beta   89.99837650
_cell_angle_gamma   89.99960778
_symmetry_Int_Tables_number   1
_chemical_formula_structural   Na5CrO4
_chemical_formula_sum   'Na20 Cr4 O16'
_cell_volume   597.41621936
_cell_formula_units_Z   4
loop_
 _symmetry_equiv_pos_site_id
 _symmetry_equiv_pos_as_xyz
  1  'x, y, z'
loop_
 _atom_site_type_symbol
 _atom_site_label
 _atom_site_symmetry_multiplicity
 _atom_site_fract_x
 _atom_site_fract_y
 _atom_site_fract_z
 _atom_site_occupancy
  Na  Na0  1  0.18092200  0.50001300  0.25004300  1
  Na  Na1  1  0.18097400  0.99999000  0.74995200  1
  Na  Na2  1  0.81914900  0.49998200  0.74995500  1
  Na  Na3  1  0.81912100  0.00001300  0.25004300  1
  Na  Na4  1  0.74291400  0.03432400  0.97712000  1
  Na  Na5  1  0.74291200  0.53429400  0.47713000  1
  Na  Na6  1  0.74294200  0.27286800  0.21570500  1
  Na  Na7  1  0.74288400  0.77285500  0.71561200  1
  Na  Na8  1  0.74291500  0.46567800  0.02287400  1
  Na  Na9  1  0.74289500  0.96568800  0.52286700  1
  Na  Na10  1  0.74293600  0.22713100  0.78429500  1
  Na  Na11  1  0.74288700  0.72714000  0.28438000  1
  Na  Na12  1  0.25705800  0.53424800  0.97710900  1
  Na  Na13  1  0.25709700  0.03424000  0.47712400  1
  Na  Na14  1  0.25703800  0.77288300  0.21575100  1
  Na  Na15  1  0.25710400  0.27287800  0.71564600  1
  Na  Na16  1  0.25703200  0.72711400  0.78425000  1
  Na  Na17  1  0.25709000  0.22712300  0.28436900  1
  Na  Na18  1  0.25705500  0.96575800  0.02288700  1
  Na  Na19  1  0.25708500  0.46576300  0.52286500  1
  Cr  Cr0  1  0.21660300  0.75001500  0.50000100  1
  Cr  Cr1  1  0.78348400  0.25000900  0.49998900  1
  Cr  Cr2  1  0.21652000  0.24999500  0.99999600  1
  Cr  Cr3  1  0.78356600  0.74996800  0.00003000  1
  O  O0  1  0.03733300  0.13623000  0.11370100  1
  O  O1  1  0.03735800  0.63619600  0.61367100  1
  O  O2  1  0.03732900  0.36378100  0.88630900  1
  O  O3  1  0.03735000  0.86381300  0.38632300  1
  O  O4  1  0.96269300  0.63621900  0.11366400  1
  O  O5  1  0.96269500  0.13618700  0.61365600  1
  O  O6  1  0.96267400  0.86377400  0.88633500  1
  O  O7  1  0.96268900  0.36380100  0.38634300  1
  O  O8  1  0.40120200  0.36215600  0.11200800  1
  O  O9  1  0.40118600  0.86215800  0.61193800  1
  O  O10  1  0.40116700  0.13788900  0.88802300  1
  O  O11  1  0.40117100  0.63786100  0.38807000  1
  O  O12  1  0.59873100  0.63781100  0.88800300  1
  O  O13  1  0.59874300  0.13780500  0.38804300  1
  O  O14  1  0.59874300  0.86216600  0.11197900  1
  O  O15  1  0.59875000  0.36218400  0.61194000  1
loop_
_geom_bond_atom_site_label_1
_geom_bond_atom_site_label_2
_geom_bond_distance
_geom_bond_site_symmetry_2
Na0 O11 2.330500 1_555
Na0 O8 2.330639 1_555
Na0 O7 2.388609 1_455
Na0 O4 2.389114 1_455
Na1 O9 2.330165 1_555
Na1 O10 2.330942 1_565
Na1 O5 2.388634 1_465
Na1 O6 2.389364 1_455
Na2 O15 2.330522 1_555
Na2 O12 2.330923 1_555
Na2 O1 2.388452 1_655
Na2 O2 2.388785 1_655
Na3 O13 2.330281 1_555
Na3 O14 2.331078 1_545
Na3 O3 2.388416 1_645
Na3 O0 2.388866 1_655
Na4 O6 2.320377 1_545
Na4 O10 2.356632 1_555
Na4 O0 2.363766 1_656
Na4 O14 2.483711 1_546
Na5 O7 2.319977 1_555
Na5 O11 2.356453 1_555
Na5 O1 2.363598 1_655
Na5 O15 2.482998 1_555
Na6 O7 2.320837 1_555
Na6 O8 2.358017 1_555
Na6 O0 2.364726 1_655
Na6 O13 2.486070 1_555
Na7 O6 2.321576 1_555
Na7 O9 2.357790 1_555
Na7 O1 2.364872 1_655
Na7 O12 2.486295 1_555
Na8 O4 2.320414 1_555
Na8 O8 2.356405 1_555
Na8 O2 2.363544 1_654
Na8 O12 2.483627 1_554
Na9 O5 2.320136 1_565
Na9 O9 2.356149 1_555
Na9 O3 2.363463 1_655
Na9 O13 2.483144 1_565
Na10 O5 2.320863 1_555
Na10 O10 2.358053 1_555
Na10 O2 2.364906 1_655
Na10 O15 2.486146 1_555
Na11 O4 2.321513 1_555
Na11 O11 2.357802 1_555
Na11 O3 2.364983 1_655
Na11 O14 2.486270 1_555
Na12 O2 2.319730 1_555
Na12 O12 2.356321 1_555
Na12 O4 2.363638 1_456
Na12 O8 2.483411 1_556
Na13 O3 2.319464 1_545
Na13 O13 2.356107 1_555
Na13 O5 2.363521 1_455
Na13 O9 2.482694 1_545
Na14 O3 2.320080 1_555
Na14 O14 2.358191 1_555
Na14 O4 2.365147 1_455
Na14 O11 2.485570 1_555
Na15 O2 2.320935 1_555
Na15 O15 2.357710 1_555
Na15 O5 2.365110 1_455
Na15 O10 2.485705 1_555
Na16 O1 2.320108 1_555
Na16 O12 2.358197 1_555
Na16 O6 2.365106 1_455
Na16 O9 2.485665 1_555
Na17 O0 2.320945 1_555
Na17 O13 2.357668 1_555
Na17 O7 2.364875 1_455
Na17 O8 2.485915 1_555
Na18 O0 2.319766 1_565
Na18 O14 2.356500 1_555
Na18 O6 2.363800 1_454
Na18 O10 2.483428 1_564
Na19 O1 2.319437 1_555
Na19 O15 2.356262 1_555
Na19 O7 2.363570 1_455
Na19 O11 2.482678 1_555
Cr0 O11 1.908630 1_555
Cr0 O9 1.908684 1_555
Cr0 O3 1.986231 1_555
Cr0 O1 1.986272 1_555
Cr1 O15 1.909350 1_555
Cr1 O13 1.909562 1_555
Cr1 O7 1.985827 1_555
Cr1 O5 1.986208 1_555
Cr2 O10 1.908813 1_555
Cr2 O8 1.909539 1_556
Cr2 O0 1.985993 1_556
Cr2 O2 1.986048 1_555
Cr3 O14 1.909730 1_555
Cr3 O12 1.910035 1_554
Cr3 O4 1.985281 1_555
Cr3 O6 1.985994 1_554
