# generated using pymatgen
data_Li2MnAlO4
_symmetry_space_group_name_H-M   'P 1'
_cell_length_a   5.90881000
_cell_length_b   5.32689400
_cell_length_c   11.12814806
_cell_angle_alpha   69.10449321
_cell_angle_beta   90.00000000
_cell_angle_gamma   90.00000000
_symmetry_Int_Tables_number   1
_chemical_formula_structural   Li2MnAlO4
_chemical_formula_sum   'Li8 Mn4 Al4 O16'
_cell_volume   327.22910350
_cell_formula_units_Z   4
loop_
 _symmetry_equiv_pos_site_id
 _symmetry_equiv_pos_as_xyz
  1  'x, y, z'
loop_
 _atom_site_type_symbol
 _atom_site_label
 _atom_site_symmetry_multiplicity
 _atom_site_fract_x
 _atom_site_fract_y
 _atom_site_fract_z
 _atom_site_occupancy
  Li  Li0  1  0.33888400  0.93174700  0.19449100  1
  Li  Li1  1  0.16111600  0.93174700  0.69449100  1
  Li  Li2  1  0.15523000  0.69521800  0.42945700  1
  Li  Li3  1  0.34477000  0.69521800  0.92945700  1
  Li  Li4  1  0.65523000  0.30478200  0.07054300  1
  Li  Li5  1  0.84477000  0.30478200  0.57054300  1
  Li  Li6  1  0.83888400  0.06825300  0.30550900  1
  Li  Li7  1  0.66111600  0.06825300  0.80550900  1
  Mn  Mn0  1  0.18612300  0.43579700  0.18218600  1
  Mn  Mn1  1  0.68612300  0.56420300  0.31781400  1
  Mn  Mn2  1  0.31387700  0.43579700  0.68218600  1
  Mn  Mn3  1  0.81387700  0.56420300  0.81781400  1
  Al  Al0  1  0.82850400  0.81049500  0.05904900  1
  Al  Al1  1  0.67149600  0.81049500  0.55904900  1
  Al  Al2  1  0.32850400  0.18950500  0.44095100  1
  Al  Al3  1  0.17149600  0.18950500  0.94095100  1
  O  O0  1  0.68841400  0.90704100  0.18216900  1
  O  O1  1  0.81158600  0.90704100  0.68216900  1
  O  O2  1  0.14201500  0.81086700  0.05675700  1
  O  O3  1  0.35798500  0.81086700  0.55675700  1
  O  O4  1  0.81551400  0.70582900  0.44339900  1
  O  O5  1  0.33102700  0.54857400  0.31416900  1
  O  O6  1  0.68448600  0.70582900  0.94339900  1
  O  O7  1  0.16897300  0.54857400  0.81416900  1
  O  O8  1  0.83102700  0.45142600  0.18583100  1
  O  O9  1  0.31551400  0.29417100  0.05660100  1
  O  O10  1  0.66897300  0.45142600  0.68583100  1
  O  O11  1  0.18448600  0.29417100  0.55660100  1
  O  O12  1  0.64201500  0.18913300  0.44324300  1
  O  O13  1  0.85798500  0.18913300  0.94324300  1
  O  O14  1  0.18841400  0.09295900  0.31783100  1
  O  O15  1  0.31158600  0.09295900  0.81783100  1
loop_
_geom_bond_atom_site_label_1
_geom_bond_atom_site_label_2
_geom_bond_distance
_geom_bond_site_symmetry_2
Li0 O9 1.996910 1_565
Li0 O5 2.000732 1_555
Li0 O14 2.062192 1_565
Li0 O0 2.077134 1_555
Li0 O2 2.195692 1_555
Li1 O11 1.996910 1_565
Li1 O7 2.000732 1_555
Li1 O15 2.062192 1_565
Li1 O1 2.077134 1_455
Li1 O3 2.195692 1_555
Li2 O5 2.012470 1_555
Li2 O4 2.015650 1_455
Li2 O14 2.047704 1_565
Li2 O11 2.107022 1_555
Li2 O3 2.108112 1_555
Li3 O7 2.012470 1_555
Li3 O6 2.015650 1_555
Li3 O15 2.047704 1_565
Li3 O9 2.107022 1_556
Li3 O2 2.108112 1_556
Li4 O8 2.012470 1_555
Li4 O9 2.015650 1_555
Li4 O0 2.047704 1_545
Li4 O6 2.107022 1_554
Li4 O13 2.108112 1_554
Li5 O10 2.012470 1_555
Li5 O11 2.015650 1_655
Li5 O1 2.047704 1_545
Li5 O4 2.107022 1_555
Li5 O12 2.108112 1_555
Li6 O4 1.996910 1_545
Li6 O8 2.000732 1_555
Li6 O0 2.062192 1_545
Li6 O14 2.077134 1_655
Li6 O12 2.195692 1_555
Li7 O6 1.996910 1_545
Li7 O10 2.000732 1_555
Li7 O1 2.062192 1_545
Li7 O15 2.077134 1_555
Li7 O13 2.195692 1_555
Mn0 O14 1.909843 1_555
Mn0 O9 1.964399 1_555
Mn0 O5 1.969912 1_555
Mn0 O2 2.004673 1_555
Mn0 O8 2.100811 1_455
Mn1 O0 1.909843 1_555
Mn1 O4 1.964399 1_555
Mn1 O8 1.969912 1_555
Mn1 O12 2.004673 1_555
Mn1 O5 2.100811 1_555
Mn2 O15 1.909843 1_555
Mn2 O11 1.964399 1_555
Mn2 O7 1.969912 1_555
Mn2 O3 2.004673 1_555
Mn2 O10 2.100811 1_555
Mn3 O1 1.909843 1_555
Mn3 O6 1.964399 1_555
Mn3 O10 1.969912 1_555
Mn3 O13 2.004673 1_555
Mn3 O7 2.100811 1_655
Al0 O6 1.789735 1_554
Al0 O0 1.824689 1_555
Al0 O2 1.852644 1_655
Al0 O8 1.929834 1_555
Al0 O13 1.976136 1_564
Al1 O4 1.789735 1_555
Al1 O1 1.824689 1_555
Al1 O3 1.852644 1_555
Al1 O10 1.929834 1_555
Al1 O12 1.976136 1_565
Al2 O11 1.789735 1_555
Al2 O14 1.824689 1_555
Al2 O12 1.852644 1_555
Al2 O5 1.929834 1_555
Al2 O3 1.976136 1_545
Al3 O9 1.789735 1_556
Al3 O15 1.824689 1_555
Al3 O13 1.852644 1_455
Al3 O7 1.929834 1_555
Al3 O2 1.976136 1_546
