# generated using pymatgen
data_LiCuS
_symmetry_space_group_name_H-M   'P 1'
_cell_length_a   3.95411300
_cell_length_b   6.58622000
_cell_length_c   7.52681000
_cell_angle_alpha   90.00000000
_cell_angle_beta   90.00000000
_cell_angle_gamma   90.00000000
_symmetry_Int_Tables_number   1
_chemical_formula_structural   LiCuS
_chemical_formula_sum   'Li4 Cu4 S4'
_cell_volume   196.01813959
_cell_formula_units_Z   4
loop_
 _symmetry_equiv_pos_site_id
 _symmetry_equiv_pos_as_xyz
  1  'x, y, z'
loop_
 _atom_site_type_symbol
 _atom_site_label
 _atom_site_symmetry_multiplicity
 _atom_site_fract_x
 _atom_site_fract_y
 _atom_site_fract_z
 _atom_site_occupancy
  Li  Li0  1  0.75000000  0.80966700  0.55435600  1
  Li  Li1  1  0.75000000  0.69033300  0.05435600  1
  Li  Li2  1  0.25000000  0.19033300  0.44564400  1
  Li  Li3  1  0.25000000  0.30966700  0.94564400  1
  Cu  Cu0  1  0.75000000  0.16868900  0.73779800  1
  Cu  Cu1  1  0.75000000  0.33131100  0.23779800  1
  Cu  Cu2  1  0.25000000  0.66868900  0.76220200  1
  Cu  Cu3  1  0.25000000  0.83131100  0.26220200  1
  S  S0  1  0.75000000  0.50838400  0.76854800  1
  S  S1  1  0.75000000  0.99161600  0.26854800  1
  S  S2  1  0.25000000  0.00838400  0.73145200  1
  S  S3  1  0.25000000  0.49161600  0.23145200  1
loop_
_geom_bond_atom_site_label_1
_geom_bond_atom_site_label_2
_geom_bond_distance
_geom_bond_site_symmetry_2
Li0 S1 2.462482 1_555
Li0 S0 2.556686 1_555
Li0 S2 2.720018 1_565
Li0 S2 2.720018 1_665
Li1 S0 2.462482 1_554
Li1 S1 2.556686 1_555
Li1 S3 2.720018 1_555
Li1 S3 2.720018 1_655
Li2 S2 2.462482 1_555
Li2 S3 2.556686 1_555
Li2 S1 2.720018 1_445
Li2 S1 2.720018 1_545
Li3 S3 2.462482 1_556
Li3 S2 2.556686 1_555
Li3 S0 2.720018 1_555
Li3 S0 2.720018 1_455
Cu0 S2 2.241820 1_655
Cu0 S2 2.241820 1_555
Cu0 S0 2.249246 1_555
Cu0 Li3 2.686687 1_555
Cu0 Li3 2.686687 1_655
Cu0 Li0 2.738201 1_545
Cu0 Li2 2.960510 1_555
Cu0 Li2 2.960510 1_655
Cu1 S3 2.241820 1_555
Cu1 S3 2.241820 1_655
Cu1 S1 2.249246 1_545
Cu1 Li2 2.686687 1_555
Cu1 Li2 2.686687 1_655
Cu1 Li1 2.738201 1_555
Cu1 Li3 2.960510 1_654
Cu1 Li3 2.960510 1_554
Cu2 S0 2.241820 1_555
Cu2 S0 2.241820 1_455
Cu2 S2 2.249246 1_565
Cu2 Li0 2.686687 1_555
Cu2 Li0 2.686687 1_455
Cu2 Li3 2.738201 1_555
Cu2 Li1 2.960510 1_556
Cu2 Li1 2.960510 1_456
Cu3 S1 2.241820 1_455
Cu3 S1 2.241820 1_555
Cu3 S3 2.249246 1_555
Cu3 Li1 2.686687 1_455
Cu3 Li1 2.686687 1_555
Cu3 Li2 2.738201 1_565
Cu3 Li0 2.960510 1_455
Cu3 Li0 2.960510 1_555
