# generated using pymatgen
data_Ti3Mn3Cr2O16
_symmetry_space_group_name_H-M   'P 1'
_cell_length_a   5.86192618
_cell_length_b   5.86192618
_cell_length_c   8.90693462
_cell_angle_alpha   89.84127869
_cell_angle_beta   89.84127869
_cell_angle_gamma   60.11734250
_symmetry_Int_Tables_number   1
_chemical_formula_structural   Ti3Mn3Cr2O16
_chemical_formula_sum   'Ti3 Mn3 Cr2 O16'
_cell_volume   265.36868179
_cell_formula_units_Z   1
loop_
 _symmetry_equiv_pos_site_id
 _symmetry_equiv_pos_as_xyz
  1  'x, y, z'
loop_
 _atom_site_type_symbol
 _atom_site_label
 _atom_site_symmetry_multiplicity
 _atom_site_fract_x
 _atom_site_fract_y
 _atom_site_fract_z
 _atom_site_occupancy
  Ti  Ti0  1  0.83126100  0.32964400  0.20983100  1
  Ti  Ti1  1  0.32964400  0.83126100  0.20983100  1
  Ti  Ti2  1  0.15937500  0.15937500  0.70747500  1
  Mn  Mn0  1  0.82843500  0.82843500  0.20979900  1
  Mn  Mn1  1  0.65957200  0.16980100  0.71023600  1
  Mn  Mn2  1  0.16980100  0.65957200  0.71023600  1
  Cr  Cr0  1  0.67174200  0.67174200  0.48764400  1
  Cr  Cr1  1  0.33387200  0.33387200  0.98518900  1
  O  O0  1  0.83261600  0.33942700  0.60221200  1
  O  O1  1  0.52623000  0.52623000  0.34392900  1
  O  O2  1  0.66778300  0.66778300  0.09798100  1
  O  O3  1  0.99568400  0.99568400  0.31520100  1
  O  O4  1  0.99561900  0.99561900  0.81572600  1
  O  O5  1  0.33942700  0.83261600  0.60221200  1
  O  O6  1  0.95518400  0.52915800  0.33982200  1
  O  O7  1  0.52915800  0.95518400  0.33982200  1
  O  O8  1  0.17098600  0.17098600  0.10490000  1
  O  O9  1  0.82851100  0.82851100  0.60396000  1
  O  O10  1  0.48041800  0.05007400  0.84097700  1
  O  O11  1  0.05007400  0.48041800  0.84097700  1
  O  O12  1  0.33668500  0.33668500  0.60045600  1
  O  O13  1  0.65589700  0.17197000  0.10124300  1
  O  O14  1  0.47988800  0.47988800  0.83483300  1
  O  O15  1  0.17197000  0.65589700  0.10124300  1
loop_
_geom_bond_atom_site_label_1
_geom_bond_atom_site_label_2
_geom_bond_distance
_geom_bond_site_symmetry_2
Mn0 O2 1.913045 1_555
Mn0 O6 1.914584 1_555
Mn0 O7 1.914584 1_555
Mn0 O3 1.942089 1_555
Mn0 O13 1.994555 1_565
Mn0 O15 1.994555 1_655
Mn1 O12 1.911934 1_555
Mn1 O10 1.916940 1_555
Mn1 O14 1.934427 1_555
Mn1 O4 1.951037 1_545
Mn1 O9 1.977453 1_545
Mn1 O0 1.984375 1_555
Mn2 O12 1.911934 1_555
Mn2 O11 1.916940 1_555
Mn2 O14 1.934427 1_555
Mn2 O4 1.951037 1_455
Mn2 O9 1.977453 1_455
Mn2 O5 1.984375 1_555
Cr0 O9 1.901156 1_555
Cr0 O6 1.950116 1_555
Cr0 O7 1.950116 1_555
Cr0 O1 1.957242 1_555
Cr0 O0 1.972096 1_555
Cr0 O5 1.972096 1_555
Cr1 O10 1.933165 1_555
Cr1 O11 1.933165 1_555
Cr1 O15 1.937211 1_556
Cr1 O13 1.937211 1_556
Cr1 O8 1.964043 1_556
Cr1 O14 1.994006 1_555
O0 Ti2 1.910997 1_655
O1 Ti0 1.973407 1_555
O1 Ti1 1.973407 1_555
O2 Ti0 1.985280 1_555
O2 Ti1 1.985280 1_555
O3 Ti0 1.938265 1_565
O3 Ti1 1.938265 1_655
O4 Ti2 1.918462 1_665
O5 Ti2 1.910997 1_565
O6 Ti0 2.023559 1_555
O7 Ti1 2.023559 1_555
O8 Ti1 1.962977 1_545
O8 Ti0 1.962977 1_455
O10 Ti2 2.042743 1_555
O11 Ti2 2.042743 1_555
O12 Ti2 2.033401 1_555
O13 Ti0 1.950300 1_555
O15 Ti1 1.950300 1_555
