# generated using pymatgen
data_LiSiBiO4
_symmetry_space_group_name_H-M   'P 1'
_cell_length_a   5.28222100
_cell_length_b   8.85058400
_cell_length_c   22.33826900
_cell_angle_alpha   90.00000000
_cell_angle_beta   90.00000000
_cell_angle_gamma   90.00000000
_symmetry_Int_Tables_number   1
_chemical_formula_structural   LiSiBiO4
_chemical_formula_sum   'Li12 Si12 Bi12 O48'
_cell_volume   1044.33062097
_cell_formula_units_Z   12
loop_
 _symmetry_equiv_pos_site_id
 _symmetry_equiv_pos_as_xyz
  1  'x, y, z'
loop_
 _atom_site_type_symbol
 _atom_site_label
 _atom_site_symmetry_multiplicity
 _atom_site_fract_x
 _atom_site_fract_y
 _atom_site_fract_z
 _atom_site_occupancy
  Li  Li0  1  0.02203700  0.57931900  0.08676700  1
  Li  Li1  1  0.49763600  0.07409500  0.08126000  1
  Li  Li2  1  0.99086600  0.92164500  0.24965300  1
  Li  Li3  1  0.49086600  0.42164500  0.25034700  1
  Li  Li4  1  0.99763600  0.57409500  0.41874000  1
  Li  Li5  1  0.52203700  0.07931900  0.41323300  1
  Li  Li6  1  0.02203700  0.92068100  0.58676700  1
  Li  Li7  1  0.49763600  0.42590500  0.58126000  1
  Li  Li8  1  0.99086600  0.57835500  0.74965300  1
  Li  Li9  1  0.49086600  0.07835500  0.75034700  1
  Li  Li10  1  0.99763600  0.92590500  0.91874000  1
  Li  Li11  1  0.52203700  0.42068100  0.91323300  1
  Si  Si0  1  0.99377700  0.91804900  0.07742400  1
  Si  Si1  1  0.52924100  0.41463700  0.09114000  1
  Si  Si2  1  0.99487800  0.58052500  0.24397400  1
  Si  Si3  1  0.49487800  0.08052500  0.25602600  1
  Si  Si4  1  0.02924100  0.91463700  0.40886000  1
  Si  Si5  1  0.49377700  0.41804900  0.42257600  1
  Si  Si6  1  0.99377700  0.58195100  0.57742400  1
  Si  Si7  1  0.52924100  0.08536300  0.59114000  1
  Si  Si8  1  0.99487800  0.91947500  0.74397400  1
  Si  Si9  1  0.49487800  0.41947500  0.75602600  1
  Si  Si10  1  0.02924100  0.58536300  0.90886000  1
  Si  Si11  1  0.49377700  0.08195100  0.92257600  1
  Bi  Bi0  1  0.04210900  0.21979500  0.00457400  1
  Bi  Bi1  1  0.54210900  0.78020500  0.99542600  1
  Bi  Bi2  1  0.49564700  0.72827900  0.16583300  1
  Bi  Bi3  1  0.96787500  0.28284700  0.16728400  1
  Bi  Bi4  1  0.46787500  0.78284700  0.33271600  1
  Bi  Bi5  1  0.99564700  0.22827900  0.33416700  1
  Bi  Bi6  1  0.04210900  0.28020500  0.50457400  1
  Bi  Bi7  1  0.54210900  0.71979500  0.49542600  1
  Bi  Bi8  1  0.49564700  0.77172100  0.66583300  1
  Bi  Bi9  1  0.96787500  0.21715300  0.66728400  1
  Bi  Bi10  1  0.46787500  0.71715300  0.83271600  1
  Bi  Bi11  1  0.99564700  0.27172100  0.83416700  1
  O  O0  1  0.41638300  0.06295500  0.99421900  1
  O  O1  1  0.91638300  0.93704500  0.00578100  1
  O  O2  1  0.64921600  0.57491000  0.06650100  1
  O  O3  1  0.70772700  0.26566000  0.07412100  1
  O  O4  1  0.23317400  0.39050700  0.06980200  1
  O  O5  1  0.19194500  0.77628500  0.08449400  1
  O  O6  1  0.71333400  0.89416000  0.10964500  1
  O  O7  1  0.12713300  0.07751700  0.09898700  1
  O  O8  1  0.56144900  0.41682400  0.16478400  1
  O  O9  1  0.05207600  0.55112600  0.17249600  1
  O  O10  1  0.36077500  0.92577500  0.22744300  1
  O  O11  1  0.30121700  0.22672700  0.25221900  1
  O  O12  1  0.77750900  0.10683200  0.22654300  1
  O  O13  1  0.80121700  0.72672700  0.24778100  1
  O  O14  1  0.27750900  0.60683200  0.27345700  1
  O  O15  1  0.86077500  0.42577500  0.27255700  1
  O  O16  1  0.55207600  0.05112600  0.32750400  1
  O  O17  1  0.06144900  0.91682400  0.33521600  1
  O  O18  1  0.62713300  0.57751700  0.40101300  1
  O  O19  1  0.21333400  0.39416000  0.39035500  1
  O  O20  1  0.69194500  0.27628500  0.41550600  1
  O  O21  1  0.73317400  0.89050700  0.43019800  1
  O  O22  1  0.20772700  0.76566000  0.42587900  1
  O  O23  1  0.14921600  0.07491000  0.43349900  1
  O  O24  1  0.41638300  0.43704500  0.49421900  1
  O  O25  1  0.91638300  0.56295500  0.50578100  1
  O  O26  1  0.64921600  0.92509000  0.56650100  1
  O  O27  1  0.70772700  0.23434000  0.57412100  1
  O  O28  1  0.23317400  0.10949300  0.56980200  1
  O  O29  1  0.19194500  0.72371500  0.58449400  1
  O  O30  1  0.71333400  0.60584000  0.60964500  1
  O  O31  1  0.12713300  0.42248300  0.59898700  1
  O  O32  1  0.56144900  0.08317600  0.66478400  1
  O  O33  1  0.05207600  0.94887400  0.67249600  1
  O  O34  1  0.36077500  0.57422500  0.72744300  1
  O  O35  1  0.77750900  0.39316800  0.72654300  1
  O  O36  1  0.30121700  0.27327300  0.75221900  1
  O  O37  1  0.27750900  0.89316800  0.77345700  1
  O  O38  1  0.80121700  0.77327300  0.74778100  1
  O  O39  1  0.86077500  0.07422500  0.77255700  1
  O  O40  1  0.55207600  0.44887400  0.82750400  1
  O  O41  1  0.06144900  0.58317600  0.83521600  1
  O  O42  1  0.62713300  0.92248300  0.90101300  1
  O  O43  1  0.21333400  0.10584000  0.89035500  1
  O  O44  1  0.69194500  0.22371500  0.91550600  1
  O  O45  1  0.73317400  0.60949300  0.93019800  1
  O  O46  1  0.20772700  0.73434000  0.92587900  1
  O  O47  1  0.14921600  0.42509000  0.93349900  1
loop_
_geom_bond_atom_site_label_1
_geom_bond_atom_site_label_2
_geom_bond_distance
_geom_bond_site_symmetry_2
Li0 O9 1.937733 1_555
Li0 O5 1.961387 1_555
Li0 O2 2.021064 1_455
Li0 O4 2.044508 1_555
Li1 O0 1.993592 1_554
Li1 O7 1.996968 1_555
Li1 O3 2.032624 1_555
Li1 O6 2.058239 1_545
Li2 O17 1.947821 1_655
Li2 O13 1.995342 1_555
Li2 O10 2.016276 1_655
Li2 O12 2.054992 1_565
Li3 O8 1.947821 1_555
Li3 O11 1.995342 1_555
Li3 O15 2.016276 1_555
Li3 O14 2.054992 1_555
Li4 O25 1.993592 1_555
Li4 O18 1.996968 1_555
Li4 O22 2.032624 1_655
Li4 O19 2.058239 1_655
Li5 O16 1.937733 1_555
Li5 O20 1.961387 1_555
Li5 O23 2.021064 1_555
Li5 O21 2.044508 1_545
Li6 O33 1.937733 1_555
Li6 O29 1.961387 1_555
Li6 O26 2.021064 1_455
Li6 O28 2.044508 1_565
Li7 O24 1.993592 1_555
Li7 O31 1.996968 1_555
Li7 O27 2.032624 1_555
Li7 O30 2.058239 1_555
Li8 O41 1.947821 1_655
Li8 O38 1.995342 1_555
Li8 O34 2.016276 1_655
Li8 O35 2.054992 1_555
Li9 O32 1.947821 1_555
Li9 O36 1.995342 1_555
Li9 O39 2.016276 1_555
Li9 O37 2.054992 1_545
Li10 O1 1.993592 1_556
Li10 O42 1.996968 1_555
Li10 O46 2.032624 1_655
Li10 O43 2.058239 1_665
Li11 O40 1.937733 1_555
Li11 O44 1.961387 1_555
Li11 O47 2.021064 1_555
Li11 O45 2.044508 1_555
Bi0 O4 2.329053 1_555
Bi0 O3 2.387063 1_455
Bi0 O0 2.426710 1_554
Bi0 O47 2.478361 1_554
Bi0 O7 2.497074 1_555
Bi0 O1 2.589265 1_445
Bi0 O44 2.716798 1_454
Bi1 O45 2.329053 1_555
Bi1 O46 2.387063 1_555
Bi1 O1 2.426710 1_556
Bi1 O2 2.478361 1_556
Bi1 O42 2.497074 1_555
Bi1 O0 2.589265 1_565
Bi1 O5 2.716798 1_556
Bi2 O6 2.247895 1_555
Bi2 O10 2.336020 1_555
Bi2 O13 2.440590 1_555
Bi2 O5 2.460780 1_555
Bi3 O12 2.278221 1_555
Bi3 O9 2.418527 1_655
Bi3 O8 2.453175 1_555
Bi3 O3 2.498486 1_555
Bi3 O7 2.517497 1_655
Bi3 O11 2.635683 1_655
Bi3 O15 2.729535 1_555
Bi3 O4 2.759278 1_655
Bi4 O14 2.278221 1_555
Bi4 O16 2.418527 1_565
Bi4 O17 2.453175 1_555
Bi4 O22 2.498486 1_555
Bi4 O18 2.517497 1_555
Bi4 O13 2.635683 1_555
Bi4 O10 2.729535 1_555
Bi4 O21 2.759278 1_555
Bi5 O19 2.247895 1_655
Bi5 O15 2.336020 1_555
Bi5 O11 2.440590 1_655
Bi5 O20 2.460780 1_555
Bi6 O28 2.329053 1_555
Bi6 O27 2.387063 1_455
Bi6 O24 2.426710 1_555
Bi6 O23 2.478361 1_555
Bi6 O31 2.497074 1_555
Bi6 O25 2.589265 1_455
Bi6 O20 2.716798 1_455
Bi7 O21 2.329053 1_555
Bi7 O22 2.387063 1_555
Bi7 O25 2.426710 1_555
Bi7 O26 2.478361 1_555
Bi7 O18 2.497074 1_555
Bi7 O24 2.589265 1_555
Bi7 O29 2.716798 1_555
Bi8 O30 2.247895 1_555
Bi8 O34 2.336020 1_555
Bi8 O38 2.440590 1_555
Bi8 O29 2.460780 1_555
Bi9 O35 2.278221 1_555
Bi9 O33 2.418527 1_645
Bi9 O32 2.453175 1_555
Bi9 O27 2.498486 1_555
Bi9 O31 2.517497 1_655
Bi9 O36 2.635683 1_655
Bi9 O39 2.729535 1_555
Bi9 O28 2.759278 1_655
Bi10 O37 2.278221 1_555
Bi10 O40 2.418527 1_555
Bi10 O41 2.453175 1_555
Bi10 O46 2.498486 1_555
Bi10 O42 2.517497 1_555
Bi10 O38 2.635683 1_555
Bi10 O34 2.729535 1_555
Bi10 O45 2.759278 1_555
Bi11 O43 2.247895 1_655
Bi11 O39 2.336020 1_555
Bi11 O36 2.440590 1_655
Bi11 O44 2.460780 1_555
O0 Si11 1.660305 1_555
O1 Si0 1.660305 1_555
O2 Si1 1.648248 1_555
O3 Si1 1.664914 1_555
O4 Si1 1.648807 1_555
O5 Si0 1.641622 1_455
O6 Si0 1.660480 1_555
O7 Si0 1.649310 1_445
O8 Si1 1.653967 1_555
O9 Si2 1.645728 1_455
O10 Si3 1.668931 1_565
O11 Si3 1.651680 1_555
O12 Si3 1.648263 1_555
O13 Si2 1.651680 1_555
O14 Si2 1.648263 1_455
O15 Si2 1.668931 1_555
O16 Si3 1.645728 1_555
O17 Si4 1.653967 1_555
O18 Si5 1.649310 1_555
O19 Si5 1.660480 1_555
O20 Si5 1.641622 1_555
O21 Si4 1.648807 1_655
O22 Si4 1.664914 1_555
O23 Si4 1.648248 1_545
O24 Si5 1.660305 1_555
O25 Si6 1.660305 1_555
O26 Si7 1.648248 1_565
O27 Si7 1.664914 1_555
O28 Si7 1.648807 1_555
O29 Si6 1.641622 1_455
O30 Si6 1.660480 1_555
O31 Si6 1.649310 1_455
O32 Si7 1.653967 1_555
O33 Si8 1.645728 1_455
O34 Si9 1.668931 1_555
O35 Si9 1.648263 1_555
O36 Si9 1.651680 1_555
O37 Si8 1.648263 1_455
O38 Si8 1.651680 1_555
O39 Si8 1.668931 1_545
O40 Si9 1.645728 1_555
O41 Si10 1.653967 1_555
O42 Si11 1.649310 1_565
O43 Si11 1.660480 1_555
O44 Si11 1.641622 1_555
O45 Si10 1.648807 1_655
O46 Si10 1.664914 1_555
O47 Si10 1.648248 1_555
