# generated using pymatgen
data_Li3Co(NiO3)2
_symmetry_space_group_name_H-M   'P 1'
_cell_length_a   4.93521135
_cell_length_b   5.01937859
_cell_length_c   9.77108240
_cell_angle_alpha   94.54495014
_cell_angle_beta   90.00064057
_cell_angle_gamma   119.44633438
_symmetry_Int_Tables_number   1
_chemical_formula_structural   Li3Co(NiO3)2
_chemical_formula_sum   'Li6 Co2 Ni4 O12'
_cell_volume   209.90329848
_cell_formula_units_Z   2
loop_
 _symmetry_equiv_pos_site_id
 _symmetry_equiv_pos_as_xyz
  1  'x, y, z'
loop_
 _atom_site_type_symbol
 _atom_site_label
 _atom_site_symmetry_multiplicity
 _atom_site_fract_x
 _atom_site_fract_y
 _atom_site_fract_z
 _atom_site_occupancy
  Li  Li0  1  0.97115900  0.15476400  0.74698100  1
  Li  Li1  1  0.63818600  0.50007300  0.75008300  1
  Li  Li2  1  0.31657800  0.84531500  0.75297400  1
  Li  Li3  1  0.68362700  0.15477500  0.24695600  1
  Li  Li4  1  0.36187500  0.50004800  0.25007000  1
  Li  Li5  1  0.02872500  0.84532500  0.25294900  1
  Co  Co0  1  0.50009600  0.00006000  0.49998400  1
  Co  Co1  1  0.99996300  0.00006000  0.99998400  1
  Ni  Ni0  1  0.83622400  0.66510800  0.50003300  1
  Ni  Ni1  1  0.32890600  0.66511000  0.00003500  1
  Ni  Ni2  1  0.67109000  0.33483700  0.99996200  1
  Ni  Ni3  1  0.16372800  0.33484000  0.49996300  1
  O  O0  1  0.99461400  0.66658500  0.88943800  1
  O  O1  1  0.68786400  0.69254900  0.10626800  1
  O  O2  1  0.82732200  0.33354200  0.61070000  1
  O  O3  1  0.50468000  0.69252600  0.60626300  1
  O  O4  1  0.49643700  0.30806600  0.39369300  1
  O  O5  1  0.81866500  0.99006100  0.39229200  1
  O  O6  1  0.17196100  0.66657100  0.38944500  1
  O  O7  1  0.31160600  0.30805100  0.89368900  1
  O  O8  1  0.67141300  0.99005900  0.89228400  1
  O  O9  1  0.00622400  0.33353100  0.11070700  1
  O  O10  1  0.32851000  0.00916600  0.10759500  1
  O  O11  1  0.18064500  0.00917500  0.60758900  1
loop_
_geom_bond_atom_site_label_1
_geom_bond_atom_site_label_2
_geom_bond_distance
_geom_bond_site_symmetry_2
Li0 O8 1.967531 1_545
Li0 O2 1.974338 1_555
Li0 O7 2.005991 1_655
Li0 O11 2.010740 1_655
Li1 O2 2.002890 1_555
Li1 O0 2.005230 1_555
Li1 O7 2.045147 1_555
Li1 O3 2.045234 1_555
Li2 O11 1.967786 1_565
Li2 O0 1.973737 1_455
Li2 O3 2.007662 1_555
Li2 O8 2.009893 1_555
Li3 O5 1.967771 1_545
Li3 O9 1.974077 1_655
Li3 O4 2.006306 1_555
Li3 O10 2.010662 1_555
Li4 O9 2.002703 1_555
Li4 O6 2.005395 1_555
Li4 O4 2.045115 1_555
Li4 O1 2.045248 1_555
Li5 O10 1.967550 1_565
Li5 O6 1.974023 1_555
Li5 O1 2.007358 1_455
Li5 O5 2.009987 1_455
Co0 O2 1.906655 1_555
Co0 O6 1.907678 1_545
Co0 O5 1.910724 1_545
Co0 O11 1.912182 1_555
Co0 O3 1.936514 1_545
Co0 O4 1.936749 1_555
Co1 O9 1.906632 1_656
Co1 O0 1.907663 1_545
Co1 O8 1.910669 1_545
Co1 O10 1.912136 1_656
Co1 O1 1.936473 1_546
Co1 O7 1.936714 1_655
Ni0 O11 1.949960 1_665
Ni0 O4 1.963022 1_555
Ni0 O6 1.975458 1_655
Ni0 O3 1.993095 1_555
Ni0 O2 2.038206 1_555
Ni0 O5 2.046276 1_555
Ni1 O10 1.950021 1_565
Ni1 O7 1.963030 1_554
Ni1 O0 1.975588 1_454
Ni1 O1 1.993032 1_555
Ni1 O9 2.038319 1_555
Ni1 O8 2.046334 1_554
Ni2 O8 1.953461 1_545
Ni2 O1 1.966692 1_556
Ni2 O9 1.979469 1_656
Ni2 O7 1.996797 1_555
Ni2 O0 2.039443 1_555
Ni2 O10 2.047392 1_556
Ni3 O5 1.953350 1_445
Ni3 O3 1.966636 1_555
Ni3 O2 1.979321 1_455
Ni3 O4 1.996820 1_555
Ni3 O6 2.039300 1_555
Ni3 O11 2.047323 1_555
