# generated using pymatgen
data_Li5V3P8O29
_symmetry_space_group_name_H-M   'P 1'
_cell_length_a   9.79655100
_cell_length_b   9.80514938
_cell_length_c   13.90568281
_cell_angle_alpha   89.89517160
_cell_angle_beta   89.84710733
_cell_angle_gamma   60.07409069
_symmetry_Int_Tables_number   1
_chemical_formula_structural   Li5V3P8O29
_chemical_formula_sum   'Li10 V6 P16 O58'
_cell_volume   1157.63728329
_cell_formula_units_Z   2
loop_
 _symmetry_equiv_pos_site_id
 _symmetry_equiv_pos_as_xyz
  1  'x, y, z'
loop_
 _atom_site_type_symbol
 _atom_site_label
 _atom_site_symmetry_multiplicity
 _atom_site_fract_x
 _atom_site_fract_y
 _atom_site_fract_z
 _atom_site_occupancy
  Li  Li0  1  0.67483200  0.09624200  0.43764100  1
  Li  Li1  1  0.23113900  0.68039100  0.43706100  1
  Li  Li2  1  0.33716000  0.33274200  0.11796700  1
  Li  Li3  1  0.09078000  0.68417900  0.94229700  1
  Li  Li4  1  0.22596700  0.08611800  0.93996200  1
  Li  Li5  1  0.90807600  0.77224700  0.55881400  1
  Li  Li6  1  0.09515900  0.22701100  0.43920300  1
  Li  Li7  1  0.77291700  0.90825000  0.06174000  1
  Li  Li8  1  0.90526200  0.31889200  0.05988200  1
  Li  Li9  1  0.77198800  0.32209900  0.55914000  1
  V  V0  1  0.99969100  0.56831300  0.74973900  1
  V  V1  1  0.99840900  0.43345600  0.24997300  1
  V  V2  1  0.56579800  0.00045100  0.25199300  1
  V  V3  1  0.43604800  0.99296900  0.74514000  1
  V  V4  1  0.56260100  0.43284600  0.75675000  1
  V  V5  1  0.43460600  0.57109400  0.24625500  1
  P  P0  1  0.68324300  0.22908900  0.15804500  1
  P  P1  1  0.68214700  0.08865800  0.65950900  1
  P  P2  1  0.23288300  0.68163500  0.65485000  1
  P  P3  1  0.33040600  0.33149300  0.87330900  1
  P  P4  1  0.33212700  0.33672100  0.37362400  1
  P  P5  1  0.09076200  0.68035300  0.15824400  1
  P  P6  1  0.91224000  0.76810900  0.34217800  1
  P  P7  1  0.23000500  0.08867300  0.15447900  1
  P  P8  1  0.76835800  0.91267900  0.84393600  1
  P  P9  1  0.08876200  0.23154900  0.65909200  1
  P  P10  1  0.91040500  0.32050800  0.84148300  1
  P  P11  1  0.66939800  0.66242300  0.62735600  1
  P  P12  1  0.66890200  0.66746300  0.12532900  1
  P  P13  1  0.76664800  0.31837000  0.34405500  1
  P  P14  1  0.31360400  0.91638200  0.34139200  1
  P  P15  1  0.31369300  0.77151900  0.84120100  1
  O  O0  1  0.75527200  0.24144600  0.43505900  1
  O  O1  1  0.66110900  0.25563400  0.66054000  1
  O  O2  1  0.75833200  0.99396200  0.93529400  1
  O  O3  1  0.66371800  0.08045200  0.15952300  1
  O  O4  1  0.51574300  0.37323400  0.17374800  1
  O  O5  1  0.48124800  0.33195400  0.82884000  1
  O  O6  1  0.38338900  0.52178400  0.67949700  1
  O  O7  1  0.23147100  0.76112700  0.92778800  1
  O  O8  1  0.25620800  0.66186100  0.15983400  1
  O  O9  1  0.48580000  0.18727700  0.33390300  1
  O  O10  1  0.52108200  0.09687400  0.67694500  1
  O  O11  1  0.32826900  0.48750700  0.33189000  1
  O  O12  1  0.33418800  0.33205900  0.98099500  1
  O  O13  1  0.32937100  0.33504100  0.48094600  1
  O  O14  1  0.18540100  0.48533000  0.83503100  1
  O  O15  1  0.37270300  0.11354700  0.17503200  1
  O  O16  1  0.33071800  0.18216600  0.83349500  1
  O  O17  1  0.08490200  0.66233600  0.66072800  1
  O  O18  1  0.00013400  0.78944000  0.24965000  1
  O  O19  1  0.00219200  0.75765900  0.43203400  1
  O  O20  1  0.99827600  0.75661500  0.06910300  1
  O  O21  1  0.11141900  0.51374000  0.17390300  1
  O  O22  1  0.18314800  0.33160600  0.33137300  1
  O  O23  1  0.91560900  0.74555600  0.83868600  1
  O  O24  1  0.09735000  0.38204600  0.67631100  1
  O  O25  1  0.25660800  0.08639400  0.66560900  1
  O  O26  1  0.79074200  0.00123200  0.75109100  1
  O  O27  1  0.75794500  0.00049700  0.56857800  1
  O  O28  1  0.23160300  0.01008100  0.42746700  1
  O  O29  1  0.74819400  0.91838300  0.34179300  1
  O  O30  1  0.90029800  0.61995600  0.32589900  1
  O  O31  1  0.07964000  0.25400200  0.15830800  1
  O  O32  1  0.81408500  0.67303900  0.66693300  1
  O  O33  1  0.90031700  0.47953400  0.82367700  1
  O  O34  1  0.99753600  0.24100800  0.93131500  1
  O  O35  1  0.00167200  0.24012500  0.56895500  1
  O  O36  1  0.99991900  0.20829300  0.75027500  1
  O  O37  1  0.91496800  0.33427800  0.34269200  1
  O  O38  1  0.67231600  0.81513700  0.16556900  1
  O  O39  1  0.61709200  0.90449300  0.82082700  1
  O  O40  1  0.81981100  0.51442600  0.16868500  1
  O  O41  1  0.67538200  0.65955600  0.01858600  1
  O  O42  1  0.66548800  0.66669900  0.52061100  1
  O  O43  1  0.66955400  0.51336300  0.66973500  1
  O  O44  1  0.47526200  0.90777000  0.32261300  1
  O  O45  1  0.51838100  0.81350600  0.67357600  1
  O  O46  1  0.74290500  0.34101200  0.83491000  1
  O  O47  1  0.78540100  0.20644600  0.25460400  1
  O  O48  1  0.76852700  0.23859500  0.07295100  1
  O  O49  1  0.61621000  0.47746900  0.32560900  1
  O  O50  1  0.52402200  0.66557400  0.17126600  1
  O  O51  1  0.47709300  0.61836400  0.82450100  1
  O  O52  1  0.33890500  0.91586900  0.83920100  1
  O  O53  1  0.24228400  0.00467500  0.06352100  1
  O  O54  1  0.21269900  0.99593400  0.24496700  1
  O  O55  1  0.33656400  0.74869500  0.34037100  1
  O  O56  1  0.24438500  0.75077400  0.56272800  1
  O  O57  1  0.21240300  0.79408400  0.74505300  1
loop_
_geom_bond_atom_site_label_1
_geom_bond_atom_site_label_2
_geom_bond_distance
_geom_bond_site_symmetry_2
Li0 O0 1.941250 1_555
Li0 O29 2.021661 1_545
Li0 O27 2.024468 1_555
Li0 O9 2.160404 1_555
Li1 O56 1.908345 1_555
Li1 O19 1.978541 1_555
Li1 O55 2.000612 1_555
Li1 O11 2.197324 1_555
Li2 O12 1.905064 1_554
Li2 O4 2.126372 1_555
Li2 O15 2.149118 1_555
Li2 O21 2.173752 1_555
Li3 O7 1.882859 1_555
Li3 O20 1.946498 1_456
Li3 O23 2.088664 1_455
Li3 O14 2.255133 1_555
Li4 O53 1.866668 1_556
Li4 O34 1.984594 1_455
Li4 O52 2.032598 1_545
Li4 O16 2.254537 1_555
Li5 O19 1.959404 1_655
Li5 O27 1.976399 1_565
Li5 O17 2.077371 1_655
Li5 O32 2.221589 1_555
Li6 O28 1.871076 1_555
Li6 O35 1.996324 1_555
Li6 O37 2.044121 1_455
Li6 O22 2.216459 1_555
Li7 O2 1.922114 1_554
Li7 O20 1.954665 1_555
Li7 O3 2.010630 1_565
Li7 O38 2.185129 1_555
Li8 O48 1.870217 1_555
Li8 O34 1.975905 1_554
Li8 O31 2.030078 1_655
Li8 O40 2.251261 1_555
Li9 O0 1.940369 1_555
Li9 O35 1.981008 1_655
Li9 O1 2.070649 1_555
Li9 O43 2.239144 1_555
O0 P13 1.504115 1_555
O1 P1 1.544856 1_555
O1 V4 2.017160 1_555
O2 P8 1.477728 1_555
O3 P0 1.561750 1_555
O3 V2 1.982292 1_555
O4 P0 1.556630 1_555
O4 V5 1.968868 1_555
O5 P3 1.602458 1_555
O5 V4 1.843231 1_555
O6 P2 1.563007 1_555
O6 V4 1.864372 1_555
O7 P15 1.478244 1_555
O8 P5 1.538608 1_555
O8 V5 1.935466 1_555
O9 P4 1.586239 1_555
O9 V2 1.959005 1_555
O10 P1 1.557623 1_555
O10 V3 1.862857 1_545
O11 P4 1.570142 1_555
O11 V5 2.004158 1_555
O12 P3 1.498093 1_555
O13 P4 1.492767 1_555
O14 P3 1.561950 1_555
O14 V0 1.977284 1_455
O15 P7 1.561410 1_555
O15 V2 1.966437 1_555
O16 P3 1.564872 1_555
O16 V3 2.026661 1_545
O17 P2 1.554719 1_555
O17 V0 1.958822 1_455
O18 P5 1.612256 1_555
O18 P6 1.616622 1_455
O19 P6 1.504539 1_455
O20 P5 1.497732 1_655
O21 P5 1.557660 1_555
O21 V1 1.955654 1_455
O22 P4 1.598595 1_555
O22 V1 1.938409 1_455
O23 P8 1.553327 1_555
O23 V0 1.950060 1_555
O24 P9 1.538575 1_555
O24 V0 1.884604 1_455
O25 P9 1.550140 1_555
O25 V3 1.884776 1_545
O26 P1 1.606788 1_555
O26 P8 1.628871 1_545
O27 P1 1.502007 1_555
O28 P14 1.478023 1_545
O29 P6 1.546344 1_555
O29 V2 1.993310 1_565
O30 P6 1.531688 1_555
O30 V1 1.905387 1_555
O31 P7 1.554970 1_555
O31 V1 1.989932 1_455
O32 P11 1.573028 1_555
O32 V0 1.957150 1_555
O33 P10 1.532114 1_555
O33 V0 1.897245 1_555
O34 P10 1.494965 1_555
O35 P9 1.496590 1_555
O36 P9 1.615028 1_655
O36 P10 1.620093 1_555
O37 P13 1.536863 1_555
O37 V1 2.014731 1_555
O38 P12 1.569146 1_555
O38 V2 1.986016 1_565
O39 P8 1.557884 1_555
O39 V3 1.864783 1_555
O40 P12 1.608970 1_555
O40 V1 1.894887 1_555
O41 P12 1.486034 1_555
O42 P11 1.484934 1_555
O43 P11 1.574184 1_555
O43 V4 2.000073 1_555
O44 P14 1.564558 1_555
O44 V2 1.836612 1_565
O45 P11 1.614946 1_555
O45 V3 1.822990 1_555
O46 P10 1.553375 1_555
O46 V4 1.879314 1_555
O47 P13 1.608711 1_555
O47 P0 1.624242 1_555
O48 P0 1.476118 1_555
O49 P13 1.542078 1_555
O49 V5 1.898096 1_555
O50 P12 1.563400 1_555
O50 V5 1.874608 1_555
O51 P15 1.572350 1_555
O51 V4 1.838447 1_555
O52 P15 1.553602 1_555
O52 V3 1.973715 1_555
O53 P7 1.482147 1_555
O54 P7 1.608544 1_565
O54 P14 1.617840 1_555
O55 P14 1.544424 1_555
O55 V5 2.000156 1_555
O56 P2 1.478360 1_555
O57 P15 1.614967 1_555
O57 P2 1.616258 1_555
