# generated using pymatgen
data_GdLuO3
_symmetry_space_group_name_H-M   'P 1'
_cell_length_a   5.67277800
_cell_length_b   5.93104700
_cell_length_c   8.26428900
_cell_angle_alpha   90.00000000
_cell_angle_beta   90.00000000
_cell_angle_gamma   90.00000000
_symmetry_Int_Tables_number   1
_chemical_formula_structural   GdLuO3
_chemical_formula_sum   'Gd4 Lu4 O12'
_cell_volume   278.05624248
_cell_formula_units_Z   4
loop_
 _symmetry_equiv_pos_site_id
 _symmetry_equiv_pos_as_xyz
  1  'x, y, z'
loop_
 _atom_site_type_symbol
 _atom_site_label
 _atom_site_symmetry_multiplicity
 _atom_site_fract_x
 _atom_site_fract_y
 _atom_site_fract_z
 _atom_site_occupancy
  Gd  Gd0  1  0.98631300  0.05430400  0.25000000  1
  Gd  Gd1  1  0.48631300  0.44569600  0.75000000  1
  Gd  Gd2  1  0.51368700  0.55430400  0.25000000  1
  Gd  Gd3  1  0.01368700  0.94569600  0.75000000  1
  Lu  Lu0  1  0.50000000  0.00000000  0.00000000  1
  Lu  Lu1  1  0.50000000  0.00000000  0.50000000  1
  Lu  Lu2  1  0.00000000  0.50000000  0.00000000  1
  Lu  Lu3  1  0.00000000  0.50000000  0.50000000  1
  O  O0  1  0.63333500  0.06521400  0.75000000  1
  O  O1  1  0.18220400  0.18606300  0.56912400  1
  O  O2  1  0.18220400  0.18606300  0.93087600  1
  O  O3  1  0.68220400  0.31393700  0.06912400  1
  O  O4  1  0.68220400  0.31393700  0.43087600  1
  O  O5  1  0.13333500  0.43478600  0.25000000  1
  O  O6  1  0.86666500  0.56521400  0.75000000  1
  O  O7  1  0.31779600  0.68606300  0.93087600  1
  O  O8  1  0.31779600  0.68606300  0.56912400  1
  O  O9  1  0.81779600  0.81393700  0.06912400  1
  O  O10  1  0.81779600  0.81393700  0.43087600  1
  O  O11  1  0.36666500  0.93478600  0.25000000  1
loop_
_geom_bond_atom_site_label_1
_geom_bond_atom_site_label_2
_geom_bond_distance
_geom_bond_site_symmetry_2
Gd0 O11 2.271113 1_645
Gd0 O10 2.276123 1_545
Gd0 O9 2.276123 1_545
Gd0 O5 2.405846 1_655
Gd0 O4 2.753517 1_555
Gd0 O3 2.753517 1_555
Gd0 O1 2.966663 1_655
Gd0 O2 2.966663 1_654
Gd1 O6 2.271113 1_555
Gd1 O7 2.276123 1_555
Gd1 O8 2.276123 1_555
Gd1 O0 2.405846 1_555
Gd1 O2 2.753517 1_555
Gd1 O1 2.753517 1_555
Gd1 O3 2.966663 1_556
Gd1 O4 2.966663 1_555
Gd2 O5 2.271113 1_555
Gd2 O4 2.276123 1_555
Gd2 O3 2.276123 1_555
Gd2 O11 2.405846 1_555
Gd2 O10 2.753517 1_555
Gd2 O9 2.753517 1_555
Gd2 O8 2.966663 1_555
Gd2 O7 2.966663 1_554
Gd3 O0 2.271113 1_465
Gd3 O2 2.276123 1_565
Gd3 O1 2.276123 1_565
Gd3 O6 2.405846 1_455
Gd3 O7 2.753517 1_555
Gd3 O8 2.753517 1_555
Gd3 O9 2.966663 1_456
Gd3 O10 2.966663 1_455
Lu0 O2 2.189565 1_554
Lu0 O9 2.189565 1_545
Lu0 O3 2.204909 1_555
Lu0 O7 2.204909 1_544
Lu0 O0 2.233913 1_554
Lu0 O11 2.233913 1_545
Lu1 O1 2.189565 1_555
Lu1 O10 2.189565 1_545
Lu1 O4 2.204909 1_555
Lu1 O8 2.204909 1_545
Lu1 O0 2.233913 1_555
Lu1 O11 2.233913 1_545
Lu2 O7 2.189565 1_554
Lu2 O3 2.189565 1_455
Lu2 O9 2.204909 1_455
Lu2 O2 2.204909 1_554
Lu2 O5 2.233913 1_555
Lu2 O6 2.233913 1_454
Lu3 O8 2.189565 1_555
Lu3 O4 2.189565 1_455
Lu3 O10 2.204909 1_455
Lu3 O1 2.204909 1_555
Lu3 O5 2.233913 1_555
Lu3 O6 2.233913 1_455
