# generated using pymatgen
data_Fe2O3F
_symmetry_space_group_name_H-M   'P 1'
_cell_length_a   3.00681600
_cell_length_b   4.73208500
_cell_length_c   18.80903008
_cell_angle_alpha   88.07207451
_cell_angle_beta   90.00000000
_cell_angle_gamma   90.00000000
_symmetry_Int_Tables_number   1
_chemical_formula_structural   Fe2O3F
_chemical_formula_sum   'Fe8 O12 F4'
_cell_volume   267.47295966
_cell_formula_units_Z   4
loop_
 _symmetry_equiv_pos_site_id
 _symmetry_equiv_pos_as_xyz
  1  'x, y, z'
loop_
 _atom_site_type_symbol
 _atom_site_label
 _atom_site_symmetry_multiplicity
 _atom_site_fract_x
 _atom_site_fract_y
 _atom_site_fract_z
 _atom_site_occupancy
  Fe  Fe0  1  0.00000000  0.00937900  0.74369600  1
  Fe  Fe1  1  0.00000000  0.04323900  0.99842500  1
  Fe  Fe2  1  0.00000000  0.93346500  0.24527700  1
  Fe  Fe3  1  0.00000000  0.97747400  0.49595800  1
  Fe  Fe4  1  0.50000000  0.45562600  0.13128600  1
  Fe  Fe5  1  0.50000000  0.56104400  0.87969100  1
  Fe  Fe6  1  0.50000000  0.49765200  0.37906600  1
  Fe  Fe7  1  0.50000000  0.52530900  0.62914300  1
  O  O0  1  0.50000000  0.75606500  0.19766400  1
  O  O1  1  0.50000000  0.79435300  0.45003000  1
  O  O2  1  0.50000000  0.82006000  0.70180900  1
  O  O3  1  0.50000000  0.86331700  0.95343200  1
  O  O4  1  0.00000000  0.69561300  0.57644900  1
  O  O5  1  0.00000000  0.72414500  0.82788000  1
  O  O6  1  0.00000000  0.66086800  0.32481700  1
  O  O7  1  0.00000000  0.29211400  0.42289800  1
  O  O8  1  0.00000000  0.36616900  0.92455800  1
  O  O9  1  0.00000000  0.26555300  0.17406900  1
  O  O10  1  0.00000000  0.31846400  0.67368500  1
  O  O11  1  0.50000000  0.19542700  0.05081900  1
  F  F0  1  0.00000000  0.68236600  0.07592300  1
  F  F1  1  0.50000000  0.21974800  0.79907800  1
  F  F2  1  0.50000000  0.14939700  0.29595800  1
  F  F3  1  0.50000000  0.19315200  0.54838700  1
loop_
_geom_bond_atom_site_label_1
_geom_bond_atom_site_label_2
_geom_bond_distance
_geom_bond_site_symmetry_2
Fe0 O2 1.931587 1_545
Fe0 O2 1.931587 1_445
Fe0 O10 1.934869 1_555
Fe0 O5 2.045787 1_545
Fe1 O3 1.936437 1_445
Fe1 O3 1.936437 1_545
Fe1 O11 1.948794 1_556
Fe1 O11 1.948794 1_456
Fe1 O8 2.030437 1_555
Fe2 O6 1.942255 1_555
Fe2 O0 1.953855 1_455
Fe2 O0 1.953855 1_555
Fe2 O9 2.030213 1_565
Fe3 O1 1.951348 1_455
Fe3 O1 1.951348 1_555
Fe3 O4 1.983733 1_555
Fe3 O7 1.991873 1_565
Fe4 O9 1.915224 1_655
Fe4 O9 1.915224 1_555
Fe4 O0 1.923392 1_555
Fe4 O11 1.982965 1_555
Fe5 O5 1.937781 1_555
Fe5 O5 1.937781 1_655
Fe5 O8 1.941761 1_655
Fe5 O8 1.941761 1_555
Fe5 O3 2.025645 1_555
Fe6 O7 1.957543 1_555
Fe6 O7 1.957543 1_655
Fe6 O6 1.960840 1_555
Fe6 O6 1.960840 1_655
Fe6 O1 1.969504 1_555
Fe7 O4 1.959153 1_555
Fe7 O4 1.959153 1_655
Fe7 O10 1.965965 1_655
Fe7 O10 1.965965 1_555
Fe7 O2 1.985391 1_555
F0 Fe4 2.102533 1_455
F0 Fe4 2.102533 1_555
F0 Fe1 2.207594 1_564
F1 Fe0 2.099071 1_655
F1 Fe0 2.099071 1_555
F1 Fe5 2.252143 1_555
F2 Fe2 2.068471 1_645
F2 Fe2 2.068471 1_545
F2 Fe6 2.309259 1_555
F3 Fe3 2.083762 1_645
F3 Fe3 2.083762 1_545
F3 Fe7 2.222243 1_555
