# generated using pymatgen
data_Li2Cu2F7
_symmetry_space_group_name_H-M   'P 1'
_cell_length_a   5.06350100
_cell_length_b   7.49047500
_cell_length_c   12.91262337
_cell_angle_alpha   82.43126712
_cell_angle_beta   90.00000000
_cell_angle_gamma   90.00000000
_symmetry_Int_Tables_number   1
_chemical_formula_structural   Li2Cu2F7
_chemical_formula_sum   'Li8 Cu8 F28'
_cell_volume   485.48341911
_cell_formula_units_Z   4
loop_
 _symmetry_equiv_pos_site_id
 _symmetry_equiv_pos_as_xyz
  1  'x, y, z'
loop_
 _atom_site_type_symbol
 _atom_site_label
 _atom_site_symmetry_multiplicity
 _atom_site_fract_x
 _atom_site_fract_y
 _atom_site_fract_z
 _atom_site_occupancy
  Li  Li0  1  0.26477700  0.85826200  0.55627500  1
  Li  Li1  1  0.77509500  0.77783000  0.90206100  1
  Li  Li2  1  0.24116000  0.70929000  0.13653700  1
  Li  Li3  1  0.79919000  0.60447800  0.42829800  1
  Li  Li4  1  0.29919000  0.39552200  0.57170200  1
  Li  Li5  1  0.74116000  0.29071000  0.86346300  1
  Li  Li6  1  0.27509500  0.22217000  0.09793900  1
  Li  Li7  1  0.76477700  0.14173800  0.44372500  1
  Cu  Cu0  1  0.76234600  0.97527100  0.10640700  1
  Cu  Cu1  1  0.25393700  0.92037100  0.31842600  1
  Cu  Cu2  1  0.77030200  0.58463300  0.68299700  1
  Cu  Cu3  1  0.26552600  0.52728900  0.89119000  1
  Cu  Cu4  1  0.76552600  0.47271100  0.10881000  1
  Cu  Cu5  1  0.27030200  0.41536700  0.31700300  1
  Cu  Cu6  1  0.75393700  0.07962900  0.68157400  1
  Cu  Cu7  1  0.26234600  0.02472900  0.89359300  1
  F  F0  1  0.94524300  0.98229500  0.81327700  1
  F  F1  1  0.52827000  0.94359500  0.41326200  1
  F  F2  1  0.62190600  0.83442400  0.66716500  1
  F  F3  1  0.40283000  0.77267300  0.88068000  1
  F  F4  1  0.07395700  0.92765500  0.02080600  1
  F  F5  1  0.97440500  0.87852500  0.22202700  1
  F  F6  1  0.04077600  0.82105900  0.43054100  1
  F  F7  1  0.92984800  0.61048900  0.82073000  1
  F  F8  1  0.09551200  0.63271700  0.61618200  1
  F  F9  1  0.61931600  0.72210000  0.08601600  1
  F  F10  1  0.38737600  0.67900700  0.29183600  1
  F  F11  1  0.59540500  0.56268000  0.55529800  1
  F  F12  1  0.46891000  0.48157900  0.76701100  1
  F  F13  1  0.57640300  0.43091100  0.97494200  1
  F  F14  1  0.07640300  0.56908900  0.02505800  1
  F  F15  1  0.96891000  0.51842100  0.23298900  1
  F  F16  1  0.09540500  0.43732000  0.44470200  1
  F  F17  1  0.88737600  0.32099300  0.70816400  1
  F  F18  1  0.11931600  0.27790000  0.91398400  1
  F  F19  1  0.59551200  0.36728300  0.38381800  1
  F  F20  1  0.42984800  0.38951100  0.17927000  1
  F  F21  1  0.54077600  0.17894100  0.56945900  1
  F  F22  1  0.47440500  0.12147500  0.77797300  1
  F  F23  1  0.57395700  0.07234500  0.97919400  1
  F  F24  1  0.90283000  0.22732700  0.11932000  1
  F  F25  1  0.12190600  0.16557600  0.33283500  1
  F  F26  1  0.02827000  0.05640500  0.58673800  1
  F  F27  1  0.44524300  0.01770500  0.18672300  1
loop_
_geom_bond_atom_site_label_1
_geom_bond_atom_site_label_2
_geom_bond_distance
_geom_bond_site_symmetry_2
Cu0 F5 1.903163 1_555
Cu0 F23 1.955076 1_564
Cu0 F27 1.959984 1_565
Cu0 F4 1.985551 1_655
Cu0 F24 2.044836 1_565
Cu0 F9 2.078846 1_555
Cu1 F1 1.874977 1_555
Cu1 F6 1.878960 1_555
Cu1 F5 1.937487 1_455
Cu1 F25 1.986217 1_565
Cu1 F10 2.001638 1_555
Cu1 F27 2.008834 1_565
Cu2 F8 1.871855 1_655
Cu2 F11 1.897816 1_555
Cu2 F12 1.970056 1_555
Cu2 F7 1.985933 1_555
Cu2 F2 2.001618 1_555
Cu2 F17 2.046401 1_555
Cu3 F3 1.953065 1_555
Cu3 F12 1.973209 1_555
Cu3 F7 1.988919 1_455
Cu3 F13 1.990709 1_555
Cu3 F18 1.994860 1_555
Cu3 F14 2.036091 1_556
Cu4 F24 1.953065 1_555
Cu4 F15 1.973209 1_555
Cu4 F20 1.988919 1_555
Cu4 F14 1.990709 1_655
Cu4 F9 1.994860 1_555
Cu4 F13 2.036091 1_554
Cu5 F19 1.871855 1_555
Cu5 F16 1.897816 1_555
Cu5 F15 1.970056 1_455
Cu5 F20 1.985933 1_555
Cu5 F25 2.001618 1_555
Cu5 F10 2.046401 1_555
Cu6 F26 1.874977 1_655
Cu6 F21 1.878960 1_555
Cu6 F22 1.937487 1_555
Cu6 F2 1.986217 1_545
Cu6 F17 2.001638 1_555
Cu6 F0 2.008834 1_545
Cu7 F22 1.903163 1_555
Cu7 F4 1.955076 1_546
Cu7 F0 1.959984 1_445
Cu7 F23 1.985551 1_555
Cu7 F3 2.044836 1_545
Cu7 F18 2.078846 1_555
F0 Li1 1.984855 1_555
F1 Li7 1.986319 1_565
F1 Li0 2.299542 1_555
F2 Li0 2.298879 1_555
F3 Li1 1.906204 1_555
F4 Li2 2.231918 1_555
F5 Li2 2.240223 1_655
F6 Li0 2.029594 1_555
F6 Li3 2.035055 1_455
F7 Li1 1.906535 1_555
F8 Li0 1.960331 1_555
F8 Li4 2.195223 1_555
F9 Li2 2.021070 1_555
F9 Li1 2.485454 1_554
F10 Li2 2.121571 1_555
F11 Li3 1.927900 1_555
F11 Li4 1.947407 1_555
F12 Li5 2.241981 1_555
F13 Li5 2.066200 1_555
F14 Li2 2.066200 1_555
F15 Li2 2.241981 1_655
F16 Li4 1.927900 1_555
F16 Li3 1.947407 1_455
F17 Li5 2.121571 1_555
F18 Li5 2.021070 1_455
F18 Li6 2.485454 1_556
F19 Li7 1.960331 1_555
F19 Li3 2.195223 1_555
F20 Li6 1.906535 1_555
F21 Li7 2.029594 1_555
F21 Li4 2.035055 1_555
F22 Li5 2.240223 1_555
F23 Li5 2.231918 1_555
F24 Li6 1.906204 1_655
F25 Li7 2.298879 1_455
F26 Li0 1.986319 1_545
F26 Li7 2.299542 1_455
F27 Li6 1.984855 1_555
