# generated using pymatgen
data_Li9Mn2(CO3)8
_symmetry_space_group_name_H-M   'P 1'
_cell_length_a   8.37920754
_cell_length_b   9.62445347
_cell_length_c   11.24409737
_cell_angle_alpha   90.22540040
_cell_angle_beta   88.93748664
_cell_angle_gamma   89.89906462
_symmetry_Int_Tables_number   1
_chemical_formula_structural   Li9Mn2(CO3)8
_chemical_formula_sum   'Li18 Mn4 C16 O48'
_cell_volume   906.61907241
_cell_formula_units_Z   2
loop_
 _symmetry_equiv_pos_site_id
 _symmetry_equiv_pos_as_xyz
  1  'x, y, z'
loop_
 _atom_site_type_symbol
 _atom_site_label
 _atom_site_symmetry_multiplicity
 _atom_site_fract_x
 _atom_site_fract_y
 _atom_site_fract_z
 _atom_site_occupancy
  Li  Li0  1  0.43222000  0.63562300  0.06519500  1
  Li  Li1  1  0.93881400  0.86412000  0.06803600  1
  Li  Li2  1  0.44007100  0.15335300  0.15380100  1
  Li  Li3  1  0.93250900  0.34914800  0.14592700  1
  Li  Li4  1  0.30191700  0.90168400  0.23111700  1
  Li  Li5  1  0.80099600  0.60233800  0.22216700  1
  Li  Li6  1  0.46644500  0.66463000  0.34102500  1
  Li  Li7  1  0.97599700  0.82591500  0.35560400  1
  Li  Li8  1  0.92795600  0.42761400  0.44302600  1
  Li  Li9  1  0.56809100  0.91765100  0.58165800  1
  Li  Li10  1  0.52912100  0.32591700  0.65042700  1
  Li  Li11  1  0.04468100  0.16175100  0.66729800  1
  Li  Li12  1  0.20126600  0.40116000  0.77202800  1
  Li  Li13  1  0.70778700  0.10138600  0.77525300  1
  Li  Li14  1  0.06357000  0.63902300  0.86198900  1
  Li  Li15  1  0.57107100  0.86550500  0.86924000  1
  Li  Li16  1  0.06714300  0.13405300  0.93521200  1
  Li  Li17  1  0.55875800  0.36509800  0.93256000  1
  Mn  Mn0  1  0.22107200  0.88427700  0.72509800  1
  Mn  Mn1  1  0.72964500  0.59698000  0.72658300  1
  Mn  Mn2  1  0.27253400  0.39538800  0.27673000  1
  Mn  Mn3  1  0.77203100  0.09143300  0.27704400  1
  C  C0  1  0.24276500  0.38516500  0.02817500  1
  C  C1  1  0.73695800  0.11114200  0.02904000  1
  C  C2  1  0.13480600  0.63856800  0.20852200  1
  C  C3  1  0.63789800  0.86025100  0.20847200  1
  C  C4  1  0.11592900  0.14034500  0.28270500  1
  C  C5  1  0.62131000  0.36464900  0.28809000  1
  C  C6  1  0.25729800  0.85137600  0.48127000  1
  C  C7  1  0.75928800  0.65419900  0.48891800  1
  C  C8  1  0.24246800  0.35541200  0.52450400  1
  C  C9  1  0.73708400  0.15222900  0.50925500  1
  C  C10  1  0.38679800  0.64215000  0.71992800  1
  C  C11  1  0.88005500  0.86019900  0.71504100  1
  C  C12  1  0.37240200  0.13547300  0.79452900  1
  C  C13  1  0.86644500  0.35918500  0.79564200  1
  C  C14  1  0.24946100  0.88381100  0.97515800  1
  C  C15  1  0.75355600  0.61316300  0.97570700  1
  O  O0  1  0.88114500  0.67590000  0.00369500  1
  O  O1  1  0.18522300  0.98575500  0.03107000  1
  O  O2  1  0.69258600  0.50988800  0.03077700  1
  O  O3  1  0.33556600  0.34092800  0.11899200  1
  O  O4  1  0.83279500  0.15096400  0.12020700  1
  O  O5  1  0.10274100  0.76845000  0.19936300  1
  O  O6  1  0.59985400  0.73311600  0.19703500  1
  O  O7  1  0.03286600  0.54060200  0.20246400  1
  O  O8  1  0.54317400  0.96416900  0.20377900  1
  O  O9  1  0.28526300  0.60164800  0.22675400  1
  O  O10  1  0.78949500  0.89355900  0.22939300  1
  O  O11  1  0.08173900  0.27065700  0.26694100  1
  O  O12  1  0.59328300  0.23130200  0.27939800  1
  O  O13  1  0.25833100  0.09728100  0.27695500  1
  O  O14  1  0.76144500  0.41283200  0.27768300  1
  O  O15  1  0.99888800  0.05364600  0.30654400  1
  O  O16  1  0.49963700  0.44738400  0.30790100  1
  O  O17  1  0.35624100  0.83297500  0.39505300  1
  O  O18  1  0.84792400  0.65332800  0.39515700  1
  O  O19  1  0.18804300  0.43049000  0.43081300  1
  O  O20  1  0.71123800  0.04470100  0.43420400  1
  O  O21  1  0.11785900  0.80294200  0.48785400  1
  O  O22  1  0.83998500  0.24222700  0.47786300  1
  O  O23  1  0.38552300  0.31763200  0.52366400  1
  O  O24  1  0.64697500  0.73860500  0.51135800  1
  O  O25  1  0.30945200  0.93009500  0.57347500  1
  O  O26  1  0.78905200  0.55114100  0.56753800  1
  O  O27  1  0.13814100  0.33099800  0.60683300  1
  O  O28  1  0.65644100  0.15144700  0.60629100  1
  O  O29  1  0.50154200  0.55456100  0.69929000  1
  O  O30  1  0.99959000  0.94601000  0.69739400  1
  O  O31  1  0.73834600  0.90593000  0.72100400  1
  O  O32  1  0.42109000  0.77409000  0.73486000  1
  O  O33  1  0.24254200  0.60254300  0.72417600  1
  O  O34  1  0.91277400  0.72877700  0.72648300  1
  O  O35  1  0.71596900  0.39518300  0.77471500  1
  O  O36  1  0.22430900  0.08878200  0.77641700  1
  O  O37  1  0.39165800  0.26740800  0.80274200  1
  O  O38  1  0.48243500  0.04577900  0.80193200  1
  O  O39  1  0.96608800  0.45852800  0.80370800  1
  O  O40  1  0.90048800  0.22962800  0.80463200  1
  O  O41  1  0.16373300  0.83120900  0.88333700  1
  O  O42  1  0.66963500  0.66164300  0.88165800  1
  O  O43  1  0.29313000  0.49212200  0.97180800  1
  O  O44  1  0.78064500  0.00182300  0.97221100  1
  O  O45  1  0.11800900  0.31649000  0.00392000  1
  O  O46  1  0.38111700  0.82622200  0.00069900  1
  O  O47  1  0.61646900  0.18596000  0.00652800  1
loop_
_geom_bond_atom_site_label_1
_geom_bond_atom_site_label_2
_geom_bond_distance
_geom_bond_site_symmetry_2
Li0 O46 2.023253 1_555
Li0 O43 2.099536 1_554
Li0 O9 2.201441 1_555
Li0 O6 2.263173 1_555
Li0 O2 2.515856 1_555
Li1 O0 2.011023 1_555
Li1 O44 2.175294 1_564
Li1 O10 2.201811 1_555
Li1 O5 2.235287 1_655
Li1 O1 2.405574 1_655
Li2 O3 2.047394 1_555
Li2 O12 2.065824 1_555
Li2 O8 2.097130 1_545
Li2 O13 2.111489 1_555
Li2 O47 2.222683 1_555
Li3 O11 2.013355 1_655
Li3 O4 2.104803 1_555
Li3 O7 2.126652 1_655
Li3 O14 2.129797 1_555
Li3 O45 2.228596 1_655
Li4 O13 1.981376 1_565
Li4 O17 2.020383 1_555
Li4 O8 2.127317 1_555
Li4 O5 2.140835 1_555
Li4 O1 2.600667 1_555
Li5 O14 1.956907 1_555
Li5 O7 2.038595 1_655
Li5 O18 2.049505 1_555
Li5 O6 2.125487 1_555
Li5 O2 2.511633 1_555
Li6 O17 1.952711 1_555
Li6 O6 2.061367 1_555
Li6 O9 2.095856 1_555
Li6 O16 2.139114 1_555
Li6 O24 2.561995 1_555
Li7 O21 1.933999 1_655
Li7 O18 2.025572 1_555
Li7 O5 2.107406 1_655
Li7 O10 2.228421 1_555
Li7 O15 2.269822 1_565
Li8 O22 1.969711 1_555
Li8 O26 2.156334 1_555
Li8 O19 2.181334 1_655
Li8 O18 2.340102 1_555
Li8 O14 2.349064 1_555
Li9 O24 1.999277 1_555
Li9 O31 2.141627 1_555
Li9 O25 2.173957 1_555
Li9 O20 2.372803 1_565
Li9 O28 2.386744 1_565
Li9 O32 2.517884 1_555
Li10 O23 1.883817 1_555
Li10 O28 2.042442 1_555
Li10 O37 2.124542 1_555
Li10 O35 2.219495 1_555
Li10 O29 2.276352 1_555
Li11 O27 1.929331 1_555
Li11 O40 2.047244 1_455
Li11 O36 2.082208 1_555
Li11 O30 2.138273 1_445
Li12 O33 2.041913 1_555
Li12 O27 2.052750 1_555
Li12 O39 2.069689 1_455
Li12 O37 2.082827 1_555
Li12 O43 2.540874 1_555
Li13 O38 1.981363 1_555
Li13 O31 1.989944 1_545
Li13 O28 2.015780 1_555
Li13 O40 2.064779 1_555
Li13 O44 2.502043 1_555
Li14 O39 2.032308 1_455
Li14 O41 2.047634 1_555
Li14 O33 2.163583 1_555
Li14 O34 2.177651 1_455
Li14 O0 2.214636 1_456
Li15 O38 2.039944 1_565
Li15 O42 2.133540 1_555
Li15 O32 2.168031 1_555
Li15 O46 2.186434 1_556
Li15 O31 2.194193 1_555
Li15 O44 2.493427 1_565
Li16 O45 1.966142 1_556
Li16 O1 2.055360 1_546
Li16 O36 2.239827 1_555
Li16 O40 2.243676 1_455
Li17 O47 1.980246 1_556
Li17 O2 2.111475 1_556
Li17 O35 2.210839 1_555
Li17 O37 2.246060 1_555
Li17 O43 2.567696 1_555
Mn0 O25 1.899916 1_555
Mn0 O41 1.906243 1_555
Mn0 O30 1.978184 1_455
Mn0 O32 1.986734 1_555
Mn0 O36 2.049278 1_565
Mn1 O26 1.897500 1_555
Mn1 O42 1.907463 1_555
Mn1 O29 1.984320 1_555
Mn1 O34 1.992599 1_555
Mn1 O35 2.021106 1_555
Mn2 O19 1.888400 1_555
Mn2 O3 1.912167 1_555
Mn2 O16 2.005288 1_555
Mn2 O11 2.005334 1_555
Mn2 O9 2.067662 1_555
Mn3 O20 1.886313 1_555
Mn3 O4 1.916531 1_555
Mn3 O15 1.969146 1_555
Mn3 O10 1.980762 1_545
Mn3 O12 2.011791 1_555
Mn3 O8 2.432111 1_545
C0 O45 1.271065 1_555
C0 O43 1.279145 1_554
C0 O3 1.363961 1_555
C1 O47 1.268952 1_555
C1 O44 1.278272 1_554
C1 O4 1.367880 1_555
C2 O7 1.275833 1_555
C2 O5 1.283066 1_555
C2 O9 1.329007 1_555
C3 O6 1.271622 1_555
C3 O8 1.277593 1_555
C3 O10 1.335512 1_555
C4 O13 1.262899 1_555
C4 O11 1.299550 1_555
C4 O15 1.313321 1_455
C5 O14 1.266802 1_555
C5 O16 1.307834 1_555
C5 O12 1.308711 1_555
C6 O21 1.259719 1_555
C6 O17 1.275474 1_555
C6 O25 1.360750 1_555
C7 O24 1.263385 1_555
C7 O18 1.278281 1_555
C7 O26 1.357092 1_555
C8 O23 1.251867 1_555
C8 O27 1.284044 1_555
C8 O19 1.364751 1_555
C9 O22 1.269665 1_555
C9 O28 1.272737 1_555
C9 O20 1.353051 1_555
C10 O33 1.268186 1_555
C10 O29 1.294695 1_555
C10 O32 1.313267 1_555
C11 O31 1.266147 1_555
C11 O34 1.301140 1_555
C11 O30 1.312063 1_555
C12 O38 1.266022 1_555
C12 O37 1.283476 1_555
C12 O36 1.339353 1_555
C13 O39 1.274536 1_555
C13 O40 1.283430 1_555
C13 O35 1.332404 1_555
C14 O46 1.271818 1_556
C14 O1 1.276075 1_556
C14 O41 1.364889 1_555
C15 O0 1.272730 1_556
C15 O2 1.275653 1_556
C15 O42 1.364108 1_555
