# generated using pymatgen
data_FeOF
_symmetry_space_group_name_H-M   'P 1'
_cell_length_a   3.10488400
_cell_length_b   14.21941300
_cell_length_c   14.27360825
_cell_angle_alpha   89.75806509
_cell_angle_beta   90.00000000
_cell_angle_gamma   90.00000000
_symmetry_Int_Tables_number   1
_chemical_formula_structural   FeOF
_chemical_formula_sum   'Fe18 O18 F18'
_cell_volume   630.16887517
_cell_formula_units_Z   18
loop_
 _symmetry_equiv_pos_site_id
 _symmetry_equiv_pos_as_xyz
  1  'x, y, z'
loop_
 _atom_site_type_symbol
 _atom_site_label
 _atom_site_symmetry_multiplicity
 _atom_site_fract_x
 _atom_site_fract_y
 _atom_site_fract_z
 _atom_site_occupancy
  Fe  Fe0  1  0.00000000  0.98807800  0.99602000  1
  Fe  Fe1  1  0.00000000  0.98755500  0.33350300  1
  Fe  Fe2  1  0.00000000  0.99916300  0.66458700  1
  Fe  Fe3  1  0.50000000  0.84887300  0.16570700  1
  Fe  Fe4  1  0.50000000  0.85011800  0.50220200  1
  Fe  Fe5  1  0.50000000  0.85160500  0.82633100  1
  Fe  Fe6  1  0.00000000  0.65878400  0.99191300  1
  Fe  Fe7  1  0.00000000  0.65631400  0.33346900  1
  Fe  Fe8  1  0.00000000  0.65520500  0.66394300  1
  Fe  Fe9  1  0.50000000  0.51206500  0.49898200  1
  Fe  Fe10  1  0.50000000  0.49929200  0.18630600  1
  Fe  Fe11  1  0.50000000  0.51204600  0.82947400  1
  Fe  Fe12  1  0.00000000  0.32786900  0.00417100  1
  Fe  Fe13  1  0.00000000  0.32714300  0.32395900  1
  Fe  Fe14  1  0.00000000  0.32068000  0.66518800  1
  Fe  Fe15  1  0.50000000  0.17805800  0.16507300  1
  Fe  Fe16  1  0.50000000  0.16356600  0.51635600  1
  Fe  Fe17  1  0.50000000  0.16411600  0.81305500  1
  O  O0  1  0.50000000  0.93727600  0.26810900  1
  O  O1  1  0.50000000  0.93409700  0.60381500  1
  O  O2  1  0.50000000  0.93683100  0.93457100  1
  O  O3  1  0.00000000  0.89682400  0.10005000  1
  O  O4  1  0.00000000  0.89757100  0.43472900  1
  O  O5  1  0.00000000  0.89560500  0.76505100  1
  O  O6  1  0.50000000  0.60700400  0.26650100  1
  O  O7  1  0.50000000  0.60068000  0.60292000  1
  O  O8  1  0.50000000  0.59759400  0.93904700  1
  O  O9  1  0.00000000  0.56295000  0.43369200  1
  O  O10  1  0.00000000  0.56524300  0.77052900  1
  O  O11  1  0.00000000  0.43326500  0.23306400  1
  O  O12  1  0.50000000  0.26436600  0.27023500  1
  O  O13  1  0.50000000  0.27203900  0.60139100  1
  O  O14  1  0.00000000  0.23340800  0.09994900  1
  O  O15  1  0.00000000  0.23550700  0.77240200  1
  O  O16  1  0.00000000  0.10057500  0.56274100  1
  O  O17  1  0.50000000  0.06163400  0.73130700  1
  F  F0  1  0.00000000  0.76857300  0.23223700  1
  F  F1  1  0.00000000  0.76546700  0.56621200  1
  F  F2  1  0.00000000  0.76636700  0.90067100  1
  F  F3  1  0.50000000  0.72718100  0.06606000  1
  F  F4  1  0.50000000  0.72995100  0.73345600  1
  F  F5  1  0.50000000  0.73160500  0.39908800  1
  F  F6  1  0.00000000  0.56410000  0.10280500  1
  F  F7  1  0.00000000  0.43491400  0.56665500  1
  F  F8  1  0.00000000  0.42932700  0.90036000  1
  F  F9  1  0.50000000  0.40379200  0.06160700  1
  F  F10  1  0.50000000  0.39498400  0.40209300  1
  F  F11  1  0.50000000  0.40109800  0.73494300  1
  F  F12  1  0.50000000  0.26970700  0.93491600  1
  F  F13  1  0.00000000  0.23439200  0.43538500  1
  F  F14  1  0.00000000  0.10165800  0.22885600  1
  F  F15  1  0.00000000  0.10688100  0.90396400  1
  F  F16  1  0.50000000  0.06653500  0.06725300  1
  F  F17  1  0.50000000  0.07047500  0.39309500  1
loop_
_geom_bond_atom_site_label_1
_geom_bond_atom_site_label_2
_geom_bond_distance
_geom_bond_site_symmetry_2
Fe0 O2 1.927637 1_555
Fe0 O2 1.927637 1_455
Fe0 O3 1.967820 1_556
Fe1 O4 1.925923 1_555
Fe1 O0 1.948871 1_455
Fe1 O0 1.948871 1_555
Fe2 O1 2.006314 1_455
Fe2 O1 2.006314 1_555
Fe2 O17 2.028113 1_465
Fe2 O17 2.028113 1_565
Fe2 O16 2.043279 1_565
Fe2 O5 2.051057 1_555
Fe3 O0 1.931857 1_555
Fe3 O3 1.935937 1_555
Fe3 O3 1.935937 1_655
Fe4 O1 1.882602 1_555
Fe4 O4 1.946127 1_555
Fe4 O4 1.946127 1_655
Fe5 O5 1.887319 1_655
Fe5 O5 1.887319 1_555
Fe5 O2 1.967581 1_555
Fe6 O8 1.934444 1_555
Fe6 O8 1.934444 1_455
Fe7 O9 1.947534 1_555
Fe7 O6 1.954753 1_455
Fe7 O6 1.954753 1_555
Fe8 O7 1.943081 1_455
Fe8 O7 1.943081 1_555
Fe8 O10 1.983555 1_555
Fe9 O9 1.948434 1_555
Fe9 O9 1.948434 1_655
Fe9 O7 1.950513 1_555
Fe10 O6 1.915955 1_555
Fe10 O11 1.931756 1_555
Fe10 O11 1.931756 1_655
Fe11 O10 1.919576 1_655
Fe11 O10 1.919576 1_555
Fe11 O8 1.985422 1_555
Fe12 O14 1.912480 1_555
Fe13 O12 1.949544 1_555
Fe13 O12 1.949544 1_455
Fe13 O11 1.985893 1_555
Fe14 O13 1.929504 1_555
Fe14 O13 1.929504 1_455
Fe14 O15 1.947575 1_555
Fe15 O12 1.942890 1_555
Fe15 O14 1.971651 1_655
Fe15 O14 1.971651 1_555
Fe16 O16 1.909369 1_555
Fe16 O16 1.909369 1_655
Fe16 O13 1.966744 1_555
Fe17 O17 1.870669 1_555
Fe17 O15 1.942245 1_655
Fe17 O15 1.942245 1_555
F0 Fe3 2.146265 1_555
F0 Fe3 2.146265 1_455
F0 Fe7 2.148587 1_555
F1 Fe8 2.094199 1_555
F1 Fe4 2.164351 1_455
F1 Fe4 2.164351 1_555
F2 Fe6 2.004865 1_555
F2 Fe5 2.234765 1_555
F2 Fe5 2.234765 1_455
F3 Fe6 2.117722 1_654
F3 Fe6 2.117722 1_554
F3 Fe3 2.244556 1_555
F4 Fe8 2.129104 1_655
F4 Fe8 2.129104 1_555
F4 Fe5 2.183832 1_555
F5 Fe7 2.107599 1_555
F5 Fe7 2.107599 1_655
F5 Fe4 2.242101 1_555
F6 Fe6 2.073647 1_554
F6 Fe10 2.161146 1_555
F6 Fe10 2.161146 1_455
F7 Fe9 2.130179 1_555
F7 Fe9 2.130179 1_455
F7 Fe14 2.144111 1_555
F8 Fe12 2.063700 1_556
F8 Fe11 2.192543 1_555
F8 Fe11 2.192543 1_455
F9 Fe12 2.062801 1_555
F9 Fe12 2.062801 1_655
F9 Fe10 2.243326 1_555
F10 Fe13 2.143250 1_555
F10 Fe13 2.143250 1_655
F10 Fe9 2.168789 1_555
F11 Fe11 2.080253 1_555
F11 Fe14 2.172235 1_555
F11 Fe14 2.172235 1_655
F12 Fe12 2.019437 1_656
F12 Fe12 2.019437 1_556
F12 Fe17 2.302582 1_555
F13 Fe13 2.061850 1_555
F13 Fe16 2.179509 1_455
F13 Fe16 2.179509 1_555
F14 Fe15 2.100181 1_555
F14 Fe15 2.100181 1_455
F14 Fe1 2.200699 1_545
F15 Fe0 2.135776 1_545
F15 Fe17 2.178823 1_455
F15 Fe17 2.178823 1_555
F16 Fe15 2.117294 1_555
F16 Fe0 2.167494 1_644
F16 Fe0 2.167494 1_544
F17 Fe1 2.128913 1_645
F17 Fe1 2.128913 1_545
F17 Fe16 2.206187 1_555
