# generated using pymatgen
data_LiCuF4
_symmetry_space_group_name_H-M   'P 1'
_cell_length_a   4.99912200
_cell_length_b   7.19594300
_cell_length_c   7.37068109
_cell_angle_alpha   78.84573169
_cell_angle_beta   90.00000000
_cell_angle_gamma   90.00000000
_symmetry_Int_Tables_number   1
_chemical_formula_structural   LiCuF4
_chemical_formula_sum   'Li4 Cu4 F16'
_cell_volume   260.13974951
_cell_formula_units_Z   4
loop_
 _symmetry_equiv_pos_site_id
 _symmetry_equiv_pos_as_xyz
  1  'x, y, z'
loop_
 _atom_site_type_symbol
 _atom_site_label
 _atom_site_symmetry_multiplicity
 _atom_site_fract_x
 _atom_site_fract_y
 _atom_site_fract_z
 _atom_site_occupancy
  Li  Li0  1  0.75593600  0.85041000  0.85388700  1
  Li  Li1  1  0.74406400  0.35041000  0.85388700  1
  Li  Li2  1  0.25593600  0.64959000  0.14611300  1
  Li  Li3  1  0.24406400  0.14959000  0.14611300  1
  Cu  Cu0  1  0.24978100  0.69262800  0.67723600  1
  Cu  Cu1  1  0.25021900  0.19262800  0.67723600  1
  Cu  Cu2  1  0.74978100  0.80737200  0.32276400  1
  Cu  Cu3  1  0.75021900  0.30737200  0.32276400  1
  F  F0  1  0.43096200  0.69430200  0.90282100  1
  F  F1  1  0.06903800  0.19430200  0.90282100  1
  F  F2  1  0.93903900  0.60073500  0.80804300  1
  F  F3  1  0.09747200  0.94200300  0.68450200  1
  F  F4  1  0.56096100  0.10073500  0.80804300  1
  F  F5  1  0.40252800  0.44200300  0.68450200  1
  F  F6  1  0.57916800  0.80647700  0.55908400  1
  F  F7  1  0.92083200  0.30647700  0.55908400  1
  F  F8  1  0.07916800  0.69352300  0.44091600  1
  F  F9  1  0.42083200  0.19352300  0.44091600  1
  F  F10  1  0.59747200  0.55799700  0.31549800  1
  F  F11  1  0.43903900  0.89926500  0.19195700  1
  F  F12  1  0.90252800  0.05799700  0.31549800  1
  F  F13  1  0.06096100  0.39926500  0.19195700  1
  F  F14  1  0.93096200  0.80569800  0.09717900  1
  F  F15  1  0.56903800  0.30569800  0.09717900  1
loop_
_geom_bond_atom_site_label_1
_geom_bond_atom_site_label_2
_geom_bond_distance
_geom_bond_site_symmetry_2
Cu0 F2 1.879713 1_455
Cu0 F0 1.895492 1_555
Cu0 F8 1.938342 1_555
Cu0 F5 1.949650 1_555
Cu0 F3 1.959588 1_555
Cu0 F6 1.965954 1_555
Cu1 F4 1.879713 1_555
Cu1 F1 1.895492 1_555
Cu1 F9 1.938342 1_555
Cu1 F3 1.949650 1_545
Cu1 F5 1.959588 1_555
Cu1 F7 1.965954 1_455
Cu2 F11 1.879713 1_555
Cu2 F14 1.895492 1_555
Cu2 F6 1.938342 1_555
Cu2 F12 1.949650 1_565
Cu2 F10 1.959588 1_555
Cu2 F8 1.965954 1_655
Cu3 F13 1.879713 1_655
Cu3 F15 1.895492 1_555
Cu3 F7 1.938342 1_555
Cu3 F10 1.949650 1_555
Cu3 F12 1.959588 1_555
Cu3 F9 1.965954 1_555
F0 Li2 1.965080 1_556
F0 Li0 1.968377 1_555
F1 Li3 1.965080 1_556
F1 Li1 1.968377 1_455
F2 Li1 2.018291 1_555
F2 Li0 2.101161 1_555
F3 Li0 2.142404 1_455
F4 Li0 2.018291 1_545
F4 Li1 2.101161 1_555
F5 Li1 2.142404 1_555
F6 Li0 2.422418 1_555
F7 Li1 2.422418 1_555
F8 Li2 2.422418 1_555
F9 Li3 2.422418 1_555
F10 Li2 2.142404 1_555
F11 Li3 2.018291 1_565
F11 Li2 2.101161 1_555
F12 Li3 2.142404 1_655
F13 Li2 2.018291 1_555
F13 Li3 2.101161 1_555
F14 Li0 1.965080 1_554
F14 Li2 1.968377 1_655
F15 Li1 1.965080 1_554
F15 Li3 1.968377 1_555
