# generated using pymatgen
data_LiNiP2O7
_symmetry_space_group_name_H-M   'P 1'
_cell_length_a   5.12939800
_cell_length_b   6.12989305
_cell_length_c   8.68678268
_cell_angle_alpha   70.65369422
_cell_angle_beta   88.37714468
_cell_angle_gamma   86.76650250
_symmetry_Int_Tables_number   1
_chemical_formula_structural   LiNiP2O7
_chemical_formula_sum   'Li2 Ni2 P4 O14'
_cell_volume   257.28881497
_cell_formula_units_Z   2
loop_
 _symmetry_equiv_pos_site_id
 _symmetry_equiv_pos_as_xyz
  1  'x, y, z'
loop_
 _atom_site_type_symbol
 _atom_site_label
 _atom_site_symmetry_multiplicity
 _atom_site_fract_x
 _atom_site_fract_y
 _atom_site_fract_z
 _atom_site_occupancy
  Li  Li0  1  0.77501600  0.18898800  0.47748700  1
  Li  Li1  1  0.22498400  0.81101200  0.52251300  1
  Ni  Ni0  1  0.76764600  0.55984800  0.73016500  1
  Ni  Ni1  1  0.23235400  0.44015200  0.26983500  1
  P  P0  1  0.78738200  0.20003400  0.13292500  1
  P  P1  1  0.69380200  0.73515100  0.34218700  1
  P  P2  1  0.30619800  0.26484900  0.65781300  1
  P  P3  1  0.21261800  0.79996600  0.86707500  1
  O  O0  1  0.94454000  0.80130700  0.79363000  1
  O  O1  1  0.87701800  0.52883100  0.34193700  1
  O  O2  1  0.76769400  0.82929100  0.47903700  1
  O  O3  1  0.77112800  0.31890300  0.95184300  1
  O  O4  1  0.73473900  0.93109500  0.16617000  1
  O  O5  1  0.59281900  0.32409500  0.64542500  1
  O  O6  1  0.58026700  0.28439700  0.23527700  1
  O  O7  1  0.41973300  0.71560300  0.76472300  1
  O  O8  1  0.40718100  0.67590500  0.35457500  1
  O  O9  1  0.26526100  0.06890500  0.83383000  1
  O  O10  1  0.22887200  0.68109700  0.04815700  1
  O  O11  1  0.23230600  0.17070900  0.52096300  1
  O  O12  1  0.12298200  0.47116900  0.65806300  1
  O  O13  1  0.05546000  0.19869300  0.20637000  1
loop_
_geom_bond_atom_site_label_1
_geom_bond_atom_site_label_2
_geom_bond_distance
_geom_bond_site_symmetry_2
Li0 O5 2.079298 1_555
Li0 O1 2.112537 1_555
Li0 O2 2.202916 1_545
Li0 O6 2.237120 1_555
Li0 O11 2.376893 1_655
Li1 O8 2.079298 1_555
Li1 O12 2.112537 1_555
Li1 O11 2.202916 1_565
Li1 O7 2.237120 1_555
Li1 O2 2.376893 1_455
Ni0 O3 2.001130 1_555
Ni0 O0 2.009595 1_555
Ni0 O12 2.014702 1_655
Ni0 O7 2.038081 1_555
Ni0 O5 2.079154 1_555
Ni0 O2 2.258244 1_555
Ni1 O10 2.001130 1_555
Ni1 O13 2.009595 1_555
Ni1 O1 2.014702 1_455
Ni1 O6 2.038081 1_555
Ni1 O8 2.079154 1_555
Ni1 O11 2.258244 1_555
O0 P3 1.530652 1_655
O1 P1 1.533083 1_555
O2 P1 1.547447 1_555
O3 P0 1.501147 1_556
O4 P0 1.613832 1_565
O4 P1 1.618068 1_555
O5 P2 1.526539 1_555
O6 P0 1.541345 1_555
O7 P3 1.541345 1_555
O8 P1 1.526539 1_555
O9 P3 1.613832 1_545
O9 P2 1.618068 1_555
O10 P3 1.501147 1_554
O11 P2 1.547447 1_555
O12 P2 1.533083 1_555
O13 P0 1.530652 1_455
