# generated using pymatgen
data_Mn2Ni3P6WO24
_symmetry_space_group_name_H-M   'P 1'
_cell_length_a   8.65326289
_cell_length_b   8.65326289
_cell_length_c   8.65326312
_cell_angle_alpha   60.53402564
_cell_angle_beta   60.53402564
_cell_angle_gamma   60.53402537
_symmetry_Int_Tables_number   1
_chemical_formula_structural   Mn2Ni3P6WO24
_chemical_formula_sum   'Mn2 Ni3 P6 W1 O24'
_cell_volume   463.69631373
_cell_formula_units_Z   1
loop_
 _symmetry_equiv_pos_site_id
 _symmetry_equiv_pos_as_xyz
  1  'x, y, z'
loop_
 _atom_site_type_symbol
 _atom_site_label
 _atom_site_symmetry_multiplicity
 _atom_site_fract_x
 _atom_site_fract_y
 _atom_site_fract_z
 _atom_site_occupancy
  Mn  Mn0  1  0.00867100  0.00867100  0.00867100  1
  Mn  Mn1  1  0.50092100  0.50092100  0.50092100  1
  Ni  Ni0  1  0.35749700  0.35749700  0.35749700  1
  Ni  Ni1  1  0.14542500  0.14542500  0.14542500  1
  Ni  Ni2  1  0.64318000  0.64318000  0.64318000  1
  P  P0  1  0.45249600  0.74461700  0.04625400  1
  P  P1  1  0.74461700  0.04625400  0.45249600  1
  P  P2  1  0.04625400  0.45249600  0.74461700  1
  P  P3  1  0.95518000  0.53666000  0.25636300  1
  P  P4  1  0.25636300  0.95518000  0.53666000  1
  P  P5  1  0.53666000  0.25636300  0.95518000  1
  W  W0  1  0.85743100  0.85743100  0.85743100  1
  O  O0  1  0.67907500  0.89353700  0.49449300  1
  O  O1  1  0.89353700  0.49449300  0.67907500  1
  O  O2  1  0.49449300  0.67907500  0.89353700  1
  O  O3  1  0.26512000  0.90846500  0.06238500  1
  O  O4  1  0.62018100  0.81852100  0.98677500  1
  O  O5  1  0.45777000  0.58943000  0.23811000  1
  O  O6  1  0.90846500  0.06238500  0.26512000  1
  O  O7  1  0.58943000  0.23811000  0.45777000  1
  O  O8  1  0.98900500  0.38932300  0.18725100  1
  O  O9  1  0.23811000  0.45777000  0.58943000  1
  O  O10  1  0.92639400  0.74108400  0.08744400  1
  O  O11  1  0.18725100  0.98900500  0.38932300  1
  O  O12  1  0.81852100  0.98677500  0.62018100  1
  O  O13  1  0.06238500  0.26512000  0.90846500  1
  O  O14  1  0.75712200  0.56146900  0.40964000  1
  O  O15  1  0.98677500  0.62018100  0.81852100  1
  O  O16  1  0.40964000  0.75712200  0.56146900  1
  O  O17  1  0.08744400  0.92639400  0.74108400  1
  O  O18  1  0.56146900  0.40964000  0.75712200  1
  O  O19  1  0.38932300  0.18725100  0.98900500  1
  O  O20  1  0.74108400  0.08744400  0.92639400  1
  O  O21  1  0.51801800  0.30344600  0.11124800  1
  O  O22  1  0.11124800  0.51801800  0.30344600  1
  O  O23  1  0.30344600  0.11124800  0.51801800  1
loop_
_geom_bond_atom_site_label_1
_geom_bond_atom_site_label_2
_geom_bond_distance
_geom_bond_site_symmetry_2
Mn0 O13 2.148857 1_554
Mn0 O3 2.148857 1_545
Mn0 O6 2.148857 1_455
Mn0 O10 2.434070 1_445
Mn0 O20 2.434070 1_454
Mn0 O17 2.434070 1_544
Mn1 O9 2.176780 1_555
Mn1 O7 2.176780 1_555
Mn1 O5 2.176780 1_555
Mn1 O14 2.196863 1_555
Mn1 O16 2.196863 1_555
Mn1 O18 2.196863 1_555
Ni0 O22 2.029323 1_555
Ni0 O23 2.029323 1_555
Ni0 O21 2.029323 1_555
Ni0 O5 2.153983 1_555
Ni0 O7 2.153983 1_555
Ni0 O9 2.153983 1_555
Ni1 O8 1.968869 1_455
Ni1 O19 1.968869 1_554
Ni1 O11 1.968869 1_545
Ni1 O6 2.102740 1_455
Ni1 O3 2.102740 1_545
Ni1 O13 2.102740 1_554
Ni2 O1 1.992939 1_555
Ni2 O0 1.992939 1_555
Ni2 O2 1.992939 1_555
Ni2 O18 2.077421 1_555
Ni2 O16 2.077421 1_555
Ni2 O14 2.077421 1_555
O0 P1 1.504063 1_565
O1 P2 1.504063 1_655
O2 P0 1.504063 1_556
O3 P0 1.539175 1_555
O4 P0 1.622872 1_556
O4 W0 1.905132 1_555
O5 P0 1.543539 1_555
O6 P1 1.539175 1_555
O7 P1 1.543539 1_555
O8 P3 1.509835 1_555
O9 P2 1.543539 1_555
O10 P3 1.645799 1_555
O10 W0 1.984264 1_554
O11 P4 1.509836 1_555
O12 P1 1.622872 1_565
O12 W0 1.905132 1_555
O13 P2 1.539175 1_555
O14 P3 1.557034 1_555
O15 P2 1.622872 1_655
O15 W0 1.905132 1_555
O16 P4 1.557034 1_555
O17 P4 1.645799 1_555
O17 W0 1.984264 1_455
O18 P5 1.557034 1_555
O19 P5 1.509835 1_555
O20 P5 1.645799 1_555
O20 W0 1.984264 1_545
O21 P5 1.509366 1_554
O22 P3 1.509366 1_455
O23 P4 1.509366 1_545
