# generated using pymatgen
data_Li3La8Ti9Cr3O36
_symmetry_space_group_name_H-M   'P 1'
_cell_length_a   5.51468000
_cell_length_b   5.51730904
_cell_length_c   23.28630924
_cell_angle_alpha   90.04331049
_cell_angle_beta   90.01280932
_cell_angle_gamma   90.00696816
_symmetry_Int_Tables_number   1
_chemical_formula_structural   Li3La8Ti9Cr3O36
_chemical_formula_sum   'Li3 La8 Ti9 Cr3 O36'
_cell_volume   708.51353279
_cell_formula_units_Z   1
loop_
 _symmetry_equiv_pos_site_id
 _symmetry_equiv_pos_as_xyz
  1  'x, y, z'
loop_
 _atom_site_type_symbol
 _atom_site_label
 _atom_site_symmetry_multiplicity
 _atom_site_fract_x
 _atom_site_fract_y
 _atom_site_fract_z
 _atom_site_occupancy
  Li  Li0  1  0.99544000  0.01989900  0.74755000  1
  Li  Li1  1  0.50512400  0.51206100  0.91232600  1
  Li  Li2  1  0.50408400  0.51960400  0.58325000  1
  La  La0  1  0.00000200  0.00460900  0.08403000  1
  La  La1  1  0.49987300  0.50160800  0.24901300  1
  La  La2  1  0.49758500  0.49612700  0.42315100  1
  La  La3  1  0.50027300  0.49146100  0.08011000  1
  La  La4  1  0.49952200  0.49325300  0.74945000  1
  La  La5  1  0.00080900  0.99359000  0.91435500  1
  La  La6  1  0.00125000  0.98952800  0.58229300  1
  La  La7  1  0.99992800  0.99252300  0.25193700  1
  Ti  Ti0  1  0.50016200  0.00926500  0.83417200  1
  Ti  Ti1  1  0.50012700  0.00968300  0.50297600  1
  Ti  Ti2  1  0.50072200  0.00274100  0.66793300  1
  Ti  Ti3  1  0.49957700  0.99930600  0.33894500  1
  Ti  Ti4  1  0.00025800  0.50349700  0.99516700  1
  Ti  Ti5  1  0.00037400  0.50355300  0.66627600  1
  Ti  Ti6  1  0.99999600  0.50863600  0.83059100  1
  Ti  Ti7  1  0.99931700  0.49699900  0.33974900  1
  Ti  Ti8  1  0.99944500  0.50004400  0.50186100  1
  Cr  Cr0  1  0.49997200  0.99958000  0.16653700  1
  Cr  Cr1  1  0.50029400  0.00216300  0.99711300  1
  Cr  Cr2  1  0.99997500  0.49995200  0.16673800  1
  O  O0  1  0.99994200  0.59569700  0.74989200  1
  O  O1  1  0.00240300  0.56611600  0.41759400  1
  O  O2  1  0.00119200  0.57020000  0.08198500  1
  O  O3  1  0.25222600  0.74127000  0.65144200  1
  O  O4  1  0.24491600  0.74903000  0.98660200  1
  O  O5  1  0.25326500  0.73982700  0.84838700  1
  O  O6  1  0.25463900  0.74099500  0.51539700  1
  O  O7  1  0.24632600  0.75366300  0.18134900  1
  O  O8  1  0.25418700  0.74834300  0.31899900  1
  O  O9  1  0.24595100  0.24231800  0.81746900  1
  O  O10  1  0.25312000  0.24963900  0.48932200  1
  O  O11  1  0.24627100  0.24256400  0.68236600  1
  O  O12  1  0.25335900  0.25327500  0.15199300  1
  O  O13  1  0.26003900  0.26348400  0.34274500  1
  O  O14  1  0.24265400  0.24599600  0.01402800  1
  O  O15  1  0.49952200  0.09333900  0.91376900  1
  O  O16  1  0.49931200  0.08831900  0.58434400  1
  O  O17  1  0.49920300  0.06860500  0.25090500  1
  O  O18  1  0.50079800  0.91870500  0.74928500  1
  O  O19  1  0.49976100  0.92853500  0.41699400  1
  O  O20  1  0.50164300  0.92026600  0.08206500  1
  O  O21  1  0.74550800  0.73985400  0.65123700  1
  O  O22  1  0.75502500  0.74862200  0.98658600  1
  O  O23  1  0.74508600  0.73860200  0.84854700  1
  O  O24  1  0.74579400  0.74890300  0.31908600  1
  O  O25  1  0.74480100  0.74101900  0.51537100  1
  O  O26  1  0.75188500  0.75205000  0.18134400  1
  O  O27  1  0.75471100  0.24083500  0.68255900  1
  O  O28  1  0.75527000  0.24065700  0.81720600  1
  O  O29  1  0.73894400  0.26403200  0.34301400  1
  O  O30  1  0.75787500  0.24606000  0.01417500  1
  O  O31  1  0.74583100  0.25013700  0.48900900  1
  O  O32  1  0.74842100  0.25155800  0.15200400  1
  O  O33  1  0.99838300  0.41937300  0.58418700  1
  O  O34  1  0.99798200  0.42207800  0.91558200  1
  O  O35  1  0.99874600  0.42625300  0.25097100  1
loop_
_geom_bond_atom_site_label_1
_geom_bond_atom_site_label_2
_geom_bond_distance
_geom_bond_site_symmetry_2
Li0 O0 2.341265 1_545
Li0 O27 2.353918 1_555
Li0 O11 2.393737 1_655
Li0 O28 2.422199 1_555
Li0 O9 2.461883 1_655
Li1 O15 2.310691 1_555
Li1 O23 2.349986 1_555
Li1 O5 2.393209 1_555
Li1 O22 2.566726 1_555
Li1 O4 2.599656 1_555
Li2 O16 2.379831 1_555
Li2 O21 2.398211 1_555
Li2 O25 2.399263 1_555
Li2 O6 2.425535 1_555
Li2 O3 2.438203 1_555
La0 O2 2.397216 1_545
La0 O30 2.491250 1_455
La0 O14 2.495067 1_555
La0 O32 2.506965 1_455
La0 O12 2.516808 1_555
La1 O17 2.389453 1_555
La1 O26 2.515463 1_555
La1 O8 2.518517 1_555
La1 O24 2.521623 1_555
La1 O7 2.524769 1_555
La2 O19 2.390170 1_555
La2 O10 2.458642 1_555
La2 O31 2.463881 1_555
La2 O13 2.619961 1_555
La2 O29 2.625188 1_555
La2 O1 2.761003 1_555
La2 O1 2.813536 1_655
La2 O6 2.869104 1_555
La2 O25 2.879181 1_555
La2 O8 3.102313 1_555
La2 O24 3.114014 1_555
La2 O19 3.134777 1_545
La3 O20 2.366264 1_555
La3 O30 2.491380 1_555
La3 O14 2.493155 1_555
La3 O12 2.527230 1_555
La3 O32 2.535778 1_555
La4 O18 2.347366 1_555
La4 O11 2.509800 1_555
La4 O27 2.518811 1_555
La4 O9 2.526822 1_555
La4 O28 2.534486 1_555
La5 O34 2.364305 1_465
La5 O5 2.501289 1_555
La5 O23 2.512288 1_455
La5 O4 2.542841 1_555
La5 O22 2.548922 1_455
La6 O33 2.372019 1_465
La6 O6 2.501544 1_555
La6 O25 2.510736 1_455
La6 O3 2.527320 1_555
La6 O21 2.543224 1_455
La6 O16 2.800537 1_565
La6 O16 2.821655 1_465
La7 O35 2.393155 1_565
La7 O24 2.493892 1_555
La7 O8 2.494469 1_655
La7 O7 2.506620 1_655
La7 O26 2.515729 1_555
Cr0 O26 1.978614 1_555
Cr0 O7 1.979119 1_555
Cr0 O12 1.981023 1_565
Cr0 O32 1.981154 1_565
Cr0 O17 2.000913 1_565
Cr0 O20 2.014829 1_555
Cr1 O14 1.995890 1_556
Cr1 O30 1.996215 1_556
Cr1 O22 1.997593 1_545
Cr1 O4 1.998168 1_545
Cr1 O15 2.005281 1_555
Cr1 O20 2.029512 1_546
Cr2 O32 1.979632 1_555
Cr2 O7 1.979764 1_655
Cr2 O26 1.980416 1_555
Cr2 O12 1.980581 1_655
Cr2 O35 2.003493 1_555
Cr2 O2 2.011582 1_655
O0 Ti6 1.939953 1_555
O0 Ti5 2.012014 1_655
O1 Ti7 1.852191 1_455
O1 Ti8 1.996182 1_455
O2 Ti4 2.054626 1_554
O3 Ti5 1.941381 1_555
O3 Ti2 2.026076 1_565
O4 Ti4 1.922341 1_555
O5 Ti6 1.935984 1_455
O5 Ti0 2.042979 1_565
O6 Ti8 1.961098 1_455
O6 Ti1 2.028386 1_565
O8 Ti3 1.990610 1_555
O8 Ti7 2.032948 1_455
O9 Ti0 1.941876 1_555
O9 Ti6 2.022893 1_455
O10 Ti1 1.926190 1_555
O10 Ti8 1.987721 1_455
O11 Ti2 1.957744 1_555
O11 Ti5 2.013399 1_555
O13 Ti7 1.931989 1_455
O13 Ti3 1.969159 1_545
O14 Ti4 1.999833 1_554
O15 Ti0 1.910346 1_555
O16 Ti1 1.943485 1_555
O16 Ti2 2.003288 1_555
O17 Ti3 2.085760 1_545
O18 Ti2 1.950643 1_565
O18 Ti0 2.038512 1_565
O19 Ti3 1.859232 1_555
O19 Ti1 2.051321 1_565
O21 Ti5 1.949039 1_655
O21 Ti2 2.019166 1_565
O22 Ti4 1.923191 1_655
O23 Ti6 1.939249 1_555
O23 Ti0 2.041437 1_565
O24 Ti3 1.991469 1_555
O24 Ti7 2.029536 1_555
O25 Ti8 1.959248 1_555
O25 Ti1 2.025363 1_565
O27 Ti2 1.949917 1_555
O27 Ti5 2.020086 1_655
O28 Ti0 1.940546 1_555
O28 Ti6 2.025633 1_555
O29 Ti7 1.928572 1_555
O29 Ti3 1.970789 1_545
O30 Ti4 2.000191 1_654
O31 Ti1 1.924106 1_555
O31 Ti8 1.986327 1_555
O33 Ti5 1.966851 1_655
O33 Ti8 1.968396 1_555
O34 Ti4 1.906615 1_655
O34 Ti6 2.036314 1_555
O35 Ti7 2.103550 1_555
