# generated using pymatgen
data_LiFe2(CO3)4
_symmetry_space_group_name_H-M   'P 1'
_cell_length_a   6.97702413
_cell_length_b   7.67953511
_cell_length_c   10.00927917
_cell_angle_alpha   88.55774628
_cell_angle_beta   72.39686779
_cell_angle_gamma   91.21208450
_symmetry_Int_Tables_number   1
_chemical_formula_structural   LiFe2(CO3)4
_chemical_formula_sum   'Li2 Fe4 C8 O24'
_cell_volume   510.79263292
_cell_formula_units_Z   2
loop_
 _symmetry_equiv_pos_site_id
 _symmetry_equiv_pos_as_xyz
  1  'x, y, z'
loop_
 _atom_site_type_symbol
 _atom_site_label
 _atom_site_symmetry_multiplicity
 _atom_site_fract_x
 _atom_site_fract_y
 _atom_site_fract_z
 _atom_site_occupancy
  Li  Li0  1  0.50356200  0.56349800  0.30541800  1
  Li  Li1  1  0.00182400  0.56424400  0.80483300  1
  Fe  Fe0  1  0.50081400  0.99845300  0.50429700  1
  Fe  Fe1  1  0.49689200  0.50152100  0.98733000  1
  Fe  Fe2  1  0.00054900  0.99852100  0.00433000  1
  Fe  Fe3  1  0.99717200  0.50154800  0.48703100  1
  C  C0  1  0.69650500  0.26685400  0.43785300  1
  C  C1  1  0.19648400  0.26692100  0.93780700  1
  C  C2  1  0.30822700  0.76208800  0.05591200  1
  C  C3  1  0.80837100  0.76207200  0.55606400  1
  C  C4  1  0.20334900  0.24470600  0.44217200  1
  C  C5  1  0.70306300  0.24473000  0.94232500  1
  C  C6  1  0.79347100  0.72895300  0.06918900  1
  C  C7  1  0.29375300  0.72892700  0.56910800  1
  O  O0  1  0.72360100  0.13704700  0.35527800  1
  O  O1  1  0.22327200  0.13706400  0.85529100  1
  O  O2  1  0.79231200  0.41504800  0.39961000  1
  O  O3  1  0.29252900  0.41489200  0.89955800  1
  O  O4  1  0.95050100  0.74641300  0.43709100  1
  O  O5  1  0.45057400  0.74640000  0.93711000  1
  O  O6  1  0.06109500  0.24244800  0.05924200  1
  O  O7  1  0.56115700  0.24241100  0.55928300  1
  O  O8  1  0.20516800  0.89720300  0.08628200  1
  O  O9  1  0.70511700  0.89701000  0.58651800  1
  O  O10  1  0.28208500  0.62597800  0.14064000  1
  O  O11  1  0.78272700  0.62593500  0.64080000  1
  O  O12  1  0.25667000  0.38813000  0.36370200  1
  O  O13  1  0.75627500  0.38813500  0.86383200  1
  O  O14  1  0.30049100  0.10603600  0.41865900  1
  O  O15  1  0.80023300  0.10605600  0.91871000  1
  O  O16  1  0.43166900  0.74568000  0.44664000  1
  O  O17  1  0.93121300  0.74578500  0.94666200  1
  O  O18  1  0.53689800  0.25752000  0.04509200  1
  O  O19  1  0.03698800  0.25754200  0.54486100  1
  O  O20  1  0.67827900  0.59133200  0.10713800  1
  O  O21  1  0.17856800  0.59130300  0.60703200  1
  O  O22  1  0.77889400  0.85866200  0.15056900  1
  O  O23  1  0.27897900  0.85873900  0.65043800  1
loop_
_geom_bond_atom_site_label_1
_geom_bond_atom_site_label_2
_geom_bond_distance
_geom_bond_site_symmetry_2
Li0 O16 1.976731 1_555
Li0 O20 1.993687 1_555
Li0 O12 2.091840 1_555
Li1 O17 1.976694 1_455
Li1 O21 1.993835 1_555
Li1 O13 2.088713 1_455
Fe0 O9 2.010041 1_555
Fe0 O14 2.026971 1_565
Fe0 O7 2.036858 1_565
Fe0 O23 2.041515 1_555
Fe0 O0 2.054630 1_565
Fe0 O16 2.125825 1_555
Fe1 O5 1.992481 1_555
Fe1 O18 1.997136 1_556
Fe1 O3 1.998598 1_555
Fe1 O10 2.063445 1_556
Fe1 O13 2.080648 1_555
Fe1 O20 2.106653 1_556
Fe2 O8 2.009867 1_555
Fe2 O15 2.026667 1_464
Fe2 O6 2.036756 1_565
Fe2 O22 2.041862 1_455
Fe2 O1 2.054302 1_564
Fe2 O17 2.125991 1_454
Fe3 O4 1.992240 1_555
Fe3 O19 1.997055 1_655
Fe3 O2 1.998855 1_555
Fe3 O11 2.064356 1_555
Fe3 O12 2.080743 1_655
Fe3 O21 2.108026 1_655
C0 O0 1.291330 1_555
C0 O2 1.296015 1_555
C0 O7 1.300404 1_555
C1 O1 1.291338 1_555
C1 O3 1.295228 1_555
C1 O6 1.300590 1_556
C2 O8 1.265435 1_555
C2 O10 1.303383 1_555
C2 O5 1.308759 1_554
C3 O9 1.265069 1_555
C3 O11 1.303854 1_555
C3 O4 1.309163 1_555
C4 O14 1.263123 1_555
C4 O19 1.304516 1_555
C4 O12 1.315610 1_555
C5 O15 1.263293 1_555
C5 O18 1.303990 1_556
C5 O13 1.315539 1_555
C6 O22 1.288833 1_555
C6 O20 1.290885 1_555
C6 O17 1.310819 1_554
C7 O23 1.289014 1_555
C7 O21 1.290857 1_555
C7 O16 1.310908 1_555
