# generated using pymatgen
data_V2SiO4
_symmetry_space_group_name_H-M   'P 1'
_cell_length_a   4.80626165
_cell_length_b   10.48884434
_cell_length_c   6.16002550
_cell_angle_alpha   90.00461350
_cell_angle_beta   89.99998170
_cell_angle_gamma   90.00000861
_symmetry_Int_Tables_number   1
_chemical_formula_structural   V2SiO4
_chemical_formula_sum   'V8 Si4 O16'
_cell_volume   310.54000707
_cell_formula_units_Z   4
loop_
 _symmetry_equiv_pos_site_id
 _symmetry_equiv_pos_as_xyz
  1  'x, y, z'
loop_
 _atom_site_type_symbol
 _atom_site_label
 _atom_site_symmetry_multiplicity
 _atom_site_fract_x
 _atom_site_fract_y
 _atom_site_fract_z
 _atom_site_occupancy
  V  V0  1  -0.00000085  0.00000019  0.49999952  1
  V  V1  1  0.49999954  0.49999965  0.50000049  1
  V  V2  1  -0.00000045  0.00000051  -0.00000071  1
  V  V3  1  0.50000044  0.49999924  0.00000107  1
  V  V4  1  0.00599579  0.72532759  0.74997715  1
  V  V5  1  0.49400044  0.22532690  0.74997649  1
  V  V6  1  0.50599624  0.77467212  0.25002346  1
  V  V7  1  0.99400019  0.27467318  0.25002320  1
  Si  Si0  1  0.07143536  0.59578935  0.25001812  1
  Si  Si1  1  0.42857165  0.09578936  0.25001662  1
  Si  Si2  1  0.57143230  0.90421005  0.74998278  1
  Si  Si3  1  0.92856536  0.40421027  0.74998417  1
  O  O0  1  0.20957329  0.45099570  0.24998528  1
  O  O1  1  0.29042515  0.95099323  0.24998438  1
  O  O2  1  0.70957303  0.04900476  0.75001487  1
  O  O3  1  0.79042456  0.54900622  0.75001582  1
  O  O4  1  0.26549594  0.40523717  0.75000274  1
  O  O5  1  0.23450849  0.90523769  0.75000042  1
  O  O6  1  0.76549347  0.09476279  0.24999708  1
  O  O7  1  0.73450927  0.59476231  0.24999997  1
  O  O8  1  0.22073656  0.66232369  0.03749325  1
  O  O9  1  0.22085061  0.66234051  0.46243838  1
  O  O10  1  0.27926240  0.16232435  0.03748773  1
  O  O11  1  0.27914952  0.16234118  0.46244207  1
  O  O12  1  0.72073642  0.83767613  0.96250803  1
  O  O13  1  0.72085079  0.83765808  0.53756121  1
  O  O14  1  0.77926283  0.33767575  0.96251083  1
  O  O15  1  0.77914966  0.33765902  0.53755857  1
loop_
_geom_bond_atom_site_label_1
_geom_bond_atom_site_label_2
_geom_bond_distance
_geom_bond_site_symmetry_2
O0 Si0 1.657499 1_555
O0 V7 2.119872 1_455
O0 V3 2.141047 1_555
O0 V1 2.141124 1_555
O1 Si1 1.657539 1_565
O1 V6 2.119854 1_555
O1 V2 2.141056 1_565
O1 V0 2.141130 1_565
O2 Si2 1.657515 1_545
O2 V5 2.119867 1_555
O2 V2 2.141048 1_656
O2 V0 2.141125 1_655
O3 Si3 1.657527 1_555
O3 V4 2.119857 1_655
O3 V3 2.141051 1_556
O3 V1 2.141127 1_555
O4 Si3 1.619412 1_455
O4 V3 2.151651 1_556
O4 V1 2.151782 1_555
O4 V5 2.183373 1_555
O5 Si2 1.619380 1_555
O5 V2 2.151667 1_566
O5 V0 2.151791 1_565
O5 V4 2.183391 1_555
O6 Si1 1.619370 1_555
O6 V2 2.151653 1_655
O6 V0 2.151789 1_655
O6 V7 2.183380 1_555
O7 Si0 1.619391 1_655
O7 V3 2.151669 1_555
O7 V1 2.151790 1_555
O7 V6 2.183390 1_555
O8 Si0 1.648025 1_555
O8 V4 2.153821 1_554
O8 V3 2.180287 1_555
O8 V6 2.232063 1_555
O9 Si0 1.647737 1_555
O9 V4 2.154057 1_555
O9 V1 2.180156 1_555
O9 V6 2.231327 1_555
O10 Si1 1.648064 1_555
O10 V5 2.153785 1_554
O10 V2 2.180276 1_555
O10 V7 2.232091 1_455
O11 Si1 1.647780 1_555
O11 V5 2.154022 1_555
O11 V0 2.180158 1_555
O11 V7 2.231355 1_455
O12 Si2 1.648031 1_555
O12 V6 2.153816 1_556
O12 V2 2.180283 1_666
O12 V4 2.232065 1_655
O13 Si2 1.647754 1_555
O13 V6 2.154048 1_555
O13 V0 2.180164 1_665
O13 V4 2.231323 1_655
O14 Si3 1.648037 1_555
O14 V7 2.153790 1_556
O14 V3 2.180273 1_556
O14 V5 2.232088 1_555
O15 Si3 1.647765 1_555
O15 V7 2.154026 1_555
O15 V1 2.180155 1_555
O15 V5 2.231351 1_555
