# generated using pymatgen
data_VCr3(PO4)6
_symmetry_space_group_name_H-M   'P 1'
_cell_length_a   8.76962937
_cell_length_b   8.76962937
_cell_length_c   8.76962874
_cell_angle_alpha   58.36243938
_cell_angle_beta   58.36243938
_cell_angle_gamma   58.36244004
_symmetry_Int_Tables_number   1
_chemical_formula_structural   VCr3(PO4)6
_chemical_formula_sum   'V1 Cr3 P6 O24'
_cell_volume   459.02276223
_cell_formula_units_Z   1
loop_
 _symmetry_equiv_pos_site_id
 _symmetry_equiv_pos_as_xyz
  1  'x, y, z'
loop_
 _atom_site_type_symbol
 _atom_site_label
 _atom_site_symmetry_multiplicity
 _atom_site_fract_x
 _atom_site_fract_y
 _atom_site_fract_z
 _atom_site_occupancy
  V  V0  1  0.14071300  0.14071300  0.14071300  1
  Cr  Cr0  1  0.85712300  0.85712300  0.85712300  1
  Cr  Cr1  1  0.64242000  0.64242000  0.64242000  1
  Cr  Cr2  1  0.35739100  0.35739100  0.35739100  1
  P  P0  1  0.53379900  0.96615900  0.24978300  1
  P  P1  1  0.24978300  0.53379900  0.96615900  1
  P  P2  1  0.96615900  0.24978300  0.53379900  1
  P  P3  1  0.03369200  0.74821200  0.46737800  1
  P  P4  1  0.74821200  0.46737800  0.03369200  1
  P  P5  1  0.46737800  0.03369200  0.74821200  1
  O  O0  1  0.48860500  0.86126600  0.72573800  1
  O  O1  1  0.86126600  0.72573800  0.48860500  1
  O  O2  1  0.71763200  0.93724700  0.07711200  1
  O  O3  1  0.72573800  0.48860500  0.86126600  1
  O  O4  1  0.55811500  0.78331000  0.42373600  1
  O  O5  1  0.35898400  0.99875600  0.21837200  1
  O  O6  1  0.07711200  0.71763200  0.93724700  1
  O  O7  1  0.42373600  0.55811500  0.78331000  1
  O  O8  1  0.78331000  0.42373600  0.55811500  1
  O  O9  1  0.00785600  0.77963800  0.63668700  1
  O  O10  1  0.06401300  0.92710400  0.28375400  1
  O  O11  1  0.77963800  0.63668700  0.00785600  1
  O  O12  1  0.21837200  0.35898400  0.99875600  1
  O  O13  1  0.93724700  0.07711200  0.71763200  1
  O  O14  1  0.99875600  0.21837200  0.35898400  1
  O  O15  1  0.21710400  0.57749800  0.43647100  1
  O  O16  1  0.57749800  0.43647100  0.21710400  1
  O  O17  1  0.92710400  0.28375400  0.06401300  1
  O  O18  1  0.63668700  0.00785600  0.77963800  1
  O  O19  1  0.43647100  0.21710400  0.57749800  1
  O  O20  1  0.27926500  0.50824800  0.13681800  1
  O  O21  1  0.28375400  0.06401300  0.92710400  1
  O  O22  1  0.13681800  0.27926500  0.50824800  1
  O  O23  1  0.50824800  0.13681800  0.27926500  1
loop_
_geom_bond_atom_site_label_1
_geom_bond_atom_site_label_2
_geom_bond_distance
_geom_bond_site_symmetry_2
Cr0 O9 1.923818 1_655
Cr0 O18 1.923818 1_565
Cr0 O11 1.923818 1_556
Cr0 O2 1.938194 1_556
Cr0 O6 1.938194 1_655
Cr0 O13 1.938194 1_565
Cr1 O3 1.938555 1_555
Cr1 O0 1.938555 1_555
Cr1 O1 1.938555 1_555
Cr1 O4 1.947915 1_555
Cr1 O8 1.947915 1_555
Cr1 O7 1.947915 1_555
Cr2 O20 1.927714 1_555
Cr2 O23 1.927715 1_555
Cr2 O22 1.927715 1_555
Cr2 O19 1.933485 1_555
Cr2 O15 1.933485 1_555
Cr2 O16 1.933485 1_555
O0 P5 1.529326 1_565
O1 P3 1.529326 1_655
O2 P0 1.539223 1_555
O3 P4 1.529326 1_556
O4 P0 1.536294 1_555
O5 P0 1.551948 1_555
O5 V0 1.912025 1_565
O6 P1 1.539223 1_555
O7 P1 1.536294 1_555
O8 P2 1.536294 1_555
O9 P3 1.530589 1_555
O10 P3 1.569435 1_555
O10 V0 1.872597 1_565
O11 P4 1.530589 1_555
O12 P1 1.551948 1_555
O12 V0 1.912025 1_556
O13 P2 1.539223 1_555
O14 P2 1.551947 1_555
O14 V0 1.912025 1_655
O15 P3 1.531016 1_555
O16 P4 1.531016 1_555
O17 P4 1.569435 1_555
O17 V0 1.872597 1_655
O18 P5 1.530589 1_555
O19 P5 1.531016 1_555
O20 P1 1.533057 1_554
O21 P5 1.569435 1_555
O21 V0 1.872597 1_556
O22 P2 1.533057 1_455
O23 P0 1.533057 1_545
