# generated using pymatgen
data_CaH2I2O7
_symmetry_space_group_name_H-M   'P 1'
_cell_length_a   10.16259500
_cell_length_b   7.62754900
_cell_length_c   8.60601108
_cell_angle_alpha   84.92579549
_cell_angle_beta   90.00000000
_cell_angle_gamma   90.00000000
_symmetry_Int_Tables_number   1
_chemical_formula_structural   CaH2I2O7
_chemical_formula_sum   'Ca4 H8 I8 O28'
_cell_volume   664.48652053
_cell_formula_units_Z   4
loop_
 _symmetry_equiv_pos_site_id
 _symmetry_equiv_pos_as_xyz
  1  'x, y, z'
loop_
 _atom_site_type_symbol
 _atom_site_label
 _atom_site_symmetry_multiplicity
 _atom_site_fract_x
 _atom_site_fract_y
 _atom_site_fract_z
 _atom_site_occupancy
  Ca  Ca0  1  0.00806000  0.16355300  0.78734200  1
  Ca  Ca1  1  0.50806000  0.33644700  0.21265800  1
  Ca  Ca2  1  0.99194000  0.83644700  0.21265800  1
  Ca  Ca3  1  0.49194000  0.66355300  0.78734200  1
  H  H0  1  0.00523800  0.81871900  0.63108200  1
  H  H1  1  0.50523800  0.68128100  0.36891800  1
  H  H2  1  0.99476200  0.18128100  0.36891800  1
  H  H3  1  0.49476200  0.31871900  0.63108200  1
  H  H4  1  0.09800900  0.77922200  0.77871100  1
  H  H5  1  0.59800900  0.72077800  0.22128900  1
  H  H6  1  0.90199100  0.22077800  0.22128900  1
  H  H7  1  0.40199100  0.27922200  0.77871100  1
  I  I0  1  0.69008100  0.04325900  0.97197500  1
  I  I1  1  0.19008100  0.45674100  0.02802500  1
  I  I2  1  0.30991900  0.95674100  0.02802500  1
  I  I3  1  0.80991900  0.54325900  0.97197500  1
  I  I4  1  0.18649600  0.44566200  0.48520600  1
  I  I5  1  0.68649600  0.05433800  0.51479400  1
  I  I6  1  0.81350400  0.55433800  0.51479400  1
  I  I7  1  0.31350400  0.94566200  0.48520600  1
  O  O0  1  0.85965200  0.95786000  0.97812900  1
  O  O1  1  0.35965200  0.54214000  0.02187100  1
  O  O2  1  0.14034800  0.04214000  0.02187100  1
  O  O3  1  0.64034800  0.45786000  0.97812900  1
  O  O4  1  0.66985900  0.10402300  0.16986400  1
  O  O5  1  0.16985900  0.39597700  0.83013600  1
  O  O6  1  0.33014100  0.89597700  0.83013600  1
  O  O7  1  0.83014100  0.60402300  0.16986400  1
  O  O8  1  0.60226700  0.83105700  0.99150600  1
  O  O9  1  0.10226700  0.66894300  0.00849400  1
  O  O10  1  0.39773300  0.16894300  0.00849400  1
  O  O11  1  0.89773300  0.33105700  0.99150600  1
  O  O12  1  0.81334500  0.11476500  0.64980300  1
  O  O13  1  0.31334500  0.38523500  0.35019700  1
  O  O14  1  0.18665500  0.88523500  0.35019700  1
  O  O15  1  0.68665500  0.61476500  0.64980300  1
  O  O16  1  0.93676600  0.48033700  0.66145500  1
  O  O17  1  0.43676600  0.01966300  0.33854500  1
  O  O18  1  0.06323400  0.51966300  0.33854500  1
  O  O19  1  0.56323400  0.98033700  0.66145500  1
  O  O20  1  0.12216000  0.22265100  0.53868800  1
  O  O21  1  0.62216000  0.27734900  0.46131200  1
  O  O22  1  0.87784000  0.77734900  0.46131200  1
  O  O23  1  0.37784000  0.72265100  0.53868800  1
  O  O24  1  0.07193900  0.87025100  0.69629600  1
  O  O25  1  0.57193900  0.62974900  0.30370400  1
  O  O26  1  0.92806100  0.12974900  0.30370400  1
  O  O27  1  0.42806100  0.37025100  0.69629600  1
loop_
_geom_bond_atom_site_label_1
_geom_bond_atom_site_label_2
_geom_bond_distance
_geom_bond_site_symmetry_2
Ca0 O12 2.352264 1_455
Ca0 O20 2.440569 1_555
Ca0 O5 2.469363 1_555
Ca0 O24 2.520000 1_545
Ca0 O11 2.524632 1_455
Ca0 O2 2.531432 1_556
Ca0 O0 2.641298 1_445
Ca0 O16 2.659707 1_455
Ca1 O13 2.352264 1_555
Ca1 O21 2.440569 1_555
Ca1 O4 2.469363 1_555
Ca1 O25 2.520000 1_555
Ca1 O10 2.524632 1_555
Ca1 O3 2.531432 1_554
Ca1 O1 2.641298 1_555
Ca1 O17 2.659707 1_555
Ca2 O14 2.352264 1_655
Ca2 O22 2.440569 1_555
Ca2 O7 2.469363 1_555
Ca2 O26 2.520000 1_565
Ca2 O9 2.524632 1_655
Ca2 O0 2.531432 1_554
Ca2 O2 2.641298 1_665
Ca2 O18 2.659707 1_655
Ca3 O15 2.352264 1_555
Ca3 O23 2.440569 1_555
Ca3 O6 2.469363 1_555
Ca3 O27 2.520000 1_555
Ca3 O8 2.524632 1_555
Ca3 O1 2.531432 1_556
Ca3 O3 2.641298 1_555
Ca3 O19 2.659707 1_555
H0 O24 0.983865 1_555
H1 O25 0.983865 1_555
H2 O26 0.983865 1_555
H3 O27 0.983865 1_555
H4 O24 0.983986 1_555
H5 O25 0.983986 1_555
H6 O26 0.983986 1_555
H7 O27 0.983986 1_555
I0 O4 1.815764 1_556
I0 O0 1.841386 1_545
I0 O8 1.842917 1_545
I1 O5 1.815764 1_554
I1 O1 1.841386 1_555
I1 O9 1.842917 1_555
I2 O6 1.815764 1_554
I2 O2 1.841386 1_565
I2 O10 1.842917 1_565
I3 O7 1.815764 1_556
I3 O3 1.841386 1_555
I3 O11 1.842917 1_555
I4 O13 1.821804 1_555
I4 O18 1.831612 1_555
I4 O20 1.842370 1_555
I5 O12 1.821804 1_555
I5 O19 1.831612 1_545
I5 O21 1.842370 1_555
I6 O15 1.821804 1_555
I6 O16 1.831612 1_555
I6 O22 1.842370 1_555
I7 O14 1.821804 1_555
I7 O17 1.831612 1_565
I7 O23 1.842370 1_555
