# generated using pymatgen
data_Mg7Cu2O9
_symmetry_space_group_name_H-M   'P 1'
_cell_length_a   7.95303484
_cell_length_b   7.95303484
_cell_length_c   7.35498387
_cell_angle_alpha   89.90326328
_cell_angle_beta   89.90326328
_cell_angle_gamma   21.84178142
_symmetry_Int_Tables_number   1
_chemical_formula_structural   Mg7Cu2O9
_chemical_formula_sum   'Mg7 Cu2 O9'
_cell_volume   173.07809385
_cell_formula_units_Z   1
loop_
 _symmetry_equiv_pos_site_id
 _symmetry_equiv_pos_as_xyz
  1  'x, y, z'
loop_
 _atom_site_type_symbol
 _atom_site_label
 _atom_site_symmetry_multiplicity
 _atom_site_fract_x
 _atom_site_fract_y
 _atom_site_fract_z
 _atom_site_occupancy
  Mg  Mg0  1  0.27636600  0.27636600  0.66904700  1
  Mg  Mg1  1  0.72363400  0.72363400  0.33095300  1
  Mg  Mg2  1  0.94469900  0.94469900  0.66583800  1
  Mg  Mg3  1  0.16588500  0.16588500  0.99706100  1
  Mg  Mg4  1  0.05530100  0.05530100  0.33416200  1
  Mg  Mg5  1  0.50000000  0.50000000  0.00000000  1
  Mg  Mg6  1  0.83411500  0.83411500  0.00293900  1
  Cu  Cu0  1  0.61130200  0.61130200  0.66588000  1
  Cu  Cu1  1  0.38869800  0.38869800  0.33412000  1
  O  O0  1  0.72393000  0.72393000  0.83587500  1
  O  O1  1  0.16801300  0.16801300  0.49631700  1
  O  O2  1  0.05395800  0.05395800  0.83674400  1
  O  O3  1  0.27607000  0.27607000  0.16412500  1
  O  O4  1  0.38931900  0.38931900  0.83352500  1
  O  O5  1  0.50000000  0.50000000  0.50000000  1
  O  O6  1  0.61068100  0.61068100  0.16647500  1
  O  O7  1  0.83198700  0.83198700  0.50368300  1
  O  O8  1  0.94604200  0.94604200  0.16325600  1
loop_
_geom_bond_atom_site_label_1
_geom_bond_atom_site_label_2
_geom_bond_distance
_geom_bond_site_symmetry_2
Mg0 O0 2.107848 1_545
Mg0 O0 2.107848 1_455
Mg0 O1 2.117809 1_555
Mg0 O7 2.121435 1_545
Mg0 O7 2.121435 1_455
Mg0 O4 2.140758 1_555
Mg1 O3 2.107848 1_655
Mg1 O3 2.107848 1_565
Mg1 O7 2.117809 1_555
Mg1 O1 2.121435 1_655
Mg1 O1 2.121435 1_565
Mg1 O6 2.140758 1_555
Mg2 O2 2.121151 1_665
Mg2 O5 2.121398 1_565
Mg2 O5 2.121398 1_655
Mg2 O7 2.128007 1_555
Mg2 O4 2.129737 1_655
Mg2 O4 2.129737 1_565
Mg3 O2 2.110262 1_555
Mg3 O3 2.116247 1_556
Mg3 O0 2.119865 1_455
Mg3 O0 2.119865 1_545
Mg3 O6 2.136000 1_456
Mg3 O6 2.136000 1_546
Mg4 O8 2.121151 1_445
Mg4 O5 2.121398 1_545
Mg4 O5 2.121398 1_455
Mg4 O1 2.128007 1_555
Mg4 O6 2.129737 1_455
Mg4 O6 2.129737 1_545
Mg5 O2 2.102074 1_654
Mg5 O8 2.102074 1_455
Mg5 O2 2.102074 1_564
Mg5 O8 2.102074 1_545
Mg5 O4 2.120047 1_554
Mg5 O6 2.120047 1_555
Mg6 O8 2.110262 1_555
Mg6 O0 2.116247 1_554
Mg6 O3 2.119865 1_565
Mg6 O3 2.119865 1_655
Mg6 O4 2.136000 1_564
Mg6 O4 2.136000 1_654
Cu0 O5 2.125451 1_555
Cu0 O1 2.146221 1_655
Cu0 O1 2.146221 1_565
Cu0 O2 2.155867 1_565
Cu0 O2 2.155867 1_655
Cu0 O0 2.159863 1_555
Cu1 O5 2.125451 1_555
Cu1 O7 2.146221 1_455
Cu1 O7 2.146221 1_545
Cu1 O8 2.155867 1_455
Cu1 O8 2.155867 1_545
Cu1 O3 2.159863 1_555
