# generated using pymatgen
data_Na3Li3Mn2P2(CO7)2
_symmetry_space_group_name_H-M   'P 1'
_cell_length_a   6.77261400
_cell_length_b   8.77430373
_cell_length_c   10.18378461
_cell_angle_alpha   90.92413977
_cell_angle_beta   90.20390998
_cell_angle_gamma   91.16499754
_symmetry_Int_Tables_number   1
_chemical_formula_structural   Na3Li3Mn2P2(CO7)2
_chemical_formula_sum   'Na6 Li6 Mn4 P4 C4 O28'
_cell_volume   604.96275027
_cell_formula_units_Z   2
loop_
 _symmetry_equiv_pos_site_id
 _symmetry_equiv_pos_as_xyz
  1  'x, y, z'
loop_
 _atom_site_type_symbol
 _atom_site_label
 _atom_site_symmetry_multiplicity
 _atom_site_fract_x
 _atom_site_fract_y
 _atom_site_fract_z
 _atom_site_occupancy
  Na  Na0  1  0.24048000  0.91733500  0.87722400  1
  Na  Na1  1  0.50125900  0.74616500  0.62394000  1
  Na  Na2  1  0.99783500  0.74621000  0.12637400  1
  Na  Na3  1  0.50132900  0.74443300  0.12496100  1
  Na  Na4  1  0.50081400  0.25368000  0.87532700  1
  Na  Na5  1  0.49956200  0.25380300  0.37597500  1
  Li  Li0  1  0.23472500  0.91588500  0.37532000  1
  Li  Li1  1  0.02488000  0.72653900  0.61291600  1
  Li  Li2  1  0.97490900  0.27310200  0.88780600  1
  Li  Li3  1  0.98330500  0.26831700  0.38329500  1
  Li  Li4  1  0.77379800  0.08798400  0.62655200  1
  Li  Li5  1  0.76326400  0.09237300  0.12750600  1
  Mn  Mn0  1  0.75037100  0.63818200  0.88442400  1
  Mn  Mn1  1  0.75384500  0.64130000  0.38976900  1
  Mn  Mn2  1  0.24548600  0.35319600  0.61216500  1
  Mn  Mn3  1  0.24383300  0.35752700  0.11143100  1
  P  P0  1  0.23915900  0.58488500  0.84985700  1
  P  P1  1  0.24646900  0.59113600  0.35512200  1
  P  P2  1  0.75886300  0.40572300  0.64523800  1
  P  P3  1  0.75217300  0.40359900  0.14611700  1
  C  C0  1  0.76088100  0.95523900  0.86573800  1
  C  C1  1  0.76057300  0.95578000  0.36706200  1
  C  C2  1  0.23881700  0.04344100  0.62671700  1
  C  C3  1  0.24628600  0.05983900  0.14296000  1
  O  O0  1  0.22255700  0.89875600  0.64746100  1
  O  O1  1  0.25533400  0.91479300  0.16492800  1
  O  O2  1  0.75378100  0.91695800  0.98919300  1
  O  O3  1  0.75222600  0.91588200  0.48940100  1
  O  O4  1  0.75158200  0.85036500  0.77382700  1
  O  O5  1  0.75428600  0.85106000  0.27402200  1
  O  O6  1  0.06492200  0.68166600  0.90003800  1
  O  O7  1  0.43261100  0.67235400  0.89018300  1
  O  O8  1  0.07370000  0.69512000  0.40017900  1
  O  O9  1  0.43891200  0.67880900  0.39627600  1
  O  O10  1  0.22836200  0.57311700  0.69649800  1
  O  O11  1  0.77083100  0.57089200  0.59045400  1
  O  O12  1  0.24179700  0.57263800  0.20240200  1
  O  O13  1  0.74680100  0.56453900  0.08517700  1
  O  O14  1  0.23181500  0.42023800  0.90501000  1
  O  O15  1  0.77517100  0.41990400  0.79832300  1
  O  O16  1  0.23116400  0.42911300  0.41380800  1
  O  O17  1  0.77489700  0.42459200  0.29844100  1
  O  O18  1  0.56323300  0.32062000  0.60820200  1
  O  O19  1  0.92662800  0.30312100  0.59189300  1
  O  O20  1  0.56240400  0.30767300  0.11425300  1
  O  O21  1  0.92479400  0.30666900  0.09194400  1
  O  O22  1  0.24604900  0.13963600  0.72604100  1
  O  O23  1  0.23404200  0.15473000  0.24136200  1
  O  O24  1  0.24857000  0.09451100  0.50735800  1
  O  O25  1  0.24893000  0.11203100  0.02381800  1
  O  O26  1  0.77661800  0.09702700  0.83205200  1
  O  O27  1  0.77506500  0.09751300  0.33366200  1
loop_
_geom_bond_atom_site_label_1
_geom_bond_atom_site_label_2
_geom_bond_distance
_geom_bond_site_symmetry_2
Na0 O25 2.250219 1_566
Na0 O0 2.345444 1_555
Na0 O6 2.379303 1_555
Na0 O22 2.504141 1_565
Na0 O7 2.540234 1_555
Na1 O0 2.347003 1_555
Na1 O9 2.416944 1_555
Na1 O4 2.431785 1_555
Na1 O11 2.432348 1_555
Na1 O10 2.489819 1_555
Na1 O3 2.638795 1_555
Na1 O7 2.835568 1_555
Na2 O1 2.292381 1_655
Na2 O13 2.338942 1_555
Na2 O12 2.404191 1_655
Na2 O6 2.411598 1_654
Na2 O5 2.421301 1_555
Na2 O2 2.660838 1_554
Na2 O8 2.877404 1_655
Na3 O1 2.293944 1_555
Na3 O13 2.347418 1_555
Na3 O12 2.433963 1_555
Na3 O5 2.446453 1_555
Na3 O7 2.502889 1_554
Na3 O2 2.665632 1_554
Na3 O9 2.862556 1_555
Na4 O14 2.375740 1_555
Na4 O26 2.379780 1_555
Na4 O15 2.476254 1_555
Na4 O22 2.480273 1_555
Na4 O20 2.503260 1_556
Na4 O25 2.595071 1_556
Na4 O18 2.823754 1_555
Na5 O27 2.374540 1_555
Na5 O23 2.397741 1_555
Na5 O16 2.432772 1_555
Na5 O18 2.461786 1_555
Na5 O17 2.506269 1_555
Na5 O24 2.571604 1_555
Na5 O20 2.747549 1_555
Li0 O24 2.049024 1_565
Li0 O1 2.147504 1_555
Li0 O8 2.222047 1_555
Li0 O23 2.519044 1_565
Li0 O9 2.532633 1_555
Li1 O0 2.024039 1_555
Li1 O10 2.130706 1_555
Li1 O11 2.183895 1_455
Li1 O8 2.206455 1_555
Li2 O26 2.096337 1_555
Li2 O15 2.102251 1_555
Li2 O21 2.124405 1_556
Li2 O14 2.150337 1_655
Li3 O27 2.091677 1_555
Li3 O17 2.174261 1_555
Li3 O19 2.177835 1_555
Li3 O16 2.188798 1_655
Li3 O23 2.450724 1_655
Li4 O3 2.043044 1_545
Li4 O26 2.092997 1_555
Li4 O19 2.168846 1_555
Li4 O18 2.522690 1_555
Li4 O4 2.590133 1_545
Li5 O2 2.069422 1_544
Li5 O27 2.100407 1_555
Li5 O21 2.191943 1_555
Li5 O20 2.355611 1_555
Mn0 O15 2.103602 1_555
Mn0 O13 2.154094 1_556
Mn0 O6 2.161424 1_655
Mn0 O7 2.179747 1_555
Mn0 O4 2.191310 1_555
Mn1 O17 2.110883 1_555
Mn1 O11 2.147947 1_555
Mn1 O9 2.165849 1_555
Mn1 O5 2.201513 1_555
Mn1 O8 2.209537 1_655
Mn1 O3 2.599319 1_555
Mn2 O10 2.104983 1_555
Mn2 O16 2.139687 1_555
Mn2 O18 2.177061 1_555
Mn2 O19 2.203279 1_455
Mn2 O22 2.219578 1_555
Mn2 O24 2.493086 1_555
Mn3 O12 2.089419 1_555
Mn3 O14 2.183193 1_554
Mn3 O21 2.205027 1_455
Mn3 O20 2.210334 1_555
Mn3 O23 2.234564 1_555
Mn3 O25 2.319154 1_555
C0 O26 1.298245 1_565
C0 O4 1.302408 1_555
C0 O2 1.307356 1_555
C1 O27 1.296460 1_565
C1 O3 1.300660 1_555
C1 O5 1.309154 1_555
C2 O0 1.292881 1_545
C2 O24 1.303688 1_555
C2 O22 1.307041 1_555
C3 O23 1.296458 1_555
C3 O1 1.298372 1_545
C3 O25 1.303809 1_555
O6 P0 1.551066 1_555
O7 P0 1.555426 1_555
O8 P1 1.563922 1_555
O9 P1 1.552761 1_555
O10 P0 1.564873 1_555
O11 P2 1.561974 1_555
O12 P1 1.561250 1_555
O13 P3 1.552673 1_555
O14 P0 1.558347 1_555
O15 P2 1.565271 1_555
O16 P1 1.552687 1_555
O17 P3 1.565846 1_555
O18 P2 1.549969 1_555
O19 P2 1.557811 1_555
O20 P3 1.552348 1_555
O21 P3 1.557038 1_555
