# generated using pymatgen
data_Li2VFe(P2O7)2
_symmetry_space_group_name_H-M   'P 1'
_cell_length_a   7.04562700
_cell_length_b   8.26788187
_cell_length_c   14.09003921
_cell_angle_alpha   90.02866087
_cell_angle_beta   99.56807153
_cell_angle_gamma   90.14606906
_symmetry_Int_Tables_number   1
_chemical_formula_structural   Li2VFe(P2O7)2
_chemical_formula_sum   'Li6 V3 Fe3 P12 O42'
_cell_volume   809.35777636
_cell_formula_units_Z   3
loop_
 _symmetry_equiv_pos_site_id
 _symmetry_equiv_pos_as_xyz
  1  'x, y, z'
loop_
 _atom_site_type_symbol
 _atom_site_label
 _atom_site_symmetry_multiplicity
 _atom_site_fract_x
 _atom_site_fract_y
 _atom_site_fract_z
 _atom_site_occupancy
  Li  Li0  1  0.38754700  0.86133700  0.05838900  1
  Li  Li1  1  0.94818800  0.36161500  0.27447200  1
  Li  Li2  1  0.71798500  0.86100500  0.39239200  1
  Li  Li3  1  0.28032500  0.36091400  0.60777100  1
  Li  Li4  1  0.05215100  0.86193500  0.72562100  1
  Li  Li5  1  0.61276900  0.36060300  0.94131100  1
  V  V0  1  0.99022800  0.00015000  0.26222700  1
  V  V1  1  0.67619300  0.50013100  0.40446700  1
  V  V2  1  0.01036700  0.49987000  0.73830100  1
  Fe  Fe0  1  0.33974300  0.49994100  0.07262300  1
  Fe  Fe1  1  0.32778200  0.00011100  0.59469000  1
  Fe  Fe2  1  0.66038800  0.99970600  0.92746300  1
  P  P0  1  0.61033500  0.18050000  0.13300500  1
  P  P1  1  0.98539700  0.78364700  0.07176700  1
  P  P2  1  0.34867500  0.28416000  0.26194500  1
  P  P3  1  0.72151200  0.68038200  0.19995100  1
  P  P4  1  0.31804400  0.78424600  0.40486800  1
  P  P5  1  0.05583500  0.68142000  0.53348600  1
  P  P6  1  0.94528400  0.18101000  0.46671200  1
  P  P7  1  0.68110800  0.28394700  0.59460700  1
  P  P8  1  0.27776300  0.17952700  0.79974900  1
  P  P9  1  0.65177300  0.78392600  0.73792300  1
  P  P10  1  0.01434600  0.28349500  0.92843200  1
  P  P11  1  0.39008700  0.67978300  0.86722000  1
  O  O0  1  0.16078000  0.32624800  0.01670100  1
  O  O1  1  0.16078600  0.69453800  0.04614000  1
  O  O2  1  0.04965300  0.93289400  0.13368000  1
  O  O3  1  0.57990400  0.03879200  0.06189000  1
  O  O4  1  0.57380200  0.34506300  0.08308300  1
  O  O5  1  0.52716100  0.67793000  0.13300100  1
  O  O6  1  0.28588400  0.43266200  0.19937900  1
  O  O7  1  0.44627400  0.15278600  0.19883400  1
  O  O8  1  0.88751500  0.65226000  0.13483700  1
  O  O9  1  0.17476000  0.19694600  0.28883400  1
  O  O10  1  0.16861600  0.82488600  0.31733400  1
  O  O11  1  0.80559500  0.17827000  0.20061900  1
  O  O12  1  0.75822400  0.84327400  0.25161300  1
  O  O13  1  0.75391500  0.53866000  0.27115900  1
  O  O14  1  0.49770300  0.32473100  0.34960600  1
  O  O15  1  0.49103600  0.69675500  0.37814400  1
  O  O16  1  0.21979200  0.65305000  0.46803300  1
  O  O17  1  0.38119400  0.93283200  0.46773600  1
  O  O18  1  0.13988800  0.17830600  0.53368100  1
  O  O19  1  0.91234800  0.03879600  0.39556500  1
  O  O20  1  0.90859200  0.34352300  0.41540600  1
  O  O21  1  0.09276200  0.84560900  0.58391300  1
  O  O22  1  0.08756000  0.53952800  0.60458900  1
  O  O23  1  0.86078500  0.67817400  0.46632500  1
  O  O24  1  0.61671900  0.43285400  0.53288100  1
  O  O25  1  0.77892500  0.15263800  0.53176900  1
  O  O26  1  0.50635500  0.19485700  0.62110500  1
  O  O27  1  0.50486200  0.82632000  0.64978600  1
  O  O28  1  0.24669500  0.03773500  0.72855500  1
  O  O29  1  0.24147200  0.34259300  0.74875500  1
  O  O30  1  0.19500300  0.67789100  0.79950000  1
  O  O31  1  0.82984000  0.32517200  0.68229200  1
  O  O32  1  0.82580300  0.69632700  0.71192200  1
  O  O33  1  0.11179500  0.15191800  0.86539200  1
  O  O34  1  0.55366200  0.65248200  0.80108100  1
  O  O35  1  0.71509900  0.93246000  0.80080200  1
  O  O36  1  0.47225100  0.17787000  0.86708000  1
  O  O37  1  0.42668400  0.84463600  0.91718700  1
  O  O38  1  0.42001100  0.53837500  0.93820900  1
  O  O39  1  0.95003500  0.43240500  0.86663400  1
  O  O40  1  0.83823700  0.19423100  0.95386700  1
  O  O41  1  0.83820200  0.82610600  0.98369000  1
loop_
_geom_bond_atom_site_label_1
_geom_bond_atom_site_label_2
_geom_bond_distance
_geom_bond_site_symmetry_2
Li0 O3 1.989819 1_565
Li0 O5 2.009392 1_555
Li0 O37 2.058076 1_554
Li0 O1 2.093097 1_555
Li1 O13 2.001859 1_555
Li1 O11 2.008272 1_555
Li1 O20 2.056142 1_555
Li1 O9 2.084900 1_655
Li2 O19 2.001841 1_565
Li2 O23 2.010811 1_555
Li2 O12 2.055076 1_555
Li2 O15 2.079231 1_555
Li3 O18 1.998923 1_555
Li3 O22 2.004358 1_555
Li3 O29 2.055434 1_555
Li3 O26 2.090055 1_555
Li4 O28 1.990998 1_565
Li4 O30 2.018199 1_555
Li4 O21 2.068003 1_555
Li4 O32 2.083646 1_455
Li5 O38 1.999291 1_555
Li5 O36 2.000808 1_555
Li5 O4 2.065085 1_556
Li5 O40 2.089237 1_555
Fe0 O6 1.966831 1_555
Fe0 O0 1.983027 1_555
Fe0 O1 2.042579 1_555
Fe0 O5 2.061158 1_555
Fe0 O4 2.076319 1_555
Fe0 O38 2.088878 1_554
Fe1 O17 1.968413 1_545
Fe1 O27 1.977918 1_545
Fe1 O26 2.036524 1_555
Fe1 O18 2.072431 1_555
Fe1 O21 2.074159 1_545
Fe1 O28 2.083103 1_555
Fe2 O35 1.967615 1_555
Fe2 O41 1.984346 1_555
Fe2 O40 2.032086 1_565
Fe2 O37 2.070218 1_555
Fe2 O36 2.070522 1_565
Fe2 O3 2.090673 1_566
O0 P10 1.518994 1_554
O1 P1 1.533917 1_455
O2 P1 1.534078 1_455
O2 V0 2.004333 1_465
O3 P0 1.532589 1_555
O4 P0 1.534530 1_555
O5 P3 1.528316 1_555
O6 P2 1.534454 1_555
O7 P0 1.613766 1_555
O7 P2 1.627734 1_555
O8 P3 1.619149 1_555
O8 P1 1.626724 1_555
O9 P2 1.521528 1_555
O9 V0 2.074824 1_455
O10 P4 1.520867 1_555
O10 V0 1.992070 1_465
O11 P0 1.537862 1_555
O11 V0 2.061595 1_555
O12 P3 1.531410 1_555
O12 V0 2.069867 1_565
O13 P3 1.535626 1_555
O13 V1 2.066653 1_555
O14 P2 1.518962 1_555
O14 V1 1.987076 1_555
O15 P4 1.519012 1_555
O15 V1 2.081527 1_555
O16 P5 1.610995 1_555
O16 P4 1.627838 1_555
O17 P4 1.535227 1_555
O18 P6 1.529995 1_455
O19 P6 1.536686 1_555
O19 V0 2.067809 1_555
O20 P6 1.528202 1_555
O20 V1 2.075689 1_555
O21 P5 1.533330 1_555
O22 P5 1.535576 1_555
O22 V2 2.071989 1_555
O23 P5 1.533699 1_655
O23 V1 2.056731 1_555
O24 P7 1.533198 1_555
O24 V1 2.002656 1_555
O25 P6 1.620216 1_555
O25 P7 1.625799 1_555
O26 P7 1.531793 1_555
O27 P9 1.520332 1_555
O28 P8 1.533958 1_555
O29 P8 1.530018 1_555
O29 V2 2.072474 1_555
O30 P11 1.537465 1_555
O30 V2 2.053839 1_555
O31 P7 1.519233 1_555
O31 V2 1.995652 1_655
O32 P9 1.521778 1_555
O32 V2 2.078004 1_655
O33 P8 1.622758 1_555
O33 P10 1.627696 1_555
O34 P11 1.614242 1_555
O34 P9 1.628632 1_555
O35 P9 1.535203 1_555
O36 P8 1.531617 1_555
O37 P11 1.535181 1_555
O38 P11 1.531061 1_555
O39 P10 1.533632 1_655
O39 V2 2.004194 1_655
O40 P10 1.534966 1_655
O41 P1 1.520956 1_556
