# generated using pymatgen
data_Li4Ti3Fe3(CoO8)2
_symmetry_space_group_name_H-M   'P 1'
_cell_length_a   5.81221335
_cell_length_b   5.83542286
_cell_length_c   9.41070906
_cell_angle_alpha   89.19429476
_cell_angle_beta   90.60701930
_cell_angle_gamma   120.01704990
_symmetry_Int_Tables_number   1
_chemical_formula_structural   Li4Ti3Fe3(CoO8)2
_chemical_formula_sum   'Li4 Ti3 Fe3 Co2 O16'
_cell_volume   276.34117899
_cell_formula_units_Z   1
loop_
 _symmetry_equiv_pos_site_id
 _symmetry_equiv_pos_as_xyz
  1  'x, y, z'
loop_
 _atom_site_type_symbol
 _atom_site_label
 _atom_site_symmetry_multiplicity
 _atom_site_fract_x
 _atom_site_fract_y
 _atom_site_fract_z
 _atom_site_occupancy
  Li  Li0  1  0.33554500  0.66936500  0.89151100  1
  Li  Li1  1  0.98476800  0.99208600  0.98926600  1
  Li  Li2  1  0.98982200  0.99360300  0.49909600  1
  Li  Li3  1  0.66908600  0.33423200  0.39331200  1
  Ti  Ti0  1  0.17445400  0.83414800  0.21362400  1
  Ti  Ti1  1  0.17361400  0.34019400  0.21324800  1
  Ti  Ti2  1  0.33960500  0.16998700  0.71853500  1
  Fe  Fe0  1  0.66459500  0.83168000  0.21088700  1
  Fe  Fe1  1  0.83012500  0.65188100  0.70958000  1
  Fe  Fe2  1  0.83676500  0.18028500  0.70557800  1
  Co  Co0  1  0.33235400  0.66220700  0.48665400  1
  Co  Co1  1  0.67513600  0.34030600  0.98097900  1
  O  O0  1  0.16024900  0.82315000  0.60609700  1
  O  O1  1  0.04365100  0.52087000  0.34323500  1
  O  O2  1  0.32153300  0.66150200  0.09780800  1
  O  O3  1  0.00787800  0.00257600  0.31116900  1
  O  O4  1  0.98570200  0.99470600  0.80012200  1
  O  O5  1  0.17232900  0.34128000  0.60063200  1
  O  O6  1  0.47376700  0.95410100  0.34835900  1
  O  O7  1  0.47391500  0.51923200  0.34876700  1
  O  O8  1  0.34073600  0.17157100  0.10202400  1
  O  O9  1  0.66022300  0.81933200  0.60351000  1
  O  O10  1  0.53066500  0.48580000  0.84105300  1
  O  O11  1  0.52366500  0.05021800  0.84633200  1
  O  O12  1  0.67191700  0.33111300  0.60084500  1
  O  O13  1  0.83607000  0.66017300  0.10007100  1
  O  O14  1  0.95506500  0.48771600  0.84618100  1
  O  O15  1  0.83676500  0.17698400  0.09936500  1
loop_
_geom_bond_atom_site_label_1
_geom_bond_atom_site_label_2
_geom_bond_distance
_geom_bond_site_symmetry_2
Li0 O2 1.942906 1_556
Li0 O14 1.960461 1_455
Li0 O11 1.966604 1_565
Li0 O10 1.974888 1_555
Li1 O4 1.779872 1_555
Li1 O13 1.968036 1_556
Li1 O15 1.989123 1_566
Li1 O8 2.078519 1_666
Li2 O3 1.771234 1_665
Li2 O9 1.931896 1_555
Li2 O0 1.980152 1_655
Li2 O5 2.008548 1_665
Li3 O1 1.944951 1_655
Li3 O12 1.952833 1_555
Li3 O7 1.957145 1_555
Li3 O6 1.971029 1_545
Fe0 O3 1.965167 1_665
Fe0 O2 2.024365 1_555
Fe0 O15 2.026917 1_565
Fe0 O13 2.032694 1_555
Fe0 O7 2.044118 1_555
Fe0 O6 2.064786 1_555
Fe1 O12 1.925662 1_555
Fe1 O0 1.929358 1_655
Fe1 O14 1.933699 1_555
Fe1 O4 1.941005 1_555
Fe1 O10 1.955425 1_555
Fe1 O9 1.960484 1_555
Fe2 O12 1.861028 1_555
Fe2 O4 1.899532 1_545
Fe2 O5 1.960457 1_655
Fe2 O14 2.062835 1_555
Fe2 O11 2.069584 1_555
Fe2 O9 2.070187 1_545
Co0 O5 1.935114 1_555
Co0 O7 1.948525 1_555
Co0 O6 1.957103 1_555
Co0 O1 1.978939 1_555
Co0 O9 1.979215 1_555
Co0 O0 2.034600 1_555
Co1 O14 1.899756 1_555
Co1 O11 1.947260 1_555
Co1 O10 1.954049 1_555
Co1 O15 1.968699 1_556
Co1 O13 1.976061 1_556
Co1 O8 2.036010 1_556
O0 Ti2 2.056349 1_565
O1 Ti0 1.993517 1_555
O1 Ti1 2.007794 1_555
O2 Ti1 1.945393 1_555
O2 Ti0 1.961113 1_555
O3 Ti1 1.930679 1_555
O3 Ti0 1.934498 1_545
O4 Ti2 1.942458 1_665
O5 Ti2 2.023307 1_555
O6 Ti0 1.970784 1_555
O7 Ti1 1.982495 1_555
O8 Ti0 1.993345 1_545
O8 Ti1 2.003526 1_555
O10 Ti2 1.985923 1_555
O11 Ti2 1.943319 1_555
O12 Ti2 2.010060 1_555
O13 Ti0 2.007239 1_655
O15 Ti1 2.001854 1_655
