# generated using pymatgen
data_Li3Ni2SbO6
_symmetry_space_group_name_H-M   'P 1'
_cell_length_a   6.57915357
_cell_length_b   6.57915357
_cell_length_c   6.17275344
_cell_angle_alpha   76.99687397
_cell_angle_beta   76.99687397
_cell_angle_gamma   26.90448511
_symmetry_Int_Tables_number   1
_chemical_formula_structural   Li3Ni2SbO6
_chemical_formula_sum   'Li3 Ni2 Sb1 O6'
_cell_volume   117.62423376
_cell_formula_units_Z   1
loop_
 _symmetry_equiv_pos_site_id
 _symmetry_equiv_pos_as_xyz
  1  'x, y, z'
loop_
 _atom_site_type_symbol
 _atom_site_label
 _atom_site_symmetry_multiplicity
 _atom_site_fract_x
 _atom_site_fract_y
 _atom_site_fract_z
 _atom_site_occupancy
  Li  Li0  1  0.00000000  0.00000000  0.00000000  1
  Li  Li1  1  0.67693700  0.67693700  0.69741000  1
  Li  Li2  1  0.32306300  0.32306300  0.30259000  1
  Ni  Ni0  1  0.67177700  0.67177700  0.14701600  1
  Ni  Ni1  1  0.32822300  0.32822300  0.85298400  1
  Sb  Sb0  1  0.00000000  0.00000000  0.50000000  1
  O  O0  1  0.15633500  0.15633500  0.40791900  1
  O  O1  1  0.83627000  0.83627000  0.07211900  1
  O  O2  1  0.84366500  0.84366500  0.59208100  1
  O  O3  1  0.50364100  0.50364100  0.72181100  1
  O  O4  1  0.49635900  0.49635900  0.27818900  1
  O  O5  1  0.16373000  0.16373000  0.92788100  1
loop_
_geom_bond_atom_site_label_1
_geom_bond_atom_site_label_2
_geom_bond_distance
_geom_bond_site_symmetry_2
Li0 O5 2.038841 1_554
Li0 O1 2.038841 1_445
Li0 O4 2.292695 1_545
Li0 O4 2.292695 1_455
Li0 O3 2.292695 1_454
Li0 O3 2.292695 1_544
Li1 O5 2.069727 1_565
Li1 O5 2.069727 1_655
Li1 O2 2.081676 1_555
Li1 O3 2.187787 1_555
Li1 O0 2.413146 1_565
Li1 O0 2.413146 1_655
Li2 O1 2.069727 1_545
Li2 O1 2.069727 1_455
Li2 O0 2.081676 1_555
Li2 O4 2.187787 1_555
Li2 O2 2.413146 1_545
Li2 O2 2.413146 1_455
Ni0 O1 2.048105 1_555
Ni0 O5 2.060902 1_564
Ni0 O5 2.060902 1_654
Ni0 O0 2.197276 1_565
Ni0 O0 2.197276 1_655
Ni0 O4 2.203188 1_555
Ni1 O5 2.048105 1_555
Ni1 O1 2.060902 1_456
Ni1 O1 2.060902 1_546
Ni1 O2 2.197276 1_545
Ni1 O2 2.197276 1_455
Ni1 O3 2.203188 1_555
O0 Sb0 1.949247 1_555
O2 Sb0 1.949247 1_665
O3 Sb0 2.061288 1_565
O3 Sb0 2.061288 1_655
O4 Sb0 2.061288 1_565
O4 Sb0 2.061288 1_655
