# generated using pymatgen
data_Dy2TiO5
_symmetry_space_group_name_H-M   'P 1'
_cell_length_a   5.91368794
_cell_length_b   5.91368794
_cell_length_c   10.52765100
_cell_angle_alpha   90.00000000
_cell_angle_beta   90.00000000
_cell_angle_gamma   139.59793103
_symmetry_Int_Tables_number   1
_chemical_formula_structural   Dy2TiO5
_chemical_formula_sum   'Dy4 Ti2 O10'
_cell_volume   238.62836706
_cell_formula_units_Z   2
loop_
 _symmetry_equiv_pos_site_id
 _symmetry_equiv_pos_as_xyz
  1  'x, y, z'
loop_
 _atom_site_type_symbol
 _atom_site_label
 _atom_site_symmetry_multiplicity
 _atom_site_fract_x
 _atom_site_fract_y
 _atom_site_fract_z
 _atom_site_occupancy
  Dy  Dy0  1  0.14332700  0.85667300  0.92969600  1
  Dy  Dy1  1  0.14332700  0.85667300  0.57030400  1
  Dy  Dy2  1  0.85667300  0.14332700  0.07030400  1
  Dy  Dy3  1  0.85667300  0.14332700  0.42969600  1
  Ti  Ti0  1  0.16974100  0.83025900  0.25000000  1
  Ti  Ti1  1  0.83025900  0.16974100  0.75000000  1
  O  O0  1  0.05077000  0.94923000  0.37643300  1
  O  O1  1  0.05077000  0.94923000  0.12356800  1
  O  O2  1  0.71135500  0.28864500  0.90782800  1
  O  O3  1  0.71135500  0.28864500  0.59217200  1
  O  O4  1  0.27682400  0.72317600  0.75000000  1
  O  O5  1  0.72317600  0.27682400  0.25000000  1
  O  O6  1  0.28864500  0.71135500  0.09217200  1
  O  O7  1  0.28864500  0.71135500  0.40782800  1
  O  O8  1  0.94923000  0.05077000  0.62356800  1
  O  O9  1  0.94923000  0.05077000  0.87643200  1
loop_
_geom_bond_atom_site_label_1
_geom_bond_atom_site_label_2
_geom_bond_distance
_geom_bond_site_symmetry_2
Dy0 O2 2.189359 1_565
Dy0 O2 2.189359 1_455
Dy0 O9 2.226223 1_465
Dy0 O1 2.285002 1_556
Dy0 O6 2.351078 1_556
Dy0 O4 2.403026 1_555
Dy1 O3 2.189359 1_455
Dy1 O3 2.189359 1_565
Dy1 O8 2.226223 1_465
Dy1 O0 2.284992 1_555
Dy1 O7 2.351078 1_555
Dy1 O4 2.403026 1_555
Dy2 O6 2.189359 1_545
Dy2 O6 2.189359 1_655
Dy2 O1 2.226223 1_645
Dy2 O9 2.285002 1_554
Dy2 O2 2.351078 1_554
Dy2 O5 2.403026 1_555
Dy3 O7 2.189359 1_655
Dy3 O7 2.189359 1_545
Dy3 O0 2.226220 1_645
Dy3 O8 2.285002 1_555
Dy3 O3 2.351078 1_555
Dy3 O5 2.403026 1_555
O0 Ti0 1.874980 1_555
O1 Ti0 1.874972 1_555
O2 Ti1 2.121954 1_555
O3 Ti1 2.121954 1_555
O4 Ti1 2.126477 1_565
O4 Ti1 2.126477 1_455
O5 Ti0 2.126477 1_655
O5 Ti0 2.126477 1_545
O6 Ti0 2.121954 1_555
O7 Ti0 2.121954 1_555
O8 Ti1 1.874972 1_555
O9 Ti1 1.874972 1_555
