# generated using pymatgen
data_Na8Cu2O7
_symmetry_space_group_name_H-M   'P 1'
_cell_length_a   11.07455100
_cell_length_b   8.65766100
_cell_length_c   10.00838387
_cell_angle_alpha   73.84078479
_cell_angle_beta   90.00000000
_cell_angle_gamma   90.00000000
_symmetry_Int_Tables_number   1
_chemical_formula_structural   Na8Cu2O7
_chemical_formula_sum   'Na32 Cu8 O28'
_cell_volume   921.68904699
_cell_formula_units_Z   4
loop_
 _symmetry_equiv_pos_site_id
 _symmetry_equiv_pos_as_xyz
  1  'x, y, z'
loop_
 _atom_site_type_symbol
 _atom_site_label
 _atom_site_symmetry_multiplicity
 _atom_site_fract_x
 _atom_site_fract_y
 _atom_site_fract_z
 _atom_site_occupancy
  Na  Na0  1  0.52216100  0.87923600  0.92079500  1
  Na  Na1  1  0.53991700  0.91991800  0.64610700  1
  Na  Na2  1  0.25935900  0.89065100  0.53396100  1
  Na  Na3  1  0.97783900  0.87923600  0.42079500  1
  Na  Na4  1  0.05182800  0.74089200  0.71456000  1
  Na  Na5  1  0.96008300  0.91991800  0.14610700  1
  Na  Na6  1  0.75061400  0.71139900  0.57027100  1
  Na  Na7  1  0.24064100  0.89065100  0.03396100  1
  Na  Na8  1  0.52479300  0.56964800  0.85775000  1
  Na  Na9  1  0.49602500  0.66026100  0.51560200  1
  Na  Na10  1  0.44817200  0.74089200  0.21456000  1
  Na  Na11  1  0.76768900  0.49241400  0.87476400  1
  Na  Na12  1  0.74938600  0.71139900  0.07027100  1
  Na  Na13  1  0.26768900  0.50758600  0.62523600  1
  Na  Na14  1  0.97520700  0.56964800  0.35775000  1
  Na  Na15  1  0.99602500  0.33973900  0.98439800  1
  Na  Na16  1  0.00397500  0.66026100  0.01560200  1
  Na  Na17  1  0.02479300  0.43035200  0.64225000  1
  Na  Na18  1  0.73231100  0.49241400  0.37476400  1
  Na  Na19  1  0.25061400  0.28860100  0.92972900  1
  Na  Na20  1  0.23231100  0.50758600  0.12523600  1
  Na  Na21  1  0.55182800  0.25910800  0.78544000  1
  Na  Na22  1  0.50397500  0.33973900  0.48439800  1
  Na  Na23  1  0.47520700  0.43035200  0.14225000  1
  Na  Na24  1  0.75935900  0.10934900  0.96603900  1
  Na  Na25  1  0.24938600  0.28860100  0.42972900  1
  Na  Na26  1  0.03991700  0.08008200  0.85389300  1
  Na  Na27  1  0.94817200  0.25910800  0.28544000  1
  Na  Na28  1  0.02216100  0.12076400  0.57920500  1
  Na  Na29  1  0.74064100  0.10934900  0.46603900  1
  Na  Na30  1  0.46008300  0.08008200  0.35389300  1
  Na  Na31  1  0.47783900  0.12076400  0.07920500  1
  Cu  Cu0  1  0.79867800  0.90719400  0.77407300  1
  Cu  Cu1  1  0.70132200  0.90719400  0.27407300  1
  Cu  Cu2  1  0.28133900  0.69017500  0.84676900  1
  Cu  Cu3  1  0.21866100  0.69017500  0.34676900  1
  Cu  Cu4  1  0.78133900  0.30982500  0.65323100  1
  Cu  Cu5  1  0.71866100  0.30982500  0.15323100  1
  Cu  Cu6  1  0.29867800  0.09280600  0.72592700  1
  Cu  Cu7  1  0.20132200  0.09280600  0.22592700  1
  O  O0  1  0.88915600  0.89059200  0.93564100  1
  O  O1  1  0.19357000  0.89661100  0.78976800  1
  O  O2  1  0.88965800  0.89951300  0.61910800  1
  O  O3  1  0.61084400  0.89059200  0.43564100  1
  O  O4  1  0.67686100  0.74765300  0.81974000  1
  O  O5  1  0.30643000  0.89661100  0.28976800  1
  O  O6  1  0.61034200  0.89951300  0.11910800  1
  O  O7  1  0.38781200  0.68827000  0.69850200  1
  O  O8  1  0.82313900  0.74765300  0.31974000  1
  O  O9  1  0.14479400  0.54222400  0.89470700  1
  O  O10  1  0.11009200  0.66768100  0.50542400  1
  O  O11  1  0.11218800  0.68827000  0.19850200  1
  O  O12  1  0.35520600  0.54222400  0.39470700  1
  O  O13  1  0.61009200  0.33231900  0.99457600  1
  O  O14  1  0.38990800  0.66768100  0.00542400  1
  O  O15  1  0.64479400  0.45777600  0.60529300  1
  O  O16  1  0.88781200  0.31173000  0.80149800  1
  O  O17  1  0.88990800  0.33231900  0.49457600  1
  O  O18  1  0.85520600  0.45777600  0.10529300  1
  O  O19  1  0.17686100  0.25234700  0.68026000  1
  O  O20  1  0.61218800  0.31173000  0.30149800  1
  O  O21  1  0.38965800  0.10048700  0.88089200  1
  O  O22  1  0.69357000  0.10338900  0.71023200  1
  O  O23  1  0.32313900  0.25234700  0.18026000  1
  O  O24  1  0.38915600  0.10940800  0.56435900  1
  O  O25  1  0.11034200  0.10048700  0.38089200  1
  O  O26  1  0.80643000  0.10338900  0.21023200  1
  O  O27  1  0.11084400  0.10940800  0.06435900  1
loop_
_geom_bond_atom_site_label_1
_geom_bond_atom_site_label_2
_geom_bond_distance
_geom_bond_site_symmetry_2
Na0 O6 2.262265 1_556
Na0 O14 2.313815 1_556
Na0 O21 2.357156 1_565
Na0 O4 2.428414 1_555
Na1 O24 2.324061 1_565
Na1 O3 2.327264 1_555
Na1 O4 2.470153 1_555
Na1 O22 2.529428 1_565
Na1 O7 2.559155 1_555
Na2 O24 2.463021 1_565
Na2 O5 2.485405 1_555
Na2 O7 2.489888 1_555
Na2 O25 2.611830 1_565
Na2 O10 2.616777 1_555
Na2 O1 2.676141 1_555
Na3 O2 2.262265 1_555
Na3 O10 2.313815 1_655
Na3 O25 2.357156 1_665
Na3 O8 2.428414 1_555
Na4 O2 2.300823 1_455
Na4 O1 2.326586 1_555
Na4 O9 2.354356 1_555
Na4 O10 2.436734 1_555
Na5 O27 2.324061 1_665
Na5 O0 2.327264 1_554
Na5 O8 2.470153 1_555
Na5 O26 2.529428 1_565
Na5 O11 2.559155 1_655
Na6 O3 2.335552 1_555
Na6 O2 2.388631 1_555
Na6 O15 2.426786 1_555
Na6 O8 2.567618 1_555
Na6 O4 2.726861 1_555
Na7 O27 2.463021 1_565
Na7 O1 2.485405 1_554
Na7 O11 2.489888 1_555
Na7 O21 2.611830 1_564
Na7 O14 2.616777 1_555
Na7 O5 2.676141 1_555
Na8 O7 2.232749 1_555
Na8 O4 2.242665 1_555
Na8 O13 2.328801 1_555
Na8 O14 2.415452 1_556
Na9 O7 2.256750 1_555
Na9 O3 2.312056 1_555
Na9 O12 2.372478 1_555
Na9 O15 2.391124 1_555
Na10 O6 2.300823 1_555
Na10 O5 2.326586 1_555
Na10 O12 2.354356 1_555
Na10 O14 2.436734 1_555
Na11 O16 2.322266 1_555
Na11 O13 2.340948 1_555
Na11 O4 2.349639 1_555
Na11 O18 2.442838 1_556
Na12 O0 2.335552 1_554
Na12 O6 2.388631 1_555
Na12 O18 2.426786 1_555
Na12 O4 2.567618 1_554
Na12 O8 2.726861 1_555
Na13 O7 2.322266 1_555
Na13 O10 2.340948 1_555
Na13 O19 2.349639 1_555
Na13 O12 2.442838 1_555
Na14 O11 2.232749 1_655
Na14 O8 2.242665 1_555
Na14 O17 2.328801 1_555
Na14 O10 2.415452 1_655
Na15 O16 2.256750 1_555
Na15 O27 2.312056 1_656
Na15 O18 2.372478 1_556
Na15 O9 2.391124 1_655
Na16 O11 2.256750 1_555
Na16 O0 2.312056 1_454
Na16 O9 2.372478 1_554
Na16 O18 2.391124 1_455
Na17 O16 2.232749 1_455
Na17 O19 2.242665 1_555
Na17 O10 2.328801 1_555
Na17 O17 2.415452 1_455
Na18 O20 2.322266 1_555
Na18 O17 2.340948 1_555
Na18 O8 2.349639 1_555
Na18 O15 2.442838 1_555
Na19 O27 2.335552 1_556
Na19 O21 2.388631 1_555
Na19 O9 2.426786 1_555
Na19 O23 2.567618 1_556
Na19 O19 2.726861 1_555
Na20 O11 2.322266 1_555
Na20 O14 2.340948 1_555
Na20 O23 2.349639 1_555
Na20 O9 2.442838 1_554
Na21 O21 2.300823 1_555
Na21 O22 2.326586 1_555
Na21 O15 2.354356 1_555
Na21 O13 2.436734 1_555
Na22 O20 2.256750 1_555
Na22 O24 2.312056 1_555
Na22 O15 2.372478 1_555
Na22 O12 2.391124 1_555
Na23 O20 2.232749 1_555
Na23 O23 2.242665 1_555
Na23 O14 2.328801 1_555
Na23 O13 2.415452 1_554
Na24 O0 2.463021 1_545
Na24 O26 2.485405 1_556
Na24 O16 2.489888 1_555
Na24 O6 2.611830 1_546
Na24 O13 2.616777 1_555
Na24 O22 2.676141 1_555
Na25 O24 2.335552 1_555
Na25 O25 2.388631 1_555
Na25 O12 2.426786 1_555
Na25 O19 2.567618 1_555
Na25 O23 2.726861 1_555
Na26 O0 2.324061 1_445
Na26 O27 2.327264 1_556
Na26 O19 2.470153 1_555
Na26 O1 2.529428 1_545
Na26 O16 2.559155 1_455
Na27 O25 2.300823 1_655
Na27 O26 2.326586 1_555
Na27 O18 2.354356 1_555
Na27 O17 2.436734 1_555
Na28 O25 2.262265 1_555
Na28 O17 2.313815 1_455
Na28 O2 2.357156 1_445
Na28 O19 2.428414 1_555
Na29 O3 2.463021 1_545
Na29 O22 2.485405 1_555
Na29 O20 2.489888 1_555
Na29 O2 2.611830 1_545
Na29 O17 2.616777 1_555
Na29 O26 2.676141 1_555
Na30 O3 2.324061 1_545
Na30 O24 2.327264 1_555
Na30 O23 2.470153 1_555
Na30 O5 2.529428 1_545
Na30 O20 2.559155 1_555
Na31 O21 2.262265 1_554
Na31 O13 2.313815 1_554
Na31 O6 2.357156 1_545
Na31 O23 2.428414 1_555
Cu0 O2 1.866134 1_555
Cu0 O0 1.873526 1_555
Cu0 O4 1.893501 1_555
Cu0 O22 2.011048 1_565
Cu1 O6 1.866134 1_555
Cu1 O3 1.873526 1_555
Cu1 O8 1.893501 1_555
Cu1 O26 2.011048 1_565
Cu2 O7 1.899017 1_555
Cu2 O9 1.953336 1_555
Cu2 O14 1.957758 1_556
Cu2 O1 1.974079 1_555
Cu3 O11 1.899017 1_555
Cu3 O12 1.953336 1_555
Cu3 O10 1.957758 1_555
Cu3 O5 1.974079 1_555
Cu4 O16 1.899017 1_555
Cu4 O15 1.953336 1_555
Cu4 O17 1.957758 1_555
Cu4 O22 1.974079 1_555
Cu5 O20 1.899017 1_555
Cu5 O18 1.953336 1_555
Cu5 O13 1.957758 1_554
Cu5 O26 1.974079 1_555
Cu6 O21 1.866134 1_555
Cu6 O24 1.873526 1_555
Cu6 O19 1.893501 1_555
Cu6 O1 2.011048 1_545
Cu7 O25 1.866134 1_555
Cu7 O27 1.873526 1_555
Cu7 O23 1.893501 1_555
Cu7 O5 2.011048 1_545
