# generated using pymatgen
data_Li3V5Cr2O12
_symmetry_space_group_name_H-M   'P 1'
_cell_length_a   5.23131370
_cell_length_b   5.23131370
_cell_length_c   9.95373343
_cell_angle_alpha   84.19339103
_cell_angle_beta   84.19339103
_cell_angle_gamma   121.38339919
_symmetry_Int_Tables_number   1
_chemical_formula_structural   Li3V5Cr2O12
_chemical_formula_sum   'Li3 V5 Cr2 O12'
_cell_volume   227.52758951
_cell_formula_units_Z   1
loop_
 _symmetry_equiv_pos_site_id
 _symmetry_equiv_pos_as_xyz
  1  'x, y, z'
loop_
 _atom_site_type_symbol
 _atom_site_label
 _atom_site_symmetry_multiplicity
 _atom_site_fract_x
 _atom_site_fract_y
 _atom_site_fract_z
 _atom_site_occupancy
  Li  Li0  1  0.68142300  0.84162100  0.23721800  1
  Li  Li1  1  0.15837900  0.31857700  0.76278200  1
  Li  Li2  1  0.07785700  0.92214300  0.00000000  1
  V  V0  1  0.00047700  0.51588800  0.23614200  1
  V  V1  1  0.91755100  0.08244900  0.50000000  1
  V  V2  1  0.43176900  0.56823100  0.00000000  1
  V  V3  1  0.48411200  0.99952300  0.76385800  1
  V  V4  1  0.57593600  0.42406400  0.50000000  1
  Cr  Cr0  1  0.75183600  0.24816400  0.00000000  1
  Cr  Cr1  1  0.24280400  0.75719600  0.50000000  1
  O  O0  1  0.77543300  0.97927200  0.88023100  1
  O  O1  1  0.85650600  0.35905200  0.61292900  1
  O  O2  1  0.52208500  0.72546700  0.61276500  1
  O  O3  1  0.38753900  0.83758100  0.11719900  1
  O  O4  1  0.73171600  0.53987700  0.11706300  1
  O  O5  1  0.95208300  0.78209500  0.38685000  1
  O  O6  1  0.02072800  0.22456700  0.11976900  1
  O  O7  1  0.64094800  0.14349400  0.38707100  1
  O  O8  1  0.27453300  0.47791500  0.38723500  1
  O  O9  1  0.16241900  0.61246100  0.88280100  1
  O  O10  1  0.46012300  0.26828400  0.88293700  1
  O  O11  1  0.21790500  0.04791700  0.61315000  1
loop_
_geom_bond_atom_site_label_1
_geom_bond_atom_site_label_2
_geom_bond_distance
_geom_bond_site_symmetry_2
Li0 O6 1.983254 1_665
Li0 O3 2.033248 1_555
Li0 O4 2.177662 1_555
Li0 O8 2.223630 1_555
Li0 O5 2.261007 1_555
Li0 O7 2.350429 1_565
Li1 O0 1.983254 1_445
Li1 O9 2.033248 1_555
Li1 O10 2.177662 1_555
Li1 O2 2.223630 1_555
Li1 O11 2.261007 1_555
Li1 O1 2.350429 1_455
Li2 O4 1.991421 1_455
Li2 O10 1.991421 1_564
Li2 O6 2.194422 1_565
Li2 O0 2.194422 1_454
Li2 O3 2.281560 1_555
Li2 O9 2.281560 1_554
Cr0 O0 1.976243 1_544
Cr0 O6 1.976243 1_655
Cr0 O10 2.049361 1_554
Cr0 O4 2.049361 1_555
Cr0 O3 2.094286 1_545
Cr0 O9 2.094286 1_654
Cr1 O2 1.992145 1_555
Cr1 O8 1.992145 1_555
Cr1 O5 2.030187 1_455
Cr1 O11 2.030187 1_565
Cr1 O1 2.090042 1_455
Cr1 O7 2.090042 1_565
O0 V3 2.043541 1_555
O0 V2 2.073251 1_556
O1 V1 2.048674 1_555
O1 V4 2.076021 1_555
O1 V3 2.146955 1_545
O2 V1 2.027173 1_565
O2 V4 2.140573 1_555
O2 V3 2.242580 1_555
O3 V0 1.973948 1_555
O3 V2 2.004346 1_555
O4 V0 1.971869 1_655
O4 V2 2.102200 1_555
O5 V4 1.983602 1_555
O5 V1 2.093431 1_565
O5 V0 2.228642 1_655
O6 V0 2.043541 1_555
O6 V2 2.073251 1_555
O7 V1 2.048674 1_555
O7 V4 2.076021 1_555
O7 V0 2.146955 1_655
O8 V1 2.027173 1_455
O8 V4 2.140573 1_555
O8 V0 2.242580 1_555
O9 V3 1.973948 1_555
O9 V2 2.004346 1_556
O10 V3 1.971869 1_545
O10 V2 2.102200 1_556
O11 V4 1.983602 1_555
O11 V1 2.093431 1_455
O11 V3 2.228642 1_545
