# generated using pymatgen
data_RbLiMnP3HO10
_symmetry_space_group_name_H-M   'P 1'
_cell_length_a   7.45920584
_cell_length_b   7.45920584
_cell_length_c   9.59117364
_cell_angle_alpha   75.12719300
_cell_angle_beta   75.12719300
_cell_angle_gamma   75.00776889
_symmetry_Int_Tables_number   1
_chemical_formula_structural   RbLiMnP3HO10
_chemical_formula_sum   'Rb2 Li2 Mn2 P6 H2 O20'
_cell_volume   487.75857479
_cell_formula_units_Z   2
loop_
 _symmetry_equiv_pos_site_id
 _symmetry_equiv_pos_as_xyz
  1  'x, y, z'
loop_
 _atom_site_type_symbol
 _atom_site_label
 _atom_site_symmetry_multiplicity
 _atom_site_fract_x
 _atom_site_fract_y
 _atom_site_fract_z
 _atom_site_occupancy
  Rb  Rb0  1  0.46260100  0.54544600  0.73532900  1
  Rb  Rb1  1  0.54544600  0.46260100  0.23532900  1
  Li  Li0  1  0.85321000  0.06902900  0.48195000  1
  Li  Li1  1  0.06902900  0.85321000  0.98195000  1
  Mn  Mn0  1  0.50708900  0.00096900  0.00017300  1
  Mn  Mn1  1  0.00096900  0.50708900  0.50017300  1
  P  P0  1  0.85148000  0.71708900  0.81112600  1
  P  P1  1  0.87394400  0.12315100  0.74400500  1
  P  P2  1  0.71708900  0.85148000  0.31112600  1
  P  P3  1  0.28377400  0.15066500  0.69296200  1
  P  P4  1  0.12315100  0.87394400  0.24400500  1
  P  P5  1  0.15066500  0.28377400  0.19296200  1
  H  H0  1  0.48511900  0.00383000  0.52034300  1
  H  H1  1  0.00383000  0.48511900  0.02034300  1
  O  O0  1  0.87494800  0.92876800  0.69857000  1
  O  O1  1  0.92876800  0.87494800  0.19857000  1
  O  O2  1  0.87308300  0.59334200  0.70364900  1
  O  O3  1  0.65497700  0.74848700  0.90947500  1
  O  O4  1  0.98312100  0.37217400  0.10629700  1
  O  O5  1  0.74848700  0.65497700  0.40947500  1
  O  O6  1  0.85616600  0.26240100  0.59916300  1
  O  O7  1  0.73578700  0.15251800  0.88382500  1
  O  O8  1  0.59334200  0.87308300  0.20364900  1
  O  O9  1  0.37217400  0.98312100  0.60629700  1
  O  O10  1  0.67118400  0.01454800  0.39543700  1
  O  O11  1  0.38511900  0.13966500  0.81192100  1
  O  O12  1  0.26240100  0.85616600  0.09916300  1
  O  O13  1  0.15251800  0.73578700  0.38382500  1
  O  O14  1  0.24814200  0.34249200  0.59263700  1
  O  O15  1  0.01454800  0.67118400  0.89543700  1
  O  O16  1  0.34249200  0.24814200  0.09263700  1
  O  O17  1  0.13966500  0.38511900  0.31192100  1
  O  O18  1  0.08065200  0.08689700  0.78413600  1
  O  O19  1  0.08689700  0.08065200  0.28413600  1
loop_
_geom_bond_atom_site_label_1
_geom_bond_atom_site_label_2
_geom_bond_distance
_geom_bond_site_symmetry_2
Li0 O10 1.932387 1_555
Li0 O6 2.050966 1_555
Li0 O0 2.099236 1_545
Li0 O19 2.222978 1_655
Li1 O15 1.932387 1_555
Li1 O12 2.050966 1_556
Li1 O1 2.099236 1_456
Li1 O18 2.222978 1_565
Mn0 O8 2.122240 1_545
Mn0 O11 2.134356 1_554
Mn0 O3 2.189527 1_544
Mn0 O16 2.191444 1_555
Mn0 O7 2.192298 1_554
Mn0 O12 2.236804 1_545
Mn1 O2 2.122240 1_455
Mn1 O17 2.134356 1_555
Mn1 O5 2.189527 1_455
Mn1 O14 2.191444 1_555
Mn1 O13 2.192298 1_555
Mn1 O6 2.236804 1_455
H0 O9 1.028925 1_545
H0 O10 1.588251 1_555
H1 O4 1.028925 1_455
H1 O15 1.588251 1_554
O0 P1 1.615350 1_565
O0 P0 1.691191 1_555
O1 P4 1.615350 1_655
O1 P2 1.691191 1_555
O2 P0 1.505602 1_555
O2 Rb0 3.102846 1_555
O3 P0 1.522862 1_555
O3 Rb0 3.285743 1_555
O3 Rb1 3.339451 1_556
O4 P5 1.585288 1_655
O4 Rb1 3.140063 1_555
O5 P2 1.522862 1_555
O5 Rb1 3.285743 1_555
O5 Rb0 3.339451 1_555
O6 P1 1.519515 1_555
O6 Rb0 3.319934 1_555
O7 P1 1.494304 1_555
O7 Rb0 3.320874 1_555
O8 P2 1.505602 1_555
O8 Rb1 3.102846 1_555
O9 P3 1.585288 1_565
O9 Rb0 3.140063 1_555
O10 P2 1.548540 1_545
O10 Rb1 3.300082 1_555
O11 P3 1.497531 1_555
O11 Rb0 3.095304 1_555
O12 P4 1.519515 1_555
O12 Rb1 3.319934 1_555
O13 P4 1.494304 1_555
O13 Rb1 3.320874 1_555
O14 P3 1.507208 1_555
O14 Rb0 3.188147 1_555
O15 P0 1.548540 1_455
O15 Rb0 3.300082 1_555
O16 P5 1.507208 1_555
O16 Rb1 3.188147 1_555
O17 P5 1.497531 1_555
O17 Rb1 3.095304 1_555
O18 P1 1.623011 1_455
O18 P3 1.663053 1_555
O19 P4 1.623011 1_545
O19 P5 1.663053 1_555
