# generated using pymatgen
data_Sb2(PO4)3
_symmetry_space_group_name_H-M   'P 1'
_cell_length_a   9.14613518
_cell_length_b   9.14613518
_cell_length_c   9.14613535
_cell_angle_alpha   55.14550304
_cell_angle_beta   55.14550304
_cell_angle_gamma   55.14550324
_symmetry_Int_Tables_number   1
_chemical_formula_structural   Sb2(PO4)3
_chemical_formula_sum   'Sb4 P6 O24'
_cell_volume   479.93160769
_cell_formula_units_Z   2
loop_
 _symmetry_equiv_pos_site_id
 _symmetry_equiv_pos_as_xyz
  1  'x, y, z'
loop_
 _atom_site_type_symbol
 _atom_site_label
 _atom_site_symmetry_multiplicity
 _atom_site_fract_x
 _atom_site_fract_y
 _atom_site_fract_z
 _atom_site_occupancy
  Sb  Sb0  1  0.14232200  0.14232200  0.14232200  1
  Sb  Sb1  1  0.85767800  0.85767800  0.85767800  1
  Sb  Sb2  1  0.34795200  0.34795200  0.34795200  1
  Sb  Sb3  1  0.65204800  0.65204800  0.65204800  1
  P  P0  1  0.74485700  0.04297100  0.45577800  1
  P  P1  1  0.04297100  0.45577800  0.74485700  1
  P  P2  1  0.45577800  0.74485700  0.04297100  1
  P  P3  1  0.54422200  0.25514300  0.95702900  1
  P  P4  1  0.95702900  0.54422200  0.25514300  1
  P  P5  1  0.25514300  0.95702900  0.54422200  1
  O  O0  1  0.22009300  0.15689000  0.52209600  1
  O  O1  1  0.52209600  0.22009300  0.15689000  1
  O  O2  1  0.15689000  0.52209600  0.22009300  1
  O  O3  1  0.53051000  0.17789300  0.48397400  1
  O  O4  1  0.87460900  0.12755300  0.25156900  1
  O  O5  1  0.78613900  0.02484300  0.60651700  1
  O  O6  1  0.12755300  0.25156900  0.87460900  1
  O  O7  1  0.17789300  0.48397400  0.53051000  1
  O  O8  1  0.48397400  0.53051000  0.17789300  1
  O  O9  1  0.39348300  0.21386100  0.97515700  1
  O  O10  1  0.74843100  0.12539100  0.87244700  1
  O  O11  1  0.97515700  0.39348300  0.21386100  1
  O  O12  1  0.02484300  0.60651700  0.78613900  1
  O  O13  1  0.25156900  0.87460900  0.12755300  1
  O  O14  1  0.60651700  0.78613900  0.02484300  1
  O  O15  1  0.51602600  0.46949000  0.82210700  1
  O  O16  1  0.82210700  0.51602600  0.46949000  1
  O  O17  1  0.87244700  0.74843100  0.12539100  1
  O  O18  1  0.21386100  0.97515700  0.39348300  1
  O  O19  1  0.12539100  0.87244700  0.74843100  1
  O  O20  1  0.46949000  0.82210700  0.51602600  1
  O  O21  1  0.84311000  0.47790400  0.77990700  1
  O  O22  1  0.47790400  0.77990700  0.84311000  1
  O  O23  1  0.77990700  0.84311000  0.47790400  1
loop_
_geom_bond_atom_site_label_1
_geom_bond_atom_site_label_2
_geom_bond_distance
_geom_bond_site_symmetry_2
O0 P5 1.570572 1_545
O0 Sb2 1.995898 1_555
O1 P3 1.570572 1_554
O1 Sb2 1.995898 1_555
O2 P4 1.570572 1_455
O2 Sb2 1.995898 1_555
O3 P0 1.566328 1_555
O3 Sb2 1.987216 1_555
O4 P0 1.536103 1_555
O4 Sb0 2.106979 1_655
O5 P0 1.527404 1_555
O5 Sb1 2.145412 1_545
O6 P1 1.536103 1_555
O6 Sb0 2.106979 1_556
O7 P1 1.566328 1_555
O7 Sb2 1.987216 1_555
O8 P2 1.566328 1_555
O8 Sb2 1.987216 1_555
O9 P3 1.527404 1_555
O9 Sb0 2.145412 1_556
O10 P3 1.536103 1_555
O10 Sb1 2.106979 1_545
O11 P4 1.527404 1_555
O11 Sb0 2.145412 1_655
O12 P1 1.527404 1_555
O12 Sb1 2.145412 1_455
O13 P2 1.536103 1_555
O13 Sb0 2.106979 1_565
O14 P2 1.527404 1_555
O14 Sb1 2.145412 1_554
O15 P3 1.566328 1_555
O15 Sb3 1.987216 1_555
O16 P4 1.566328 1_555
O16 Sb3 1.987216 1_555
O17 P4 1.536103 1_555
O17 Sb1 2.106979 1_554
O18 P5 1.527404 1_555
O18 Sb0 2.145412 1_565
O19 P5 1.536103 1_555
O19 Sb1 2.106979 1_455
O20 P5 1.566328 1_555
O20 Sb3 1.987216 1_555
O21 P1 1.570572 1_655
O21 Sb3 1.995898 1_555
O22 P2 1.570572 1_556
O22 Sb3 1.995898 1_555
O23 P0 1.570572 1_565
O23 Sb3 1.995898 1_555
