# generated using pymatgen
data_LiFe2F5
_symmetry_space_group_name_H-M   'P 1'
_cell_length_a   5.33300436
_cell_length_b   6.00552078
_cell_length_c   7.87895993
_cell_angle_alpha   82.68381191
_cell_angle_beta   109.57858106
_cell_angle_gamma   63.12926256
_symmetry_Int_Tables_number   1
_chemical_formula_structural   LiFe2F5
_chemical_formula_sum   'Li2 Fe4 F10'
_cell_volume   200.07353981
_cell_formula_units_Z   2
loop_
 _symmetry_equiv_pos_site_id
 _symmetry_equiv_pos_as_xyz
  1  'x, y, z'
loop_
 _atom_site_type_symbol
 _atom_site_label
 _atom_site_symmetry_multiplicity
 _atom_site_fract_x
 _atom_site_fract_y
 _atom_site_fract_z
 _atom_site_occupancy
  Li  Li0  1  0.88844000  0.54645900  0.95827300  1
  Li  Li1  1  0.53108500  0.05381700  0.46490200  1
  Fe  Fe0  1  0.80409200  0.00634100  0.12552900  1
  Fe  Fe1  1  0.30614400  0.50655100  0.62684000  1
  Fe  Fe2  1  0.68846100  0.48983200  0.37940800  1
  Fe  Fe3  1  0.19737800  0.98732900  0.88018100  1
  F  F0  1  0.44242800  0.72508000  0.76804200  1
  F  F1  1  0.82424500  0.70245000  0.54069800  1
  F  F2  1  0.24266200  0.73827500  0.36828800  1
  F  F3  1  0.00481200  0.20059100  0.03898500  1
  F  F4  1  0.37202500  0.24440300  0.86930500  1
  F  F5  1  0.63817400  0.73788700  0.13495200  1
  F  F6  1  0.00700000  0.78895300  0.97185000  1
  F  F7  1  0.75251500  0.23550100  0.63389400  1
  F  F8  1  0.16938200  0.28813500  0.47434900  1
  F  F9  1  0.59143300  0.22904600  0.26649100  1
loop_
_geom_bond_atom_site_label_1
_geom_bond_atom_site_label_2
_geom_bond_distance
_geom_bond_site_symmetry_2
F0 Li0 1.987350 1_555
F0 Fe1 2.044622 1_555
F0 Fe3 2.058314 1_555
F1 Li1 1.823387 1_565
F1 Fe1 2.084225 1_655
F1 Fe2 2.098118 1_555
F2 Fe2 2.122887 1_555
F2 Fe0 2.129409 1_465
F2 Fe1 2.142655 1_555
F3 Li0 1.826959 1_454
F3 Fe3 2.083466 1_544
F3 Fe0 2.094539 1_455
F4 Fe1 2.129708 1_555
F4 Fe3 2.139623 1_545
F4 Fe0 2.144367 1_556
F5 Fe2 2.136058 1_555
F5 Fe3 2.165155 1_554
F5 Fe0 2.165813 1_565
F5 Li0 2.303592 1_554
F6 Li0 1.832688 1_455
F6 Fe3 2.082661 1_555
F6 Fe0 2.084506 1_466
F7 Fe3 2.144066 1_645
F7 Fe1 2.169116 1_555
F7 Fe2 2.181579 1_555
F7 Li1 2.199731 1_555
F8 Li1 1.837340 1_555
F8 Fe2 2.068788 1_455
F8 Fe1 2.091638 1_555
F9 Li1 1.969562 1_555
F9 Fe0 2.039573 1_555
F9 Fe2 2.071479 1_555
