# generated using pymatgen
data_Li2Fe4Si4O13
_symmetry_space_group_name_H-M   'P 1'
_cell_length_a   6.92203900
_cell_length_b   7.92022368
_cell_length_c   10.22283182
_cell_angle_alpha   110.32078220
_cell_angle_beta   90.38440599
_cell_angle_gamma   100.87340472
_symmetry_Int_Tables_number   1
_chemical_formula_structural   Li2Fe4Si4O13
_chemical_formula_sum   'Li4 Fe8 Si8 O26'
_cell_volume   514.55085083
_cell_formula_units_Z   2
loop_
 _symmetry_equiv_pos_site_id
 _symmetry_equiv_pos_as_xyz
  1  'x, y, z'
loop_
 _atom_site_type_symbol
 _atom_site_label
 _atom_site_symmetry_multiplicity
 _atom_site_fract_x
 _atom_site_fract_y
 _atom_site_fract_z
 _atom_site_occupancy
  Li  Li0  1  0.77803800  0.59970600  0.11982900  1
  Li  Li1  1  0.25009000  0.41969000  0.41592300  1
  Li  Li2  1  0.74991000  0.58031000  0.58407700  1
  Li  Li3  1  0.22196200  0.40029400  0.88017100  1
  Fe  Fe0  1  0.08250000  0.81021700  0.00096300  1
  Fe  Fe1  1  0.57186500  0.80693900  0.00544200  1
  Fe  Fe2  1  0.57619100  0.80920900  0.38564200  1
  Fe  Fe3  1  0.07807200  0.80526100  0.39298500  1
  Fe  Fe4  1  0.92192800  0.19473900  0.60701500  1
  Fe  Fe5  1  0.42380900  0.19079100  0.61435800  1
  Fe  Fe6  1  0.42813500  0.19306100  0.99455800  1
  Fe  Fe7  1  0.91750000  0.18978300  0.99903700  1
  Si  Si0  1  0.26868200  0.58223300  0.17566200  1
  Si  Si1  1  0.71675100  0.39949200  0.29386600  1
  Si  Si2  1  0.37370500  0.09945700  0.27815000  1
  Si  Si3  1  0.92425200  0.09081000  0.27791100  1
  Si  Si4  1  0.07574800  0.90919000  0.72208900  1
  Si  Si5  1  0.62629500  0.90054300  0.72185000  1
  Si  Si6  1  0.28324900  0.60050800  0.70613400  1
  Si  Si7  1  0.73131800  0.41776700  0.82433800  1
  O  O0  1  0.86196600  0.99484200  0.11151100  1
  O  O1  1  0.21726600  0.36549900  0.06810900  1
  O  O2  1  0.49976700  0.67507900  0.16089700  1
  O  O3  1  0.09273200  0.69098900  0.15381600  1
  O  O4  1  0.71725500  0.34963500  0.12627800  1
  O  O5  1  0.39578500  0.99910800  0.11362800  1
  O  O6  1  0.87050400  0.97330600  0.38171400  1
  O  O7  1  0.39697100  0.00016200  0.39037100  1
  O  O8  1  0.26152100  0.61588200  0.34636000  1
  O  O9  1  0.77126000  0.61897900  0.38913100  1
  O  O10  1  0.16105800  0.16099100  0.29778800  1
  O  O11  1  0.50155700  0.31584500  0.33949500  1
  O  O12  1  0.86273600  0.29202000  0.35017800  1
  O  O13  1  0.13726400  0.70798000  0.64982200  1
  O  O14  1  0.49844300  0.68415500  0.66050500  1
  O  O15  1  0.83894200  0.83900900  0.70221200  1
  O  O16  1  0.22874000  0.38102100  0.61086900  1
  O  O17  1  0.73847900  0.38411800  0.65364000  1
  O  O18  1  0.60302900  0.99983800  0.60962900  1
  O  O19  1  0.12949600  0.02669400  0.61828600  1
  O  O20  1  0.60421500  0.00089200  0.88637200  1
  O  O21  1  0.28274500  0.65036500  0.87372200  1
  O  O22  1  0.90726800  0.30901100  0.84618400  1
  O  O23  1  0.50023300  0.32492100  0.83910300  1
  O  O24  1  0.78273400  0.63450100  0.93189100  1
  O  O25  1  0.13803400  0.00515800  0.88848900  1
loop_
_geom_bond_atom_site_label_1
_geom_bond_atom_site_label_2
_geom_bond_distance
_geom_bond_site_symmetry_2
Li0 O4 1.969996 1_555
Li0 O24 2.033086 1_554
Li0 O2 2.124499 1_555
Li0 O3 2.147026 1_655
Li1 O8 1.910074 1_555
Li1 O10 1.957411 1_555
Li1 O11 2.104491 1_555
Li1 O16 2.120871 1_555
Li2 O17 1.910074 1_555
Li2 O15 1.957411 1_555
Li2 O14 2.104491 1_555
Li2 O9 2.120871 1_555
Li3 O21 1.969996 1_555
Li3 O1 2.033086 1_556
Li3 O23 2.124499 1_555
Li3 O22 2.147026 1_455
Fe0 O3 2.094527 1_555
Fe0 O21 2.181431 1_554
Fe0 O25 2.206514 1_564
Fe0 O24 2.224712 1_454
Fe0 O0 2.337367 1_455
Fe0 O5 2.411043 1_555
Fe1 O5 2.138714 1_555
Fe1 O24 2.148203 1_554
Fe1 O2 2.198186 1_555
Fe1 O20 2.250366 1_564
Fe1 O0 2.268367 1_555
Fe1 O21 2.285597 1_554
Fe2 O7 2.118149 1_565
Fe2 O2 2.182543 1_555
Fe2 O6 2.208972 1_555
Fe2 O9 2.213317 1_555
Fe2 O18 2.245990 1_555
Fe2 O8 2.356498 1_555
Fe3 O8 2.078368 1_555
Fe3 O6 2.162141 1_455
Fe3 O3 2.304000 1_555
Fe3 O19 2.335643 1_565
Fe3 O9 2.337747 1_455
Fe3 O7 2.449532 1_565
Fe4 O17 2.078368 1_555
Fe4 O19 2.162141 1_655
Fe4 O22 2.304000 1_555
Fe4 O6 2.335643 1_545
Fe4 O16 2.337747 1_655
Fe4 O18 2.449532 1_545
Fe5 O18 2.118149 1_545
Fe5 O23 2.182543 1_555
Fe5 O19 2.208972 1_555
Fe5 O16 2.213317 1_555
Fe5 O7 2.245990 1_555
Fe5 O17 2.356498 1_555
Fe6 O20 2.138714 1_555
Fe6 O1 2.148203 1_556
Fe6 O23 2.198186 1_555
Fe6 O5 2.250366 1_546
Fe6 O25 2.268367 1_555
Fe6 O4 2.285597 1_556
Fe7 O22 2.094527 1_555
Fe7 O4 2.181431 1_556
Fe7 O0 2.206514 1_546
Fe7 O1 2.224712 1_656
Fe7 O25 2.337367 1_655
Fe7 O20 2.411043 1_555
O0 Si3 1.620425 1_565
O1 Si0 1.653961 1_555
O2 Si0 1.660946 1_555
O3 Si0 1.673606 1_555
O4 Si1 1.619198 1_555
O5 Si2 1.613882 1_565
O6 Si3 1.640486 1_565
O7 Si2 1.622488 1_555
O8 Si0 1.673829 1_555
O9 Si1 1.638456 1_555
O10 Si3 1.615704 1_455
O10 Si2 1.628228 1_555
O11 Si1 1.651359 1_555
O11 Si2 1.669603 1_555
O12 Si3 1.645989 1_555
O12 Si1 1.653519 1_555
O13 Si4 1.645989 1_555
O13 Si6 1.653519 1_555
O14 Si6 1.651359 1_555
O14 Si5 1.669603 1_555
O15 Si4 1.615704 1_655
O15 Si5 1.628228 1_555
O16 Si6 1.638456 1_555
O17 Si7 1.673829 1_555
O18 Si5 1.622488 1_555
O19 Si4 1.640486 1_545
O20 Si5 1.613882 1_545
O21 Si6 1.619198 1_555
O22 Si7 1.673606 1_555
O23 Si7 1.660946 1_555
O24 Si7 1.653961 1_555
O25 Si4 1.620425 1_545
