# generated using pymatgen
data_V3Cr3(TeO8)2
_symmetry_space_group_name_H-M   'P 1'
_cell_length_a   5.90731712
_cell_length_b   5.90731712
_cell_length_c   9.43102559
_cell_angle_alpha   89.09570836
_cell_angle_beta   89.09570836
_cell_angle_gamma   60.15278620
_symmetry_Int_Tables_number   1
_chemical_formula_structural   V3Cr3(TeO8)2
_chemical_formula_sum   'V3 Cr3 Te2 O16'
_cell_volume   285.40689384
_cell_formula_units_Z   1
loop_
 _symmetry_equiv_pos_site_id
 _symmetry_equiv_pos_as_xyz
  1  'x, y, z'
loop_
 _atom_site_type_symbol
 _atom_site_label
 _atom_site_symmetry_multiplicity
 _atom_site_fract_x
 _atom_site_fract_y
 _atom_site_fract_z
 _atom_site_occupancy
  V  V0  1  0.82712500  0.82712500  0.77588200  1
  V  V1  1  0.65047000  0.17979000  0.27894500  1
  V  V2  1  0.17979000  0.65047000  0.27894500  1
  Cr  Cr0  1  0.83117400  0.34282700  0.78880800  1
  Cr  Cr1  1  0.34282700  0.83117400  0.78880800  1
  Cr  Cr2  1  0.17031200  0.17031200  0.29254000  1
  Te  Te0  1  0.66385100  0.66385100  0.50852800  1
  Te  Te1  1  0.33225400  0.33225400  0.00452400  1
  O  O0  1  0.82721700  0.33918400  0.40116900  1
  O  O1  1  0.52193300  0.52193300  0.66440600  1
  O  O2  1  0.67563200  0.67563200  0.89274700  1
  O  O3  1  0.99714300  0.99714300  0.70338100  1
  O  O4  1  0.99933700  0.99933700  0.20911500  1
  O  O5  1  0.33918400  0.82721700  0.40116900  1
  O  O6  1  0.96097600  0.52396000  0.65570700  1
  O  O7  1  0.52396000  0.96097600  0.65570700  1
  O  O8  1  0.16684400  0.16684400  0.90204700  1
  O  O9  1  0.82784000  0.82784000  0.39707800  1
  O  O10  1  0.48099800  0.04347800  0.16172200  1
  O  O11  1  0.04347800  0.48099800  0.16172200  1
  O  O12  1  0.33769100  0.33769100  0.39768700  1
  O  O13  1  0.66039400  0.16886000  0.89856000  1
  O  O14  1  0.48109800  0.48109800  0.15191700  1
  O  O15  1  0.16886000  0.66039400  0.89856000  1
loop_
_geom_bond_atom_site_label_1
_geom_bond_atom_site_label_2
_geom_bond_distance
_geom_bond_site_symmetry_2
Cr0 O3 1.953079 1_545
Cr0 O2 1.976001 1_555
Cr0 O1 1.984356 1_555
Cr0 O6 2.013081 1_555
Cr0 O13 2.027493 1_555
Cr0 O8 2.033010 1_655
Cr1 O3 1.953079 1_455
Cr1 O2 1.976001 1_555
Cr1 O1 1.984356 1_555
Cr1 O7 2.013081 1_555
Cr1 O15 2.027493 1_555
Cr1 O8 2.033010 1_565
Cr2 O4 1.929974 1_445
Cr2 O12 1.993409 1_555
Cr2 O10 2.010189 1_555
Cr2 O11 2.010189 1_555
Cr2 O0 2.026507 1_455
Cr2 O5 2.026507 1_545
O0 Te0 1.955249 1_555
O0 V1 2.087168 1_555
O1 Te0 2.046613 1_555
O2 V0 1.884519 1_555
O3 V0 1.856251 1_555
O4 V1 1.899956 1_565
O4 V2 1.899956 1_655
O5 Te0 1.955249 1_555
O5 V2 2.087168 1_555
O6 V0 1.934762 1_555
O6 Te0 2.070575 1_555
O7 V0 1.934762 1_555
O7 Te0 2.070575 1_555
O8 Te1 1.963059 1_556
O9 Te0 1.962527 1_555
O9 V2 2.111174 1_655
O9 V1 2.111174 1_565
O10 V1 1.933472 1_555
O10 Te1 2.085510 1_555
O11 V2 1.933472 1_555
O11 Te1 2.085510 1_555
O12 V1 1.946855 1_555
O12 V2 1.946855 1_555
O13 Te1 1.948022 1_556
O13 V0 2.107752 1_545
O14 V1 1.949947 1_555
O14 V2 1.949947 1_555
O14 Te1 2.079714 1_555
O15 Te1 1.948022 1_556
O15 V0 2.107752 1_455
