# generated using pymatgen
data_Li2Fe2OF4
_symmetry_space_group_name_H-M   'P 1'
_cell_length_a   3.03121300
_cell_length_b   5.19527299
_cell_length_c   12.66112500
_cell_angle_alpha   90.00005791
_cell_angle_beta   90.00004606
_cell_angle_gamma   73.03423567
_symmetry_Int_Tables_number   1
_chemical_formula_structural   Li2Fe2OF4
_chemical_formula_sum   'Li4 Fe4 O2 F8'
_cell_volume   190.70966037
_cell_formula_units_Z   2
loop_
 _symmetry_equiv_pos_site_id
 _symmetry_equiv_pos_as_xyz
  1  'x, y, z'
loop_
 _atom_site_type_symbol
 _atom_site_label
 _atom_site_symmetry_multiplicity
 _atom_site_fract_x
 _atom_site_fract_y
 _atom_site_fract_z
 _atom_site_occupancy
  Li  Li0  1  0.77139500  0.45714400  0.88554100  1
  Li  Li1  1  0.22860800  0.54285400  0.38554200  1
  Li  Li2  1  0.50484800  0.99012000  0.99469200  1
  Li  Li3  1  0.49515600  0.00987900  0.49469300  1
  Fe  Fe0  1  0.75873500  0.48256600  0.61416200  1
  Fe  Fe1  1  0.24125600  0.51743600  0.11416200  1
  Fe  Fe2  1  0.96051200  0.07918700  0.26194600  1
  Fe  Fe3  1  0.03947900  0.92081700  0.76194000  1
  O  O0  1  0.66745500  0.66482900  0.74997300  1
  O  O1  1  0.33253000  0.33516800  0.24997300  1
  F  F0  1  0.86574500  0.26849900  0.03411500  1
  F  F1  1  0.13425800  0.73150500  0.53410900  1
  F  F2  1  0.85224800  0.29544400  0.46459300  1
  F  F3  1  0.14776500  0.70455500  0.96458900  1
  F  F4  1  0.58744800  0.82511300  0.14228700  1
  F  F5  1  0.41256600  0.17488600  0.64228600  1
  F  F6  1  0.58029000  0.83914100  0.35269600  1
  F  F7  1  0.41970700  0.16085600  0.85269700  1
loop_
_geom_bond_atom_site_label_1
_geom_bond_atom_site_label_2
_geom_bond_distance
_geom_bond_site_symmetry_2
Li0 O0 2.002811 1_555
Li1 O1 2.002823 1_555
Fe0 O0 1.943459 1_555
Fe1 O1 1.943472 1_555
Fe2 O1 1.984362 1_555
Fe2 O1 1.984548 1_655
Fe3 O0 1.984356 1_555
Fe3 O0 1.984586 1_455
F0 Li0 2.101744 1_554
F0 Li2 2.111551 1_644
F0 Li2 2.112076 1_544
F0 Fe1 2.203251 1_555
F0 Fe1 2.203293 1_655
F1 Li1 2.101677 1_555
F1 Li3 2.111517 1_465
F1 Li3 2.112037 1_565
F1 Fe0 2.203264 1_555
F1 Fe0 2.203363 1_455
F2 Fe0 2.109679 1_555
F2 Li3 2.110710 1_555
F2 Li3 2.111102 1_655
F2 Li1 2.193038 1_555
F2 Li1 2.193439 1_655
F3 Fe1 2.109719 1_556
F3 Li2 2.110696 1_555
F3 Li2 2.111128 1_455
F3 Li0 2.193001 1_555
F3 Li0 2.193445 1_455
F4 Li2 2.040693 1_554
F4 Fe1 2.181919 1_655
F4 Fe1 2.182207 1_555
F4 Fe2 2.486991 1_465
F4 Fe2 2.487479 1_565
F5 Li3 2.040668 1_555
F5 Fe0 2.181972 1_455
F5 Fe0 2.182171 1_555
F5 Fe3 2.486902 1_645
F5 Fe3 2.487468 1_545
F6 Li3 1.987979 1_565
F6 Li1 2.153233 1_555
F6 Li1 2.153821 1_655
F6 Fe2 2.244454 1_465
F6 Fe2 2.245580 1_565
F7 Li2 1.987953 1_545
F7 Li0 2.153245 1_555
F7 Li0 2.153806 1_455
F7 Fe3 2.244476 1_645
F7 Fe3 2.245610 1_545
