# generated using pymatgen
data_Li5Ti8O16
_symmetry_space_group_name_H-M   'P 1'
_cell_length_a   5.32074900
_cell_length_b   7.66095755
_cell_length_c   7.87470303
_cell_angle_alpha   93.60168005
_cell_angle_beta   105.75671368
_cell_angle_gamma   108.82967811
_symmetry_Int_Tables_number   1
_chemical_formula_structural   Li5Ti8O16
_chemical_formula_sum   'Li5 Ti8 O16'
_cell_volume   288.37764001
_cell_formula_units_Z   1
loop_
 _symmetry_equiv_pos_site_id
 _symmetry_equiv_pos_as_xyz
  1  'x, y, z'
loop_
 _atom_site_type_symbol
 _atom_site_label
 _atom_site_symmetry_multiplicity
 _atom_site_fract_x
 _atom_site_fract_y
 _atom_site_fract_z
 _atom_site_occupancy
  Li  Li0  1  0.46047100  0.33148000  0.45929600  1
  Li  Li1  1  0.54717000  0.17891600  0.04168900  1
  Li  Li2  1  0.02089200  0.65961600  0.04251300  1
  Li  Li3  1  0.47403600  0.82478500  0.94810900  1
  Li  Li4  1  0.96673100  0.83164900  0.45821600  1
  Ti  Ti0  1  0.01990500  0.05815800  0.17904600  1
  Ti  Ti1  1  0.52370700  0.05806300  0.67959300  1
  Ti  Ti2  1  0.46975500  0.44252800  0.80816500  1
  Ti  Ti3  1  0.01153900  0.55052200  0.68021800  1
  Ti  Ti4  1  0.99637200  0.44352700  0.33170200  1
  Ti  Ti5  1  0.50568500  0.55355800  0.18288100  1
  Ti  Ti6  1  0.50225300  0.94447800  0.33042100  1
  Ti  Ti7  1  0.97871500  0.94628100  0.80722900  1
  O  O0  1  0.28518000  0.17438900  0.80598700  1
  O  O1  1  0.26727100  0.05186400  0.42604800  1
  O  O2  1  0.76381700  0.05034700  0.93219200  1
  O  O3  1  0.76857600  0.17513000  0.29155400  1
  O  O4  1  0.23719700  0.44089400  0.56735000  1
  O  O5  1  0.26917200  0.56080100  0.93381400  1
  O  O6  1  0.71560700  0.32543800  0.69169500  1
  O  O7  1  0.23442700  0.32370400  0.20887500  1
  O  O8  1  0.77669600  0.67645200  0.80858400  1
  O  O9  1  0.26443000  0.67541700  0.29291400  1
  O  O10  1  0.76461800  0.55531400  0.42752100  1
  O  O11  1  0.72153900  0.44950700  0.07549800  1
  O  O12  1  0.22538400  0.82451900  0.69925400  1
  O  O13  1  0.23694900  0.94625500  0.06992400  1
  O  O14  1  0.74407500  0.94344300  0.56611700  1
  O  O15  1  0.72973000  0.82451300  0.20014500  1
loop_
_geom_bond_atom_site_label_1
_geom_bond_atom_site_label_2
_geom_bond_distance
_geom_bond_site_symmetry_2
Li0 O6 1.973852 1_555
Li0 O4 1.984972 1_555
Li0 O7 1.997427 1_555
Li0 O1 2.018884 1_555
Li0 O10 2.025950 1_555
Li1 O11 1.945234 1_555
Li1 O0 1.986186 1_554
Li1 O3 2.007604 1_555
Li1 O2 2.051446 1_554
Li1 O13 2.073860 1_545
Li2 O11 1.953871 1_455
Li2 O8 1.984026 1_454
Li2 O9 2.015676 1_555
Li2 O5 2.056491 1_554
Li2 O13 2.089590 1_555
Li3 O5 1.942313 1_555
Li3 O2 1.947145 1_565
Li3 O12 2.044579 1_555
Li3 O15 2.079871 1_556
Li3 O13 2.163400 1_556
Li4 O14 1.992288 1_555
Li4 O1 1.999923 1_665
Li4 O10 2.005370 1_555
Li4 O12 2.035342 1_655
Li4 O15 2.067090 1_555
O0 Ti2 1.966899 1_555
O0 Ti7 1.970853 1_445
O0 Ti1 2.168006 1_555
O1 Ti6 1.975987 1_545
O1 Ti0 2.044577 1_555
O1 Ti1 2.077746 1_555
O2 Ti7 2.003076 1_545
O2 Ti0 2.033021 1_656
O2 Ti1 2.067777 1_555
O3 Ti4 1.974425 1_555
O3 Ti6 1.977675 1_545
O3 Ti0 2.166443 1_655
O4 Ti4 1.953402 1_455
O4 Ti2 1.959597 1_555
O4 Ti3 2.018330 1_555
O5 Ti2 2.006022 1_555
O5 Ti5 2.037593 1_556
O5 Ti3 2.072944 1_555
O6 Ti3 1.950666 1_655
O6 Ti1 1.954461 1_555
O6 Ti2 2.159327 1_555
O7 Ti5 1.947035 1_555
O7 Ti0 1.947303 1_555
O7 Ti4 2.164923 1_455
O8 Ti2 1.996458 1_555
O8 Ti7 2.000827 1_555
O8 Ti3 2.203523 1_655
O9 Ti4 1.988137 1_455
O9 Ti6 1.993515 1_555
O9 Ti5 2.132157 1_555
O10 Ti4 1.982200 1_555
O10 Ti5 2.037859 1_555
O10 Ti3 2.075482 1_655
O11 Ti5 1.924390 1_555
O11 Ti2 2.153429 1_554
O11 Ti4 2.159501 1_555
O12 Ti3 2.012298 1_555
O12 Ti1 2.019821 1_565
O12 Ti7 2.147646 1_455
O13 Ti0 1.972931 1_565
O13 Ti7 2.150282 1_454
O13 Ti6 2.155010 1_555
O14 Ti6 1.952408 1_555
O14 Ti7 1.963168 1_555
O14 Ti1 2.019763 1_565
O15 Ti0 2.002010 1_665
O15 Ti5 2.006888 1_555
O15 Ti6 2.153133 1_555
