# generated using pymatgen
data_Li2Ni2(SO4)3
_symmetry_space_group_name_H-M   'P 1'
_cell_length_a   7.75336150
_cell_length_b   7.75336150
_cell_length_c   8.74660989
_cell_angle_alpha   68.44846835
_cell_angle_beta   68.44846835
_cell_angle_gamma   66.78703854
_symmetry_Int_Tables_number   1
_chemical_formula_structural   Li2Ni2(SO4)3
_chemical_formula_sum   'Li4 Ni4 S6 O24'
_cell_volume   433.94913649
_cell_formula_units_Z   2
loop_
 _symmetry_equiv_pos_site_id
 _symmetry_equiv_pos_as_xyz
  1  'x, y, z'
loop_
 _atom_site_type_symbol
 _atom_site_label
 _atom_site_symmetry_multiplicity
 _atom_site_fract_x
 _atom_site_fract_y
 _atom_site_fract_z
 _atom_site_occupancy
  Li  Li0  1  0.67311500  0.86161800  0.05462200  1
  Li  Li1  1  0.86161800  0.67311500  0.55462200  1
  Li  Li2  1  0.13838200  0.32688500  0.44537800  1
  Li  Li3  1  0.32688500  0.13838200  0.94537800  1
  Ni  Ni0  1  0.36930000  0.87465400  0.48215200  1
  Ni  Ni1  1  0.87465400  0.36930000  0.98215200  1
  Ni  Ni2  1  0.12534600  0.63070000  0.01784800  1
  Ni  Ni3  1  0.63070000  0.12534600  0.51784800  1
  S  S0  1  0.74970200  0.53878800  0.32298600  1
  S  S1  1  0.53878800  0.74970200  0.82298600  1
  S  S2  1  0.05910700  0.94089300  0.25000000  1
  S  S3  1  0.94089300  0.05910700  0.75000000  1
  S  S4  1  0.46121200  0.25029800  0.17701400  1
  S  S5  1  0.25029800  0.46121200  0.67701400  1
  O  O0  1  0.87011200  0.94998000  0.38526100  1
  O  O1  1  0.94998000  0.87011200  0.88526100  1
  O  O2  1  0.87664500  0.50038000  0.42893200  1
  O  O3  1  0.61116700  0.73896300  0.31139900  1
  O  O4  1  0.86828200  0.54363500  0.13824600  1
  O  O5  1  0.50038000  0.87664500  0.92893200  1
  O  O6  1  0.21696500  0.90273800  0.32292800  1
  O  O7  1  0.65045700  0.39241300  0.38285700  1
  O  O8  1  0.73896300  0.61116700  0.81139900  1
  O  O9  1  0.54363500  0.86828200  0.63824600  1
  O  O10  1  0.90273800  0.21696500  0.82292800  1
  O  O11  1  0.60758700  0.34954300  0.11714300  1
  O  O12  1  0.39241300  0.65045700  0.88285700  1
  O  O13  1  0.09726200  0.78303500  0.17707200  1
  O  O14  1  0.45636500  0.13171800  0.36175400  1
  O  O15  1  0.26103700  0.38883300  0.18860100  1
  O  O16  1  0.34954300  0.60758700  0.61714300  1
  O  O17  1  0.78303500  0.09726200  0.67707200  1
  O  O18  1  0.49962000  0.12335500  0.07106800  1
  O  O19  1  0.13171800  0.45636500  0.86175400  1
  O  O20  1  0.38883300  0.26103700  0.68860100  1
  O  O21  1  0.12335500  0.49962000  0.57106800  1
  O  O22  1  0.05002000  0.12988800  0.11473900  1
  O  O23  1  0.12988800  0.05002000  0.61473900  1
loop_
_geom_bond_atom_site_label_1
_geom_bond_atom_site_label_2
_geom_bond_distance
_geom_bond_site_symmetry_2
Li0 O18 1.966926 1_565
Li0 O5 1.969879 1_554
Li0 O3 2.043932 1_555
Li0 O1 2.123750 1_554
Li0 O4 2.334638 1_555
Li1 O21 1.966926 1_655
Li1 O2 1.969879 1_555
Li1 O8 2.043932 1_555
Li1 O0 2.123750 1_555
Li1 O9 2.334638 1_555
Li2 O2 1.966926 1_455
Li2 O21 1.969879 1_555
Li2 O15 2.043932 1_555
Li2 O23 2.123750 1_555
Li2 O14 2.334638 1_555
Li3 O5 1.966926 1_545
Li3 O18 1.969879 1_556
Li3 O20 2.043932 1_555
Li3 O22 2.123750 1_556
Li3 O19 2.334638 1_555
Ni0 O16 2.006538 1_555
Ni0 O6 2.040809 1_555
Ni0 O23 2.055866 1_565
Ni0 O3 2.096561 1_555
Ni0 O14 2.129198 1_565
Ni0 O9 2.224212 1_555
Ni1 O11 2.006538 1_556
Ni1 O10 2.040809 1_555
Ni1 O22 2.055866 1_656
Ni1 O8 2.096561 1_555
Ni1 O19 2.129198 1_655
Ni1 O4 2.224212 1_556
Ni2 O12 2.006538 1_554
Ni2 O13 2.040809 1_555
Ni2 O1 2.055866 1_454
Ni2 O15 2.096561 1_555
Ni2 O4 2.129198 1_455
Ni2 O19 2.224212 1_554
Ni3 O7 2.006538 1_555
Ni3 O17 2.040809 1_555
Ni3 O0 2.055866 1_545
Ni3 O20 2.096561 1_555
Ni3 O9 2.129198 1_545
Ni3 O14 2.224212 1_555
O0 S2 1.502691 1_655
O1 S3 1.502691 1_565
O2 S0 1.467105 1_555
O3 S0 1.490993 1_555
O4 S0 1.532597 1_555
O5 S1 1.467105 1_555
O6 S2 1.463528 1_555
O7 S0 1.452608 1_555
O8 S1 1.490993 1_555
O9 S1 1.532597 1_555
O10 S3 1.463528 1_555
O11 S4 1.452608 1_555
O12 S1 1.452608 1_555
O13 S2 1.463528 1_555
O14 S4 1.532597 1_555
O15 S4 1.490993 1_555
O16 S5 1.452608 1_555
O17 S3 1.463528 1_555
O18 S4 1.467105 1_555
O19 S5 1.532597 1_555
O20 S5 1.490993 1_555
O21 S5 1.467105 1_555
O22 S2 1.502691 1_545
O23 S3 1.502691 1_455
