# generated using pymatgen
data_Na2Ti2O5
_symmetry_space_group_name_H-M   'P 1'
_cell_length_a   5.42743500
_cell_length_b   8.86482700
_cell_length_c   11.95519500
_cell_angle_alpha   90.00000000
_cell_angle_beta   90.00000000
_cell_angle_gamma   90.00000000
_symmetry_Int_Tables_number   1
_chemical_formula_structural   Na2Ti2O5
_chemical_formula_sum   'Na8 Ti8 O20'
_cell_volume   575.20355278
_cell_formula_units_Z   4
loop_
 _symmetry_equiv_pos_site_id
 _symmetry_equiv_pos_as_xyz
  1  'x, y, z'
loop_
 _atom_site_type_symbol
 _atom_site_label
 _atom_site_symmetry_multiplicity
 _atom_site_fract_x
 _atom_site_fract_y
 _atom_site_fract_z
 _atom_site_occupancy
  Na  Na0  1  0.45842600  0.93400300  0.77256700  1
  Na  Na1  1  0.37615400  0.81046300  0.30462700  1
  Na  Na2  1  0.87615400  0.68953700  0.80462700  1
  Na  Na3  1  0.95842600  0.56599700  0.27256700  1
  Na  Na4  1  0.45842600  0.43400300  0.72743300  1
  Na  Na5  1  0.37615400  0.31046300  0.19537300  1
  Na  Na6  1  0.87615400  0.18953700  0.69537300  1
  Na  Na7  1  0.95842600  0.06599700  0.22743300  1
  Ti  Ti0  1  0.48656400  0.95174300  0.07051200  1
  Ti  Ti1  1  0.84947300  0.89348400  0.48206200  1
  Ti  Ti2  1  0.34947300  0.60651600  0.98206200  1
  Ti  Ti3  1  0.98656400  0.54825700  0.57051200  1
  Ti  Ti4  1  0.48656400  0.45174300  0.42948800  1
  Ti  Ti5  1  0.84947300  0.39348400  0.01793800  1
  Ti  Ti6  1  0.34947300  0.10651600  0.51793800  1
  Ti  Ti7  1  0.98656400  0.04825700  0.92948800  1
  O  O0  1  0.88877200  0.95511500  0.80805000  1
  O  O1  1  0.82601800  0.97732600  0.05638400  1
  O  O2  1  0.50985100  0.92875500  0.47703100  1
  O  O3  1  0.94219600  0.83675800  0.34714000  1
  O  O4  1  0.91337600  0.74977000  0.59172700  1
  O  O5  1  0.41337600  0.75023000  0.09172700  1
  O  O6  1  0.44219600  0.66324200  0.84714000  1
  O  O7  1  0.00985100  0.57124500  0.97703100  1
  O  O8  1  0.32601800  0.52267400  0.55638400  1
  O  O9  1  0.38877200  0.54488500  0.30805000  1
  O  O10  1  0.88877200  0.45511500  0.69195000  1
  O  O11  1  0.82601800  0.47732600  0.44361600  1
  O  O12  1  0.50985100  0.42875500  0.02296900  1
  O  O13  1  0.94219600  0.33675800  0.15286000  1
  O  O14  1  0.91337600  0.24977000  0.90827300  1
  O  O15  1  0.41337600  0.25023000  0.40827300  1
  O  O16  1  0.44219600  0.16324200  0.65286000  1
  O  O17  1  0.00985100  0.07124500  0.52296900  1
  O  O18  1  0.32601800  0.02267400  0.94361600  1
  O  O19  1  0.38877200  0.04488500  0.19195000  1
loop_
_geom_bond_atom_site_label_1
_geom_bond_atom_site_label_2
_geom_bond_distance
_geom_bond_site_symmetry_2
Na0 O18 2.305652 1_565
Na0 O0 2.381251 1_555
Na0 O16 2.487078 1_565
Na0 O6 2.561990 1_555
Na1 O9 2.355654 1_555
Na1 O3 2.420742 1_455
Na1 O2 2.423719 1_555
Na1 O19 2.477468 1_565
Na1 O5 2.608500 1_555
Na2 O0 2.355654 1_555
Na2 O6 2.420742 1_555
Na2 O7 2.423719 1_655
Na2 O10 2.477468 1_555
Na2 O4 2.608500 1_555
Na3 O11 2.305652 1_555
Na3 O9 2.381251 1_655
Na3 O13 2.487078 1_555
Na3 O3 2.561990 1_555
Na4 O8 2.305652 1_555
Na4 O10 2.381251 1_555
Na4 O6 2.487078 1_555
Na4 O16 2.561990 1_555
Na5 O19 2.355654 1_555
Na5 O13 2.420742 1_455
Na5 O12 2.423719 1_555
Na5 O9 2.477468 1_555
Na5 O15 2.608500 1_555
Na6 O10 2.355654 1_555
Na6 O16 2.420742 1_555
Na6 O17 2.423719 1_655
Na6 O0 2.477468 1_545
Na6 O14 2.608500 1_555
Na7 O1 2.305652 1_545
Na7 O19 2.381251 1_655
Na7 O3 2.487078 1_545
Na7 O13 2.561990 1_555
O0 Ti7 1.752493 1_565
O1 Ti7 1.859066 1_564
O1 Ti0 1.863939 1_555
O2 Ti6 1.865489 1_565
O2 Ti1 1.870574 1_555
O3 Ti1 1.762941 1_555
O4 Ti3 1.847501 1_555
O4 Ti1 1.860715 1_555
O5 Ti0 1.847501 1_555
O5 Ti2 1.860715 1_554
O6 Ti2 1.762941 1_555
O7 Ti5 1.865489 1_456
O7 Ti2 1.870574 1_555
O8 Ti4 1.859066 1_555
O8 Ti3 1.863939 1_455
O9 Ti4 1.752493 1_555
O10 Ti3 1.752493 1_555
O11 Ti3 1.859066 1_555
O11 Ti4 1.863939 1_555
O12 Ti2 1.865489 1_554
O12 Ti5 1.870574 1_555
O13 Ti5 1.762941 1_555
O14 Ti7 1.847501 1_555
O14 Ti5 1.860715 1_556
O15 Ti4 1.847501 1_555
O15 Ti6 1.860715 1_555
O16 Ti6 1.762941 1_555
O17 Ti1 1.865489 1_445
O17 Ti6 1.870574 1_555
O18 Ti0 1.859066 1_546
O18 Ti7 1.863939 1_455
O19 Ti0 1.752493 1_545
