# generated using pymatgen
data_VCrO3
_symmetry_space_group_name_H-M   'P 1'
_cell_length_a   5.03828051
_cell_length_b   5.41324721
_cell_length_c   8.89454031
_cell_angle_alpha   85.15339314
_cell_angle_beta   73.64880116
_cell_angle_gamma   117.87386464
_symmetry_Int_Tables_number   1
_chemical_formula_structural   VCrO3
_chemical_formula_sum   'V4 Cr4 O12'
_cell_volume   198.97637091
_cell_formula_units_Z   4
loop_
 _symmetry_equiv_pos_site_id
 _symmetry_equiv_pos_as_xyz
  1  'x, y, z'
loop_
 _atom_site_type_symbol
 _atom_site_label
 _atom_site_symmetry_multiplicity
 _atom_site_fract_x
 _atom_site_fract_y
 _atom_site_fract_z
 _atom_site_occupancy
  V  V0  1  0.14603751  0.87378989  0.57373372  1
  V  V1  1  0.15234715  0.37139713  0.07815324  1
  V  V2  1  0.35829275  0.87644918  0.17179619  1
  V  V3  1  0.85244769  0.13053565  0.42472832  1
  Cr  Cr0  1  0.34490090  0.36953520  0.67629555  1
  Cr  Cr1  1  0.65459108  0.63093184  0.32479718  1
  Cr  Cr2  1  0.64808791  0.12567453  0.82658468  1
  Cr  Cr3  1  0.85098145  0.62326940  0.92419372  1
  O  O0  1  0.05202183  0.52386617  0.72273826  1
  O  O1  1  0.05318222  0.02487033  0.22247781  1
  O  O2  1  0.44540665  0.87384663  0.37314894  1
  O  O3  1  0.56265803  0.62432474  0.12466951  1
  O  O4  1  0.24772049  0.77247960  0.97251857  1
  O  O5  1  0.25142064  0.28173346  0.47166037  1
  O  O6  1  0.74479301  0.72040544  0.52884680  1
  O  O7  1  0.74823189  0.22485493  0.02673429  1
  O  O8  1  0.44674082  0.37479630  0.87504725  1
  O  O9  1  0.55225682  0.12658139  0.62665475  1
  O  O10  1  0.94364751  0.97381605  0.77770779  1
  O  O11  1  0.94423267  0.47684113  0.27751205  1
loop_
_geom_bond_atom_site_label_1
_geom_bond_atom_site_label_2
_geom_bond_distance
_geom_bond_site_symmetry_2
Cr0 O8 1.973519 1_555
Cr0 O6 1.974821 1_555
Cr0 O0 1.978336 1_555
Cr0 O10 2.021570 1_445
Cr0 O9 2.034503 1_555
Cr0 O5 2.044543 1_555
Cr1 O3 1.960579 1_555
Cr1 O11 1.963187 1_555
Cr1 O5 1.975880 1_555
Cr1 O1 2.011797 1_665
Cr1 O6 2.035244 1_555
Cr1 O2 2.039867 1_555
Cr2 O9 1.969673 1_555
Cr2 O4 1.977242 1_545
Cr2 O10 1.980585 1_545
Cr2 O7 2.031263 1_556
Cr2 O0 2.035796 1_655
Cr2 O8 2.040763 1_555
Cr3 O3 1.959809 1_556
Cr3 O4 1.966072 1_655
Cr3 O10 1.981859 1_555
Cr3 O7 2.027079 1_556
Cr3 O0 2.043745 1_655
Cr3 O8 2.046319 1_555
O0 V0 1.988036 1_555
O1 V1 1.942141 1_555
O1 V2 2.009402 1_545
O1 V3 2.067983 1_455
O2 V2 1.960716 1_555
O2 V0 1.985536 1_555
O2 V3 2.078436 1_565
O3 V1 2.061569 1_555
O3 V2 2.065493 1_555
O4 V2 2.049433 1_556
O4 V1 2.062326 1_556
O5 V3 1.968911 1_455
O5 V0 2.067903 1_545
O6 V0 1.968894 1_655
O6 V3 2.079569 1_565
O7 V2 1.943820 1_545
O7 V1 2.014770 1_655
O8 V1 1.980925 1_556
O9 V3 1.986826 1_555
O9 V0 2.077353 1_545
O10 V0 2.065218 1_655
O11 V3 1.968850 1_555
O11 V2 2.060997 1_655
O11 V1 2.062351 1_655
