# generated using pymatgen
data_Li3CoSiO5
_symmetry_space_group_name_H-M   'P 1'
_cell_length_a   4.95279700
_cell_length_b   5.48226100
_cell_length_c   15.73724000
_cell_angle_alpha   90.00000000
_cell_angle_beta   90.00000000
_cell_angle_gamma   90.00000000
_symmetry_Int_Tables_number   1
_chemical_formula_structural   Li3CoSiO5
_chemical_formula_sum   'Li12 Co4 Si4 O20'
_cell_volume   427.30581566
_cell_formula_units_Z   4
loop_
 _symmetry_equiv_pos_site_id
 _symmetry_equiv_pos_as_xyz
  1  'x, y, z'
loop_
 _atom_site_type_symbol
 _atom_site_label
 _atom_site_symmetry_multiplicity
 _atom_site_fract_x
 _atom_site_fract_y
 _atom_site_fract_z
 _atom_site_occupancy
  Li  Li0  1  0.99872300  0.16815800  0.09318800  1
  Li  Li1  1  0.99872300  0.66815800  0.40681200  1
  Li  Li2  1  0.50141100  0.83671100  0.49512500  1
  Li  Li3  1  0.50141100  0.33671100  0.00487500  1
  Li  Li4  1  0.50507900  0.82975200  0.30375400  1
  Li  Li5  1  0.50507900  0.32975200  0.19624600  1
  Li  Li6  1  0.49872300  0.83184200  0.90681200  1
  Li  Li7  1  0.49872300  0.33184200  0.59318800  1
  Li  Li8  1  0.00141100  0.16328900  0.50487500  1
  Li  Li9  1  0.00141100  0.66328900  0.99512500  1
  Li  Li10  1  0.00507900  0.67024800  0.80375400  1
  Li  Li11  1  0.00507900  0.17024800  0.69624600  1
  Co  Co0  1  0.99992700  0.67747000  0.19957600  1
  Co  Co1  1  0.99992700  0.17747000  0.30042400  1
  Co  Co2  1  0.49992700  0.82253000  0.69957600  1
  Co  Co3  1  0.49992700  0.32253000  0.80042400  1
  Si  Si0  1  0.00759900  0.66253000  0.59821200  1
  Si  Si1  1  0.00759900  0.16253000  0.90178800  1
  Si  Si2  1  0.50759900  0.83747000  0.09821200  1
  Si  Si3  1  0.50759900  0.33747000  0.40178800  1
  O  O0  1  0.09219900  0.84974400  0.29766400  1
  O  O1  1  0.09219900  0.34974400  0.20233600  1
  O  O2  1  0.10232500  0.87890300  0.89834000  1
  O  O3  1  0.10232500  0.37890300  0.60166000  1
  O  O4  1  0.10370600  0.81407900  0.51503100  1
  O  O5  1  0.10370600  0.31407900  0.98496900  1
  O  O6  1  0.11637900  0.80710700  0.68751600  1
  O  O7  1  0.11637900  0.30710700  0.81248400  1
  O  O8  1  0.16765400  0.82586600  0.10582100  1
  O  O9  1  0.16765400  0.32586600  0.39417900  1
  O  O10  1  0.59219900  0.15025600  0.70233600  1
  O  O11  1  0.59219900  0.65025600  0.79766400  1
  O  O12  1  0.60232500  0.12109700  0.10166000  1
  O  O13  1  0.60232500  0.62109700  0.39834000  1
  O  O14  1  0.60370600  0.68592100  0.01503100  1
  O  O15  1  0.60370600  0.18592100  0.48496900  1
  O  O16  1  0.61637900  0.69289300  0.18751600  1
  O  O17  1  0.61637900  0.19289300  0.31248400  1
  O  O18  1  0.66765400  0.67413400  0.60582100  1
  O  O19  1  0.66765400  0.17413400  0.89417900  1
loop_
_geom_bond_atom_site_label_1
_geom_bond_atom_site_label_2
_geom_bond_distance
_geom_bond_site_symmetry_2
Li0 O5 1.952118 1_654
Li0 O12 1.984642 1_555
Li0 O1 2.038582 1_655
Li0 O8 2.064204 1_645
Li1 O4 1.952118 1_655
Li1 O13 1.984642 1_555
Li1 O0 2.038582 1_655
Li1 O9 2.064204 1_655
Li2 O15 1.986805 1_565
Li2 O13 1.991727 1_555
Li2 O4 1.998363 1_555
Li2 O18 2.122986 1_555
Li3 O14 1.986805 1_555
Li3 O12 1.991727 1_555
Li3 O5 1.998363 1_554
Li3 O19 2.122986 1_554
Li4 O13 1.938088 1_555
Li4 O0 2.050087 1_555
Li4 O16 2.052567 1_555
Li4 O17 2.070306 1_565
Li5 O12 1.938088 1_555
Li5 O1 2.050087 1_555
Li5 O17 2.052567 1_555
Li5 O16 2.070306 1_555
Li6 O14 1.952118 1_556
Li6 O2 1.984642 1_555
Li6 O11 2.038582 1_555
Li6 O19 2.064204 1_565
Li7 O15 1.952118 1_555
Li7 O3 1.984642 1_555
Li7 O10 2.038582 1_555
Li7 O18 2.064204 1_555
Li8 O4 1.986805 1_545
Li8 O3 1.991727 1_555
Li8 O15 1.998363 1_455
Li8 O9 2.122986 1_555
Li9 O5 1.986805 1_555
Li9 O2 1.991727 1_555
Li9 O14 1.998363 1_456
Li9 O8 2.122986 1_556
Li10 O2 1.938088 1_555
Li10 O11 2.050087 1_455
Li10 O6 2.052567 1_555
Li10 O7 2.070306 1_555
Li11 O3 1.938088 1_555
Li11 O10 2.050087 1_455
Li11 O7 2.052567 1_555
Li11 O6 2.070306 1_545
Co0 O1 1.854399 1_655
Co0 O0 1.866453 1_655
Co0 O8 1.878533 1_655
Co0 O16 1.910964 1_555
Co1 O0 1.854399 1_645
Co1 O1 1.866453 1_655
Co1 O9 1.878533 1_655
Co1 O17 1.910964 1_555
Co2 O10 1.854399 1_565
Co2 O11 1.866453 1_555
Co2 O18 1.878533 1_555
Co2 O6 1.910964 1_555
Co3 O11 1.854399 1_555
Co3 O10 1.866453 1_555
Co3 O19 1.878533 1_555
Co3 O7 1.910964 1_555
O2 Si1 1.625061 1_565
O3 Si0 1.625061 1_555
O4 Si0 1.621863 1_555
O5 Si1 1.621863 1_555
O6 Si0 1.701071 1_555
O7 Si1 1.701071 1_555
O8 Si2 1.689130 1_555
O9 Si3 1.689130 1_555
O12 Si2 1.625061 1_545
O13 Si3 1.625061 1_555
O14 Si2 1.621863 1_555
O15 Si3 1.621863 1_555
O16 Si2 1.701071 1_555
O17 Si3 1.701071 1_555
O18 Si0 1.689130 1_655
O19 Si1 1.689130 1_655
