# generated using pymatgen
data_LiMn2O3
_symmetry_space_group_name_H-M   'P 1'
_cell_length_a   5.25119366
_cell_length_b   5.25111036
_cell_length_c   10.13882529
_cell_angle_alpha   86.01534244
_cell_angle_beta   93.98113187
_cell_angle_gamma   62.88432467
_symmetry_Int_Tables_number   1
_chemical_formula_structural   LiMn2O3
_chemical_formula_sum   'Li4 Mn8 O12'
_cell_volume   246.62961133
_cell_formula_units_Z   4
loop_
 _symmetry_equiv_pos_site_id
 _symmetry_equiv_pos_as_xyz
  1  'x, y, z'
loop_
 _atom_site_type_symbol
 _atom_site_label
 _atom_site_symmetry_multiplicity
 _atom_site_fract_x
 _atom_site_fract_y
 _atom_site_fract_z
 _atom_site_occupancy
  Li  Li0  1  0.42976500  0.43004800  0.74915600  1
  Li  Li1  1  0.57006600  0.57014400  0.24913000  1
  Li  Li2  1  0.74470000  0.75389300  0.75038500  1
  Li  Li3  1  0.24621100  0.25519800  0.25031600  1
  Mn  Mn0  1  0.00599400  0.50110900  0.50150800  1
  Mn  Mn1  1  0.49892300  0.99387400  0.00155600  1
  Mn  Mn2  1  0.66632500  0.17109100  0.50046400  1
  Mn  Mn3  1  0.82891900  0.33361800  0.00057800  1
  Mn  Mn4  1  0.08156000  0.08672200  0.75136000  1
  Mn  Mn5  1  0.91348100  0.91826600  0.25141800  1
  Mn  Mn6  1  0.16862700  0.65791500  0.99912300  1
  Mn  Mn7  1  0.34226700  0.83105600  0.49910300  1
  O  O0  1  0.07268100  0.79277900  0.61782600  1
  O  O1  1  0.20718800  0.92737400  0.11781200  1
  O  O2  1  0.78697100  0.06781200  0.88262900  1
  O  O3  1  0.93218100  0.21305700  0.38263900  1
  O  O4  1  0.09456100  0.39662800  0.88498700  1
  O  O5  1  0.60346200  0.90541300  0.38501100  1
  O  O6  1  0.40496000  0.09865500  0.61378900  1
  O  O7  1  0.90138400  0.59509000  0.11377500  1
  O  O8  1  0.42893400  0.71009000  0.87925500  1
  O  O9  1  0.29000300  0.57102600  0.37930100  1
  O  O10  1  0.71324900  0.43250300  0.61943500  1
  O  O11  1  0.56758500  0.28664100  0.11944400  1
loop_
_geom_bond_atom_site_label_1
_geom_bond_atom_site_label_2
_geom_bond_distance
_geom_bond_site_symmetry_2
Li0 O8 2.041300 1_555
Li0 O10 2.057421 1_555
Li0 O0 2.227579 1_555
Li0 O2 2.237239 1_555
Li0 O6 2.332934 1_555
Li0 O4 2.368622 1_555
Li1 O9 2.041777 1_555
Li1 O11 2.057334 1_555
Li1 O1 2.228169 1_555
Li1 O3 2.236893 1_555
Li1 O7 2.332754 1_555
Li1 O5 2.369219 1_555
Li2 O6 2.177742 1_565
Li2 O4 2.216160 1_655
Li2 O8 2.261920 1_555
Li2 O2 2.272380 1_565
Li2 O10 2.274472 1_555
Li2 O0 2.327695 1_655
Li3 O7 2.177910 1_455
Li3 O5 2.216443 1_545
Li3 O9 2.262935 1_555
Li3 O3 2.273048 1_455
Li3 O11 2.273844 1_555
Li3 O1 2.326995 1_545
Mn0 O0 2.131154 1_555
Mn0 O9 2.141667 1_555
Mn0 O3 2.147929 1_455
Mn0 O10 2.150049 1_455
Mn0 O6 2.334476 1_555
Mn0 O5 2.363144 1_455
Mn1 O1 2.130575 1_555
Mn1 O8 2.141510 1_554
Mn1 O2 2.148519 1_564
Mn1 O11 2.150091 1_565
Mn1 O7 2.333836 1_555
Mn1 O4 2.364082 1_564
Mn2 O10 1.974132 1_555
Mn2 O3 1.974859 1_555
Mn2 O6 1.995659 1_555
Mn2 O5 2.004646 1_545
Mn2 O9 2.312117 1_555
Mn2 O0 2.317402 1_645
Mn3 O11 1.973180 1_555
Mn3 O2 1.975469 1_554
Mn3 O7 1.995443 1_555
Mn3 O4 2.005656 1_654
Mn3 O8 2.313233 1_554
Mn3 O1 2.316506 1_645
Mn4 O0 2.136564 1_545
Mn4 O2 2.140507 1_455
Mn4 O4 2.209823 1_555
Mn4 O10 2.220050 1_455
Mn4 O8 2.224145 1_545
Mn4 O6 2.290675 1_555
Mn5 O1 2.136426 1_655
Mn5 O3 2.140694 1_565
Mn5 O5 2.209770 1_555
Mn5 O11 2.220665 1_565
Mn5 O9 2.223561 1_655
Mn5 O7 2.290542 1_555
Mn6 O8 1.986538 1_555
Mn6 O1 1.988766 1_556
Mn6 O4 2.004376 1_555
Mn6 O7 2.006170 1_456
Mn6 O11 2.295539 1_556
Mn6 O2 2.330279 1_465
Mn7 O9 1.985186 1_555
Mn7 O0 1.988907 1_555
Mn7 O5 2.004375 1_555
Mn7 O6 2.007644 1_565
Mn7 O10 2.293929 1_555
Mn7 O3 2.331395 1_465
