# generated using pymatgen
data_Li4VFe3O8
_symmetry_space_group_name_H-M   'P 1'
_cell_length_a   5.08180700
_cell_length_b   5.67760500
_cell_length_c   6.56522469
_cell_angle_alpha   90.78611150
_cell_angle_beta   90.34174024
_cell_angle_gamma   89.99766885
_symmetry_Int_Tables_number   1
_chemical_formula_structural   Li4VFe3O8
_chemical_formula_sum   'Li4 V1 Fe3 O8'
_cell_volume   189.40190067
_cell_formula_units_Z   1
loop_
 _symmetry_equiv_pos_site_id
 _symmetry_equiv_pos_as_xyz
  1  'x, y, z'
loop_
 _atom_site_type_symbol
 _atom_site_label
 _atom_site_symmetry_multiplicity
 _atom_site_fract_x
 _atom_site_fract_y
 _atom_site_fract_z
 _atom_site_occupancy
  Li  Li0  1  0.98790200  0.08825500  0.62072200  1
  Li  Li1  1  0.49930200  0.42147700  0.12813800  1
  Li  Li2  1  0.99162100  0.57632400  0.87562700  1
  Li  Li3  1  0.49550900  0.90918000  0.37255200  1
  V  V0  1  0.48748000  0.90894400  0.87024200  1
  Fe  Fe0  1  0.99033200  0.08523400  0.12982400  1
  Fe  Fe1  1  0.49333900  0.41769100  0.62142900  1
  Fe  Fe2  1  0.00533900  0.58416100  0.37445900  1
  O  O0  1  0.37177500  0.07230300  0.10563600  1
  O  O1  1  0.39158100  0.07215300  0.65016700  1
  O  O2  1  0.88964800  0.40737400  0.13245300  1
  O  O3  1  0.89976100  0.43029900  0.61136600  1
  O  O4  1  0.37829900  0.58237000  0.37239100  1
  O  O5  1  0.39640000  0.60407300  0.88541300  1
  O  O6  1  0.88959000  0.91303100  0.36328800  1
  O  O7  1  0.85852200  0.92712900  0.88629300  1
loop_
_geom_bond_atom_site_label_1
_geom_bond_atom_site_label_2
_geom_bond_distance
_geom_bond_site_symmetry_2
Li0 O3 1.994644 1_555
Li0 O6 2.009887 1_545
Li0 O1 2.061501 1_655
Li0 O7 2.089632 1_545
Li1 O4 1.937925 1_555
Li1 O5 1.980643 1_554
Li1 O2 1.985324 1_555
Li1 O0 2.088765 1_555
Li2 O3 1.966258 1_555
Li2 O2 2.021512 1_556
Li2 O5 2.063591 1_655
Li2 O7 2.103812 1_555
Li3 O4 1.948766 1_555
Li3 O6 2.004059 1_555
Li3 O0 2.086923 1_565
Li3 O1 2.102894 1_565
Fe0 O2 1.899062 1_555
Fe0 O6 1.902056 1_545
Fe0 O7 1.938720 1_544
Fe0 O0 1.947157 1_655
Fe1 O4 1.979812 1_555
Fe1 O1 2.040387 1_555
Fe1 O3 2.068082 1_555
Fe1 O5 2.079898 1_555
Fe2 O3 1.875463 1_455
Fe2 O4 1.895466 1_555
Fe2 O2 1.955153 1_455
Fe2 O6 1.959832 1_455
O0 V0 1.888316 1_544
O1 V0 1.792212 1_545
O5 V0 1.796007 1_555
O7 V0 1.890625 1_555
