# generated using pymatgen
data_FeOF
_symmetry_space_group_name_H-M   'P 1'
_cell_length_a   3.08859600
_cell_length_b   14.13318100
_cell_length_c   14.13554159
_cell_angle_alpha   89.89987095
_cell_angle_beta   90.00000000
_cell_angle_gamma   90.00000000
_symmetry_Int_Tables_number   1
_chemical_formula_structural   FeOF
_chemical_formula_sum   'Fe18 O18 F18'
_cell_volume   617.03928478
_cell_formula_units_Z   18
loop_
 _symmetry_equiv_pos_site_id
 _symmetry_equiv_pos_as_xyz
  1  'x, y, z'
loop_
 _atom_site_type_symbol
 _atom_site_label
 _atom_site_symmetry_multiplicity
 _atom_site_fract_x
 _atom_site_fract_y
 _atom_site_fract_z
 _atom_site_occupancy
  Fe  Fe0  1  0.00000000  0.01399500  0.99355000  1
  Fe  Fe1  1  0.00000000  0.98783800  0.67061800  1
  Fe  Fe2  1  0.00000000  0.98586700  0.34095700  1
  Fe  Fe3  1  0.50000000  0.83236400  0.82134500  1
  Fe  Fe4  1  0.50000000  0.84019400  0.51148900  1
  Fe  Fe5  1  0.50000000  0.84508800  0.17222800  1
  Fe  Fe6  1  0.00000000  0.65385500  0.99964700  1
  Fe  Fe7  1  0.00000000  0.67551100  0.66765500  1
  Fe  Fe8  1  0.00000000  0.66057600  0.33178000  1
  Fe  Fe9  1  0.50000000  0.48522500  0.49976900  1
  Fe  Fe10  1  0.50000000  0.51676300  0.82840100  1
  Fe  Fe11  1  0.50000000  0.51281000  0.16918700  1
  Fe  Fe12  1  0.00000000  0.32118500  0.00114400  1
  Fe  Fe13  1  0.00000000  0.33393600  0.65552000  1
  Fe  Fe14  1  0.00000000  0.32944000  0.34515600  1
  Fe  Fe15  1  0.50000000  0.16985300  0.84291800  1
  Fe  Fe16  1  0.50000000  0.17685800  0.50329300  1
  Fe  Fe17  1  0.50000000  0.16267300  0.15458000  1
  O  O0  1  0.50000000  0.93975800  0.73682600  1
  O  O1  1  0.50000000  0.92983600  0.39971100  1
  O  O2  1  0.00000000  0.90082600  0.56579000  1
  O  O3  1  0.00000000  0.90083000  0.22948200  1
  O  O4  1  0.00000000  0.76928500  0.77145900  1
  O  O5  1  0.50000000  0.73116300  0.59774000  1
  O  O6  1  0.50000000  0.60219400  0.72371700  1
  O  O7  1  0.50000000  0.60473900  0.06732100  1
  O  O8  1  0.00000000  0.56625800  0.89616600  1
  O  O9  1  0.00000000  0.56403600  0.23678300  1
  O  O10  1  0.00000000  0.43773400  0.42964700  1
  O  O11  1  0.50000000  0.40006100  0.60578600  1
  O  O12  1  0.50000000  0.26405200  0.39577800  1
  O  O13  1  0.50000000  0.26981700  0.06761000  1
  O  O14  1  0.00000000  0.23413100  0.89515500  1
  O  O15  1  0.00000000  0.22817700  0.56806600  1
  O  O16  1  0.00000000  0.09584200  0.10386700  1
  O  O17  1  0.50000000  0.06276300  0.92903700  1
  F  F0  1  0.50000000  0.93051000  0.05963900  1
  F  F1  1  0.00000000  0.89711200  0.90433200  1
  F  F2  1  0.00000000  0.76446200  0.42783100  1
  F  F3  1  0.00000000  0.77183400  0.10324500  1
  F  F4  1  0.50000000  0.73683100  0.94024200  1
  F  F5  1  0.50000000  0.73239500  0.26555900  1
  F  F6  1  0.50000000  0.60435000  0.40520200  1
  F  F7  1  0.00000000  0.56403000  0.55854000  1
  F  F8  1  0.00000000  0.42849700  0.77227900  1
  F  F9  1  0.00000000  0.43691400  0.10148700  1
  F  F10  1  0.50000000  0.39981400  0.93690400  1
  F  F11  1  0.50000000  0.39441700  0.26148000  1
  F  F12  1  0.50000000  0.26688000  0.73180600  1
  F  F13  1  0.00000000  0.23038200  0.23169300  1
  F  F14  1  0.00000000  0.10592700  0.76168400  1
  F  F15  1  0.00000000  0.09806000  0.43620800  1
  F  F16  1  0.50000000  0.06467200  0.60050400  1
  F  F17  1  0.50000000  0.06738200  0.27218400  1
loop_
_geom_bond_atom_site_label_1
_geom_bond_atom_site_label_2
_geom_bond_distance
_geom_bond_site_symmetry_2
Fe0 O17 1.920763 1_455
Fe0 O17 1.920763 1_555
Fe0 O16 1.943217 1_556
Fe1 O2 1.927279 1_555
Fe1 O0 1.928800 1_555
Fe1 O0 1.928800 1_455
Fe2 O1 1.923388 1_555
Fe2 O1 1.923388 1_455
Fe2 O3 1.983448 1_555
Fe3 O4 1.918097 1_655
Fe3 O4 1.918097 1_555
Fe3 O0 1.929973 1_555
Fe4 O2 1.926303 1_555
Fe4 O2 1.926303 1_655
Fe4 O5 1.963272 1_555
Fe4 O1 2.023522 1_555
Fe5 O3 1.913825 1_555
Fe5 O3 1.913825 1_655
Fe6 O8 1.917994 1_555
Fe6 O7 1.944094 1_456
Fe6 O7 1.944094 1_556
Fe7 O4 1.978971 1_555
Fe7 O5 1.994366 1_555
Fe7 O5 1.994366 1_455
Fe7 O6 2.020818 1_455
Fe7 O6 2.020818 1_555
Fe8 O9 1.916048 1_555
Fe9 O11 1.920486 1_555
Fe9 O10 1.954531 1_655
Fe9 O10 1.954531 1_555
Fe10 O6 1.908220 1_555
Fe10 O8 1.947843 1_555
Fe10 O8 1.947843 1_655
Fe11 O7 1.937759 1_555
Fe11 O9 1.955613 1_555
Fe11 O9 1.955613 1_655
Fe12 O14 1.940320 1_554
Fe12 O13 1.947373 1_455
Fe12 O13 1.947373 1_555
Fe13 O11 1.936540 1_455
Fe13 O11 1.936540 1_555
Fe13 O15 1.941348 1_555
Fe14 O12 1.936135 1_455
Fe14 O12 1.936135 1_555
Fe14 O10 1.943027 1_555
Fe15 O14 1.938484 1_655
Fe15 O14 1.938484 1_555
Fe15 O17 1.940676 1_555
Fe16 O15 1.936896 1_555
Fe16 O15 1.936896 1_655
Fe16 O12 1.954949 1_555
Fe17 O16 1.947627 1_555
Fe17 O16 1.947627 1_655
Fe17 O13 1.948820 1_555
F0 Fe5 1.995924 1_555
F0 Fe0 2.155441 1_564
F0 Fe0 2.155441 1_664
F1 Fe0 2.080057 1_565
F1 Fe3 2.145249 1_555
F1 Fe3 2.145249 1_455
F2 Fe8 2.001533 1_555
F2 Fe4 2.221108 1_455
F2 Fe4 2.221108 1_555
F3 Fe5 2.100262 1_455
F3 Fe5 2.100262 1_555
F3 Fe6 2.221109 1_554
F4 Fe6 2.112299 1_655
F4 Fe6 2.112299 1_555
F4 Fe3 2.154004 1_555
F5 Fe5 2.066372 1_555
F5 Fe8 2.070761 1_655
F5 Fe8 2.070761 1_555
F6 Fe8 2.022523 1_555
F6 Fe8 2.022523 1_655
F6 Fe9 2.147932 1_555
F7 Fe9 2.078154 1_455
F7 Fe9 2.078154 1_555
F7 Fe7 2.206796 1_555
F8 Fe13 2.125510 1_555
F8 Fe10 2.138660 1_555
F8 Fe10 2.138660 1_455
F9 Fe11 2.110647 1_555
F9 Fe11 2.110647 1_455
F9 Fe12 2.166847 1_555
F10 Fe12 2.107333 1_656
F10 Fe12 2.107333 1_556
F10 Fe10 2.252882 1_555
F11 Fe11 2.119956 1_555
F11 Fe14 2.150214 1_555
F11 Fe14 2.150214 1_655
F12 Fe15 2.083221 1_555
F12 Fe13 2.107670 1_555
F12 Fe13 2.107670 1_655
F13 Fe17 2.119532 1_455
F13 Fe17 2.119532 1_555
F13 Fe14 2.130782 1_555
F14 Fe1 2.109511 1_545
F14 Fe15 2.126809 1_555
F14 Fe15 2.126809 1_455
F15 Fe2 2.081967 1_545
F15 Fe16 2.127919 1_455
F15 Fe16 2.127919 1_555
F16 Fe16 2.096323 1_555
F16 Fe1 2.131331 1_645
F16 Fe1 2.131331 1_545
F17 Fe17 2.137642 1_555
F17 Fe2 2.157142 1_645
F17 Fe2 2.157142 1_545
