# generated using pymatgen
data_LiCo5O7F
_symmetry_space_group_name_H-M   'P 1'
_cell_length_a   5.70184111
_cell_length_b   5.69913261
_cell_length_c   9.77986549
_cell_angle_alpha   89.97786637
_cell_angle_beta   73.05563487
_cell_angle_gamma   120.01068792
_symmetry_Int_Tables_number   1
_chemical_formula_structural   LiCo5O7F
_chemical_formula_sum   'Li2 Co10 O14 F2'
_cell_volume   259.11818900
_cell_formula_units_Z   2
loop_
 _symmetry_equiv_pos_site_id
 _symmetry_equiv_pos_as_xyz
  1  'x, y, z'
loop_
 _atom_site_type_symbol
 _atom_site_label
 _atom_site_symmetry_multiplicity
 _atom_site_fract_x
 _atom_site_fract_y
 _atom_site_fract_z
 _atom_site_occupancy
  Li  Li0  1  0.99020576  0.99495670  0.01338809  1
  Li  Li1  1  0.99026580  0.49527300  0.51338187  1
  Co  Co0  1  0.75511235  0.37761981  0.86738043  1
  Co  Co1  1  0.38024830  0.93694030  0.68303319  1
  Co  Co2  1  0.38020273  0.43682435  0.18302144  1
  Co  Co3  1  0.87386759  0.93701231  0.68299819  1
  Co  Co4  1  0.87383490  0.43688656  0.18298924  1
  Co  Co5  1  0.75510912  0.87759896  0.36738055  1
  Co  Co6  1  0.37405070  0.68700609  0.93901354  1
  Co  Co7  1  0.37407319  0.18707301  0.43901336  1
  Co  Co8  1  0.38021671  0.44337002  0.68302156  1
  Co  Co9  1  0.38018677  0.94326136  0.18302950  1
  O  O0  1  0.61452584  0.80743251  0.57843234  1
  O  O1  1  0.61448600  0.30731827  0.07843014  1
  O  O2  1  0.16602695  0.58290329  0.80462260  1
  O  O3  1  0.16601910  0.08282612  0.30463213  1
  O  O4  1  0.61237646  0.58296895  0.80459747  1
  O  O5  1  0.61231474  0.08289763  0.30461816  1
  O  O6  1  0.61266233  0.02959636  0.80446563  1
  O  O7  1  0.61268971  0.52959028  0.30443000  1
  O  O8  1  0.13882309  0.34722709  0.06973768  1
  O  O9  1  0.13887665  0.84738877  0.56976098  1
  O  O10  1  0.13917207  0.79165165  0.06957766  1
  O  O11  1  0.13920507  0.29179386  0.56956539  1
  O  O12  1  0.58288178  0.79153740  0.06962208  1
  O  O13  1  0.58293070  0.29166356  0.56962054  1
  F  F0  1  0.12980309  0.56463964  0.30511642  1
  F  F1  1  0.12982549  0.06473617  0.80512781  1
loop_
_geom_bond_atom_site_label_1
_geom_bond_atom_site_label_2
_geom_bond_distance
_geom_bond_site_symmetry_2
Li0 O12 1.897915 1_555
Li0 O10 1.903147 1_655
Li0 O8 1.903583 1_665
Li1 O13 1.897964 1_555
Li1 O9 1.902971 1_655
Li1 O11 1.903819 1_655
Co0 O4 1.911151 1_555
Co0 O6 1.911292 1_555
Co0 O2 1.911594 1_655
Co0 O1 1.943458 1_556
Co1 O0 1.888379 1_555
Co1 O13 1.888591 1_565
Co1 O9 1.888981 1_555
Co1 O6 1.913939 1_565
Co1 O2 1.913975 1_555
Co1 F1 2.010530 1_565
Co2 O1 1.888365 1_555
Co2 O12 1.888495 1_555
Co2 O8 1.889081 1_555
Co2 O3 1.913918 1_555
Co2 O7 1.914009 1_555
Co2 F0 2.010516 1_555
Co3 O0 1.888766 1_555
Co3 O9 1.888825 1_655
Co3 O11 1.888863 1_665
Co3 O6 1.913920 1_565
Co3 O4 1.914104 1_555
Co3 F1 2.010092 1_665
Co4 O10 1.888727 1_655
Co4 O1 1.888746 1_555
Co4 O8 1.888921 1_655
Co4 O7 1.914019 1_555
Co4 O5 1.914024 1_555
Co4 F0 2.010115 1_655
Co5 O5 1.911099 1_565
Co5 O7 1.911378 1_555
Co5 O3 1.911576 1_665
Co5 O0 1.943477 1_555
Co6 O12 1.892576 1_556
Co6 O10 1.892748 1_556
Co6 O8 1.893076 1_556
Co6 O4 1.921350 1_555
Co6 O2 1.921372 1_555
Co6 O6 1.921433 1_565
Co7 O13 1.892666 1_555
Co7 O9 1.892823 1_545
Co7 O11 1.892939 1_555
Co7 O7 1.921323 1_555
Co7 O3 1.921405 1_555
Co7 O5 1.921456 1_555
Co8 O0 1.888135 1_555
Co8 O13 1.888568 1_555
Co8 O11 1.888890 1_555
Co8 O4 1.914056 1_555
Co8 O2 1.914113 1_555
Co8 F1 2.010792 1_555
Co9 O1 1.888144 1_565
Co9 O12 1.888598 1_555
Co9 O10 1.888886 1_555
Co9 O5 1.914053 1_565
Co9 O3 1.914168 1_565
Co9 F0 2.010669 1_555
F0 Li1 1.917823 1_455
F1 Li0 1.917774 1_446
