# generated using pymatgen
data_B5Mo2
_symmetry_space_group_name_H-M   'P 1'
_cell_length_a   7.38317447
_cell_length_b   7.38317447
_cell_length_c   7.38317517
_cell_angle_alpha   24.12667958
_cell_angle_beta   24.12667958
_cell_angle_gamma   24.12667962
_symmetry_Int_Tables_number   1
_chemical_formula_structural   B5Mo2
_chemical_formula_sum   'B5 Mo2'
_cell_volume   59.09541990
_cell_formula_units_Z   1
loop_
 _symmetry_equiv_pos_site_id
 _symmetry_equiv_pos_as_xyz
  1  'x, y, z'
loop_
 _atom_site_type_symbol
 _atom_site_label
 _atom_site_symmetry_multiplicity
 _atom_site_fract_x
 _atom_site_fract_y
 _atom_site_fract_z
 _atom_site_occupancy
  B  B0  1  0.66841000  0.66841000  0.66841000  1
  B  B1  1  0.33159000  0.33159000  0.33159000  1
  B  B2  1  0.81573800  0.81573800  0.81573800  1
  B  B3  1  0.18426200  0.18426200  0.18426200  1
  B  B4  1  0.50000000  0.50000000  0.50000000  1
  Mo  Mo0  1  0.92441400  0.92441400  0.92441400  1
  Mo  Mo1  1  0.07558600  0.07558600  0.07558600  1
loop_
_geom_bond_atom_site_label_1
_geom_bond_atom_site_label_2
_geom_bond_distance
_geom_bond_site_symmetry_2
B0 B1 1.783314 1_565
B0 B1 1.783314 1_655
B0 B1 1.783314 1_556
B0 Mo1 2.386194 1_665
B0 Mo1 2.386194 1_656
B0 Mo1 2.386194 1_566
B0 Mo0 2.436689 1_545
B0 Mo0 2.436689 1_455
B0 Mo0 2.436689 1_554
B1 Mo0 2.386194 1_445
B1 Mo0 2.386194 1_544
B1 Mo0 2.386194 1_454
B1 Mo1 2.436689 1_655
B1 Mo1 2.436689 1_565
B1 Mo1 2.436689 1_556
B2 B4 1.821438 1_565
B2 B4 1.821438 1_655
B2 B4 1.821438 1_556
B2 B3 1.935656 1_665
B2 B3 1.935656 1_656
B2 B3 1.935656 1_566
B2 Mo0 2.335978 1_555
B2 Mo1 2.381092 1_656
B2 Mo1 2.381092 1_566
B2 Mo1 2.381092 1_665
B3 B4 1.821438 1_455
B3 B4 1.821438 1_545
B3 B4 1.821438 1_554
B3 Mo1 2.335978 1_555
B3 Mo0 2.381092 1_454
B3 Mo0 2.381092 1_544
B3 Mo0 2.381092 1_445
