# generated using pymatgen
data_Li4V3Cr2Sn3O16
_symmetry_space_group_name_H-M   'P 1'
_cell_length_a   6.09750400
_cell_length_b   6.12163080
_cell_length_c   9.67615083
_cell_angle_alpha   89.62579493
_cell_angle_beta   89.69359880
_cell_angle_gamma   60.23395994
_symmetry_Int_Tables_number   1
_chemical_formula_structural   Li4V3Cr2Sn3O16
_chemical_formula_sum   'Li4 V3 Cr2 Sn3 O16'
_cell_volume   313.51692670
_cell_formula_units_Z   1
loop_
 _symmetry_equiv_pos_site_id
 _symmetry_equiv_pos_as_xyz
  1  'x, y, z'
loop_
 _atom_site_type_symbol
 _atom_site_label
 _atom_site_symmetry_multiplicity
 _atom_site_fract_x
 _atom_site_fract_y
 _atom_site_fract_z
 _atom_site_occupancy
  Li  Li0  1  0.67107200  0.65345600  0.11002000  1
  Li  Li1  1  0.98868000  0.02240100  0.00816500  1
  Li  Li2  1  0.99474500  0.01454500  0.50002100  1
  Li  Li3  1  0.33331400  0.33195400  0.60460300  1
  V  V0  1  0.83133100  0.33716700  0.78693000  1
  V  V1  1  0.66173000  0.17020300  0.29042900  1
  V  V2  1  0.17893300  0.16272300  0.28619800  1
  Cr  Cr0  1  0.67262600  0.66155800  0.51294000  1
  Cr  Cr1  1  0.33443700  0.32808700  0.01694200  1
  Sn  Sn0  1  0.33912400  0.82897400  0.78663000  1
  Sn  Sn1  1  0.83175400  0.82918400  0.78684400  1
  Sn  Sn2  1  0.16848300  0.66052200  0.28605400  1
  O  O0  1  0.33061500  0.84449900  0.39864200  1
  O  O1  1  0.52135700  0.95903200  0.65095200  1
  O  O2  1  0.66564600  0.66706500  0.90366600  1
  O  O3  1  0.00058200  0.00001900  0.68343400  1
  O  O4  1  0.00663600  0.00643200  0.19083500  1
  O  O5  1  0.82854600  0.84417100  0.39948600  1
  O  O6  1  0.52511400  0.51442800  0.65633900  1
  O  O7  1  0.96091300  0.51544300  0.65695100  1
  O  O8  1  0.16176900  0.67516400  0.90843300  1
  O  O9  1  0.84840100  0.32595200  0.39115100  1
  O  O10  1  0.04317600  0.46752800  0.15699300  1
  O  O11  1  0.48625100  0.46760000  0.15704100  1
  O  O12  1  0.32106400  0.33044100  0.39999100  1
  O  O13  1  0.15916000  0.16984400  0.89803000  1
  O  O14  1  0.46334000  0.04315900  0.16511200  1
  O  O15  1  0.67090400  0.16844900  0.89932700  1
loop_
_geom_bond_atom_site_label_1
_geom_bond_atom_site_label_2
_geom_bond_distance
_geom_bond_site_symmetry_2
Li0 O2 1.997672 1_554
Li0 O11 2.008065 1_555
Li0 O10 2.022402 1_655
Li0 O14 2.142146 1_565
Li1 O4 1.770575 1_655
Li1 O13 1.984467 1_654
Li1 O15 1.988042 1_554
Li1 O8 2.086126 1_644
Li2 O3 1.776040 1_655
Li2 O9 1.958277 1_555
Li2 O0 2.028582 1_645
Li2 O5 2.033306 1_545
Li3 O12 1.981920 1_555
Li3 O1 2.029905 1_545
Li3 O7 2.033967 1_455
Li3 O6 2.043724 1_555
Cr0 O7 2.068945 1_555
Cr0 O1 2.073906 1_555
Cr0 O6 2.078519 1_555
Cr0 O5 2.094468 1_555
Cr0 O0 2.125054 1_555
Cr0 O9 2.142435 1_555
Cr1 O10 2.050187 1_555
Cr1 O11 2.058524 1_555
Cr1 O14 2.081776 1_555
Cr1 O15 2.111425 1_554
Cr1 O13 2.111921 1_554
Cr1 O8 2.118183 1_554
O0 V2 2.007043 1_565
O0 Sn2 2.136736 1_555
O1 Sn0 2.107434 1_555
O1 Sn1 2.112375 1_555
O2 Sn1 2.063908 1_555
O2 Sn0 2.068544 1_555
O2 V0 2.089680 1_555
O3 Sn1 2.049116 1_445
O3 Sn0 2.053504 1_545
O3 V0 2.056371 1_455
O4 V2 1.972435 1_555
O4 Sn2 2.053305 1_545
O4 V1 2.062554 1_455
O5 V1 2.024803 1_565
O5 Sn2 2.107835 1_655
O6 V0 2.063027 1_555
O6 Sn0 2.105087 1_555
O7 V0 2.055421 1_555
O7 Sn1 2.099465 1_555
O8 Sn0 2.104277 1_555
O8 Sn1 2.109353 1_455
O9 V2 2.020757 1_655
O9 V1 2.063007 1_555
O10 V2 2.043725 1_555
O10 Sn2 2.113029 1_555
O11 V1 2.043295 1_555
O11 Sn2 2.104446 1_555
O12 V2 1.981423 1_555
O12 Sn2 2.068633 1_555
O12 V1 2.089925 1_555
O13 V0 2.043575 1_455
O13 Sn0 2.112689 1_545
O14 V2 1.909188 1_555
O14 V1 2.121480 1_555
O15 V0 2.045371 1_555
O15 Sn1 2.110799 1_545
