# generated using pymatgen
data_KP2H8SN7O2
_symmetry_space_group_name_H-M   'P 1'
_cell_length_a   9.92259200
_cell_length_b   13.37657000
_cell_length_c   13.89345400
_cell_angle_alpha   90.00000000
_cell_angle_beta   90.00000000
_cell_angle_gamma   90.00000000
_symmetry_Int_Tables_number   1
_chemical_formula_structural   KP2H8SN7O2
_chemical_formula_sum   'K8 P16 H64 S8 N56 O16'
_cell_volume   1844.08157373
_cell_formula_units_Z   8
loop_
 _symmetry_equiv_pos_site_id
 _symmetry_equiv_pos_as_xyz
  1  'x, y, z'
loop_
 _atom_site_type_symbol
 _atom_site_label
 _atom_site_symmetry_multiplicity
 _atom_site_fract_x
 _atom_site_fract_y
 _atom_site_fract_z
 _atom_site_occupancy
  K  K0  1  0.59062300  0.12727000  0.39348300  1
  K  K1  1  0.09062300  0.37273000  0.60651700  1
  K  K2  1  0.40937700  0.62727000  0.10651700  1
  K  K3  1  0.90937700  0.87273000  0.89348300  1
  K  K4  1  0.40937700  0.87273000  0.60651700  1
  K  K5  1  0.90937700  0.62727000  0.39348300  1
  K  K6  1  0.59062300  0.37273000  0.89348300  1
  K  K7  1  0.09062300  0.12727000  0.10651700  1
  P  P0  1  0.21956100  0.26621100  0.34552200  1
  P  P1  1  0.71956100  0.23378900  0.65447800  1
  P  P2  1  0.78043900  0.76621100  0.15447800  1
  P  P3  1  0.28043900  0.73378900  0.84552200  1
  P  P4  1  0.78043900  0.73378900  0.65447800  1
  P  P5  1  0.28043900  0.76621100  0.34552200  1
  P  P6  1  0.21956100  0.23378900  0.84552200  1
  P  P7  1  0.71956100  0.26621100  0.15447800  1
  P  P8  1  0.05343200  0.09432700  0.36532700  1
  P  P9  1  0.55343200  0.40567300  0.63467300  1
  P  P10  1  0.94656800  0.59432700  0.13467300  1
  P  P11  1  0.44656800  0.90567300  0.86532700  1
  P  P12  1  0.94656800  0.90567300  0.63467300  1
  P  P13  1  0.44656800  0.59432700  0.36532700  1
  P  P14  1  0.05343200  0.40567300  0.86532700  1
  P  P15  1  0.55343200  0.09432700  0.13467300  1
  H  H0  1  0.04668400  0.37371800  0.39610400  1
  H  H1  1  0.54668400  0.12628200  0.60389600  1
  H  H2  1  0.95331600  0.87371800  0.10389600  1
  H  H3  1  0.45331600  0.62628200  0.89610400  1
  H  H4  1  0.95331600  0.62628200  0.60389600  1
  H  H5  1  0.45331600  0.87371800  0.39610400  1
  H  H6  1  0.04668400  0.12628200  0.89610400  1
  H  H7  1  0.54668400  0.37371800  0.10389600  1
  H  H8  1  0.20135300  0.43456500  0.39482900  1
  H  H9  1  0.70135300  0.06543500  0.60517100  1
  H  H10  1  0.79864700  0.93456500  0.10517100  1
  H  H11  1  0.29864700  0.56543500  0.89482900  1
  H  H12  1  0.79864700  0.56543500  0.60517100  1
  H  H13  1  0.29864700  0.93456500  0.39482900  1
  H  H14  1  0.20135300  0.06543500  0.89482900  1
  H  H15  1  0.70135300  0.43456500  0.10517100  1
  H  H16  1  0.40662300  0.25837700  0.24655100  1
  H  H17  1  0.90662300  0.24162300  0.75344900  1
  H  H18  1  0.59337700  0.75837700  0.25344900  1
  H  H19  1  0.09337700  0.74162300  0.74655100  1
  H  H20  1  0.59337700  0.74162300  0.75344900  1
  H  H21  1  0.09337700  0.75837700  0.24655100  1
  H  H22  1  0.40662300  0.24162300  0.74655100  1
  H  H23  1  0.90662300  0.25837700  0.25344900  1
  H  H24  1  0.27910400  0.32315800  0.19685700  1
  H  H25  1  0.77910400  0.17684200  0.80314300  1
  H  H26  1  0.72089600  0.82315800  0.30314300  1
  H  H27  1  0.22089600  0.67684200  0.69685700  1
  H  H28  1  0.72089600  0.67684200  0.80314300  1
  H  H29  1  0.22089600  0.82315800  0.19685700  1
  H  H30  1  0.27910400  0.17684200  0.69685700  1
  H  H31  1  0.77910400  0.32315800  0.30314300  1
  H  H32  1  0.87930600  0.05743600  0.46396500  1
  H  H33  1  0.37930600  0.44256400  0.53603500  1
  H  H34  1  0.12069400  0.55743600  0.03603500  1
  H  H35  1  0.62069400  0.94256400  0.96396500  1
  H  H36  1  0.12069400  0.94256400  0.53603500  1
  H  H37  1  0.62069400  0.55743600  0.46396500  1
  H  H38  1  0.87930600  0.44256400  0.96396500  1
  H  H39  1  0.37930600  0.05743600  0.03603500  1
  H  H40  1  0.89973000  0.18078400  0.45603800  1
  H  H41  1  0.39973000  0.31921600  0.54396200  1
  H  H42  1  0.10027000  0.68078400  0.04396200  1
  H  H43  1  0.60027000  0.81921600  0.95603800  1
  H  H44  1  0.10027000  0.81921600  0.54396200  1
  H  H45  1  0.60027000  0.68078400  0.45603800  1
  H  H46  1  0.89973000  0.31921600  0.95603800  1
  H  H47  1  0.39973000  0.18078400  0.04396200  1
  H  H48  1  0.08018900  0.94249400  0.28468200  1
  H  H49  1  0.58018900  0.55750600  0.71531800  1
  H  H50  1  0.91981100  0.44249400  0.21531800  1
  H  H51  1  0.41981100  0.05750600  0.78468200  1
  H  H52  1  0.91981100  0.05750600  0.71531800  1
  H  H53  1  0.41981100  0.44249400  0.28468200  1
  H  H54  1  0.08018900  0.55750600  0.78468200  1
  H  H55  1  0.58018900  0.94249400  0.21531800  1
  H  H56  1  0.91943300  0.98318400  0.28540400  1
  H  H57  1  0.41943300  0.51681600  0.71459600  1
  H  H58  1  0.08056700  0.48318400  0.21459600  1
  H  H59  1  0.58056700  0.01681600  0.78540400  1
  H  H60  1  0.08056700  0.01681600  0.71459600  1
  H  H61  1  0.58056700  0.48318400  0.28540400  1
  H  H62  1  0.91943300  0.51681600  0.78540400  1
  H  H63  1  0.41943300  0.98318400  0.21459600  1
  S  S0  1  0.26187400  0.12916800  0.49371300  1
  S  S1  1  0.76187400  0.37083200  0.50628700  1
  S  S2  1  0.73812600  0.62916800  0.00628700  1
  S  S3  1  0.23812600  0.87083200  0.99371300  1
  S  S4  1  0.73812600  0.87083200  0.50628700  1
  S  S5  1  0.23812600  0.62916800  0.49371300  1
  S  S6  1  0.26187400  0.37083200  0.99371300  1
  S  S7  1  0.76187400  0.12916800  0.00628700  1
  N  N0  1  0.32093300  0.21230900  0.42273200  1
  N  N1  1  0.82093300  0.28769100  0.57726800  1
  N  N2  1  0.67906700  0.71230900  0.07726800  1
  N  N3  1  0.17906700  0.78769100  0.92273200  1
  N  N4  1  0.67906700  0.78769100  0.57726800  1
  N  N5  1  0.17906700  0.71230900  0.42273200  1
  N  N6  1  0.32093300  0.28769100  0.92273200  1
  N  N7  1  0.82093300  0.21230900  0.07726800  1
  N  N8  1  0.17180200  0.04981600  0.43547400  1
  N  N9  1  0.67180200  0.45018400  0.56452600  1
  N  N10  1  0.82819800  0.54981600  0.06452600  1
  N  N11  1  0.32819800  0.95018400  0.93547400  1
  N  N12  1  0.82819800  0.95018400  0.56452600  1
  N  N13  1  0.32819800  0.54981600  0.43547400  1
  N  N14  1  0.17180200  0.45018400  0.93547400  1
  N  N15  1  0.67180200  0.04981600  0.06452600  1
  N  N16  1  0.09695100  0.19524900  0.31035900  1
  N  N17  1  0.59695100  0.30475100  0.68964100  1
  N  N18  1  0.90304900  0.69524900  0.18964100  1
  N  N19  1  0.40304900  0.80475100  0.81035900  1
  N  N20  1  0.90304900  0.80475100  0.68964100  1
  N  N21  1  0.40304900  0.69524900  0.31035900  1
  N  N22  1  0.09695100  0.30475100  0.81035900  1
  N  N23  1  0.59695100  0.19524900  0.18964100  1
  N  N24  1  0.14645400  0.37183600  0.37828100  1
  N  N25  1  0.64645400  0.12816400  0.62171900  1
  N  N26  1  0.85354600  0.87183600  0.12171900  1
  N  N27  1  0.35354600  0.62816400  0.87828100  1
  N  N28  1  0.85354600  0.62816400  0.62171900  1
  N  N29  1  0.35354600  0.87183600  0.37828100  1
  N  N30  1  0.14645400  0.12816400  0.87828100  1
  N  N31  1  0.64645400  0.37183600  0.12171900  1
  N  N32  1  0.32570100  0.30392000  0.26056100  1
  N  N33  1  0.82570100  0.19608000  0.73943900  1
  N  N34  1  0.67429900  0.80392000  0.23943900  1
  N  N35  1  0.17429900  0.69608000  0.76056100  1
  N  N36  1  0.67429900  0.69608000  0.73943900  1
  N  N37  1  0.17429900  0.80392000  0.26056100  1
  N  N38  1  0.32570100  0.19608000  0.76056100  1
  N  N39  1  0.82570100  0.30392000  0.23943900  1
  N  N40  1  0.90440800  0.11517200  0.41772600  1
  N  N41  1  0.40440800  0.38482800  0.58227400  1
  N  N42  1  0.09559200  0.61517200  0.08227400  1
  N  N43  1  0.59559200  0.88482800  0.91772600  1
  N  N44  1  0.09559200  0.88482800  0.58227400  1
  N  N45  1  0.59559200  0.61517200  0.41772600  1
  N  N46  1  0.90440800  0.38482800  0.91772600  1
  N  N47  1  0.40440800  0.11517200  0.08227400  1
  N  N48  1  0.01817100  0.00414400  0.28782300  1
  N  N49  1  0.51817100  0.49585600  0.71217700  1
  N  N50  1  0.98182900  0.50414400  0.21217700  1
  N  N51  1  0.48182900  0.99585600  0.78782300  1
  N  N52  1  0.98182900  0.99585600  0.71217700  1
  N  N53  1  0.48182900  0.50414400  0.28782300  1
  N  N54  1  0.01817100  0.49585600  0.78782300  1
  N  N55  1  0.51817100  0.00414400  0.21217700  1
  O  O0  1  0.37709100  0.07203600  0.53208200  1
  O  O1  1  0.87709100  0.42796400  0.46791800  1
  O  O2  1  0.62290900  0.57203600  0.96791800  1
  O  O3  1  0.12290900  0.92796400  0.03208200  1
  O  O4  1  0.62290900  0.92796400  0.46791800  1
  O  O5  1  0.12290900  0.57203600  0.53208200  1
  O  O6  1  0.37709100  0.42796400  0.03208200  1
  O  O7  1  0.87709100  0.07203600  0.96791800  1
  O  O8  1  0.18155300  0.17694600  0.57087800  1
  O  O9  1  0.68155300  0.32305400  0.42912200  1
  O  O10  1  0.81844700  0.67694600  0.92912200  1
  O  O11  1  0.31844700  0.82305400  0.07087800  1
  O  O12  1  0.81844700  0.82305400  0.42912200  1
  O  O13  1  0.31844700  0.67694600  0.57087800  1
  O  O14  1  0.18155300  0.32305400  0.07087800  1
  O  O15  1  0.68155300  0.17694600  0.92912200  1
loop_
_geom_bond_atom_site_label_1
_geom_bond_atom_site_label_2
_geom_bond_distance
_geom_bond_site_symmetry_2
K0 O9 2.813891 1_555
K0 O4 2.877470 1_545
K0 N0 2.936020 1_555
K0 O0 2.956885 1_555
K0 N23 2.975136 1_555
K0 N55 3.094293 1_555
K0 N40 3.135904 1_555
K1 O8 2.813891 1_555
K1 O5 2.877470 1_555
K1 N1 2.936020 1_455
K1 O1 2.956885 1_455
K1 N22 2.975136 1_555
K1 N54 3.094293 1_555
K1 N41 3.135904 1_555
K2 O11 2.813891 1_555
K2 O6 2.877470 1_555
K2 N2 2.936020 1_555
K2 O2 2.956885 1_554
K2 N21 2.975136 1_555
K2 N53 3.094293 1_555
K2 N42 3.135904 1_555
K3 O10 2.813891 1_555
K3 O7 2.877470 1_565
K3 N3 2.936020 1_655
K3 O3 2.956885 1_656
K3 N20 2.975136 1_555
K3 N52 3.094293 1_555
K3 N43 3.135904 1_555
K4 O13 2.813891 1_555
K4 O0 2.877470 1_565
K4 N4 2.936020 1_555
K4 O4 2.956885 1_555
K4 N19 2.975136 1_555
K4 N51 3.094293 1_555
K4 N44 3.135904 1_555
K5 O12 2.813891 1_555
K5 O1 2.877470 1_555
K5 N5 2.936020 1_655
K5 O5 2.956885 1_655
K5 N18 2.975136 1_555
K5 N50 3.094293 1_555
K5 N45 3.135904 1_555
K6 O15 2.813891 1_555
K6 O2 2.877470 1_555
K6 N6 2.936020 1_555
K6 O6 2.956885 1_556
K6 N17 2.975136 1_555
K6 N49 3.094293 1_555
K6 N46 3.135904 1_555
K7 O14 2.813891 1_555
K7 O3 2.877470 1_545
K7 N7 2.936020 1_455
K7 O7 2.956885 1_454
K7 N16 2.975136 1_555
K7 N48 3.094293 1_555
K7 N47 3.135904 1_555
H0 N24 1.020787 1_555
H0 K1 2.955726 1_555
H1 N25 1.020787 1_555
H1 K0 2.955726 1_555
H2 N26 1.020787 1_555
H2 K3 2.955726 1_554
H3 N27 1.020787 1_555
H3 K2 2.955726 1_556
H4 N28 1.020787 1_555
H4 K5 2.955726 1_555
H5 N29 1.020787 1_555
H5 K4 2.955726 1_555
H6 N30 1.020787 1_555
H6 K7 2.955726 1_556
H7 N31 1.020787 1_555
H7 K6 2.955726 1_554
H8 N24 1.026493 1_555
H9 N25 1.026493 1_555
H10 N26 1.026493 1_555
H11 N27 1.026493 1_555
H12 N28 1.026493 1_555
H13 N29 1.026493 1_555
H14 N30 1.026493 1_555
H15 N31 1.026493 1_555
H16 N32 1.026529 1_555
H17 N33 1.026529 1_555
H18 N34 1.026529 1_555
H19 N35 1.026529 1_555
H20 N36 1.026529 1_555
H21 N37 1.026529 1_555
H22 N38 1.026529 1_555
H23 N39 1.026529 1_555
H24 N32 1.031188 1_555
H25 N33 1.031188 1_555
H26 N34 1.031188 1_555
H27 N35 1.031188 1_555
H28 N36 1.031188 1_555
H29 N37 1.031188 1_555
H30 N38 1.031188 1_555
H31 N39 1.031188 1_555
H32 N40 1.034990 1_555
H33 N41 1.034990 1_555
H34 N42 1.034990 1_555
H35 N43 1.034990 1_555
H36 N44 1.034990 1_555
H37 N45 1.034990 1_555
H38 N46 1.034990 1_555
H39 N47 1.034990 1_555
H40 N40 1.027510 1_555
H41 N41 1.027510 1_555
H42 N42 1.027510 1_555
H43 N43 1.027510 1_555
H44 N44 1.027510 1_555
H45 N45 1.027510 1_555
H46 N46 1.027510 1_555
H47 N47 1.027510 1_555
H48 N48 1.029888 1_565
H49 N49 1.029888 1_555
H50 N50 1.029888 1_555
H51 N51 1.029888 1_545
H52 N52 1.029888 1_545
H53 N53 1.029888 1_555
H54 N54 1.029888 1_555
H55 N55 1.029888 1_565
H56 N48 1.019619 1_665
H57 N49 1.019619 1_555
H58 N50 1.019619 1_455
H59 N51 1.019619 1_545
H60 N52 1.019619 1_445
H61 N53 1.019619 1_555
H62 N54 1.019619 1_655
H63 N55 1.019619 1_565
N0 S0 1.597751 1_555
N0 P0 1.637794 1_555
N1 S1 1.597751 1_555
N1 P1 1.637794 1_555
N2 S2 1.597751 1_555
N2 P2 1.637794 1_555
N3 S3 1.597751 1_555
N3 P3 1.637794 1_555
N4 S4 1.597751 1_555
N4 P4 1.637794 1_555
N5 S5 1.597751 1_555
N5 P5 1.637794 1_555
N6 S6 1.597751 1_555
N6 P6 1.637794 1_555
N7 S7 1.597751 1_555
N7 P7 1.637794 1_555
N8 S0 1.606296 1_555
N8 P8 1.638249 1_555
N9 S1 1.606296 1_555
N9 P9 1.638249 1_555
N10 S2 1.606296 1_555
N10 P10 1.638249 1_555
N11 S3 1.606296 1_555
N11 P11 1.638249 1_555
N12 S4 1.606296 1_555
N12 P12 1.638249 1_555
N13 S5 1.606296 1_555
N13 P13 1.638249 1_555
N14 S6 1.606296 1_555
N14 P14 1.638249 1_555
N15 S7 1.606296 1_555
N15 P15 1.638249 1_555
N16 P8 1.610023 1_555
N16 P0 1.618592 1_555
N17 P9 1.610023 1_555
N17 P1 1.618592 1_555
N18 P10 1.610023 1_555
N18 P2 1.618592 1_555
N19 P11 1.610023 1_555
N19 P3 1.618592 1_555
N20 P12 1.610023 1_555
N20 P4 1.618592 1_555
N21 P13 1.610023 1_555
N21 P5 1.618592 1_555
N22 P14 1.610023 1_555
N22 P6 1.618592 1_555
N23 P15 1.610023 1_555
N23 P7 1.618592 1_555
N24 P0 1.652167 1_555
N25 P1 1.652167 1_555
N26 P2 1.652167 1_555
N27 P3 1.652167 1_555
N28 P4 1.652167 1_555
N29 P5 1.652167 1_555
N30 P6 1.652167 1_555
N31 P7 1.652167 1_555
N32 P0 1.660416 1_555
N33 P1 1.660416 1_555
N34 P2 1.660416 1_555
N35 P3 1.660416 1_555
N36 P4 1.660416 1_555
N37 P5 1.660416 1_555
N38 P6 1.660416 1_555
N39 P7 1.660416 1_555
N40 P8 1.671617 1_655
N41 P9 1.671617 1_555
N42 P10 1.671617 1_455
N43 P11 1.671617 1_555
N44 P12 1.671617 1_455
N45 P13 1.671617 1_555
N46 P14 1.671617 1_655
N47 P15 1.671617 1_555
N48 P8 1.654438 1_555
N49 P9 1.654438 1_555
N50 P10 1.654438 1_555
N51 P11 1.654438 1_555
N52 P12 1.654438 1_555
N53 P13 1.654438 1_555
N54 P14 1.654438 1_555
N55 P15 1.654438 1_555
O0 S0 1.474871 1_555
O1 S1 1.474871 1_555
O2 S2 1.474871 1_556
O3 S3 1.474871 1_554
O4 S4 1.474871 1_555
O5 S5 1.474871 1_555
O6 S6 1.474871 1_554
O7 S7 1.474871 1_556
O8 S0 1.480887 1_555
O9 S1 1.480887 1_555
O10 S2 1.480887 1_556
O11 S3 1.480887 1_554
O12 S4 1.480887 1_555
O13 S5 1.480887 1_555
O14 S6 1.480887 1_554
O15 S7 1.480887 1_556
