# generated using pymatgen
data_Li2CuPO4
_symmetry_space_group_name_H-M   'P 1'
_cell_length_a   5.07807600
_cell_length_b   6.25441700
_cell_length_c   10.66922900
_cell_angle_alpha   90.00000000
_cell_angle_beta   90.00000000
_cell_angle_gamma   90.00000000
_symmetry_Int_Tables_number   1
_chemical_formula_structural   Li2CuPO4
_chemical_formula_sum   'Li8 Cu4 P4 O16'
_cell_volume   338.85903260
_cell_formula_units_Z   4
loop_
 _symmetry_equiv_pos_site_id
 _symmetry_equiv_pos_as_xyz
  1  'x, y, z'
loop_
 _atom_site_type_symbol
 _atom_site_label
 _atom_site_symmetry_multiplicity
 _atom_site_fract_x
 _atom_site_fract_y
 _atom_site_fract_z
 _atom_site_occupancy
  Li  Li0  1  0.17685200  0.49671200  0.09314500  1
  Li  Li1  1  0.32314800  0.49671200  0.59314500  1
  Li  Li2  1  0.32314800  0.00328800  0.59314500  1
  Li  Li3  1  0.17685200  0.00328800  0.09314500  1
  Li  Li4  1  0.67685200  0.99671200  0.40685500  1
  Li  Li5  1  0.82314800  0.99671200  0.90685500  1
  Li  Li6  1  0.82314800  0.50328800  0.90685500  1
  Li  Li7  1  0.67685200  0.50328800  0.40685500  1
  Cu  Cu0  1  0.16838000  0.75000000  0.33875300  1
  Cu  Cu1  1  0.33162000  0.75000000  0.83875300  1
  Cu  Cu2  1  0.66838000  0.25000000  0.16124700  1
  Cu  Cu3  1  0.83162000  0.25000000  0.66124700  1
  P  P0  1  0.67002600  0.75000000  0.15716100  1
  P  P1  1  0.82997400  0.75000000  0.65716100  1
  P  P2  1  0.32997400  0.25000000  0.84283900  1
  P  P3  1  0.17002600  0.25000000  0.34283900  1
  O  O0  1  0.78515700  0.54741300  0.09067800  1
  O  O1  1  0.71484300  0.54741300  0.59067800  1
  O  O2  1  0.36502200  0.75000000  0.14850000  1
  O  O3  1  0.74420200  0.75000000  0.79811000  1
  O  O4  1  0.75579800  0.75000000  0.29811000  1
  O  O5  1  0.13497800  0.75000000  0.64850000  1
  O  O6  1  0.71484300  0.95258700  0.59067800  1
  O  O7  1  0.78515700  0.95258700  0.09067800  1
  O  O8  1  0.28515700  0.04741300  0.40932200  1
  O  O9  1  0.21484300  0.04741300  0.90932200  1
  O  O10  1  0.63497800  0.25000000  0.85150000  1
  O  O11  1  0.86502200  0.25000000  0.35150000  1
  O  O12  1  0.25579800  0.25000000  0.20189000  1
  O  O13  1  0.24420200  0.25000000  0.70189000  1
  O  O14  1  0.21484300  0.45258700  0.90932200  1
  O  O15  1  0.28515700  0.45258700  0.40932200  1
loop_
_geom_bond_atom_site_label_1
_geom_bond_atom_site_label_2
_geom_bond_distance
_geom_bond_site_symmetry_2
Li0 O2 1.942023 1_555
Li0 O12 1.971753 1_555
Li0 O14 1.989945 1_554
Li0 O0 2.014348 1_455
Li1 O5 1.942023 1_555
Li1 O13 1.971753 1_555
Li1 O15 1.989945 1_555
Li1 O1 2.014348 1_555
Li2 O5 1.942023 1_545
Li2 O13 1.971753 1_555
Li2 O8 1.989945 1_555
Li2 O6 2.014348 1_545
Li3 O2 1.942023 1_545
Li3 O12 1.971753 1_555
Li3 O9 1.989945 1_554
Li3 O7 2.014348 1_445
Li4 O11 1.942023 1_565
Li4 O4 1.971753 1_555
Li4 O6 1.989945 1_555
Li4 O8 2.014348 1_565
Li5 O10 1.942023 1_565
Li5 O3 1.971753 1_555
Li5 O7 1.989945 1_556
Li5 O9 2.014348 1_665
Li6 O10 1.942023 1_555
Li6 O3 1.971753 1_555
Li6 O0 1.989945 1_556
Li6 O14 2.014348 1_655
Li7 O11 1.942023 1_555
Li7 O4 1.971753 1_555
Li7 O1 1.989945 1_555
Li7 O15 2.014348 1_555
Cu0 O15 2.092528 1_555
Cu0 O8 2.092528 1_565
Cu0 O4 2.139527 1_455
Cu0 O2 2.262174 1_555
Cu1 O14 2.092528 1_555
Cu1 O9 2.092528 1_565
Cu1 O3 2.139527 1_555
Cu1 O5 2.262174 1_555
Cu2 O7 2.092528 1_545
Cu2 O0 2.092528 1_555
Cu2 O12 2.139527 1_555
Cu2 O11 2.262174 1_555
Cu3 O1 2.092528 1_555
Cu3 O6 2.092528 1_545
Cu3 O13 2.139527 1_655
Cu3 O10 2.262174 1_555
O0 P0 1.565374 1_555
O1 P1 1.565374 1_555
O2 P0 1.551588 1_555
O3 P1 1.565623 1_555
O4 P0 1.565623 1_555
O5 P1 1.551588 1_455
O6 P1 1.565374 1_555
O7 P0 1.565374 1_555
O8 P3 1.565374 1_555
O9 P2 1.565374 1_555
O10 P2 1.551588 1_555
O11 P3 1.551588 1_655
O12 P3 1.565623 1_555
O13 P2 1.565623 1_555
O14 P2 1.565374 1_555
O15 P3 1.565374 1_555
