# generated using pymatgen
data_LiFeO2
_symmetry_space_group_name_H-M   'P 1'
_cell_length_a   5.14967300
_cell_length_b   5.17913293
_cell_length_c   7.96102473
_cell_angle_alpha   71.12525293
_cell_angle_beta   71.53886162
_cell_angle_gamma   79.83580347
_symmetry_Int_Tables_number   1
_chemical_formula_structural   LiFeO2
_chemical_formula_sum   'Li5 Fe5 O10'
_cell_volume   189.92152807
_cell_formula_units_Z   5
loop_
 _symmetry_equiv_pos_site_id
 _symmetry_equiv_pos_as_xyz
  1  'x, y, z'
loop_
 _atom_site_type_symbol
 _atom_site_label
 _atom_site_symmetry_multiplicity
 _atom_site_fract_x
 _atom_site_fract_y
 _atom_site_fract_z
 _atom_site_occupancy
  Li  Li0  1  0.21674500  0.49866500  0.58626800  1
  Li  Li1  1  0.38944500  0.48748300  0.22300500  1
  Li  Li2  1  0.50000000  0.00000000  0.50000000  1
  Li  Li3  1  0.61055500  0.51251700  0.77699500  1
  Li  Li4  1  0.78325500  0.50133500  0.41373200  1
  Fe  Fe0  1  0.09927700  0.99090400  0.31461800  1
  Fe  Fe1  1  0.00000000  0.50000000  0.00000000  1
  Fe  Fe2  1  0.68944600  0.99773900  0.11078900  1
  Fe  Fe3  1  0.31055400  0.00226100  0.88921100  1
  Fe  Fe4  1  0.90072300  0.00909600  0.68538200  1
  O  O0  1  0.04739800  0.76012800  0.13826700  1
  O  O1  1  0.33655500  0.23280500  0.05572500  1
  O  O2  1  0.13629800  0.23282400  0.45560800  1
  O  O3  1  0.22895300  0.75084500  0.76883500  1
  O  O4  1  0.45183000  0.76685700  0.33475800  1
  O  O5  1  0.54817000  0.23314300  0.66524200  1
  O  O6  1  0.77104700  0.24915500  0.23116500  1
  O  O7  1  0.86370200  0.76717600  0.54439200  1
  O  O8  1  0.66344500  0.76719500  0.94427500  1
  O  O9  1  0.95260200  0.23987200  0.86173300  1
loop_
_geom_bond_atom_site_label_1
_geom_bond_atom_site_label_2
_geom_bond_distance
_geom_bond_site_symmetry_2
Li0 O5 2.119231 1_555
Li0 O7 2.131186 1_455
Li0 O2 2.133096 1_555
Li0 O4 2.159380 1_555
Li0 O3 2.266549 1_555
Li0 O9 2.304008 1_455
Li1 O4 2.041133 1_555
Li1 O2 2.089448 1_555
Li1 O6 2.135975 1_555
Li1 O0 2.193179 1_555
Li1 O1 2.253987 1_555
Li1 O8 2.381622 1_554
Li2 O7 2.105524 1_545
Li2 O2 2.105524 1_555
Li2 O5 2.142467 1_555
Li2 O4 2.142467 1_545
Li2 O3 2.269540 1_545
Li2 O6 2.269540 1_555
Li3 O5 2.041133 1_555
Li3 O7 2.089448 1_555
Li3 O3 2.135975 1_555
Li3 O9 2.193179 1_555
Li3 O8 2.253987 1_555
Li3 O1 2.381622 1_556
Li4 O4 2.119231 1_555
Li4 O2 2.131186 1_655
Li4 O7 2.133096 1_555
Li4 O5 2.159380 1_555
Li4 O6 2.266549 1_555
Li4 O0 2.304008 1_655
Fe0 O7 1.969713 1_455
Fe0 O4 1.997191 1_555
Fe0 O2 1.998938 1_565
Fe0 O6 2.103743 1_465
Fe0 O1 2.141322 1_565
Fe0 O0 2.215146 1_555
Fe1 O6 2.020948 1_455
Fe1 O3 2.020948 1_554
Fe1 O0 2.081338 1_555
Fe1 O9 2.081338 1_454
Fe1 O8 2.087792 1_454
Fe1 O1 2.087792 1_555
Fe2 O4 1.965076 1_555
Fe2 O6 2.011461 1_565
Fe2 O0 2.059307 1_655
Fe2 O1 2.086908 1_565
Fe2 O8 2.096140 1_554
Fe2 O9 2.151679 1_564
Fe3 O5 1.965076 1_555
Fe3 O3 2.011461 1_545
Fe3 O9 2.059307 1_455
Fe3 O8 2.086908 1_545
Fe3 O1 2.096140 1_556
Fe3 O0 2.151679 1_546
Fe4 O2 1.969713 1_655
Fe4 O5 1.997191 1_555
Fe4 O7 1.998938 1_545
Fe4 O3 2.103743 1_645
Fe4 O8 2.141322 1_545
Fe4 O9 2.215146 1_555
