# generated using pymatgen
data_Li(CoO2)2
_symmetry_space_group_name_H-M   'P 1'
_cell_length_a   5.66633698
_cell_length_b   5.66566248
_cell_length_c   5.66771067
_cell_angle_alpha   59.90759846
_cell_angle_beta   90.85402918
_cell_angle_gamma   61.03680522
_symmetry_Int_Tables_number   1
_chemical_formula_structural   Li(CoO2)2
_chemical_formula_sum   'Li2 Co4 O8'
_cell_volume   129.51293681
_cell_formula_units_Z   2
loop_
 _symmetry_equiv_pos_site_id
 _symmetry_equiv_pos_as_xyz
  1  'x, y, z'
loop_
 _atom_site_type_symbol
 _atom_site_label
 _atom_site_symmetry_multiplicity
 _atom_site_fract_x
 _atom_site_fract_y
 _atom_site_fract_z
 _atom_site_occupancy
  Li  Li0  1  0.99999600  0.99999800  0.49999800  1
  Li  Li1  1  0.00000600  0.50000400  0.00000200  1
  Co  Co0  1  0.00000000  0.49999900  0.50000100  1
  Co  Co1  1  0.49999700  0.00000000  0.99999700  1
  Co  Co2  1  0.49999900  0.00000000  0.50000100  1
  Co  Co3  1  0.50000400  0.50000200  0.50000200  1
  O  O0  1  0.71660700  0.02348500  0.73965400  1
  O  O1  1  0.73634500  0.52382200  0.25970600  1
  O  O2  1  0.26365400  0.47617900  0.74029100  1
  O  O3  1  0.28339200  0.97651600  0.26034400  1
  O  O4  1  0.73407000  0.52898300  0.70500800  1
  O  O5  1  0.26632700  0.02854100  0.73688300  1
  O  O6  1  0.73367500  0.97145800  0.26312100  1
  O  O7  1  0.26592700  0.47101300  0.29499300  1
loop_
_geom_bond_atom_site_label_1
_geom_bond_atom_site_label_2
_geom_bond_distance
_geom_bond_site_symmetry_2
Li0 O0 2.116727 1_565
Li0 O3 2.116748 1_655
Li0 O2 2.118158 1_655
Li0 O1 2.118178 1_565
Li0 O6 2.121199 1_555
Li0 O5 2.121284 1_665
Li1 O0 2.116727 1_464
Li1 O3 2.116750 1_545
Li1 O2 2.118064 1_554
Li1 O1 2.118083 1_455
Li1 O7 2.121925 1_555
Li1 O4 2.122038 1_454
Co0 O7 1.910880 1_555
Co0 O4 1.910889 1_455
Co0 O5 1.911595 1_555
Co0 O6 1.911598 1_455
Co0 O2 1.914324 1_555
Co0 O1 1.914336 1_455
Co1 O5 1.869510 1_555
Co1 O6 1.869579 1_546
Co1 O1 1.923133 1_546
Co1 O2 1.923136 1_555
Co1 O3 1.927871 1_546
Co1 O0 1.927874 1_555
Co2 O5 1.909227 1_555
Co2 O6 1.909234 1_545
Co2 O7 1.909817 1_555
Co2 O4 1.909835 1_545
Co2 O0 1.912797 1_555
Co2 O3 1.912805 1_545
Co3 O4 1.868785 1_555
Co3 O7 1.868876 1_555
Co3 O3 1.924553 1_555
Co3 O0 1.924569 1_555
Co3 O1 1.926546 1_555
Co3 O2 1.926558 1_555
