# generated using pymatgen
data_Li3P2WO9
_symmetry_space_group_name_H-M   'P 1'
_cell_length_a   15.98615800
_cell_length_b   5.08590700
_cell_length_c   8.76740277
_cell_angle_alpha   78.04436904
_cell_angle_beta   90.00000000
_cell_angle_gamma   90.00000000
_symmetry_Int_Tables_number   1
_chemical_formula_structural   Li3P2WO9
_chemical_formula_sum   'Li12 P8 W4 O36'
_cell_volume   697.36350695
_cell_formula_units_Z   4
loop_
 _symmetry_equiv_pos_site_id
 _symmetry_equiv_pos_as_xyz
  1  'x, y, z'
loop_
 _atom_site_type_symbol
 _atom_site_label
 _atom_site_symmetry_multiplicity
 _atom_site_fract_x
 _atom_site_fract_y
 _atom_site_fract_z
 _atom_site_occupancy
  Li  Li0  1  0.37269000  0.75238200  0.57185300  1
  Li  Li1  1  0.38523700  0.77486700  0.95907700  1
  Li  Li2  1  0.81904000  0.72886600  0.57609200  1
  Li  Li3  1  0.12731000  0.75238200  0.07185300  1
  Li  Li4  1  0.11476300  0.77486700  0.45907700  1
  Li  Li5  1  0.68096000  0.72886600  0.07609200  1
  Li  Li6  1  0.31904000  0.27113400  0.92390800  1
  Li  Li7  1  0.88523700  0.22513300  0.54092300  1
  Li  Li8  1  0.87269000  0.24761800  0.92814700  1
  Li  Li9  1  0.18096000  0.27113400  0.42390800  1
  Li  Li10  1  0.61476300  0.22513300  0.04092300  1
  Li  Li11  1  0.62731000  0.24761800  0.42814700  1
  P  P0  1  0.22676900  0.81827200  0.75816900  1
  P  P1  1  0.27323100  0.81827200  0.25816900  1
  P  P2  1  0.96029500  0.77773300  0.81019700  1
  P  P3  1  0.53970500  0.77773300  0.31019700  1
  P  P4  1  0.46029500  0.22226700  0.68980300  1
  P  P5  1  0.03970500  0.22226700  0.18980300  1
  P  P6  1  0.72676900  0.18172800  0.74183100  1
  P  P7  1  0.77323100  0.18172800  0.24183100  1
  W  W0  1  0.60198100  0.70556800  0.69020300  1
  W  W1  1  0.89801900  0.70556800  0.19020300  1
  W  W2  1  0.10198100  0.29443200  0.80979700  1
  W  W3  1  0.39801900  0.29443200  0.30979700  1
  O  O0  1  0.21393400  0.08501500  0.82649100  1
  O  O1  1  0.28606600  0.08501500  0.32649100  1
  O  O2  1  0.04105700  0.93885800  0.82852200  1
  O  O3  1  0.45894300  0.93885800  0.32852200  1
  O  O4  1  0.60342200  0.58385100  0.89556600  1
  O  O5  1  0.89657800  0.58385100  0.39556600  1
  O  O6  1  0.92124400  0.86489600  0.65181700  1
  O  O7  1  0.57875600  0.86489600  0.15181700  1
  O  O8  1  0.89892700  0.81647600  0.94277500  1
  O  O9  1  0.60107300  0.81647600  0.44277500  1
  O  O10  1  0.19785100  0.88275100  0.59091300  1
  O  O11  1  0.30214900  0.88275100  0.09091300  1
  O  O12  1  0.31666700  0.70816300  0.77875300  1
  O  O13  1  0.18333300  0.70816300  0.27875300  1
  O  O14  1  0.48503600  0.52931100  0.65772700  1
  O  O15  1  0.17092100  0.60019100  0.86981000  1
  O  O16  1  0.01496400  0.52931100  0.15772700  1
  O  O17  1  0.32907900  0.60019100  0.36981000  1
  O  O18  1  0.67092100  0.39980900  0.63019000  1
  O  O19  1  0.98503600  0.47068900  0.84227300  1
  O  O20  1  0.82907900  0.39980900  0.13019000  1
  O  O21  1  0.51496400  0.47068900  0.34227300  1
  O  O22  1  0.81666700  0.29183700  0.72124700  1
  O  O23  1  0.68333300  0.29183700  0.22124700  1
  O  O24  1  0.69785100  0.11724900  0.90908700  1
  O  O25  1  0.80214900  0.11724900  0.40908700  1
  O  O26  1  0.39892700  0.18352400  0.55722500  1
  O  O27  1  0.10107300  0.18352400  0.05722500  1
  O  O28  1  0.42124400  0.13510400  0.84818300  1
  O  O29  1  0.07875600  0.13510400  0.34818300  1
  O  O30  1  0.10342200  0.41614900  0.60443400  1
  O  O31  1  0.39657800  0.41614900  0.10443400  1
  O  O32  1  0.54105700  0.06114200  0.67147800  1
  O  O33  1  0.95894300  0.06114200  0.17147800  1
  O  O34  1  0.71393400  0.91498500  0.67350900  1
  O  O35  1  0.78606600  0.91498500  0.17350900  1
loop_
_geom_bond_atom_site_label_1
_geom_bond_atom_site_label_2
_geom_bond_distance
_geom_bond_site_symmetry_2
Li0 O12 1.993528 1_555
Li0 O14 2.173853 1_555
Li0 O17 2.188850 1_555
Li0 O26 2.209978 1_565
Li0 O3 2.552204 1_555
Li1 O11 1.914183 1_556
Li1 O28 1.973653 1_565
Li1 O31 2.005531 1_556
Li1 O12 2.009570 1_555
Li2 O6 1.944011 1_555
Li2 O34 2.187159 1_555
Li2 O25 2.218166 1_565
Li2 O5 2.251469 1_555
Li2 O22 2.321516 1_555
Li3 O13 1.993528 1_555
Li3 O16 2.173853 1_555
Li3 O15 2.188850 1_554
Li3 O27 2.209978 1_565
Li3 O2 2.552204 1_554
Li4 O10 1.914183 1_555
Li4 O29 1.973653 1_565
Li4 O30 2.005531 1_555
Li4 O13 2.009570 1_555
Li5 O7 1.944011 1_555
Li5 O35 2.187159 1_555
Li5 O24 2.218166 1_564
Li5 O4 2.251469 1_554
Li5 O23 2.321516 1_555
Li6 O28 1.944011 1_555
Li6 O0 2.187159 1_555
Li6 O11 2.218166 1_546
Li6 O31 2.251469 1_556
Li6 O12 2.321516 1_555
Li7 O25 1.914183 1_555
Li7 O6 1.973653 1_545
Li7 O5 2.005531 1_555
Li7 O22 2.009570 1_555
Li8 O22 1.993528 1_555
Li8 O19 2.173853 1_555
Li8 O20 2.188850 1_556
Li8 O8 2.209978 1_545
Li8 O33 2.552204 1_556
Li9 O29 1.944011 1_555
Li9 O1 2.187159 1_555
Li9 O10 2.218166 1_545
Li9 O30 2.251469 1_555
Li9 O13 2.321516 1_555
Li10 O24 1.914183 1_554
Li10 O7 1.973653 1_545
Li10 O4 2.005531 1_554
Li10 O23 2.009570 1_555
Li11 O23 1.993528 1_555
Li11 O21 2.173853 1_555
Li11 O18 2.188850 1_555
Li11 O9 2.209978 1_545
Li11 O32 2.552204 1_555
O0 P0 1.605626 1_545
O0 W2 2.072255 1_555
O1 P1 1.605626 1_545
O1 W3 2.072255 1_555
O2 P2 1.555236 1_455
O2 W2 2.030487 1_565
O3 P3 1.555236 1_555
O3 W3 2.030487 1_565
O4 W0 1.778697 1_555
O5 W1 1.778697 1_555
O6 P2 1.503118 1_555
O7 P3 1.503118 1_555
O8 P2 1.564368 1_555
O8 W1 2.125391 1_556
O9 P3 1.564368 1_555
O9 W0 2.125391 1_555
O10 P0 1.507431 1_555
O11 P1 1.507431 1_555
O12 P0 1.539359 1_555
O13 P1 1.539359 1_555
O14 P4 1.578657 1_555
O14 W0 2.117885 1_555
O15 P0 1.592338 1_555
O15 W2 2.061224 1_555
O16 P5 1.578657 1_555
O16 W1 2.117885 1_455
O17 P1 1.592338 1_555
O17 W3 2.061224 1_555
O18 P6 1.592338 1_555
O18 W0 2.061224 1_555
O19 P2 1.578657 1_555
O19 W2 2.117885 1_655
O20 P7 1.592338 1_555
O20 W1 2.061224 1_555
O21 P3 1.578657 1_555
O21 W3 2.117885 1_555
O22 P6 1.539359 1_555
O23 P7 1.539359 1_555
O24 P6 1.507431 1_555
O25 P7 1.507431 1_555
O26 P4 1.564368 1_555
O26 W3 2.125391 1_555
O27 P5 1.564368 1_555
O27 W2 2.125391 1_554
O28 P4 1.503118 1_555
O29 P5 1.503118 1_555
O30 W2 1.778697 1_555
O31 W3 1.778697 1_555
O32 P4 1.555236 1_555
O32 W0 2.030487 1_545
O33 P5 1.555236 1_655
O33 W1 2.030487 1_545
O34 P6 1.605626 1_565
O34 W0 2.072255 1_555
O35 P7 1.605626 1_565
O35 W1 2.072255 1_555
