# generated using pymatgen
data_Li8CrS6
_symmetry_space_group_name_H-M   'P 1'
_cell_length_a   6.85176204
_cell_length_b   6.85176204
_cell_length_c   13.37079900
_cell_angle_alpha   90.00000000
_cell_angle_beta   90.00000000
_cell_angle_gamma   120.00000040
_symmetry_Int_Tables_number   1
_chemical_formula_structural   Li8CrS6
_chemical_formula_sum   'Li16 Cr2 S12'
_cell_volume   543.61637914
_cell_formula_units_Z   2
loop_
 _symmetry_equiv_pos_site_id
 _symmetry_equiv_pos_as_xyz
  1  'x, y, z'
loop_
 _atom_site_type_symbol
 _atom_site_label
 _atom_site_symmetry_multiplicity
 _atom_site_fract_x
 _atom_site_fract_y
 _atom_site_fract_z
 _atom_site_occupancy
  Li  Li0  1  0.00000000  0.68545200  0.76571200  1
  Li  Li1  1  0.00000000  0.62103700  0.13015700  1
  Li  Li2  1  0.00000000  0.37896300  0.63015700  1
  Li  Li3  1  0.00000000  0.31454800  0.26571200  1
  Li  Li4  1  0.33333300  0.66666700  0.40290000  1
  Li  Li5  1  0.33333300  0.66666700  0.90290000  1
  Li  Li6  1  0.31454800  0.31454800  0.76571200  1
  Li  Li7  1  0.37896300  0.37896300  0.13015700  1
  Li  Li8  1  0.62103700  0.62103700  0.63015700  1
  Li  Li9  1  0.31454800  0.00000000  0.26571200  1
  Li  Li10  1  0.68545200  0.68545200  0.26571200  1
  Li  Li11  1  0.37896300  0.00000000  0.63015700  1
  Li  Li12  1  0.66666700  0.33333300  0.90290000  1
  Li  Li13  1  0.66666700  0.33333300  0.40290000  1
  Li  Li14  1  0.62103700  0.00000000  0.13015700  1
  Li  Li15  1  0.68545200  0.00000000  0.76571200  1
  Cr  Cr0  1  0.00000000  0.00000000  0.99858500  1
  Cr  Cr1  1  0.00000000  0.00000000  0.49858500  1
  S  S0  1  0.00000000  0.69520200  0.95073600  1
  S  S1  1  0.00000000  0.30479800  0.45073600  1
  S  S2  1  0.33333300  0.66666700  0.21786600  1
  S  S3  1  0.00000000  0.00000000  0.16578400  1
  S  S4  1  0.00000000  0.00000000  0.66578400  1
  S  S5  1  0.33333300  0.66666700  0.71786600  1
  S  S6  1  0.30479800  0.30479800  0.95073600  1
  S  S7  1  0.30479800  0.00000000  0.45073600  1
  S  S8  1  0.69520200  0.69520200  0.45073600  1
  S  S9  1  0.66666700  0.33333300  0.71786600  1
  S  S10  1  0.66666700  0.33333300  0.21786600  1
  S  S11  1  0.69520200  0.00000000  0.95073600  1
loop_
_geom_bond_atom_site_label_1
_geom_bond_atom_site_label_2
_geom_bond_distance
_geom_bond_site_symmetry_2
Li0 S5 2.436407 1_555
Li0 S9 2.436411 1_455
Li0 S0 2.474821 1_555
Li0 S4 2.535770 1_565
Li1 S2 2.444441 1_555
Li1 S10 2.444443 1_455
Li1 S0 2.452231 1_554
Li1 S3 2.639899 1_565
Li2 S9 2.444441 1_455
Li2 S5 2.444443 1_555
Li2 S1 2.452231 1_555
Li2 S4 2.639899 1_555
Li3 S10 2.436407 1_455
Li3 S2 2.436411 1_555
Li3 S1 2.474821 1_555
Li3 S3 2.535770 1_555
Li4 S7 2.471871 1_565
Li4 S1 2.471874 1_555
Li4 S8 2.471877 1_555
Li4 S2 2.474052 1_555
Li5 S0 2.471871 1_555
Li5 S11 2.471874 1_565
Li5 S6 2.471877 1_555
Li5 S5 2.474052 1_555
Li6 S5 2.436414 1_555
Li6 S9 2.436414 1_555
Li6 S6 2.474821 1_555
Li6 S4 2.535770 1_555
Li7 S2 2.444447 1_555
Li7 S10 2.444447 1_555
Li7 S6 2.452231 1_554
Li7 S3 2.639899 1_555
Li8 S9 2.444447 1_555
Li8 S5 2.444447 1_555
Li8 S8 2.452231 1_555
Li8 S4 2.639899 1_665
Li9 S2 2.436407 1_545
Li9 S10 2.436411 1_555
Li9 S7 2.474821 1_555
Li9 S3 2.535770 1_555
Li10 S2 2.436414 1_555
Li10 S10 2.436414 1_555
Li10 S8 2.474821 1_555
Li10 S3 2.535770 1_665
Li11 S5 2.444441 1_545
Li11 S9 2.444443 1_555
Li11 S7 2.452231 1_555
Li11 S4 2.639899 1_555
Li12 S11 2.471871 1_555
Li12 S0 2.471874 1_655
Li12 S6 2.471877 1_555
Li12 S9 2.474052 1_555
Li13 S1 2.471871 1_655
Li13 S7 2.471874 1_555
Li13 S8 2.471877 1_555
Li13 S10 2.474052 1_555
Li14 S10 2.444441 1_555
Li14 S2 2.444443 1_545
Li14 S11 2.452231 1_554
Li14 S3 2.639899 1_655
Li15 S9 2.436407 1_555
Li15 S5 2.436411 1_545
Li15 S11 2.474821 1_555
Li15 S4 2.535770 1_655
Cr0 S6 2.184204 1_555
Cr0 S11 2.184204 1_455
Cr0 S0 2.184204 1_545
Cr0 S3 2.235584 1_556
Cr1 S8 2.184204 1_445
Cr1 S1 2.184204 1_555
Cr1 S7 2.184204 1_555
Cr1 S4 2.235584 1_555
