# generated using pymatgen
data_Li5Ni7O12
_symmetry_space_group_name_H-M   'P 1'
_cell_length_a   4.96657919
_cell_length_b   4.96657919
_cell_length_c   9.48609379
_cell_angle_alpha   85.11106723
_cell_angle_beta   85.11106723
_cell_angle_gamma   119.87938791
_symmetry_Int_Tables_number   1
_chemical_formula_structural   Li5Ni7O12
_chemical_formula_sum   'Li5 Ni7 O12'
_cell_volume   199.93127530
_cell_formula_units_Z   1
loop_
 _symmetry_equiv_pos_site_id
 _symmetry_equiv_pos_as_xyz
  1  'x, y, z'
loop_
 _atom_site_type_symbol
 _atom_site_label
 _atom_site_symmetry_multiplicity
 _atom_site_fract_x
 _atom_site_fract_y
 _atom_site_fract_z
 _atom_site_occupancy
  Li  Li0  1  0.84074842  0.66077693  0.25377563  1
  Li  Li1  1  0.66620046  0.83997510  0.74730370  1
  Li  Li2  1  0.33922307  0.15925158  0.74622437  1
  Li  Li3  1  0.16002490  0.33379954  0.25269630  1
  Li  Li4  1  0.08476589  0.91523411  0.50000000  1
  Ni  Ni0  1  0.91604638  0.08395362  0.00000000  1
  Ni  Ni1  1  0.00138216  0.50817232  0.74586261  1
  Ni  Ni2  1  0.74996914  0.25003086  0.50000000  1
  Ni  Ni3  1  0.49182768  -0.00138216  0.25413739  1
  Ni  Ni4  1  0.58202275  0.41797725  0.00000000  1
  Ni  Ni5  1  0.41903709  0.58096291  0.50000000  1
  Ni  Ni6  1  0.24880157  0.75119843  0.00000000  1
  O  O0  1  0.03485282  0.23358907  0.61634501  1
  O  O1  1  0.76641093  0.96514718  0.38365499  1
  O  O2  1  0.85852567  0.35894039  0.12442564  1
  O  O3  1  0.64105961  0.14147433  0.87557436  1
  O  O4  1  0.70338457  0.51928755  0.61565392  1
  O  O5  1  0.48071245  0.29661543  0.38434608  1
  O  O6  1  0.52378227  0.71842704  0.11635857  1
  O  O7  1  0.28157296  0.47621773  0.88364143  1
  O  O8  1  0.37986154  0.85735569  0.62003601  1
  O  O9  1  0.14264431  0.62013846  0.37996399  1
  O  O10  1  0.21037774  0.02323634  0.11877290  1
  O  O11  1  0.97676366  0.78962226  0.88122710  1
loop_
_geom_bond_atom_site_label_1
_geom_bond_atom_site_label_2
_geom_bond_distance
_geom_bond_site_symmetry_2
Li0 O5 2.005273 1_555
Li0 O10 2.040703 1_665
Li0 O2 2.046366 1_555
Li0 O9 2.070765 1_655
Li0 O1 2.176104 1_555
Li0 O6 2.234884 1_555
Li1 O8 1.970937 1_555
Li1 O3 2.051680 1_565
Li1 O7 2.080336 1_555
Li1 O0 2.085521 1_665
Li1 O11 2.172503 1_555
Li1 O4 2.173306 1_555
Li2 O4 2.005273 1_555
Li2 O11 2.040703 1_445
Li2 O3 2.046366 1_555
Li2 O8 2.070765 1_545
Li2 O0 2.176104 1_555
Li2 O7 2.234884 1_555
Li3 O9 1.970937 1_555
Li3 O2 2.051680 1_455
Li3 O6 2.080336 1_555
Li3 O1 2.085521 1_445
Li3 O10 2.172503 1_555
Li3 O5 2.173306 1_555
Li4 O8 2.043445 1_555
Li4 O9 2.043445 1_555
Li4 O4 2.055573 1_455
Li4 O5 2.055573 1_565
Li4 O1 2.102579 1_455
Li4 O0 2.102579 1_565
Ni0 O2 1.986465 1_555
Ni0 O3 1.986465 1_554
Ni0 O7 2.019310 1_654
Ni0 O6 2.019310 1_545
Ni0 O10 2.039441 1_655
Ni0 O11 2.039441 1_544
Ni1 O0 1.968138 1_555
Ni1 O8 1.995604 1_555
Ni1 O3 2.007200 1_455
Ni1 O11 2.016743 1_455
Ni1 O4 2.024984 1_455
Ni1 O7 2.040739 1_555
Ni2 O5 1.886949 1_555
Ni2 O4 1.886949 1_555
Ni2 O0 1.895413 1_655
Ni2 O1 1.895413 1_545
Ni2 O8 2.042506 1_545
Ni2 O9 2.042506 1_655
Ni3 O1 1.968138 1_545
Ni3 O9 1.995604 1_545
Ni3 O2 2.007200 1_555
Ni3 O10 2.016743 1_555
Ni3 O5 2.024984 1_555
Ni3 O6 2.040739 1_545
Ni4 O2 1.995864 1_555
Ni4 O3 1.995864 1_554
Ni4 O10 2.045370 1_555
Ni4 O11 2.045370 1_554
Ni4 O7 2.045747 1_554
Ni4 O6 2.045747 1_555
Ni5 O8 1.927068 1_555
Ni5 O9 1.927068 1_555
Ni5 O0 1.967724 1_555
Ni5 O1 1.967724 1_555
Ni5 O4 1.982345 1_555
Ni5 O5 1.982345 1_555
Ni6 O7 1.886216 1_554
Ni6 O6 1.886216 1_555
Ni6 O10 1.900272 1_565
Ni6 O11 1.900272 1_454
Ni6 O2 2.097937 1_455
Ni6 O3 2.097937 1_564
