# generated using pymatgen
data_Y3I7O
_symmetry_space_group_name_H-M   'P 1'
_cell_length_a   8.38538661
_cell_length_b   8.38538661
_cell_length_c   14.89043400
_cell_angle_alpha   90.00000000
_cell_angle_beta   90.00000000
_cell_angle_gamma   120.00000481
_symmetry_Int_Tables_number   1
_chemical_formula_structural   Y3I7O
_chemical_formula_sum   'Y6 I14 O2'
_cell_volume   906.74286702
_cell_formula_units_Z   2
loop_
 _symmetry_equiv_pos_site_id
 _symmetry_equiv_pos_as_xyz
  1  'x, y, z'
loop_
 _atom_site_type_symbol
 _atom_site_label
 _atom_site_symmetry_multiplicity
 _atom_site_fract_x
 _atom_site_fract_y
 _atom_site_fract_z
 _atom_site_occupancy
  Y  Y0  1  0.14700800  0.85299200  0.75879300  1
  Y  Y1  1  0.14700800  0.29401700  0.75879300  1
  Y  Y2  1  0.29401700  0.14700800  0.25879300  1
  Y  Y3  1  0.70598300  0.85299200  0.75879300  1
  Y  Y4  1  0.85299200  0.70598300  0.25879300  1
  Y  Y5  1  0.85299200  0.14700800  0.25879300  1
  I  I0  1  0.17049000  0.82951000  0.12765800  1
  I  I1  1  0.00090300  0.50045200  0.37354400  1
  I  I2  1  0.33333300  0.66666700  0.64127700  1
  I  I3  1  0.17049000  0.34098000  0.12765800  1
  I  I4  1  0.49954800  0.99909700  0.37354400  1
  I  I5  1  0.49954800  0.50045200  0.37354400  1
  I  I6  1  0.65902000  0.82951000  0.12765800  1
  I  I7  1  0.34098000  0.17049000  0.62765800  1
  I  I8  1  0.50045200  0.49954800  0.87354400  1
  I  I9  1  0.50045200  0.00090300  0.87354400  1
  I  I10  1  0.66666700  0.33333300  0.14127700  1
  I  I11  1  0.82951000  0.65902000  0.62765800  1
  I  I12  1  0.99909700  0.49954800  0.87354400  1
  I  I13  1  0.82951000  0.17049000  0.62765800  1
  O  O0  1  0.00000000  0.00000000  0.29620400  1
  O  O1  1  0.00000000  0.00000000  0.79620400  1
loop_
_geom_bond_atom_site_label_1
_geom_bond_atom_site_label_2
_geom_bond_distance
_geom_bond_site_symmetry_2
I0 Y2 3.035812 1_565
I0 Y4 3.035812 1_455
I1 Y4 3.092870 1_455
I1 Y5 3.092882 1_455
I2 Y1 3.222634 1_555
I2 Y3 3.222634 1_555
I2 Y0 3.222635 1_555
I3 Y5 3.035813 1_455
I3 Y2 3.035818 1_555
I4 Y2 3.092870 1_565
I4 Y5 3.092882 1_565
I5 Y2 3.092881 1_555
I5 Y4 3.092881 1_555
I6 Y5 3.035813 1_565
I6 Y4 3.035818 1_555
I7 Y0 3.035813 1_545
I7 Y1 3.035818 1_555
I8 Y1 3.092881 1_555
I8 Y3 3.092881 1_555
I9 Y3 3.092870 1_545
I9 Y0 3.092882 1_545
I10 Y2 3.222634 1_555
I10 Y4 3.222634 1_555
I10 Y5 3.222635 1_555
I11 Y0 3.035813 1_655
I11 Y3 3.035818 1_555
I12 Y1 3.092870 1_655
I12 Y0 3.092882 1_655
I13 Y3 3.035812 1_545
I13 Y1 3.035812 1_655
O0 Y5 2.206606 1_455
O0 Y2 2.206613 1_555
O0 Y4 2.206613 1_445
O1 Y0 2.206606 1_545
O1 Y3 2.206613 1_445
O1 Y1 2.206613 1_555
