# generated using pymatgen
data_Cs4Zr3Mn(PO4)6
_symmetry_space_group_name_H-M   'P 1'
_cell_length_a   10.50685900
_cell_length_b   10.50957900
_cell_length_c   10.51429814
_cell_angle_alpha   89.99071981
_cell_angle_beta   90.00000000
_cell_angle_gamma   90.00000000
_symmetry_Int_Tables_number   1
_chemical_formula_structural   Cs4Zr3Mn(PO4)6
_chemical_formula_sum   'Cs8 Zr6 Mn2 P12 O48'
_cell_volume   1161.01680263
_cell_formula_units_Z   2
loop_
 _symmetry_equiv_pos_site_id
 _symmetry_equiv_pos_as_xyz
  1  'x, y, z'
loop_
 _atom_site_type_symbol
 _atom_site_label
 _atom_site_symmetry_multiplicity
 _atom_site_fract_x
 _atom_site_fract_y
 _atom_site_fract_z
 _atom_site_occupancy
  Cs  Cs0  1  0.06714200  0.18546300  0.06634300  1
  Cs  Cs1  1  0.78947900  0.04445300  0.71711200  1
  Cs  Cs2  1  0.28947900  0.95554700  0.28288800  1
  Cs  Cs3  1  0.56714200  0.81453700  0.93365700  1
  Cs  Cs4  1  0.92881200  0.67656500  0.42801100  1
  Cs  Cs5  1  0.20995300  0.53556200  0.79757400  1
  Cs  Cs6  1  0.70995300  0.46443800  0.20242600  1
  Cs  Cs7  1  0.42881200  0.32343500  0.57198900  1
  Zr  Zr0  1  0.41432100  0.16698300  0.91401300  1
  Zr  Zr1  1  0.64058700  0.11014600  0.35725200  1
  Zr  Zr2  1  0.14058700  0.88985400  0.64274800  1
  Zr  Zr3  1  0.91432100  0.83301700  0.08598700  1
  Zr  Zr4  1  0.58743300  0.65985300  0.58783000  1
  Zr  Zr5  1  0.08743300  0.34014700  0.41217000  1
  Mn  Mn0  1  0.35606700  0.60444800  0.14206800  1
  Mn  Mn1  1  0.85606700  0.39555200  0.85793200  1
  P  P0  1  0.12506100  0.20832200  0.72773800  1
  P  P1  1  0.72918000  0.12374000  0.04166400  1
  P  P2  1  0.95777900  0.02201700  0.37474000  1
  P  P3  1  0.45777900  0.97798300  0.62526000  1
  P  P4  1  0.22918000  0.87626000  0.95833600  1
  P  P5  1  0.62506100  0.79167800  0.27226200  1
  P  P6  1  0.87589900  0.70613500  0.76995000  1
  P  P7  1  0.27116800  0.62721900  0.45628200  1
  P  P8  1  0.04359500  0.51936600  0.12282700  1
  P  P9  1  0.54359500  0.48063400  0.87717300  1
  P  P10  1  0.77116800  0.37278100  0.54371800  1
  P  P11  1  0.37589900  0.29386500  0.23005000  1
  O  O0  1  0.35917400  0.24007800  0.09231700  1
  O  O1  1  0.25653400  0.22123400  0.79774500  1
  O  O2  1  0.79967800  0.22367600  0.96550400  1
  O  O3  1  0.47630200  0.20621000  0.29811800  1
  O  O4  1  0.72543300  0.16092800  0.18568300  1
  O  O5  1  0.00868600  0.15961400  0.35913000  1
  O  O6  1  0.58927800  0.10691300  0.99264500  1
  O  O7  1  0.08913900  0.06415100  0.72361700  1
  O  O8  1  0.53674500  0.04797100  0.52154200  1
  O  O9  1  0.47491300  0.05162700  0.75244500  1
  O  O10  1  0.81588500  0.02260100  0.41492500  1
  O  O11  1  0.79905000  0.99257600  0.02951300  1
  O  O12  1  0.29905000  0.00742400  0.97048700  1
  O  O13  1  0.31588500  0.97739900  0.58507500  1
  O  O14  1  0.97491300  0.94837300  0.24755500  1
  O  O15  1  0.03674500  0.95202900  0.47845800  1
  O  O16  1  0.58913900  0.93584900  0.27638300  1
  O  O17  1  0.08927800  0.89308700  0.00735500  1
  O  O18  1  0.50868600  0.84038600  0.64087000  1
  O  O19  1  0.22543300  0.83907200  0.81431700  1
  O  O20  1  0.97630200  0.79379000  0.70188200  1
  O  O21  1  0.29967800  0.77632400  0.03449600  1
  O  O22  1  0.75653400  0.77876600  0.20225500  1
  O  O23  1  0.85917400  0.75992200  0.90768300  1
  O  O24  1  0.64236800  0.74204700  0.41139500  1
  O  O25  1  0.74710000  0.72548600  0.69712200  1
  O  O26  1  0.20238700  0.72784400  0.54300800  1
  O  O27  1  0.52452100  0.71672900  0.20095900  1
  O  O28  1  0.26686600  0.67121500  0.31881000  1
  O  O29  1  0.99085500  0.65974700  0.14210900  1
  O  O30  1  0.40855600  0.60996800  0.51030800  1
  O  O31  1  0.92090100  0.56894100  0.76500500  1
  O  O32  1  0.45875300  0.54991100  0.97148400  1
  O  O33  1  0.52887200  0.54908200  0.74271900  1
  O  O34  1  0.18289500  0.51871300  0.08306500  1
  O  O35  1  0.19863300  0.49791900  0.47605600  1
  O  O36  1  0.69863300  0.50208100  0.52394400  1
  O  O37  1  0.68289500  0.48128700  0.91693500  1
  O  O38  1  0.02887200  0.45091800  0.25728100  1
  O  O39  1  0.95875300  0.45008900  0.02851600  1
  O  O40  1  0.42090100  0.43105900  0.23499500  1
  O  O41  1  0.90855600  0.39003200  0.48969200  1
  O  O42  1  0.49085500  0.34025300  0.85789100  1
  O  O43  1  0.76686600  0.32878500  0.68119000  1
  O  O44  1  0.02452100  0.28327100  0.79904100  1
  O  O45  1  0.70238700  0.27215600  0.45699200  1
  O  O46  1  0.24710000  0.27451400  0.30287800  1
  O  O47  1  0.14236800  0.25795300  0.58860500  1
loop_
_geom_bond_atom_site_label_1
_geom_bond_atom_site_label_2
_geom_bond_distance
_geom_bond_site_symmetry_2
Cs0 O44 3.025738 1_554
Cs0 O2 3.030271 1_454
Cs0 O39 3.031389 1_455
Cs0 O0 3.133495 1_555
Cs0 O17 3.143432 1_545
Cs0 O5 3.150811 1_555
Cs0 O12 3.233357 1_554
Cs0 O46 3.261427 1_555
Cs0 O14 3.282739 1_445
Cs1 O43 3.021280 1_555
Cs1 O7 3.156026 1_655
Cs1 O10 3.197669 1_555
Cs1 O2 3.222061 1_555
Cs1 O20 3.289181 1_545
Cs1 O9 3.326770 1_555
Cs1 O11 3.331049 1_546
Cs1 O8 3.358720 1_555
Cs1 O25 3.388211 1_545
Cs2 O28 3.021280 1_555
Cs2 O16 3.156026 1_555
Cs2 O13 3.197669 1_555
Cs2 O21 3.222061 1_555
Cs2 O3 3.289181 1_565
Cs2 O14 3.326770 1_455
Cs2 O12 3.331049 1_564
Cs2 O15 3.358720 1_555
Cs2 O46 3.388211 1_565
Cs3 O27 3.025738 1_556
Cs3 O21 3.030271 1_556
Cs3 O32 3.031389 1_555
Cs3 O23 3.133495 1_555
Cs3 O6 3.143432 1_565
Cs3 O18 3.150811 1_555
Cs3 O11 3.233357 1_556
Cs3 O25 3.261427 1_555
Cs3 O9 3.282739 1_565
Cs4 O29 3.081030 1_555
Cs4 O41 3.087626 1_555
Cs4 O24 3.092239 1_555
Cs4 O15 3.154198 1_655
Cs4 O38 3.154814 1_655
Cs4 O26 3.164626 1_655
Cs4 O20 3.171716 1_555
Cs4 O22 3.172317 1_555
Cs4 O36 3.198188 1_555
Cs5 O34 3.020337 1_556
Cs5 O31 3.076334 1_455
Cs5 O32 3.193736 1_555
Cs5 O19 3.198783 1_555
Cs5 O44 3.290355 1_555
Cs5 O1 3.339513 1_555
Cs5 O26 3.354446 1_555
Cs5 O33 3.403076 1_555
Cs5 O35 3.405747 1_555
Cs6 O37 3.020337 1_554
Cs6 O40 3.076334 1_555
Cs6 O39 3.193736 1_555
Cs6 O4 3.198783 1_555
Cs6 O27 3.290355 1_555
Cs6 O22 3.339513 1_555
Cs6 O45 3.354446 1_555
Cs6 O38 3.403076 1_655
Cs6 O36 3.405747 1_555
Cs7 O42 3.081030 1_555
Cs7 O30 3.087626 1_555
Cs7 O47 3.092239 1_555
Cs7 O8 3.154198 1_555
Cs7 O33 3.154814 1_555
Cs7 O45 3.164626 1_555
Cs7 O3 3.171716 1_555
Cs7 O1 3.172317 1_555
Cs7 O35 3.198188 1_555
Mn0 O34 2.123081 1_555
Mn0 O32 2.170204 1_554
Mn0 O40 2.176853 1_555
Mn0 O28 2.196481 1_555
Mn0 O21 2.211900 1_555
Mn0 O27 2.215565 1_555
Mn1 O37 2.123081 1_555
Mn1 O39 2.170204 1_556
Mn1 O31 2.176853 1_555
Mn1 O43 2.196481 1_555
Mn1 O2 2.211900 1_555
Mn1 O44 2.215565 1_655
O0 P11 1.564567 1_555
O0 Zr0 2.107363 1_554
O1 P0 1.571124 1_555
O1 Zr0 2.137230 1_555
O2 P1 1.514171 1_556
O3 P11 1.572734 1_555
O3 Zr1 2.094072 1_555
O4 P1 1.564439 1_555
O4 Zr1 2.081679 1_555
O5 P2 1.550521 1_455
O5 Zr5 2.143772 1_555
O6 P1 1.567685 1_556
O6 Zr0 2.112125 1_555
O7 P0 1.562085 1_555
O7 Zr2 2.090725 1_545
O8 P3 1.555114 1_545
O8 Zr1 2.144970 1_555
O9 P3 1.555647 1_545
O9 Zr0 2.182104 1_555
O10 P2 1.549588 1_555
O10 Zr1 2.146249 1_555
O11 P1 1.567005 1_565
O11 Zr3 2.151998 1_555
O12 P4 1.567005 1_545
O12 Zr0 2.151998 1_555
O13 P3 1.549588 1_555
O13 Zr2 2.146249 1_555
O14 P2 1.555647 1_565
O14 Zr3 2.182104 1_555
O15 P2 1.555114 1_465
O15 Zr2 2.144970 1_555
O16 P5 1.562085 1_555
O16 Zr1 2.090725 1_565
O17 P4 1.567685 1_554
O17 Zr3 2.112125 1_455
O18 P3 1.550521 1_555
O18 Zr4 2.143772 1_555
O19 P4 1.564439 1_555
O19 Zr2 2.081679 1_555
O20 P6 1.572734 1_555
O20 Zr2 2.094072 1_655
O21 P4 1.514171 1_554
O22 P5 1.571124 1_555
O22 Zr3 2.137230 1_555
O23 P6 1.564567 1_555
O23 Zr3 2.107363 1_556
O24 P5 1.563625 1_555
O24 Zr4 2.126073 1_555
O25 P6 1.568122 1_555
O25 Zr4 2.147296 1_555
O26 P7 1.572394 1_555
O26 Zr2 2.102618 1_555
O27 P5 1.516108 1_555
O28 P7 1.518178 1_555
O29 P8 1.588995 1_655
O29 Zr3 2.076174 1_555
O30 P7 1.561810 1_555
O30 Zr4 2.114627 1_555
O31 P6 1.518298 1_555
O32 P9 1.519295 1_555
O33 P9 1.593611 1_555
O33 Zr4 2.094135 1_555
O34 P8 1.522160 1_555
O35 P7 1.571793 1_555
O35 Zr5 2.136817 1_555
O36 P10 1.571793 1_555
O36 Zr4 2.136817 1_555
O37 P9 1.522160 1_555
O38 P8 1.593611 1_555
O38 Zr5 2.094135 1_555
O39 P8 1.519295 1_655
O40 P11 1.518298 1_555
O41 P10 1.561810 1_555
O41 Zr5 2.114627 1_655
O42 P9 1.588995 1_555
O42 Zr0 2.076174 1_555
O43 P10 1.518178 1_555
O44 P0 1.516108 1_555
O45 P10 1.572394 1_555
O45 Zr1 2.102618 1_555
O46 P11 1.568122 1_555
O46 Zr5 2.147296 1_555
O47 P0 1.563625 1_555
O47 Zr5 2.126073 1_555
