# generated using pymatgen
data_Ni3OF5
_symmetry_space_group_name_H-M   'P 1'
_cell_length_a   5.62510534
_cell_length_b   5.62510534
_cell_length_c   7.27361783
_cell_angle_alpha   72.81611771
_cell_angle_beta   72.81611771
_cell_angle_gamma   73.32116919
_symmetry_Int_Tables_number   1
_chemical_formula_structural   Ni3OF5
_chemical_formula_sum   'Ni6 O2 F10'
_cell_volume   204.97100250
_cell_formula_units_Z   2
loop_
 _symmetry_equiv_pos_site_id
 _symmetry_equiv_pos_as_xyz
  1  'x, y, z'
loop_
 _atom_site_type_symbol
 _atom_site_label
 _atom_site_symmetry_multiplicity
 _atom_site_fract_x
 _atom_site_fract_y
 _atom_site_fract_z
 _atom_site_occupancy
  Ni  Ni0  1  0.67187300  0.67187300  0.83891400  1
  Ni  Ni1  1  0.66622700  0.66622700  0.32562100  1
  Ni  Ni2  1  0.33377300  0.33377300  0.67437900  1
  Ni  Ni3  1  0.32812700  0.32812700  0.16108600  1
  Ni  Ni4  1  0.00000000  0.00000000  0.50000000  1
  Ni  Ni5  1  0.00000000  0.00000000  0.00000000  1
  O  O0  1  0.22899600  0.22899600  0.96475800  1
  O  O1  1  0.77100400  0.77100400  0.03524200  1
  F  F0  1  0.63621300  0.03151500  0.66652200  1
  F  F1  1  0.96848500  0.36378700  0.33347800  1
  F  F2  1  0.89860900  0.89860900  0.29952100  1
  F  F3  1  0.57005900  0.57005900  0.62997000  1
  F  F4  1  0.10139100  0.10139100  0.70047900  1
  F  F5  1  0.42994100  0.42994100  0.37003000  1
  F  F6  1  0.69489900  0.30510100  0.00000000  1
  F  F7  1  0.36378700  0.96848500  0.33347800  1
  F  F8  1  0.03151500  0.63621300  0.66652200  1
  F  F9  1  0.30510100  0.69489900  0.00000000  1
loop_
_geom_bond_atom_site_label_1
_geom_bond_atom_site_label_2
_geom_bond_distance
_geom_bond_site_symmetry_2
Ni0 O1 1.944382 1_556
Ni1 O1 1.970795 1_555
Ni2 O0 1.970795 1_555
Ni3 O0 1.944382 1_554
Ni5 O1 1.986576 1_445
Ni5 O0 1.986576 1_554
F0 Ni0 2.030263 1_545
F0 Ni2 2.031735 1_555
F0 Ni4 2.034722 1_655
F1 Ni3 2.030263 1_655
F1 Ni1 2.031735 1_555
F1 Ni4 2.034722 1_655
F2 Ni4 1.986575 1_665
F2 Ni5 2.028599 1_665
F2 Ni1 2.034945 1_555
F3 Ni2 2.035735 1_555
F3 Ni0 2.045143 1_555
F3 Ni1 2.058788 1_555
F4 Ni4 1.986575 1_555
F4 Ni5 2.028599 1_556
F4 Ni2 2.034945 1_555
F5 Ni1 2.035735 1_555
F5 Ni3 2.045143 1_555
F5 Ni2 2.058788 1_555
F6 Ni3 2.038149 1_555
F6 Ni0 2.038149 1_554
F6 Ni5 2.049425 1_655
F7 Ni3 2.030263 1_565
F7 Ni1 2.031735 1_555
F7 Ni4 2.034722 1_565
F8 Ni0 2.030263 1_455
F8 Ni2 2.031735 1_555
F8 Ni4 2.034722 1_565
F9 Ni3 2.038149 1_555
F9 Ni0 2.038149 1_554
F9 Ni5 2.049425 1_565
