# generated using pymatgen
data_Li4Mn2NbNi3(PO4)6
_symmetry_space_group_name_H-M   'P 1'
_cell_length_a   8.54865718
_cell_length_b   8.65232866
_cell_length_c   8.64067687
_cell_angle_alpha   62.05682697
_cell_angle_beta   62.33511105
_cell_angle_gamma   62.44966818
_symmetry_Int_Tables_number   1
_chemical_formula_structural   Li4Mn2NbNi3(PO4)6
_chemical_formula_sum   'Li4 Mn2 Nb1 Ni3 P6 O24'
_cell_volume   474.91645855
_cell_formula_units_Z   1
loop_
 _symmetry_equiv_pos_site_id
 _symmetry_equiv_pos_as_xyz
  1  'x, y, z'
loop_
 _atom_site_type_symbol
 _atom_site_label
 _atom_site_symmetry_multiplicity
 _atom_site_fract_x
 _atom_site_fract_y
 _atom_site_fract_z
 _atom_site_occupancy
  Li  Li0  1  0.74363200  0.14965500  0.35448700  1
  Li  Li1  1  0.30518600  0.84026600  0.64368500  1
  Li  Li2  1  0.64074800  0.30515500  0.84297300  1
  Li  Li3  1  0.84188800  0.64011700  0.30904200  1
  Mn  Mn0  1  0.01472900  0.00007800  0.99696500  1
  Mn  Mn1  1  0.48667800  0.50386200  0.49935200  1
  Nb  Nb0  1  0.85331300  0.84782600  0.85138900  1
  Ni  Ni0  1  0.14252300  0.14883100  0.14702500  1
  Ni  Ni1  1  0.35640000  0.35382400  0.35096300  1
  Ni  Ni2  1  0.64706800  0.64983600  0.65277400  1
  P  P0  1  0.05308700  0.74477300  0.44148700  1
  P  P1  1  0.44080100  0.05223600  0.74906800  1
  P  P2  1  0.74798400  0.44107400  0.05067800  1
  P  P3  1  0.25192400  0.53966200  0.95654100  1
  P  P4  1  0.54877400  0.95741200  0.25385100  1
  P  P5  1  0.94659200  0.24965000  0.53786800  1
  O  O0  1  0.11545100  0.29490200  0.49407400  1
  O  O1  1  0.30893400  0.51560800  0.10898000  1
  O  O2  1  0.05776900  0.91057500  0.26100400  1
  O  O3  1  0.54924600  0.10491400  0.30356000  1
  O  O4  1  0.00907100  0.80843500  0.60588600  1
  O  O5  1  0.24174200  0.59283800  0.43233100  1
  O  O6  1  0.25311800  0.08090000  0.90115500  1
  O  O7  1  0.45735900  0.23134300  0.58367500  1
  O  O8  1  0.17671600  0.39615600  0.99139400  1
  O  O9  1  0.59766700  0.43111700  0.24312400  1
  O  O10  1  0.10397100  0.74512700  0.91542900  1
  O  O11  1  0.39020400  0.01092100  0.18905600  1
  O  O12  1  0.60452000  0.00086400  0.82006200  1
  O  O13  1  0.89875800  0.24941200  0.07681100  1
  O  O14  1  0.41156000  0.55758300  0.76226600  1
  O  O15  1  0.81633100  0.60099900  0.00686000  1
  O  O16  1  0.55551600  0.76600200  0.41584200  1
  O  O17  1  0.75003700  0.90847100  0.10324900  1
  O  O18  1  0.75697900  0.41272400  0.56246500  1
  O  O19  1  0.95388900  0.18329000  0.39868700  1
  O  O20  1  0.47087100  0.89452500  0.69288800  1
  O  O21  1  0.91687300  0.09972500  0.74217500  1
  O  O22  1  0.68712100  0.47450500  0.89488200  1
  O  O23  1  0.89497200  0.68180800  0.47899600  1
loop_
_geom_bond_atom_site_label_1
_geom_bond_atom_site_label_2
_geom_bond_distance
_geom_bond_site_symmetry_2
Li0 O13 2.103252 1_555
Li0 O9 2.126354 1_555
Li0 O3 2.130404 1_555
Li0 O19 2.164891 1_555
Li0 O7 2.371011 1_555
Li0 O2 2.560486 1_645
Li1 O20 1.941298 1_555
Li1 O14 2.078004 1_555
Li1 O16 2.206718 1_555
Li1 O10 2.213055 1_555
Li2 O22 1.955440 1_555
Li2 O18 2.057467 1_555
Li2 O14 2.231157 1_555
Li2 O21 2.269444 1_555
Li3 O23 1.938894 1_555
Li3 O16 2.099681 1_555
Li3 O17 2.215911 1_555
Li3 O18 2.236129 1_555
Mn0 O6 2.129913 1_555
Mn0 O2 2.190961 1_546
Mn0 O13 2.212277 1_456
Mn0 O10 2.311946 1_545
Mn0 O21 2.356710 1_455
Mn0 O17 2.374646 1_446
Mn1 O5 2.128228 1_555
Mn1 O7 2.218223 1_555
Mn1 O9 2.236295 1_555
Mn1 O14 2.268948 1_555
Mn1 O16 2.306057 1_555
Mn1 O18 2.310878 1_555
Nb0 O12 1.985850 1_565
Nb0 O15 2.001737 1_556
Nb0 O4 2.005981 1_655
Nb0 O10 2.136868 1_655
Nb0 O21 2.151235 1_565
Nb0 O17 2.155996 1_556
Ni0 O8 1.997452 1_554
Ni0 O11 2.002405 1_555
Ni0 O19 2.079545 1_455
Ni0 O13 2.114122 1_455
Ni0 O6 2.131621 1_554
Ni0 O2 2.135618 1_545
Ni1 O1 2.003835 1_555
Ni1 O0 2.011747 1_555
Ni1 O3 2.106916 1_555
Ni1 O9 2.115835 1_555
Ni1 O5 2.139955 1_555
Ni1 O7 2.163232 1_555
Ni2 O22 2.001340 1_555
Ni2 O23 2.005112 1_555
Ni2 O20 2.030802 1_555
Ni2 O14 2.143733 1_555
Ni2 O16 2.155397 1_555
Ni2 O18 2.176472 1_555
O0 P5 1.502323 1_455
O1 P3 1.503710 1_554
O2 P0 1.545991 1_555
O3 P4 1.527545 1_545
O4 P0 1.583699 1_555
O5 P0 1.533995 1_555
O6 P1 1.530402 1_555
O7 P1 1.550299 1_555
O8 P3 1.501333 1_555
O9 P2 1.551679 1_555
O10 P3 1.622248 1_555
O11 P4 1.498871 1_545
O12 P1 1.580800 1_555
O13 P2 1.550613 1_555
O14 P3 1.590232 1_555
O15 P2 1.565531 1_555
O16 P4 1.587266 1_555
O17 P4 1.611311 1_555
O18 P5 1.583949 1_555
O19 P5 1.524530 1_555
O20 P1 1.531082 1_565
O21 P5 1.614294 1_555
O22 P2 1.520801 1_556
O23 P0 1.528977 1_655
