# generated using pymatgen
data_BaAlSi5N7O2
_symmetry_space_group_name_H-M   'P 1'
_cell_length_a   6.79151300
_cell_length_b   6.44768400
_cell_length_c   9.49384018
_cell_angle_alpha   75.37155508
_cell_angle_beta   90.00000000
_cell_angle_gamma   90.00000000
_symmetry_Int_Tables_number   1
_chemical_formula_structural   BaAlSi5N7O2
_chemical_formula_sum   'Ba2 Al2 Si10 N14 O4'
_cell_volume   402.25442957
_cell_formula_units_Z   2
loop_
 _symmetry_equiv_pos_site_id
 _symmetry_equiv_pos_as_xyz
  1  'x, y, z'
loop_
 _atom_site_type_symbol
 _atom_site_label
 _atom_site_symmetry_multiplicity
 _atom_site_fract_x
 _atom_site_fract_y
 _atom_site_fract_z
 _atom_site_occupancy
  Ba  Ba0  1  0.16777700  0.19703500  0.07720000  1
  Ba  Ba1  1  0.83222300  0.19703500  0.57720000  1
  Al  Al0  1  0.46344400  0.38295200  0.75761900  1
  Al  Al1  1  0.53655600  0.38295200  0.25761900  1
  Si  Si0  1  0.33376600  0.86133800  0.81021300  1
  Si  Si1  1  0.66623400  0.86133800  0.31021300  1
  Si  Si2  1  0.31338000  0.92195300  0.44542700  1
  Si  Si3  1  0.68662000  0.92195300  0.94542700  1
  Si  Si4  1  0.04698900  0.80813300  0.94355200  1
  Si  Si5  1  0.00746800  0.53427900  0.24151200  1
  Si  Si6  1  0.95301100  0.80813300  0.44355200  1
  Si  Si7  1  0.99253200  0.53427900  0.74151200  1
  Si  Si8  1  0.71235000  0.57102100  0.91953500  1
  Si  Si9  1  0.28765000  0.57102100  0.41953500  1
  N  N0  1  0.23639100  0.89794500  0.63105400  1
  N  N1  1  0.96825100  0.79708500  0.12578300  1
  N  N2  1  0.76360900  0.89794500  0.13105400  1
  N  N3  1  0.32849400  0.40234500  0.59082300  1
  N  N4  1  0.98950400  0.56213700  0.91953000  1
  N  N5  1  0.03174900  0.79708500  0.62578300  1
  N  N6  1  0.73495600  0.48176400  0.75225300  1
  N  N7  1  0.67150600  0.40234500  0.09082300  1
  N  N8  1  0.50583000  0.06060500  0.34388400  1
  N  N9  1  0.01049600  0.56213700  0.41953000  1
  N  N10  1  0.26504400  0.48176400  0.25225300  1
  N  N11  1  0.49417000  0.06060500  0.84388400  1
  N  N12  1  0.16955600  0.35563300  0.71109700  1
  N  N13  1  0.83044400  0.35563300  0.21109700  1
  O  O0  1  0.57200400  0.60018400  0.36266900  1
  O  O1  1  0.42799600  0.60018400  0.86266900  1
  O  O2  1  0.09651100  0.02395200  0.36784700  1
  O  O3  1  0.90348900  0.02395200  0.86784700  1
loop_
_geom_bond_atom_site_label_1
_geom_bond_atom_site_label_2
_geom_bond_distance
_geom_bond_site_symmetry_2
Ba0 N4 2.732826 1_454
Ba0 O2 2.745601 1_555
Ba0 N1 2.845729 1_445
Ba0 N10 2.847765 1_555
Ba0 N13 2.926927 1_455
Ba0 O3 3.088351 1_454
Ba0 N8 3.366046 1_555
Ba0 N12 3.366191 1_554
Ba0 O1 3.369597 1_554
Ba0 N11 3.402685 1_554
Ba1 N9 2.732826 1_655
Ba1 O3 2.745601 1_555
Ba1 N5 2.845729 1_645
Ba1 N6 2.847765 1_555
Ba1 N12 2.926927 1_655
Ba1 O2 3.088351 1_655
Ba1 N11 3.366046 1_555
Ba1 N13 3.366191 1_555
Ba1 O0 3.369597 1_555
Ba1 N8 3.402685 1_555
Al0 N3 1.806434 1_555
Al0 O1 1.928729 1_555
Al0 N6 1.947398 1_555
Al0 N11 2.043093 1_555
Al0 N12 2.061356 1_555
Al1 N7 1.806434 1_555
Al1 O0 1.928729 1_555
Al1 N10 1.947398 1_555
Al1 N8 2.043093 1_555
Al1 N13 2.061356 1_555
N0 N5 1.540608 1_555
N0 Si0 1.784198 1_555
N0 Si2 1.807018 1_555
N1 N2 1.540608 1_555
N1 Si5 1.791377 1_655
N1 Si4 1.794974 1_654
N2 Si1 1.784198 1_555
N2 Si3 1.807018 1_554
N3 Si9 1.735197 1_555
N4 Si4 1.703781 1_655
N4 Si7 1.744239 1_555
N4 Si8 1.883167 1_555
N5 Si7 1.791377 1_455
N5 Si6 1.794974 1_455
N6 Si7 1.779822 1_555
N6 Si8 1.827194 1_555
N7 Si8 1.735197 1_554
N8 Si2 1.732506 1_545
N8 Si1 1.774017 1_545
N9 Si6 1.703781 1_455
N9 Si5 1.744239 1_555
N9 Si9 1.883167 1_555
N10 Si5 1.779822 1_555
N10 Si9 1.827194 1_555
N11 Si3 1.732506 1_545
N11 Si0 1.774017 1_545
N12 N3 1.544675 1_555
N12 Si7 1.738843 1_455
N13 N7 1.544675 1_555
N13 Si5 1.738843 1_655
O0 Si1 1.751947 1_555
O0 Si9 2.001264 1_555
O1 Si0 1.751947 1_555
O1 Si8 2.001264 1_555
O2 Si6 1.702228 1_445
O2 Si2 1.702842 1_545
O3 Si4 1.702228 1_645
O3 Si3 1.702842 1_545
