# generated using pymatgen
data_LiSiBiO4
_symmetry_space_group_name_H-M   'P 1'
_cell_length_a   8.96321253
_cell_length_b   8.96321253
_cell_length_c   8.96321167
_cell_angle_alpha   107.34999399
_cell_angle_beta   107.34999399
_cell_angle_gamma   107.34999004
_symmetry_Int_Tables_number   1
_chemical_formula_structural   LiSiBiO4
_chemical_formula_sum   'Li6 Si6 Bi6 O24'
_cell_volume   593.88508997
_cell_formula_units_Z   6
loop_
 _symmetry_equiv_pos_site_id
 _symmetry_equiv_pos_as_xyz
  1  'x, y, z'
loop_
 _atom_site_type_symbol
 _atom_site_label
 _atom_site_symmetry_multiplicity
 _atom_site_fract_x
 _atom_site_fract_y
 _atom_site_fract_z
 _atom_site_occupancy
  Li  Li0  1  0.95454100  0.52721300  0.79005100  1
  Li  Li1  1  0.45061500  0.23242100  0.05887800  1
  Li  Li2  1  0.23242100  0.05887800  0.45061500  1
  Li  Li3  1  0.79005100  0.95454100  0.52721300  1
  Li  Li4  1  0.52721300  0.79005100  0.95454100  1
  Li  Li5  1  0.05887800  0.45061500  0.23242100  1
  Si  Si0  1  0.88077300  0.09027700  0.28174800  1
  Si  Si1  1  0.81341700  0.55132600  0.38649100  1
  Si  Si2  1  0.55132600  0.38649100  0.81341700  1
  Si  Si3  1  0.09027700  0.28174800  0.88077300  1
  Si  Si4  1  0.38649100  0.81341700  0.55132600  1
  Si  Si5  1  0.28174800  0.88077300  0.09027700  1
  Bi  Bi0  1  0.71710000  0.11017400  0.87873500  1
  Bi  Bi1  1  0.60452900  0.21650900  0.46038200  1
  Bi  Bi2  1  0.87873500  0.71710000  0.11017400  1
  Bi  Bi3  1  0.46038200  0.60452900  0.21650900  1
  Bi  Bi4  1  0.21650900  0.46038200  0.60452900  1
  Bi  Bi5  1  0.11017400  0.87873500  0.71710000  1
  O  O0  1  0.75654000  0.98715300  0.07240000  1
  O  O1  1  0.98077300  0.33082200  0.98992000  1
  O  O2  1  0.75816300  0.08541400  0.38735200  1
  O  O3  1  0.53998600  0.23880800  0.89040700  1
  O  O4  1  0.33763200  0.01680500  0.28770900  1
  O  O5  1  0.72525300  0.42796700  0.77791000  1
  O  O6  1  0.89040700  0.53998600  0.23880800  1
  O  O7  1  0.62684100  0.37850300  0.30702900  1
  O  O8  1  0.95405600  0.56876300  0.56861200  1
  O  O9  1  0.56876300  0.56861200  0.95405600  1
  O  O10  1  0.37850300  0.30702900  0.62684100  1
  O  O11  1  0.98992000  0.98077300  0.33082200  1
  O  O12  1  0.98715300  0.07240000  0.75654000  1
  O  O13  1  0.77791000  0.72525300  0.42796700  1
  O  O14  1  0.28770900  0.33763200  0.01680500  1
  O  O15  1  0.01680500  0.28770900  0.33763200  1
  O  O16  1  0.42796700  0.77791000  0.72525300  1
  O  O17  1  0.08541400  0.38735200  0.75816300  1
  O  O18  1  0.30702900  0.62684100  0.37850300  1
  O  O19  1  0.56861200  0.95405600  0.56876300  1
  O  O20  1  0.38735200  0.75816300  0.08541400  1
  O  O21  1  0.23880800  0.89040700  0.53998600  1
  O  O22  1  0.07240000  0.75654000  0.98715300  1
  O  O23  1  0.33082200  0.98992000  0.98077300  1
loop_
_geom_bond_atom_site_label_1
_geom_bond_atom_site_label_2
_geom_bond_distance
_geom_bond_site_symmetry_2
Li0 O5 1.935291 1_555
Li0 O22 1.971854 1_655
Li0 O17 1.972957 1_655
Li0 O8 2.124817 1_555
Li1 O23 1.902544 1_544
Li1 O3 1.915941 1_554
Li1 O14 1.966856 1_555
Li1 O7 2.022565 1_555
Li2 O11 1.902544 1_445
Li2 O21 1.915941 1_545
Li2 O4 1.966856 1_555
Li2 O10 2.022565 1_555
Li3 O13 1.935291 1_555
Li3 O12 1.971853 1_565
Li3 O2 1.972957 1_565
Li3 O19 2.124817 1_555
Li4 O16 1.935291 1_555
Li4 O0 1.971854 1_556
Li4 O20 1.972957 1_556
Li4 O9 2.124817 1_555
Li5 O1 1.902544 1_454
Li5 O6 1.915941 1_455
Li5 O15 1.966856 1_555
Li5 O18 2.022565 1_555
Bi0 O3 2.231423 1_555
Bi0 O1 2.263202 1_555
Bi0 O0 2.315626 1_546
Bi0 O19 2.411172 1_545
Bi1 O2 2.179307 1_555
Bi1 O4 2.215376 1_555
Bi1 O7 2.284447 1_555
Bi1 O5 2.566349 1_555
Bi1 O19 2.771106 1_545
Bi2 O6 2.231423 1_555
Bi2 O11 2.263202 1_555
Bi2 O22 2.315626 1_654
Bi2 O9 2.411172 1_554
Bi3 O20 2.179307 1_555
Bi3 O14 2.215376 1_555
Bi3 O18 2.284447 1_555
Bi3 O13 2.566349 1_555
Bi3 O9 2.771106 1_554
Bi4 O17 2.179307 1_555
Bi4 O15 2.215376 1_555
Bi4 O10 2.284448 1_555
Bi4 O16 2.566349 1_555
Bi4 O8 2.771106 1_455
Bi5 O21 2.231423 1_555
Bi5 O23 2.263202 1_555
Bi5 O12 2.315626 1_465
Bi5 O8 2.411172 1_455
O0 Si0 1.649490 1_565
O1 Si3 1.639344 1_655
O2 Si0 1.649869 1_555
O3 Si2 1.656850 1_555
O4 Si5 1.639919 1_545
O5 Si2 1.640311 1_555
O6 Si1 1.656850 1_555
O7 Si1 1.670350 1_555
O8 Si1 1.667703 1_555
O9 Si2 1.667703 1_555
O10 Si2 1.670350 1_555
O11 Si0 1.639344 1_565
O12 Si3 1.649490 1_655
O13 Si1 1.640311 1_555
O14 Si3 1.639919 1_554
O15 Si0 1.639919 1_455
O16 Si4 1.640311 1_555
O17 Si3 1.649869 1_555
O18 Si4 1.670350 1_555
O19 Si4 1.667703 1_555
O20 Si5 1.649869 1_555
O21 Si4 1.656850 1_555
O22 Si5 1.649490 1_556
O23 Si5 1.639344 1_556
