# generated using pymatgen
data_Li8Mn7Fe(BO3)8
_symmetry_space_group_name_H-M   'P 1'
_cell_length_a   7.96094000
_cell_length_b   8.07471350
_cell_length_c   8.30504461
_cell_angle_alpha   80.46778047
_cell_angle_beta   79.27179906
_cell_angle_gamma   81.66511219
_symmetry_Int_Tables_number   1
_chemical_formula_structural   Li8Mn7Fe(BO3)8
_chemical_formula_sum   'Li8 Mn7 Fe1 B8 O24'
_cell_volume   513.69263816
_cell_formula_units_Z   1
loop_
 _symmetry_equiv_pos_site_id
 _symmetry_equiv_pos_as_xyz
  1  'x, y, z'
loop_
 _atom_site_type_symbol
 _atom_site_label
 _atom_site_symmetry_multiplicity
 _atom_site_fract_x
 _atom_site_fract_y
 _atom_site_fract_z
 _atom_site_occupancy
  Li  Li0  1  0.30312900  0.15066400  0.22007900  1
  Li  Li1  1  0.19725200  0.34763000  0.78095400  1
  Li  Li2  1  0.69703500  0.34807500  0.28170600  1
  Li  Li3  1  0.19808500  0.84973800  0.28353700  1
  Li  Li4  1  0.80278600  0.15132500  0.71813900  1
  Li  Li5  1  0.30216200  0.65135900  0.71769500  1
  Li  Li6  1  0.80338900  0.65117200  0.21867700  1
  Li  Li7  1  0.69703600  0.84884900  0.78138900  1
  Mn  Mn0  1  0.67655300  0.00863800  0.08035800  1
  Mn  Mn1  1  0.17738800  0.50873700  0.07967400  1
  Mn  Mn2  1  0.32366600  0.49240600  0.41953700  1
  Mn  Mn3  1  0.67625800  0.50834700  0.58086100  1
  Mn  Mn4  1  0.82358300  0.49138600  0.91934300  1
  Mn  Mn5  1  0.32243000  0.99131900  0.91782000  1
  Mn  Mn6  1  0.82292200  0.98920300  0.41947500  1
  Fe  Fe0  1  0.17260400  0.01157500  0.58170200  1
  B  B0  1  0.00401800  0.33140800  0.40438500  1
  B  B1  1  0.49737600  0.16743600  0.59497800  1
  B  B2  1  0.50167700  0.33173900  0.90389400  1
  B  B3  1  0.00186400  0.83292600  0.90156300  1
  B  B4  1  0.99883400  0.16783900  0.09635900  1
  B  B5  1  0.49857700  0.66858300  0.09595000  1
  B  B6  1  0.49970300  0.83251400  0.40611600  1
  B  B7  1  0.99842900  0.66805300  0.59607500  1
  O  O0  1  0.13290800  0.04275100  0.12243100  1
  O  O1  1  0.16777600  0.34830400  0.31069200  1
  O  O2  1  0.47336400  0.18669300  0.01706500  1
  O  O3  1  0.02628800  0.31340600  0.98364100  1
  O  O4  1  0.33237000  0.15095900  0.68686000  1
  O  O5  1  0.63245800  0.04346300  0.62224000  1
  O  O6  1  0.13190100  0.54260000  0.62292900  1
  O  O7  1  0.52570300  0.31327900  0.48293000  1
  O  O8  1  0.02636600  0.81286800  0.48270100  1
  O  O9  1  0.83383100  0.15176700  0.18924500  1
  O  O10  1  0.33361100  0.65283200  0.18820000  1
  O  O11  1  0.36799600  0.45689900  0.87635600  1
  O  O12  1  0.63297700  0.54378900  0.12281700  1
  O  O13  1  0.66704200  0.34730500  0.81194000  1
  O  O14  1  0.16594700  0.84917500  0.80657900  1
  O  O15  1  0.97940300  0.18564400  0.51877100  1
  O  O16  1  0.47338800  0.68566900  0.51737400  1
  O  O17  1  0.86809100  0.45409800  0.37867700  1
  O  O18  1  0.36555600  0.95758200  0.38295200  1
  O  O19  1  0.66446900  0.84814100  0.31185400  1
  O  O20  1  0.97544900  0.68784000  0.01560500  1
  O  O21  1  0.52598300  0.81377200  0.98254900  1
  O  O22  1  0.83305000  0.65254800  0.68828100  1
  O  O23  1  0.86731900  0.95769600  0.87704000  1
loop_
_geom_bond_atom_site_label_1
_geom_bond_atom_site_label_2
_geom_bond_distance
_geom_bond_site_symmetry_2
Li0 O18 1.958211 1_545
Li0 O2 1.966003 1_555
Li0 O1 1.967635 1_555
Li0 O0 2.058842 1_555
Li1 O6 1.950385 1_555
Li1 O3 1.965801 1_555
Li1 O4 1.972942 1_555
Li1 O11 2.057693 1_555
Li2 O12 1.955763 1_555
Li2 O7 1.959368 1_555
Li2 O9 1.969673 1_555
Li2 O17 2.051964 1_555
Li3 O8 1.951009 1_555
Li3 O0 1.954945 1_565
Li3 O10 1.980030 1_555
Li3 O18 2.049886 1_555
Li4 O23 1.945809 1_545
Li4 O13 1.969269 1_555
Li4 O15 1.972189 1_555
Li4 O5 2.050792 1_555
Li5 O11 1.951867 1_555
Li5 O16 1.953252 1_555
Li5 O14 1.965341 1_555
Li5 O6 2.049158 1_555
Li6 O17 1.969814 1_555
Li6 O20 1.974941 1_555
Li6 O19 1.982566 1_555
Li6 O12 2.048876 1_555
Li7 O5 1.952330 1_565
Li7 O21 1.957992 1_555
Li7 O22 1.969643 1_555
Li7 O23 2.053973 1_555
Mn0 O2 2.086137 1_555
Mn0 O23 2.102629 1_544
Mn0 O19 2.127715 1_545
Mn0 O9 2.215494 1_555
Mn0 O21 2.430060 1_544
Mn1 O20 2.085341 1_455
Mn1 O11 2.103578 1_554
Mn1 O1 2.125091 1_555
Mn1 O10 2.212938 1_555
Mn1 O3 2.427883 1_554
Mn2 O7 2.084420 1_555
Mn2 O6 2.106061 1_555
Mn2 O10 2.127057 1_555
Mn2 O1 2.212672 1_555
Mn2 O16 2.415784 1_555
Mn3 O16 2.081595 1_555
Mn3 O17 2.106806 1_555
Mn3 O13 2.127925 1_555
Mn3 O22 2.211267 1_555
Mn3 O7 2.431786 1_555
Mn4 O3 2.085402 1_655
Mn4 O12 2.105520 1_556
Mn4 O22 2.128177 1_555
Mn4 O13 2.209098 1_555
Mn4 O20 2.439893 1_556
Mn5 O21 2.089446 1_555
Mn5 O0 2.105719 1_566
Mn5 O4 2.121622 1_565
Mn5 O14 2.217435 1_555
Mn5 O2 2.441493 1_566
Mn6 O8 2.080055 1_655
Mn6 O5 2.104270 1_565
Mn6 O9 2.127573 1_565
Mn6 O19 2.204767 1_555
Mn6 O15 2.477205 1_565
Fe0 O15 2.010871 1_455
Fe0 O18 2.091510 1_545
Fe0 O14 2.093452 1_545
Fe0 O4 2.191177 1_555
Fe0 O8 2.437345 1_545
B0 O17 1.379550 1_455
B0 O15 1.397652 1_455
B0 O1 1.400849 1_555
B1 O5 1.383214 1_555
B1 O7 1.392677 1_555
B1 O4 1.403355 1_555
B2 O11 1.381486 1_555
B2 O2 1.392476 1_556
B2 O13 1.404978 1_555
B3 O23 1.379915 1_455
B3 O20 1.394101 1_456
B3 O14 1.406262 1_555
B4 O0 1.381081 1_655
B4 O3 1.392683 1_654
B4 O9 1.405855 1_555
B5 O12 1.382688 1_555
B5 O21 1.393190 1_554
B5 O10 1.403361 1_555
B6 O18 1.377258 1_555
B6 O16 1.393091 1_555
B6 O19 1.407935 1_555
B7 O6 1.380682 1_655
B7 O8 1.391458 1_655
B7 O22 1.405749 1_555
