# generated using pymatgen
data_Mn3Cr3(CoO8)2
_symmetry_space_group_name_H-M   'P 1'
_cell_length_a   5.81586818
_cell_length_b   5.81567794
_cell_length_c   8.69840095
_cell_angle_alpha   90.00057066
_cell_angle_beta   90.57242581
_cell_angle_gamma   119.99774636
_symmetry_Int_Tables_number   1
_chemical_formula_structural   Mn3Cr3(CoO8)2
_chemical_formula_sum   'Mn3 Cr3 Co2 O16'
_cell_volume   254.78032731
_cell_formula_units_Z   1
loop_
 _symmetry_equiv_pos_site_id
 _symmetry_equiv_pos_as_xyz
  1  'x, y, z'
loop_
 _atom_site_type_symbol
 _atom_site_label
 _atom_site_symmetry_multiplicity
 _atom_site_fract_x
 _atom_site_fract_y
 _atom_site_fract_z
 _atom_site_occupancy
  Mn  Mn0  1  0.65879400  0.82941000  0.21133400  1
  Mn  Mn1  1  0.82807800  0.66189200  0.71255800  1
  Mn  Mn2  1  0.82807500  0.16623100  0.71254700  1
  Cr  Cr0  1  0.16256400  0.83287600  0.20047900  1
  Cr  Cr1  1  0.16261700  0.32968100  0.20047100  1
  Cr  Cr2  1  0.32425200  0.16214400  0.70111400  1
  Co  Co0  1  0.33810000  0.66905400  0.48310900  1
  Co  Co1  1  0.66759500  0.33380600  0.98246800  1
  O  O0  1  0.17301500  0.83226500  0.60615200  1
  O  O1  1  0.05962400  0.52980400  0.33979400  1
  O  O2  1  0.33989600  0.66993700  0.09289200  1
  O  O3  1  0.99476900  0.99738800  0.31406500  1
  O  O4  1  0.99210500  0.99608900  0.81870600  1
  O  O5  1  0.17301200  0.34076600  0.60614600  1
  O  O6  1  0.47626900  0.95253300  0.34230400  1
  O  O7  1  0.47629100  0.52375900  0.34230100  1
  O  O8  1  0.34842900  0.17419700  0.10651800  1
  O  O9  1  0.65956900  0.82980200  0.60217100  1
  O  O10  1  0.52316600  0.47383900  0.84408300  1
  O  O11  1  0.52316500  0.04937300  0.84407100  1
  O  O12  1  0.67178600  0.33592000  0.59972100  1
  O  O13  1  0.83203500  0.65673700  0.10346500  1
  O  O14  1  0.95474400  0.47738300  0.84578800  1
  O  O15  1  0.83204700  0.17531500  0.10346400  1
loop_
_geom_bond_atom_site_label_1
_geom_bond_atom_site_label_2
_geom_bond_distance
_geom_bond_site_symmetry_2
Mn0 O2 1.898208 1_555
Mn0 O3 1.904543 1_555
Mn0 O6 1.929155 1_555
Mn0 O7 1.929177 1_555
Mn0 O13 1.983574 1_555
Mn0 O15 1.983580 1_565
Mn1 O12 1.908536 1_555
Mn1 O4 1.915322 1_555
Mn1 O10 1.936731 1_555
Mn1 O9 1.942716 1_555
Mn1 O14 1.952058 1_555
Mn1 O0 1.977984 1_655
Mn2 O12 1.908504 1_555
Mn2 O4 1.915244 1_545
Mn2 O11 1.936708 1_555
Mn2 O9 1.942725 1_545
Mn2 O14 1.952016 1_555
Mn2 O5 1.977963 1_655
Cr0 O13 1.858837 1_455
Cr0 O8 1.910199 1_565
Cr0 O3 1.948518 1_455
Cr0 O2 1.958033 1_555
Cr0 O1 1.973059 1_555
Cr0 O6 2.005070 1_555
Cr1 O15 1.859001 1_455
Cr1 O8 1.910002 1_555
Cr1 O3 1.948537 1_445
Cr1 O2 1.957968 1_555
Cr1 O1 1.973216 1_555
Cr1 O7 2.005008 1_555
Cr2 O5 1.853202 1_555
Cr2 O0 1.853271 1_545
Cr2 O12 1.969161 1_555
Cr2 O4 1.970924 1_445
Cr2 O11 2.011131 1_555
Cr2 O10 2.011245 1_555
Co0 O1 1.865756 1_555
Co0 O6 1.886472 1_555
Co0 O7 1.886480 1_555
Co0 O9 1.911960 1_555
Co0 O5 1.974827 1_555
Co0 O0 1.974849 1_555
Co1 O11 1.865862 1_555
Co1 O10 1.865903 1_555
Co1 O14 1.882815 1_555
Co1 O13 1.932182 1_556
Co1 O15 1.932218 1_556
Co1 O8 1.946449 1_556
