# generated using pymatgen
data_Li7VO5F
_symmetry_space_group_name_H-M   'P 1'
_cell_length_a   5.52278500
_cell_length_b   5.55595420
_cell_length_c   5.77237706
_cell_angle_alpha   61.53265575
_cell_angle_beta   62.92293286
_cell_angle_gamma   61.22032571
_symmetry_Int_Tables_number   1
_chemical_formula_structural   Li7VO5F
_chemical_formula_sum   'Li7 V1 O5 F1'
_cell_volume   130.48585125
_cell_formula_units_Z   1
loop_
 _symmetry_equiv_pos_site_id
 _symmetry_equiv_pos_as_xyz
  1  'x, y, z'
loop_
 _atom_site_type_symbol
 _atom_site_label
 _atom_site_symmetry_multiplicity
 _atom_site_fract_x
 _atom_site_fract_y
 _atom_site_fract_z
 _atom_site_occupancy
  Li  Li0  1  0.88250800  0.27488500  0.33203500  1
  Li  Li1  1  0.25129700  0.51067300  0.35451700  1
  Li  Li2  1  0.50650700  0.06087100  0.67977300  1
  Li  Li3  1  0.52547100  0.87203600  0.31557200  1
  Li  Li4  1  0.77224700  0.49435600  0.66661900  1
  Li  Li5  1  0.06847000  0.76424500  0.65395700  1
  Li  Li6  1  0.31551400  0.35789400  0.96392300  1
  V  V0  1  0.03714700  0.97400100  0.97969500  1
  O  O0  1  0.92937000  0.62182100  0.23968700  1
  O  O1  1  0.77370600  0.10177600  0.78125100  1
  O  O2  1  0.36835900  0.75965000  0.75868500  1
  O  O3  1  0.18802100  0.93427400  0.24090300  1
  O  O4  1  0.12427100  0.35447900  0.75278400  1
  F  F0  1  0.60079200  0.21381100  0.26972000  1
loop_
_geom_bond_atom_site_label_1
_geom_bond_atom_site_label_2
_geom_bond_distance
_geom_bond_site_symmetry_2
Li0 O0 1.855219 1_555
Li0 O3 1.941996 1_645
Li0 O1 2.184134 1_555
Li1 O0 1.899269 1_455
Li1 O4 1.935574 1_555
Li1 O3 2.009107 1_555
Li2 O2 1.943396 1_545
Li2 O1 1.951715 1_555
Li2 O4 1.955673 1_555
Li3 O3 1.935786 1_555
Li3 O0 1.950729 1_555
Li3 O2 2.159591 1_555
Li4 O4 1.920436 1_655
Li4 O1 1.951255 1_555
Li4 O2 1.983004 1_555
Li4 O0 2.075800 1_555
Li5 O4 1.962107 1_555
Li5 O2 1.991295 1_555
Li5 O1 1.997979 1_465
Li5 O3 2.008339 1_555
Li6 O4 1.953087 1_555
Li6 O2 2.064625 1_555
Li6 O1 2.252602 1_555
Li6 O0 2.314242 1_456
Li6 O3 2.361149 1_546
O0 V0 1.985957 1_654
O1 V0 1.918442 1_645
O2 V0 1.902152 1_555
O3 V0 1.914642 1_554
O4 V0 2.044957 1_545
F0 Li1 1.878747 1_555
F0 Li0 1.949209 1_555
F0 Li2 1.995587 1_555
F0 Li3 2.007509 1_545
F0 V0 2.397365 1_644
F0 Li6 2.491844 1_554
