# generated using pymatgen
data_Li3FePCO7
_symmetry_space_group_name_H-M   'P 1'
_cell_length_a   6.44075600
_cell_length_b   8.57823200
_cell_length_c   9.77688885
_cell_angle_alpha   84.96403215
_cell_angle_beta   90.00000000
_cell_angle_gamma   90.00000000
_symmetry_Int_Tables_number   1
_chemical_formula_structural   Li3FePCO7
_chemical_formula_sum   'Li12 Fe4 P4 C4 O28'
_cell_volume   538.09084118
_cell_formula_units_Z   4
loop_
 _symmetry_equiv_pos_site_id
 _symmetry_equiv_pos_as_xyz
  1  'x, y, z'
loop_
 _atom_site_type_symbol
 _atom_site_label
 _atom_site_symmetry_multiplicity
 _atom_site_fract_x
 _atom_site_fract_y
 _atom_site_fract_z
 _atom_site_occupancy
  Li  Li0  1  0.74957100  0.89696900  0.61324100  1
  Li  Li1  1  0.75042900  0.89696900  0.11324100  1
  Li  Li2  1  0.98624500  0.71423300  0.88239300  1
  Li  Li3  1  0.51375500  0.71423300  0.38239300  1
  Li  Li4  1  0.25589700  0.64629200  0.60911000  1
  Li  Li5  1  0.24410300  0.64629200  0.10911000  1
  Li  Li6  1  0.75589700  0.35370800  0.89089000  1
  Li  Li7  1  0.74410300  0.35370800  0.39089000  1
  Li  Li8  1  0.48624500  0.28576700  0.61760700  1
  Li  Li9  1  0.01375500  0.28576700  0.11760700  1
  Li  Li10  1  0.24957100  0.10303100  0.88675900  1
  Li  Li11  1  0.25042900  0.10303100  0.38675900  1
  Fe  Fe0  1  0.49938800  0.73339600  0.87122800  1
  Fe  Fe1  1  0.00061200  0.73339600  0.37122800  1
  Fe  Fe2  1  0.99938800  0.26660400  0.62877200  1
  Fe  Fe3  1  0.50061200  0.26660400  0.12877200  1
  P  P0  1  0.74819400  0.59198000  0.63980000  1
  P  P1  1  0.75180600  0.59198000  0.13980000  1
  P  P2  1  0.24819400  0.40802000  0.86020000  1
  P  P3  1  0.25180600  0.40802000  0.36020000  1
  C  C0  1  0.25385200  0.95895300  0.64913000  1
  C  C1  1  0.24614800  0.95895300  0.14913000  1
  C  C2  1  0.75385200  0.04104700  0.85087000  1
  C  C3  1  0.74614800  0.04104700  0.35087000  1
  O  O0  1  0.24314500  0.92963800  0.52340100  1
  O  O1  1  0.74625900  0.89530900  0.81670600  1
  O  O2  1  0.25685500  0.92963800  0.02340100  1
  O  O3  1  0.26991600  0.84708700  0.74785000  1
  O  O4  1  0.75374100  0.89530900  0.31670600  1
  O  O5  1  0.23008400  0.84708700  0.24785000  1
  O  O6  1  0.94175500  0.68718700  0.58165200  1
  O  O7  1  0.56005600  0.69235200  0.58856200  1
  O  O8  1  0.93994400  0.69235200  0.08856200  1
  O  O9  1  0.55824500  0.68718700  0.08165200  1
  O  O10  1  0.24470100  0.57561700  0.90817900  1
  O  O11  1  0.75248800  0.57986800  0.80029200  1
  O  O12  1  0.25529900  0.57561700  0.40817900  1
  O  O13  1  0.74751200  0.57986800  0.30029200  1
  O  O14  1  0.25248800  0.42013200  0.69970800  1
  O  O15  1  0.74470100  0.42438300  0.59182100  1
  O  O16  1  0.24751200  0.42013200  0.19970800  1
  O  O17  1  0.75529900  0.42438300  0.09182100  1
  O  O18  1  0.06005600  0.30764800  0.91143800  1
  O  O19  1  0.44175500  0.31281300  0.91834800  1
  O  O20  1  0.43994400  0.30764800  0.41143800  1
  O  O21  1  0.05824500  0.31281300  0.41834800  1
  O  O22  1  0.76991600  0.15291300  0.75215000  1
  O  O23  1  0.24625900  0.10469100  0.68329400  1
  O  O24  1  0.73008400  0.15291300  0.25215000  1
  O  O25  1  0.74314500  0.07036200  0.97659900  1
  O  O26  1  0.25374100  0.10469100  0.18329400  1
  O  O27  1  0.75685500  0.07036200  0.47659900  1
loop_
_geom_bond_atom_site_label_1
_geom_bond_atom_site_label_2
_geom_bond_distance
_geom_bond_site_symmetry_2
Li0 O27 1.910612 1_565
Li0 O1 1.988170 1_555
Li0 O7 2.168731 1_555
Li0 O6 2.227901 1_555
Li1 O25 1.910612 1_564
Li1 O4 1.988170 1_555
Li1 O8 2.168731 1_555
Li1 O9 2.227901 1_555
Li2 O8 2.029963 1_556
Li2 O10 2.048391 1_655
Li2 O11 2.098097 1_555
Li2 O1 2.244826 1_555
Li2 O3 2.470640 1_655
Li3 O7 2.029963 1_555
Li3 O12 2.048391 1_555
Li3 O13 2.098097 1_555
Li3 O4 2.244826 1_555
Li3 O5 2.470640 1_555
Li4 O7 2.005062 1_555
Li4 O14 2.060868 1_555
Li4 O6 2.066976 1_455
Li4 O12 2.106146 1_555
Li4 O3 2.285864 1_555
Li4 O0 2.501841 1_555
Li5 O8 2.005062 1_455
Li5 O16 2.060868 1_555
Li5 O9 2.066976 1_555
Li5 O10 2.106146 1_554
Li5 O5 2.285864 1_555
Li5 O2 2.501841 1_555
Li6 O18 2.005062 1_655
Li6 O11 2.060868 1_555
Li6 O19 2.066976 1_555
Li6 O17 2.106146 1_556
Li6 O22 2.285864 1_555
Li6 O25 2.501841 1_555
Li7 O20 2.005062 1_555
Li7 O13 2.060868 1_555
Li7 O21 2.066976 1_655
Li7 O15 2.106146 1_555
Li7 O24 2.285864 1_555
Li7 O27 2.501841 1_555
Li8 O20 2.029963 1_555
Li8 O15 2.048391 1_555
Li8 O14 2.098097 1_555
Li8 O23 2.244826 1_555
Li8 O22 2.470640 1_555
Li9 O18 2.029963 1_554
Li9 O17 2.048391 1_455
Li9 O16 2.098097 1_555
Li9 O26 2.244826 1_555
Li9 O24 2.470640 1_455
Li10 O2 1.910612 1_546
Li10 O23 1.988170 1_555
Li10 O18 2.168731 1_555
Li10 O19 2.227901 1_555
Li11 O0 1.910612 1_545
Li11 O26 1.988170 1_555
Li11 O20 2.168731 1_555
Li11 O21 2.227901 1_555
Fe0 O3 2.093816 1_555
Fe0 O9 2.095259 1_556
Fe0 O10 2.137141 1_555
Fe0 O1 2.147440 1_555
Fe0 O11 2.243488 1_555
Fe1 O5 2.093816 1_555
Fe1 O6 2.095259 1_455
Fe1 O12 2.137141 1_555
Fe1 O4 2.147440 1_455
Fe1 O13 2.243488 1_455
Fe2 O22 2.093816 1_555
Fe2 O21 2.095259 1_655
Fe2 O15 2.137141 1_555
Fe2 O23 2.147440 1_655
Fe2 O14 2.243488 1_655
Fe3 O24 2.093816 1_555
Fe3 O19 2.095259 1_554
Fe3 O17 2.137141 1_555
Fe3 O26 2.147440 1_555
Fe3 O16 2.243488 1_555
C0 O0 1.278002 1_555
C0 O3 1.304039 1_555
C0 O23 1.322954 1_565
C1 O2 1.278002 1_555
C1 O5 1.304039 1_555
C1 O26 1.322954 1_565
C2 O25 1.278002 1_555
C2 O22 1.304039 1_555
C2 O1 1.322954 1_545
C3 O27 1.278002 1_555
C3 O24 1.304039 1_555
C3 O4 1.322954 1_545
O6 P0 1.569365 1_555
O7 P0 1.544316 1_555
O8 P1 1.544316 1_555
O9 P1 1.569365 1_555
O10 P2 1.551092 1_555
O11 P0 1.563666 1_555
O12 P3 1.551092 1_555
O13 P1 1.563666 1_555
O14 P2 1.563666 1_555
O15 P0 1.551092 1_555
O16 P3 1.563666 1_555
O17 P1 1.551092 1_555
O18 P2 1.544316 1_555
O19 P2 1.569365 1_555
O20 P3 1.544316 1_555
O21 P3 1.569365 1_555
