# generated using pymatgen
data_Li3Fe2(SiO4)2
_symmetry_space_group_name_H-M   'P 1'
_cell_length_a   6.32692700
_cell_length_b   5.06805200
_cell_length_c   10.96495158
_cell_angle_alpha   89.95372424
_cell_angle_beta   90.00000000
_cell_angle_gamma   90.00000000
_symmetry_Int_Tables_number   1
_chemical_formula_structural   Li3Fe2(SiO4)2
_chemical_formula_sum   'Li6 Fe4 Si4 O16'
_cell_volume   351.59319618
_cell_formula_units_Z   2
loop_
 _symmetry_equiv_pos_site_id
 _symmetry_equiv_pos_as_xyz
  1  'x, y, z'
loop_
 _atom_site_type_symbol
 _atom_site_label
 _atom_site_symmetry_multiplicity
 _atom_site_fract_x
 _atom_site_fract_y
 _atom_site_fract_z
 _atom_site_occupancy
  Li  Li0  1  0.26436400  0.23788900  0.17405000  1
  Li  Li1  1  0.73563600  0.23788900  0.67405000  1
  Li  Li2  1  0.74302500  0.74025400  0.32623500  1
  Li  Li3  1  0.99557900  0.74350200  0.09329900  1
  Li  Li4  1  0.00442100  0.74350200  0.59329900  1
  Li  Li5  1  0.25697500  0.74025400  0.82623500  1
  Fe  Fe0  1  0.49424000  0.74026900  0.57804300  1
  Fe  Fe1  1  0.50576000  0.74026900  0.07804300  1
  Fe  Fe2  1  0.98745000  0.23753400  0.91402900  1
  Fe  Fe3  1  0.01255000  0.23753400  0.41402900  1
  Si  Si0  1  0.25592000  0.73704500  0.33092700  1
  Si  Si1  1  0.74408000  0.73704500  0.83092700  1
  Si  Si2  1  0.75638200  0.23427200  0.16882400  1
  Si  Si3  1  0.24361800  0.23427200  0.66882400  1
  O  O0  1  0.24688900  0.84625600  0.18962100  1
  O  O1  1  0.22868400  0.41217000  0.33096000  1
  O  O2  1  0.46115200  0.35622600  0.61373500  1
  O  O3  1  0.47439100  0.81409600  0.40141200  1
  O  O4  1  0.52560900  0.81409600  0.90141200  1
  O  O5  1  0.53884800  0.35622600  0.11373500  1
  O  O6  1  0.77131600  0.41217000  0.83096000  1
  O  O7  1  0.75311100  0.84625600  0.68962100  1
  O  O8  1  0.79036700  0.34657200  0.30954800  1
  O  O9  1  0.75594800  0.91170100  0.16832600  1
  O  O10  1  0.95904800  0.85667900  0.90607300  1
  O  O11  1  0.96793400  0.33661500  0.08458700  1
  O  O12  1  0.03206600  0.33661500  0.58458700  1
  O  O13  1  0.04095200  0.85667900  0.40607300  1
  O  O14  1  0.24405200  0.91170100  0.66832600  1
  O  O15  1  0.20963300  0.34657200  0.80954800  1
loop_
_geom_bond_atom_site_label_1
_geom_bond_atom_site_label_2
_geom_bond_distance
_geom_bond_site_symmetry_2
Li0 O1 1.947750 1_555
Li0 O5 1.952524 1_555
Li0 O0 1.995075 1_545
Li0 O11 2.174695 1_455
Li1 O6 1.947750 1_555
Li1 O2 1.952524 1_555
Li1 O7 1.995075 1_545
Li1 O12 2.174695 1_655
Li2 O3 1.925818 1_555
Li2 O9 1.938354 1_555
Li2 O8 2.025984 1_555
Li2 O13 2.160656 1_655
Li3 O9 1.924374 1_555
Li3 O0 1.978821 1_655
Li3 O11 2.071809 1_555
Li3 O10 2.143599 1_554
Li4 O14 1.924374 1_555
Li4 O7 1.978821 1_455
Li4 O12 2.071809 1_555
Li4 O13 2.143599 1_555
Li5 O4 1.925818 1_555
Li5 O14 1.938354 1_555
Li5 O15 2.025984 1_555
Li5 O10 2.160656 1_455
Fe0 O3 1.976258 1_555
Fe0 O2 1.996005 1_555
Fe0 O14 2.059584 1_555
Fe0 O7 2.113999 1_555
Fe1 O4 1.976258 1_554
Fe1 O5 1.996005 1_555
Fe1 O9 2.059584 1_555
Fe1 O0 2.113999 1_555
Fe2 O6 1.865915 1_555
Fe2 O15 1.895498 1_655
Fe2 O10 1.940572 1_545
Fe2 O11 1.940725 1_556
Fe3 O1 1.865915 1_555
Fe3 O8 1.895498 1_455
Fe3 O13 1.940572 1_545
Fe3 O12 1.940725 1_555
O0 Si0 1.645876 1_555
O1 Si0 1.655476 1_555
O2 Si3 1.624975 1_555
O3 Si0 1.631230 1_555
O4 Si1 1.631230 1_555
O5 Si2 1.624975 1_555
O6 Si1 1.655476 1_555
O7 Si1 1.645876 1_555
O8 Si2 1.659073 1_555
O9 Si2 1.634822 1_565
O10 Si1 1.702112 1_555
O11 Si2 1.706724 1_555
O12 Si3 1.706724 1_555
O13 Si0 1.702112 1_555
O14 Si3 1.634822 1_565
O15 Si3 1.659073 1_555
