# generated using pymatgen
data_Mg3As2
_symmetry_space_group_name_H-M   'P 1'
_cell_length_a   6.21955000
_cell_length_b   6.21955000
_cell_length_c   6.21955000
_cell_angle_alpha   90.00000000
_cell_angle_beta   90.00000000
_cell_angle_gamma   90.00000000
_symmetry_Int_Tables_number   1
_chemical_formula_structural   Mg3As2
_chemical_formula_sum   'Mg6 As4'
_cell_volume   240.58962244
_cell_formula_units_Z   2
loop_
 _symmetry_equiv_pos_site_id
 _symmetry_equiv_pos_as_xyz
  1  'x, y, z'
loop_
 _atom_site_type_symbol
 _atom_site_label
 _atom_site_symmetry_multiplicity
 _atom_site_fract_x
 _atom_site_fract_y
 _atom_site_fract_z
 _atom_site_occupancy
  Mg  Mg0  1  0.00000000  0.50000000  0.50000000  1
  Mg  Mg1  1  0.50000000  0.00000000  0.00000000  1
  Mg  Mg2  1  0.00000000  0.00000000  0.50000000  1
  Mg  Mg3  1  0.00000000  0.50000000  0.00000000  1
  Mg  Mg4  1  0.50000000  0.00000000  0.50000000  1
  Mg  Mg5  1  0.50000000  0.50000000  0.00000000  1
  As  As0  1  0.25000000  0.25000000  0.25000000  1
  As  As1  1  0.75000000  0.25000000  0.75000000  1
  As  As2  1  0.75000000  0.75000000  0.25000000  1
  As  As3  1  0.25000000  0.75000000  0.75000000  1
loop_
_geom_bond_atom_site_label_1
_geom_bond_atom_site_label_2
_geom_bond_distance
_geom_bond_site_symmetry_2
As0 Mg0 2.693144 1_555
As0 Mg4 2.693144 1_555
As0 Mg3 2.693144 1_555
As0 Mg1 2.693144 1_555
As0 Mg2 2.693144 1_555
As0 Mg5 2.693144 1_555
As1 Mg2 2.693144 1_655
As1 Mg4 2.693144 1_555
As1 Mg1 2.693144 1_556
As1 Mg0 2.693144 1_655
As1 Mg5 2.693144 1_556
As1 Mg3 2.693144 1_656
As2 Mg2 2.693144 1_665
As2 Mg3 2.693144 1_655
As2 Mg0 2.693144 1_655
As2 Mg4 2.693144 1_565
As2 Mg5 2.693144 1_555
As2 Mg1 2.693144 1_565
As3 Mg3 2.693144 1_556
As3 Mg0 2.693144 1_555
As3 Mg2 2.693144 1_565
As3 Mg1 2.693144 1_566
As3 Mg4 2.693144 1_565
As3 Mg5 2.693144 1_556
