# generated using pymatgen
data_Li4Mn7O9F7
_symmetry_space_group_name_H-M   'P 1'
_cell_length_a   6.08026670
_cell_length_b   6.08026670
_cell_length_c   10.85093014
_cell_angle_alpha   71.61081245
_cell_angle_beta   71.61081245
_cell_angle_gamma   57.61843587
_symmetry_Int_Tables_number   1
_chemical_formula_structural   Li4Mn7O9F7
_chemical_formula_sum   'Li4 Mn7 O9 F7'
_cell_volume   316.05731077
_cell_formula_units_Z   1
loop_
 _symmetry_equiv_pos_site_id
 _symmetry_equiv_pos_as_xyz
  1  'x, y, z'
loop_
 _atom_site_type_symbol
 _atom_site_label
 _atom_site_symmetry_multiplicity
 _atom_site_fract_x
 _atom_site_fract_y
 _atom_site_fract_z
 _atom_site_occupancy
  Li  Li0  1  0.00760400  0.00760400  0.01077200  1
  Li  Li1  1  0.60874900  0.60874900  0.12448000  1
  Li  Li2  1  0.12357100  0.12357100  0.61297400  1
  Li  Li3  1  0.51238600  0.51238600  0.50802000  1
  Mn  Mn0  1  0.28993500  0.28993500  0.07360800  1
  Mn  Mn1  1  0.58042300  0.05983800  0.30682200  1
  Mn  Mn2  1  0.05983800  0.58042300  0.30682200  1
  Mn  Mn3  1  0.55482800  0.06328300  0.80437800  1
  Mn  Mn4  1  0.56624100  0.56624100  0.80481300  1
  Mn  Mn5  1  0.80894300  0.80894300  0.56589100  1
  Mn  Mn6  1  0.06328300  0.55482800  0.80437800  1
  O  O0  1  0.43700100  0.43700100  0.71658600  1
  O  O1  1  0.72348200  0.72348200  0.43389400  1
  O  O2  1  0.40836900  0.40836900  0.19571400  1
  O  O3  1  0.21325400  0.21325400  0.91997100  1
  O  O4  1  0.91803800  0.91803800  0.20363800  1
  O  O5  1  0.47279700  0.91425900  0.67370200  1
  O  O6  1  0.91425900  0.47279700  0.67370200  1
  O  O7  1  0.90916100  0.90916100  0.68899900  1
  O  O8  1  0.68777600  0.68777600  0.90209900  1
  F  F0  1  0.69117700  0.16418800  0.45927200  1
  F  F1  1  0.92197400  0.44744900  0.18999200  1
  F  F2  1  0.21223600  0.21223600  0.42203000  1
  F  F3  1  0.18884500  0.68965500  0.93571800  1
  F  F4  1  0.16418800  0.69117700  0.45927200  1
  F  F5  1  0.68965500  0.18884500  0.93571800  1
  F  F6  1  0.44744900  0.92197400  0.18999200  1
loop_
_geom_bond_atom_site_label_1
_geom_bond_atom_site_label_2
_geom_bond_distance
_geom_bond_site_symmetry_2
Li0 O4 1.962743 1_445
Li0 O3 2.053746 1_554
Li1 O2 1.991955 1_555
Li1 O8 2.251381 1_554
Li2 O5 2.005453 1_545
Li2 O6 2.005453 1_455
Li2 O7 2.131422 1_445
Li3 O1 2.098484 1_555
Li3 O0 2.111401 1_555
Mn0 O3 2.104201 1_554
Mn0 O2 2.133557 1_555
Mn1 O4 1.863891 1_545
Mn1 O2 1.961625 1_555
Mn1 O1 1.978006 1_545
Mn2 O4 1.863891 1_455
Mn2 O2 1.961625 1_555
Mn2 O1 1.978006 1_455
Mn3 O3 1.941044 1_555
Mn3 O0 1.976176 1_555
Mn3 O7 1.990755 1_545
Mn3 O8 2.006781 1_545
Mn3 O5 2.195755 1_545
Mn4 O0 1.939648 1_555
Mn4 O8 1.943141 1_555
Mn4 O5 2.036489 1_555
Mn4 O6 2.036489 1_555
Mn5 O6 1.875676 1_555
Mn5 O5 1.875676 1_555
Mn5 O1 1.954443 1_555
Mn5 O7 1.987953 1_555
Mn6 O3 1.941044 1_555
Mn6 O0 1.976176 1_555
Mn6 O7 1.990755 1_455
Mn6 O8 2.006781 1_455
Mn6 O6 2.195755 1_455
F0 Mn5 1.950918 1_545
F0 Li3 1.955101 1_555
F0 Mn1 2.327062 1_555
F1 Li1 1.872952 1_555
F1 Mn0 2.050111 1_655
F1 Mn2 2.237536 1_655
F2 Li2 1.943174 1_555
F2 Mn2 2.043596 1_555
F2 Mn1 2.043596 1_555
F3 Li0 1.939123 1_566
F3 Mn4 2.148929 1_555
F3 Mn0 2.282360 1_556
F3 Mn6 2.319480 1_555
F4 Mn5 1.950918 1_455
F4 Li3 1.955101 1_555
F4 Mn2 2.327062 1_555
F5 Li0 1.939123 1_656
F5 Mn4 2.148929 1_555
F5 Mn0 2.282360 1_556
F5 Mn3 2.319480 1_555
F6 Li1 1.872952 1_555
F6 Mn0 2.050111 1_565
F6 Mn1 2.237536 1_565
