# generated using pymatgen
data_Na2CoAsCO7
_symmetry_space_group_name_H-M   'P 1'
_cell_length_a   6.60087700
_cell_length_b   5.36724000
_cell_length_c   9.12896516
_cell_angle_alpha   87.18546460
_cell_angle_beta   90.00000000
_cell_angle_gamma   90.00000000
_symmetry_Int_Tables_number   1
_chemical_formula_structural   Na2CoAsCO7
_chemical_formula_sum   'Na4 Co2 As2 C2 O14'
_cell_volume   323.03531643
_cell_formula_units_Z   2
loop_
 _symmetry_equiv_pos_site_id
 _symmetry_equiv_pos_as_xyz
  1  'x, y, z'
loop_
 _atom_site_type_symbol
 _atom_site_label
 _atom_site_symmetry_multiplicity
 _atom_site_fract_x
 _atom_site_fract_y
 _atom_site_fract_z
 _atom_site_occupancy
  Na  Na0  1  0.49979600  0.76888500  0.77386200  1
  Na  Na1  1  0.00020400  0.76888500  0.77386200  1
  Na  Na2  1  0.50020400  0.23111500  0.22613800  1
  Na  Na3  1  0.99979600  0.23111500  0.22613800  1
  Co  Co0  1  0.25000000  0.21428800  0.65581400  1
  Co  Co1  1  0.75000000  0.78571200  0.34418600  1
  As  As0  1  0.75000000  0.29538200  0.56910800  1
  As  As1  1  0.25000000  0.70461800  0.43089200  1
  C  C0  1  0.25000000  0.27862700  0.92224400  1
  C  C1  1  0.75000000  0.72137300  0.07775600  1
  O  O0  1  0.75000000  0.71407000  0.94099800  1
  O  O1  1  0.25000000  0.06452100  0.85585800  1
  O  O2  1  0.25000000  0.47139900  0.83024200  1
  O  O3  1  0.95350200  0.20866400  0.67849300  1
  O  O4  1  0.54649800  0.20866400  0.67849300  1
  O  O5  1  0.25000000  0.84783900  0.59389000  1
  O  O6  1  0.75000000  0.62001000  0.54061500  1
  O  O7  1  0.25000000  0.37999000  0.45938500  1
  O  O8  1  0.75000000  0.15216100  0.40611000  1
  O  O9  1  0.45350200  0.79133600  0.32150700  1
  O  O10  1  0.04649800  0.79133600  0.32150700  1
  O  O11  1  0.75000000  0.52860100  0.16975800  1
  O  O12  1  0.75000000  0.93547900  0.14414200  1
  O  O13  1  0.25000000  0.28593000  0.05900200  1
loop_
_geom_bond_atom_site_label_1
_geom_bond_atom_site_label_2
_geom_bond_distance
_geom_bond_site_symmetry_2
Na0 O0 2.257907 1_555
Na0 O2 2.335030 1_555
Na0 O5 2.351445 1_555
Na0 O1 2.431771 1_565
Na0 O4 2.494531 1_565
Na0 O6 2.840277 1_555
Na1 O0 2.257907 1_455
Na1 O2 2.335030 1_555
Na1 O5 2.351445 1_555
Na1 O1 2.431771 1_565
Na1 O3 2.494531 1_465
Na1 O6 2.840277 1_455
Na2 O13 2.257907 1_555
Na2 O11 2.335030 1_555
Na2 O8 2.351445 1_555
Na2 O12 2.431771 1_545
Na2 O9 2.494531 1_545
Na2 O7 2.840277 1_555
Na3 O13 2.257907 1_655
Na3 O11 2.335030 1_555
Na3 O8 2.351445 1_555
Na3 O12 2.431771 1_545
Na3 O10 2.494531 1_645
Na3 O7 2.840277 1_655
Co0 O1 1.958820 1_555
Co0 O7 1.962113 1_555
Co0 O3 1.968143 1_455
Co0 O4 1.968143 1_555
Co0 O5 2.072954 1_545
Co0 O2 2.157708 1_555
Co1 O12 1.958820 1_555
Co1 O6 1.962113 1_555
Co1 O10 1.968143 1_655
Co1 O9 1.968143 1_555
Co1 O8 2.072954 1_565
Co1 O11 2.157708 1_555
As0 O8 1.708036 1_555
As0 O3 1.724113 1_555
As0 O4 1.724113 1_555
As0 O6 1.748987 1_555
As1 O5 1.708036 1_555
As1 O10 1.724113 1_555
As1 O9 1.724113 1_555
As1 O7 1.748987 1_555
C0 O13 1.250996 1_556
C0 O2 1.300220 1_555
C0 O1 1.325231 1_555
C1 O0 1.250996 1_554
C1 O11 1.300220 1_555
C1 O12 1.325231 1_555
