# generated using pymatgen
data_Li6V2OF11
_symmetry_space_group_name_H-M   'P 1'
_cell_length_a   5.12406943
_cell_length_b   9.77255290
_cell_length_c   8.79955159
_cell_angle_alpha   107.72498720
_cell_angle_beta   89.36513467
_cell_angle_gamma   89.73746090
_symmetry_Int_Tables_number   1
_chemical_formula_structural   Li6V2OF11
_chemical_formula_sum   'Li12 V4 O2 F22'
_cell_volume   419.68155426
_cell_formula_units_Z   2
loop_
 _symmetry_equiv_pos_site_id
 _symmetry_equiv_pos_as_xyz
  1  'x, y, z'
loop_
 _atom_site_type_symbol
 _atom_site_label
 _atom_site_symmetry_multiplicity
 _atom_site_fract_x
 _atom_site_fract_y
 _atom_site_fract_z
 _atom_site_occupancy
  Li  Li0  1  0.00089400  0.19994400  0.05568200  1
  Li  Li1  1  0.50043700  0.69840800  0.05498500  1
  Li  Li2  1  0.50580600  0.55089100  0.69424900  1
  Li  Li3  1  0.00530300  0.05115300  0.69398600  1
  Li  Li4  1  0.50481700  0.47044500  0.33171600  1
  Li  Li5  1  0.00388000  0.97143300  0.33338000  1
  Li  Li6  1  0.98344200  0.77470600  0.93091700  1
  Li  Li7  1  0.48208300  0.27503300  0.93070900  1
  Li  Li8  1  0.01024900  0.28082300  0.41300400  1
  Li  Li9  1  0.51186700  0.78104200  0.41200000  1
  Li  Li10  1  0.97839800  0.47314500  0.81480200  1
  Li  Li11  1  0.47729400  0.97238800  0.81424200  1
  V  V0  1  0.51181700  0.23111600  0.56414800  1
  V  V1  1  0.49571900  0.01310100  0.16912700  1
  V  V2  1  0.01059300  0.73112800  0.56465900  1
  V  V3  1  0.99671400  0.51386200  0.17093500  1
  O  O0  1  0.14599900  0.62994900  0.38414100  1
  O  O1  1  0.65142800  0.13055800  0.38577600  1
  F  F0  1  0.14887100  0.63036100  0.70578900  1
  F  F1  1  0.64858800  0.13139600  0.70651400  1
  F  F2  1  0.16289900  0.12161100  0.21898900  1
  F  F3  1  0.66223500  0.62235900  0.22042800  1
  F  F4  1  0.30704700  0.38662800  0.13470800  1
  F  F5  1  0.80609900  0.88700600  0.13469200  1
  F  F6  1  0.35032500  0.37130000  0.47200200  1
  F  F7  1  0.85002900  0.87185900  0.47228400  1
  F  F8  1  0.34927500  0.87462800  0.97234800  1
  F  F9  1  0.84946200  0.37641300  0.97456300  1
  F  F10  1  0.67550500  0.63114000  0.53468600  1
  F  F11  1  0.17703300  0.13149600  0.53451600  1
  F  F12  1  0.65219200  0.11861800  0.03666500  1
  F  F13  1  0.15175900  0.61870300  0.03711800  1
  F  F14  1  0.70665500  0.62423300  0.87473300  1
  F  F15  1  0.20584200  0.12395500  0.87460100  1
  F  F16  1  0.80410800  0.36458100  0.61579900  1
  F  F17  1  0.30487100  0.86341100  0.61426100  1
  F  F18  1  0.84910000  0.37888700  0.27644300  1
  F  F19  1  0.34846800  0.87968100  0.27650900  1
  F  F20  1  0.85454500  0.86711700  0.76094900  1
  F  F21  1  0.35468200  0.36739400  0.76138400  1
loop_
_geom_bond_atom_site_label_1
_geom_bond_atom_site_label_2
_geom_bond_distance
_geom_bond_site_symmetry_2
Li4 O0 2.353747 1_555
Li5 O1 2.326289 1_465
Li8 O1 2.326935 1_455
Li9 O0 2.360108 1_555
O0 V2 1.730684 1_555
O0 V3 2.033656 1_455
O1 V0 1.723538 1_555
O1 V1 2.073218 1_555
F0 V2 1.942110 1_555
F0 Li2 1.973170 1_555
F0 Li6 2.209782 1_455
F0 Li10 2.221460 1_455
F1 V0 1.940825 1_555
F1 Li3 1.974290 1_655
F1 Li7 2.203597 1_555
F1 Li11 2.230395 1_545
F2 V1 1.977096 1_555
F2 Li0 2.007637 1_555
F2 Li8 2.071035 1_555
F2 Li5 2.173334 1_545
F3 V3 1.984177 1_555
F3 Li1 2.009729 1_555
F3 Li9 2.051515 1_555
F3 Li4 2.166181 1_555
F4 Li4 1.971068 1_555
F4 V3 1.976258 1_455
F4 Li7 1.994863 1_554
F4 Li0 2.356019 1_555
F5 V1 1.970713 1_565
F5 Li5 1.983222 1_655
F5 Li6 2.000501 1_554
F5 Li1 2.367627 1_555
F6 Li4 1.950120 1_555
F6 Li8 1.960240 1_555
F6 V0 1.974804 1_555
F6 Li2 2.344576 1_555
F7 Li5 1.942240 1_655
F7 Li9 1.954316 1_555
F7 V2 1.978446 1_655
F7 Li3 2.339837 1_665
F8 V1 2.000994 1_566
F8 Li11 2.018287 1_555
F8 Li6 2.101322 1_455
F8 Li1 2.203901 1_556
F9 V3 1.996094 1_556
F9 Li10 2.025044 1_555
F9 Li7 2.115323 1_555
F9 Li0 2.198924 1_656
F10 V2 1.959844 1_655
F10 Li2 1.998065 1_555
F10 Li4 2.181842 1_555
F10 Li9 2.233014 1_555
F11 V0 1.956838 1_555
F11 Li3 2.002445 1_555
F11 Li5 2.174476 1_545
F11 Li8 2.227590 1_555
F12 V1 1.945128 1_555
F12 Li0 1.947015 1_655
F12 Li7 2.199820 1_554
F12 Li11 2.241336 1_544
F13 Li1 1.941125 1_555
F13 V3 1.946487 1_455
F13 Li6 2.194253 1_454
F13 Li10 2.235004 1_454
F14 Li1 1.847592 1_556
F14 Li2 1.856091 1_555
F14 Li10 1.971759 1_555
F14 Li6 2.002572 1_555
F15 Li0 1.851650 1_556
F15 Li3 1.855383 1_555
F15 Li11 1.973950 1_545
F15 Li7 2.004480 1_555
F16 V0 1.955236 1_555
F16 Li10 1.975288 1_555
F16 Li8 2.007756 1_655
F16 Li2 2.305158 1_555
F17 V2 1.955592 1_555
F17 Li11 1.978236 1_555
F17 Li9 2.004660 1_555
F17 Li3 2.319741 1_565
F18 Li8 1.939130 1_655
F18 Li4 1.962356 1_555
F18 V3 1.978191 1_555
F18 Li0 2.307011 1_655
F19 Li9 1.940678 1_555
F19 Li5 1.965904 1_555
F19 V1 1.976259 1_565
F19 Li1 2.322816 1_555
F20 V2 1.987685 1_655
F20 Li6 2.080291 1_555
F20 Li11 2.164007 1_555
F20 Li3 2.196928 1_665
F21 V0 1.996496 1_555
F21 Li7 2.072666 1_555
F21 Li10 2.161583 1_455
F21 Li2 2.193619 1_555
