# generated using pymatgen
data_Tb2WO6
_symmetry_space_group_name_H-M   'P 1'
_cell_length_a   9.93234608
_cell_length_b   9.93234608
_cell_length_c   5.43141151
_cell_angle_alpha   75.81337266
_cell_angle_beta   75.81337266
_cell_angle_gamma   68.45352317
_symmetry_Int_Tables_number   1
_chemical_formula_structural   Tb2WO6
_chemical_formula_sum   'Tb8 W4 O24'
_cell_volume   475.97670055
_cell_formula_units_Z   4
loop_
 _symmetry_equiv_pos_site_id
 _symmetry_equiv_pos_as_xyz
  1  'x, y, z'
loop_
 _atom_site_type_symbol
 _atom_site_label
 _atom_site_symmetry_multiplicity
 _atom_site_fract_x
 _atom_site_fract_y
 _atom_site_fract_z
 _atom_site_occupancy
  Tb  Tb0  1  0.10591400  0.89408600  0.75000000  1
  Tb  Tb1  1  0.63357000  0.36643000  0.75000000  1
  Tb  Tb2  1  0.94370700  0.71436200  0.38318900  1
  Tb  Tb3  1  0.71436200  0.94370700  0.88318900  1
  Tb  Tb4  1  0.28563800  0.05629300  0.11681100  1
  Tb  Tb5  1  0.05629300  0.28563800  0.61681100  1
  Tb  Tb6  1  0.36643000  0.63357000  0.25000000  1
  Tb  Tb7  1  0.89408600  0.10591400  0.25000000  1
  W  W0  1  0.50556800  0.80031000  0.56615700  1
  W  W1  1  0.19969000  0.49443200  0.93384300  1
  W  W2  1  0.80031000  0.50556800  0.06615700  1
  W  W3  1  0.49443200  0.19969000  0.43384300  1
  O  O0  1  0.89263800  0.92416800  0.07831300  1
  O  O1  1  0.52673600  0.93838500  0.26272800  1
  O  O2  1  0.31271200  0.84004000  0.42083800  1
  O  O3  1  0.54429300  0.61188200  0.52076100  1
  O  O4  1  0.38811800  0.45570700  0.97923900  1
  O  O5  1  0.15996000  0.68728800  0.07916200  1
  O  O6  1  0.92416800  0.89263800  0.57831300  1
  O  O7  1  0.17566000  0.61983100  0.61653100  1
  O  O8  1  0.61983100  0.17566000  0.11653100  1
  O  O9  1  0.21597800  0.31736100  0.85285800  1
  O  O10  1  0.31736100  0.21597800  0.35285800  1
  O  O11  1  0.06161500  0.47326400  0.23727200  1
  O  O12  1  0.93838500  0.52673600  0.76272800  1
  O  O13  1  0.68263900  0.78402200  0.64714200  1
  O  O14  1  0.78402200  0.68263900  0.14714200  1
  O  O15  1  0.38016900  0.82434000  0.88346900  1
  O  O16  1  0.82434000  0.38016900  0.38346900  1
  O  O17  1  0.07583200  0.10736200  0.42168700  1
  O  O18  1  0.84004000  0.31271200  0.92083800  1
  O  O19  1  0.61188200  0.54429300  0.02076100  1
  O  O20  1  0.45570700  0.38811800  0.47923900  1
  O  O21  1  0.68728800  0.15996000  0.57916200  1
  O  O22  1  0.47326400  0.06161500  0.73727200  1
  O  O23  1  0.10736200  0.07583200  0.92168700  1
loop_
_geom_bond_atom_site_label_1
_geom_bond_atom_site_label_2
_geom_bond_distance
_geom_bond_site_symmetry_2
O0 Tb3 2.205181 1_554
O0 Tb7 2.231396 1_565
O0 Tb2 2.299072 1_555
O0 Tb0 2.387704 1_654
O1 W0 1.890803 1_555
O1 Tb3 2.420972 1_554
O1 Tb4 2.479816 1_565
O2 W0 2.116856 1_555
O2 Tb6 2.288564 1_555
O2 Tb4 2.338259 1_565
O2 Tb0 2.358794 1_555
O3 W0 1.833666 1_555
O3 Tb1 2.396965 1_555
O3 Tb6 2.483669 1_555
O4 W1 1.833666 1_555
O4 Tb1 2.396965 1_555
O4 Tb6 2.483669 1_556
O5 W1 2.116856 1_554
O5 Tb6 2.288564 1_555
O5 Tb2 2.338259 1_455
O5 Tb0 2.358794 1_554
O6 Tb2 2.205181 1_555
O6 Tb0 2.231396 1_655
O6 Tb3 2.299072 1_555
O6 Tb7 2.387704 1_565
O7 W1 1.873405 1_555
O7 Tb6 2.404138 1_555
O7 Tb2 2.656042 1_455
O7 Tb0 2.785908 1_555
O8 W3 1.873405 1_555
O8 Tb1 2.404138 1_554
O8 Tb3 2.656042 1_544
O8 Tb7 2.785908 1_555
O9 W1 1.856908 1_555
O9 Tb5 2.412529 1_555
O9 Tb4 2.569833 1_556
O10 W3 1.856908 1_555
O10 Tb4 2.412529 1_555
O10 Tb5 2.569833 1_555
O11 W1 1.890803 1_554
O11 Tb5 2.420972 1_555
O11 Tb2 2.479816 1_455
O12 W2 1.890803 1_556
O12 Tb2 2.420972 1_555
O12 Tb5 2.479816 1_655
O13 W0 1.856908 1_555
O13 Tb3 2.412529 1_555
O13 Tb2 2.569833 1_555
O14 W2 1.856908 1_555
O14 Tb2 2.412529 1_555
O14 Tb3 2.569833 1_554
O15 W0 1.873405 1_555
O15 Tb6 2.404138 1_556
O15 Tb4 2.656042 1_566
O15 Tb0 2.785908 1_555
O16 W2 1.873405 1_555
O16 Tb1 2.404138 1_555
O16 Tb5 2.656042 1_655
O16 Tb7 2.785908 1_555
O17 Tb5 2.205181 1_555
O17 Tb7 2.231396 1_455
O17 Tb4 2.299072 1_555
O17 Tb0 2.387704 1_545
O18 W2 2.116856 1_556
O18 Tb1 2.288564 1_555
O18 Tb5 2.338259 1_655
O18 Tb7 2.358794 1_556
O19 W2 1.833666 1_555
O19 Tb6 2.396965 1_555
O19 Tb1 2.483669 1_554
O20 W3 1.833666 1_555
O20 Tb6 2.396965 1_555
O20 Tb1 2.483669 1_555
O21 W3 2.116856 1_555
O21 Tb1 2.288564 1_555
O21 Tb3 2.338259 1_545
O21 Tb7 2.358794 1_555
O22 W3 1.890803 1_555
O22 Tb4 2.420972 1_556
O22 Tb3 2.479816 1_545
O23 Tb4 2.205181 1_556
O23 Tb0 2.231396 1_545
O23 Tb5 2.299072 1_555
O23 Tb7 2.387704 1_456
