# generated using pymatgen
data_Li6V3P8O29
_symmetry_space_group_name_H-M   'P 1'
_cell_length_a   9.81379784
_cell_length_b   9.81225246
_cell_length_c   13.90177306
_cell_angle_alpha   90.27060046
_cell_angle_beta   90.17104616
_cell_angle_gamma   60.16645976
_symmetry_Int_Tables_number   1
_chemical_formula_structural   Li6V3P8O29
_chemical_formula_sum   'Li12 V6 P16 O58'
_cell_volume   1161.25531365
_cell_formula_units_Z   2
loop_
 _symmetry_equiv_pos_site_id
 _symmetry_equiv_pos_as_xyz
  1  'x, y, z'
loop_
 _atom_site_type_symbol
 _atom_site_label
 _atom_site_symmetry_multiplicity
 _atom_site_fract_x
 _atom_site_fract_y
 _atom_site_fract_z
 _atom_site_occupancy
  Li  Li0  1  0.91517900  0.77432700  0.06134400  1
  Li  Li1  1  0.90549700  0.33057200  0.55782200  1
  Li  Li2  1  0.66393000  0.66987700  0.88536400  1
  Li  Li3  1  0.77262500  0.31793300  0.06345800  1
  Li  Li4  1  0.31817400  0.90804900  0.06229900  1
  Li  Li5  1  0.66930300  0.23202300  0.43603100  1
  Li  Li6  1  0.33384900  0.76597700  0.55879400  1
  Li  Li7  1  0.68169100  0.09022100  0.94080900  1
  Li  Li8  1  0.33478100  0.32767300  0.61391800  1
  Li  Li9  1  0.09428000  0.67163800  0.43720100  1
  Li  Li10  1  0.09366200  0.22402100  0.94312900  1
  Li  Li11  1  0.99965600  0.00011600  0.49507200  1
  V  V0  1  0.56427600  0.43385700  0.24791400  1
  V  V1  1  0.43083500  0.56733400  0.75493200  1
  V  V2  1  0.56804200  0.99613500  0.74467300  1
  V  V3  1  0.43061600  0.00293600  0.25559000  1
  V  V4  1  0.99944700  0.56814500  0.24986400  1
  V  V5  1  0.00017300  0.43667700  0.74986100  1
  P  P0  1  0.91053200  0.77211900  0.84311100  1
  P  P1  1  0.77512800  0.91513400  0.34243500  1
  P  P2  1  0.90967500  0.31643200  0.34288200  1
  P  P3  1  0.66599500  0.66760800  0.12737700  1
  P  P4  1  0.66565200  0.66377200  0.62726800  1
  P  P5  1  0.77041600  0.32041900  0.84328800  1
  P  P6  1  0.68264100  0.22849400  0.65711400  1
  P  P7  1  0.31980500  0.91184400  0.84443500  1
  P  P8  1  0.67965600  0.08517800  0.15727000  1
  P  P9  1  0.31644500  0.77111300  0.34245200  1
  P  P10  1  0.22988800  0.68445600  0.15747300  1
  P  P11  1  0.33282400  0.33521000  0.37361500  1
  P  P12  1  0.33493600  0.32968700  0.87213000  1
  P  P13  1  0.09006600  0.68555300  0.65625100  1
  P  P14  1  0.22316900  0.08715800  0.65693200  1
  P  P15  1  0.08766700  0.23081800  0.16025900  1
  O  O0  1  0.00903500  0.76665000  0.56520400  1
  O  O1  1  0.91958900  0.74526900  0.33918900  1
  O  O2  1  0.75463900  0.99784400  0.06554900  1
  O  O3  1  0.74614800  0.92118700  0.84009300  1
  O  O4  1  0.88729900  0.62684100  0.82503700  1
  O  O5  1  0.81552700  0.67252000  0.16500900  1
  O  O6  1  0.90546800  0.47240400  0.32829000  1
  O  O7  1  0.99673100  0.24652500  0.06925300  1
  O  O8  1  0.92088900  0.33276900  0.84504900  1
  O  O9  1  0.66287100  0.81299700  0.67251600  1
  O  O10  1  0.62342700  0.90979000  0.33177400  1
  O  O11  1  0.81807800  0.51530300  0.66914800  1
  O  O12  1  0.66836100  0.66482700  0.01858000  1
  O  O13  1  0.66644300  0.66009100  0.52047500  1
  O  O14  1  0.67361900  0.51212600  0.16446600  1
  O  O15  1  0.48543000  0.89209600  0.82808300  1
  O  O16  1  0.51492000  0.81410900  0.16586400  1
  O  O17  1  0.74086000  0.33902900  0.33537300  1
  O  O18  1  0.78820800  0.21408700  0.75064900  1
  O  O19  1  0.77098300  0.23144000  0.56872200  1
  O  O20  1  0.75162200  0.24458700  0.93230200  1
  O  O21  1  0.62817000  0.48762000  0.82692100  1
  O  O22  1  0.51730000  0.66353600  0.66978900  1
  O  O23  1  0.66155700  0.25102400  0.15724600  1
  O  O24  1  0.47225400  0.61923600  0.32982100  1
  O  O25  1  0.34137800  0.91416600  0.33562800  1
  O  O26  1  0.79609000  0.99418100  0.24479100  1
  O  O27  1  0.78971900  0.00531400  0.42569900  1
  O  O28  1  0.22064200  0.99001700  0.57442100  1
  O  O29  1  0.66022100  0.08581100  0.65918400  1
  O  O30  1  0.52049300  0.37885800  0.66863900  1
  O  O31  1  0.33791200  0.74780200  0.84118200  1
  O  O32  1  0.48784700  0.32567500  0.33486700  1
  O  O33  1  0.38067500  0.52371000  0.17667200  1
  O  O34  1  0.24236200  0.76710500  0.07191100  1
  O  O35  1  0.22795800  0.77733600  0.43328400  1
  O  O36  1  0.20359000  0.78918300  0.25380000  1
  O  O37  1  0.25631400  0.66604900  0.66017200  1
  O  O38  1  0.47977300  0.18006800  0.82744000  1
  O  O39  1  0.52200100  0.09352400  0.17781000  1
  O  O40  1  0.34040500  0.47389300  0.82639600  1
  O  O41  1  0.33531200  0.32620900  0.97876900  1
  O  O42  1  0.33671200  0.33716200  0.48219700  1
  O  O43  1  0.18680800  0.49109200  0.33728600  1
  O  O44  1  0.37238300  0.10403800  0.66677600  1
  O  O45  1  0.32377300  0.19393300  0.33034900  1
  O  O46  1  0.08444300  0.66258800  0.15788000  1
  O  O47  1  0.00000600  0.78754500  0.74984200  1
  O  O48  1  0.99688600  0.75715500  0.93402800  1
  O  O49  1  0.10668900  0.51946100  0.66967800  1
  O  O50  1  0.18076300  0.33670200  0.82925100  1
  O  O51  1  0.09678200  0.38178900  0.17912300  1
  O  O52  1  0.25200300  0.08472400  0.15915400  1
  O  O53  1  0.24452500  0.00340300  0.93462600  1
  O  O54  1  0.20846200  0.00868400  0.75561700  1
  O  O55  1  0.07843200  0.25439500  0.65633600  1
  O  O56  1  0.98433000  0.22911900  0.43386500  1
  O  O57  1  0.99947600  0.20670800  0.25044800  1
loop_
_geom_bond_atom_site_label_1
_geom_bond_atom_site_label_2
_geom_bond_distance
_geom_bond_site_symmetry_2
Li0 O48 1.917082 1_554
Li0 O2 1.963955 1_555
Li0 O46 1.987701 1_655
Li0 O5 2.241699 1_555
Li1 O56 1.945378 1_555
Li1 O19 1.997987 1_555
Li1 O55 2.012020 1_655
Li1 O11 2.202492 1_555
Li2 O12 1.852637 1_556
Li2 O21 2.142539 1_555
Li2 O15 2.159831 1_555
Li2 O4 2.184849 1_555
Li3 O7 1.949542 1_555
Li3 O20 2.004450 1_554
Li3 O23 2.011878 1_555
Li3 O14 2.165045 1_555
Li4 O34 1.873532 1_555
Li4 O53 1.970584 1_564
Li4 O52 2.025592 1_565
Li4 O16 2.208102 1_555
Li5 O27 1.935996 1_555
Li5 O17 2.075347 1_555
Li5 O32 2.088665 1_555
Li5 O19 2.093298 1_555
Li6 O28 1.918614 1_555
Li6 O35 2.003118 1_555
Li6 O37 2.070849 1_555
Li6 O22 2.197745 1_555
Li7 O2 1.924328 1_546
Li7 O20 1.953376 1_555
Li7 O3 2.012693 1_545
Li7 O38 2.333253 1_555
Li8 O42 1.834593 1_555
Li8 O44 2.167785 1_555
Li8 O49 2.226723 1_555
Li8 O30 2.247542 1_555
Li9 O0 1.988150 1_555
Li9 O1 2.020045 1_455
Li9 O35 2.038230 1_555
Li9 O43 2.067854 1_555
Li10 O53 1.924035 1_555
Li10 O7 1.955809 1_456
Li10 O8 2.018024 1_455
Li10 O50 2.329018 1_555
Li11 O27 2.249774 1_555
Li11 O56 2.340262 1_555
Li11 O35 2.378425 1_645
Li11 O28 2.388068 1_645
Li11 O0 2.453095 1_645
Li11 O19 2.481970 1_555
O0 P13 1.497170 1_555
O1 P1 1.561606 1_555
O1 V4 1.951156 1_555
O2 P8 1.506504 1_565
O3 P0 1.547948 1_555
O3 V2 2.017924 1_555
O4 P0 1.570617 1_555
O4 V5 1.932078 1_655
O5 P3 1.579573 1_555
O5 V4 1.964115 1_555
O6 P2 1.524830 1_555
O6 V4 1.949249 1_555
O7 P15 1.509643 1_655
O8 P5 1.540703 1_555
O8 V5 2.050416 1_655
O9 P4 1.578620 1_555
O9 V2 1.850981 1_555
O10 P1 1.522305 1_555
O10 V3 1.952930 1_565
O11 P4 1.591696 1_555
O11 V5 1.916295 1_655
O12 P3 1.512628 1_555
O13 P4 1.484830 1_555
O14 P3 1.578801 1_555
O14 V0 1.980626 1_555
O15 P7 1.555506 1_555
O15 V2 1.970854 1_555
O16 P3 1.558133 1_555
O16 V3 2.032843 1_565
O17 P2 1.561559 1_555
O17 V0 1.934151 1_555
O18 P5 1.607799 1_555
O18 P6 1.622365 1_555
O19 P6 1.514618 1_555
O20 P5 1.505182 1_555
O21 P5 1.554042 1_555
O21 V1 1.962773 1_555
O22 P4 1.574028 1_555
O22 V1 1.955916 1_555
O23 P8 1.546656 1_555
O23 V0 2.000085 1_555
O24 P9 1.523701 1_555
O24 V0 1.942409 1_555
O25 P9 1.543468 1_555
O25 V3 1.880863 1_565
O26 P8 1.603154 1_565
O26 P1 1.629997 1_555
O27 P1 1.502913 1_545
O28 P14 1.495960 1_565
O29 P6 1.521929 1_555
O29 V2 1.952771 1_545
O30 P6 1.548552 1_555
O30 V1 1.999947 1_555
O31 P7 1.529469 1_555
O31 V1 1.945449 1_555
O32 P11 1.573613 1_555
O32 V0 1.990052 1_555
O33 P10 1.558256 1_555
O33 V0 1.849801 1_555
O34 P10 1.481973 1_555
O35 P9 1.518345 1_555
O36 P9 1.604825 1_555
O36 P10 1.625118 1_555
O37 P13 1.546082 1_555
O37 V1 1.988704 1_555
O38 P12 1.575463 1_555
O38 V2 1.939687 1_545
O39 P8 1.535709 1_555
O39 V3 1.889867 1_555
O40 P12 1.579098 1_555
O40 V1 1.854368 1_555
O41 P12 1.482976 1_555
O42 P11 1.510122 1_555
O43 P11 1.571691 1_555
O43 V4 2.010394 1_455
O44 P14 1.558977 1_555
O44 V2 1.989054 1_545
O45 P11 1.551018 1_555
O45 V3 1.929964 1_555
O46 P10 1.545395 1_555
O46 V4 1.994088 1_455
O47 P13 1.609354 1_555
O47 P0 1.617408 1_455
O48 P0 1.486191 1_555
O49 P13 1.567055 1_555
O49 V5 1.963519 1_555
O50 P12 1.593953 1_555
O50 V5 1.894752 1_555
O51 P15 1.548952 1_555
O51 V4 1.863861 1_455
O52 P15 1.534881 1_555
O52 V3 2.027410 1_555
O53 P7 1.503158 1_545
O54 P7 1.609786 1_545
O54 P14 1.617893 1_555
O55 P14 1.546408 1_555
O55 V5 2.024005 1_555
O56 P2 1.500244 1_555
O57 P15 1.609354 1_655
O57 P2 1.623786 1_555
