# generated using pymatgen
data_Li2NiSn3(PO4)6
_symmetry_space_group_name_H-M   'P 1'
_cell_length_a   8.88043931
_cell_length_b   8.88043931
_cell_length_c   8.88043942
_cell_angle_alpha   59.23452207
_cell_angle_beta   59.23452207
_cell_angle_gamma   59.23452563
_symmetry_Int_Tables_number   1
_chemical_formula_structural   Li2NiSn3(PO4)6
_chemical_formula_sum   'Li2 Ni1 Sn3 P6 O24'
_cell_volume   486.57396194
_cell_formula_units_Z   1
loop_
 _symmetry_equiv_pos_site_id
 _symmetry_equiv_pos_as_xyz
  1  'x, y, z'
loop_
 _atom_site_type_symbol
 _atom_site_label
 _atom_site_symmetry_multiplicity
 _atom_site_fract_x
 _atom_site_fract_y
 _atom_site_fract_z
 _atom_site_occupancy
  Li  Li0  1  0.01755900  0.01755900  0.01755900  1
  Li  Li1  1  0.49903000  0.49903000  0.49903000  1
  Ni  Ni0  1  0.14611600  0.14611600  0.14611600  1
  Sn  Sn0  1  0.85594100  0.85594100  0.85594100  1
  Sn  Sn1  1  0.64369600  0.64369600  0.64369600  1
  Sn  Sn2  1  0.35440600  0.35440600  0.35440600  1
  P  P0  1  0.24875100  0.53878100  0.95674800  1
  P  P1  1  0.95674800  0.24875100  0.53878100  1
  P  P2  1  0.53878100  0.95674800  0.24875100  1
  P  P3  1  0.45074200  0.04538800  0.75376200  1
  P  P4  1  0.04538800  0.75376200  0.45074200  1
  P  P5  1  0.75376200  0.45074200  0.04538800  1
  O  O0  1  0.70064500  0.48499200  0.88689100  1
  O  O1  1  0.48499200  0.88689100  0.70064500  1
  O  O2  1  0.08516600  0.72852200  0.93779100  1
  O  O3  1  0.88689100  0.70064500  0.48499200  1
  O  O4  1  0.41330900  0.56027100  0.76541900  1
  O  O5  1  0.20099500  0.38064800  0.99088800  1
  O  O6  1  0.93779100  0.08516600  0.72852200  1
  O  O7  1  0.76541900  0.41330900  0.56027100  1
  O  O8  1  0.56027100  0.76541900  0.41330900  1
  O  O9  1  0.61388700  0.01228100  0.79779300  1
  O  O10  1  0.26500100  0.06503200  0.91714800  1
  O  O11  1  0.01228100  0.79779300  0.61388700  1
  O  O12  1  0.99088800  0.20099500  0.38064800  1
  O  O13  1  0.72852200  0.93779100  0.08516600  1
  O  O14  1  0.38064800  0.99088800  0.20099500  1
  O  O15  1  0.43378900  0.23462200  0.58735600  1
  O  O16  1  0.23462200  0.58735600  0.43378900  1
  O  O17  1  0.06503200  0.91714800  0.26500100  1
  O  O18  1  0.79779300  0.61388700  0.01228100  1
  O  O19  1  0.58735600  0.43378900  0.23462200  1
  O  O20  1  0.11089100  0.30166600  0.51407300  1
  O  O21  1  0.91714800  0.26500100  0.06503200  1
  O  O22  1  0.51407300  0.11089100  0.30166600  1
  O  O23  1  0.30166600  0.51407300  0.11089100  1
loop_
_geom_bond_atom_site_label_1
_geom_bond_atom_site_label_2
_geom_bond_distance
_geom_bond_site_symmetry_2
Li0 O10 2.088053 1_554
Li0 O17 2.088053 1_545
Li0 O21 2.088053 1_455
Li1 O15 2.346682 1_555
Li1 O19 2.346682 1_555
Li1 O16 2.346682 1_555
Li1 O8 2.349870 1_555
Li1 O4 2.349870 1_555
Li1 O7 2.349870 1_555
Ni0 O5 1.972178 1_554
Ni0 O12 1.972178 1_455
Ni0 O14 1.972178 1_545
Ni0 O17 2.071599 1_545
Ni0 O10 2.071599 1_554
Ni0 O21 2.071599 1_455
O0 P5 1.546163 1_556
O0 Sn1 2.044640 1_555
O1 P3 1.546163 1_565
O1 Sn1 2.044640 1_555
O2 P0 1.560017 1_555
O2 Sn0 2.065979 1_455
O3 P4 1.546163 1_655
O3 Sn1 2.044640 1_555
O4 P0 1.572337 1_555
O4 Sn1 2.090940 1_555
O5 P0 1.511946 1_555
O6 P1 1.560017 1_555
O6 Sn0 2.065979 1_545
O7 P1 1.572337 1_555
O7 Sn1 2.090940 1_555
O8 P2 1.572337 1_555
O8 Sn1 2.090940 1_555
O9 P3 1.537702 1_555
O9 Sn0 2.040521 1_545
O10 P3 1.540297 1_555
O11 P4 1.537702 1_555
O11 Sn0 2.040521 1_455
O12 P1 1.511946 1_555
O13 P2 1.560017 1_555
O13 Sn0 2.065979 1_554
O14 P2 1.511946 1_555
O15 P3 1.568005 1_555
O15 Sn2 2.093209 1_555
O16 P4 1.568006 1_555
O16 Sn2 2.093209 1_555
O17 P4 1.540297 1_555
O18 P5 1.537702 1_555
O18 Sn0 2.040521 1_554
O19 P5 1.568005 1_555
O19 Sn2 2.093209 1_555
O20 P1 1.545327 1_455
O20 Sn2 2.031295 1_555
O21 P5 1.540297 1_555
O22 P2 1.545327 1_545
O22 Sn2 2.031295 1_555
O23 P0 1.545327 1_554
O23 Sn2 2.031295 1_555
