# generated using pymatgen
data_SrCa2I6
_symmetry_space_group_name_H-M   'P 1'
_cell_length_a   7.56386500
_cell_length_b   7.56386500
_cell_length_c   14.38575200
_cell_angle_alpha   90.00000000
_cell_angle_beta   90.00000000
_cell_angle_gamma   90.00000000
_symmetry_Int_Tables_number   1
_chemical_formula_structural   SrCa2I6
_chemical_formula_sum   'Sr2 Ca4 I12'
_cell_volume   823.03841649
_cell_formula_units_Z   2
loop_
 _symmetry_equiv_pos_site_id
 _symmetry_equiv_pos_as_xyz
  1  'x, y, z'
loop_
 _atom_site_type_symbol
 _atom_site_label
 _atom_site_symmetry_multiplicity
 _atom_site_fract_x
 _atom_site_fract_y
 _atom_site_fract_z
 _atom_site_occupancy
  Sr  Sr0  1  0.00000000  0.00000000  0.00000000  1
  Sr  Sr1  1  0.50000000  0.50000000  0.50000000  1
  Ca  Ca0  1  0.00000000  0.00000000  0.33289500  1
  Ca  Ca1  1  0.00000000  0.00000000  0.66710500  1
  Ca  Ca2  1  0.50000000  0.50000000  0.16710500  1
  Ca  Ca3  1  0.50000000  0.50000000  0.83289500  1
  I  I0  1  0.20146800  0.79853200  0.17226500  1
  I  I1  1  0.20146800  0.79853200  0.82773500  1
  I  I2  1  0.19089900  0.80910100  0.50000000  1
  I  I3  1  0.30910100  0.30910100  0.00000000  1
  I  I4  1  0.29853200  0.29853200  0.32773500  1
  I  I5  1  0.29853200  0.29853200  0.67226500  1
  I  I6  1  0.70146800  0.70146800  0.32773500  1
  I  I7  1  0.70146800  0.70146800  0.67226500  1
  I  I8  1  0.69089900  0.69089900  0.00000000  1
  I  I9  1  0.80910100  0.19089900  0.50000000  1
  I  I10  1  0.79853200  0.20146800  0.17226500  1
  I  I11  1  0.79853200  0.20146800  0.82773500  1
loop_
_geom_bond_atom_site_label_1
_geom_bond_atom_site_label_2
_geom_bond_distance
_geom_bond_site_symmetry_2
Ca0 I2 3.154168 1_545
Ca0 I9 3.154168 1_455
Ca0 I10 3.159766 1_455
Ca0 I0 3.159766 1_545
Ca0 I4 3.194236 1_555
Ca0 I6 3.194236 1_445
Ca1 I2 3.154168 1_545
Ca1 I9 3.154168 1_455
Ca1 I1 3.159766 1_545
Ca1 I11 3.159766 1_455
Ca1 I5 3.194236 1_555
Ca1 I7 3.194236 1_445
Ca2 I8 3.154168 1_555
Ca2 I3 3.154168 1_555
Ca2 I6 3.159766 1_555
Ca2 I4 3.159766 1_555
Ca2 I0 3.194236 1_555
Ca2 I10 3.194236 1_555
Ca3 I8 3.154168 1_556
Ca3 I3 3.154168 1_556
Ca3 I7 3.159766 1_555
Ca3 I5 3.159766 1_555
Ca3 I11 3.194236 1_555
Ca3 I1 3.194236 1_555
I0 Sr0 3.284157 1_565
I1 Sr0 3.284157 1_566
I2 Sr1 3.306429 1_555
I3 Sr0 3.306429 1_555
I4 Sr1 3.284157 1_555
I5 Sr1 3.284157 1_555
I6 Sr1 3.284157 1_555
I7 Sr1 3.284157 1_555
I8 Sr0 3.306429 1_665
I9 Sr1 3.306429 1_555
I10 Sr0 3.284157 1_655
I11 Sr0 3.284157 1_656
