# generated using pymatgen
data_V5O12
_symmetry_space_group_name_H-M   'P 1'
_cell_length_a   4.97915245
_cell_length_b   4.97915245
_cell_length_c   9.06172594
_cell_angle_alpha   87.08954011
_cell_angle_beta   87.08954011
_cell_angle_gamma   113.20552782
_symmetry_Int_Tables_number   1
_chemical_formula_structural   V5O12
_chemical_formula_sum   'V5 O12'
_cell_volume   205.60214441
_cell_formula_units_Z   1
loop_
 _symmetry_equiv_pos_site_id
 _symmetry_equiv_pos_as_xyz
  1  'x, y, z'
loop_
 _atom_site_type_symbol
 _atom_site_label
 _atom_site_symmetry_multiplicity
 _atom_site_fract_x
 _atom_site_fract_y
 _atom_site_fract_z
 _atom_site_occupancy
  V  V0  1  0.94742000  0.05258000  0.50000000  1
  V  V1  1  0.96150500  0.48427600  0.22003800  1
  V  V2  1  0.51572400  0.03849500  0.77996200  1
  V  V3  1  0.56852200  0.43147800  0.50000000  1
  V  V4  1  0.39958600  0.60041400  0.00000000  1
  O  O0  1  0.08377700  0.27771500  0.10176000  1
  O  O1  1  0.72228500  0.91622300  0.89824000  1
  O  O2  1  0.80100500  0.28595600  0.63229100  1
  O  O3  1  0.71404400  0.19899500  0.36770900  1
  O  O4  1  0.70803000  0.53985700  0.12131000  1
  O  O5  1  0.46014300  0.29197000  0.87869000  1
  O  O6  1  0.61138600  0.75810500  0.60450800  1
  O  O7  1  0.24189500  0.38861400  0.39549200  1
  O  O8  1  0.31346100  0.79314200  0.14265900  1
  O  O9  1  0.20685800  0.68653900  0.85734100  1
  O  O10  1  0.24768000  0.08190100  0.61291800  1
  O  O11  1  0.91809900  0.75232000  0.38708200  1
loop_
_geom_bond_atom_site_label_1
_geom_bond_atom_site_label_2
_geom_bond_distance
_geom_bond_site_symmetry_2
O0 V1 1.765320 1_455
O0 V4 1.901535 1_555
O1 V2 1.765320 1_565
O1 V4 1.901535 1_556
O2 V2 1.893886 1_555
O2 V3 2.003935 1_555
O2 V0 2.009762 1_555
O3 V1 1.893886 1_555
O3 V3 2.003935 1_555
O3 V0 2.009762 1_555
O4 V1 1.683635 1_555
O4 V4 2.039778 1_555
O5 V2 1.683635 1_555
O5 V4 2.039778 1_556
O6 V3 1.868350 1_555
O6 V0 1.900249 1_565
O6 V2 2.318701 1_565
O7 V3 1.868350 1_555
O7 V0 1.900249 1_455
O7 V1 2.318701 1_455
O8 V4 1.780426 1_555
O8 V1 1.889354 1_455
O9 V4 1.780426 1_556
O9 V2 1.889354 1_565
O10 V0 1.817134 1_455
O10 V3 2.022518 1_555
O10 V2 2.125679 1_555
O11 V0 1.817134 1_565
O11 V3 2.022518 1_555
O11 V1 2.125679 1_555
