# generated using pymatgen
data_Li3FeO4
_symmetry_space_group_name_H-M   'P 1'
_cell_length_a   5.03878365
_cell_length_b   10.25109679
_cell_length_c   9.81999832
_cell_angle_alpha   16.38406751
_cell_angle_beta   29.31266023
_cell_angle_gamma   33.15635862
_symmetry_Int_Tables_number   1
_chemical_formula_structural   Li3FeO4
_chemical_formula_sum   'Li3 Fe1 O4'
_cell_volume   70.04649841
_cell_formula_units_Z   1
loop_
 _symmetry_equiv_pos_site_id
 _symmetry_equiv_pos_as_xyz
  1  'x, y, z'
loop_
 _atom_site_type_symbol
 _atom_site_label
 _atom_site_symmetry_multiplicity
 _atom_site_fract_x
 _atom_site_fract_y
 _atom_site_fract_z
 _atom_site_occupancy
  Li  Li0  1  0.00655200  0.99463800  0.00196100  1
  Li  Li1  1  0.98672700  0.49313700  0.01060700  1
  Li  Li2  1  0.50200900  0.99692800  0.49962000  1
  Fe  Fe0  1  0.50451300  0.49235300  0.50603100  1
  O  O0  1  0.27376200  0.99013600  0.23810300  1
  O  O1  1  0.19171400  0.48899600  0.27936500  1
  O  O2  1  0.73639400  0.99364900  0.77329900  1
  O  O3  1  0.82059700  0.49738800  0.72792900  1
loop_
_geom_bond_atom_site_label_1
_geom_bond_atom_site_label_2
_geom_bond_distance
_geom_bond_site_symmetry_2
Li0 O2 2.036359 1_554
Li0 O0 2.039877 1_455
Li0 O1 2.067754 1_564
Li0 O3 2.074803 1_455
Li0 O3 2.093108 1_464
Li0 O1 2.097684 1_555
Li1 O0 2.154248 1_654
Li1 O1 2.155636 1_555
Li1 O2 2.158278 1_545
Li1 O2 2.166682 1_554
Li1 O0 2.171445 1_645
Li1 O3 2.257433 1_654
Li2 O2 2.017264 1_455
Li2 O0 2.048393 1_655
Li2 O3 2.073759 1_564
Li2 O3 2.075953 1_555
Li2 O1 2.079654 1_565
Li2 O1 2.106898 1_556
Fe0 O3 1.857161 1_455
Fe0 O1 1.857956 1_655
Fe0 O0 1.988136 1_555
Fe0 O0 1.991950 1_546
Fe0 O2 1.997396 1_554
Fe0 O2 1.997511 1_545
