# generated using pymatgen
data_Sr2LaCl7
_symmetry_space_group_name_H-M   'P 1'
_cell_length_a   13.35307400
_cell_length_b   7.20691000
_cell_length_c   12.51469174
_cell_angle_alpha   88.74568880
_cell_angle_beta   90.00000000
_cell_angle_gamma   90.00000000
_symmetry_Int_Tables_number   1
_chemical_formula_structural   Sr2LaCl7
_chemical_formula_sum   'Sr8 La4 Cl28'
_cell_volume   1204.05530064
_cell_formula_units_Z   4
loop_
 _symmetry_equiv_pos_site_id
 _symmetry_equiv_pos_as_xyz
  1  'x, y, z'
loop_
 _atom_site_type_symbol
 _atom_site_label
 _atom_site_symmetry_multiplicity
 _atom_site_fract_x
 _atom_site_fract_y
 _atom_site_fract_z
 _atom_site_occupancy
  Sr  Sr0  1  0.54951200  0.30203300  0.22276800  1
  Sr  Sr1  1  0.85754800  0.20827300  0.22110800  1
  Sr  Sr2  1  0.35754800  0.79172700  0.27889200  1
  Sr  Sr3  1  0.04951200  0.69796700  0.27723200  1
  Sr  Sr4  1  0.95048800  0.30203300  0.72276800  1
  Sr  Sr5  1  0.64245200  0.20827300  0.72110800  1
  Sr  Sr6  1  0.14245200  0.79172700  0.77889200  1
  Sr  Sr7  1  0.45048800  0.69796700  0.77723200  1
  La  La0  1  0.23905700  0.21001000  0.02935400  1
  La  La1  1  0.73905700  0.78999000  0.47064600  1
  La  La2  1  0.26094300  0.21001000  0.52935400  1
  La  La3  1  0.76094300  0.78999000  0.97064600  1
  Cl  Cl0  1  0.18770900  0.84665400  0.10709500  1
  Cl  Cl1  1  0.41917500  0.04234100  0.11028600  1
  Cl  Cl2  1  0.38120900  0.49688400  0.11851000  1
  Cl  Cl3  1  0.92423000  0.87062200  0.10827100  1
  Cl  Cl4  1  0.06065100  0.35602000  0.14377500  1
  Cl  Cl5  1  0.68276400  0.00426400  0.13941100  1
  Cl  Cl6  1  0.73046100  0.51005700  0.13575400  1
  Cl  Cl7  1  0.23046100  0.48994300  0.36424600  1
  Cl  Cl8  1  0.18276400  0.99573600  0.36058900  1
  Cl  Cl9  1  0.56065100  0.64398000  0.35622500  1
  Cl  Cl10  1  0.42423000  0.12937800  0.39172900  1
  Cl  Cl11  1  0.88120900  0.50311600  0.38149000  1
  Cl  Cl12  1  0.91917500  0.95765900  0.38971400  1
  Cl  Cl13  1  0.68770900  0.15334600  0.39290500  1
  Cl  Cl14  1  0.31229100  0.84665400  0.60709500  1
  Cl  Cl15  1  0.08082500  0.04234100  0.61028600  1
  Cl  Cl16  1  0.11879100  0.49688400  0.61851000  1
  Cl  Cl17  1  0.57577000  0.87062200  0.60827100  1
  Cl  Cl18  1  0.43934900  0.35602000  0.64377500  1
  Cl  Cl19  1  0.81723600  0.00426400  0.63941100  1
  Cl  Cl20  1  0.76953900  0.51005700  0.63575400  1
  Cl  Cl21  1  0.26953900  0.48994300  0.86424600  1
  Cl  Cl22  1  0.31723600  0.99573600  0.86058900  1
  Cl  Cl23  1  0.93934900  0.64398000  0.85622500  1
  Cl  Cl24  1  0.07577000  0.12937800  0.89172900  1
  Cl  Cl25  1  0.61879100  0.50311600  0.88149000  1
  Cl  Cl26  1  0.58082500  0.95765900  0.88971400  1
  Cl  Cl27  1  0.81229100  0.15334600  0.89290500  1
loop_
_geom_bond_atom_site_label_1
_geom_bond_atom_site_label_2
_geom_bond_distance
_geom_bond_site_symmetry_2
Cl0 La0 2.857023 1_565
Cl0 Sr3 2.997876 1_555
Cl0 Sr2 3.144062 1_555
Cl1 La0 2.866544 1_555
Cl1 Sr2 2.867898 1_545
Cl1 Sr0 2.937463 1_555
Cl2 Sr0 2.940204 1_555
Cl2 Sr2 2.971590 1_555
Cl2 La0 3.037005 1_555
Cl3 La3 2.846403 1_554
Cl3 Sr3 2.950050 1_655
Cl3 Sr1 2.976389 1_565
Cl4 La0 2.983107 1_555
Cl4 Sr3 3.010810 1_555
Cl4 Sr1 3.062765 1_455
Cl5 La3 2.842186 1_544
Cl5 Sr1 2.952957 1_555
Cl5 Sr0 2.992914 1_555
Cl6 La3 2.884922 1_554
Cl6 Sr1 2.940992 1_555
Cl6 Sr0 3.033170 1_555
Cl7 La2 2.884922 1_555
Cl7 Sr2 2.940992 1_555
Cl7 Sr3 3.033170 1_555
Cl8 La2 2.842186 1_565
Cl8 Sr2 2.952957 1_555
Cl8 Sr3 2.992914 1_555
Cl9 La1 2.983107 1_555
Cl9 Sr0 3.010810 1_555
Cl9 Sr2 3.062765 1_555
Cl10 La2 2.846403 1_555
Cl10 Sr0 2.950050 1_555
Cl10 Sr2 2.976389 1_545
Cl11 Sr3 2.940204 1_655
Cl11 Sr1 2.971590 1_555
Cl11 La1 3.037005 1_555
Cl12 La1 2.866544 1_555
Cl12 Sr1 2.867898 1_565
Cl12 Sr3 2.937463 1_655
Cl13 La1 2.857023 1_545
Cl13 Sr0 2.997876 1_555
Cl13 Sr1 3.144062 1_555
Cl14 La2 2.857023 1_565
Cl14 Sr7 2.997876 1_555
Cl14 Sr6 3.144062 1_555
Cl15 La2 2.866544 1_555
Cl15 Sr6 2.867898 1_545
Cl15 Sr4 2.937463 1_455
Cl16 Sr4 2.940204 1_455
Cl16 Sr6 2.971590 1_555
Cl16 La2 3.037005 1_555
Cl17 La1 2.846403 1_555
Cl17 Sr7 2.950050 1_555
Cl17 Sr5 2.976389 1_565
Cl18 La2 2.983107 1_555
Cl18 Sr7 3.010810 1_555
Cl18 Sr5 3.062765 1_555
Cl19 La1 2.842186 1_545
Cl19 Sr5 2.952957 1_555
Cl19 Sr4 2.992914 1_555
Cl20 La1 2.884922 1_555
Cl20 Sr5 2.940992 1_555
Cl20 Sr4 3.033170 1_555
Cl21 La0 2.884922 1_556
Cl21 Sr6 2.940992 1_555
Cl21 Sr7 3.033170 1_555
Cl22 La0 2.842186 1_566
Cl22 Sr6 2.952957 1_555
Cl22 Sr7 2.992914 1_555
Cl23 La3 2.983107 1_555
Cl23 Sr4 3.010810 1_555
Cl23 Sr6 3.062765 1_655
Cl24 La0 2.846403 1_556
Cl24 Sr4 2.950050 1_455
Cl24 Sr6 2.976389 1_545
Cl25 Sr7 2.940204 1_555
Cl25 Sr5 2.971590 1_555
Cl25 La3 3.037005 1_555
Cl26 La3 2.866544 1_555
Cl26 Sr5 2.867898 1_565
Cl26 Sr7 2.937463 1_555
Cl27 La3 2.857023 1_545
Cl27 Sr4 2.997876 1_555
Cl27 Sr5 3.144062 1_555
