# generated using pymatgen
data_Li4Ti2Cu3Sb3O16
_symmetry_space_group_name_H-M   'P 1'
_cell_length_a   6.12540654
_cell_length_b   6.12540654
_cell_length_c   9.71607299
_cell_angle_alpha   86.55063038
_cell_angle_beta   86.55063038
_cell_angle_gamma   58.15264727
_symmetry_Int_Tables_number   1
_chemical_formula_structural   Li4Ti2Cu3Sb3O16
_chemical_formula_sum   'Li4 Ti2 Cu3 Sb3 O16'
_cell_volume   308.93732387
_cell_formula_units_Z   1
loop_
 _symmetry_equiv_pos_site_id
 _symmetry_equiv_pos_as_xyz
  1  'x, y, z'
loop_
 _atom_site_type_symbol
 _atom_site_label
 _atom_site_symmetry_multiplicity
 _atom_site_fract_x
 _atom_site_fract_y
 _atom_site_fract_z
 _atom_site_occupancy
  Li  Li0  1  0.68001362  0.68001362  0.90887727  1
  Li  Li1  1  0.00260345  0.00260345  0.00211839  1
  Li  Li2  1  0.02592312  0.02592312  0.47427898  1
  Li  Li3  1  0.32908849  0.32908849  0.39956215  1
  Ti  Ti0  1  0.63549126  0.63549126  0.46500810  1
  Ti  Ti1  1  0.31614008  0.31614008  0.00350034  1
  Cu  Cu0  1  0.81521372  0.33102120  0.20452863  1
  Cu  Cu1  1  0.33102120  0.81521372  0.20452863  1
  Cu  Cu2  1  0.17583593  0.17583593  0.71175601  1
  Sb  Sb0  1  0.82150322  0.82150322  0.21843633  1
  Sb  Sb1  1  0.67077053  0.17427484  0.71713326  1
  Sb  Sb2  1  0.17427484  0.67077053  0.71713326  1
  O  O0  1  0.81874156  0.33214375  0.59039797  1
  O  O1  1  0.51136421  0.51136421  0.35131288  1
  O  O2  1  0.66768335  0.66768335  0.11411818  1
  O  O3  1  0.98877915  0.98877915  0.29255793  1
  O  O4  1  0.00579145  0.00579145  0.81444653  1
  O  O5  1  0.33214375  0.81874156  0.59039797  1
  O  O6  1  0.96148680  0.53052845  0.35794423  1
  O  O7  1  0.53052845  0.96148680  0.35794423  1
  O  O8  1  0.16169390  0.16169390  0.08138298  1
  O  O9  1  0.85674214  0.85674214  0.60829225  1
  O  O10  1  0.50809192  0.04663492  0.84850273  1
  O  O11  1  0.04663492  0.50809192  0.84850273  1
  O  O12  1  0.34658671  0.34658671  0.60903276  1
  O  O13  1  0.64852046  0.14050818  0.09201277  1
  O  O14  1  0.49257959  0.49257959  0.83217576  1
  O  O15  1  0.14050818  0.64852046  0.09201277  1
loop_
_geom_bond_atom_site_label_1
_geom_bond_atom_site_label_2
_geom_bond_distance
_geom_bond_site_symmetry_2
Li0 O11 1.978979 1_655
Li0 O10 1.978979 1_565
Li0 O2 1.989412 1_556
Li0 O14 2.188305 1_555
Li1 O4 1.821402 1_554
Li1 O8 1.917076 1_555
Li1 O15 2.026800 1_545
Li1 O13 2.026800 1_455
Li2 O3 1.836365 1_445
Li2 O0 1.992994 1_455
Li2 O5 1.992994 1_545
Li2 O9 2.156815 1_445
Li3 O7 1.968163 1_545
Li3 O6 1.968163 1_455
Li3 O1 1.975490 1_555
Li3 O12 2.056640 1_555
Cu0 O2 1.936960 1_555
Cu0 O3 1.948901 1_545
Cu0 O1 2.102081 1_555
Cu0 O8 2.128940 1_655
Cu0 O13 2.268215 1_555
Cu0 O6 2.460391 1_555
Cu1 O2 1.936960 1_555
Cu1 O3 1.948901 1_455
Cu1 O1 2.102081 1_555
Cu1 O8 2.128940 1_565
Cu1 O15 2.268215 1_555
Cu1 O7 2.460391 1_555
Cu2 O4 2.014980 1_555
Cu2 O12 2.021695 1_555
Cu2 O10 2.243379 1_555
Cu2 O11 2.243379 1_555
Cu2 O0 2.248537 1_455
Cu2 O5 2.248537 1_545
O0 Ti0 1.971780 1_555
O0 Sb1 1.979972 1_555
O1 Ti0 1.785697 1_555
O2 Sb0 1.992367 1_555
O3 Sb0 1.975836 1_555
O4 Sb2 2.012804 1_545
O4 Sb1 2.012804 1_455
O5 Ti0 1.971780 1_555
O5 Sb2 1.979972 1_555
O6 Ti0 1.989611 1_555
O6 Sb0 1.996394 1_555
O7 Ti0 1.989611 1_555
O7 Sb0 1.996394 1_555
O8 Ti1 1.770548 1_555
O9 Sb1 1.990828 1_565
O9 Sb2 1.990828 1_655
O10 Sb1 1.944859 1_555
O10 Ti1 2.100796 1_556
O11 Sb2 1.944859 1_555
O11 Ti1 2.100796 1_556
O12 Sb1 2.016466 1_555
O12 Sb2 2.016466 1_555
O13 Ti1 1.957038 1_555
O13 Sb0 2.032877 1_545
O14 Sb1 2.027767 1_555
O14 Sb2 2.027767 1_555
O14 Ti1 2.430369 1_556
O15 Ti1 1.957038 1_555
O15 Sb0 2.032877 1_455
