# generated using pymatgen
data_LiVOF3
_symmetry_space_group_name_H-M   'P 1'
_cell_length_a   4.71449201
_cell_length_b   5.57165900
_cell_length_c   10.28377102
_cell_angle_alpha   90.00214732
_cell_angle_beta   89.99399618
_cell_angle_gamma   89.99883616
_symmetry_Int_Tables_number   1
_chemical_formula_structural   LiVOF3
_chemical_formula_sum   'Li4 V4 O4 F12'
_cell_volume   270.12938356
_cell_formula_units_Z   4
loop_
 _symmetry_equiv_pos_site_id
 _symmetry_equiv_pos_as_xyz
  1  'x, y, z'
loop_
 _atom_site_type_symbol
 _atom_site_label
 _atom_site_symmetry_multiplicity
 _atom_site_fract_x
 _atom_site_fract_y
 _atom_site_fract_z
 _atom_site_occupancy
  Li  Li0  1  0.01018100  0.49187000  0.99697800  1
  Li  Li1  1  0.01035900  0.50797700  0.49692000  1
  Li  Li2  1  0.51036500  0.00795300  0.00307500  1
  Li  Li3  1  0.51022900  0.99183500  0.50299300  1
  V  V0  1  0.97225300  0.16722600  0.74035100  1
  V  V1  1  0.47225200  0.66722200  0.75963200  1
  V  V2  1  0.97255200  0.83283500  0.24037600  1
  V  V3  1  0.47249300  0.33286900  0.25964100  1
  O  O0  1  0.24633500  0.45552400  0.81322600  1
  O  O1  1  0.24657900  0.54454400  0.31327200  1
  O  O2  1  0.74632300  0.95555300  0.68676100  1
  O  O3  1  0.74661100  0.04452200  0.18678600  1
  F  F0  1  0.19754200  0.21327100  0.58715900  1
  F  F1  1  0.19774600  0.78673400  0.08720000  1
  F  F2  1  0.69757500  0.71323000  0.91284000  1
  F  F3  1  0.69772300  0.28677800  0.41280000  1
  F  F4  1  0.26051700  0.04457300  0.32335500  1
  F  F5  1  0.26032200  0.95543600  0.82331700  1
  F  F6  1  0.76029900  0.45546400  0.67666100  1
  F  F7  1  0.76047700  0.54459600  0.17667600  1
  F  F8  1  0.31271500  0.71436000  0.58888000  1
  F  F9  1  0.31287700  0.28566300  0.08894300  1
  F  F10  1  0.81292700  0.78563900  0.41106100  1
  F  F11  1  0.81274200  0.21432800  0.91109600  1
loop_
_geom_bond_atom_site_label_1
_geom_bond_atom_site_label_2
_geom_bond_distance
_geom_bond_site_symmetry_2
Li0 O0 2.202475 1_555
Li1 O1 2.201846 1_555
Li2 O3 2.202652 1_555
Li3 O2 2.202654 1_555
O0 V1 1.682078 1_555
O0 V0 2.193560 1_455
O1 V3 1.682045 1_555
O1 V2 2.193455 1_455
O2 V0 1.682050 1_565
O2 V1 2.193599 1_555
O3 V2 1.682136 1_545
O3 V3 2.193659 1_555
F0 V0 1.917152 1_455
F0 Li1 2.082386 1_555
F0 Li3 2.108097 1_545
F1 V2 1.916789 1_455
F1 Li0 2.083740 1_554
F1 Li2 2.107065 1_565
F2 V1 1.917515 1_555
F2 Li2 2.082359 1_566
F2 Li0 2.107628 1_655
F3 V3 1.916930 1_555
F3 Li3 2.083784 1_545
F3 Li1 2.107124 1_655
F4 V2 1.990800 1_445
F4 V3 2.002048 1_555
F4 Li3 2.210317 1_545
F5 V0 1.991254 1_465
F5 V1 2.001404 1_555
F5 Li2 2.212005 1_566
F6 V1 1.990940 1_555
F6 V0 2.001692 1_555
F6 Li1 2.211710 1_655
F7 V3 1.990679 1_555
F7 V2 2.002009 1_555
F7 Li0 2.210579 1_654
F8 V1 1.928325 1_555
F8 Li3 2.009304 1_555
F8 Li1 2.061259 1_555
F9 V3 1.928002 1_555
F9 Li2 2.010089 1_555
F9 Li0 2.061852 1_554
F10 V2 1.927764 1_555
F10 Li1 2.009857 1_655
F10 Li3 2.061492 1_555
F11 V0 1.928023 1_555
F11 Li0 2.009439 1_655
F11 Li2 2.061295 1_556
