# generated using pymatgen
data_LiCo2(CO3)3
_symmetry_space_group_name_H-M   'P 1'
_cell_length_a   7.39989200
_cell_length_b   7.54647124
_cell_length_c   7.59058769
_cell_angle_alpha   110.20907016
_cell_angle_beta   108.13941135
_cell_angle_gamma   108.21464655
_symmetry_Int_Tables_number   1
_chemical_formula_structural   LiCo2(CO3)3
_chemical_formula_sum   'Li2 Co4 C6 O18'
_cell_volume   333.44192262
_cell_formula_units_Z   2
loop_
 _symmetry_equiv_pos_site_id
 _symmetry_equiv_pos_as_xyz
  1  'x, y, z'
loop_
 _atom_site_type_symbol
 _atom_site_label
 _atom_site_symmetry_multiplicity
 _atom_site_fract_x
 _atom_site_fract_y
 _atom_site_fract_z
 _atom_site_occupancy
  Li  Li0  1  0.63940000  0.10437200  0.36177700  1
  Li  Li1  1  0.16801200  0.42750300  0.72541400  1
  Co  Co0  1  0.95834500  0.82977600  0.45624400  1
  Co  Co1  1  0.84164300  0.46663100  0.96294300  1
  Co  Co2  1  0.57086600  0.55367200  0.57495200  1
  Co  Co3  1  0.46647200  0.96377000  0.84043400  1
  C  C0  1  0.83069800  0.06621400  0.74157100  1
  C  C1  1  0.76628300  0.84477200  0.08334500  1
  C  C2  1  0.61809700  0.41466600  0.20400000  1
  C  C3  1  0.39104900  0.19381600  0.60417400  1
  C  C4  1  0.20424600  0.60482200  0.41923300  1
  C  C5  1  0.07708300  0.76060500  0.82450000  1
  O  O0  1  0.89048000  0.05301900  0.59156600  1
  O  O1  1  0.94430600  0.93008500  0.25558800  1
  O  O2  1  0.94065800  0.24046200  0.91690100  1
  O  O3  1  0.60757900  0.29790900  0.02282500  1
  O  O4  1  0.92220500  0.72518800  0.65291800  1
  O  O5  1  0.66640600  0.61451100  0.25945500  1
  O  O6  1  0.57899800  0.33424400  0.31846300  1
  O  O7  1  0.58398300  0.23568100  0.62567200  1
  O  O8  1  0.64757100  0.94171800  0.08144200  1
  O  O9  1  0.71142100  0.67320700  0.91601800  1
  O  O10  1  0.65547900  0.91027200  0.70199000  1
  O  O11  1  0.28189300  0.02355800  0.61284900  1
  O  O12  1  0.31582300  0.31961700  0.58211500  1
  O  O13  1  0.30831900  0.53752200  0.33675200  1
  O  O14  1  0.25482100  0.65804300  0.61936600  1
  O  O15  1  0.03970500  0.62549500  0.30916900  1
  O  O16  1  0.24978300  0.94363000  0.93856400  1
  O  O17  1  0.05797100  0.61222900  0.87566500  1
loop_
_geom_bond_atom_site_label_1
_geom_bond_atom_site_label_2
_geom_bond_distance
_geom_bond_site_symmetry_2
Li0 O6 2.025933 1_555
Li0 O8 2.088123 1_545
Li0 O7 2.134645 1_555
Li0 O0 2.354534 1_555
Li1 O12 1.930812 1_555
Li1 O17 2.024001 1_555
Li1 O14 2.162931 1_555
Li1 O0 2.514994 1_455
Co0 O1 1.910717 1_555
Co0 O5 1.912453 1_555
Co0 O15 1.948078 1_655
Co0 O0 1.949363 1_565
Co0 O4 1.963118 1_555
Co0 O11 2.030250 1_665
Co1 O2 2.025143 1_555
Co1 O17 2.066978 1_655
Co1 O3 2.083065 1_556
Co1 O9 2.143529 1_555
Co1 O15 2.195099 1_656
Co1 O7 2.242211 1_555
Co2 O6 2.108069 1_555
Co2 O13 2.137993 1_555
Co2 O9 2.172838 1_555
Co2 O12 2.175060 1_555
Co2 O4 2.279012 1_555
Co2 O10 2.311191 1_555
Co3 O16 1.954125 1_555
Co3 O8 1.998379 1_556
Co3 O14 2.005382 1_555
Co3 O10 2.049035 1_555
Co3 O3 2.099354 1_566
Co3 O11 2.123205 1_565
C0 O2 1.268909 1_555
C0 O10 1.309807 1_545
C0 O0 1.328506 1_555
C1 O9 1.291701 1_554
C1 O1 1.294247 1_555
C1 O8 1.307022 1_555
C2 O6 1.272001 1_555
C2 O5 1.307704 1_555
C2 O3 1.314138 1_555
C3 O12 1.273322 1_555
C3 O7 1.304638 1_555
C3 O11 1.323021 1_555
C4 O13 1.252226 1_555
C4 O14 1.318944 1_555
C4 O15 1.334256 1_555
C5 O17 1.288505 1_555
C5 O16 1.293010 1_555
C5 O4 1.311406 1_455
