# generated using pymatgen
data_Li4MnV3O12
_symmetry_space_group_name_H-M   'P 1'
_cell_length_a   4.91425111
_cell_length_b   4.92728155
_cell_length_c   8.31950200
_cell_angle_alpha   90.00000000
_cell_angle_beta   90.00000000
_cell_angle_gamma   90.73534009
_symmetry_Int_Tables_number   1
_chemical_formula_structural   Li4MnV3O12
_chemical_formula_sum   'Li4 Mn1 V3 O12'
_cell_volume   201.43098944
_cell_formula_units_Z   1
loop_
 _symmetry_equiv_pos_site_id
 _symmetry_equiv_pos_as_xyz
  1  'x, y, z'
loop_
 _atom_site_type_symbol
 _atom_site_label
 _atom_site_symmetry_multiplicity
 _atom_site_fract_x
 _atom_site_fract_y
 _atom_site_fract_z
 _atom_site_occupancy
  Li  Li0  1  0.00000000  0.00000000  0.69636400  1
  Li  Li1  1  0.00000000  0.50000000  0.81169200  1
  Li  Li2  1  0.50000000  0.00000000  0.31355000  1
  Li  Li3  1  0.50000000  0.50000000  0.18857200  1
  Mn  Mn0  1  0.00000000  0.00000000  0.09800700  1
  V  V0  1  0.00000000  0.50000000  0.40032100  1
  V  V1  1  0.50000000  0.00000000  0.89444900  1
  V  V2  1  0.50000000  0.50000000  0.58747800  1
  O  O0  1  0.14091800  0.25914500  0.26419100  1
  O  O1  1  0.17973600  0.30927400  0.59054600  1
  O  O2  1  0.17859500  0.20024000  0.93263900  1
  O  O3  1  0.32583400  0.70500700  0.43246000  1
  O  O4  1  0.33873700  0.82142000  0.09311000  1
  O  O5  1  0.36039700  0.75147500  0.76237800  1
  O  O6  1  0.63960300  0.24852500  0.76237800  1
  O  O7  1  0.66126300  0.17858100  0.09311000  1
  O  O8  1  0.67416600  0.29499300  0.43246000  1
  O  O9  1  0.82140500  0.79976000  0.93263900  1
  O  O10  1  0.82026400  0.69072600  0.59054600  1
  O  O11  1  0.85908200  0.74085500  0.26419100  1
loop_
_geom_bond_atom_site_label_1
_geom_bond_atom_site_label_2
_geom_bond_distance
_geom_bond_site_symmetry_2
Li0 O1 1.960318 1_555
Li0 O10 1.960318 1_445
Li0 O5 2.234625 1_545
Li0 O6 2.234625 1_455
Li0 O2 2.363357 1_555
Li0 O9 2.363357 1_445
Li1 O2 1.999393 1_555
Li1 O9 1.999393 1_455
Li1 O5 2.187249 1_555
Li1 O6 2.187249 1_455
Li1 O1 2.251571 1_555
Li1 O10 2.251571 1_455
Li2 O8 1.947302 1_555
Li2 O3 1.947302 1_545
Li2 O4 2.178936 1_545
Li2 O7 2.178938 1_555
Li2 O0 2.229521 1_555
Li2 O11 2.229521 1_545
Li3 O7 1.949147 1_555
Li3 O4 1.949151 1_555
Li3 O11 2.205518 1_555
Li3 O0 2.205518 1_555
Li3 O3 2.427355 1_555
Li3 O8 2.427355 1_555
Mn0 O4 1.893285 1_545
Mn0 O7 1.893287 1_455
Mn0 O2 1.901128 1_554
Mn0 O9 1.901128 1_444
Mn0 O0 1.999697 1_555
Mn0 O11 1.999697 1_445
O0 V0 1.786531 1_555
O1 V2 1.822873 1_555
O1 V0 2.046746 1_555
O2 V1 1.899766 1_555
O3 V2 1.854282 1_555
O3 V0 1.901124 1_555
O4 V1 2.028794 1_564
O5 V1 1.776487 1_565
O5 V2 2.035946 1_555
O6 V1 1.776487 1_555
O6 V2 2.035946 1_555
O7 V1 2.028796 1_554
O8 V2 1.854282 1_555
O8 V0 1.901124 1_655
O9 V1 1.899766 1_565
O10 V2 1.822873 1_555
O10 V0 2.046746 1_655
O11 V0 1.786531 1_655
