# generated using pymatgen
data_Al2Si4O11
_symmetry_space_group_name_H-M   'P 1'
_cell_length_a   5.22775200
_cell_length_b   5.23328188
_cell_length_c   9.72032147
_cell_angle_alpha   80.92939617
_cell_angle_beta   85.01722305
_cell_angle_gamma   61.25124638
_symmetry_Int_Tables_number   1
_chemical_formula_structural   Al2Si4O11
_chemical_formula_sum   'Al2 Si4 O11'
_cell_volume   230.21772109
_cell_formula_units_Z   1
loop_
 _symmetry_equiv_pos_site_id
 _symmetry_equiv_pos_as_xyz
  1  'x, y, z'
loop_
 _atom_site_type_symbol
 _atom_site_label
 _atom_site_symmetry_multiplicity
 _atom_site_fract_x
 _atom_site_fract_y
 _atom_site_fract_z
 _atom_site_occupancy
  Al  Al0  1  0.68643600  0.68690800  0.99995000  1
  Al  Al1  1  0.31356400  0.31309200  0.00005000  1
  Si  Si0  1  0.02392000  0.71497900  0.71200900  1
  Si  Si1  1  0.97608000  0.28502100  0.28799100  1
  Si  Si2  1  0.37337100  0.06601300  0.71165400  1
  Si  Si3  1  0.62662900  0.93398700  0.28834600  1
  O  O0  1  0.50000000  0.50000000  0.00000000  1
  O  O1  1  0.99522500  0.61876400  0.88034100  1
  O  O2  1  0.00477500  0.38123600  0.11965900  1
  O  O3  1  0.41698900  0.04140200  0.88044300  1
  O  O4  1  0.58301100  0.95859800  0.11955700  1
  O  O5  1  0.24128500  0.41228700  0.64642600  1
  O  O6  1  0.75871500  0.58771300  0.35357400  1
  O  O7  1  0.69727200  0.86912200  0.64625400  1
  O  O8  1  0.30272800  0.13087800  0.35374600  1
  O  O9  1  0.15283200  0.94619300  0.67873800  1
  O  O10  1  0.84716800  0.05380700  0.32126200  1
loop_
_geom_bond_atom_site_label_1
_geom_bond_atom_site_label_2
_geom_bond_distance
_geom_bond_site_symmetry_2
Al0 O0 1.680330 1_556
Al0 O1 1.826394 1_555
Al0 O4 1.827057 1_556
Al0 O3 1.966277 1_565
Al0 O2 1.967518 1_656
Al1 O0 1.680330 1_555
Al1 O2 1.826394 1_555
Al1 O3 1.827057 1_554
Al1 O4 1.966277 1_545
Al1 O1 1.967518 1_454
O1 Si0 1.650324 1_655
O2 Si1 1.650324 1_455
O3 Si2 1.652433 1_555
O4 Si3 1.652433 1_555
O5 Si0 1.633392 1_555
O5 Si2 1.634867 1_555
O6 Si1 1.633392 1_555
O6 Si3 1.634867 1_555
O7 Si2 1.635304 1_565
O7 Si0 1.636221 1_655
O8 Si3 1.635304 1_545
O8 Si1 1.636221 1_455
O9 Si0 1.626667 1_555
O9 Si2 1.627133 1_565
O10 Si1 1.626667 1_555
O10 Si3 1.627133 1_545
