# generated using pymatgen
data_Li5V3P8O29
_symmetry_space_group_name_H-M   'P 1'
_cell_length_a   9.80040600
_cell_length_b   9.80288068
_cell_length_c   13.86957748
_cell_angle_alpha   89.98685798
_cell_angle_beta   90.03395715
_cell_angle_gamma   119.96508462
_symmetry_Int_Tables_number   1
_chemical_formula_structural   Li5V3P8O29
_chemical_formula_sum   'Li10 V6 P16 O58'
_cell_volume   1154.36794730
_cell_formula_units_Z   2
loop_
 _symmetry_equiv_pos_site_id
 _symmetry_equiv_pos_as_xyz
  1  'x, y, z'
loop_
 _atom_site_type_symbol
 _atom_site_label
 _atom_site_symmetry_multiplicity
 _atom_site_fract_x
 _atom_site_fract_y
 _atom_site_fract_z
 _atom_site_occupancy
  Li  Li0  1  0.32515800  0.22844800  0.43935300  1
  Li  Li1  1  0.77046600  0.09592500  0.43888100  1
  Li  Li2  1  0.90381500  0.22681000  0.94130400  1
  Li  Li3  1  0.77195300  0.68168300  0.94069900  1
  Li  Li4  1  0.09616700  0.32323200  0.56084700  1
  Li  Li5  1  0.90383300  0.67676800  0.43915300  1
  Li  Li6  1  0.22804700  0.31831700  0.05930100  1
  Li  Li7  1  0.09618500  0.77319000  0.05869600  1
  Li  Li8  1  0.22953400  0.90407500  0.56111900  1
  Li  Li9  1  0.67484200  0.77155200  0.56064700  1
  V  V0  1  0.00121400  0.43244800  0.74869100  1
  V  V1  1  0.99878600  0.56755200  0.25130900  1
  V  V2  1  0.43439500  0.43278900  0.24808000  1
  V  V3  1  0.56560500  0.56721100  0.75192000  1
  V  V4  1  0.43356200  0.00263700  0.75618600  1
  V  V5  1  0.56643800  0.99736300  0.24381400  1
  P  P0  1  0.31441200  0.08455400  0.15624400  1
  P  P1  1  0.31956900  0.23053200  0.65847700  1
  P  P2  1  0.76649300  0.08586300  0.65692500  1
  P  P3  1  0.66964600  0.33434000  0.87436400  1
  P  P4  1  0.66496700  0.32997900  0.37358900  1
  P  P5  1  0.91192100  0.23172900  0.15823900  1
  P  P6  1  0.08844000  0.31914400  0.34207600  1
  P  P7  1  0.77000100  0.68288200  0.15659800  1
  P  P8  1  0.22999900  0.31711800  0.84340200  1
  P  P9  1  0.91156000  0.68085600  0.65792400  1
  P  P10  1  0.08807900  0.76827100  0.84176100  1
  P  P11  1  0.33503300  0.67002100  0.62641100  1
  P  P12  1  0.33035400  0.66566000  0.12563600  1
  P  P13  1  0.23350700  0.91413700  0.34307500  1
  P  P14  1  0.68043100  0.76946800  0.34152300  1
  P  P15  1  0.68558800  0.91544600  0.84375600  1
  O  O0  1  0.24484600  0.00122200  0.43454900  1
  O  O1  1  0.33623200  0.08086400  0.66083800  1
  O  O2  1  0.23838900  0.24444900  0.93465600  1
  O  O3  1  0.33634700  0.25197000  0.15753300  1
  O  O4  1  0.47688300  0.09451800  0.17596600  1
  O  O5  1  0.51884700  0.18508500  0.82666200  1
  O  O6  1  0.61592100  0.09401300  0.67694500  1
  O  O7  1  0.76674400  0.00959200  0.92965100  1
  O  O8  1  0.74493300  0.08426600  0.16422900  1
  O  O9  1  0.51148300  0.32339800  0.33376200  1
  O  O10  1  0.47864400  0.37914900  0.67493700  1
  O  O11  1  0.67111500  0.18261300  0.33040600  1
  O  O12  1  0.66431200  0.32901900  0.98112100  1
  O  O13  1  0.66790200  0.32762900  0.48120300  1
  O  O14  1  0.81413300  0.32583500  0.83298200  1
  O  O15  1  0.61898200  0.52163000  0.17699800  1
  O  O16  1  0.67266200  0.48613500  0.83391900  1
  O  O17  1  0.91497900  0.25131600  0.65748600  1
  O  O18  1  0.00122700  0.20902100  0.25011200  1
  O  O19  1  0.00018000  0.24090500  0.43262600  1
  O  O20  1  0.99874600  0.23858400  0.06812800  1
  O  O21  1  0.90073800  0.37975700  0.17549700  1
  O  O22  1  0.81257000  0.48623400  0.33410300  1
  O  O23  1  0.08237800  0.33791700  0.83850900  1
  O  O24  1  0.90272600  0.52119900  0.67540600  1
  O  O25  1  0.74543000  0.66284400  0.65935000  1
  O  O26  1  0.20850100  0.20885300  0.75023200  1
  O  O27  1  0.23859200  0.23631300  0.56761000  1
  O  O28  1  0.76140800  0.76368700  0.43239000  1
  O  O29  1  0.25457000  0.33715600  0.34065000  1
  O  O30  1  0.09727400  0.47880100  0.32459400  1
  O  O31  1  0.91762200  0.66208300  0.16149100  1
  O  O32  1  0.18743000  0.51376600  0.66589700  1
  O  O33  1  0.09926200  0.62024300  0.82450300  1
  O  O34  1  0.00125400  0.76141600  0.93187200  1
  O  O35  1  0.99982000  0.75909500  0.56737400  1
  O  O36  1  0.99877300  0.79097900  0.74988800  1
  O  O37  1  0.08502100  0.74868400  0.34251400  1
  O  O38  1  0.32733800  0.51386500  0.16608100  1
  O  O39  1  0.38101800  0.47837000  0.82300200  1
  O  O40  1  0.18586700  0.67416500  0.16701800  1
  O  O41  1  0.33568800  0.67098100  0.01887900  1
  O  O42  1  0.33209800  0.67237100  0.51879700  1
  O  O43  1  0.32888500  0.81738700  0.66959400  1
  O  O44  1  0.52135600  0.62085100  0.32506300  1
  O  O45  1  0.48851700  0.67660200  0.66623800  1
  O  O46  1  0.25506700  0.91573400  0.83577100  1
  O  O47  1  0.21090400  0.00490200  0.25326300  1
  O  O48  1  0.23325600  0.99040800  0.07034900  1
  O  O49  1  0.38407900  0.90598700  0.32305500  1
  O  O50  1  0.48115300  0.81491500  0.17333800  1
  O  O51  1  0.52311700  0.90548200  0.82403400  1
  O  O52  1  0.66365300  0.74803000  0.84246700  1
  O  O53  1  0.76161100  0.75555100  0.06534400  1
  O  O54  1  0.79149900  0.79114700  0.24976800  1
  O  O55  1  0.66376800  0.91913600  0.33916200  1
  O  O56  1  0.75515400  0.99877800  0.56545100  1
  O  O57  1  0.78909600  0.99509800  0.74673700  1
loop_
_geom_bond_atom_site_label_1
_geom_bond_atom_site_label_2
_geom_bond_distance
_geom_bond_site_symmetry_2
Li0 O0 1.958113 1_555
Li0 O27 1.989289 1_555
Li0 O29 2.054970 1_555
Li0 O9 2.156454 1_555
Li1 O56 1.966699 1_545
Li1 O19 1.974760 1_655
Li1 O55 2.049104 1_545
Li1 O11 2.181274 1_555
Li2 O7 1.872788 1_555
Li2 O20 1.965667 1_556
Li2 O23 2.092764 1_655
Li2 O14 2.195911 1_555
Li3 O53 1.896675 1_556
Li3 O34 1.980321 1_655
Li3 O52 2.023177 1_555
Li3 O16 2.225106 1_555
Li4 O27 1.967484 1_555
Li4 O19 1.984727 1_555
Li4 O17 2.049035 1_455
Li4 O32 2.177689 1_555
Li5 O28 1.967484 1_555
Li5 O35 1.984727 1_555
Li5 O37 2.049035 1_655
Li5 O22 2.177689 1_555
Li6 O2 1.896675 1_554
Li6 O20 1.980321 1_455
Li6 O3 2.023177 1_555
Li6 O38 2.225106 1_555
Li7 O48 1.872788 1_555
Li7 O34 1.965667 1_554
Li7 O31 2.092764 1_455
Li7 O40 2.195911 1_555
Li8 O0 1.966699 1_565
Li8 O35 1.974760 1_455
Li8 O1 2.049104 1_565
Li8 O43 2.181274 1_555
Li9 O56 1.958113 1_555
Li9 O28 1.989289 1_555
Li9 O25 2.054970 1_555
Li9 O45 2.156454 1_555
O0 P13 1.502099 1_545
O1 P1 1.555527 1_555
O1 V4 1.993870 1_555
O2 P8 1.474477 1_555
O3 P0 1.545158 1_555
O3 V2 1.985084 1_555
O4 P0 1.569668 1_555
O4 V5 1.842967 1_545
O5 P3 1.613027 1_555
O5 V4 1.832858 1_555
O6 P2 1.542512 1_555
O6 V4 1.899210 1_555
O7 P15 1.472998 1_545
O8 P5 1.552970 1_555
O8 V5 1.875485 1_545
O9 P4 1.572901 1_555
O9 V2 1.985089 1_555
O10 P1 1.528379 1_555
O10 V3 1.922330 1_555
O11 P4 1.592683 1_555
O11 V5 1.982710 1_545
O12 P3 1.481615 1_555
O13 P4 1.493215 1_555
O14 P3 1.568578 1_555
O14 V0 1.976978 1_655
O15 P7 1.559652 1_555
O15 V2 1.852270 1_555
O16 P3 1.576538 1_555
O16 V3 1.963951 1_555
O17 P2 1.546150 1_555
O17 V0 1.991968 1_655
O18 P6 1.612590 1_555
O18 P5 1.622482 1_455
O19 P6 1.500609 1_555
O20 P5 1.494887 1_555
O21 P5 1.527763 1_555
O21 V1 1.910648 1_555
O22 P4 1.589294 1_555
O22 V1 1.957929 1_555
O23 P8 1.560062 1_555
O23 V0 1.943695 1_555
O24 P9 1.542826 1_555
O24 V0 1.886536 1_655
O25 P9 1.547667 1_555
O25 V3 1.996219 1_555
O26 P8 1.617887 1_555
O26 P1 1.618634 1_555
O27 P1 1.505010 1_555
O28 P14 1.505010 1_555
O29 P6 1.547667 1_555
O29 V2 1.996219 1_555
O30 P6 1.542826 1_555
O30 V1 1.886536 1_455
O31 P7 1.560062 1_555
O31 V1 1.943695 1_555
O32 P11 1.589294 1_555
O32 V0 1.957929 1_555
O33 P10 1.527763 1_555
O33 V0 1.910648 1_555
O34 P10 1.494887 1_555
O35 P9 1.500609 1_555
O36 P9 1.612590 1_555
O36 P10 1.622482 1_655
O37 P13 1.546150 1_555
O37 V1 1.991968 1_455
O38 P12 1.576538 1_555
O38 V2 1.963951 1_555
O39 P8 1.559652 1_555
O39 V3 1.852270 1_555
O40 P12 1.568578 1_555
O40 V1 1.976978 1_455
O41 P12 1.481615 1_555
O42 P11 1.493215 1_555
O43 P11 1.592683 1_555
O43 V4 1.982710 1_565
O44 P14 1.528379 1_555
O44 V2 1.922330 1_555
O45 P11 1.572901 1_555
O45 V3 1.985089 1_555
O46 P10 1.552970 1_555
O46 V4 1.875485 1_565
O47 P13 1.608866 1_545
O47 P0 1.630734 1_555
O48 P0 1.472998 1_565
O49 P13 1.542512 1_555
O49 V5 1.899210 1_555
O50 P12 1.613027 1_555
O50 V5 1.832858 1_555
O51 P15 1.569668 1_555
O51 V4 1.842967 1_565
O52 P15 1.545158 1_555
O52 V3 1.985084 1_555
O53 P7 1.474477 1_555
O54 P7 1.617887 1_555
O54 P14 1.618634 1_555
O55 P14 1.555527 1_555
O55 V5 1.993870 1_555
O56 P2 1.502099 1_565
O57 P2 1.608866 1_565
O57 P15 1.630734 1_555
