# generated using pymatgen
data_Gd2(WO4)3
_symmetry_space_group_name_H-M   'P 1'
_cell_length_a   10.37139400
_cell_length_b   10.25675200
_cell_length_c   14.26736978
_cell_angle_alpha   89.60749467
_cell_angle_beta   90.00000000
_cell_angle_gamma   90.00000000
_symmetry_Int_Tables_number   1
_chemical_formula_structural   Gd2(WO4)3
_chemical_formula_sum   'Gd8 W12 O48'
_cell_volume   1517.68175923
_cell_formula_units_Z   4
loop_
 _symmetry_equiv_pos_site_id
 _symmetry_equiv_pos_as_xyz
  1  'x, y, z'
loop_
 _atom_site_type_symbol
 _atom_site_label
 _atom_site_symmetry_multiplicity
 _atom_site_fract_x
 _atom_site_fract_y
 _atom_site_fract_z
 _atom_site_occupancy
  Gd  Gd0  1  0.97061600  0.75202800  0.88141300  1
  Gd  Gd1  1  0.03372700  0.75585200  0.38192300  1
  Gd  Gd2  1  0.53372700  0.74414800  0.11807700  1
  Gd  Gd3  1  0.47061600  0.74797200  0.61858700  1
  Gd  Gd4  1  0.52938400  0.25202800  0.38141300  1
  Gd  Gd5  1  0.46627300  0.25585200  0.88192300  1
  Gd  Gd6  1  0.96627300  0.24414800  0.61807700  1
  Gd  Gd7  1  0.02938400  0.24797200  0.11858700  1
  W  W0  1  0.74875500  0.97402600  0.50006700  1
  W  W1  1  0.61958900  0.89669900  0.85669700  1
  W  W2  1  0.87990300  0.89266000  0.14268800  1
  W  W3  1  0.37990300  0.60734000  0.35731200  1
  W  W4  1  0.11958900  0.60330100  0.64330300  1
  W  W5  1  0.24875500  0.52597400  0.99993300  1
  W  W6  1  0.75124500  0.47402600  0.00006700  1
  W  W7  1  0.88041100  0.39669900  0.35669700  1
  W  W8  1  0.62009700  0.39266000  0.64268800  1
  W  W9  1  0.12009700  0.10734000  0.85731200  1
  W  W10  1  0.38041100  0.10330100  0.14330300  1
  W  W11  1  0.25124500  0.02597400  0.49993300  1
  O  O0  1  0.09893000  0.93244300  0.86778900  1
  O  O1  1  0.34287400  0.92391000  0.58002200  1
  O  O2  1  0.17638100  0.92453800  0.41197200  1
  O  O3  1  0.41013300  0.92931100  0.13720600  1
  O  O4  1  0.87256700  0.88814000  0.43558200  1
  O  O5  1  0.78931300  0.86707700  0.83379200  1
  O  O6  1  0.71198900  0.85735000  0.16762100  1
  O  O7  1  0.64271300  0.85769000  0.55677000  1
  O  O8  1  0.98094300  0.83064700  0.23652400  1
  O  O9  1  0.52256600  0.82515800  0.76442400  1
  O  O10  1  0.57811800  0.82062100  0.96748700  1
  O  O11  1  0.92597300  0.81656100  0.03384400  1
  O  O12  1  0.42597300  0.68343900  0.46615600  1
  O  O13  1  0.07811800  0.67937900  0.53251300  1
  O  O14  1  0.02256600  0.67484200  0.73557600  1
  O  O15  1  0.48094300  0.66935300  0.26347600  1
  O  O16  1  0.14271300  0.64231000  0.94323000  1
  O  O17  1  0.21198900  0.64265000  0.33237900  1
  O  O18  1  0.28931300  0.63292300  0.66620800  1
  O  O19  1  0.37256700  0.61186000  0.06441800  1
  O  O20  1  0.84287400  0.57609000  0.91997800  1
  O  O21  1  0.91013300  0.57068900  0.36279400  1
  O  O22  1  0.67638100  0.57546200  0.08802800  1
  O  O23  1  0.59893000  0.56755700  0.63221100  1
  O  O24  1  0.40107000  0.43244300  0.36778900  1
  O  O25  1  0.32361900  0.42453800  0.91197200  1
  O  O26  1  0.08986700  0.42931100  0.63720600  1
  O  O27  1  0.15712600  0.42391000  0.08002200  1
  O  O28  1  0.62743300  0.38814000  0.93558200  1
  O  O29  1  0.71068700  0.36707700  0.33379200  1
  O  O30  1  0.78801100  0.35735000  0.66762100  1
  O  O31  1  0.85728700  0.35769000  0.05677000  1
  O  O32  1  0.51905700  0.33064700  0.73652400  1
  O  O33  1  0.97743400  0.32515800  0.26442400  1
  O  O34  1  0.92188200  0.32062100  0.46748700  1
  O  O35  1  0.57402700  0.31656100  0.53384400  1
  O  O36  1  0.07402700  0.18343900  0.96615600  1
  O  O37  1  0.42188200  0.17937900  0.03251300  1
  O  O38  1  0.47743400  0.17484200  0.23557600  1
  O  O39  1  0.01905700  0.16935300  0.76347600  1
  O  O40  1  0.35728700  0.14231000  0.44323000  1
  O  O41  1  0.28801100  0.14265000  0.83237900  1
  O  O42  1  0.21068700  0.13292300  0.16620800  1
  O  O43  1  0.12743300  0.11186000  0.56441800  1
  O  O44  1  0.58986700  0.07068900  0.86279400  1
  O  O45  1  0.82361900  0.07546200  0.58802800  1
  O  O46  1  0.65712600  0.07609000  0.41997800  1
  O  O47  1  0.90107000  0.06755700  0.13221100  1
loop_
_geom_bond_atom_site_label_1
_geom_bond_atom_site_label_2
_geom_bond_distance
_geom_bond_site_symmetry_2
Gd0 O16 2.283965 1_655
Gd0 O0 2.286508 1_655
Gd0 O14 2.295425 1_655
Gd0 O20 2.302349 1_555
Gd0 O5 2.319240 1_555
Gd0 O11 2.324203 1_556
Gd1 O8 2.273721 1_455
Gd1 O4 2.288039 1_455
Gd1 O17 2.297210 1_555
Gd1 O21 2.309016 1_455
Gd1 O2 2.318714 1_555
Gd1 O13 2.328144 1_555
Gd2 O15 2.273721 1_555
Gd2 O19 2.288039 1_555
Gd2 O6 2.297210 1_555
Gd2 O3 2.309016 1_555
Gd2 O22 2.318714 1_555
Gd2 O10 2.328144 1_554
Gd3 O7 2.283965 1_555
Gd3 O23 2.286508 1_555
Gd3 O9 2.295425 1_555
Gd3 O1 2.302349 1_555
Gd3 O18 2.319240 1_555
Gd3 O12 2.324203 1_555
Gd4 O40 2.283965 1_555
Gd4 O24 2.286508 1_555
Gd4 O38 2.295425 1_555
Gd4 O46 2.302349 1_555
Gd4 O29 2.319240 1_555
Gd4 O35 2.324203 1_555
Gd5 O32 2.273721 1_555
Gd5 O28 2.288039 1_555
Gd5 O41 2.297210 1_555
Gd5 O44 2.309016 1_555
Gd5 O25 2.318714 1_555
Gd5 O37 2.328144 1_556
Gd6 O39 2.273721 1_655
Gd6 O43 2.288039 1_655
Gd6 O30 2.297210 1_555
Gd6 O26 2.309016 1_655
Gd6 O45 2.318714 1_555
Gd6 O34 2.328144 1_555
Gd7 O31 2.283965 1_455
Gd7 O47 2.286508 1_455
Gd7 O33 2.295425 1_455
Gd7 O27 2.302349 1_555
Gd7 O42 2.319240 1_555
Gd7 O36 2.324203 1_554
O0 W9 1.812416 1_565
O1 W11 1.813360 1_565
O2 W11 1.810566 1_565
O3 W10 1.813675 1_565
O4 W0 1.811764 1_555
O5 W1 1.816323 1_555
O6 W2 1.813497 1_555
O7 W0 1.809592 1_555
O8 W2 1.812018 1_555
O9 W1 1.815871 1_555
O10 W1 1.809846 1_555
O11 W2 1.807121 1_555
O12 W3 1.807121 1_555
O13 W4 1.809846 1_555
O14 W4 1.815871 1_555
O15 W3 1.812018 1_555
O16 W5 1.809592 1_555
O17 W3 1.813497 1_555
O18 W4 1.816323 1_555
O19 W5 1.811764 1_554
O20 W6 1.813360 1_556
O21 W7 1.813675 1_555
O22 W6 1.810566 1_555
O23 W8 1.812416 1_555
O24 W3 1.812416 1_555
O25 W5 1.810566 1_555
O26 W4 1.813675 1_555
O27 W5 1.813360 1_554
O28 W6 1.811764 1_556
O29 W7 1.816323 1_555
O30 W8 1.813497 1_555
O31 W6 1.809592 1_555
O32 W8 1.812018 1_555
O33 W7 1.815871 1_555
O34 W7 1.809846 1_555
O35 W8 1.807121 1_555
O36 W9 1.807121 1_555
O37 W10 1.809846 1_555
O38 W10 1.815871 1_555
O39 W9 1.812018 1_555
O40 W11 1.809592 1_555
O41 W9 1.813497 1_555
O42 W10 1.816323 1_555
O43 W11 1.811764 1_555
O44 W1 1.813675 1_545
O45 W0 1.810566 1_545
O46 W0 1.813360 1_545
O47 W2 1.812416 1_545
