# generated using pymatgen
data_Ca2CdH24(ClO2)6
_symmetry_space_group_name_H-M   'P 1'
_cell_length_a   10.25631000
_cell_length_b   8.84195500
_cell_length_c   12.74744712
_cell_angle_alpha   66.52472258
_cell_angle_beta   90.00000000
_cell_angle_gamma   90.00000000
_symmetry_Int_Tables_number   1
_chemical_formula_structural   Ca2CdH24(ClO2)6
_chemical_formula_sum   'Ca4 Cd2 H48 Cl12 O24'
_cell_volume   1060.33202344
_cell_formula_units_Z   2
loop_
 _symmetry_equiv_pos_site_id
 _symmetry_equiv_pos_as_xyz
  1  'x, y, z'
loop_
 _atom_site_type_symbol
 _atom_site_label
 _atom_site_symmetry_multiplicity
 _atom_site_fract_x
 _atom_site_fract_y
 _atom_site_fract_z
 _atom_site_occupancy
  Ca  Ca0  1  0.53905200  0.26096000  0.86704500  1
  Ca  Ca1  1  0.03905200  0.73904000  0.63295500  1
  Ca  Ca2  1  0.46094800  0.73904000  0.13295500  1
  Ca  Ca3  1  0.96094800  0.26096000  0.36704500  1
  Cd  Cd0  1  0.50000000  0.00000000  0.50000000  1
  Cd  Cd1  1  0.00000000  0.00000000  0.00000000  1
  H  H0  1  0.34873600  0.16413800  0.72466200  1
  H  H1  1  0.84873600  0.83586200  0.77533800  1
  H  H2  1  0.65126400  0.83586200  0.27533800  1
  H  H3  1  0.15126400  0.16413800  0.22466200  1
  H  H4  1  0.29940300  0.06359100  0.85167600  1
  H  H5  1  0.79940300  0.93640900  0.64832400  1
  H  H6  1  0.70059700  0.93640900  0.14832400  1
  H  H7  1  0.20059700  0.06359100  0.35167600  1
  H  H8  1  0.52649400  0.55227900  0.63284500  1
  H  H9  1  0.02649400  0.44772100  0.86715500  1
  H  H10  1  0.47350600  0.44772100  0.36715500  1
  H  H11  1  0.97350600  0.55227900  0.13284500  1
  H  H12  1  0.47299000  0.40298800  0.61045600  1
  H  H13  1  0.97299000  0.59701200  0.88954400  1
  H  H14  1  0.52701000  0.59701200  0.38954400  1
  H  H15  1  0.02701000  0.40298800  0.11045600  1
  H  H16  1  0.40191100  0.57221500  0.88011900  1
  H  H17  1  0.90191100  0.42778500  0.61988100  1
  H  H18  1  0.59808900  0.42778500  0.11988100  1
  H  H19  1  0.09808900  0.57221500  0.38011900  1
  H  H20  1  0.30678500  0.41965200  0.92697800  1
  H  H21  1  0.80678500  0.58034800  0.57302200  1
  H  H22  1  0.69321500  0.58034800  0.07302200  1
  H  H23  1  0.19321500  0.41965200  0.42697800  1
  H  H24  1  0.68401900  0.19399600  0.66998400  1
  H  H25  1  0.18401900  0.80600400  0.83001600  1
  H  H26  1  0.31598100  0.80600400  0.33001600  1
  H  H27  1  0.81598100  0.19399600  0.16998400  1
  H  H28  1  0.78702200  0.18172700  0.76271400  1
  H  H29  1  0.28702200  0.81827300  0.73728600  1
  H  H30  1  0.21297800  0.81827300  0.23728600  1
  H  H31  1  0.71297800  0.18172700  0.26271400  1
  H  H32  1  0.65236900  0.61262000  0.79673100  1
  H  H33  1  0.15236900  0.38738000  0.70326900  1
  H  H34  1  0.34763100  0.38738000  0.20326900  1
  H  H35  1  0.84763100  0.61262000  0.29673100  1
  H  H36  1  0.77548300  0.49725900  0.83346700  1
  H  H37  1  0.27548300  0.50274100  0.66653300  1
  H  H38  1  0.22451700  0.50274100  0.16653300  1
  H  H39  1  0.72451700  0.49725900  0.33346700  1
  H  H40  1  0.46592500  0.10475600  0.12514300  1
  H  H41  1  0.96592500  0.89524400  0.37485700  1
  H  H42  1  0.53407500  0.89524400  0.87485700  1
  H  H43  1  0.03407500  0.10475600  0.62514300  1
  H  H44  1  0.34212400  0.11129700  0.05348400  1
  H  H45  1  0.84212400  0.88870300  0.44651600  1
  H  H46  1  0.65787600  0.88870300  0.94651600  1
  H  H47  1  0.15787600  0.11129700  0.55348400  1
  Cl  Cl0  1  0.50130200  0.83130800  0.72813300  1
  Cl  Cl1  1  0.00130200  0.16869200  0.77186700  1
  Cl  Cl2  1  0.49869800  0.16869200  0.27186700  1
  Cl  Cl3  1  0.99869800  0.83130800  0.22813300  1
  Cl  Cl4  1  0.63983800  0.76063600  0.47201600  1
  Cl  Cl5  1  0.13983800  0.23936400  0.02798400  1
  Cl  Cl6  1  0.36016200  0.23936400  0.52798400  1
  Cl  Cl7  1  0.86016200  0.76063600  0.97201600  1
  Cl  Cl8  1  0.71981800  0.15533700  0.51404600  1
  Cl  Cl9  1  0.21981800  0.84466300  0.98595400  1
  Cl  Cl10  1  0.28018200  0.84466300  0.48595400  1
  Cl  Cl11  1  0.78018200  0.15533700  0.01404600  1
  O  O0  1  0.35341200  0.15847400  0.80307400  1
  O  O1  1  0.85341200  0.84152600  0.69692600  1
  O  O2  1  0.64658800  0.84152600  0.19692600  1
  O  O3  1  0.14658800  0.15847400  0.30307400  1
  O  O4  1  0.47345500  0.45161700  0.66760400  1
  O  O5  1  0.97345500  0.54838300  0.83239600  1
  O  O6  1  0.52654500  0.54838300  0.33239600  1
  O  O7  1  0.02654500  0.45161700  0.16760400  1
  O  O8  1  0.39881800  0.45225800  0.90779100  1
  O  O9  1  0.89881800  0.54774200  0.59220900  1
  O  O10  1  0.60118200  0.54774200  0.09220900  1
  O  O11  1  0.10118200  0.45225800  0.40779100  1
  O  O12  1  0.69345900  0.20167500  0.74485900  1
  O  O13  1  0.19345900  0.79832500  0.75514100  1
  O  O14  1  0.30654100  0.79832500  0.25514100  1
  O  O15  1  0.80654100  0.20167500  0.24485900  1
  O  O16  1  0.68016200  0.49730800  0.82499900  1
  O  O17  1  0.18016200  0.50269200  0.67500100  1
  O  O18  1  0.31983800  0.50269200  0.17500100  1
  O  O19  1  0.81983800  0.49730800  0.32499900  1
  O  O20  1  0.43678400  0.09104300  0.05527900  1
  O  O21  1  0.93678400  0.90895700  0.44472100  1
  O  O22  1  0.56321600  0.90895700  0.94472100  1
  O  O23  1  0.06321600  0.09104300  0.55527900  1
loop_
_geom_bond_atom_site_label_1
_geom_bond_atom_site_label_2
_geom_bond_distance
_geom_bond_site_symmetry_2
Ca0 O0 2.387471 1_555
Ca0 O16 2.420053 1_555
Ca0 O12 2.420577 1_555
Ca0 O8 2.428866 1_555
Ca0 O20 2.498571 1_556
Ca0 O4 2.518636 1_555
Ca0 O22 2.876381 1_545
Ca0 Cl11 3.017551 1_556
Ca1 O1 2.387471 1_455
Ca1 O17 2.420053 1_555
Ca1 O13 2.420577 1_555
Ca1 O9 2.428866 1_455
Ca1 O21 2.498571 1_455
Ca1 O5 2.518636 1_455
Ca1 O23 2.876381 1_565
Ca1 Cl10 3.017551 1_555
Ca2 O2 2.387471 1_555
Ca2 O18 2.420053 1_555
Ca2 O14 2.420577 1_555
Ca2 O10 2.428866 1_555
Ca2 O22 2.498571 1_554
Ca2 O6 2.518636 1_555
Ca2 O20 2.876381 1_565
Ca2 Cl9 3.017551 1_554
Ca3 O3 2.387471 1_655
Ca3 O19 2.420053 1_555
Ca3 O15 2.420577 1_555
Ca3 O11 2.428866 1_655
Ca3 O23 2.498571 1_655
Ca3 O7 2.518636 1_655
Ca3 O21 2.876381 1_545
Ca3 Cl8 3.017551 1_555
Cd0 Cl8 2.682780 1_555
Cd0 Cl10 2.682780 1_545
Cd0 Cl0 2.688167 1_545
Cd0 Cl2 2.688167 1_555
Cd0 Cl4 2.695383 1_545
Cd0 Cl6 2.695383 1_555
Cd1 Cl9 2.682780 1_544
Cd1 Cl11 2.682780 1_455
Cd1 Cl1 2.688167 1_554
Cd1 Cl3 2.688167 1_445
Cd1 Cl5 2.695383 1_555
Cd1 Cl7 2.695383 1_444
H0 O0 0.981851 1_555
H1 O1 0.981851 1_555
H2 O2 0.981851 1_555
H3 O3 0.981851 1_555
H4 O0 0.990161 1_555
H5 O1 0.990161 1_555
H6 O2 0.990161 1_555
H7 O3 0.990161 1_555
H8 O4 0.985006 1_555
H9 O5 0.985006 1_455
H10 O6 0.985006 1_555
H11 O7 0.985006 1_655
H12 O4 0.982424 1_555
H13 O5 0.982424 1_555
H14 O6 0.982424 1_555
H15 O7 0.982424 1_555
H16 O8 0.975880 1_555
H17 O9 0.975880 1_555
H18 O10 0.975880 1_555
H19 O11 0.975880 1_555
H20 O8 0.988809 1_555
H21 O9 0.988809 1_555
H22 O10 0.988809 1_555
H23 O11 0.988809 1_555
H24 O12 0.988240 1_555
H25 O13 0.988240 1_555
H26 O14 0.988240 1_555
H27 O15 0.988240 1_555
H28 O12 0.985791 1_555
H29 O13 0.985791 1_555
H30 O14 0.985791 1_555
H31 O15 0.985791 1_555
H32 O16 0.978746 1_555
H33 O17 0.978746 1_555
H34 O18 0.978746 1_555
H35 O19 0.978746 1_555
H36 O16 0.983564 1_555
H37 O17 0.983564 1_555
H38 O18 0.983564 1_555
H39 O19 0.983564 1_555
H40 O20 0.991568 1_555
H41 O21 0.991568 1_555
H42 O22 0.991568 1_555
H43 O23 0.991568 1_555
H44 O20 0.985852 1_555
H45 O21 0.985852 1_555
H46 O22 0.985852 1_555
H47 O23 0.985852 1_555
