# generated using pymatgen
data_YH8C2S2NO9
_symmetry_space_group_name_H-M   'P 1'
_cell_length_a   19.62356200
_cell_length_b   5.59424800
_cell_length_c   10.84105241
_cell_angle_alpha   59.14463606
_cell_angle_beta   90.00000000
_cell_angle_gamma   90.00000000
_symmetry_Int_Tables_number   1
_chemical_formula_structural   YH8C2S2NO9
_chemical_formula_sum   'Y4 H32 C8 S8 N4 O36'
_cell_volume   1021.67661239
_cell_formula_units_Z   4
loop_
 _symmetry_equiv_pos_site_id
 _symmetry_equiv_pos_as_xyz
  1  'x, y, z'
loop_
 _atom_site_type_symbol
 _atom_site_label
 _atom_site_symmetry_multiplicity
 _atom_site_fract_x
 _atom_site_fract_y
 _atom_site_fract_z
 _atom_site_occupancy
  Y  Y0  1  0.51010100  0.42231900  0.34041900  1
  Y  Y1  1  0.98989900  0.42231900  0.84041900  1
  Y  Y2  1  0.48989900  0.57768100  0.65958100  1
  Y  Y3  1  0.01010100  0.57768100  0.15958100  1
  H  H0  1  0.69547600  0.35194400  0.38583800  1
  H  H1  1  0.80452400  0.35194400  0.88583800  1
  H  H2  1  0.30452400  0.64805600  0.61416200  1
  H  H3  1  0.19547600  0.64805600  0.11416200  1
  H  H4  1  0.73497600  0.13908600  0.34897700  1
  H  H5  1  0.76502400  0.13908600  0.84897700  1
  H  H6  1  0.26502400  0.86091400  0.65102300  1
  H  H7  1  0.23497600  0.86091400  0.15102300  1
  H  H8  1  0.79498100  0.56095800  0.14538300  1
  H  H9  1  0.70501900  0.56095800  0.64538300  1
  H  H10  1  0.20501900  0.43904200  0.85461700  1
  H  H11  1  0.29498100  0.43904200  0.35461700  1
  H  H12  1  0.78602100  0.20085200  0.54217600  1
  H  H13  1  0.71397900  0.20085200  0.04217600  1
  H  H14  1  0.21397900  0.79914800  0.45782400  1
  H  H15  1  0.28602100  0.79914800  0.95782400  1
  H  H16  1  0.80947400  0.54471600  0.39859500  1
  H  H17  1  0.69052600  0.54471600  0.89859500  1
  H  H18  1  0.19052600  0.45528400  0.60140500  1
  H  H19  1  0.30947400  0.45528400  0.10140500  1
  H  H20  1  0.84367800  0.24452200  0.40239000  1
  H  H21  1  0.65632200  0.24452200  0.90239000  1
  H  H22  1  0.15632200  0.75547800  0.59761000  1
  H  H23  1  0.34367800  0.75547800  0.09761000  1
  H  H24  1  0.70633000  0.50596500  0.12702300  1
  H  H25  1  0.79367000  0.50596500  0.62702300  1
  H  H26  1  0.29367000  0.49403500  0.87297700  1
  H  H27  1  0.20633000  0.49403500  0.37297700  1
  H  H28  1  0.73122300  0.75133000  0.17810200  1
  H  H29  1  0.76877700  0.75133000  0.67810200  1
  H  H30  1  0.26877700  0.24867000  0.82189800  1
  H  H31  1  0.23122300  0.24867000  0.32189800  1
  C  C0  1  0.74360500  0.55354800  0.18634300  1
  C  C1  1  0.75639500  0.55354800  0.68634300  1
  C  C2  1  0.25639500  0.44645200  0.81365700  1
  C  C3  1  0.24360500  0.44645200  0.31365700  1
  C  C4  1  0.79930500  0.32936000  0.42817700  1
  C  C5  1  0.70069500  0.32936000  0.92817700  1
  C  C6  1  0.20069500  0.67064000  0.57182300  1
  C  C7  1  0.29930500  0.67064000  0.07182300  1
  S  S0  1  0.39696000  0.93105500  0.33164100  1
  S  S1  1  0.10304000  0.93105500  0.83164100  1
  S  S2  1  0.60304000  0.06894500  0.66835900  1
  S  S3  1  0.89696000  0.06894500  0.16835900  1
  S  S4  1  0.59812700  0.91303200  0.32634200  1
  S  S5  1  0.90187300  0.91303200  0.82634200  1
  S  S6  1  0.40187300  0.08696800  0.67365800  1
  S  S7  1  0.09812700  0.08696800  0.17365800  1
  N  N0  1  0.74007300  0.33073800  0.34137100  1
  N  N1  1  0.75992700  0.33073800  0.84137100  1
  N  N2  1  0.25992700  0.66926200  0.65862900  1
  N  N3  1  0.24007300  0.66926200  0.15862900  1
  O  O0  1  0.32580700  0.97418100  0.28824300  1
  O  O1  1  0.17419300  0.97418100  0.78824300  1
  O  O2  1  0.67419300  0.02581900  0.71175700  1
  O  O3  1  0.82580700  0.02581900  0.21175700  1
  O  O4  1  0.43173800  0.76554400  0.27625200  1
  O  O5  1  0.06826200  0.76554400  0.77625200  1
  O  O6  1  0.56826200  0.23445600  0.72374800  1
  O  O7  1  0.93173800  0.23445600  0.22374800  1
  O  O8  1  0.43337900  0.20397000  0.27435200  1
  O  O9  1  0.06662100  0.20397000  0.77435200  1
  O  O10  1  0.56662100  0.79603000  0.72564800  1
  O  O11  1  0.93337900  0.79603000  0.22564800  1
  O  O12  1  0.40298000  0.77429400  0.49369500  1
  O  O13  1  0.09702000  0.77429400  0.99369500  1
  O  O14  1  0.59702000  0.22570600  0.50630500  1
  O  O15  1  0.90298000  0.22570600  0.00630500  1
  O  O16  1  0.58763900  0.78527500  0.23546700  1
  O  O17  1  0.91236100  0.78527500  0.73546700  1
  O  O18  1  0.41236100  0.21472500  0.76453300  1
  O  O19  1  0.08763900  0.21472500  0.26453300  1
  O  O20  1  0.58086100  0.21560600  0.24333300  1
  O  O21  1  0.91913900  0.21560600  0.74333300  1
  O  O22  1  0.41913900  0.78439400  0.75666700  1
  O  O23  1  0.08086100  0.78439400  0.25666700  1
  O  O24  1  0.54585600  0.76959300  0.44695800  1
  O  O25  1  0.95414400  0.76959300  0.94695800  1
  O  O26  1  0.45414400  0.23040700  0.55304200  1
  O  O27  1  0.04585600  0.23040700  0.05304200  1
  O  O28  1  0.66758500  0.86444500  0.38168600  1
  O  O29  1  0.83241500  0.86444500  0.88168600  1
  O  O30  1  0.33241500  0.13555500  0.61831400  1
  O  O31  1  0.16758500  0.13555500  0.11831400  1
  O  O32  1  0.49967200  0.87758900  0.01649100  1
  O  O33  1  0.00032800  0.87758900  0.51649100  1
  O  O34  1  0.50032800  0.12241100  0.98350900  1
  O  O35  1  0.99967200  0.12241100  0.48350900  1
loop_
_geom_bond_atom_site_label_1
_geom_bond_atom_site_label_2
_geom_bond_distance
_geom_bond_site_symmetry_2
H0 N0 1.034899 1_555
H1 N1 1.034899 1_555
H2 N2 1.034899 1_555
H3 N3 1.034899 1_555
H4 N0 1.037123 1_555
H5 N1 1.037123 1_555
H6 N2 1.037123 1_555
H7 N3 1.037123 1_555
C0 H28 1.090797 1_555
C0 H24 1.093189 1_555
C0 H8 1.093821 1_555
C0 N0 1.494753 1_555
C1 H29 1.090797 1_555
C1 H25 1.093189 1_555
C1 H9 1.093821 1_555
C1 N1 1.494753 1_555
C2 H30 1.090797 1_555
C2 H26 1.093189 1_555
C2 H10 1.093821 1_555
C2 N2 1.494753 1_555
C3 H31 1.090797 1_555
C3 H27 1.093189 1_555
C3 H11 1.093821 1_555
C3 N3 1.494753 1_555
C4 H20 1.094401 1_555
C4 H16 1.094437 1_555
C4 H12 1.095812 1_555
C4 N0 1.493074 1_555
C5 H21 1.094401 1_555
C5 H17 1.094437 1_555
C5 H13 1.095812 1_556
C5 N1 1.493074 1_555
C6 H22 1.094401 1_555
C6 H18 1.094437 1_555
C6 H14 1.095812 1_555
C6 N2 1.493074 1_555
C7 H23 1.094401 1_555
C7 H19 1.094437 1_555
C7 H15 1.095812 1_554
C7 N3 1.493074 1_555
O0 S0 1.453517 1_555
O1 S1 1.453517 1_555
O2 S2 1.453517 1_555
O3 S3 1.453517 1_555
O4 S0 1.501313 1_555
O4 Y0 2.272725 1_555
O5 S1 1.501313 1_555
O5 Y1 2.272725 1_455
O6 S2 1.501313 1_555
O6 Y2 2.272725 1_555
O7 S3 1.501313 1_555
O7 Y3 2.272725 1_655
O8 S0 1.501608 1_545
O8 Y0 2.273580 1_555
O9 S1 1.501608 1_545
O9 Y1 2.273580 1_455
O10 S2 1.501608 1_565
O10 Y2 2.273580 1_555
O11 S3 1.501608 1_565
O11 Y3 2.273580 1_655
O12 S0 1.512993 1_555
O12 Y2 2.307436 1_555
O13 S1 1.512993 1_555
O13 Y3 2.307436 1_556
O14 S2 1.512993 1_555
O14 Y0 2.307436 1_555
O15 S3 1.512993 1_555
O15 Y1 2.307436 1_554
O16 S4 1.498660 1_555
O16 Y0 2.315776 1_555
O17 S5 1.498660 1_555
O17 Y1 2.315776 1_555
O18 S6 1.498660 1_555
O18 Y2 2.315776 1_555
O19 S7 1.498660 1_555
O19 Y3 2.315776 1_555
O20 S4 1.492418 1_545
O20 Y0 2.370998 1_555
O21 S5 1.492418 1_545
O21 Y1 2.370998 1_555
O22 S6 1.492418 1_565
O22 Y2 2.370998 1_555
O23 S7 1.492418 1_565
O23 Y3 2.370998 1_555
O24 S4 1.526302 1_555
O24 Y2 2.265668 1_555
O25 S5 1.526302 1_555
O25 Y3 2.265668 1_656
O26 S6 1.526302 1_555
O26 Y0 2.265668 1_555
O27 S7 1.526302 1_555
O27 Y1 2.265668 1_454
O28 S4 1.457529 1_555
O29 S5 1.457529 1_555
O30 S6 1.457529 1_555
O31 S7 1.457529 1_555
O32 O34 1.225351 1_564
O33 O35 1.225351 1_465
