# generated using pymatgen
data_Li2V2OF6
_symmetry_space_group_name_H-M   'P 1'
_cell_length_a   5.32081000
_cell_length_b   6.90243744
_cell_length_c   8.46602481
_cell_angle_alpha   109.60646599
_cell_angle_beta   102.66258612
_cell_angle_gamma   85.91097375
_symmetry_Int_Tables_number   1
_chemical_formula_structural   Li2V2OF6
_chemical_formula_sum   'Li4 V4 O2 F12'
_cell_volume   285.77541525
_cell_formula_units_Z   2
loop_
 _symmetry_equiv_pos_site_id
 _symmetry_equiv_pos_as_xyz
  1  'x, y, z'
loop_
 _atom_site_type_symbol
 _atom_site_label
 _atom_site_symmetry_multiplicity
 _atom_site_fract_x
 _atom_site_fract_y
 _atom_site_fract_z
 _atom_site_occupancy
  Li  Li0  1  0.66908400  0.24457600  0.89865600  1
  Li  Li1  1  0.14109200  0.01088300  0.74455000  1
  Li  Li2  1  0.86678700  0.99204200  0.26608000  1
  Li  Li3  1  0.31561700  0.74575500  0.08561100  1
  V  V0  1  0.73022100  0.71905600  0.82367200  1
  V  V1  1  0.17551700  0.47759100  0.66781600  1
  V  V2  1  0.83584900  0.51714400  0.33184700  1
  V  V3  1  0.28674200  0.28615400  0.19661500  1
  O  O0  1  0.06223800  0.61819200  0.87715300  1
  O  O1  1  0.16886100  0.42056500  0.41073800  1
  F  F0  1  0.36521300  0.18443900  0.96366000  1
  F  F1  1  0.54967700  0.44074900  0.78269700  1
  F  F2  1  0.08256600  0.19808500  0.62313800  1
  F  F3  1  0.34945200  0.75866500  0.70771900  1
  F  F4  1  0.82548900  0.98623100  0.81734700  1
  F  F5  1  0.79921900  0.58680400  0.57855800  1
  F  F6  1  0.17137100  0.01786400  0.18206000  1
  F  F7  1  0.66511400  0.24341800  0.29778600  1
  F  F8  1  0.92031100  0.79331600  0.37172700  1
  F  F9  1  0.45299700  0.55446500  0.21994600  1
  F  F10  1  0.92660800  0.37952500  0.09656200  1
  F  F11  1  0.63997400  0.82448000  0.05606200  1
loop_
_geom_bond_atom_site_label_1
_geom_bond_atom_site_label_2
_geom_bond_distance
_geom_bond_site_symmetry_2
Li3 O0 1.946982 1_554
O0 V0 1.869774 1_455
O0 V1 1.917454 1_555
O1 V2 1.908297 1_455
O1 V3 1.956295 1_555
O1 V1 2.070337 1_555
F0 Li0 1.930919 1_555
F0 V3 1.986652 1_556
F0 Li1 2.010155 1_555
F1 Li0 1.922734 1_555
F1 V1 2.053998 1_555
F1 V0 2.098392 1_555
F2 Li1 1.875312 1_555
F2 V1 1.916791 1_555
F3 Li1 1.967006 1_565
F3 V0 2.090994 1_555
F3 V1 2.100890 1_555
F4 Li0 1.887317 1_565
F4 Li1 1.947709 1_665
F4 V0 1.967798 1_555
F5 V2 2.030469 1_555
F5 V0 2.071041 1_555
F5 V1 2.156817 1_655
F6 Li2 1.948299 1_445
F6 V3 1.948640 1_555
F6 Li3 1.955357 1_545
F7 Li2 1.944813 1_545
F7 V3 2.050040 1_555
F7 V2 2.059725 1_555
F8 Li2 1.848945 1_555
F8 V2 1.890372 1_555
F9 Li3 2.019100 1_555
F9 V3 2.040341 1_555
F9 V2 2.087203 1_555
F10 Li0 1.918472 1_554
F10 V2 2.046891 1_555
F10 V3 2.069624 1_655
F11 Li3 1.936658 1_555
F11 Li2 1.957981 1_555
F11 V0 2.008579 1_554
