# generated using pymatgen
data_Li2Co2SnO6
_symmetry_space_group_name_H-M   'P 1'
_cell_length_a   5.28227818
_cell_length_b   5.28227818
_cell_length_c   10.22101600
_cell_angle_alpha   90.00000000
_cell_angle_beta   90.00000000
_cell_angle_gamma   119.77013920
_symmetry_Int_Tables_number   1
_chemical_formula_structural   Li2Co2SnO6
_chemical_formula_sum   'Li4 Co4 Sn2 O12'
_cell_volume   247.55318080
_cell_formula_units_Z   2
loop_
 _symmetry_equiv_pos_site_id
 _symmetry_equiv_pos_as_xyz
  1  'x, y, z'
loop_
 _atom_site_type_symbol
 _atom_site_label
 _atom_site_symmetry_multiplicity
 _atom_site_fract_x
 _atom_site_fract_y
 _atom_site_fract_z
 _atom_site_occupancy
  Li  Li0  1  0.15775600  0.65775600  0.75000000  1
  Li  Li1  1  0.34224400  0.84224400  0.25000000  1
  Li  Li2  1  0.65775600  0.15775600  0.75000000  1
  Li  Li3  1  0.84224400  0.34224400  0.25000000  1
  Co  Co0  1  0.33654900  0.66345100  0.00000000  1
  Co  Co1  1  0.83654900  0.16345100  0.50000000  1
  Co  Co2  1  0.16345100  0.83654900  0.50000000  1
  Co  Co3  1  0.66345100  0.33654900  0.00000000  1
  Sn  Sn0  1  0.00000000  0.00000000  0.00000000  1
  Sn  Sn1  1  0.50000000  0.50000000  0.50000000  1
  O  O0  1  0.16018700  0.16018700  0.59710100  1
  O  O1  1  0.33981300  0.33981300  0.09710100  1
  O  O2  1  0.66018700  0.66018700  0.90289900  1
  O  O3  1  0.98098900  0.33394800  0.89125100  1
  O  O4  1  0.83981300  0.83981300  0.40289900  1
  O  O5  1  0.16605200  0.51901100  0.39125100  1
  O  O6  1  0.48098900  0.83394800  0.60874900  1
  O  O7  1  0.66605200  0.01901100  0.10874900  1
  O  O8  1  0.01901200  0.66605200  0.10874900  1
  O  O9  1  0.33394800  0.98098900  0.89125100  1
  O  O10  1  0.51901200  0.16605200  0.39125100  1
  O  O11  1  0.83394800  0.48098900  0.60874900  1
loop_
_geom_bond_atom_site_label_1
_geom_bond_atom_site_label_2
_geom_bond_distance
_geom_bond_site_symmetry_2
Li0 O6 2.070691 1_555
Li0 O9 2.070691 1_555
Li0 O3 2.072641 1_455
Li0 O11 2.072641 1_455
Li1 O8 2.070688 1_555
Li1 O5 2.070691 1_555
Li1 O7 2.072641 1_565
Li1 O10 2.072641 1_565
Li2 O3 2.070691 1_555
Li2 O11 2.070691 1_555
Li2 O9 2.072641 1_545
Li2 O6 2.072641 1_545
Li3 O10 2.070688 1_555
Li3 O7 2.070691 1_555
Li3 O5 2.072641 1_655
Li3 O8 2.072641 1_655
Co0 O2 1.984216 1_554
Co0 O1 1.984216 1_555
Co0 O8 2.017910 1_555
Co0 O9 2.017914 1_554
Co0 O7 2.132176 1_565
Co0 O3 2.132176 1_454
Co1 O4 1.984216 1_545
Co1 O0 1.984216 1_655
Co1 O10 2.017910 1_555
Co1 O11 2.017914 1_555
Co1 O6 2.132176 1_545
Co1 O5 2.132176 1_655
Co2 O4 1.984216 1_455
Co2 O0 1.984216 1_565
Co2 O6 2.017914 1_555
Co2 O5 2.017914 1_555
Co2 O11 2.132176 1_455
Co2 O10 2.132178 1_565
Co3 O2 1.984216 1_554
Co3 O1 1.984216 1_555
Co3 O7 2.017914 1_555
Co3 O3 2.017914 1_554
Co3 O9 2.132176 1_544
Co3 O8 2.132178 1_655
O0 Sn1 2.056548 1_555
O1 Sn0 2.056548 1_555
O2 Sn0 2.056548 1_666
O3 Sn0 2.129132 1_656
O4 Sn1 2.056548 1_555
O5 Sn1 2.129132 1_555
O6 Sn1 2.129132 1_555
O7 Sn0 2.129132 1_655
O8 Sn0 2.129134 1_565
O9 Sn0 2.129132 1_566
O10 Sn1 2.129134 1_555
O11 Sn1 2.129132 1_555
