# generated using pymatgen
data_Tb2TiO5
_symmetry_space_group_name_H-M   'P 1'
_cell_length_a   3.70131655
_cell_length_b   10.38924971
_cell_length_c   11.27767746
_cell_angle_alpha   90.00000000
_cell_angle_beta   90.00000000
_cell_angle_gamma   90.00000000
_symmetry_Int_Tables_number   1
_chemical_formula_structural   Tb2TiO5
_chemical_formula_sum   'Tb8 Ti4 O20'
_cell_volume   433.67070264
_cell_formula_units_Z   4
loop_
 _symmetry_equiv_pos_site_id
 _symmetry_equiv_pos_as_xyz
  1  'x, y, z'
loop_
 _atom_site_type_symbol
 _atom_site_label
 _atom_site_symmetry_multiplicity
 _atom_site_fract_x
 _atom_site_fract_y
 _atom_site_fract_z
 _atom_site_occupancy
  Tb  Tb0  1  0.25000000  0.13641183  0.94380277  1
  Tb  Tb1  1  0.25000000  0.63641183  0.55619723  1
  Tb  Tb2  1  0.75000000  0.86358817  0.05619723  1
  Tb  Tb3  1  0.75000000  0.36358817  0.44380277  1
  Tb  Tb4  1  0.75000000  0.38565323  0.77680506  1
  Tb  Tb5  1  0.75000000  0.88565323  0.72319494  1
  Tb  Tb6  1  0.25000000  0.61434677  0.22319494  1
  Tb  Tb7  1  0.25000000  0.11434677  0.27680506  1
  Ti  Ti0  1  0.25000000  0.17489482  0.61954674  1
  Ti  Ti1  1  0.25000000  0.67489482  0.88045326  1
  Ti  Ti2  1  0.75000000  0.82510518  0.38045326  1
  Ti  Ti3  1  0.75000000  0.32510518  0.11954674  1
  O  O0  1  0.25000000  0.22398279  0.45760513  1
  O  O1  1  0.25000000  0.72398279  0.04239487  1
  O  O2  1  0.75000000  0.77601721  0.54239487  1
  O  O3  1  0.75000000  0.27601721  0.95760513  1
  O  O4  1  0.25000000  0.49315556  0.39506767  1
  O  O5  1  0.25000000  0.99315556  0.10493233  1
  O  O6  1  0.75000000  0.50684444  0.60493233  1
  O  O7  1  0.75000000  0.00684444  0.89506767  1
  O  O8  1  0.25000000  0.26347076  0.11696214  1
  O  O9  1  0.25000000  0.76347076  0.38303786  1
  O  O10  1  0.75000000  0.73652924  0.88303786  1
  O  O11  1  0.75000000  0.23652924  0.61696214  1
  O  O12  1  0.25000000  0.00770385  0.65436233  1
  O  O13  1  0.25000000  0.50770385  0.84563767  1
  O  O14  1  0.75000000  0.99229615  0.34563767  1
  O  O15  1  0.75000000  0.49229615  0.15436233  1
  O  O16  1  0.25000000  0.25726401  0.77048774  1
  O  O17  1  0.25000000  0.75726401  0.72951226  1
  O  O18  1  0.75000000  0.74273599  0.22951226  1
  O  O19  1  0.75000000  0.24273599  0.27048774  1
loop_
_geom_bond_atom_site_label_1
_geom_bond_atom_site_label_2
_geom_bond_distance
_geom_bond_site_symmetry_2
O0 Ti0 1.896194 1_555
O0 Tb7 2.335582 1_555
O0 Tb3 2.356440 1_455
O0 Tb3 2.356440 1_555
O1 Ti1 1.896194 1_554
O1 Tb6 2.335582 1_555
O1 Tb2 2.356440 1_555
O1 Tb2 2.356440 1_455
O2 Ti2 1.896194 1_555
O2 Tb5 2.335582 1_555
O2 Tb1 2.356440 1_555
O2 Tb1 2.356440 1_655
O3 Ti3 1.896194 1_556
O3 Tb4 2.335582 1_555
O3 Tb0 2.356440 1_655
O3 Tb0 2.356440 1_555
O4 Tb6 2.311364 1_555
O4 Tb1 2.348874 1_555
O4 Tb3 2.353513 1_555
O4 Tb3 2.353513 1_455
O5 Tb7 2.311364 1_565
O5 Tb0 2.348874 1_564
O5 Tb2 2.353513 1_455
O5 Tb2 2.353513 1_555
O6 Tb4 2.311364 1_555
O6 Tb3 2.348874 1_555
O6 Tb1 2.353513 1_555
O6 Tb1 2.353513 1_655
O7 Tb5 2.311364 1_545
O7 Tb2 2.348874 1_546
O7 Tb0 2.353513 1_555
O7 Tb0 2.353513 1_655
O8 Ti3 1.958524 1_455
O8 Ti3 1.958524 1_555
O8 Tb0 2.357136 1_554
O8 Tb7 2.376943 1_555
O9 Ti2 1.958524 1_555
O9 Ti2 1.958524 1_455
O9 Tb1 2.357136 1_555
O9 Tb6 2.376943 1_555
O10 Ti1 1.958524 1_655
O10 Ti1 1.958524 1_555
O10 Tb2 2.357136 1_556
O10 Tb5 2.376943 1_555
O11 Ti0 1.958524 1_655
O11 Ti0 1.958524 1_555
O11 Tb3 2.357136 1_555
O11 Tb4 2.376943 1_555
O12 Ti0 1.780813 1_555
O12 Tb5 2.373899 1_445
O12 Tb5 2.373899 1_545
O13 Ti1 1.780813 1_555
O13 Tb4 2.373899 1_455
O13 Tb4 2.373899 1_555
O14 Ti2 1.780813 1_555
O14 Tb7 2.373899 1_565
O14 Tb7 2.373899 1_665
O15 Ti3 1.780813 1_555
O15 Tb6 2.373899 1_655
O15 Tb6 2.373899 1_555
O16 Ti0 1.905260 1_555
O16 Tb4 2.282370 1_455
O16 Tb4 2.282370 1_555
O16 Tb0 2.323116 1_555
O17 Ti1 1.905260 1_555
O17 Tb5 2.282370 1_555
O17 Tb5 2.282370 1_455
O17 Tb1 2.323116 1_555
O18 Ti2 1.905260 1_555
O18 Tb6 2.282370 1_555
O18 Tb6 2.282370 1_655
O18 Tb2 2.323116 1_555
O19 Ti3 1.905260 1_555
O19 Tb7 2.282370 1_555
O19 Tb7 2.282370 1_655
O19 Tb3 2.323116 1_555
