# generated using pymatgen
data_Li(CoO2)2
_symmetry_space_group_name_H-M   'P 1'
_cell_length_a   8.05609600
_cell_length_b   8.05609600
_cell_length_c   8.05609600
_cell_angle_alpha   90.00000000
_cell_angle_beta   90.00000000
_cell_angle_gamma   90.00000000
_symmetry_Int_Tables_number   1
_chemical_formula_structural   Li(CoO2)2
_chemical_formula_sum   'Li8 Co16 O32'
_cell_volume   522.84613079
_cell_formula_units_Z   8
loop_
 _symmetry_equiv_pos_site_id
 _symmetry_equiv_pos_as_xyz
  1  'x, y, z'
loop_
 _atom_site_type_symbol
 _atom_site_label
 _atom_site_symmetry_multiplicity
 _atom_site_fract_x
 _atom_site_fract_y
 _atom_site_fract_z
 _atom_site_occupancy
  Li  Li0  1  0.00266500  0.00266500  0.00266500  1
  Li  Li1  1  0.24733500  0.24733500  0.24733500  1
  Li  Li2  1  0.25266500  0.75266500  0.74733500  1
  Li  Li3  1  0.49733500  0.99733500  0.50266500  1
  Li  Li4  1  0.50266500  0.49733500  0.99733500  1
  Li  Li5  1  0.74733500  0.25266500  0.75266500  1
  Li  Li6  1  0.75266500  0.74733500  0.25266500  1
  Li  Li7  1  0.99733500  0.50266500  0.49733500  1
  Co  Co0  1  0.12241800  0.12758200  0.62500000  1
  Co  Co1  1  0.12500000  0.37758200  0.87241800  1
  Co  Co2  1  0.12500000  0.87500000  0.37500000  1
  Co  Co3  1  0.12758200  0.62500000  0.12241800  1
  Co  Co4  1  0.37241800  0.37500000  0.62241800  1
  Co  Co5  1  0.37500000  0.12500000  0.87500000  1
  Co  Co6  1  0.37500000  0.62241800  0.37241800  1
  Co  Co7  1  0.37758200  0.87241800  0.12500000  1
  Co  Co8  1  0.62241800  0.37241800  0.37500000  1
  Co  Co9  1  0.62500000  0.12241800  0.12758200  1
  Co  Co10  1  0.62500000  0.62500000  0.62500000  1
  Co  Co11  1  0.62758200  0.87500000  0.87758200  1
  Co  Co12  1  0.87241800  0.12500000  0.37758200  1
  Co  Co13  1  0.87500000  0.37500000  0.12500000  1
  Co  Co14  1  0.87500000  0.87758200  0.62758200  1
  Co  Co15  1  0.87758200  0.62758200  0.87500000  1
  O  O0  1  0.10797700  0.11101400  0.38956200  1
  O  O1  1  0.11043800  0.89202300  0.61101400  1
  O  O2  1  0.11330100  0.61330100  0.88669900  1
  O  O3  1  0.13898600  0.14202300  0.86043800  1
  O  O4  1  0.11101400  0.38956200  0.10797700  1
  O  O5  1  0.13669900  0.36330100  0.63669900  1
  O  O6  1  0.13956200  0.63898600  0.35797700  1
  O  O7  1  0.14202300  0.86043800  0.13898600  1
  O  O8  1  0.35797700  0.13956200  0.63898600  1
  O  O9  1  0.36043800  0.36101400  0.85797700  1
  O  O10  1  0.36330100  0.63669900  0.13669900  1
  O  O11  1  0.38898600  0.61043800  0.60797700  1
  O  O12  1  0.36101400  0.85797700  0.36043800  1
  O  O13  1  0.38669900  0.38669900  0.38669900  1
  O  O14  1  0.38956200  0.10797700  0.11101400  1
  O  O15  1  0.39202300  0.88898600  0.88956200  1
  O  O16  1  0.60797700  0.38898600  0.61043800  1
  O  O17  1  0.61043800  0.60797700  0.38898600  1
  O  O18  1  0.61330100  0.88669900  0.11330100  1
  O  O19  1  0.63898600  0.35797700  0.13956200  1
  O  O20  1  0.61101400  0.11043800  0.89202300  1
  O  O21  1  0.63669900  0.13669900  0.36330100  1
  O  O22  1  0.63956200  0.86101400  0.64202300  1
  O  O23  1  0.64202300  0.63956200  0.86101400  1
  O  O24  1  0.85797700  0.36043800  0.36101400  1
  O  O25  1  0.86043800  0.13898600  0.14202300  1
  O  O26  1  0.86330100  0.86330100  0.86330100  1
  O  O27  1  0.88898600  0.88956200  0.39202300  1
  O  O28  1  0.86101400  0.64202300  0.63956200  1
  O  O29  1  0.88669900  0.11330100  0.61330100  1
  O  O30  1  0.88956200  0.39202300  0.88898600  1
  O  O31  1  0.89202300  0.61101400  0.11043800  1
loop_
_geom_bond_atom_site_label_1
_geom_bond_atom_site_label_2
_geom_bond_distance
_geom_bond_site_symmetry_2
Li0 O7 1.944051 1_545
Li0 O3 1.944051 1_554
Li0 O25 1.944051 1_455
Li0 O26 1.944625 1_444
Li1 O14 1.944051 1_555
Li1 O4 1.944051 1_555
Li1 O0 1.944051 1_555
Li1 O13 1.944625 1_555
Li2 O11 1.944051 1_555
Li2 O1 1.944051 1_555
Li2 O15 1.944051 1_555
Li2 O2 1.944625 1_555
Li3 O22 1.944051 1_555
Li3 O12 1.944051 1_555
Li3 O8 1.944051 1_565
Li3 O21 1.944625 1_565
Li4 O23 1.944051 1_555
Li4 O19 1.944051 1_556
Li4 O9 1.944051 1_555
Li4 O10 1.944625 1_556
Li5 O16 1.944051 1_555
Li5 O20 1.944051 1_555
Li5 O30 1.944051 1_555
Li5 O29 1.944625 1_555
Li6 O31 1.944051 1_555
Li6 O17 1.944051 1_555
Li6 O27 1.944051 1_555
Li6 O18 1.944625 1_555
Li7 O28 1.944051 1_555
Li7 O6 1.944051 1_655
Li7 O24 1.944051 1_555
Li7 O5 1.944625 1_655
Co0 O8 1.903476 1_555
Co0 O1 1.903476 1_545
Co0 O5 1.904790 1_555
Co0 O29 1.904790 1_455
Co0 O0 1.904957 1_555
Co0 O3 1.904957 1_555
Co1 O4 1.903476 1_556
Co1 O3 1.903476 1_555
Co1 O2 1.904790 1_555
Co1 O5 1.904790 1_555
Co1 O9 1.904957 1_555
Co1 O30 1.904957 1_455
Co2 O27 1.909897 1_455
Co2 O1 1.909897 1_555
Co2 O0 1.909897 1_565
Co2 O6 1.909897 1_555
Co2 O12 1.909897 1_555
Co2 O7 1.909897 1_555
Co3 O31 1.903476 1_455
Co3 O6 1.903476 1_555
Co3 O10 1.904790 1_555
Co3 O2 1.904790 1_554
Co3 O4 1.904957 1_555
Co3 O7 1.904957 1_555
Co4 O16 1.903476 1_555
Co4 O9 1.903476 1_555
Co4 O13 1.904790 1_555
Co4 O5 1.904790 1_555
Co4 O8 1.904957 1_555
Co4 O11 1.904957 1_555
Co5 O15 1.909897 1_545
Co5 O20 1.909897 1_555
Co5 O8 1.909897 1_555
Co5 O14 1.909897 1_556
Co5 O3 1.909897 1_555
Co5 O9 1.909897 1_555
Co6 O11 1.903476 1_555
Co6 O12 1.903476 1_555
Co6 O13 1.904790 1_555
Co6 O10 1.904790 1_555
Co6 O6 1.904957 1_555
Co6 O17 1.904957 1_555
Co7 O14 1.903476 1_565
Co7 O7 1.903476 1_555
Co7 O18 1.904790 1_555
Co7 O10 1.904790 1_555
Co7 O12 1.904957 1_555
Co7 O15 1.904957 1_554
Co8 O17 1.903476 1_555
Co8 O24 1.903476 1_555
Co8 O13 1.904790 1_555
Co8 O21 1.904790 1_555
Co8 O19 1.904957 1_555
Co8 O16 1.904957 1_555
Co9 O19 1.903476 1_555
Co9 O20 1.903476 1_554
Co9 O18 1.904790 1_545
Co9 O21 1.904790 1_555
Co9 O14 1.904957 1_555
Co9 O25 1.904957 1_555
Co10 O28 1.909897 1_555
Co10 O22 1.909897 1_555
Co10 O23 1.909897 1_555
Co10 O16 1.909897 1_555
Co10 O11 1.909897 1_555
Co10 O17 1.909897 1_555
Co11 O15 1.903476 1_555
Co11 O22 1.903476 1_555
Co11 O26 1.904790 1_555
Co11 O18 1.904790 1_556
Co11 O20 1.904957 1_565
Co11 O23 1.904957 1_555
Co12 O0 1.903476 1_655
Co12 O25 1.903476 1_555
Co12 O21 1.904790 1_555
Co12 O29 1.904790 1_555
Co12 O24 1.904957 1_555
Co12 O27 1.904957 1_545
Co13 O19 1.909897 1_555
Co13 O30 1.909897 1_554
Co13 O4 1.909897 1_655
Co13 O31 1.909897 1_555
Co13 O25 1.909897 1_555
Co13 O24 1.909897 1_555
Co14 O28 1.903476 1_555
Co14 O27 1.903476 1_555
Co14 O26 1.904790 1_555
Co14 O29 1.904790 1_565
Co14 O1 1.904957 1_655
Co14 O22 1.904957 1_555
Co15 O23 1.903476 1_555
Co15 O30 1.903476 1_555
Co15 O26 1.904790 1_555
Co15 O2 1.904790 1_655
Co15 O31 1.904957 1_556
Co15 O28 1.904957 1_555
