# generated using pymatgen
data_Fe41O56
_symmetry_space_group_name_H-M   'P 1'
_cell_length_a   10.43772225
_cell_length_b   10.43772225
_cell_length_c   10.43772219
_cell_angle_alpha   99.57286097
_cell_angle_beta   99.57286097
_cell_angle_gamma   99.57286071
_symmetry_Int_Tables_number   1
_chemical_formula_structural   Fe41O56
_chemical_formula_sum   'Fe41 O56'
_cell_volume   1083.47803369
_cell_formula_units_Z   1
loop_
 _symmetry_equiv_pos_site_id
 _symmetry_equiv_pos_as_xyz
  1  'x, y, z'
loop_
 _atom_site_type_symbol
 _atom_site_label
 _atom_site_symmetry_multiplicity
 _atom_site_fract_x
 _atom_site_fract_y
 _atom_site_fract_z
 _atom_site_occupancy
  Fe  Fe0  1  0.91048800  0.04837000  0.62818900  1
  Fe  Fe1  1  0.71762800  0.14199400  0.85729900  1
  Fe  Fe2  1  0.64606800  0.85040500  0.71268800  1
  Fe  Fe3  1  0.00102400  0.28634900  0.42915900  1
  Fe  Fe4  1  0.92756100  0.99505400  0.28540700  1
  Fe  Fe5  1  0.65900600  0.79916800  0.37901800  1
  Fe  Fe6  1  0.79916800  0.37901800  0.65900600  1
  Fe  Fe7  1  0.99792700  0.78506700  0.43056500  1
  Fe  Fe8  1  0.99505400  0.28540700  0.92756100  1
  Fe  Fe9  1  0.71157900  0.14403700  0.35827700  1
  Fe  Fe10  1  0.43056500  0.99792700  0.78506700  1
  Fe  Fe11  1  0.85650800  0.21525100  0.13915500  1
  Fe  Fe12  1  0.71268800  0.64606800  0.85040500  1
  Fe  Fe13  1  0.85040500  0.71268800  0.64606800  1
  Fe  Fe14  1  0.57386400  0.07114200  0.57076500  1
  Fe  Fe15  1  0.62818900  0.91048800  0.04837000  1
  Fe  Fe16  1  0.48542700  0.34247400  0.76589600  1
  Fe  Fe17  1  0.76589600  0.48542700  0.34247400  1
  Fe  Fe18  1  0.85729900  0.71762800  0.14199400  1
  Fe  Fe19  1  0.78506700  0.43056500  0.99792700  1
  Fe  Fe20  1  0.21525100  0.13915500  0.85650800  1
  Fe  Fe21  1  0.14199400  0.85729900  0.71762800  1
  Fe  Fe22  1  0.49932500  0.28706300  0.42874900  1
  Fe  Fe23  1  0.42915900  0.00102400  0.28634900  1
  Fe  Fe24  1  0.57082700  0.57082700  0.57082700  1
  Fe  Fe25  1  0.51737400  0.23490000  0.09182900  1
  Fe  Fe26  1  0.37901800  0.65900600  0.79916800  1
  Fe  Fe27  1  0.23490000  0.09182900  0.51737400  1
  Fe  Fe28  1  0.13915500  0.85650800  0.21525100  1
  Fe  Fe29  1  0.14403700  0.35827700  0.71157900  1
  Fe  Fe30  1  0.28706300  0.42874900  0.49932500  1
  Fe  Fe31  1  0.42874900  0.49932500  0.28706300  1
  Fe  Fe32  1  0.28540700  0.92756100  0.99505400  1
  Fe  Fe33  1  0.57076500  0.57386400  0.07114200  1
  Fe  Fe34  1  0.04837000  0.62818900  0.91048800  1
  Fe  Fe35  1  0.19523200  0.19523200  0.19523200  1
  Fe  Fe36  1  0.34247400  0.76589600  0.48542700  1
  Fe  Fe37  1  0.07114200  0.57076500  0.57386400  1
  Fe  Fe38  1  0.35827700  0.71157900  0.14403700  1
  Fe  Fe39  1  0.28634900  0.42915900  0.00102400  1
  Fe  Fe40  1  0.09182900  0.51737400  0.23490000  1
  O  O0  1  0.96452900  0.88206700  0.61714700  1
  O  O1  1  0.79899600  0.79899600  0.79899600  1
  O  O2  1  0.97722000  0.39253900  0.60065200  1
  O  O3  1  0.82294100  0.31465500  0.83034000  1
  O  O4  1  0.97081500  0.88430600  0.13494000  1
  O  O5  1  0.83034000  0.82294100  0.31465500  1
  O  O6  1  0.74092400  0.02923800  0.68228700  1
  O  O7  1  0.89337000  0.10643200  0.45599600  1
  O  O8  1  0.61714700  0.96452900  0.88206700  1
  O  O9  1  0.54654800  0.17391800  0.74904900  1
  O  O10  1  0.75855000  0.04248800  0.18547800  1
  O  O11  1  0.48163600  0.89602800  0.61064700  1
  O  O12  1  0.82487700  0.31168200  0.31963000  1
  O  O13  1  0.89602800  0.61064700  0.48163600  1
  O  O14  1  0.61064700  0.48163600  0.89602800  1
  O  O15  1  0.31465500  0.83034000  0.82294100  1
  O  O16  1  0.96373600  0.38768700  0.10496800  1
  O  O17  1  0.67116100  0.23438300  0.52579500  1
  O  O18  1  0.60065200  0.97722000  0.39253900  1
  O  O19  1  0.88430600  0.13494000  0.97081500  1
  O  O20  1  0.74894300  0.55400900  0.68556200  1
  O  O21  1  0.53541600  0.17289900  0.25700000  1
  O  O22  1  0.24676000  0.03425900  0.68198600  1
  O  O23  1  0.55400900  0.68556200  0.74894300  1
  O  O24  1  0.68198600  0.24676000  0.03425900  1
  O  O25  1  0.13494000  0.97081500  0.88430600  1
  O  O26  1  0.40272700  0.10369900  0.46151700  1
  O  O27  1  0.68556200  0.74894300  0.55400900  1
  O  O28  1  0.31168200  0.31963000  0.82487700  1
  O  O29  1  0.45599600  0.89337000  0.10643200  1
  O  O30  1  0.31963000  0.82487700  0.31168200  1
  O  O31  1  0.46282100  0.39307600  0.60106900  1
  O  O32  1  0.60106900  0.46282100  0.39307600  1
  O  O33  1  0.74904900  0.54654800  0.17391800  1
  O  O34  1  0.88206700  0.61714700  0.96452900  1
  O  O35  1  0.25370000  0.02396500  0.17607000  1
  O  O36  1  0.32233800  0.32233800  0.32233800  1
  O  O37  1  0.39307500  0.60106900  0.46282100  1
  O  O38  1  0.10643200  0.45599600  0.89337000  1
  O  O39  1  0.04248800  0.18547800  0.75855000  1
  O  O40  1  0.68228700  0.74092400  0.02923800  1
  O  O41  1  0.17289900  0.25700000  0.53541600  1
  O  O42  1  0.38768700  0.10496800  0.96373600  1
  O  O43  1  0.52579500  0.67116100  0.23438300  1
  O  O44  1  0.10496800  0.96373600  0.38768700  1
  O  O45  1  0.23438300  0.52579500  0.67116100  1
  O  O46  1  0.46151700  0.40272700  0.10369900  1
  O  O47  1  0.10369900  0.46151700  0.40272700  1
  O  O48  1  0.39253900  0.60065200  0.97722000  1
  O  O49  1  0.25700000  0.53541600  0.17289900  1
  O  O50  1  0.02396500  0.17607000  0.25370000  1
  O  O51  1  0.17607000  0.25370000  0.02396500  1
  O  O52  1  0.17391800  0.74904900  0.54654800  1
  O  O53  1  0.02923800  0.68228700  0.74092400  1
  O  O54  1  0.18547800  0.75855000  0.04248800  1
  O  O55  1  0.03425900  0.68198600  0.24676000  1
loop_
_geom_bond_atom_site_label_1
_geom_bond_atom_site_label_2
_geom_bond_distance
_geom_bond_site_symmetry_2
Fe0 O0 1.904017 1_545
Fe0 O6 1.934806 1_555
Fe0 O39 1.967419 1_655
Fe0 O7 1.980148 1_555
Fe1 O19 1.954992 1_555
Fe1 O3 2.036668 1_555
Fe1 O8 2.049690 1_545
Fe1 O9 2.056308 1_555
Fe1 O6 2.075823 1_555
Fe1 O24 2.106626 1_556
Fe2 O1 1.901258 1_555
Fe2 O23 1.953082 1_555
Fe2 O27 1.955385 1_555
Fe2 O11 2.034541 1_555
Fe2 O8 2.057257 1_555
Fe2 O6 2.062037 1_565
Fe3 O2 2.018406 1_455
Fe3 O41 2.043599 1_555
Fe3 O47 2.044975 1_555
Fe3 O50 2.067042 1_555
Fe3 O12 2.078554 1_455
Fe3 O7 2.108433 1_455
Fe4 O4 1.952491 1_555
Fe4 O5 2.007326 1_555
Fe4 O10 2.072515 1_565
Fe4 O7 2.076079 1_565
Fe4 O44 2.082148 1_655
Fe4 O50 2.092427 1_665
Fe5 O27 1.971344 1_555
Fe5 O43 2.002643 1_555
Fe5 O5 2.004616 1_555
Fe5 O18 2.040247 1_555
Fe6 O20 1.971344 1_555
Fe6 O17 2.002643 1_555
Fe6 O3 2.004616 1_555
Fe6 O2 2.040247 1_555
Fe7 O5 2.089249 1_555
Fe7 O13 2.144087 1_555
Fe7 O52 2.150041 1_655
Fe7 O0 2.150976 1_555
Fe7 O55 2.161768 1_655
Fe7 O44 2.162713 1_655
Fe8 O19 1.952491 1_555
Fe8 O3 2.007326 1_555
Fe8 O39 2.072515 1_655
Fe8 O38 2.076079 1_655
Fe8 O16 2.082148 1_556
Fe8 O51 2.092427 1_656
Fe9 O17 1.988406 1_555
Fe9 O18 2.043156 1_545
Fe9 O21 2.057389 1_555
Fe9 O12 2.080454 1_555
Fe9 O10 2.109031 1_555
Fe9 O7 2.128850 1_555
Fe10 O15 2.089249 1_555
Fe10 O11 2.144087 1_555
Fe10 O9 2.150041 1_565
Fe10 O8 2.150976 1_555
Fe10 O22 2.161768 1_565
Fe10 O42 2.162713 1_565
Fe11 O19 1.906514 1_554
Fe11 O24 2.069023 1_555
Fe11 O16 2.072642 1_555
Fe11 O50 2.087355 1_655
Fe11 O12 2.087426 1_555
Fe11 O10 2.090957 1_555
Fe12 O1 1.901258 1_555
Fe12 O20 1.953082 1_555
Fe12 O23 1.955385 1_555
Fe12 O14 2.034541 1_555
Fe12 O34 2.057257 1_555
Fe12 O40 2.062037 1_556
Fe13 O1 1.901258 1_555
Fe13 O27 1.953082 1_555
Fe13 O20 1.955385 1_555
Fe13 O13 2.034541 1_555
Fe13 O0 2.057257 1_555
Fe13 O53 2.062037 1_655
Fe14 O17 2.000965 1_555
Fe14 O18 2.038983 1_545
Fe14 O11 2.059595 1_545
Fe14 O26 2.063943 1_555
Fe14 O9 2.075858 1_555
Fe14 O6 2.082010 1_555
Fe15 O8 1.904017 1_554
Fe15 O40 1.934806 1_555
Fe15 O10 1.967419 1_565
Fe15 O29 1.980148 1_555
Fe16 O31 1.871667 1_555
Fe16 O14 1.945494 1_555
Fe16 O9 1.959828 1_555
Fe16 O28 2.000243 1_555
Fe17 O32 1.871667 1_555
Fe17 O13 1.945494 1_555
Fe17 O33 1.959828 1_555
Fe17 O12 2.000243 1_555
Fe18 O4 1.954992 1_555
Fe18 O5 2.036668 1_555
Fe18 O34 2.049690 1_554
Fe18 O33 2.056308 1_555
Fe18 O40 2.075823 1_555
Fe18 O55 2.106626 1_655
Fe19 O3 2.089249 1_555
Fe19 O14 2.144087 1_555
Fe19 O33 2.150041 1_556
Fe19 O34 2.150976 1_555
Fe19 O24 2.161768 1_556
Fe19 O16 2.162713 1_556
Fe20 O25 1.906514 1_545
Fe20 O22 2.069023 1_555
Fe20 O42 2.072642 1_555
Fe20 O51 2.087355 1_556
Fe20 O28 2.087426 1_555
Fe20 O39 2.090957 1_555
Fe21 O25 1.954992 1_555
Fe21 O15 2.036668 1_555
Fe21 O0 2.049690 1_455
Fe21 O52 2.056308 1_555
Fe21 O53 2.075823 1_555
Fe21 O22 2.106626 1_565
Fe22 O31 2.076261 1_555
Fe22 O32 2.083891 1_555
Fe22 O21 2.106876 1_555
Fe22 O17 2.110523 1_555
Fe22 O36 2.112265 1_555
Fe22 O26 2.118298 1_555
Fe23 O18 2.018406 1_545
Fe23 O21 2.043599 1_555
Fe23 O26 2.044975 1_555
Fe23 O35 2.067042 1_555
Fe23 O30 2.078554 1_545
Fe23 O29 2.108433 1_545
Fe24 O23 2.087891 1_555
Fe24 O20 2.087891 1_555
Fe24 O27 2.087891 1_555
Fe24 O32 2.104806 1_555
Fe24 O31 2.104806 1_555
Fe24 O37 2.104814 1_555
Fe25 O24 1.904185 1_555
Fe25 O42 1.908805 1_554
Fe25 O46 1.927525 1_555
Fe25 O21 1.931348 1_555
Fe26 O23 1.971344 1_555
Fe26 O45 2.002643 1_555
Fe26 O15 2.004616 1_555
Fe26 O48 2.040247 1_555
Fe27 O22 1.904185 1_555
Fe27 O44 1.908805 1_545
Fe27 O26 1.927525 1_555
Fe27 O41 1.931348 1_555
Fe28 O4 1.906514 1_455
Fe28 O55 2.069023 1_555
Fe28 O44 2.072642 1_555
Fe28 O35 2.087355 1_565
Fe28 O30 2.087426 1_555
Fe28 O54 2.090957 1_555
Fe29 O45 1.988406 1_555
Fe29 O2 2.043156 1_455
Fe29 O41 2.057389 1_555
Fe29 O28 2.080454 1_555
Fe29 O39 2.109031 1_555
Fe29 O38 2.128850 1_555
Fe30 O37 2.076257 1_555
Fe30 O31 2.083891 1_555
Fe30 O41 2.106876 1_555
Fe30 O45 2.110523 1_555
Fe30 O36 2.112265 1_555
Fe30 O47 2.118298 1_555
Fe31 O32 2.076261 1_555
Fe31 O37 2.083895 1_555
Fe31 O49 2.106876 1_555
Fe31 O43 2.110523 1_555
Fe31 O36 2.112265 1_555
Fe31 O46 2.118298 1_555
Fe32 O25 1.952491 1_555
Fe32 O15 2.007326 1_555
Fe32 O54 2.072515 1_556
Fe32 O29 2.076079 1_556
Fe32 O42 2.082148 1_565
Fe32 O35 2.092427 1_566
Fe33 O43 2.000965 1_555
Fe33 O48 2.038983 1_554
Fe33 O14 2.059595 1_554
Fe33 O46 2.063943 1_555
Fe33 O33 2.075858 1_555
Fe33 O40 2.082010 1_555
Fe34 O34 1.904017 1_455
Fe34 O53 1.934806 1_555
Fe34 O54 1.967419 1_556
Fe34 O38 1.980148 1_555
Fe35 O36 1.877260 1_555
Fe35 O51 1.972971 1_555
Fe35 O35 1.972971 1_555
Fe35 O50 1.972971 1_555
Fe36 O37 1.871662 1_555
Fe36 O11 1.945494 1_555
Fe36 O52 1.959828 1_555
Fe36 O30 2.000243 1_555
Fe37 O45 2.000965 1_555
Fe37 O2 2.038983 1_455
Fe37 O13 2.059595 1_455
Fe37 O47 2.063943 1_555
Fe37 O52 2.075858 1_555
Fe37 O53 2.082010 1_555
Fe38 O43 1.988406 1_555
Fe38 O48 2.043156 1_554
Fe38 O49 2.057389 1_555
Fe38 O30 2.080454 1_555
Fe38 O54 2.109031 1_555
Fe38 O29 2.128850 1_555
Fe39 O48 2.018406 1_554
Fe39 O49 2.043599 1_555
Fe39 O46 2.044975 1_555
Fe39 O51 2.067043 1_555
Fe39 O28 2.078554 1_554
Fe39 O38 2.108433 1_554
Fe40 O55 1.904185 1_555
Fe40 O16 1.908805 1_455
Fe40 O47 1.927525 1_555
Fe40 O49 1.931348 1_555
