# generated using pymatgen
data_Li2NiBO4
_symmetry_space_group_name_H-M   'P 1'
_cell_length_a   5.11604400
_cell_length_b   6.40343400
_cell_length_c   10.54040495
_cell_angle_alpha   84.26025859
_cell_angle_beta   90.00000000
_cell_angle_gamma   90.00000000
_symmetry_Int_Tables_number   1
_chemical_formula_structural   Li2NiBO4
_chemical_formula_sum   'Li8 Ni4 B4 O16'
_cell_volume   343.57508849
_cell_formula_units_Z   4
loop_
 _symmetry_equiv_pos_site_id
 _symmetry_equiv_pos_as_xyz
  1  'x, y, z'
loop_
 _atom_site_type_symbol
 _atom_site_label
 _atom_site_symmetry_multiplicity
 _atom_site_fract_x
 _atom_site_fract_y
 _atom_site_fract_z
 _atom_site_occupancy
  Li  Li0  1  0.65083600  0.90130500  0.79327100  1
  Li  Li1  1  0.84916400  0.90130500  0.29327100  1
  Li  Li2  1  0.82899800  0.78000100  0.56952500  1
  Li  Li3  1  0.67100200  0.78000100  0.06952500  1
  Li  Li4  1  0.32899800  0.21999900  0.93047500  1
  Li  Li5  1  0.17100200  0.21999900  0.43047500  1
  Li  Li6  1  0.15083600  0.09869500  0.70672900  1
  Li  Li7  1  0.34916400  0.09869500  0.20672900  1
  Ni  Ni0  1  0.85539800  0.49882100  0.84580600  1
  Ni  Ni1  1  0.35539800  0.50117900  0.65419400  1
  Ni  Ni2  1  0.64460200  0.49882100  0.34580600  1
  Ni  Ni3  1  0.14460200  0.50117900  0.15419400  1
  B  B0  1  0.17773200  0.80542900  0.93940600  1
  B  B1  1  0.32226800  0.80542900  0.43940600  1
  B  B2  1  0.67773200  0.19457100  0.56059400  1
  B  B3  1  0.82226800  0.19457100  0.06059400  1
  O  O0  1  0.30277000  0.94813200  0.85876300  1
  O  O1  1  0.19723000  0.94813200  0.35876300  1
  O  O2  1  0.91219900  0.75294800  0.92131400  1
  O  O3  1  0.58780100  0.75294800  0.42131400  1
  O  O4  1  0.19283300  0.70836100  0.54569100  1
  O  O5  1  0.64754600  0.61809200  0.71480200  1
  O  O6  1  0.30716700  0.70836100  0.04569100  1
  O  O7  1  0.85245400  0.61809200  0.21480200  1
  O  O8  1  0.14754600  0.38190800  0.78519800  1
  O  O9  1  0.69283300  0.29163900  0.95430900  1
  O  O10  1  0.35245400  0.38190800  0.28519800  1
  O  O11  1  0.80716700  0.29163900  0.45430900  1
  O  O12  1  0.41219900  0.24705200  0.57868600  1
  O  O13  1  0.08780100  0.24705200  0.07868600  1
  O  O14  1  0.80277000  0.05186800  0.64123700  1
  O  O15  1  0.69723000  0.05186800  0.14123700  1
loop_
_geom_bond_atom_site_label_1
_geom_bond_atom_site_label_2
_geom_bond_distance
_geom_bond_site_symmetry_2
Li0 O0 1.943917 1_555
Li0 O14 1.947485 1_565
Li0 O2 2.062881 1_555
Li0 O5 2.067197 1_555
Li1 O1 1.943917 1_655
Li1 O15 1.947485 1_565
Li1 O3 2.062881 1_555
Li1 O7 2.067197 1_555
Li2 O4 1.939433 1_655
Li2 O14 1.970590 1_565
Li2 O5 1.990963 1_555
Li2 O3 2.011794 1_555
Li3 O6 1.939433 1_555
Li3 O15 1.970590 1_565
Li3 O7 1.990963 1_555
Li3 O2 2.011794 1_554
Li4 O9 1.939433 1_555
Li4 O0 1.970590 1_545
Li4 O8 1.990963 1_555
Li4 O13 2.011794 1_556
Li5 O11 1.939433 1_455
Li5 O1 1.970590 1_545
Li5 O10 1.990963 1_555
Li5 O12 2.011794 1_555
Li6 O14 1.943917 1_455
Li6 O0 1.947485 1_545
Li6 O12 2.062881 1_555
Li6 O8 2.067197 1_555
Li7 O15 1.943917 1_555
Li7 O1 1.947485 1_545
Li7 O13 2.062881 1_555
Li7 O10 2.067197 1_555
Ni0 O8 1.816093 1_655
Ni0 O5 1.846577 1_555
Ni0 O9 1.859103 1_555
Ni0 O2 1.903940 1_555
Ni1 O5 1.816093 1_555
Ni1 O8 1.846577 1_555
Ni1 O4 1.859103 1_555
Ni1 O12 1.903940 1_555
Ni2 O10 1.816093 1_555
Ni2 O7 1.846577 1_555
Ni2 O11 1.859103 1_555
Ni2 O3 1.903940 1_555
Ni3 O7 1.816093 1_455
Ni3 O10 1.846577 1_555
Ni3 O6 1.859103 1_555
Ni3 O13 1.903940 1_555
B0 O0 1.345876 1_555
B0 O6 1.393058 1_556
B0 O2 1.416892 1_455
B1 O1 1.345876 1_555
B1 O4 1.393058 1_555
B1 O3 1.416892 1_555
B2 O14 1.345876 1_555
B2 O11 1.393058 1_555
B2 O12 1.416892 1_555
B3 O15 1.345876 1_555
B3 O9 1.393058 1_554
B3 O13 1.416892 1_655
