# generated using pymatgen
data_TiNb3(PO4)6
_symmetry_space_group_name_H-M   'P 1'
_cell_length_a   8.98233768
_cell_length_b   8.98233768
_cell_length_c   8.98233718
_cell_angle_alpha   58.63905627
_cell_angle_beta   58.63905627
_cell_angle_gamma   58.63905656
_symmetry_Int_Tables_number   1
_chemical_formula_structural   TiNb3(PO4)6
_chemical_formula_sum   'Ti1 Nb3 P6 O24'
_cell_volume   496.51038086
_cell_formula_units_Z   1
loop_
 _symmetry_equiv_pos_site_id
 _symmetry_equiv_pos_as_xyz
  1  'x, y, z'
loop_
 _atom_site_type_symbol
 _atom_site_label
 _atom_site_symmetry_multiplicity
 _atom_site_fract_x
 _atom_site_fract_y
 _atom_site_fract_z
 _atom_site_occupancy
  Ti  Ti0  1  0.14154500  0.14154500  0.14154500  1
  Nb  Nb0  1  0.85893100  0.85893100  0.85893100  1
  Nb  Nb1  1  0.64149200  0.64149200  0.64149200  1
  Nb  Nb2  1  0.35933500  0.35933500  0.35933500  1
  P  P0  1  0.53002200  0.96673700  0.24937400  1
  P  P1  1  0.24937400  0.53002200  0.96673700  1
  P  P2  1  0.96673700  0.24937400  0.53002200  1
  P  P3  1  0.03558100  0.75561400  0.46051000  1
  P  P4  1  0.75561400  0.46051000  0.03558100  1
  P  P5  1  0.46051000  0.03558100  0.75561400  1
  O  O0  1  0.49536400  0.86775200  0.71936700  1
  O  O1  1  0.86775200  0.71936700  0.49536400  1
  O  O2  1  0.71019900  0.93781000  0.08069200  1
  O  O3  1  0.71936700  0.49536400  0.86775200  1
  O  O4  1  0.56232500  0.78956600  0.41933800  1
  O  O5  1  0.36364800  0.99720700  0.21864300  1
  O  O6  1  0.08069200  0.71019900  0.93781000  1
  O  O7  1  0.41933800  0.56232500  0.78956600  1
  O  O8  1  0.78956600  0.41933800  0.56232500  1
  O  O9  1  0.00434700  0.78085600  0.63332900  1
  O  O10  1  0.06377200  0.92348100  0.28617200  1
  O  O11  1  0.78085600  0.63332900  0.00434700  1
  O  O12  1  0.21864300  0.36364800  0.99720700  1
  O  O13  1  0.93781000  0.08069200  0.71019900  1
  O  O14  1  0.99720700  0.21864300  0.36364800  1
  O  O15  1  0.21095700  0.58114700  0.43666600  1
  O  O16  1  0.58114700  0.43666600  0.21095700  1
  O  O17  1  0.92348100  0.28617200  0.06377200  1
  O  O18  1  0.63332900  0.00434700  0.78085600  1
  O  O19  1  0.43666600  0.21095700  0.58114700  1
  O  O20  1  0.28121700  0.50313200  0.13387000  1
  O  O21  1  0.28617200  0.06377200  0.92348100  1
  O  O22  1  0.13387000  0.28121700  0.50313200  1
  O  O23  1  0.50313200  0.13387000  0.28121700  1
loop_
_geom_bond_atom_site_label_1
_geom_bond_atom_site_label_2
_geom_bond_distance
_geom_bond_site_symmetry_2
Nb0 O2 1.992103 1_556
Nb0 O6 1.992103 1_655
Nb0 O13 1.992103 1_565
Nb0 O9 2.018682 1_655
Nb0 O18 2.018682 1_565
Nb0 O11 2.018682 1_556
Nb1 O4 1.996643 1_555
Nb1 O8 1.996643 1_555
Nb1 O7 1.996643 1_555
Nb1 O3 2.022383 1_555
Nb1 O0 2.022383 1_555
Nb1 O1 2.022383 1_555
Nb2 O19 1.985295 1_555
Nb2 O15 1.985295 1_555
Nb2 O16 1.985295 1_555
Nb2 O20 2.018711 1_555
Nb2 O23 2.018711 1_555
Nb2 O22 2.018711 1_555
O0 P5 1.545995 1_565
O1 P3 1.545995 1_655
O2 P0 1.549908 1_555
O3 P4 1.545995 1_556
O4 P0 1.548914 1_555
O5 P0 1.519680 1_555
O5 Ti0 1.987922 1_565
O6 P1 1.549908 1_555
O7 P1 1.548914 1_555
O8 P2 1.548914 1_555
O9 P3 1.544875 1_555
O10 P3 1.522146 1_555
O10 Ti0 1.960452 1_565
O11 P4 1.544875 1_555
O12 P1 1.519680 1_555
O12 Ti0 1.987922 1_556
O13 P2 1.549908 1_555
O14 P2 1.519680 1_555
O14 Ti0 1.987922 1_655
O15 P3 1.553037 1_555
O16 P4 1.553037 1_555
O17 P4 1.522146 1_555
O17 Ti0 1.960452 1_655
O18 P5 1.544875 1_555
O19 P5 1.553037 1_555
O20 P1 1.546446 1_554
O21 P5 1.522146 1_555
O21 Ti0 1.960452 1_556
O22 P2 1.546447 1_455
O23 P0 1.546447 1_545
