# generated using pymatgen
data_Li7Co5O12
_symmetry_space_group_name_H-M   'P 1'
_cell_length_a   4.85797043
_cell_length_b   4.85797043
_cell_length_c   9.42089645
_cell_angle_alpha   85.12784206
_cell_angle_beta   85.12784206
_cell_angle_gamma   120.01590890
_symmetry_Int_Tables_number   1
_chemical_formula_structural   Li7Co5O12
_chemical_formula_sum   'Li7 Co5 O12'
_cell_volume   189.71516409
_cell_formula_units_Z   1
loop_
 _symmetry_equiv_pos_site_id
 _symmetry_equiv_pos_as_xyz
  1  'x, y, z'
loop_
 _atom_site_type_symbol
 _atom_site_label
 _atom_site_symmetry_multiplicity
 _atom_site_fract_x
 _atom_site_fract_y
 _atom_site_fract_z
 _atom_site_occupancy
  Li  Li0  1  0.75517067  0.75517067  0.75654434  1
  Li  Li1  1  0.40670813  0.08066242  0.75621271  1
  Li  Li2  1  0.59329187  0.91933758  0.24378729  1
  Li  Li3  1  0.24482933  0.24482933  0.24345566  1
  Li  Li4  1  0.91933758  0.59329187  0.24378729  1
  Li  Li5  1  0.08066242  0.40670813  0.75621271  1
  Li  Li6  1  -0.00000000  0.00000000  0.00000000  1
  Co  Co0  1  0.66647851  0.33352149  0.00000000  1
  Co  Co1  1  0.50000000  0.50000000  0.50000000  1
  Co  Co2  1  0.16688133  0.83311867  0.50000000  1
  Co  Co3  1  0.33352149  0.66647851  0.00000000  1
  Co  Co4  1  0.83311867  0.16688133  0.50000000  1
  O  O0  1  0.53591622  0.20234798  0.39191965  1
  O  O1  1  0.32104749  0.96218950  0.11248296  1
  O  O2  1  0.60123231  0.60123231  0.11348630  1
  O  O3  1  0.03781050  0.67895251  0.88751704  1
  O  O4  1  0.79765202  0.46408378  0.60808035  1
  O  O5  1  0.39876769  0.39876769  0.88651370  1
  O  O6  1  0.13047498  0.13047498  0.61006393  1
  O  O7  1  0.67895251  0.03781050  0.88751704  1
  O  O8  1  0.46408378  0.79765202  0.60808035  1
  O  O9  1  0.86952502  0.86952502  0.38993607  1
  O  O10  1  0.20234798  0.53591622  0.39191965  1
  O  O11  1  0.96218950  0.32104749  0.11248296  1
loop_
_geom_bond_atom_site_label_1
_geom_bond_atom_site_label_2
_geom_bond_distance
_geom_bond_site_symmetry_2
Li0 O5 1.943011 1_555
Li0 O3 2.064863 1_655
Li0 O7 2.064863 1_565
Li0 O6 2.090956 1_665
Li0 O4 2.139489 1_555
Li0 O8 2.139489 1_555
Li1 O7 1.957621 1_555
Li1 O3 2.065079 1_545
Li1 O5 2.066469 1_555
Li1 O6 2.082596 1_555
Li1 O8 2.135109 1_545
Li1 O4 2.143114 1_555
Li2 O1 1.957621 1_555
Li2 O11 2.065079 1_565
Li2 O2 2.066469 1_555
Li2 O9 2.082596 1_555
Li2 O0 2.135109 1_565
Li2 O10 2.143114 1_555
Li3 O2 1.943011 1_555
Li3 O1 2.064863 1_545
Li3 O11 2.064863 1_455
Li3 O9 2.090956 1_445
Li3 O0 2.139489 1_555
Li3 O10 2.139489 1_555
Li4 O11 1.957621 1_555
Li4 O1 2.065079 1_655
Li4 O2 2.066469 1_555
Li4 O9 2.082596 1_555
Li4 O10 2.135109 1_655
Li4 O0 2.143114 1_555
Li5 O3 1.957621 1_555
Li5 O7 2.065079 1_455
Li5 O5 2.066469 1_555
Li5 O6 2.082596 1_555
Li5 O4 2.135109 1_455
Li5 O8 2.143114 1_555
Li6 O3 2.030628 1_544
Li6 O7 2.030628 1_454
Li6 O1 2.030628 1_545
Li6 O11 2.030628 1_455
Li6 O2 2.047042 1_445
Li6 O5 2.047042 1_554
Co0 O11 1.877520 1_555
Co0 O7 1.877520 1_554
Co0 O2 1.877754 1_555
Co0 O5 1.877754 1_554
Co0 O3 1.880874 1_654
Co0 O1 1.880874 1_545
Co1 O0 1.905363 1_555
Co1 O10 1.905363 1_555
Co1 O8 1.905363 1_555
Co1 O4 1.905363 1_555
Co1 O9 1.914100 1_555
Co1 O6 1.914100 1_555
Co2 O10 1.902579 1_555
Co2 O8 1.902579 1_555
Co2 O0 1.905409 1_565
Co2 O4 1.905409 1_455
Co2 O9 1.916260 1_455
Co2 O6 1.916260 1_565
Co3 O1 1.877520 1_555
Co3 O3 1.877520 1_554
Co3 O2 1.877754 1_555
Co3 O5 1.877754 1_554
Co3 O7 1.880874 1_564
Co3 O11 1.880874 1_455
Co4 O0 1.902579 1_555
Co4 O4 1.902579 1_555
Co4 O10 1.905409 1_655
Co4 O8 1.905409 1_545
Co4 O9 1.916260 1_545
Co4 O6 1.916260 1_655
