# generated using pymatgen
data_La20S29O
_symmetry_space_group_name_H-M   'P 1'
_cell_length_a   15.05830768
_cell_length_b   15.05830768
_cell_length_c   15.05830768
_cell_angle_alpha   117.83968447
_cell_angle_beta   117.83968447
_cell_angle_gamma   93.78436283
_symmetry_Int_Tables_number   1
_chemical_formula_structural   La20S29O
_chemical_formula_sum   'La40 S58 O2'
_cell_volume   2487.39307681
_cell_formula_units_Z   2
loop_
 _symmetry_equiv_pos_site_id
 _symmetry_equiv_pos_as_xyz
  1  'x, y, z'
loop_
 _atom_site_type_symbol
 _atom_site_label
 _atom_site_symmetry_multiplicity
 _atom_site_fract_x
 _atom_site_fract_y
 _atom_site_fract_z
 _atom_site_occupancy
  La  La0  1  0.88834700  0.88428300  0.27602800  1
  La  La1  1  0.04600700  0.95011200  0.65390600  1
  La  La2  1  0.83515700  0.17763600  0.36681700  1
  La  La3  1  0.10894700  0.20376300  0.65441500  1
  La  La4  1  0.53165900  0.16484300  0.34247900  1
  La  La5  1  0.05072200  0.69234600  0.37647800  1
  La  La6  1  0.92763600  0.08515700  0.86681700  1
  La  La7  1  0.82236400  0.18918100  0.65752100  1
  La  La8  1  0.60789900  0.95399300  0.90410500  1
  La  La9  1  0.54934900  0.45453300  0.34558500  1
  La  La10  1  0.20065100  0.04623700  0.40518400  1
  La  La11  1  0.11571700  0.39174500  0.00406400  1
  La  La12  1  0.63428300  0.13834700  0.77602800  1
  La  La13  1  0.86165300  0.63768100  0.49593600  1
  La  La14  1  0.32575500  0.94927800  0.64162400  1
  La  La15  1  0.81081900  0.46834100  0.63318300  1
  La  La16  1  0.93918100  0.07236400  0.15752100  1
  La  La17  1  0.54546700  0.89105300  0.09481600  1
  La  La18  1  0.45379400  0.29988800  0.59589500  1
  La  La19  1  0.29620600  0.39210100  0.34609400  1
  La  La20  1  0.79623700  0.45065100  0.90518400  1
  La  La21  1  0.70399300  0.85789900  0.40410500  1
  La  La22  1  0.95376300  0.35894700  0.15441500  1
  La  La23  1  0.30765400  0.68413100  0.35837600  1
  La  La24  1  0.91484300  0.78165900  0.84247900  1
  La  La25  1  0.44234600  0.30072200  0.87647800  1
  La  La26  1  0.38768100  0.11165300  0.99593600  1
  La  La27  1  0.60825500  0.61231900  0.72397200  1
  La  La28  1  0.14174500  0.36571700  0.50406400  1
  La  La29  1  0.04988800  0.70379400  0.09589500  1
  La  La30  1  0.64105300  0.79546700  0.59481600  1
  La  La31  1  0.70011200  0.29600700  0.15390600  1
  La  La32  1  0.21834100  0.06081900  0.13318300  1
  La  La33  1  0.31586900  0.67424500  0.62352200  1
  La  La34  1  0.43413100  0.55765400  0.85837600  1
  La  La35  1  0.69927800  0.57575500  0.14162400  1
  La  La36  1  0.14210100  0.54620600  0.84609400  1
  La  La37  1  0.42424500  0.56586900  0.12352200  1
  La  La38  1  0.20453300  0.79934900  0.84558500  1
  La  La39  1  0.36231900  0.85825500  0.22397200  1
  S  S0  1  0.10722000  0.93792600  0.48284300  1
  S  S1  1  0.02864400  0.12500000  0.40364400  1
  S  S2  1  0.91909300  0.27950400  0.28802400  1
  S  S3  1  0.87679900  0.04296800  0.48396600  1
  S  S4  1  0.58838400  0.98132100  0.33295200  1
  S  S5  1  0.02950400  0.16909300  0.78802500  1
  S  S6  1  0.72049600  0.00852000  0.63958900  1
  S  S7  1  0.86875600  0.51124900  0.28446100  1
  S  S8  1  0.01867900  0.35163100  0.60706300  1
  S  S9  1  0.75000000  0.25000000  0.50000000  1
  S  S10  1  0.00000000  0.00000000  0.00000000  1
  S  S11  1  0.00543100  0.89836900  0.16704800  1
  S  S12  1  0.51300500  0.90625600  0.66136200  1
  S  S13  1  0.74456900  0.41161600  0.39293700  1
  S  S14  1  0.36893100  0.08090700  0.36041100  1
  S  S15  1  0.10163100  0.26867900  0.10706300  1
  S  S16  1  0.64836900  0.25543100  0.66704800  1
  S  S17  1  0.09374400  0.75510600  0.60674900  1
  S  S18  1  0.87500000  0.27864400  0.90364400  1
  S  S19  1  0.87500000  0.77506500  0.40006500  1
  S  S20  1  0.64278000  0.62562400  0.33070600  1
  S  S21  1  0.79296800  0.12679900  0.98396600  1
  S  S22  1  0.95703200  0.44099900  0.83383100  1
  S  S23  1  0.37562400  0.89278000  0.83070600  1
  S  S24  1  0.19099900  0.20703200  0.33383100  1
  S  S25  1  0.55900100  0.39283200  0.51603400  1
  S  S26  1  0.99148000  0.63106900  0.71197500  1
  S  S27  1  0.75852000  0.97049600  0.13958900  1
  S  S28  1  0.41570500  0.13124400  0.64249300  1
  S  S29  1  0.52506500  0.12500000  0.90006500  1
  S  S30  1  0.72135600  0.62500000  0.59635600  1
  S  S31  1  0.26124900  0.11875600  0.78446100  1
  S  S32  1  0.83090700  0.61893100  0.86041100  1
  S  S33  1  0.48875100  0.77321200  0.35750700  1
  S  S34  1  0.68792600  0.35722000  0.98284300  1
  S  S35  1  0.06207400  0.54491700  0.16929400  1
  S  S36  1  0.87320100  0.85716800  0.66616900  1
  S  S37  1  0.60716800  0.12320100  0.16616900  1
  S  S38  1  0.45508300  0.62437600  0.51715700  1
  S  S39  1  0.29491700  0.31207400  0.66929400  1
  S  S40  1  0.37500000  0.47493500  0.59993500  1
  S  S41  1  0.37500000  0.97135600  0.09635600  1
  S  S42  1  0.60164300  0.49489400  0.83863800  1
  S  S43  1  0.14835700  0.48699500  0.39325100  1
  S  S44  1  0.16161600  0.99456900  0.89293700  1
  S  S45  1  0.88124400  0.66570500  0.14249300  1
  S  S46  1  0.50510600  0.34374400  0.10674900  1
  S  S47  1  0.73132100  0.83838400  0.83295200  1
  S  S48  1  0.24489400  0.85164300  0.33863800  1
  S  S49  1  0.23699500  0.39835700  0.89325100  1
  S  S50  1  0.38106900  0.24148000  0.21197500  1
  S  S51  1  0.22678800  0.58429500  0.71553900  1
  S  S52  1  0.52321200  0.73875100  0.85750700  1
  S  S53  1  0.65625600  0.76300500  0.16136200  1
  S  S54  1  0.37437600  0.70508300  0.01715700  1
  S  S55  1  0.33429500  0.47678800  0.21553900  1
  S  S56  1  0.22493500  0.62500000  0.09993500  1
  S  S57  1  0.14283200  0.80900100  0.01603400  1
  O  O0  1  0.25000000  0.75000000  0.50000000  1
  O  O1  1  0.50000000  0.50000000  0.00000000  1
loop_
_geom_bond_atom_site_label_1
_geom_bond_atom_site_label_2
_geom_bond_distance
_geom_bond_site_symmetry_2
La0 S45 2.908483 1_555
La0 S27 2.967018 1_555
La0 S11 2.970628 1_655
La0 S0 2.987662 1_655
La0 S53 3.017763 1_555
La0 S3 3.019871 1_565
La0 S19 3.067561 1_555
La0 S1 3.160147 1_665
La1 S44 2.859642 1_555
La1 S17 2.907165 1_555
La1 S19 2.947882 1_455
La1 S36 2.995602 1_455
La1 S31 3.019653 1_565
La1 S0 3.052409 1_555
La1 S5 3.061179 1_565
La1 S3 3.566256 1_465
La2 S9 2.720131 1_555
La2 S2 2.864080 1_555
La2 S8 2.905691 1_655
La2 S1 2.937860 1_655
La2 S27 2.938922 1_545
La2 S37 3.035506 1_555
La2 S3 3.176992 1_555
La3 S49 2.858860 1_555
La3 S8 2.879441 1_555
La3 S1 2.913966 1_555
La3 S5 2.982974 1_555
La3 S39 3.003708 1_555
La3 S31 3.044208 1_555
La3 S3 3.060838 1_455
La3 S0 3.600543 1_545
La4 S9 2.720143 1_555
La4 S14 2.864067 1_555
La4 S4 2.905697 1_545
La4 S41 2.937858 1_545
La4 S50 2.938922 1_555
La4 S25 3.035505 1_555
La4 S37 3.177015 1_555
La5 O0 2.480497 1_555
La5 S17 2.845470 1_555
La5 S35 2.961480 1_555
La5 S7 2.966980 1_455
La5 S45 3.038845 1_455
La5 S19 3.095009 1_455
La5 S0 3.121602 1_555
La6 S10 2.720131 1_656
La6 S5 2.864067 1_655
La6 S15 2.905691 1_656
La6 S18 2.937860 1_555
La6 S6 2.938922 1_555
La6 S36 3.035506 1_545
La6 S21 3.176992 1_555
La7 S9 2.720131 1_555
La7 S6 2.864080 1_555
La7 S16 2.905686 1_555
La7 S18 2.937860 1_555
La7 S5 2.938925 1_655
La7 S3 3.035516 1_555
La7 S22 3.177004 1_555
La8 S47 2.859648 1_555
La8 S12 2.907165 1_555
La8 S29 2.947882 1_565
La8 S21 2.995609 1_565
La8 S52 3.019653 1_555
La8 S23 3.052395 1_555
La8 S27 3.061176 1_556
La8 S37 3.566247 1_566
La9 S46 2.858854 1_555
La9 S13 2.879447 1_555
La9 S30 2.913960 1_555
La9 S50 2.982974 1_555
La9 S20 3.003701 1_555
La9 S55 3.044213 1_555
La9 S25 3.060869 1_555
La9 S38 3.600543 1_555
La10 S48 2.858867 1_545
La10 S11 2.879441 1_545
La10 S1 2.913953 1_555
La10 S14 2.982974 1_555
La10 S0 3.003699 1_545
La10 S28 3.044216 1_555
La10 S24 3.060840 1_555
La10 S39 3.600541 1_555
La11 S55 2.908483 1_555
La11 S5 2.967013 1_554
La11 S15 2.970641 1_555
La11 S35 2.987662 1_555
La11 S49 3.017763 1_554
La11 S22 3.019881 1_454
La11 S56 3.067561 1_555
La11 S18 3.160147 1_454
La12 S28 2.908483 1_555
La12 S6 2.967018 1_555
La12 S16 2.970628 1_555
La12 S34 2.987662 1_555
La12 S12 3.017763 1_545
La12 S21 3.019871 1_555
La12 S29 3.067561 1_555
La12 S18 3.160147 1_555
La13 S7 2.908483 1_555
La13 S26 2.967006 1_555
La13 S13 2.970637 1_555
La13 S20 2.987668 1_555
La13 S17 3.017763 1_655
La13 S36 3.019881 1_555
La13 S19 3.067561 1_555
La13 S30 3.160147 1_555
La14 O0 2.480497 1_555
La14 S12 2.845485 1_555
La14 S0 2.961469 1_555
La14 S28 2.966986 1_565
La14 S31 3.038835 1_565
La14 S29 3.095013 1_565
La14 S23 3.121597 1_555
La15 S9 2.720144 1_555
La15 S26 2.864078 1_555
La15 S13 2.905690 1_555
La15 S30 2.937846 1_555
La15 S32 2.938918 1_555
La15 S22 3.035516 1_555
La15 S25 3.177006 1_555
La16 S10 2.720131 1_655
La16 S27 2.864080 1_545
La16 S11 2.905686 1_645
La16 S1 2.937860 1_655
La16 S2 2.938922 1_555
La16 S21 3.035516 1_554
La16 S24 3.177004 1_655
La17 S53 2.858867 1_555
La17 S4 2.879435 1_555
La17 S41 2.913953 1_555
La17 S27 2.982974 1_555
La17 S54 3.003708 1_555
La17 S52 3.044216 1_554
La17 S37 3.060840 1_565
La17 S23 3.600538 1_554
La18 S16 2.859656 1_555
La18 S42 2.907165 1_555
La18 S40 2.947882 1_555
La18 S25 2.995589 1_555
La18 S28 3.019653 1_555
La18 S39 3.052409 1_555
La18 S14 3.061176 1_555
La18 S24 3.566247 1_555
La19 S15 2.859648 1_555
La19 S43 2.907165 1_555
La19 S40 2.947882 1_555
La19 S24 2.995602 1_555
La19 S55 3.019653 1_555
La19 S38 3.052399 1_555
La19 S50 3.061184 1_555
La19 S25 3.566250 1_555
La20 S42 2.858867 1_555
La20 S16 2.879441 1_555
La20 S18 2.913953 1_555
La20 S32 2.982974 1_555
La20 S34 3.003699 1_555
La20 S45 3.044216 1_556
La20 S22 3.060840 1_555
La20 S35 3.600541 1_656
La21 S4 2.859648 1_555
La21 S53 2.907165 1_555
La21 S19 2.947882 1_555
La21 S3 2.995609 1_565
La21 S33 3.019653 1_555
La21 S20 3.052395 1_555
La21 S6 3.061176 1_565
La21 S36 3.566247 1_555
La22 S43 2.858860 1_655
La22 S15 2.879441 1_655
La22 S18 2.913966 1_554
La22 S2 2.982960 1_555
La22 S35 3.003708 1_655
La22 S7 3.044208 1_555
La22 S21 3.060838 1_554
La22 S34 3.600543 1_554
La23 O0 2.480497 1_555
La23 S48 2.845485 1_555
La23 S38 2.961480 1_555
La23 S33 2.966986 1_555
La23 S55 3.038835 1_555
La23 S56 3.095013 1_555
La23 S35 3.121599 1_555
La24 S10 2.720143 1_666
La24 S32 2.864067 1_555
La24 S47 2.905697 1_555
La24 S30 2.937858 1_555
La24 S26 2.938922 1_555
La24 S57 3.035505 1_656
La24 S36 3.177015 1_555
La25 O1 2.480497 1_556
La25 S46 2.845470 1_556
La25 S39 2.961480 1_555
La25 S31 2.966980 1_555
La25 S28 3.038845 1_555
La25 S29 3.095009 1_555
La25 S34 3.121602 1_555
La26 S31 2.908483 1_555
La26 S50 2.967006 1_556
La26 S44 2.970637 1_545
La26 S23 2.987668 1_545
La26 S46 3.017763 1_556
La26 S37 3.019881 1_556
La26 S29 3.067561 1_555
La26 S41 3.160147 1_546
La27 S52 2.908483 1_555
La27 S32 2.967018 1_555
La27 S47 2.970641 1_555
La27 S38 2.987653 1_555
La27 S42 3.017763 1_555
La27 S25 3.019875 1_555
La27 S40 3.067561 1_555
La27 S30 3.160147 1_555
La28 S51 2.908483 1_555
La28 S2 2.967018 1_455
La28 S8 2.970641 1_555
La28 S39 2.987662 1_555
La28 S43 3.017763 1_555
La28 S24 3.019881 1_555
La28 S40 3.067561 1_555
La28 S1 3.160147 1_555
La29 S11 2.859656 1_555
La29 S48 2.907165 1_555
La29 S56 2.947882 1_555
La29 S57 2.995589 1_555
La29 S45 3.019653 1_455
La29 S35 3.052409 1_555
La29 S32 3.061176 1_454
La29 S22 3.566247 1_454
La30 S12 2.858867 1_555
La30 S47 2.879435 1_555
La30 S30 2.913953 1_555
La30 S6 2.982974 1_565
La30 S38 3.003708 1_555
La30 S33 3.044216 1_555
La30 S36 3.060840 1_555
La30 S20 3.600538 1_555
La31 S13 2.859642 1_555
La31 S46 2.907165 1_555
La31 S29 2.947882 1_554
La31 S37 2.995602 1_555
La31 S7 3.019653 1_555
La31 S34 3.052409 1_554
La31 S2 3.061176 1_555
La31 S21 3.566256 1_554
La32 S10 2.720144 1_555
La32 S50 2.864078 1_555
La32 S44 2.905690 1_544
La32 S41 2.937846 1_545
La32 S14 2.938918 1_555
La32 S24 3.035516 1_555
La32 S57 3.177006 1_545
La33 O0 2.480486 1_555
La33 S43 2.845480 1_555
La33 S23 2.961471 1_555
La33 S51 2.967000 1_555
La33 S52 3.038843 1_555
La33 S40 3.095016 1_555
La33 S38 3.121589 1_555
La34 O1 2.480497 1_556
La34 S42 2.845485 1_555
La34 S54 2.961480 1_556
La34 S52 2.966986 1_555
La34 S51 3.038835 1_555
La34 S40 3.095013 1_555
La34 S39 3.121599 1_555
La35 O1 2.480497 1_555
La35 S53 2.845485 1_555
La35 S34 2.961469 1_554
La35 S45 2.966986 1_555
La35 S7 3.038835 1_555
La35 S19 3.095013 1_555
La35 S20 3.121597 1_555
La36 S8 2.859648 1_555
La36 S49 2.907165 1_555
La36 S56 2.947882 1_556
La36 S22 2.995602 1_455
La36 S51 3.019653 1_555
La36 S54 3.052399 1_556
La36 S26 3.061184 1_455
La36 S57 3.566250 1_556
La37 O1 2.480486 1_555
La37 S49 2.845480 1_554
La37 S20 2.961471 1_555
La37 S55 2.967000 1_555
La37 S33 3.038843 1_555
La37 S56 3.095016 1_555
La37 S54 3.121589 1_555
La38 S17 2.858854 1_555
La38 S44 2.879447 1_555
La38 S41 2.913960 1_556
La38 S26 2.982974 1_455
La38 S23 3.003701 1_555
La38 S51 3.044213 1_555
La38 S57 3.060869 1_556
La38 S54 3.600543 1_556
La39 S33 2.908483 1_555
La39 S14 2.967018 1_565
La39 S4 2.970641 1_555
La39 S54 2.987653 1_555
La39 S48 3.017763 1_555
La39 S57 3.019875 1_555
La39 S56 3.067561 1_555
La39 S41 3.160147 1_555
