# generated using pymatgen
data_Cr2H24(IN3)3
_symmetry_space_group_name_H-M   'P 1'
_cell_length_a   7.75798244
_cell_length_b   7.75798244
_cell_length_c   18.32330700
_cell_angle_alpha   90.00000000
_cell_angle_beta   90.00000000
_cell_angle_gamma   120.00000374
_symmetry_Int_Tables_number   1
_chemical_formula_structural   Cr2H24(IN3)3
_chemical_formula_sum   'Cr4 H48 I6 N18'
_cell_volume   955.06308204
_cell_formula_units_Z   2
loop_
 _symmetry_equiv_pos_site_id
 _symmetry_equiv_pos_as_xyz
  1  'x, y, z'
loop_
 _atom_site_type_symbol
 _atom_site_label
 _atom_site_symmetry_multiplicity
 _atom_site_fract_x
 _atom_site_fract_y
 _atom_site_fract_z
 _atom_site_occupancy
  Cr  Cr0  1  0.33333300  0.66666700  0.32577100  1
  Cr  Cr1  1  0.66666700  0.33333300  0.67422900  1
  Cr  Cr2  1  0.66666700  0.33333300  0.82577100  1
  Cr  Cr3  1  0.33333300  0.66666700  0.17422900  1
  H  H0  1  0.38404100  0.40278800  0.25000000  1
  H  H1  1  0.59721200  0.98125300  0.25000000  1
  H  H2  1  0.01874700  0.61595900  0.25000000  1
  H  H3  1  0.59721200  0.61595900  0.25000000  1
  H  H4  1  0.01874700  0.40278800  0.25000000  1
  H  H5  1  0.38404100  0.98125300  0.25000000  1
  H  H6  1  0.61595900  0.59721200  0.75000000  1
  H  H7  1  0.40278800  0.01874700  0.75000000  1
  H  H8  1  0.98125300  0.38404100  0.75000000  1
  H  H9  1  0.40278800  0.38404100  0.75000000  1
  H  H10  1  0.98125300  0.59721200  0.75000000  1
  H  H11  1  0.61595900  0.01874700  0.75000000  1
  H  H12  1  0.21993700  0.78006300  0.44914200  1
  H  H13  1  0.21993700  0.43987400  0.44914200  1
  H  H14  1  0.56012600  0.78006300  0.44914200  1
  H  H15  1  0.78006300  0.21993700  0.55085800  1
  H  H16  1  0.78006300  0.56012600  0.55085800  1
  H  H17  1  0.43987400  0.21993700  0.55085800  1
  H  H18  1  0.78006300  0.21993700  0.94914200  1
  H  H19  1  0.78006300  0.56012600  0.94914200  1
  H  H20  1  0.43987400  0.21993700  0.94914200  1
  H  H21  1  0.21993700  0.78006300  0.05085800  1
  H  H22  1  0.21993700  0.43987400  0.05085800  1
  H  H23  1  0.56012600  0.78006300  0.05085800  1
  H  H24  1  0.26831000  0.94470400  0.38323700  1
  H  H25  1  0.05529600  0.32360700  0.38323700  1
  H  H26  1  0.67639300  0.73169000  0.38323700  1
  H  H27  1  0.05529600  0.73169000  0.38323700  1
  H  H28  1  0.67639300  0.94470400  0.38323700  1
  H  H29  1  0.26831000  0.32360700  0.38323700  1
  H  H30  1  0.73169000  0.05529600  0.61676300  1
  H  H31  1  0.94470400  0.67639300  0.61676300  1
  H  H32  1  0.32360700  0.26831000  0.61676300  1
  H  H33  1  0.94470400  0.26831000  0.61676300  1
  H  H34  1  0.32360700  0.05529600  0.61676300  1
  H  H35  1  0.73169000  0.67639300  0.61676300  1
  H  H36  1  0.73169000  0.05529600  0.88323700  1
  H  H37  1  0.94470400  0.67639300  0.88323700  1
  H  H38  1  0.32360700  0.26831000  0.88323700  1
  H  H39  1  0.94470400  0.26831000  0.88323700  1
  H  H40  1  0.32360700  0.05529600  0.88323700  1
  H  H41  1  0.73169000  0.67639300  0.88323700  1
  H  H42  1  0.26831000  0.94470400  0.11676300  1
  H  H43  1  0.05529600  0.32360700  0.11676300  1
  H  H44  1  0.67639300  0.73169000  0.11676300  1
  H  H45  1  0.05529600  0.73169000  0.11676300  1
  H  H46  1  0.67639300  0.94470400  0.11676300  1
  H  H47  1  0.26831000  0.32360700  0.11676300  1
  I  I0  1  0.00000000  0.00000000  0.25000000  1
  I  I1  1  0.00000000  0.00000000  0.75000000  1
  I  I2  1  0.33333300  0.66666700  0.91838000  1
  I  I3  1  0.66666700  0.33333300  0.08162000  1
  I  I4  1  0.66666700  0.33333300  0.41838000  1
  I  I5  1  0.33333300  0.66666700  0.58162000  1
  N  N0  1  0.44560200  0.55439800  0.25000000  1
  N  N1  1  0.44560200  0.89120400  0.25000000  1
  N  N2  1  0.10879600  0.55439800  0.25000000  1
  N  N3  1  0.55439800  0.44560200  0.75000000  1
  N  N4  1  0.55439800  0.10879600  0.75000000  1
  N  N5  1  0.89120400  0.44560200  0.75000000  1
  N  N6  1  0.20467700  0.79532300  0.39411800  1
  N  N7  1  0.20467700  0.40935500  0.39411800  1
  N  N8  1  0.59064500  0.79532300  0.39411800  1
  N  N9  1  0.79532300  0.20467700  0.60588200  1
  N  N10  1  0.79532300  0.59064500  0.60588200  1
  N  N11  1  0.40935500  0.20467700  0.60588200  1
  N  N12  1  0.79532300  0.20467700  0.89411800  1
  N  N13  1  0.79532300  0.59064500  0.89411800  1
  N  N14  1  0.40935500  0.20467700  0.89411800  1
  N  N15  1  0.20467700  0.79532300  0.10588200  1
  N  N16  1  0.20467700  0.40935500  0.10588200  1
  N  N17  1  0.59064500  0.79532300  0.10588200  1
loop_
_geom_bond_atom_site_label_1
_geom_bond_atom_site_label_2
_geom_bond_distance
_geom_bond_site_symmetry_2
Cr0 N1 2.050217 1_555
Cr0 N2 2.050217 1_555
Cr0 N0 2.050222 1_555
Cr0 N8 2.134722 1_555
Cr0 N7 2.134722 1_555
Cr0 N6 2.134722 1_555
Cr1 N5 2.050217 1_555
Cr1 N4 2.050217 1_555
Cr1 N3 2.050222 1_555
Cr1 N10 2.134722 1_555
Cr1 N11 2.134722 1_555
Cr1 N9 2.134722 1_555
Cr2 N5 2.050217 1_555
Cr2 N4 2.050217 1_555
Cr2 N3 2.050222 1_555
Cr2 N13 2.134722 1_555
Cr2 N14 2.134722 1_555
Cr2 N12 2.134722 1_555
Cr3 N1 2.050217 1_555
Cr3 N2 2.050217 1_555
Cr3 N0 2.050222 1_555
Cr3 N17 2.134722 1_555
Cr3 N16 2.134722 1_555
Cr3 N15 2.134722 1_555
H0 N0 1.024585 1_555
H1 N1 1.024585 1_555
H2 N2 1.024585 1_555
H3 N0 1.024585 1_555
H4 N2 1.024585 1_555
H5 N1 1.024585 1_555
H6 N3 1.024585 1_555
H7 N4 1.024585 1_555
H8 N5 1.024585 1_555
H9 N3 1.024585 1_555
H10 N5 1.024585 1_555
H11 N4 1.024585 1_555
H12 N6 1.028862 1_555
H13 N7 1.028861 1_555
H14 N8 1.028861 1_555
H15 N9 1.028862 1_555
H16 N10 1.028861 1_555
H17 N11 1.028861 1_555
H18 N12 1.028862 1_555
H19 N13 1.028861 1_555
H20 N14 1.028861 1_555
H21 N15 1.028862 1_555
H22 N16 1.028861 1_555
H23 N17 1.028861 1_555
H24 N6 1.026834 1_555
H25 N7 1.026834 1_555
H26 N8 1.026834 1_555
H27 N6 1.026834 1_555
H28 N8 1.026834 1_555
H29 N7 1.026834 1_555
H30 N9 1.026834 1_555
H31 N10 1.026834 1_555
H32 N11 1.026834 1_555
H33 N9 1.026834 1_555
H34 N11 1.026834 1_555
H35 N10 1.026834 1_555
H36 N12 1.026834 1_555
H37 N13 1.026834 1_555
H38 N14 1.026834 1_555
H39 N12 1.026834 1_555
H40 N14 1.026834 1_555
H41 N13 1.026834 1_555
H42 N15 1.026834 1_555
H43 N16 1.026834 1_555
H44 N17 1.026834 1_555
H45 N15 1.026834 1_555
H46 N17 1.026834 1_555
H47 N16 1.026834 1_555
