# generated using pymatgen
data_LiBi(PO3)4
_symmetry_space_group_name_H-M   'P 1'
_cell_length_a   8.95984700
_cell_length_b   7.23936100
_cell_length_c   17.11842531
_cell_angle_alpha   65.31994882
_cell_angle_beta   90.00000000
_cell_angle_gamma   90.00000000
_symmetry_Int_Tables_number   1
_chemical_formula_structural   LiBi(PO3)4
_chemical_formula_sum   'Li4 Bi4 P16 O48'
_cell_volume   1008.93455705
_cell_formula_units_Z   4
loop_
 _symmetry_equiv_pos_site_id
 _symmetry_equiv_pos_as_xyz
  1  'x, y, z'
loop_
 _atom_site_type_symbol
 _atom_site_label
 _atom_site_symmetry_multiplicity
 _atom_site_fract_x
 _atom_site_fract_y
 _atom_site_fract_z
 _atom_site_occupancy
  Li  Li0  1  0.57956000  0.34299500  0.64544000  1
  Li  Li1  1  0.92044000  0.34299500  0.14544000  1
  Li  Li2  1  0.07956000  0.65700500  0.85456000  1
  Li  Li3  1  0.42044000  0.65700500  0.35456000  1
  Bi  Bi0  1  0.67787500  0.82092500  0.09876900  1
  Bi  Bi1  1  0.17787500  0.17907500  0.40123100  1
  Bi  Bi2  1  0.82212500  0.82092500  0.59876900  1
  Bi  Bi3  1  0.32212500  0.17907500  0.90123100  1
  P  P0  1  0.24894800  0.33560800  0.57470200  1
  P  P1  1  0.03307700  0.66408300  0.20762000  1
  P  P2  1  0.25285800  0.77878600  0.05930200  1
  P  P3  1  0.02262400  0.04618700  0.70518900  1
  P  P4  1  0.75285800  0.22121400  0.44069800  1
  P  P5  1  0.53307700  0.33591700  0.29238000  1
  P  P6  1  0.52262400  0.95381300  0.79481100  1
  P  P7  1  0.25105200  0.33560800  0.07470200  1
  P  P8  1  0.74894800  0.66439200  0.92529800  1
  P  P9  1  0.47737600  0.04618700  0.20518900  1
  P  P10  1  0.46692300  0.66408300  0.70762000  1
  P  P11  1  0.24714200  0.77878600  0.55930200  1
  P  P12  1  0.97737600  0.95381300  0.29481100  1
  P  P13  1  0.74714200  0.22121400  0.94069800  1
  P  P14  1  0.96692300  0.33591700  0.79238000  1
  P  P15  1  0.75105200  0.66439200  0.42529800  1
  O  O0  1  0.40218000  0.88335900  0.05341200  1
  O  O1  1  0.17194400  0.76086300  0.14471800  1
  O  O2  1  0.01773300  0.15001400  0.77275900  1
  O  O3  1  0.23212300  0.36451600  0.48193000  1
  O  O4  1  0.08523200  0.48555900  0.28606600  1
  O  O5  1  0.78655100  0.44701300  0.42438600  1
  O  O6  1  0.39115700  0.25619400  0.61991100  1
  O  O7  1  0.40706200  0.37250000  0.34411100  1
  O  O8  1  0.10307300  0.22100000  0.62391000  1
  O  O9  1  0.61500800  0.13978500  0.75602700  1
  O  O10  1  0.90706200  0.62750000  0.15588900  1
  O  O11  1  0.86723500  0.03215300  0.67299700  1
  O  O12  1  0.65892000  0.10706600  0.51992700  1
  O  O13  1  0.28655100  0.55298700  0.07561400  1
  O  O14  1  0.58523100  0.51444100  0.21393400  1
  O  O15  1  0.73212300  0.63548400  0.01807000  1
  O  O16  1  0.15892000  0.89293400  0.98007300  1
  O  O17  1  0.36723500  0.96784700  0.82700300  1
  O  O18  1  0.67194400  0.23913700  0.35528200  1
  O  O19  1  0.11500800  0.86021500  0.74397300  1
  O  O20  1  0.90218000  0.11664100  0.44658800  1
  O  O21  1  0.60307300  0.77900000  0.87609000  1
  O  O22  1  0.48226700  0.15001400  0.27275900  1
  O  O23  1  0.89115700  0.74380600  0.88008900  1
  O  O24  1  0.10884300  0.25619400  0.11991100  1
  O  O25  1  0.51773300  0.84998600  0.72724100  1
  O  O26  1  0.39692700  0.22100000  0.12391000  1
  O  O27  1  0.09782000  0.88335900  0.55341200  1
  O  O28  1  0.88499200  0.13978500  0.25602700  1
  O  O29  1  0.32805600  0.76086300  0.64471800  1
  O  O30  1  0.63276500  0.03215300  0.17299700  1
  O  O31  1  0.84108000  0.10706600  0.01992700  1
  O  O32  1  0.26787700  0.36451600  0.98193000  1
  O  O33  1  0.41476800  0.48555900  0.78606600  1
  O  O34  1  0.71344900  0.44701300  0.92438600  1
  O  O35  1  0.34108000  0.89293400  0.48007300  1
  O  O36  1  0.13276500  0.96784700  0.32700300  1
  O  O37  1  0.09293800  0.37250000  0.84411100  1
  O  O38  1  0.38499200  0.86021500  0.24397300  1
  O  O39  1  0.89692700  0.77900000  0.37609000  1
  O  O40  1  0.59293800  0.62750000  0.65588900  1
  O  O41  1  0.60884300  0.74380600  0.38008900  1
  O  O42  1  0.21344900  0.55298700  0.57561400  1
  O  O43  1  0.91476800  0.51444100  0.71393400  1
  O  O44  1  0.76787700  0.63548400  0.51807000  1
  O  O45  1  0.98226700  0.84998600  0.22724100  1
  O  O46  1  0.82805600  0.23913700  0.85528200  1
  O  O47  1  0.59782000  0.11664100  0.94658800  1
loop_
_geom_bond_atom_site_label_1
_geom_bond_atom_site_label_2
_geom_bond_distance
_geom_bond_site_symmetry_2
Li0 O9 1.876988 1_555
Li0 O6 1.914349 1_555
Li0 O40 2.143855 1_555
Li1 O28 1.876988 1_555
Li1 O24 1.914349 1_655
Li1 O10 2.143855 1_555
Li2 O19 1.876988 1_555
Li2 O23 1.914349 1_455
Li2 O37 2.143855 1_555
Li3 O38 1.876988 1_555
Li3 O41 1.914349 1_555
Li3 O7 2.143855 1_555
Bi0 O15 2.344269 1_555
Bi0 O30 2.395603 1_565
Bi0 O14 2.417770 1_555
Bi0 O31 2.432308 1_565
Bi0 O10 2.447495 1_555
Bi0 O0 2.572138 1_555
Bi0 O47 2.688250 1_564
Bi1 O3 2.344269 1_555
Bi1 O36 2.395603 1_545
Bi1 O4 2.417767 1_555
Bi1 O35 2.432308 1_545
Bi1 O7 2.447495 1_555
Bi1 O20 2.572138 1_455
Bi1 O27 2.688250 1_545
Bi2 O44 2.344269 1_555
Bi2 O11 2.395603 1_565
Bi2 O43 2.417767 1_555
Bi2 O12 2.432308 1_565
Bi2 O40 2.447495 1_555
Bi2 O27 2.572138 1_655
Bi2 O20 2.688250 1_565
Bi3 O32 2.344269 1_555
Bi3 O17 2.395603 1_545
Bi3 O33 2.417767 1_555
Bi3 O16 2.432308 1_545
Bi3 O37 2.447495 1_555
Bi3 O47 2.572138 1_555
Bi3 O0 2.688250 1_546
O0 P2 1.519710 1_555
O1 P2 1.588075 1_555
O1 P1 1.602629 1_555
O2 P14 1.583916 1_455
O2 P3 1.621997 1_555
O3 P0 1.520220 1_555
O4 P1 1.497542 1_555
O5 P4 1.568430 1_555
O5 P15 1.611959 1_555
O6 P0 1.476958 1_555
O7 P5 1.524798 1_555
O8 P0 1.588270 1_555
O8 P3 1.608286 1_555
O9 P6 1.480565 1_545
O10 P1 1.524798 1_655
O11 P3 1.516297 1_655
O12 P4 1.514861 1_555
O13 P2 1.568430 1_555
O13 P7 1.611959 1_555
O14 P5 1.497539 1_555
O15 P8 1.520220 1_554
O16 P2 1.514861 1_556
O17 P6 1.516297 1_555
O18 P4 1.588075 1_555
O18 P5 1.602629 1_555
O19 P3 1.480565 1_565
O20 P4 1.519710 1_555
O21 P8 1.588270 1_555
O21 P6 1.608286 1_555
O22 P5 1.583916 1_555
O22 P9 1.621997 1_555
O23 P8 1.476958 1_555
O24 P7 1.476958 1_555
O25 P10 1.583916 1_555
O25 P6 1.621997 1_555
O26 P7 1.588270 1_555
O26 P9 1.608286 1_555
O27 P11 1.519710 1_555
O28 P12 1.480565 1_545
O29 P11 1.588075 1_555
O29 P10 1.602629 1_555
O30 P9 1.516297 1_555
O31 P13 1.514861 1_554
O32 P7 1.520220 1_556
O33 P10 1.497542 1_555
O34 P13 1.568430 1_555
O34 P8 1.611959 1_555
O35 P11 1.514861 1_555
O36 P12 1.516297 1_455
O37 P14 1.524798 1_455
O38 P9 1.480565 1_565
O39 P15 1.588270 1_555
O39 P12 1.608286 1_555
O40 P10 1.524798 1_555
O41 P15 1.476958 1_555
O42 P11 1.568430 1_555
O42 P0 1.611959 1_555
O43 P14 1.497542 1_555
O44 P15 1.520220 1_555
O45 P1 1.583916 1_655
O45 P12 1.621997 1_555
O46 P13 1.588075 1_555
O46 P14 1.602629 1_555
O47 P13 1.519710 1_555
