# generated using pymatgen
data_CoOF
_symmetry_space_group_name_H-M   'P 1'
_cell_length_a   4.48157700
_cell_length_b   4.50899200
_cell_length_c   8.99859900
_cell_angle_alpha   90.00000000
_cell_angle_beta   90.00000000
_cell_angle_gamma   90.00000000
_symmetry_Int_Tables_number   1
_chemical_formula_structural   CoOF
_chemical_formula_sum   'Co6 O6 F6'
_cell_volume   181.83824300
_cell_formula_units_Z   6
loop_
 _symmetry_equiv_pos_site_id
 _symmetry_equiv_pos_as_xyz
  1  'x, y, z'
loop_
 _atom_site_type_symbol
 _atom_site_label
 _atom_site_symmetry_multiplicity
 _atom_site_fract_x
 _atom_site_fract_y
 _atom_site_fract_z
 _atom_site_occupancy
  Co  Co0  1  0.77488600  0.02521400  0.66634700  1
  Co  Co1  1  0.77488600  0.02521400  0.33365300  1
  Co  Co2  1  0.72927200  0.96587900  0.00000000  1
  Co  Co3  1  0.27072800  0.46587900  0.50000000  1
  Co  Co4  1  0.22511400  0.52521400  0.83365300  1
  Co  Co5  1  0.22511400  0.52521400  0.16634700  1
  O  O0  1  0.92608700  0.80859100  0.83624300  1
  O  O1  1  0.92608700  0.80859100  0.16375700  1
  O  O2  1  0.42438800  0.69186200  0.00000000  1
  O  O3  1  0.07391300  0.30859100  0.66375700  1
  O  O4  1  0.07391300  0.30859100  0.33624300  1
  O  O5  1  0.57561200  0.19186200  0.50000000  1
  F  F0  1  0.98067700  0.78013100  0.50000000  1
  F  F1  1  0.46661000  0.69695200  0.34090100  1
  F  F2  1  0.46661000  0.69695200  0.65909900  1
  F  F3  1  0.01932300  0.28013100  0.00000000  1
  F  F4  1  0.53339000  0.19695200  0.84090100  1
  F  F5  1  0.53339000  0.19695200  0.15909900  1
loop_
_geom_bond_atom_site_label_1
_geom_bond_atom_site_label_2
_geom_bond_distance
_geom_bond_site_symmetry_2
Co0 O3 1.851776 1_655
Co0 O5 1.898121 1_555
Co0 O0 1.936626 1_545
Co0 F2 2.025773 1_545
Co0 F4 2.058691 1_555
Co0 F0 2.076645 1_545
Co1 O4 1.851776 1_655
Co1 O5 1.898121 1_555
Co1 O1 1.936626 1_545
Co1 F1 2.025773 1_545
Co1 F5 2.058691 1_555
Co1 F0 2.076645 1_545
Co2 O2 1.842146 1_555
Co2 O1 1.858070 1_555
Co2 O0 1.858070 1_554
Co2 F3 1.922883 1_665
Co2 F5 1.976330 1_565
Co2 F4 1.976330 1_564
Co3 O5 1.842146 1_555
Co3 O4 1.858070 1_555
Co3 O3 1.858070 1_555
Co3 F0 1.922883 1_455
Co3 F1 1.976330 1_555
Co3 F2 1.976330 1_555
Co4 O0 1.851776 1_455
Co4 O2 1.898121 1_556
Co4 O3 1.936626 1_555
Co4 F4 2.025773 1_555
Co4 F2 2.058691 1_555
Co4 F3 2.076645 1_556
Co5 O1 1.851776 1_455
Co5 O2 1.898121 1_555
Co5 O4 1.936626 1_555
Co5 F5 2.025773 1_555
Co5 F1 2.058691 1_555
Co5 F3 2.076645 1_555
