# generated using pymatgen
data_Li2VBO4
_symmetry_space_group_name_H-M   'P 1'
_cell_length_a   6.24825708
_cell_length_b   5.18346700
_cell_length_c   4.75028439
_cell_angle_alpha   89.95149992
_cell_angle_beta   89.98911318
_cell_angle_gamma   89.96637779
_symmetry_Int_Tables_number   1
_chemical_formula_structural   Li2VBO4
_chemical_formula_sum   'Li4 V2 B2 O8'
_cell_volume   153.85038978
_cell_formula_units_Z   2
loop_
 _symmetry_equiv_pos_site_id
 _symmetry_equiv_pos_as_xyz
  1  'x, y, z'
loop_
 _atom_site_type_symbol
 _atom_site_label
 _atom_site_symmetry_multiplicity
 _atom_site_fract_x
 _atom_site_fract_y
 _atom_site_fract_z
 _atom_site_occupancy
  Li  Li0  1  0.24688300  0.35185700  0.49236600  1
  Li  Li1  1  0.49554200  0.19017600  0.99558100  1
  Li  Li2  1  0.74638400  0.64815700  0.99084500  1
  Li  Li3  1  0.99475000  0.80983700  0.49428700  1
  V  V0  1  0.00568400  0.17560000  0.99043900  1
  V  V1  1  0.50510800  0.82418600  0.48997900  1
  B  B0  1  0.24767600  0.67893200  0.00612500  1
  B  B1  1  0.74771500  0.32099300  0.50614400  1
  O  O0  1  0.04851100  0.81403100  0.90364700  1
  O  O1  1  0.24289500  0.40298200  0.91056700  1
  O  O2  1  0.25077600  0.69188900  0.31949400  1
  O  O3  1  0.44840600  0.81003800  0.90022200  1
  O  O4  1  0.54859300  0.18602300  0.40448900  1
  O  O5  1  0.74243600  0.59683600  0.40948400  1
  O  O6  1  0.75114000  0.30827400  0.81943200  1
  O  O7  1  0.94844900  0.19006700  0.40029200  1
loop_
_geom_bond_atom_site_label_1
_geom_bond_atom_site_label_2
_geom_bond_distance
_geom_bond_site_symmetry_2
Li0 O2 1.943991 1_555
Li0 O1 2.004542 1_555
Li0 O7 2.091518 1_455
Li0 O4 2.113150 1_555
Li1 O6 1.904000 1_555
Li1 O1 1.967051 1_555
Li1 O4 1.970669 1_556
Li1 O3 2.043718 1_545
Li2 O6 1.941675 1_555
Li2 O5 2.006294 1_556
Li2 O3 2.086560 1_555
Li2 O0 2.115539 1_655
Li3 O2 1.903026 1_655
Li3 O5 1.967166 1_555
Li3 O0 1.973579 1_655
Li3 O7 2.040940 1_565
B0 O2 1.490293 1_555
B0 O1 1.501359 1_554
B0 O0 1.508182 1_554
B0 O3 1.512661 1_554
B1 O6 1.489768 1_555
B1 O5 1.501716 1_555
B1 O4 1.507452 1_555
B1 O7 1.511904 1_555
O0 V0 1.937736 1_565
O1 V0 1.931575 1_555
O2 V1 1.911589 1_555
O3 V1 1.981952 1_555
O4 V1 1.937982 1_545
O5 V1 1.931950 1_555
O6 V0 1.913281 1_655
O7 V0 1.980898 1_654
