# generated using pymatgen
data_Ho2Pt2O7
_symmetry_space_group_name_H-M   'P 1'
_cell_length_a   7.18520204
_cell_length_b   7.18520204
_cell_length_c   7.18520204
_cell_angle_alpha   60.00000000
_cell_angle_beta   60.00000000
_cell_angle_gamma   60.00000000
_symmetry_Int_Tables_number   1
_chemical_formula_structural   Ho2Pt2O7
_chemical_formula_sum   'Ho4 Pt4 O14'
_cell_volume   262.30221416
_cell_formula_units_Z   2
loop_
 _symmetry_equiv_pos_site_id
 _symmetry_equiv_pos_as_xyz
  1  'x, y, z'
loop_
 _atom_site_type_symbol
 _atom_site_label
 _atom_site_symmetry_multiplicity
 _atom_site_fract_x
 _atom_site_fract_y
 _atom_site_fract_z
 _atom_site_occupancy
  Ho  Ho0  1  0.62500000  0.62500000  0.12500000  1
  Ho  Ho1  1  0.62500000  0.62500000  0.62500000  1
  Ho  Ho2  1  0.62500000  0.12500000  0.62500000  1
  Ho  Ho3  1  0.12500000  0.62500000  0.62500000  1
  Pt  Pt0  1  0.12500000  0.12500000  0.12500000  1
  Pt  Pt1  1  0.62500000  0.12500000  0.12500000  1
  Pt  Pt2  1  0.12500000  0.62500000  0.12500000  1
  Pt  Pt3  1  0.12500000  0.12500000  0.62500000  1
  O  O0  1  0.03367674  0.46632326  0.46632326  1
  O  O1  1  0.78367674  0.78367674  0.21632326  1
  O  O2  1  0.78367674  0.21632326  0.21632326  1
  O  O3  1  0.46632326  0.03367674  0.46632326  1
  O  O4  1  0.75000000  0.75000000  0.75000000  1
  O  O5  1  0.03367674  0.03367674  0.46632326  1
  O  O6  1  0.03367674  0.46632326  0.03367674  1
  O  O7  1  0.78367674  0.21632326  0.78367674  1
  O  O8  1  0.21632326  0.78367674  0.21632326  1
  O  O9  1  0.21632326  0.21632326  0.78367674  1
  O  O10  1  0.50000000  0.50000000  0.50000000  1
  O  O11  1  0.46632326  0.03367674  0.03367674  1
  O  O12  1  0.46632326  0.46632326  0.03367674  1
  O  O13  1  0.21632326  0.78367674  0.78367674  1
loop_
_geom_bond_atom_site_label_1
_geom_bond_atom_site_label_2
_geom_bond_distance
_geom_bond_site_symmetry_2
Ho0 O10 2.200010 1_555
Ho0 O4 2.200010 1_554
Ho0 O12 2.413807 1_555
Ho0 O1 2.413807 1_555
Ho0 O2 2.413807 1_555
Ho0 O11 2.413807 1_565
Ho0 O6 2.413807 1_655
Ho0 O8 2.413807 1_555
Ho1 O10 2.200010 1_555
Ho1 O4 2.200010 1_555
Ho1 O3 2.413807 1_565
Ho1 O7 2.413807 1_555
Ho1 O1 2.413807 1_555
Ho1 O12 2.413807 1_556
Ho1 O13 2.413807 1_555
Ho1 O0 2.413807 1_655
Ho2 O10 2.200010 1_555
Ho2 O4 2.200010 1_545
Ho2 O3 2.413807 1_555
Ho2 O7 2.413807 1_555
Ho2 O2 2.413807 1_555
Ho2 O11 2.413807 1_556
Ho2 O5 2.413807 1_655
Ho2 O9 2.413807 1_555
Ho3 O10 2.200010 1_555
Ho3 O4 2.200010 1_455
Ho3 O9 2.413807 1_555
Ho3 O6 2.413807 1_556
Ho3 O0 2.413807 1_555
Ho3 O13 2.413807 1_555
Ho3 O8 2.413807 1_555
Ho3 O5 2.413807 1_565
O0 Pt2 2.021838 1_555
O0 Pt3 2.021838 1_555
O1 Pt2 2.021838 1_655
O1 Pt1 2.021838 1_565
O2 Pt1 2.021838 1_555
O2 Pt0 2.021838 1_655
O3 Pt1 2.021838 1_555
O3 Pt3 2.021838 1_555
O5 Pt3 2.021838 1_555
O5 Pt0 2.021838 1_555
O6 Pt0 2.021838 1_555
O6 Pt2 2.021838 1_555
O7 Pt1 2.021838 1_556
O7 Pt3 2.021838 1_655
O8 Pt2 2.021838 1_555
O8 Pt0 2.021838 1_565
O9 Pt3 2.021838 1_555
O9 Pt0 2.021838 1_556
O11 Pt1 2.021838 1_555
O11 Pt0 2.021838 1_555
O12 Pt1 2.021838 1_555
O12 Pt2 2.021838 1_555
O13 Pt3 2.021838 1_565
O13 Pt2 2.021838 1_556
