# generated using pymatgen
data_LiSiBiO4
_symmetry_space_group_name_H-M   'P 1'
_cell_length_a   4.88537200
_cell_length_b   5.36749200
_cell_length_c   12.48572900
_cell_angle_alpha   90.00000000
_cell_angle_beta   90.00000000
_cell_angle_gamma   90.00000000
_symmetry_Int_Tables_number   1
_chemical_formula_structural   LiSiBiO4
_chemical_formula_sum   'Li4 Si4 Bi4 O16'
_cell_volume   327.40322214
_cell_formula_units_Z   4
loop_
 _symmetry_equiv_pos_site_id
 _symmetry_equiv_pos_as_xyz
  1  'x, y, z'
loop_
 _atom_site_type_symbol
 _atom_site_label
 _atom_site_symmetry_multiplicity
 _atom_site_fract_x
 _atom_site_fract_y
 _atom_site_fract_z
 _atom_site_occupancy
  Li  Li0  1  0.00000000  0.75000000  0.23619400  1
  Li  Li1  1  0.00000000  0.25000000  0.76380600  1
  Li  Li2  1  0.50000000  0.25000000  0.26380600  1
  Li  Li3  1  0.50000000  0.75000000  0.73619400  1
  Si  Si0  1  0.00000000  0.25000000  0.38429600  1
  Si  Si1  1  0.00000000  0.75000000  0.61570400  1
  Si  Si2  1  0.50000000  0.25000000  0.88429600  1
  Si  Si3  1  0.50000000  0.75000000  0.11570400  1
  Bi  Bi0  1  0.00000000  0.25000000  0.10006600  1
  Bi  Bi1  1  0.00000000  0.75000000  0.89993400  1
  Bi  Bi2  1  0.50000000  0.25000000  0.60006600  1
  Bi  Bi3  1  0.50000000  0.75000000  0.39993400  1
  O  O0  1  0.16290700  0.45483500  0.30850100  1
  O  O1  1  0.16290700  0.95483500  0.69149900  1
  O  O2  1  0.25518500  0.60526200  0.04588200  1
  O  O3  1  0.25518500  0.10526200  0.95411800  1
  O  O4  1  0.24481500  0.10526200  0.45411800  1
  O  O5  1  0.24481500  0.60526200  0.54588200  1
  O  O6  1  0.33709300  0.95483500  0.19149900  1
  O  O7  1  0.33709300  0.45483500  0.80850100  1
  O  O8  1  0.66290700  0.54516500  0.19149900  1
  O  O9  1  0.66290700  0.04516500  0.80850100  1
  O  O10  1  0.75518500  0.39473800  0.45411800  1
  O  O11  1  0.75518500  0.89473800  0.54588200  1
  O  O12  1  0.74481500  0.89473800  0.04588200  1
  O  O13  1  0.74481500  0.39473800  0.95411800  1
  O  O14  1  0.83709300  0.04516500  0.30850100  1
  O  O15  1  0.83709300  0.54516500  0.69149900  1
loop_
_geom_bond_atom_site_label_1
_geom_bond_atom_site_label_2
_geom_bond_distance
_geom_bond_site_symmetry_2
Li0 O14 1.989584 1_465
Li0 O0 1.989584 1_555
Li0 O6 2.057241 1_555
Li0 O8 2.057241 1_455
Li1 O1 1.989584 1_545
Li1 O15 1.989584 1_455
Li1 O7 2.057241 1_555
Li1 O9 2.057241 1_455
Li2 O6 1.989584 1_545
Li2 O8 1.989584 1_555
Li2 O14 2.057241 1_555
Li2 O0 2.057241 1_555
Li3 O9 1.989584 1_565
Li3 O7 1.989584 1_555
Li3 O1 2.057241 1_555
Li3 O15 2.057241 1_555
Bi0 O13 2.340597 1_454
Bi0 O3 2.340597 1_554
Bi0 O2 2.376557 1_555
Bi0 O12 2.376557 1_445
Bi0 O6 2.554465 1_545
Bi0 O8 2.554465 1_455
Bi1 O12 2.340597 1_456
Bi1 O2 2.340597 1_556
Bi1 O3 2.376557 1_565
Bi1 O13 2.376557 1_455
Bi1 O7 2.554465 1_555
Bi1 O9 2.554465 1_465
Bi2 O10 2.340597 1_555
Bi2 O4 2.340597 1_555
Bi2 O5 2.376557 1_555
Bi2 O11 2.376557 1_545
Bi2 O15 2.554465 1_555
Bi2 O1 2.554465 1_545
Bi3 O11 2.340597 1_555
Bi3 O5 2.340597 1_555
Bi3 O10 2.376557 1_555
Bi3 O4 2.376557 1_565
Bi3 O14 2.554465 1_565
Bi3 O0 2.554465 1_555
O0 Si0 1.654622 1_555
O1 Si1 1.654622 1_555
O2 Si3 1.671522 1_555
O3 Si2 1.671522 1_555
O4 Si0 1.671522 1_555
O5 Si1 1.671522 1_555
O6 Si3 1.654622 1_555
O7 Si2 1.654622 1_555
O8 Si3 1.654622 1_555
O9 Si2 1.654622 1_555
O10 Si0 1.671522 1_655
O11 Si1 1.671522 1_655
O12 Si3 1.671522 1_555
O13 Si2 1.671522 1_555
O14 Si0 1.654622 1_655
O15 Si1 1.654622 1_655
