# generated using pymatgen
data_Ca5DyTi5Fe(SiO5)6
_symmetry_space_group_name_H-M   'P 1'
_cell_length_a   5.51109500
_cell_length_b   7.51469186
_cell_length_c   14.50805267
_cell_angle_alpha   86.85499967
_cell_angle_beta   85.18229071
_cell_angle_gamma   72.33402525
_symmetry_Int_Tables_number   1
_chemical_formula_structural   Ca5DyTi5Fe(SiO5)6
_chemical_formula_sum   'Ca5 Dy1 Ti5 Fe1 Si6 O30'
_cell_volume   570.20886464
_cell_formula_units_Z   1
loop_
 _symmetry_equiv_pos_site_id
 _symmetry_equiv_pos_as_xyz
  1  'x, y, z'
loop_
 _atom_site_type_symbol
 _atom_site_label
 _atom_site_symmetry_multiplicity
 _atom_site_fract_x
 _atom_site_fract_y
 _atom_site_fract_z
 _atom_site_occupancy
  Ca  Ca0  1  0.06764900  0.10331900  0.63818300  1
  Ca  Ca1  1  0.39530000  0.77579300  0.97258900  1
  Ca  Ca2  1  0.60215000  0.22679600  0.02511400  1
  Ca  Ca3  1  0.93596300  0.89509500  0.36484900  1
  Ca  Ca4  1  0.27090500  0.55721400  0.69350000  1
  Dy  Dy0  1  0.72865700  0.44310600  0.30788400  1
  Ti  Ti0  1  0.66226300  0.84311400  0.16834600  1
  Ti  Ti1  1  0.99400800  0.50560400  0.00030600  1
  Ti  Ti2  1  0.00638600  0.49389800  0.50057900  1
  Ti  Ti3  1  0.33186900  0.16843000  0.83372000  1
  Ti  Ti4  1  0.66643300  0.83233300  0.66590400  1
  Fe  Fe0  1  0.33364900  0.16464300  0.33494800  1
  Si  Si0  1  0.06695700  0.11140000  0.14448700  1
  Si  Si1  1  0.40669800  0.77053400  0.47619700  1
  Si  Si2  1  0.26268300  0.55624000  0.18998000  1
  Si  Si3  1  0.74107500  0.43938800  0.80945100  1
  Si  Si4  1  0.59708200  0.22784500  0.52328700  1
  Si  Si5  1  0.92541100  0.89437100  0.85594100  1
  O  O0  1  0.43488000  0.68577400  0.22226900  1
  O  O1  1  0.73850500  0.69033000  0.05989000  1
  O  O2  1  0.76995900  0.35392700  0.55679800  1
  O  O3  1  0.93115700  0.31529900  0.09458100  1
  O  O4  1  0.03898500  0.14190900  0.25717500  1
  O  O5  1  0.96203000  0.63799000  0.23230200  1
  O  O6  1  0.06188800  0.36180700  0.39251400  1
  O  O7  1  0.10047500  0.02191700  0.88584600  1
  O  O8  1  0.26719100  0.97815000  0.43201800  1
  O  O9  1  0.36751000  0.01760500  0.10462700  1
  O  O10  1  0.39830300  0.78755900  0.58979100  1
  O  O11  1  0.27375600  0.53943700  0.07647900  1
  O  O12  1  0.29752000  0.31726100  0.56498000  1
  O  O13  1  0.41660300  0.35335200  0.23761900  1
  O  O14  1  0.41024100  0.02291000  0.72567200  1
  O  O15  1  0.60144800  0.96798100  0.27474100  1
  O  O16  1  0.60543400  0.64554900  0.76106000  1
  O  O17  1  0.70144500  0.67289200  0.43051300  1
  O  O18  1  0.72521300  0.46222700  0.92278100  1
  O  O19  1  0.61417500  0.21956500  0.40921100  1
  O  O20  1  0.62829200  0.98582000  0.89904200  1
  O  O21  1  0.73072100  0.01793000  0.56772900  1
  O  O22  1  0.90007300  0.97767000  0.11384400  1
  O  O23  1  0.92945100  0.64657800  0.60433800  1
  O  O24  1  0.03863200  0.34726100  0.76720400  1
  O  O25  1  0.94047900  0.87268500  0.74257300  1
  O  O26  1  0.06288100  0.68768700  0.90402800  1
  O  O27  1  0.23545400  0.64036500  0.44506100  1
  O  O28  1  0.25679800  0.30985000  0.93951400  1
  O  O29  1  0.56536200  0.31159000  0.78053500  1
loop_
_geom_bond_atom_site_label_1
_geom_bond_atom_site_label_2
_geom_bond_distance
_geom_bond_site_symmetry_2
Ca0 O14 2.273092 1_555
Ca0 O2 2.416296 1_455
Ca0 O21 2.453227 1_455
Ca0 O25 2.461623 1_445
Ca0 O12 2.477969 1_555
Ca0 O10 2.605278 1_545
Ca0 O24 2.652944 1_555
Ca1 O1 2.273776 1_556
Ca1 O26 2.428680 1_555
Ca1 O7 2.430783 1_565
Ca1 O20 2.468476 1_555
Ca1 O11 2.476672 1_556
Ca1 O18 2.597350 1_555
Ca1 O9 2.675594 1_566
Ca2 O28 2.268317 1_554
Ca2 O3 2.420351 1_555
Ca2 O18 2.462745 1_554
Ca2 O22 2.466313 1_545
Ca2 O9 2.501668 1_555
Ca2 O11 2.595251 1_555
Ca2 O20 2.608880 1_544
Ca3 O15 2.262977 1_555
Ca3 O8 2.393405 1_655
Ca3 O27 2.429674 1_655
Ca3 O17 2.508914 1_555
Ca3 O4 2.524857 1_665
Ca3 O19 2.619256 1_565
Ca3 O5 2.764823 1_555
Ca4 O23 2.282976 1_455
Ca4 O29 2.430078 1_555
Ca4 O16 2.432695 1_555
Ca4 O10 2.455092 1_555
Ca4 O24 2.466169 1_555
Ca4 O25 2.605821 1_455
Ca4 O12 2.629075 1_555
Dy0 O6 2.206552 1_655
Dy0 O13 2.350660 1_555
Dy0 O19 2.365904 1_555
Dy0 O5 2.394035 1_555
Dy0 O0 2.405587 1_555
Dy0 O4 2.492210 1_655
Dy0 O17 2.510888 1_555
Fe0 O6 1.927355 1_555
Fe0 O15 1.930420 1_545
Fe0 O8 2.022326 1_545
Fe0 O13 2.068624 1_555
Fe0 O4 2.106361 1_555
Fe0 O19 2.106451 1_555
O0 Si2 1.659195 1_555
O0 Ti0 2.052665 1_555
O1 Ti1 1.843328 1_555
O1 Ti0 1.940354 1_555
O2 Si4 1.648637 1_555
O2 Ti2 2.007117 1_655
O3 Si0 1.644808 1_655
O3 Ti1 2.010545 1_555
O4 Si0 1.651216 1_555
O5 Si2 1.659071 1_655
O5 Ti0 2.126316 1_555
O6 Ti2 1.855486 1_555
O7 Si5 1.647700 1_445
O7 Ti3 2.002283 1_555
O8 Si1 1.637401 1_555
O9 Si0 1.658327 1_555
O9 Ti0 2.009758 1_545
O10 Si1 1.655669 1_555
O10 Ti4 2.032919 1_555
O11 Si2 1.653021 1_555
O11 Ti1 2.053716 1_455
O12 Si4 1.657251 1_555
O12 Ti2 2.008067 1_555
O13 Si2 1.649145 1_555
O14 Ti4 1.870754 1_545
O14 Ti3 1.904558 1_555
O15 Ti0 1.804609 1_555
O16 Si3 1.648557 1_555
O16 Ti4 1.996207 1_555
O17 Si1 1.662950 1_555
O17 Ti2 2.105183 1_655
O18 Si3 1.654750 1_555
O18 Ti1 2.044226 1_556
O19 Si4 1.653298 1_555
O20 Si5 1.654302 1_555
O20 Ti3 2.051019 1_565
O21 Si4 1.646064 1_555
O21 Ti4 2.024008 1_545
O22 Si0 1.652902 1_665
O22 Ti0 1.976820 1_555
O23 Ti4 1.881145 1_555
O23 Ti2 1.883950 1_655
O24 Si3 1.653119 1_455
O24 Ti3 2.037254 1_555
O25 Si5 1.654360 1_555
O25 Ti4 2.051179 1_555
O26 Si5 1.651884 1_455
O26 Ti1 1.995952 1_456
O27 Si1 1.652853 1_555
O27 Ti2 2.007274 1_555
O28 Ti3 1.860599 1_555
O28 Ti1 1.916778 1_456
O29 Si3 1.647094 1_555
O29 Ti3 1.997733 1_555
