# generated using pymatgen
data_Sb5O7F
_symmetry_space_group_name_H-M   'P 1'
_cell_length_a   4.15791300
_cell_length_b   10.10533385
_cell_length_c   13.09230715
_cell_angle_alpha   72.23113907
_cell_angle_beta   81.10000397
_cell_angle_gamma   78.27142015
_symmetry_Int_Tables_number   1
_chemical_formula_structural   Sb5O7F
_chemical_formula_sum   'Sb10 O14 F2'
_cell_volume   510.38122355
_cell_formula_units_Z   2
loop_
 _symmetry_equiv_pos_site_id
 _symmetry_equiv_pos_as_xyz
  1  'x, y, z'
loop_
 _atom_site_type_symbol
 _atom_site_label
 _atom_site_symmetry_multiplicity
 _atom_site_fract_x
 _atom_site_fract_y
 _atom_site_fract_z
 _atom_site_occupancy
  Sb  Sb0  1  0.46344500  0.73646500  0.33990100  1
  Sb  Sb1  1  0.89207400  0.66594200  0.55880400  1
  Sb  Sb2  1  0.22625100  0.66291700  0.88865900  1
  Sb  Sb3  1  0.40255100  0.06016400  0.12779900  1
  Sb  Sb4  1  0.76723700  0.09797700  0.35602100  1
  Sb  Sb5  1  0.23276300  0.90202300  0.64397900  1
  Sb  Sb6  1  0.59744900  0.93983600  0.87220100  1
  Sb  Sb7  1  0.77374900  0.33708300  0.11134100  1
  Sb  Sb8  1  0.10792600  0.33405800  0.44119600  1
  Sb  Sb9  1  0.53655500  0.26353500  0.66009900  1
  O  O0  1  0.93898900  0.73523800  0.39064100  1
  O  O1  1  0.39698900  0.71124400  0.50132000  1
  O  O2  1  0.29155500  0.69697500  0.72089900  1
  O  O3  1  0.38318400  0.94891000  0.28762700  1
  O  O4  1  0.69890100  0.73683500  0.87219700  1
  O  O5  1  0.78460400  0.85355300  0.58560200  1
  O  O6  1  0.85622700  0.10419600  0.17509100  1
  O  O7  1  0.14377300  0.89580400  0.82490900  1
  O  O8  1  0.21539600  0.14644700  0.41439800  1
  O  O9  1  0.30109900  0.26316500  0.12780300  1
  O  O10  1  0.61681600  0.05109000  0.71237300  1
  O  O11  1  0.70844500  0.30302500  0.27910100  1
  O  O12  1  0.60301100  0.28875600  0.49868000  1
  O  O13  1  0.06101100  0.26476200  0.60935900  1
  F  F0  1  0.87573700  0.25237500  0.97701200  1
  F  F1  1  0.12426300  0.74762500  0.02298800  1
loop_
_geom_bond_atom_site_label_1
_geom_bond_atom_site_label_2
_geom_bond_distance
_geom_bond_site_symmetry_2
O0 Sb1 2.087412 1_555
O0 Sb0 2.177724 1_555
O0 Sb0 2.180456 1_655
O1 Sb0 2.031437 1_555
O1 Sb1 2.207937 1_455
O1 Sb1 2.213468 1_555
O2 Sb5 1.990992 1_555
O2 Sb2 2.099591 1_555
O3 Sb0 2.017734 1_555
O3 Sb3 2.048868 1_565
O4 Sb6 2.008583 1_555
O4 Sb2 2.189595 1_655
O4 Sb2 2.198648 1_555
O5 Sb1 1.982462 1_555
O5 Sb5 2.306029 1_555
O5 Sb5 2.310098 1_655
O6 Sb7 2.216819 1_555
O6 Sb3 2.238398 1_555
O6 Sb3 2.250202 1_655
O6 Sb4 2.323665 1_555
O7 Sb2 2.216819 1_555
O7 Sb6 2.238398 1_555
O7 Sb6 2.250202 1_455
O7 Sb5 2.323665 1_555
O8 Sb8 1.982462 1_555
O8 Sb4 2.306029 1_555
O8 Sb4 2.310098 1_455
O9 Sb3 2.008583 1_555
O9 Sb7 2.189595 1_455
O9 Sb7 2.198648 1_555
O10 Sb9 2.017734 1_555
O10 Sb6 2.048868 1_545
O11 Sb4 1.990992 1_555
O11 Sb7 2.099591 1_555
O12 Sb9 2.031437 1_555
O12 Sb8 2.207937 1_655
O12 Sb8 2.213468 1_555
O13 Sb8 2.087412 1_555
O13 Sb9 2.177724 1_555
O13 Sb9 2.180456 1_455
F0 Sb7 2.132140 1_556
F1 Sb2 2.132140 1_554
