# generated using pymatgen
data_Li2AgF4
_symmetry_space_group_name_H-M   'P 1'
_cell_length_a   5.33020200
_cell_length_b   9.98086500
_cell_length_c   18.91493000
_cell_angle_alpha   90.00000000
_cell_angle_beta   90.00000000
_cell_angle_gamma   90.00000000
_symmetry_Int_Tables_number   1
_chemical_formula_structural   Li2AgF4
_chemical_formula_sum   'Li24 Ag12 F48'
_cell_volume   1006.27477885
_cell_formula_units_Z   12
loop_
 _symmetry_equiv_pos_site_id
 _symmetry_equiv_pos_as_xyz
  1  'x, y, z'
loop_
 _atom_site_type_symbol
 _atom_site_label
 _atom_site_symmetry_multiplicity
 _atom_site_fract_x
 _atom_site_fract_y
 _atom_site_fract_z
 _atom_site_occupancy
  Li  Li0  1  0.20341200  0.42306600  0.89169200  1
  Li  Li1  1  0.20341200  0.07693400  0.39169200  1
  Li  Li2  1  0.23321900  0.72557300  0.50678600  1
  Li  Li3  1  0.23321900  0.77442700  0.00678600  1
  Li  Li4  1  0.23228500  0.44132800  0.55156000  1
  Li  Li5  1  0.23228500  0.05867200  0.05156000  1
  Li  Li6  1  0.26386000  0.75265500  0.83318100  1
  Li  Li7  1  0.26386000  0.74734500  0.33318100  1
  Li  Li8  1  0.29642600  0.77087800  0.68871700  1
  Li  Li9  1  0.29642600  0.72912200  0.18871700  1
  Li  Li10  1  0.29899500  0.09921000  0.70857500  1
  Li  Li11  1  0.29899500  0.40079000  0.20857500  1
  Li  Li12  1  0.70341200  0.92306600  0.60830800  1
  Li  Li13  1  0.70341200  0.57693400  0.10830800  1
  Li  Li14  1  0.73321900  0.22557300  0.99321400  1
  Li  Li15  1  0.73321900  0.27442700  0.49321400  1
  Li  Li16  1  0.73228500  0.94132800  0.94844000  1
  Li  Li17  1  0.73228500  0.55867200  0.44844000  1
  Li  Li18  1  0.76386000  0.25265500  0.66681900  1
  Li  Li19  1  0.76386000  0.24734500  0.16681900  1
  Li  Li20  1  0.79642600  0.27087800  0.81128300  1
  Li  Li21  1  0.79642600  0.22912200  0.31128300  1
  Li  Li22  1  0.79899500  0.59921000  0.79142500  1
  Li  Li23  1  0.79899500  0.90079000  0.29142500  1
  Ag  Ag0  1  0.19217300  0.10580700  0.55553300  1
  Ag  Ag1  1  0.19217300  0.39419300  0.05553300  1
  Ag  Ag2  1  0.28486400  0.11227800  0.89015400  1
  Ag  Ag3  1  0.28486400  0.38772200  0.39015400  1
  Ag  Ag4  1  0.32628900  0.44322300  0.73706500  1
  Ag  Ag5  1  0.32628900  0.05677700  0.23706500  1
  Ag  Ag6  1  0.69217300  0.60580700  0.94446700  1
  Ag  Ag7  1  0.69217300  0.89419300  0.44446700  1
  Ag  Ag8  1  0.78486400  0.61227800  0.60984600  1
  Ag  Ag9  1  0.78486400  0.88772200  0.10984600  1
  Ag  Ag10  1  0.82628900  0.55677700  0.26293500  1
  Ag  Ag11  1  0.82628900  0.94322300  0.76293500  1
  F  F0  1  0.00275000  0.73176700  0.74440000  1
  F  F1  1  0.00275000  0.76823300  0.24440000  1
  F  F2  1  0.00795900  0.43462200  0.80100500  1
  F  F3  1  0.00795900  0.06537800  0.30100500  1
  F  F4  1  0.02498900  0.64428000  0.88681400  1
  F  F5  1  0.02498900  0.85572000  0.38681400  1
  F  F6  1  0.02699900  0.96464500  0.65323300  1
  F  F7  1  0.02699900  0.53535500  0.15323300  1
  F  F8  1  0.06854100  0.94653800  0.98444900  1
  F  F9  1  0.06854100  0.55346200  0.48444900  1
  F  F10  1  0.13170100  0.52376100  0.64092200  1
  F  F11  1  0.13170100  0.97623900  0.14092200  1
  F  F12  1  0.14893900  0.95002800  0.82708700  1
  F  F13  1  0.14893900  0.54997200  0.32708700  1
  F  F14  1  0.38379300  0.94054900  0.50855500  1
  F  F15  1  0.38379300  0.55945100  0.00855500  1
  F  F16  1  0.40391900  0.28270500  0.94987500  1
  F  F17  1  0.40391900  0.21729500  0.44987500  1
  F  F18  1  0.44428600  0.72520700  0.59719700  1
  F  F19  1  0.44428600  0.77479300  0.09719700  1
  F  F20  1  0.48945300  0.68336900  0.76382100  1
  F  F21  1  0.48945300  0.81663100  0.26382100  1
  F  F22  1  0.49410400  0.78855300  0.92480300  1
  F  F23  1  0.49410400  0.71144700  0.42480300  1
  F  F24  1  0.50275000  0.23176700  0.75560000  1
  F  F25  1  0.50275000  0.26823300  0.25560000  1
  F  F26  1  0.50795900  0.56537800  0.19899500  1
  F  F27  1  0.50795900  0.93462200  0.69899500  1
  F  F28  1  0.52498900  0.14428000  0.61318600  1
  F  F29  1  0.52498900  0.35572000  0.11318600  1
  F  F30  1  0.52699900  0.46464500  0.84676700  1
  F  F31  1  0.52699900  0.03535500  0.34676700  1
  F  F32  1  0.56854100  0.44653800  0.51555100  1
  F  F33  1  0.56854100  0.05346200  0.01555100  1
  F  F34  1  0.63170100  0.02376100  0.85907800  1
  F  F35  1  0.63170100  0.47623900  0.35907800  1
  F  F36  1  0.64893900  0.04997200  0.17291300  1
  F  F37  1  0.64893900  0.45002800  0.67291300  1
  F  F38  1  0.88379300  0.44054900  0.99144500  1
  F  F39  1  0.88379300  0.05945100  0.49144500  1
  F  F40  1  0.90391900  0.71729500  0.05012500  1
  F  F41  1  0.90391900  0.78270500  0.55012500  1
  F  F42  1  0.94428600  0.22520700  0.90280300  1
  F  F43  1  0.94428600  0.27479300  0.40280300  1
  F  F44  1  0.98945300  0.18336900  0.73617900  1
  F  F45  1  0.98945300  0.31663100  0.23617900  1
  F  F46  1  0.99410400  0.21144700  0.07519700  1
  F  F47  1  0.99410400  0.28855300  0.57519700  1
loop_
_geom_bond_atom_site_label_1
_geom_bond_atom_site_label_2
_geom_bond_distance
_geom_bond_site_symmetry_2
Ag0 F39 2.094131 1_455
Ag0 F28 2.117461 1_555
Ag0 F14 2.133862 1_545
Ag0 F47 2.140044 1_455
Ag0 F6 2.485003 1_545
Ag0 F17 2.550708 1_555
Ag1 F38 2.094131 1_454
Ag1 F29 2.117461 1_555
Ag1 F15 2.133862 1_555
Ag1 F46 2.140044 1_455
Ag1 F7 2.485003 1_555
Ag1 F16 2.550708 1_554
Ag2 F34 2.131613 1_555
Ag2 F12 2.137845 1_545
Ag2 F16 2.138263 1_555
Ag2 F42 2.150153 1_455
Ag3 F35 2.131613 1_555
Ag3 F13 2.137845 1_555
Ag3 F17 2.138263 1_555
Ag3 F43 2.150153 1_455
Ag4 F2 2.085443 1_555
Ag4 F37 2.105874 1_555
Ag4 F10 2.242545 1_555
Ag4 F24 2.337062 1_555
Ag4 F30 2.344331 1_555
Ag4 F20 2.599511 1_555
Ag5 F3 2.085443 1_555
Ag5 F36 2.105874 1_555
Ag5 F11 2.242545 1_545
Ag5 F25 2.337062 1_555
Ag5 F31 2.344331 1_555
Ag5 F21 2.599511 1_545
Ag6 F15 2.094131 1_556
Ag6 F4 2.117461 1_655
Ag6 F38 2.133862 1_555
Ag6 F22 2.140044 1_555
Ag6 F30 2.485003 1_555
Ag6 F40 2.550708 1_556
Ag7 F14 2.094131 1_555
Ag7 F5 2.117461 1_655
Ag7 F39 2.133862 1_565
Ag7 F23 2.140044 1_555
Ag7 F31 2.485003 1_565
Ag7 F41 2.550708 1_555
Ag8 F10 2.131613 1_655
Ag8 F37 2.137845 1_555
Ag8 F41 2.138263 1_555
Ag8 F18 2.150153 1_555
Ag9 F11 2.131613 1_655
Ag9 F36 2.137845 1_565
Ag9 F40 2.138263 1_555
Ag9 F19 2.150153 1_555
Ag10 F26 2.085443 1_555
Ag10 F13 2.105874 1_655
Ag10 F35 2.242545 1_555
Ag10 F1 2.337062 1_655
Ag10 F7 2.344331 1_655
Ag10 F45 2.599511 1_555
Ag11 F27 2.085443 1_555
Ag11 F12 2.105874 1_655
Ag11 F34 2.242545 1_565
Ag11 F0 2.337062 1_655
Ag11 F6 2.344331 1_655
Ag11 F44 2.599511 1_565
F0 Li8 1.926662 1_555
F0 Li22 1.929015 1_455
F0 Li6 2.191002 1_555
F1 Li9 1.926662 1_555
F1 Li23 1.929015 1_455
F1 Li7 2.191002 1_555
F2 Li22 1.992986 1_455
F2 Li20 1.995004 1_455
F2 Li0 2.010235 1_555
F3 Li23 1.992986 1_445
F3 Li21 1.995004 1_455
F3 Li1 2.010235 1_555
F4 Li6 1.954553 1_555
F4 Li22 2.215584 1_455
F4 Li0 2.405790 1_555
F5 Li7 1.954553 1_555
F5 Li23 2.215584 1_455
F5 Li1 2.405790 1_565
F6 Li12 1.967023 1_455
F6 Li10 2.236408 1_565
F6 Li8 2.500615 1_555
F7 Li13 1.967023 1_455
F7 Li11 2.236408 1_555
F7 Li9 2.500615 1_555
F8 Li5 1.904135 1_566
F8 Li16 1.918071 1_455
F8 Li3 1.974811 1_556
F9 Li4 1.904135 1_555
F9 Li17 1.918071 1_455
F9 Li2 1.974811 1_555
F10 Li4 1.954838 1_555
F11 Li5 1.954838 1_565
F12 Li6 2.066210 1_555
F13 Li7 2.066210 1_555
F14 Li2 2.291085 1_555
F14 Li12 2.548119 1_555
F15 Li3 2.291085 1_555
F15 Li13 2.548119 1_555
F16 Li14 2.019408 1_555
F16 Li0 2.077489 1_555
F17 Li15 2.019408 1_555
F17 Li1 2.077489 1_555
F18 Li8 1.955917 1_555
F18 Li2 2.047000 1_555
F18 Li12 2.419032 1_555
F19 Li9 1.955917 1_555
F19 Li3 2.047000 1_555
F19 Li13 2.419032 1_555
F20 Li6 1.909268 1_555
F20 Li22 1.923649 1_555
F20 Li8 1.959465 1_555
F21 Li7 1.909268 1_555
F21 Li23 1.923649 1_555
F21 Li9 1.959465 1_555
F22 Li16 2.033901 1_555
F22 Li3 2.087640 1_556
F22 Li6 2.153574 1_555
F23 Li17 2.033901 1_555
F23 Li2 2.087640 1_555
F23 Li7 2.153574 1_555
F24 Li20 1.926662 1_555
F24 Li10 1.929015 1_555
F24 Li18 2.191002 1_555
F25 Li21 1.926662 1_555
F25 Li11 1.929015 1_555
F25 Li19 2.191002 1_555
F26 Li11 1.992986 1_555
F26 Li9 1.995004 1_555
F26 Li13 2.010235 1_555
F27 Li10 1.992986 1_565
F27 Li8 1.995004 1_555
F27 Li12 2.010235 1_555
F28 Li18 1.954553 1_555
F28 Li10 2.215584 1_555
F28 Li12 2.405790 1_545
F29 Li19 1.954553 1_555
F29 Li11 2.215584 1_555
F29 Li13 2.405790 1_555
F30 Li0 1.967023 1_555
F30 Li22 2.236408 1_555
F30 Li20 2.500615 1_555
F31 Li1 1.967023 1_555
F31 Li23 2.236408 1_545
F31 Li21 2.500615 1_555
F32 Li17 1.904135 1_555
F32 Li4 1.918071 1_555
F32 Li15 1.974811 1_555
F33 Li16 1.904135 1_544
F33 Li5 1.918071 1_555
F33 Li14 1.974811 1_554
F34 Li16 1.954838 1_545
F35 Li17 1.954838 1_555
F36 Li19 2.066210 1_555
F37 Li18 2.066210 1_555
F38 Li14 2.291085 1_555
F38 Li0 2.548119 1_655
F39 Li15 2.291085 1_555
F39 Li1 2.548119 1_655
F40 Li3 2.019408 1_655
F40 Li13 2.077489 1_555
F41 Li2 2.019408 1_655
F41 Li12 2.077489 1_555
F42 Li20 1.955917 1_555
F42 Li14 2.047000 1_555
F42 Li0 2.419032 1_655
F43 Li21 1.955917 1_555
F43 Li15 2.047000 1_555
F43 Li1 2.419032 1_655
F44 Li18 1.909268 1_555
F44 Li10 1.923649 1_655
F44 Li20 1.959465 1_555
F45 Li19 1.909268 1_555
F45 Li11 1.923649 1_655
F45 Li21 1.959465 1_555
F46 Li5 2.033901 1_655
F46 Li14 2.087640 1_554
F46 Li19 2.153574 1_555
F47 Li4 2.033901 1_655
F47 Li15 2.087640 1_555
F47 Li18 2.153574 1_555
