# generated using pymatgen
data_Li3Mn3(PO4)4
_symmetry_space_group_name_H-M   'P 1'
_cell_length_a   8.10125700
_cell_length_b   9.06890771
_cell_length_c   13.42394240
_cell_angle_alpha   94.58377159
_cell_angle_beta   90.09851814
_cell_angle_gamma   90.02273154
_symmetry_Int_Tables_number   1
_chemical_formula_structural   Li3Mn3(PO4)4
_chemical_formula_sum   'Li9 Mn9 P12 O48'
_cell_volume   983.09497068
_cell_formula_units_Z   3
loop_
 _symmetry_equiv_pos_site_id
 _symmetry_equiv_pos_as_xyz
  1  'x, y, z'
loop_
 _atom_site_type_symbol
 _atom_site_label
 _atom_site_symmetry_multiplicity
 _atom_site_fract_x
 _atom_site_fract_y
 _atom_site_fract_z
 _atom_site_occupancy
  Li  Li0  1  0.51475400  0.34261000  0.83389400  1
  Li  Li1  1  0.48490600  0.99219300  0.49805600  1
  Li  Li2  1  0.85387700  0.44250400  0.82660000  1
  Li  Li3  1  0.35243700  0.05527200  0.17509100  1
  Li  Li4  1  0.99601400  0.82065200  0.83968900  1
  Li  Li5  1  0.00870300  0.51344900  0.49808900  1
  Li  Li6  1  0.01671600  0.15652500  0.16637100  1
  Li  Li7  1  0.14765600  0.89226600  0.50575500  1
  Li  Li8  1  0.49303400  0.68183000  0.16305100  1
  Mn  Mn0  1  0.14417000  0.22416300  0.83197800  1
  Mn  Mn1  1  0.85717900  0.10794800  0.50185800  1
  Mn  Mn2  1  0.34807300  0.71453200  0.84429500  1
  Mn  Mn3  1  0.35079600  0.38880000  0.49912700  1
  Mn  Mn4  1  0.64490800  0.94172700  0.83599900  1
  Mn  Mn5  1  0.64545400  0.61464100  0.49616100  1
  Mn  Mn6  1  0.64101500  0.27292100  0.16874200  1
  Mn  Mn7  1  0.15211800  0.55590300  0.17127600  1
  Mn  Mn8  1  0.84989600  0.78683200  0.15549600  1
  P  P0  1  0.80396000  0.14596200  0.94555500  1
  P  P1  1  0.30274600  0.02345700  0.71959900  1
  P  P2  1  0.70167300  0.63516500  0.94433700  1
  P  P3  1  0.69832800  0.30927600  0.61354700  1
  P  P4  1  0.20290200  0.51895200  0.72158500  1
  P  P5  1  0.19392700  0.18717100  0.38587000  1
  P  P6  1  0.79762500  0.81479400  0.61254900  1
  P  P7  1  0.80114600  0.47611800  0.27784600  1
  P  P8  1  0.29803300  0.69717100  0.38894000  1
  P  P9  1  0.30285500  0.35464800  0.05474000  1
  P  P10  1  0.70386000  0.98062500  0.27912400  1
  P  P11  1  0.20018200  0.86422100  0.05586300  1
  O  O0  1  0.13244200  0.01587500  0.77590900  1
  O  O1  1  0.63316400  0.15078200  0.88920800  1
  O  O2  1  0.93312800  0.24441700  0.89818500  1
  O  O3  1  0.29287500  0.31658300  0.94288400  1
  O  O4  1  0.34352300  0.19169300  0.75077700  1
  O  O5  1  0.63659400  0.47880200  0.92712300  1
  O  O6  1  0.65674800  0.14161000  0.58256600  1
  O  O7  1  0.70303200  0.34974400  0.72353600  1
  O  O8  1  0.08277100  0.41314700  0.76877200  1
  O  O9  1  0.71016700  0.01395400  0.39185700  1
  O  O10  1  0.06723900  0.08859200  0.43666000  1
  O  O11  1  0.37868100  0.51805800  0.77240900  1
  O  O12  1  0.86444200  0.65563100  0.89161000  1
  O  O13  1  0.36606000  0.18338000  0.44224800  1
  O  O14  1  0.86797100  0.31766900  0.55682200  1
  O  O15  1  0.56918600  0.74845000  0.89891700  1
  O  O16  1  0.20497400  0.81504600  0.94126900  1
  O  O17  1  0.57068900  0.41076400  0.56061500  1
  O  O18  1  0.20872600  0.48609800  0.60839400  1
  O  O19  1  0.58243600  0.08584400  0.23135300  1
  O  O20  1  0.15604700  0.68462000  0.75312700  1
  O  O21  1  0.20270200  0.15101200  0.27533200  1
  O  O22  1  0.15498400  0.35665000  0.41699900  1
  O  O23  1  0.13622600  0.02113000  0.07223400  1
  O  O24  1  0.84151000  0.97633800  0.91829200  1
  O  O25  1  0.84162900  0.64741200  0.58170700  1
  O  O26  1  0.78990500  0.84849600  0.72532100  1
  O  O27  1  0.84217600  0.30835000  0.25118000  1
  O  O28  1  0.42974500  0.92174400  0.77178900  1
  O  O29  1  0.79076100  0.51554000  0.39007300  1
  O  O30  1  0.42967200  0.58351900  0.43600300  1
  O  O31  1  0.79189300  0.18582200  0.05705800  1
  O  O32  1  0.43109500  0.25364800  0.10173800  1
  O  O33  1  0.13412100  0.67662600  0.44073500  1
  O  O34  1  0.62254800  0.81541700  0.56014200  1
  O  O35  1  0.13118700  0.35020900  0.10923400  1
  O  O36  1  0.63173200  0.48432000  0.22235200  1
  O  O37  1  0.91887200  0.91875500  0.56510700  1
  O  O38  1  0.29770900  0.98442800  0.60938700  1
  O  O39  1  0.93117800  0.57782800  0.23163000  1
  O  O40  1  0.29686400  0.64529400  0.27541100  1
  O  O41  1  0.36285400  0.85322500  0.40769500  1
  O  O42  1  0.34382100  0.52278000  0.08411200  1
  O  O43  1  0.65893100  0.81444300  0.24689900  1
  O  O44  1  0.70660400  0.68469700  0.05853000  1
  O  O45  1  0.06892300  0.75127600  0.10108600  1
  O  O46  1  0.36423700  0.84438500  0.10768900  1
  O  O47  1  0.87828000  0.98357000  0.22693600  1
loop_
_geom_bond_atom_site_label_1
_geom_bond_atom_site_label_2
_geom_bond_distance
_geom_bond_site_symmetry_2
Li0 O5 1.952886 1_555
Li0 O7 2.132690 1_555
Li0 O11 2.153201 1_555
Li0 O1 2.168720 1_555
Li0 O4 2.188950 1_555
Li0 O3 2.343333 1_555
Li1 O41 1.946257 1_555
Li1 O38 2.136092 1_555
Li1 O13 2.168168 1_565
Li1 O34 2.172540 1_555
Li1 O6 2.192844 1_565
Li1 O9 2.335634 1_565
Li2 O7 1.980537 1_555
Li2 O8 2.020974 1_655
Li2 O12 2.057852 1_555
Li2 O2 2.199436 1_555
Li2 O5 2.228328 1_555
Li3 O21 1.963611 1_555
Li3 O19 2.019996 1_555
Li3 O46 2.051676 1_545
Li3 O32 2.212839 1_555
Li3 O23 2.234567 1_555
Li4 O12 2.007393 1_555
Li4 O20 2.080944 1_655
Li4 O24 2.107452 1_555
Li4 O16 2.175066 1_655
Li4 O26 2.293978 1_555
Li4 O0 2.309351 1_665
Li5 O33 1.999659 1_555
Li5 O25 2.087223 1_455
Li5 O22 2.090392 1_555
Li5 O18 2.220511 1_555
Li5 O29 2.283821 1_455
Li5 O14 2.301984 1_455
Li6 O23 1.949136 1_555
Li6 O21 2.101506 1_555
Li6 O47 2.141162 1_445
Li6 O35 2.179467 1_555
Li6 O27 2.224375 1_455
Li6 O31 2.365314 1_455
Li7 O38 1.979681 1_555
Li7 O37 2.025481 1_455
Li7 O33 2.079657 1_555
Li7 O10 2.171997 1_565
Li7 O41 2.198041 1_555
Li8 O46 1.996986 1_555
Li8 O43 2.072850 1_555
Li8 O42 2.101093 1_555
Li8 O44 2.230920 1_555
Li8 O40 2.235651 1_555
Li8 O36 2.308910 1_555
Mn0 O2 1.930313 1_455
Mn0 O4 1.959152 1_555
Mn0 O0 1.978893 1_555
Mn0 O8 2.033803 1_555
Mn0 O3 2.040561 1_555
Mn1 O10 1.916656 1_655
Mn1 O6 1.963953 1_555
Mn1 O14 1.986144 1_555
Mn1 O9 2.029165 1_555
Mn1 O37 2.036325 1_545
Mn2 O16 1.919854 1_555
Mn2 O15 1.949356 1_555
Mn2 O11 1.973291 1_555
Mn2 O20 1.982792 1_555
Mn2 O28 2.282549 1_555
Mn3 O22 1.938850 1_555
Mn3 O13 1.960094 1_555
Mn3 O17 1.965397 1_555
Mn3 O18 2.013581 1_555
Mn3 O30 2.117747 1_555
Mn4 O28 1.945195 1_555
Mn4 O24 1.947762 1_555
Mn4 O1 1.974237 1_565
Mn4 O26 2.026848 1_555
Mn4 O15 2.097516 1_555
Mn5 O30 1.935460 1_555
Mn5 O34 1.959170 1_555
Mn5 O25 1.967645 1_555
Mn5 O29 2.005893 1_555
Mn5 O17 2.188760 1_555
Mn6 O32 1.923810 1_555
Mn6 O27 1.979956 1_555
Mn6 O36 1.994702 1_555
Mn6 O19 2.009645 1_555
Mn6 O31 2.045350 1_555
Mn7 O40 1.949066 1_555
Mn7 O42 1.954915 1_555
Mn7 O39 1.969562 1_455
Mn7 O35 1.988247 1_555
Mn7 O45 2.178758 1_555
Mn8 O44 1.923820 1_555
Mn8 O45 1.937317 1_655
Mn8 O47 1.970118 1_555
Mn8 O43 1.979726 1_555
Mn8 O39 2.319291 1_555
O0 P1 1.578430 1_555
O1 P0 1.578070 1_555
O2 P0 1.545603 1_555
O3 P9 1.515607 1_556
O4 P1 1.584036 1_555
O5 P2 1.512883 1_555
O6 P3 1.580042 1_555
O7 P3 1.493097 1_555
O8 P4 1.538706 1_555
O9 P10 1.520106 1_545
O10 P5 1.554528 1_555
O11 P4 1.578277 1_555
O12 P2 1.515996 1_555
O13 P5 1.587177 1_555
O14 P3 1.577078 1_555
O15 P2 1.636455 1_555
O16 P11 1.567589 1_556
O17 P3 1.588706 1_555
O18 P4 1.525675 1_555
O19 P10 1.544601 1_545
O20 P4 1.574796 1_555
O21 P5 1.495668 1_555
O22 P5 1.592065 1_555
O23 P11 1.514150 1_545
O24 P0 1.582286 1_565
O25 P6 1.582157 1_555
O26 P6 1.521657 1_555
O27 P7 1.570752 1_555
O28 P1 1.581710 1_565
O29 P7 1.522792 1_555
O30 P8 1.643596 1_555
O31 P0 1.514833 1_554
O32 P9 1.551517 1_555
O33 P8 1.518266 1_555
O34 P6 1.582361 1_555
O35 P9 1.574494 1_555
O36 P7 1.565109 1_555
O37 P6 1.535152 1_555
O38 P1 1.493950 1_565
O39 P7 1.561524 1_555
O40 P8 1.558645 1_555
O41 P8 1.511310 1_555
O42 P9 1.579112 1_555
O43 P10 1.576627 1_555
O44 P2 1.562990 1_554
O45 P11 1.627631 1_555
O46 P11 1.516497 1_555
O47 P10 1.579400 1_555
