# generated using pymatgen
data_MnH4(OF2)2
_symmetry_space_group_name_H-M   'P 1'
_cell_length_a   6.14242500
_cell_length_b   9.92805445
_cell_length_c   8.71401802
_cell_angle_alpha   80.84470968
_cell_angle_beta   90.00079361
_cell_angle_gamma   90.00000522
_symmetry_Int_Tables_number   1
_chemical_formula_structural   MnH4(OF2)2
_chemical_formula_sum   'Mn4 H16 O8 F16'
_cell_volume   524.63145620
_cell_formula_units_Z   4
loop_
 _symmetry_equiv_pos_site_id
 _symmetry_equiv_pos_as_xyz
  1  'x, y, z'
loop_
 _atom_site_type_symbol
 _atom_site_label
 _atom_site_symmetry_multiplicity
 _atom_site_fract_x
 _atom_site_fract_y
 _atom_site_fract_z
 _atom_site_occupancy
  Mn  Mn0  1  0.99764900  0.24998500  0.50008200  1
  Mn  Mn1  1  0.49763200  0.24996500  0.99977600  1
  Mn  Mn2  1  0.49764100  0.74995800  0.00003200  1
  Mn  Mn3  1  0.99762300  0.74994800  0.49999100  1
  H  H0  1  0.34726500  0.68251000  0.74883600  1
  H  H1  1  0.84738600  0.18248200  0.24900200  1
  H  H2  1  0.14820600  0.68237700  0.24884900  1
  H  H3  1  0.64832700  0.18245800  0.74890100  1
  H  H4  1  0.14829500  0.31762700  0.75115000  1
  H  H5  1  0.64815100  0.81763700  0.25103300  1
  H  H6  1  0.34742300  0.31760700  0.25105200  1
  H  H7  1  0.84732000  0.81750200  0.75104600  1
  H  H8  1  0.01806100  0.44965500  0.64983900  1
  H  H9  1  0.51809000  0.94966500  0.14978500  1
  H  H10  1  0.47724800  0.55059700  0.85033300  1
  H  H11  1  0.97720100  0.05056500  0.35040000  1
  H  H12  1  0.47715900  0.44945900  0.14977700  1
  H  H13  1  0.97716100  0.94938500  0.64963300  1
  H  H14  1  0.01803000  0.55032800  0.35019000  1
  H  H15  1  0.51800000  0.05035700  0.85033400  1
  O  O0  1  0.38853500  0.63447900  0.85663600  1
  O  O1  1  0.88847600  0.13446200  0.35673900  1
  O  O2  1  0.10612600  0.36547100  0.64353600  1
  O  O3  1  0.60613100  0.86548300  0.14343200  1
  O  O4  1  0.10607300  0.63451900  0.35645500  1
  O  O5  1  0.60643100  0.13444900  0.85651200  1
  O  O6  1  0.38879100  0.36546900  0.14332300  1
  O  O7  1  0.88844600  0.86552000  0.64325000  1
  F  F0  1  0.91724700  0.59834000  0.63676700  1
  F  F1  1  0.41778900  0.09840500  0.13699200  1
  F  F2  1  0.57823700  0.40161600  0.86331300  1
  F  F3  1  0.07770800  0.90154300  0.36313300  1
  F  F4  1  0.57796000  0.59836200  0.13688800  1
  F  F5  1  0.07777900  0.09840900  0.63691200  1
  F  F6  1  0.91737800  0.40162000  0.36319700  1
  F  F7  1  0.41755600  0.90155600  0.86319800  1
  F  F8  1  0.76977300  0.75304200  0.91141000  1
  F  F9  1  0.26975600  0.25289100  0.41145400  1
  F  F10  1  0.22557700  0.74746600  0.08846700  1
  F  F11  1  0.72577800  0.24735800  0.58848700  1
  F  F12  1  0.22547700  0.25268100  0.91136500  1
  F  F13  1  0.72568200  0.75262800  0.41150100  1
  F  F14  1  0.76949000  0.24712600  0.08839900  1
  F  F15  1  0.26985500  0.74703800  0.58859200  1
loop_
_geom_bond_atom_site_label_1
_geom_bond_atom_site_label_2
_geom_bond_distance
_geom_bond_site_symmetry_2
Mn0 O2 1.943521 1_655
Mn0 O1 1.944533 1_555
Mn1 O5 1.943199 1_555
Mn1 O6 1.945021 1_556
Mn2 O3 1.943470 1_555
Mn2 O0 1.944429 1_554
Mn3 O4 1.943611 1_655
Mn3 O7 1.944351 1_555
H0 O0 1.015637 1_555
H1 O1 1.014859 1_555
H2 O4 1.014991 1_555
H3 O5 1.015141 1_555
H4 O2 1.015056 1_555
H5 O3 1.014733 1_555
H6 O6 1.014728 1_555
H7 O7 1.015351 1_555
H8 O2 1.004374 1_555
H9 O3 1.004360 1_555
H10 O0 1.004009 1_555
H11 O1 1.004233 1_555
H12 O6 1.004006 1_555
H13 O7 1.004004 1_555
H14 O4 1.004297 1_555
H15 O5 1.004616 1_555
F0 H8 1.588066 1_655
F0 Mn3 1.832751 1_555
F1 H9 1.587529 1_545
F1 Mn1 1.833526 1_554
F2 H10 1.591245 1_555
F2 Mn1 1.832021 1_555
F3 H11 1.590634 1_465
F3 Mn3 1.832549 1_455
F4 H12 1.590146 1_555
F4 Mn2 1.832924 1_555
F5 H13 1.590926 1_445
F5 Mn0 1.832352 1_455
F6 H14 1.587932 1_655
F6 Mn0 1.833254 1_555
F7 H15 1.588380 1_565
F7 Mn2 1.832453 1_556
F8 H7 1.518105 1_555
F8 Mn2 1.839539 1_556
F9 H6 1.519320 1_555
F9 Mn0 1.839511 1_455
F10 H2 1.519630 1_555
F10 Mn2 1.838784 1_555
F11 H3 1.519499 1_555
F11 Mn0 1.837527 1_555
F12 H4 1.517619 1_555
F12 Mn1 1.839069 1_555
F13 H5 1.520342 1_555
F13 Mn3 1.838179 1_555
F14 H1 1.521046 1_555
F14 Mn1 1.838118 1_554
F15 H0 1.517122 1_555
F15 Mn3 1.840089 1_455
