# generated using pymatgen
data_LiMnPO5
_symmetry_space_group_name_H-M   'P 1'
_cell_length_a   6.70765100
_cell_length_b   6.94216725
_cell_length_c   8.01340654
_cell_angle_alpha   89.79973161
_cell_angle_beta   91.29681152
_cell_angle_gamma   116.31075977
_symmetry_Int_Tables_number   1
_chemical_formula_structural   LiMnPO5
_chemical_formula_sum   'Li4 Mn4 P4 O20'
_cell_volume   334.39772082
_cell_formula_units_Z   4
loop_
 _symmetry_equiv_pos_site_id
 _symmetry_equiv_pos_as_xyz
  1  'x, y, z'
loop_
 _atom_site_type_symbol
 _atom_site_label
 _atom_site_symmetry_multiplicity
 _atom_site_fract_x
 _atom_site_fract_y
 _atom_site_fract_z
 _atom_site_occupancy
  Li  Li0  1  0.28907300  0.79651200  0.43379300  1
  Li  Li1  1  0.22182900  0.27713100  0.06705000  1
  Li  Li2  1  0.77817100  0.72286900  0.93295000  1
  Li  Li3  1  0.71092700  0.20348800  0.56620700  1
  Mn  Mn0  1  0.24639000  0.49671400  0.74791600  1
  Mn  Mn1  1  0.24636200  0.99710700  0.75292100  1
  Mn  Mn2  1  0.75363800  0.00289300  0.24707900  1
  Mn  Mn3  1  0.75361000  0.50328600  0.25208400  1
  P  P0  1  0.23992300  0.75355000  0.08448400  1
  P  P1  1  0.26126200  0.24524600  0.41625800  1
  P  P2  1  0.73873800  0.75475400  0.58374200  1
  P  P3  1  0.76007700  0.24645000  0.91551600  1
  O  O0  1  0.13574100  0.86737200  0.96935700  1
  O  O1  1  0.07924500  0.64004800  0.22841400  1
  O  O2  1  0.23122100  0.74225500  0.66878600  1
  O  O3  1  0.28893500  0.58976300  0.98407800  1
  O  O4  1  0.19794000  0.39537100  0.51966200  1
  O  O5  1  0.44601800  0.92182300  0.18006200  1
  O  O6  1  0.06083100  0.08382000  0.31149000  1
  O  O7  1  0.26741900  0.25580800  0.83217400  1
  O  O8  1  0.64388100  0.88102700  0.47147100  1
  O  O9  1  0.42927700  0.37121000  0.27968100  1
  O  O10  1  0.57072300  0.62879000  0.72031900  1
  O  O11  1  0.35611900  0.11897300  0.52852900  1
  O  O12  1  0.73258100  0.74419200  0.16782600  1
  O  O13  1  0.93916900  0.91618000  0.68851000  1
  O  O14  1  0.55398200  0.07817700  0.81993800  1
  O  O15  1  0.80206000  0.60462900  0.48033800  1
  O  O16  1  0.71106500  0.41023700  0.01592200  1
  O  O17  1  0.76877900  0.25774500  0.33121400  1
  O  O18  1  0.92075500  0.35995200  0.77158600  1
  O  O19  1  0.86425900  0.13262800  0.03064300  1
loop_
_geom_bond_atom_site_label_1
_geom_bond_atom_site_label_2
_geom_bond_distance
_geom_bond_site_symmetry_2
Li0 O2 1.933145 1_555
Li0 O1 2.102804 1_555
Li0 O8 2.197803 1_555
Li0 O11 2.212189 1_565
Li0 O5 2.296042 1_555
Li1 O7 1.930303 1_554
Li1 O9 2.088276 1_555
Li1 O3 2.119556 1_554
Li1 O19 2.163678 1_455
Li1 O6 2.365737 1_555
Li2 O12 1.930303 1_556
Li2 O10 2.088276 1_555
Li2 O16 2.119556 1_556
Li2 O0 2.163678 1_655
Li2 O13 2.365737 1_555
Li3 O17 1.933145 1_555
Li3 O18 2.102804 1_555
Li3 O11 2.197803 1_555
Li3 O8 2.212189 1_545
Li3 O14 2.296042 1_555
Mn0 O2 1.860464 1_555
Mn0 O7 1.862701 1_555
Mn0 O4 1.930173 1_555
Mn0 O10 1.968386 1_555
Mn0 O18 1.971661 1_455
Mn0 O3 1.975045 1_555
Mn1 O7 1.851418 1_565
Mn1 O2 1.854989 1_555
Mn1 O13 1.937925 1_455
Mn1 O14 1.945585 1_565
Mn1 O0 1.955697 1_555
Mn1 O11 1.997052 1_565
Mn2 O12 1.851418 1_545
Mn2 O17 1.854989 1_555
Mn2 O6 1.937925 1_655
Mn2 O5 1.945585 1_545
Mn2 O19 1.955697 1_555
Mn2 O8 1.997052 1_545
Mn3 O17 1.860464 1_555
Mn3 O12 1.862701 1_555
Mn3 O15 1.930173 1_555
Mn3 O9 1.968386 1_555
Mn3 O1 1.971661 1_655
Mn3 O16 1.975045 1_555
O0 P0 1.555331 1_556
O1 P0 1.552355 1_555
O3 P0 1.548562 1_556
O4 P1 1.538687 1_555
O5 P0 1.545662 1_555
O6 P1 1.545334 1_555
O8 P2 1.563876 1_555
O9 P1 1.551807 1_555
O10 P2 1.551807 1_555
O11 P1 1.563876 1_555
O13 P2 1.545334 1_555
O14 P3 1.545662 1_555
O15 P2 1.538687 1_555
O16 P3 1.548562 1_554
O18 P3 1.552355 1_555
O19 P3 1.555331 1_554
