# generated using pymatgen
data_Ca3Fe5Sn3O16
_symmetry_space_group_name_H-M   'P 1'
_cell_length_a   9.43492886
_cell_length_b   10.97230268
_cell_length_c   3.13571600
_cell_angle_alpha   90.00000000
_cell_angle_beta   90.00000000
_cell_angle_gamma   89.88353857
_symmetry_Int_Tables_number   1
_chemical_formula_structural   Ca3Fe5Sn3O16
_chemical_formula_sum   'Ca3 Fe5 Sn3 O16'
_cell_volume   324.61772834
_cell_formula_units_Z   1
loop_
 _symmetry_equiv_pos_site_id
 _symmetry_equiv_pos_as_xyz
  1  'x, y, z'
loop_
 _atom_site_type_symbol
 _atom_site_label
 _atom_site_symmetry_multiplicity
 _atom_site_fract_x
 _atom_site_fract_y
 _atom_site_fract_z
 _atom_site_occupancy
  Ca  Ca0  1  0.25838400  0.85384700  0.25000000  1
  Ca  Ca1  1  0.74015800  0.14941200  0.75000000  1
  Ca  Ca2  1  0.75229600  0.65874700  0.25000000  1
  Fe  Fe0  1  0.42599500  0.10323000  0.25000000  1
  Fe  Fe1  1  0.43604800  0.62030900  0.25000000  1
  Fe  Fe2  1  0.58406400  0.89386500  0.75000000  1
  Fe  Fe3  1  0.91959300  0.39392000  0.25000000  1
  Fe  Fe4  1  0.93105300  0.88681200  0.25000000  1
  Sn  Sn0  1  0.07404800  0.11824800  0.75000000  1
  Sn  Sn1  1  0.09046500  0.59773100  0.75000000  1
  Sn  Sn2  1  0.54944500  0.38990700  0.75000000  1
  O  O0  1  0.02598400  0.71658700  0.25000000  1
  O  O1  1  0.08486500  0.92833700  0.75000000  1
  O  O2  1  0.11225100  0.47697800  0.25000000  1
  O  O3  1  0.21186100  0.14442300  0.25000000  1
  O  O4  1  0.29108500  0.67542600  0.75000000  1
  O  O5  1  0.38713600  0.97861500  0.75000000  1
  O  O6  1  0.42052800  0.43500400  0.25000000  1
  O  O7  1  0.49088200  0.20749600  0.75000000  1
  O  O8  1  0.52479000  0.78838200  0.25000000  1
  O  O9  1  0.58908500  0.57771400  0.75000000  1
  O  O10  1  0.62261500  0.02255900  0.25000000  1
  O  O11  1  0.70331100  0.33727000  0.25000000  1
  O  O12  1  0.78969400  0.83308400  0.75000000  1
  O  O13  1  0.88042900  0.52132300  0.75000000  1
  O  O14  1  0.91909200  0.07645500  0.25000000  1
  O  O15  1  0.95904000  0.28151900  0.75000000  1
loop_
_geom_bond_atom_site_label_1
_geom_bond_atom_site_label_2
_geom_bond_distance
_geom_bond_site_symmetry_2
Ca0 O1 2.408524 1_554
Ca0 O1 2.408524 1_555
Ca0 O5 2.411376 1_555
Ca0 O5 2.411376 1_554
Ca0 O4 2.526551 1_555
Ca0 O4 2.526551 1_554
Ca0 O8 2.612740 1_555
Ca0 O0 2.662606 1_555
Ca1 O10 2.373111 1_555
Ca1 O10 2.373111 1_556
Ca1 O7 2.435471 1_555
Ca1 O14 2.437953 1_555
Ca1 O14 2.437953 1_556
Ca1 O15 2.525482 1_555
Ca1 O11 2.612435 1_556
Ca1 O11 2.612435 1_555
Ca2 O9 2.371818 1_554
Ca2 O9 2.371818 1_555
Ca2 O13 2.487148 1_554
Ca2 O13 2.487148 1_555
Ca2 O12 2.498905 1_555
Ca2 O12 2.498905 1_554
Ca2 O8 2.572600 1_555
Ca2 O0 2.660324 1_655
Fe0 O7 2.035840 1_554
Fe0 O7 2.035840 1_555
Fe0 O10 2.053823 1_555
Fe0 O3 2.069383 1_555
Fe0 O5 2.112861 1_544
Fe0 O5 2.112861 1_545
Fe1 O8 2.026866 1_555
Fe1 O6 2.038785 1_555
Fe1 O4 2.165917 1_555
Fe1 O4 2.165917 1_554
Fe1 O9 2.181443 1_554
Fe1 O9 2.181443 1_555
Fe2 O8 2.028083 1_555
Fe2 O8 2.028083 1_556
Fe2 O12 2.050247 1_555
Fe2 O5 2.076022 1_555
Fe2 O10 2.141612 1_565
Fe2 O10 2.141612 1_566
Fe3 O15 2.028757 1_554
Fe3 O15 2.028757 1_555
Fe3 O2 2.035032 1_655
Fe3 O13 2.132312 1_554
Fe3 O13 2.132312 1_555
Fe3 O11 2.134383 1_555
Fe4 O0 2.069770 1_655
Fe4 O14 2.083649 1_565
Fe4 O12 2.141891 1_555
Fe4 O12 2.141891 1_554
Fe4 O1 2.185053 1_655
Fe4 O1 2.185053 1_654
O0 Sn1 2.127395 1_555
O0 Sn1 2.127395 1_554
O1 Sn0 2.086052 1_565
O2 Sn1 2.062713 1_555
O2 Sn1 2.062713 1_554
O3 Sn0 2.057388 1_555
O3 Sn0 2.057388 1_554
O4 Sn1 2.077530 1_555
O6 Sn2 2.044509 1_555
O6 Sn2 2.044509 1_554
O7 Sn2 2.077419 1_555
O9 Sn2 2.095088 1_555
O11 Sn2 2.212647 1_555
O11 Sn2 2.212647 1_554
O13 Sn1 2.153290 1_655
O14 Sn0 2.192858 1_654
O14 Sn0 2.192858 1_655
O15 Sn0 2.092570 1_655
