# generated using pymatgen
data_Li3Ti(CuO2)4
_symmetry_space_group_name_H-M   'P 1'
_cell_length_a   6.17992750
_cell_length_b   6.17992750
_cell_length_c   5.66437222
_cell_angle_alpha   64.18872388
_cell_angle_beta   64.18872388
_cell_angle_gamma   55.57261233
_symmetry_Int_Tables_number   1
_chemical_formula_structural   Li3Ti(CuO2)4
_chemical_formula_sum   'Li3 Ti1 Cu4 O8'
_cell_volume   155.33230574
_cell_formula_units_Z   1
loop_
 _symmetry_equiv_pos_site_id
 _symmetry_equiv_pos_as_xyz
  1  'x, y, z'
loop_
 _atom_site_type_symbol
 _atom_site_label
 _atom_site_symmetry_multiplicity
 _atom_site_fract_x
 _atom_site_fract_y
 _atom_site_fract_z
 _atom_site_occupancy
  Li  Li0  1  0.00000000  0.50000000  0.00000000  1
  Li  Li1  1  0.00000000  0.00000000  0.50000000  1
  Li  Li2  1  0.50000000  0.00000000  0.00000000  1
  Ti  Ti0  1  0.50000000  0.50000000  0.00000000  1
  Cu  Cu0  1  0.50000000  0.50000000  0.50000000  1
  Cu  Cu1  1  0.00000000  0.00000000  0.00000000  1
  Cu  Cu2  1  0.00000000  0.50000000  0.50000000  1
  Cu  Cu3  1  0.50000000  0.00000000  0.50000000  1
  O  O0  1  0.28395200  0.28395200  0.24383200  1
  O  O1  1  0.24286700  0.70656000  0.76968800  1
  O  O2  1  0.70656000  0.24286700  0.76968800  1
  O  O3  1  0.79368400  0.79368400  0.23992100  1
  O  O4  1  0.20631600  0.20631600  0.76007900  1
  O  O5  1  0.29344000  0.75713300  0.23031200  1
  O  O6  1  0.75713300  0.29344000  0.23031200  1
  O  O7  1  0.71604800  0.71604800  0.75616800  1
loop_
_geom_bond_atom_site_label_1
_geom_bond_atom_site_label_2
_geom_bond_distance
_geom_bond_site_symmetry_2
Li0 O6 2.143653 1_455
Li0 O1 2.143653 1_554
Li0 O0 2.150599 1_555
Li0 O7 2.150599 1_454
Li0 O3 2.188371 1_455
Li0 O4 2.188371 1_554
Li1 O2 2.093206 1_455
Li1 O1 2.093206 1_545
Li1 O5 2.093206 1_545
Li1 O6 2.093206 1_455
Li2 O5 2.143653 1_545
Li2 O2 2.143653 1_554
Li2 O0 2.150599 1_555
Li2 O7 2.150599 1_544
Li2 O3 2.188371 1_545
Li2 O4 2.188371 1_554
Cu0 O1 1.943922 1_555
Cu0 O2 1.943922 1_555
Cu0 O5 1.943922 1_555
Cu0 O6 1.943922 1_555
Cu1 O4 1.979543 1_554
Cu1 O3 1.979543 1_445
Cu1 O6 2.126179 1_455
Cu1 O5 2.126179 1_545
Cu1 O1 2.126179 1_544
Cu1 O2 2.126179 1_454
Cu2 O4 1.944407 1_555
Cu2 O3 1.944407 1_455
Cu2 O7 1.946280 1_455
Cu2 O0 1.946280 1_555
Cu3 O4 1.944407 1_555
Cu3 O3 1.944407 1_545
Cu3 O7 1.946280 1_545
Cu3 O0 1.946280 1_555
O0 Ti0 2.068068 1_555
O1 Ti0 1.979383 1_556
O2 Ti0 1.979383 1_556
O5 Ti0 1.979383 1_555
O6 Ti0 1.979383 1_555
O7 Ti0 2.068068 1_556
