# generated using pymatgen
data_Mn14Al56Ge3
_symmetry_space_group_name_H-M   'P 1'
_cell_length_a   11.05577028
_cell_length_b   11.05577028
_cell_length_c   10.30886700
_cell_angle_alpha   90.00000000
_cell_angle_beta   90.00000000
_cell_angle_gamma   120.00000167
_symmetry_Int_Tables_number   1
_chemical_formula_structural   Mn14Al56Ge3
_chemical_formula_sum   'Mn14 Al56 Ge3'
_cell_volume   1091.23823218
_cell_formula_units_Z   1
loop_
 _symmetry_equiv_pos_site_id
 _symmetry_equiv_pos_as_xyz
  1  'x, y, z'
loop_
 _atom_site_type_symbol
 _atom_site_label
 _atom_site_symmetry_multiplicity
 _atom_site_fract_x
 _atom_site_fract_y
 _atom_site_fract_z
 _atom_site_occupancy
  Mn  Mn0  1  0.93742800  0.36038000  0.92831700  1
  Mn  Mn1  1  0.20952600  0.25792600  0.66899900  1
  Mn  Mn2  1  0.42295200  0.06257200  0.92831700  1
  Mn  Mn3  1  0.04840000  0.79047400  0.66899900  1
  Mn  Mn4  1  0.36038000  0.42295200  0.07168300  1
  Mn  Mn5  1  0.66666700  0.33333300  0.55498600  1
  Mn  Mn6  1  0.33333300  0.66666700  0.44501400  1
  Mn  Mn7  1  0.74207400  0.95160000  0.66899900  1
  Mn  Mn8  1  0.63962000  0.57704800  0.92831700  1
  Mn  Mn9  1  0.06257200  0.63962000  0.07168300  1
  Mn  Mn10  1  0.79047400  0.74207400  0.33100100  1
  Mn  Mn11  1  0.95160000  0.20952600  0.33100100  1
  Mn  Mn12  1  0.57704800  0.93742800  0.07168300  1
  Mn  Mn13  1  0.25792600  0.04840000  0.33100100  1
  Al  Al0  1  0.59349300  0.69519400  0.73109200  1
  Al  Al1  1  0.00000000  0.00000000  0.74430200  1
  Al  Al2  1  0.70010800  0.84549100  0.18816900  1
  Al  Al3  1  0.41646000  0.27856900  0.54737500  1
  Al  Al4  1  0.32165700  0.80840600  0.01592300  1
  Al  Al5  1  0.16791100  0.62485300  0.27285000  1
  Al  Al6  1  0.48674900  0.67834300  0.01592300  1
  Al  Al7  1  0.38490000  0.44756200  0.82956800  1
  Al  Al8  1  0.83208900  0.37514700  0.72715000  1
  Al  Al9  1  0.61510000  0.55243800  0.17043200  1
  Al  Al10  1  0.19159400  0.51325100  0.01592300  1
  Al  Al11  1  0.02850400  0.83353800  0.42221200  1
  Al  Al12  1  0.72143100  0.13789100  0.54737500  1
  Al  Al13  1  0.26211600  0.13085900  0.08388900  1
  Al  Al14  1  0.15450900  0.85461700  0.18816900  1
  Al  Al15  1  0.88554100  0.37778800  0.43644100  1
  Al  Al16  1  0.93733800  0.38490000  0.17043200  1
  Al  Al17  1  0.80840600  0.48674900  0.98407700  1
  Al  Al18  1  0.19496600  0.02850400  0.57778800  1
  Al  Al19  1  0.44756200  0.06266200  0.17043200  1
  Al  Al20  1  0.58354000  0.72143100  0.45262500  1
  Al  Al21  1  0.16646200  0.19496600  0.42221200  1
  Al  Al22  1  0.86914100  0.13125600  0.08388900  1
  Al  Al23  1  0.69519400  0.10170100  0.26890800  1
  Al  Al24  1  0.73788400  0.86914100  0.91611100  1
  Al  Al25  1  0.45694300  0.83208900  0.27285000  1
  Al  Al26  1  0.55243800  0.93733800  0.82956800  1
  Al  Al27  1  0.11445900  0.62221200  0.56355900  1
  Al  Al28  1  0.83353800  0.80503400  0.57778800  1
  Al  Al29  1  0.30480600  0.89829900  0.73109200  1
  Al  Al30  1  0.49224700  0.11445900  0.43644100  1
  Al  Al31  1  0.62221200  0.50775300  0.43644100  1
  Al  Al32  1  0.13085900  0.86874400  0.91611100  1
  Al  Al33  1  0.97149600  0.16646200  0.57778800  1
  Al  Al34  1  0.27856900  0.86210900  0.45262500  1
  Al  Al35  1  0.14538300  0.29989200  0.18816900  1
  Al  Al36  1  0.62485300  0.45694300  0.72715000  1
  Al  Al37  1  0.89829900  0.59349300  0.26890800  1
  Al  Al38  1  0.29989200  0.15450900  0.81183100  1
  Al  Al39  1  0.51325100  0.32165700  0.98407700  1
  Al  Al40  1  0.13125600  0.26211600  0.91611100  1
  Al  Al41  1  0.00000000  0.00000000  0.25569800  1
  Al  Al42  1  0.06266200  0.61510000  0.82956800  1
  Al  Al43  1  0.80503400  0.97149600  0.42221200  1
  Al  Al44  1  0.37778800  0.49224700  0.56355900  1
  Al  Al45  1  0.67834300  0.19159400  0.98407700  1
  Al  Al46  1  0.54305700  0.16791100  0.72715000  1
  Al  Al47  1  0.37514700  0.54305700  0.27285000  1
  Al  Al48  1  0.84549100  0.14538300  0.81183100  1
  Al  Al49  1  0.86210900  0.58354000  0.54737500  1
  Al  Al50  1  0.40650700  0.30480600  0.26890800  1
  Al  Al51  1  0.85461700  0.70010800  0.81183100  1
  Al  Al52  1  0.50775300  0.88554100  0.56355900  1
  Al  Al53  1  0.13789100  0.41646000  0.45262500  1
  Al  Al54  1  0.10170100  0.40650700  0.73109200  1
  Al  Al55  1  0.86874400  0.73788400  0.08388900  1
  Ge  Ge0  1  0.00000000  0.00000000  0.00000000  1
  Ge  Ge1  1  0.66666700  0.33333300  0.27952600  1
  Ge  Ge2  1  0.33333300  0.66666700  0.72047400  1
loop_
_geom_bond_atom_site_label_1
_geom_bond_atom_site_label_2
_geom_bond_distance
_geom_bond_site_symmetry_2
Al0 Mn7 2.547041 1_555
Al0 Mn8 2.601173 1_555
Al0 Ge2 2.734453 1_555
Al0 Al7 2.744189 1_555
Al0 Al28 2.791528 1_555
Al0 Al20 2.892917 1_555
Al1 Ge0 2.635957 1_556
Al1 Al28 2.648175 1_445
Al1 Al18 2.648175 1_555
Al1 Al33 2.648175 1_455
Al1 Mn1 2.737615 1_555
Al1 Mn7 2.737615 1_445
Al1 Mn3 2.737615 1_545
Al2 Mn10 2.369757 1_555
Al2 Mn12 2.389363 1_555
Al2 Al43 2.737069 1_555
Al2 Al9 2.892898 1_555
Al2 Al20 3.034283 1_555
Al3 Mn1 2.517156 1_555
Al3 Mn5 2.519907 1_555
Al3 Al44 2.607964 1_555
Al3 Al30 2.611899 1_555
Al3 Al31 2.671836 1_555
Al3 Al36 2.843994 1_555
Al3 Al50 2.892917 1_555
Al3 Al46 2.933026 1_555
Al3 Al38 3.034283 1_555
Al3 Mn13 3.172193 1_555
Al4 Mn12 2.511959 1_555
Al4 Mn9 2.583057 1_555
Al4 Mn2 2.611319 1_564
Al5 Mn6 2.421358 1_555
Al5 Mn9 2.423583 1_555
Al5 Al53 2.843991 1_555
Al6 Mn4 2.511959 1_555
Al6 Mn12 2.583057 1_555
Al6 Mn8 2.611319 1_554
Al6 Al9 2.909211 1_555
Al6 Al7 2.931815 1_554
Al7 Mn4 2.510664 1_556
Al7 Mn1 2.613400 1_555
Al7 Mn8 2.642873 1_555
Al7 Ge2 2.973005 1_555
Al8 Mn5 2.421358 1_555
Al8 Mn0 2.423583 1_555
Al9 Mn8 2.510664 1_554
Al9 Mn10 2.613400 1_555
Al9 Mn4 2.642873 1_555
Al9 Ge1 2.973005 1_555
Al10 Mn9 2.511959 1_555
Al10 Mn4 2.583057 1_555
Al10 Mn0 2.611319 1_454
Al10 Al16 2.909211 1_455
Al10 Al42 2.931815 1_554
Al11 Mn10 2.484133 1_455
Al11 Al18 2.576515 1_565
Al11 Al28 2.576515 1_455
Al11 Mn3 2.617672 1_555
Al11 Mn13 2.633488 1_565
Al11 Al34 2.639723 1_555
Al11 Al41 2.648175 1_565
Al11 Al14 2.737069 1_555
Al11 Al49 2.757489 1_455
Al11 Al37 2.791528 1_455
Al12 Mn7 2.517156 1_545
Al12 Mn5 2.519897 1_555
Al12 Al52 2.607964 1_545
Al12 Al15 2.611899 1_555
Al12 Al33 2.639723 1_555
Al12 Al30 2.671836 1_555
Al12 Al43 2.757489 1_545
Al12 Al46 2.843999 1_555
Al12 Al23 2.892917 1_555
Al12 Al8 2.933033 1_555
Al12 Al48 3.034283 1_555
Al12 Mn11 3.172193 1_555
Al13 Ge0 2.654473 1_555
Al13 Al19 2.667164 1_555
Al13 Mn13 2.698239 1_555
Al13 Mn2 2.765209 1_554
Al13 Mn4 2.848904 1_555
Al14 Mn13 2.369757 1_565
Al14 Mn9 2.389363 1_555
Al14 Al19 2.892898 1_565
Al14 Al34 3.034283 1_555
Al15 Mn5 2.530065 1_555
Al15 Mn11 2.556186 1_555
Al15 Al53 2.607964 1_655
Al15 Al49 2.671836 1_555
Al15 Ge1 2.743076 1_555
Al15 Al16 2.794465 1_555
Al16 Mn0 2.510664 1_554
Al16 Mn11 2.613400 1_555
Al16 Mn9 2.642873 1_655
Al16 Al22 2.667174 1_555
Al16 Al37 2.744189 1_555
Al16 Al5 2.808573 1_655
Al16 Al35 2.892898 1_655
Al16 Al17 2.931815 1_554
Al16 Ge1 2.972995 1_555
Al17 Mn0 2.511959 1_555
Al17 Mn8 2.583057 1_555
Al17 Mn9 2.611319 1_656
Al17 Al42 2.909211 1_655
Al18 Mn3 2.484133 1_545
Al18 Al21 2.576515 1_555
Al18 Mn13 2.617672 1_555
Al18 Mn1 2.633488 1_555
Al18 Al3 2.639723 1_555
Al18 Al38 2.737069 1_555
Al18 Al34 2.757489 1_545
Al18 Al29 2.791528 1_545
Al19 Mn2 2.510664 1_554
Al19 Mn13 2.613400 1_555
Al19 Mn12 2.642873 1_545
Al19 Al23 2.744189 1_555
Al19 Al30 2.794465 1_555
Al19 Al25 2.808578 1_545
Al19 Al4 2.909211 1_545
Al19 Al45 2.931815 1_554
Al19 Ge1 2.972998 1_555
Al20 Mn10 2.517156 1_555
Al20 Mn6 2.519907 1_555
Al20 Al31 2.607964 1_555
Al20 Al52 2.611899 1_555
Al20 Al43 2.639723 1_555
Al20 Al44 2.671836 1_555
Al20 Al28 2.757489 1_555
Al20 Al47 2.843994 1_555
Al20 Al25 2.933026 1_555
Al20 Mn7 3.172193 1_555
Al21 Mn13 2.484133 1_555
Al21 Al33 2.576515 1_455
Al21 Mn1 2.617672 1_555
Al21 Mn11 2.633488 1_455
Al21 Al53 2.639723 1_555
Al21 Al41 2.648175 1_555
Al21 Al35 2.737069 1_555
Al21 Al3 2.757489 1_555
Al21 Al50 2.791528 1_555
Al22 Ge0 2.654464 1_655
Al22 Mn11 2.698240 1_555
Al22 Mn0 2.765218 1_554
Al22 Mn12 2.848902 1_545
Al23 Mn11 2.547041 1_555
Al23 Mn12 2.601173 1_545
Al23 Ge1 2.734442 1_555
Al23 Al43 2.791528 1_545
Al24 Ge0 2.654473 1_666
Al24 Al26 2.667164 1_555
Al24 Mn7 2.698239 1_555
Al24 Mn12 2.765209 1_556
Al24 Mn8 2.848904 1_555
Al25 Mn6 2.421362 1_555
Al25 Mn12 2.423579 1_555
Al25 Al34 2.843999 1_555
Al26 Mn12 2.510664 1_556
Al26 Mn7 2.613400 1_555
Al26 Mn2 2.642873 1_565
Al26 Al29 2.744189 1_555
Al26 Al52 2.794465 1_555
Al26 Al46 2.808578 1_565
Al26 Al48 2.892898 1_565
Al26 Al45 2.909211 1_565
Al26 Al4 2.931815 1_556
Al26 Ge2 2.972998 1_555
Al27 Mn6 2.530065 1_555
Al27 Mn3 2.556186 1_555
Al27 Al49 2.607964 1_455
Al27 Al34 2.611899 1_555
Al27 Al53 2.671836 1_555
Al27 Ge2 2.743076 1_555
Al27 Al42 2.794465 1_555
Al28 Mn7 2.484133 1_555
Al28 Al43 2.576515 1_555
Al28 Mn10 2.617672 1_555
Al28 Mn3 2.633488 1_655
Al28 Al49 2.639723 1_555
Al28 Al51 2.737069 1_555
Al29 Mn3 2.547041 1_555
Al29 Mn2 2.601173 1_565
Al29 Ge2 2.734442 1_555
Al29 Al34 2.892917 1_555
Al30 Mn5 2.530068 1_555
Al30 Mn13 2.556186 1_555
Al30 Al34 2.607964 1_545
Al30 Ge1 2.743079 1_555
Al31 Mn5 2.530074 1_555
Al31 Mn10 2.556186 1_555
Al31 Al49 2.611899 1_555
Al31 Ge1 2.743085 1_555
Al31 Al9 2.794465 1_555
Al32 Ge0 2.654464 1_566
Al32 Al42 2.667174 1_555
Al32 Mn3 2.698240 1_555
Al32 Mn9 2.765218 1_556
Al32 Mn2 2.848902 1_565
Al33 Mn1 2.484133 1_655
Al33 Al43 2.576515 1_545
Al33 Mn11 2.617672 1_555
Al33 Mn7 2.633488 1_545
Al33 Al48 2.737069 1_555
Al33 Al53 2.757489 1_655
Al33 Al54 2.791528 1_655
Al34 Mn13 2.517156 1_565
Al34 Mn6 2.519897 1_555
Al34 Al52 2.671836 1_555
Al34 Al5 2.933033 1_555
Al34 Mn3 3.172193 1_555
Al35 Mn11 2.369757 1_455
Al35 Mn4 2.389363 1_555
Al35 Al53 3.034283 1_555
Al36 Mn5 2.421373 1_555
Al36 Mn8 2.423577 1_555
Al36 Al7 2.808568 1_555
Al36 Al49 2.933033 1_555
Al37 Mn10 2.547041 1_555
Al37 Mn9 2.601173 1_655
Al37 Ge1 2.734449 1_555
Al37 Al49 2.892917 1_555
Al38 Mn1 2.369757 1_555
Al38 Mn2 2.389363 1_555
Al38 Al7 2.892898 1_555
Al39 Mn8 2.511959 1_555
Al39 Mn2 2.583057 1_555
Al39 Mn4 2.611319 1_556
Al39 Al7 2.909211 1_555
Al39 Al9 2.931815 1_556
Al40 Ge0 2.654473 1_556
Al40 Al7 2.667172 1_555
Al40 Mn1 2.698242 1_555
Al40 Mn4 2.765216 1_556
Al40 Mn0 2.848893 1_455
Al41 Ge0 2.635957 1_555
Al41 Al43 2.648175 1_445
Al41 Mn10 2.737615 1_445
Al41 Mn13 2.737615 1_555
Al41 Mn11 2.737615 1_455
Al42 Mn9 2.510664 1_556
Al42 Mn3 2.613400 1_555
Al42 Mn0 2.642873 1_455
Al42 Al54 2.744189 1_555
Al42 Al8 2.808573 1_455
Al42 Al51 2.892898 1_455
Al42 Ge2 2.972995 1_555
Al43 Mn11 2.484133 1_565
Al43 Mn7 2.617672 1_555
Al43 Mn10 2.633488 1_555
Al44 Mn6 2.530074 1_555
Al44 Mn1 2.556186 1_555
Al44 Al53 2.611899 1_555
Al44 Ge2 2.743085 1_555
Al44 Al7 2.794465 1_555
Al45 Mn2 2.511959 1_555
Al45 Mn0 2.583057 1_555
Al45 Mn12 2.611319 1_546
Al46 Mn5 2.421362 1_555
Al46 Mn2 2.423579 1_555
Al47 Mn6 2.421373 1_555
Al47 Mn4 2.423577 1_555
Al47 Al9 2.808568 1_555
Al47 Al53 2.933033 1_555
Al48 Mn7 2.369757 1_545
Al48 Mn0 2.389363 1_555
Al49 Mn3 2.517156 1_655
Al49 Mn5 2.519904 1_555
Al49 Al8 2.843991 1_555
Al49 Al51 3.034283 1_555
Al49 Mn10 3.172193 1_555
Al50 Mn13 2.547041 1_555
Al50 Mn4 2.601173 1_555
Al50 Ge1 2.734453 1_555
Al50 Al9 2.744189 1_555
Al51 Mn3 2.369757 1_655
Al51 Mn8 2.389363 1_555
Al52 Mn6 2.530068 1_555
Al52 Mn7 2.556186 1_555
Al52 Ge2 2.743079 1_555
Al53 Mn11 2.517156 1_455
Al53 Mn6 2.519904 1_555
Al53 Al54 2.892917 1_555
Al53 Mn1 3.172193 1_555
Al54 Mn1 2.547041 1_555
Al54 Mn0 2.601173 1_455
Al54 Ge2 2.734449 1_555
Al55 Ge0 2.654473 1_665
Al55 Al9 2.667172 1_555
Al55 Mn10 2.698242 1_555
Al55 Mn8 2.765216 1_554
Al55 Mn9 2.848893 1_655
Ge1 Mn5 2.839681 1_555
Ge2 Mn6 2.839681 1_555
