# generated using pymatgen
data_Ti2Cu(PO4)3
_symmetry_space_group_name_H-M   'P 1'
_cell_length_a   8.65622388
_cell_length_b   8.65622388
_cell_length_c   8.65622362
_cell_angle_alpha   60.00301086
_cell_angle_beta   60.00301086
_cell_angle_gamma   60.00301231
_symmetry_Int_Tables_number   1
_chemical_formula_structural   Ti2Cu(PO4)3
_chemical_formula_sum   'Ti4 Cu2 P6 O24'
_cell_volume   458.66972973
_cell_formula_units_Z   2
loop_
 _symmetry_equiv_pos_site_id
 _symmetry_equiv_pos_as_xyz
  1  'x, y, z'
loop_
 _atom_site_type_symbol
 _atom_site_label
 _atom_site_symmetry_multiplicity
 _atom_site_fract_x
 _atom_site_fract_y
 _atom_site_fract_z
 _atom_site_occupancy
  Ti  Ti0  1  0.85833500  0.85833500  0.85833500  1
  Ti  Ti1  1  0.64166500  0.64166500  0.64166500  1
  Ti  Ti2  1  0.35833500  0.35833500  0.35833500  1
  Ti  Ti3  1  0.14166500  0.14166500  0.14166500  1
  Cu  Cu0  1  0.00000000  0.00000000  0.00000000  1
  Cu  Cu1  1  0.50000000  0.50000000  0.50000000  1
  P  P0  1  0.96098600  0.25000000  0.53901400  1
  P  P1  1  0.53901400  0.96098600  0.25000000  1
  P  P2  1  0.25000000  0.53901400  0.96098600  1
  P  P3  1  0.75000000  0.46098600  0.03901400  1
  P  P4  1  0.46098600  0.03901400  0.75000000  1
  P  P5  1  0.03901400  0.75000000  0.46098600  1
  O  O0  1  0.87435200  0.69698500  0.50034700  1
  O  O1  1  0.69698500  0.50034700  0.87435200  1
  O  O2  1  0.94204500  0.08333000  0.72880500  1
  O  O3  1  0.50034700  0.87435200  0.69698500  1
  O  O4  1  0.00034700  0.19698500  0.37435200  1
  O  O5  1  0.77119500  0.41667000  0.55795500  1
  O  O6  1  0.72880500  0.94204500  0.08333000  1
  O  O7  1  0.55795500  0.77119500  0.41667000  1
  O  O8  1  0.80301500  0.62564800  0.99965300  1
  O  O9  1  0.41667000  0.55795500  0.77119500  1
  O  O10  1  0.91667000  0.27119500  0.05795500  1
  O  O11  1  0.62564800  0.99965300  0.80301500  1
  O  O12  1  0.37435200  0.00034700  0.19698500  1
  O  O13  1  0.08333000  0.72880500  0.94204500  1
  O  O14  1  0.58333000  0.44204500  0.22880500  1
  O  O15  1  0.19698500  0.37435200  0.00034700  1
  O  O16  1  0.44204500  0.22880500  0.58333000  1
  O  O17  1  0.27119500  0.05795500  0.91667000  1
  O  O18  1  0.22880500  0.58333000  0.44204500  1
  O  O19  1  0.99965300  0.80301500  0.62564800  1
  O  O20  1  0.49965300  0.12564800  0.30301500  1
  O  O21  1  0.05795500  0.91667000  0.27119500  1
  O  O22  1  0.30301500  0.49965300  0.12564800  1
  O  O23  1  0.12564800  0.30301500  0.49965300  1
loop_
_geom_bond_atom_site_label_1
_geom_bond_atom_site_label_2
_geom_bond_distance
_geom_bond_site_symmetry_2
Cu0 O21 2.324958 1_545
Cu0 O2 2.324958 1_454
Cu0 O17 2.324958 1_554
Cu0 O6 2.324958 1_445
Cu0 O10 2.324958 1_455
Cu0 O13 2.324958 1_544
Cu1 O9 2.324958 1_555
Cu1 O14 2.324958 1_555
Cu1 O7 2.324958 1_555
Cu1 O16 2.324958 1_555
Cu1 O5 2.324958 1_555
Cu1 O18 2.324958 1_555
O0 P5 1.539616 1_655
O0 Ti1 1.922939 1_555
O1 P3 1.539616 1_556
O1 Ti1 1.922939 1_555
O2 P0 1.550668 1_555
O2 Ti0 1.997654 1_545
O3 P4 1.539616 1_565
O3 Ti1 1.922939 1_555
O4 P0 1.539616 1_455
O4 Ti3 1.922939 1_555
O5 P0 1.550668 1_555
O5 Ti1 1.997654 1_555
O6 P1 1.550668 1_555
O6 Ti0 1.997654 1_554
O7 P1 1.550668 1_555
O7 Ti1 1.997654 1_555
O8 P3 1.539616 1_556
O8 Ti0 1.922939 1_555
O9 P2 1.550668 1_555
O9 Ti1 1.997654 1_555
O10 P3 1.550668 1_555
O10 Ti3 1.997654 1_655
O11 P4 1.539616 1_565
O11 Ti0 1.922939 1_555
O12 P1 1.539616 1_545
O12 Ti3 1.922939 1_555
O13 P2 1.550668 1_555
O13 Ti0 1.997654 1_455
O14 P3 1.550668 1_555
O14 Ti2 1.997654 1_555
O15 P2 1.539616 1_554
O15 Ti3 1.922939 1_555
O16 P4 1.550668 1_555
O16 Ti2 1.997654 1_555
O17 P4 1.550668 1_555
O17 Ti3 1.997654 1_556
O18 P5 1.550668 1_555
O18 Ti2 1.997654 1_555
O19 P5 1.539616 1_655
O19 Ti0 1.922939 1_555
O20 P1 1.539616 1_545
O20 Ti2 1.922939 1_555
O21 P5 1.550668 1_555
O21 Ti3 1.997654 1_565
O22 P2 1.539616 1_554
O22 Ti2 1.922939 1_555
O23 P0 1.539616 1_455
O23 Ti2 1.922939 1_555
