# generated using pymatgen
data_Li2V(PO3)4
_symmetry_space_group_name_H-M   'P 1'
_cell_length_a   11.22816800
_cell_length_b   7.57060000
_cell_length_c   12.99941054
_cell_angle_alpha   73.65599207
_cell_angle_beta   90.00000000
_cell_angle_gamma   90.00000000
_symmetry_Int_Tables_number   1
_chemical_formula_structural   Li2V(PO3)4
_chemical_formula_sum   'Li8 V4 P16 O48'
_cell_volume   1060.34775046
_cell_formula_units_Z   4
loop_
 _symmetry_equiv_pos_site_id
 _symmetry_equiv_pos_as_xyz
  1  'x, y, z'
loop_
 _atom_site_type_symbol
 _atom_site_label
 _atom_site_symmetry_multiplicity
 _atom_site_fract_x
 _atom_site_fract_y
 _atom_site_fract_z
 _atom_site_occupancy
  Li  Li0  1  0.90402000  0.63996100  0.25426500  1
  Li  Li1  1  0.40402000  0.36003900  0.24573500  1
  Li  Li2  1  0.03519000  0.33001200  0.48789600  1
  Li  Li3  1  0.53519000  0.66998800  0.01210400  1
  Li  Li4  1  0.46481000  0.33001200  0.98789600  1
  Li  Li5  1  0.96481000  0.66998800  0.51210400  1
  Li  Li6  1  0.59598000  0.63996100  0.75426500  1
  Li  Li7  1  0.09598000  0.36003900  0.74573500  1
  V  V0  1  0.74557800  0.01619500  0.66701400  1
  V  V1  1  0.24557800  0.98380500  0.83298600  1
  V  V2  1  0.75442200  0.01619500  0.16701400  1
  V  V3  1  0.25442200  0.98380500  0.33298600  1
  P  P0  1  0.27195700  0.95071200  0.08638100  1
  P  P1  1  0.61311900  0.63740700  0.29859300  1
  P  P2  1  0.25646300  0.60103400  0.02817700  1
  P  P3  1  0.75646300  0.39896600  0.47182300  1
  P  P4  1  0.72804300  0.04928800  0.91361900  1
  P  P5  1  0.11311900  0.36259300  0.20140700  1
  P  P6  1  0.95819600  0.99969800  0.82099000  1
  P  P7  1  0.45819600  0.00030200  0.67901000  1
  P  P8  1  0.77195700  0.04928800  0.41361900  1
  P  P9  1  0.22804300  0.95071200  0.58638100  1
  P  P10  1  0.54180400  0.99969800  0.32099000  1
  P  P11  1  0.04180400  0.00030200  0.17901000  1
  P  P12  1  0.88688100  0.63740700  0.79859300  1
  P  P13  1  0.24353700  0.60103400  0.52817700  1
  P  P14  1  0.74353700  0.39896600  0.97182300  1
  P  P15  1  0.38688100  0.36259300  0.70140700  1
  O  O0  1  0.25112300  0.73176500  0.10718100  1
  O  O1  1  0.65018100  0.53858600  0.42273900  1
  O  O2  1  0.54222600  0.51621700  0.24881100  1
  O  O3  1  0.87821800  0.49492400  0.45086600  1
  O  O4  1  0.72364200  0.30245900  0.58454600  1
  O  O5  1  0.37821800  0.50507600  0.04913400  1
  O  O6  1  0.27320900  0.27746200  0.75751800  1
  O  O7  1  0.47642900  0.21084300  0.68010800  1
  O  O8  1  0.04222600  0.48378300  0.25118900  1
  O  O9  1  0.66499900  0.02297700  0.81757800  1
  O  O10  1  0.32880500  0.03091700  0.97811200  1
  O  O11  1  0.15018100  0.46141400  0.07726100  1
  O  O12  1  0.75112300  0.26823500  0.39281900  1
  O  O13  1  0.07040000  0.07285500  0.85779200  1
  O  O14  1  0.86245200  0.97273800  0.91793200  1
  O  O15  1  0.90951300  0.11149300  0.71525100  1
  O  O16  1  0.40951300  0.88850700  0.78474900  1
  O  O17  1  0.77635800  0.30245900  0.08454600  1
  O  O18  1  0.36245200  0.02726200  0.58206800  1
  O  O19  1  0.57040000  0.92714500  0.64220800  1
  O  O20  1  0.22679100  0.27746200  0.25751800  1
  O  O21  1  0.02357100  0.21084300  0.18010800  1
  O  O22  1  0.82880500  0.96908300  0.52188800  1
  O  O23  1  0.16499900  0.97702300  0.68242200  1
  O  O24  1  0.83500100  0.02297700  0.31757800  1
  O  O25  1  0.17119500  0.03091700  0.47811200  1
  O  O26  1  0.97642900  0.78915700  0.81989200  1
  O  O27  1  0.77320900  0.72253800  0.74248200  1
  O  O28  1  0.42960000  0.07285500  0.35779200  1
  O  O29  1  0.63754800  0.97273800  0.41793200  1
  O  O30  1  0.22364200  0.69754100  0.91545400  1
  O  O31  1  0.59048700  0.11149300  0.21525100  1
  O  O32  1  0.09048700  0.88850700  0.28474900  1
  O  O33  1  0.13754800  0.02726200  0.08206800  1
  O  O34  1  0.92960000  0.92714500  0.14220800  1
  O  O35  1  0.24887700  0.73176500  0.60718100  1
  O  O36  1  0.84981900  0.53858600  0.92273900  1
  O  O37  1  0.67119500  0.96908300  0.02188800  1
  O  O38  1  0.33500100  0.97702300  0.18242200  1
  O  O39  1  0.95777400  0.51621700  0.74881100  1
  O  O40  1  0.52357100  0.78915700  0.31989200  1
  O  O41  1  0.72679100  0.72253800  0.24248200  1
  O  O42  1  0.62178200  0.49492400  0.95086600  1
  O  O43  1  0.27635800  0.69754100  0.41545400  1
  O  O44  1  0.12178200  0.50507600  0.54913400  1
  O  O45  1  0.45777400  0.48378300  0.75118900  1
  O  O46  1  0.34981900  0.46141400  0.57726100  1
  O  O47  1  0.74887700  0.26823500  0.89281900  1
loop_
_geom_bond_atom_site_label_1
_geom_bond_atom_site_label_2
_geom_bond_distance
_geom_bond_site_symmetry_2
Li0 O8 1.958129 1_655
Li0 O41 2.078538 1_555
Li0 O34 2.269122 1_555
Li0 O3 2.498362 1_555
Li1 O2 1.958129 1_555
Li1 O20 2.078538 1_555
Li1 O28 2.269122 1_555
Li1 O5 2.498362 1_555
Li2 O44 1.982254 1_555
Li2 O3 2.135093 1_455
Li3 O42 1.982254 1_554
Li3 O5 2.135093 1_555
Li4 O5 1.982254 1_556
Li4 O42 2.135093 1_555
Li5 O3 1.982254 1_555
Li5 O44 2.135093 1_655
Li6 O45 1.958129 1_555
Li6 O27 2.078538 1_555
Li6 O19 2.269122 1_555
Li6 O42 2.498362 1_555
Li7 O39 1.958129 1_455
Li7 O6 2.078538 1_555
Li7 O13 2.269122 1_555
Li7 O44 2.498362 1_555
O0 P2 1.615526 1_555
O0 P0 1.619597 1_555
O1 P3 1.602779 1_555
O1 P1 1.630275 1_555
O2 P1 1.492759 1_555
O3 P3 1.536066 1_555
O4 P3 1.488041 1_555
O4 V0 2.144543 1_555
O5 P2 1.536066 1_555
O6 P15 1.520476 1_555
O6 V1 2.184867 1_545
O7 P15 1.608247 1_555
O7 P7 1.611057 1_555
O8 P5 1.492759 1_555
O9 P4 1.496466 1_555
O9 V0 2.169925 1_555
O10 P0 1.508646 1_546
O10 V1 2.222218 1_545
O11 P2 1.602779 1_555
O11 P5 1.630275 1_555
O12 P3 1.615526 1_555
O12 P8 1.619597 1_555
O13 P6 1.507297 1_445
O13 V1 2.132987 1_545
O14 P4 1.611923 1_565
O14 P6 1.625012 1_555
O15 P6 1.499914 1_545
O15 V0 2.134585 1_555
O16 P7 1.499914 1_565
O16 V1 2.134585 1_555
O17 P14 1.488041 1_554
O17 V2 2.144543 1_555
O18 P9 1.611923 1_545
O18 P7 1.625012 1_555
O19 P7 1.507297 1_565
O19 V0 2.132987 1_565
O20 P5 1.520476 1_555
O20 V3 2.184867 1_545
O21 P5 1.608247 1_555
O21 P11 1.611057 1_555
O22 P8 1.508646 1_565
O22 V0 2.222218 1_565
O23 P9 1.496466 1_555
O23 V1 2.169925 1_555
O24 P8 1.496466 1_555
O24 V2 2.169925 1_555
O25 P9 1.508646 1_545
O25 V3 2.222218 1_545
O26 P12 1.608247 1_555
O26 P6 1.611057 1_555
O27 P12 1.520476 1_555
O27 V0 2.184867 1_565
O28 P10 1.507297 1_545
O28 V3 2.132987 1_545
O29 P8 1.611923 1_565
O29 P10 1.625012 1_555
O30 P2 1.488041 1_556
O30 V1 2.144543 1_555
O31 P10 1.499914 1_545
O31 V2 2.134585 1_555
O32 P11 1.499914 1_565
O32 V3 2.134585 1_555
O33 P0 1.611923 1_545
O33 P11 1.625012 1_555
O34 P11 1.507297 1_665
O34 V2 2.132987 1_565
O35 P13 1.615526 1_555
O35 P9 1.619597 1_555
O36 P14 1.602779 1_555
O36 P12 1.630275 1_555
O37 P4 1.508646 1_564
O37 V2 2.222218 1_565
O38 P0 1.496466 1_555
O38 V3 2.169925 1_555
O39 P12 1.492759 1_555
O40 P1 1.608247 1_555
O40 P10 1.611057 1_555
O41 P1 1.520476 1_555
O41 V2 2.184867 1_565
O42 P14 1.536066 1_555
O43 P13 1.488041 1_555
O43 V3 2.144543 1_555
O44 P13 1.536066 1_555
O45 P15 1.492759 1_555
O46 P13 1.602779 1_555
O46 P15 1.630275 1_555
O47 P14 1.615526 1_555
O47 P4 1.619597 1_555
