# generated using pymatgen
data_Hf2N2O
_symmetry_space_group_name_H-M   'P 1'
_cell_length_a   8.67228191
_cell_length_b   8.66860625
_cell_length_c   8.68260781
_cell_angle_alpha   109.55944817
_cell_angle_beta   109.51311539
_cell_angle_gamma   109.36173390
_symmetry_Int_Tables_number   1
_chemical_formula_structural   Hf2N2O
_chemical_formula_sum   'Hf16 N16 O8'
_cell_volume   502.34171729
_cell_formula_units_Z   8
loop_
 _symmetry_equiv_pos_site_id
 _symmetry_equiv_pos_as_xyz
  1  'x, y, z'
loop_
 _atom_site_type_symbol
 _atom_site_label
 _atom_site_symmetry_multiplicity
 _atom_site_fract_x
 _atom_site_fract_y
 _atom_site_fract_z
 _atom_site_occupancy
  Hf  Hf0  1  0.96114032  0.24322112  0.21920746  1
  Hf  Hf1  1  0.50640012  0.00299175  0.99508105  1
  Hf  Hf2  1  0.70604056  0.45544923  0.24369435  1
  Hf  Hf3  1  0.78154576  0.03078198  0.75152769  1
  Hf  Hf4  1  0.75522412  0.78717000  0.03292636  1
  Hf  Hf5  1  0.75608420  0.28539407  0.53905806  1
  Hf  Hf6  1  0.99801030  0.50417245  0.98889508  1
  Hf  Hf7  1  0.01630770  0.00878563  0.51034502  1
  Hf  Hf8  1  0.49104985  0.50544906  0.50305199  1
  Hf  Hf9  1  0.46864704  0.25251892  0.72034012  1
  Hf  Hf10  1  0.52482263  0.74088342  0.28641471  1
  Hf  Hf11  1  0.25127308  0.21789300  0.96121739  1
  Hf  Hf12  1  0.25373503  0.71857446  0.46760197  1
  Hf  Hf13  1  0.21053045  0.96031320  0.25151224  1
  Hf  Hf14  1  0.28424476  0.53472963  0.74404436  1
  Hf  Hf15  1  0.03834007  0.75344928  0.78577376  1
  N  N0  1  0.73908837  0.22955219  0.27521465  1
  N  N1  1  0.45566595  0.46524091  0.22868234  1
  N  N2  1  0.72712007  0.25688996  0.76889870  1
  N  N3  1  0.01002069  0.04494089  0.27536347  1
  N  N4  1  0.27139380  0.73375893  0.22262659  1
  N  N5  1  0.22584685  0.45584705  0.46338188  1
  N  N6  1  0.98651736  0.95333744  0.72783744  1
  N  N7  1  0.51013985  0.23712351  0.96686349  1
  N  N8  1  0.54572493  0.53387984  0.77168565  1
  N  N9  1  0.95755286  0.72931511  0.98994368  1
  N  N10  1  0.22389669  0.27405329  0.74135558  1
  N  N11  1  0.53542541  0.77388961  0.54500250  1
  N  N12  1  0.03079521  0.48546745  0.75709104  1
  N  N13  1  0.72670409  0.98702366  0.95360598  1
  N  N14  1  0.26413858  0.77731451  0.73240621  1
  N  N15  1  0.24027289  0.96875875  0.51061688  1
  O  O0  1  0.75822360  0.03006973  0.48095595  1
  O  O1  1  0.27557403  0.01261739  0.05006385  1
  O  O2  1  0.96054510  0.51315454  0.23534999  1
  O  O3  1  0.77132840  0.72463773  0.26045980  1
  O  O4  1  0.46681799  0.22736349  0.44787705  1
  O  O5  1  0.04768724  0.27629331  0.01864856  1
  O  O6  1  0.77132241  0.54250608  0.53552920  1
  O  O7  1  0.49480564  0.76519044  0.03984792  1
loop_
_geom_bond_atom_site_label_1
_geom_bond_atom_site_label_2
_geom_bond_distance
_geom_bond_site_symmetry_2
Hf0 N3 2.068315 1_655
Hf0 N0 2.114639 1_555
Hf0 N5 2.118615 1_655
Hf0 O5 2.177762 1_655
Hf0 N13 2.197410 1_544
Hf0 O2 2.298677 1_555
Hf1 N13 2.097759 1_545
Hf1 N7 2.115407 1_555
Hf1 N14 2.128146 1_545
Hf1 N0 2.177165 1_556
Hf1 O7 2.199035 1_546
Hf1 O1 2.228120 1_556
Hf2 N7 2.083190 1_554
Hf2 O2 2.127428 1_555
Hf2 O3 2.151370 1_555
Hf2 N0 2.161064 1_555
Hf2 N1 2.163184 1_555
Hf2 O6 2.188291 1_555
Hf3 N13 2.081361 1_545
Hf3 N11 2.085205 1_545
Hf3 N2 2.133149 1_555
Hf3 N6 2.143788 1_545
Hf3 O5 2.257776 1_656
Hf3 O0 2.287366 1_555
Hf4 N9 2.089315 1_554
Hf4 N13 2.122759 1_554
Hf4 N8 2.129328 1_554
Hf4 N3 2.185421 1_665
Hf4 O3 2.190706 1_555
Hf4 O7 2.225625 1_555
Hf5 N12 2.077614 1_655
Hf5 O0 2.106996 1_555
Hf5 N0 2.118644 1_555
Hf5 N2 2.174974 1_555
Hf5 O4 2.177781 1_555
Hf5 O6 2.199795 1_555
Hf6 N12 2.086213 1_655
Hf6 N9 2.092006 1_555
Hf6 N4 2.157104 1_656
Hf6 N2 2.164285 1_555
Hf6 O5 2.232968 1_656
Hf6 O2 2.249524 1_556
Hf7 N10 2.075188 1_555
Hf7 N15 2.082602 1_545
Hf7 N3 2.151512 1_555
Hf7 N6 2.171444 1_445
Hf7 O0 2.243300 1_455
Hf7 O3 2.271715 1_445
Hf8 N5 2.075822 1_555
Hf8 N11 2.107316 1_555
Hf8 N8 2.127121 1_555
Hf8 N1 2.185293 1_555
Hf8 O4 2.215476 1_555
Hf8 O6 2.248176 1_555
Hf9 N7 2.106527 1_555
Hf9 N2 2.122588 1_555
Hf9 N8 2.141536 1_555
Hf9 N15 2.156466 1_545
Hf9 N10 2.252106 1_555
Hf9 O4 2.295979 1_555
Hf10 N4 2.053006 1_555
Hf10 N1 2.089822 1_555
Hf10 N11 2.132094 1_555
Hf10 O7 2.159046 1_555
Hf10 O0 2.179619 1_565
Hf10 O3 2.267350 1_555
Hf11 N10 2.081750 1_555
Hf11 N1 2.128001 1_556
Hf11 O5 2.152648 1_556
Hf11 N7 2.177826 1_555
Hf11 O1 2.205703 1_556
Hf11 N6 2.219494 1_445
Hf12 N15 2.123973 1_555
Hf12 N11 2.135440 1_555
Hf12 N14 2.144941 1_555
Hf12 N5 2.195389 1_555
Hf12 O2 2.206938 1_455
Hf12 N4 2.226369 1_555
Hf13 N3 2.142296 1_565
Hf13 O1 2.145607 1_565
Hf13 O4 2.149419 1_565
Hf13 N15 2.150025 1_555
Hf13 N4 2.155089 1_555
Hf13 N9 2.166631 1_454
Hf14 N5 2.119586 1_555
Hf14 N10 2.133788 1_555
Hf14 N12 2.145389 1_555
Hf14 N14 2.199164 1_555
Hf14 N8 2.201929 1_555
Hf14 O7 2.221363 1_556
Hf15 N6 2.099143 1_455
Hf15 N14 2.119846 1_555
Hf15 O6 2.144249 1_455
Hf15 N9 2.158246 1_455
Hf15 O1 2.208006 1_566
Hf15 N12 2.227943 1_555
