# generated using pymatgen
data_V2O3
_symmetry_space_group_name_H-M   'P 1'
_cell_length_a   3.11041300
_cell_length_b   7.64532700
_cell_length_c   13.39487038
_cell_angle_alpha   81.49944166
_cell_angle_beta   90.00000000
_cell_angle_gamma   90.00000000
_symmetry_Int_Tables_number   1
_chemical_formula_structural   V2O3
_chemical_formula_sum   'V12 O18'
_cell_volume   315.03243081
_cell_formula_units_Z   6
loop_
 _symmetry_equiv_pos_site_id
 _symmetry_equiv_pos_as_xyz
  1  'x, y, z'
loop_
 _atom_site_type_symbol
 _atom_site_label
 _atom_site_symmetry_multiplicity
 _atom_site_fract_x
 _atom_site_fract_y
 _atom_site_fract_z
 _atom_site_occupancy
  V  V0  1  0.25000000  0.81368400  0.01610100  1
  V  V1  1  0.25000000  0.45168300  0.11218200  1
  V  V2  1  0.75000000  0.81987900  0.21695400  1
  V  V3  1  0.75000000  0.17985000  0.28344500  1
  V  V4  1  0.25000000  0.50074100  0.40110000  1
  V  V5  1  0.25000000  0.87290000  0.42944200  1
  V  V6  1  0.75000000  0.12710000  0.57055800  1
  V  V7  1  0.75000000  0.49925900  0.59890000  1
  V  V8  1  0.25000000  0.82015000  0.71655500  1
  V  V9  1  0.25000000  0.18012100  0.78304600  1
  V  V10  1  0.75000000  0.54831700  0.88781800  1
  V  V11  1  0.75000000  0.18631600  0.98389900  1
  O  O0  1  0.75000000  0.62135600  0.02518900  1
  O  O1  1  0.75000000  0.27949400  0.13442400  1
  O  O2  1  0.75000000  0.94598100  0.07467500  1
  O  O3  1  0.25000000  0.68485700  0.17108700  1
  O  O4  1  0.25000000  0.34570800  0.29337800  1
  O  O5  1  0.25000000  0.98196000  0.27065100  1
  O  O6  1  0.75000000  0.69230700  0.35953000  1
  O  O7  1  0.75000000  0.03980400  0.42574400  1
  O  O8  1  0.75000000  0.36656500  0.47515800  1
  O  O9  1  0.25000000  0.63343500  0.52484200  1
  O  O10  1  0.25000000  0.96019600  0.57425600  1
  O  O11  1  0.25000000  0.30769300  0.64047000  1
  O  O12  1  0.75000000  0.01804000  0.72934900  1
  O  O13  1  0.75000000  0.65429200  0.70662200  1
  O  O14  1  0.75000000  0.31514300  0.82891300  1
  O  O15  1  0.25000000  0.05401900  0.92532500  1
  O  O16  1  0.25000000  0.72050600  0.86557600  1
  O  O17  1  0.25000000  0.37864400  0.97481100  1
loop_
_geom_bond_atom_site_label_1
_geom_bond_atom_site_label_2
_geom_bond_distance
_geom_bond_site_symmetry_2
O0 V10 2.000358 1_554
O0 V0 2.131355 1_555
O0 V0 2.131355 1_655
O0 V1 2.238830 1_655
O0 V1 2.238830 1_555
O1 V3 2.028614 1_555
O1 V1 2.030885 1_555
O1 V1 2.030885 1_655
O1 V11 2.235494 1_554
O2 V2 2.004590 1_555
O2 V11 2.047965 1_564
O2 V0 2.071690 1_655
O2 V0 2.071690 1_555
O3 V2 2.012275 1_455
O3 V2 2.012275 1_555
O3 V1 2.053385 1_555
O3 V0 2.162274 1_555
O4 V4 1.998131 1_555
O4 V3 2.023406 1_555
O4 V3 2.023406 1_455
O4 V1 2.442516 1_555
O5 V5 2.166790 1_555
O5 V2 2.176012 1_555
O5 V2 2.176012 1_455
O5 V3 2.194005 1_565
O5 V3 2.194005 1_465
O6 V2 2.011934 1_555
O6 V4 2.152355 1_555
O6 V4 2.152355 1_655
O6 V5 2.363089 1_555
O6 V5 2.363089 1_655
O7 V5 2.007661 1_645
O7 V5 2.007661 1_545
O7 V3 2.043569 1_555
O7 V6 2.142628 1_555
O8 V4 2.038182 1_555
O8 V4 2.038182 1_655
O8 V7 2.067279 1_555
O8 V6 2.071977 1_555
O9 V7 2.038182 1_555
O9 V7 2.038182 1_455
O9 V4 2.067279 1_555
O9 V5 2.071977 1_555
O10 V6 2.007661 1_565
O10 V6 2.007661 1_465
O10 V8 2.043569 1_555
O10 V5 2.142628 1_555
O11 V9 2.011934 1_555
O11 V7 2.152355 1_455
O11 V7 2.152355 1_555
O11 V6 2.363089 1_555
O11 V6 2.363089 1_455
O12 V6 2.166790 1_555
O12 V9 2.176012 1_655
O12 V9 2.176012 1_555
O12 V8 2.194005 1_645
O12 V8 2.194005 1_545
O13 V7 1.998131 1_555
O13 V8 2.023406 1_655
O13 V8 2.023406 1_555
O13 V10 2.442516 1_555
O14 V9 2.012275 1_555
O14 V9 2.012275 1_655
O14 V10 2.053385 1_555
O14 V11 2.162274 1_555
O15 V9 2.004590 1_555
O15 V0 2.047965 1_546
O15 V11 2.071690 1_555
O15 V11 2.071690 1_455
O16 V8 2.028614 1_555
O16 V10 2.030885 1_555
O16 V10 2.030885 1_455
O16 V0 2.235494 1_556
O17 V1 2.000358 1_556
O17 V11 2.131355 1_555
O17 V11 2.131355 1_455
O17 V10 2.238830 1_555
O17 V10 2.238830 1_455
