# generated using pymatgen
data_Tb3SbO7
_symmetry_space_group_name_H-M   'P 1'
_cell_length_a   6.51380350
_cell_length_b   6.51380350
_cell_length_c   7.55241500
_cell_angle_alpha   90.00000000
_cell_angle_beta   90.00000000
_cell_angle_gamma   109.32113171
_symmetry_Int_Tables_number   1
_chemical_formula_structural   Tb3SbO7
_chemical_formula_sum   'Tb6 Sb2 O14'
_cell_volume   302.39836393
_cell_formula_units_Z   2
loop_
 _symmetry_equiv_pos_site_id
 _symmetry_equiv_pos_as_xyz
  1  'x, y, z'
loop_
 _atom_site_type_symbol
 _atom_site_label
 _atom_site_symmetry_multiplicity
 _atom_site_fract_x
 _atom_site_fract_y
 _atom_site_fract_z
 _atom_site_occupancy
  Tb  Tb0  1  0.46799500  0.00000300  0.25268900  1
  Tb  Tb1  1  0.99999700  0.53200500  0.24731100  1
  Tb  Tb2  1  0.48699000  0.48699000  0.00000000  1
  Tb  Tb3  1  0.51301000  0.51301000  0.50000000  1
  Tb  Tb4  1  0.53200500  0.99999700  0.75268900  1
  Tb  Tb5  1  0.00000300  0.46799500  0.74731100  1
  Sb  Sb0  1  0.99960300  0.99960300  0.50000000  1
  Sb  Sb1  1  0.00039700  0.00039700  0.00000000  1
  O  O0  1  0.93044300  0.06955700  0.75000000  1
  O  O1  1  0.63735100  0.36264900  0.75000000  1
  O  O2  1  0.31698600  0.06418600  0.53254600  1
  O  O3  1  0.93581400  0.68301400  0.96745400  1
  O  O4  1  0.62960400  0.37039600  0.25000000  1
  O  O5  1  0.92253500  0.67645700  0.52751000  1
  O  O6  1  0.32354300  0.07746500  0.97249000  1
  O  O7  1  0.07746500  0.32354300  0.02751000  1
  O  O8  1  0.67645700  0.92253500  0.47249000  1
  O  O9  1  0.37039600  0.62960400  0.75000000  1
  O  O10  1  0.68301400  0.93581400  0.03254600  1
  O  O11  1  0.06418600  0.31698600  0.46745400  1
  O  O12  1  0.36264900  0.63735100  0.25000000  1
  O  O13  1  0.06955700  0.93044300  0.25000000  1
loop_
_geom_bond_atom_site_label_1
_geom_bond_atom_site_label_2
_geom_bond_distance
_geom_bond_site_symmetry_2
O0 Sb0 2.027646 1_545
O0 Sb1 2.027646 1_656
O0 Tb5 2.482616 1_655
O0 Tb4 2.482616 1_545
O1 Tb4 2.231332 1_545
O1 Tb5 2.231332 1_655
O1 Tb3 2.388539 1_555
O1 Tb2 2.388539 1_556
O2 Sb0 1.983912 1_445
O2 Tb4 2.299623 1_545
O2 Tb0 2.425233 1_555
O2 Tb3 2.787068 1_555
O3 Sb1 1.983912 1_666
O3 Tb5 2.299623 1_655
O3 Tb1 2.425233 1_556
O3 Tb2 2.787068 1_556
O4 Tb1 2.291045 1_555
O4 Tb0 2.291045 1_555
O4 Tb2 2.339136 1_555
O4 Tb3 2.339136 1_555
O5 Sb0 2.006637 1_555
O5 Tb5 2.303819 1_655
O5 Tb1 2.435637 1_555
O5 Tb3 2.532438 1_555
O6 Sb1 2.006637 1_556
O6 Tb4 2.303819 1_545
O6 Tb0 2.435637 1_556
O6 Tb2 2.532438 1_556
O7 Sb1 2.006637 1_555
O7 Tb1 2.303819 1_455
O7 Tb5 2.435637 1_554
O7 Tb2 2.532438 1_555
O8 Sb0 2.006637 1_555
O8 Tb0 2.303819 1_565
O8 Tb4 2.435637 1_555
O8 Tb3 2.532438 1_555
O9 Tb4 2.291045 1_555
O9 Tb5 2.291045 1_555
O9 Tb3 2.339136 1_555
O9 Tb2 2.339136 1_556
O10 Sb1 1.983912 1_665
O10 Tb0 2.299623 1_565
O10 Tb4 2.425233 1_554
O10 Tb2 2.787068 1_555
O11 Sb0 1.983912 1_445
O11 Tb1 2.299623 1_455
O11 Tb5 2.425233 1_555
O11 Tb3 2.787068 1_555
O12 Tb0 2.231332 1_565
O12 Tb1 2.231332 1_455
O12 Tb2 2.388539 1_555
O12 Tb3 2.388539 1_555
O13 Sb0 2.027646 1_455
O13 Sb1 2.027646 1_565
O13 Tb0 2.482616 1_565
O13 Tb1 2.482616 1_455
