# generated using pymatgen
data_LiVP2HO8
_symmetry_space_group_name_H-M   'P 1'
_cell_length_a   7.75989000
_cell_length_b   7.99199521
_cell_length_c   9.73184012
_cell_angle_alpha   90.02662007
_cell_angle_beta   111.84548177
_cell_angle_gamma   90.09158588
_symmetry_Int_Tables_number   1
_chemical_formula_structural   LiVP2HO8
_chemical_formula_sum   'Li4 V4 P8 H4 O32'
_cell_volume   560.19875481
_cell_formula_units_Z   4
loop_
 _symmetry_equiv_pos_site_id
 _symmetry_equiv_pos_as_xyz
  1  'x, y, z'
loop_
 _atom_site_type_symbol
 _atom_site_label
 _atom_site_symmetry_multiplicity
 _atom_site_fract_x
 _atom_site_fract_y
 _atom_site_fract_z
 _atom_site_occupancy
  Li  Li0  1  0.64874300  0.37121600  0.77359500  1
  Li  Li1  1  0.85075900  0.87049100  0.72796500  1
  Li  Li2  1  0.35364600  0.63268900  0.22124700  1
  Li  Li3  1  0.85076500  0.87080300  0.22587400  1
  V  V0  1  0.01386000  0.49727800  0.75294000  1
  V  V1  1  0.48620700  0.99720400  0.74750400  1
  V  V2  1  0.99896300  0.49271100  0.25301200  1
  V  V3  1  0.49194600  0.01193300  0.25137900  1
  P  P0  1  0.23016700  0.84796300  0.93305000  1
  P  P1  1  0.73603100  0.65375200  0.93227900  1
  P  P2  1  0.26839200  0.34646800  0.56626300  1
  P  P3  1  0.23169700  0.84835000  0.43078800  1
  P  P4  1  0.76160600  0.15503300  0.56795400  1
  P  P5  1  0.73840600  0.65678200  0.43319600  1
  P  P6  1  0.26832600  0.35146300  0.06757000  1
  P  P7  1  0.76205600  0.15598100  0.06667300  1
  H  H0  1  0.50825300  0.50846700  0.99150900  1
  H  H1  1  0.50978300  0.50698000  0.49130700  1
  H  H2  1  0.98887200  0.01039600  0.51211500  1
  H  H3  1  0.98924200  0.01030600  0.01202900  1
  O  O0  1  0.05209800  0.94386000  0.90605700  1
  O  O1  1  0.13625500  0.33234400  0.90345600  1
  O  O2  1  0.18450500  0.67317500  0.86132200  1
  O  O3  1  0.35190400  0.94295100  0.85922400  1
  O  O4  1  0.55964300  0.54743100  0.90518400  1
  O  O5  1  0.64136800  0.17451300  0.90030100  1
  O  O6  1  0.68631700  0.82409500  0.85372400  1
  O  O7  1  0.84749400  0.55130400  0.85582400  1
  O  O8  1  0.15173000  0.44361700  0.64407600  1
  O  O9  1  0.31554500  0.17279800  0.63907200  1
  O  O10  1  0.35953000  0.83212100  0.59578700  1
  O  O11  1  0.44790200  0.44107700  0.59080100  1
  O  O12  1  0.65452500  0.05061600  0.64745100  1
  O  O13  1  0.81239900  0.32549700  0.64626300  1
  O  O14  1  0.05166300  0.93954400  0.40602900  1
  O  O15  1  0.13795000  0.33035800  0.40246500  1
  O  O16  1  0.85531000  0.67568600  0.60014700  1
  O  O17  1  0.94013900  0.05057000  0.59552500  1
  O  O18  1  0.19206700  0.67640200  0.35149800  1
  O  O19  1  0.35196000  0.94732200  0.35650300  1
  O  O20  1  0.55415500  0.56224000  0.40606300  1
  O  O21  1  0.63901700  0.17370000  0.40336400  1
  O  O22  1  0.68715300  0.82429100  0.34983200  1
  O  O23  1  0.85640300  0.55645100  0.36171300  1
  O  O24  1  0.15464000  0.44900200  0.14797500  1
  O  O25  1  0.31617300  0.17559400  0.13495800  1
  O  O26  1  0.35524500  0.83145400  0.09931500  1
  O  O27  1  0.43905400  0.45872900  0.09249600  1
  O  O28  1  0.65349900  0.05378100  0.14518600  1
  O  O29  1  0.81720100  0.32851800  0.13756100  1
  O  O30  1  0.85507800  0.67449500  0.09913000  1
  O  O31  1  0.93821400  0.04762000  0.09528500  1
loop_
_geom_bond_atom_site_label_1
_geom_bond_atom_site_label_2
_geom_bond_distance
_geom_bond_site_symmetry_2
Li0 O11 1.961032 1_555
Li0 O5 2.012247 1_555
Li0 O7 2.040548 1_555
Li0 O13 2.110464 1_555
Li0 O4 2.182131 1_555
Li1 O0 1.941546 1_655
Li1 O16 2.000873 1_555
Li1 O12 2.031048 1_565
Li1 O6 2.103521 1_555
Li1 O17 2.208474 1_565
Li2 O20 1.973310 1_555
Li2 O26 1.986026 1_555
Li2 O24 2.054410 1_555
Li2 O18 2.117712 1_555
Li2 O27 2.135755 1_555
Li3 O14 1.941203 1_655
Li3 O30 2.003258 1_555
Li3 O28 2.052317 1_565
Li3 O22 2.084244 1_555
Li3 O31 2.170928 1_565
H0 O4 1.100425 1_555
H0 O27 1.343375 1_556
H1 O20 1.101925 1_555
H1 O11 1.338358 1_555
H2 O17 1.064705 1_555
H2 O14 1.413731 1_645
H3 O31 1.068233 1_555
H3 O0 1.399344 1_644
O0 P0 1.516306 1_555
O1 P6 1.551011 1_556
O1 V0 1.937952 1_555
O2 P0 1.541947 1_555
O2 V0 1.948179 1_555
O3 P0 1.577402 1_555
O3 V1 1.816172 1_555
O4 P1 1.546772 1_555
O5 P7 1.546840 1_556
O5 V1 2.080637 1_545
O6 P1 1.539409 1_555
O6 V1 2.051217 1_555
O7 P1 1.566124 1_555
O7 V0 1.954203 1_655
O8 P2 1.583570 1_555
O8 V0 1.815355 1_555
O9 P2 1.540130 1_555
O9 V1 1.950395 1_545
O10 P3 1.547395 1_555
O10 V1 1.949583 1_555
O11 P2 1.522508 1_555
O12 P4 1.569136 1_555
O12 V1 1.944570 1_545
O13 P4 1.538149 1_555
O13 V0 2.047070 1_655
O14 P3 1.514554 1_555
O15 P2 1.542972 1_555
O15 V2 1.949623 1_455
O16 P5 1.545313 1_555
O16 V0 2.098535 1_655
O17 P4 1.554216 1_555
O18 P3 1.549034 1_555
O18 V2 2.059622 1_455
O19 P3 1.587279 1_555
O19 V3 1.821816 1_565
O20 P5 1.549276 1_555
O21 P4 1.536079 1_555
O21 V3 1.974559 1_555
O22 P5 1.539853 1_555
O22 V3 2.095225 1_565
O23 P5 1.562427 1_555
O23 V2 1.864021 1_555
O24 P6 1.585428 1_555
O24 V2 1.883159 1_455
O25 P6 1.537794 1_555
O25 V3 1.926632 1_555
O26 P0 1.552234 1_554
O26 V3 2.054408 1_565
O27 P6 1.518531 1_555
O28 P7 1.561396 1_555
O28 V3 1.927339 1_555
O29 P7 1.529044 1_555
O29 V2 1.946033 1_555
O30 P1 1.549330 1_554
O30 V2 2.088739 1_555
O31 P7 1.554627 1_555
