# generated using pymatgen
data_Li3VFe3O8
_symmetry_space_group_name_H-M   'P 1'
_cell_length_a   10.43461576
_cell_length_b   10.43461671
_cell_length_c   14.77094927
_cell_angle_alpha   19.31496691
_cell_angle_beta   19.31496124
_cell_angle_gamma   33.29076465
_symmetry_Int_Tables_number   1
_chemical_formula_structural   Li3VFe3O8
_chemical_formula_sum   'Li3 V1 Fe3 O8'
_cell_volume   152.37728086
_cell_formula_units_Z   1
loop_
 _symmetry_equiv_pos_site_id
 _symmetry_equiv_pos_as_xyz
  1  'x, y, z'
loop_
 _atom_site_type_symbol
 _atom_site_label
 _atom_site_symmetry_multiplicity
 _atom_site_fract_x
 _atom_site_fract_y
 _atom_site_fract_z
 _atom_site_occupancy
  Li  Li0  1  0.00000000  0.50000000  0.50000000  1
  Li  Li1  1  0.50000000  0.00000000  0.50000000  1
  Li  Li2  1  0.50000000  0.50000000  0.50000000  1
  V  V0  1  0.00000000  0.00000000  0.00000000  1
  Fe  Fe0  1  0.00000000  0.50000000  0.00000000  1
  Fe  Fe1  1  0.50000000  0.00000000  0.00000000  1
  Fe  Fe2  1  0.50000000  0.50000000  0.00000000  1
  O  O0  1  0.00000000  0.00000000  0.25849200  1
  O  O1  1  0.00000000  0.52267400  0.24562200  1
  O  O2  1  0.52267400  0.00000000  0.24562200  1
  O  O3  1  0.00000000  0.00000000  0.74150800  1
  O  O4  1  0.47732600  0.47732600  0.29096900  1
  O  O5  1  0.00000000  0.47732600  0.75437800  1
  O  O6  1  0.47732600  0.00000000  0.75437800  1
  O  O7  1  0.52267400  0.52267400  0.70903100  1
loop_
_geom_bond_atom_site_label_1
_geom_bond_atom_site_label_2
_geom_bond_distance
_geom_bond_site_symmetry_2
Li0 O4 2.186272 1_555
Li0 O7 2.186272 1_455
Li0 O6 2.186282 1_564
Li0 O2 2.186282 1_456
Li0 O0 2.194916 1_565
Li0 O3 2.194916 1_555
Li1 O4 2.186273 1_555
Li1 O7 2.186273 1_545
Li1 O5 2.186282 1_654
Li1 O1 2.186282 1_546
Li1 O0 2.194915 1_655
Li1 O3 2.194915 1_555
Li2 O1 2.186282 1_655
Li2 O5 2.186282 1_555
Li2 O2 2.186282 1_565
Li2 O6 2.186282 1_555
Li2 O0 2.194915 1_556
Li2 O3 2.194915 1_664
Fe0 O3 2.049404 1_564
Fe0 O0 2.049404 1_555
Fe0 O6 2.066150 1_455
Fe0 O2 2.066150 1_564
Fe0 O7 2.066158 1_554
Fe0 O4 2.066158 1_455
Fe1 O3 2.049404 1_654
Fe1 O0 2.049404 1_555
Fe1 O5 2.066150 1_545
Fe1 O1 2.066150 1_654
Fe1 O7 2.066158 1_554
Fe1 O4 2.066158 1_545
Fe2 O3 2.049404 1_555
Fe2 O0 2.049404 1_664
Fe2 O5 2.066150 1_654
Fe2 O1 2.066150 1_555
Fe2 O6 2.066151 1_564
Fe2 O2 2.066151 1_555
O1 V0 1.965666 1_565
O2 V0 1.965665 1_655
O4 V0 1.965673 1_556
O5 V0 1.965666 1_556
O6 V0 1.965665 1_556
O7 V0 1.965673 1_665
