# generated using pymatgen
data_Fe5O7F3
_symmetry_space_group_name_H-M   'P 1'
_cell_length_a   4.66987300
_cell_length_b   4.67468191
_cell_length_c   15.21695466
_cell_angle_alpha   89.60903658
_cell_angle_beta   89.92484540
_cell_angle_gamma   87.25550329
_symmetry_Int_Tables_number   1
_chemical_formula_structural   Fe5O7F3
_chemical_formula_sum   'Fe10 O14 F6'
_cell_volume   331.79980977
_cell_formula_units_Z   2
loop_
 _symmetry_equiv_pos_site_id
 _symmetry_equiv_pos_as_xyz
  1  'x, y, z'
loop_
 _atom_site_type_symbol
 _atom_site_label
 _atom_site_symmetry_multiplicity
 _atom_site_fract_x
 _atom_site_fract_y
 _atom_site_fract_z
 _atom_site_occupancy
  Fe  Fe0  1  0.99726100  0.00387700  0.99079200  1
  Fe  Fe1  1  0.01732900  0.97317000  0.80439300  1
  Fe  Fe2  1  0.99952100  0.00651100  0.59991000  1
  Fe  Fe3  1  0.01319200  0.01457400  0.40112900  1
  Fe  Fe4  1  0.00397000  0.00586800  0.20363500  1
  Fe  Fe5  1  0.48985100  0.50619100  0.90540300  1
  Fe  Fe6  1  0.47561200  0.47783200  0.49847400  1
  Fe  Fe7  1  0.52429200  0.54020900  0.69461000  1
  Fe  Fe8  1  0.47589000  0.47713900  0.29952800  1
  Fe  Fe9  1  0.50014900  0.50353500  0.10086600  1
  O  O0  1  0.20025700  0.19535500  0.89864800  1
  O  O1  1  0.18010200  0.18600000  0.50278300  1
  O  O2  1  0.18498800  0.18616100  0.29946500  1
  O  O3  1  0.30261700  0.69844300  0.00837900  1
  O  O4  1  0.32821700  0.68680500  0.79892800  1
  O  O5  1  0.30182500  0.69990100  0.59620300  1
  O  O6  1  0.29735700  0.68550700  0.39950900  1
  O  O7  1  0.30625300  0.69138300  0.19902200  1
  O  O8  1  0.69004500  0.30969700  0.00567600  1
  O  O9  1  0.69494500  0.30962300  0.59775800  1
  O  O10  1  0.68364200  0.29896900  0.39950900  1
  O  O11  1  0.68901000  0.30808600  0.19881100  1
  O  O12  1  0.80424300  0.79826600  0.90019600  1
  O  O13  1  0.82625800  0.82161200  0.69759700  1
  F  F0  1  0.21120800  0.20329400  0.70098600  1
  F  F1  1  0.18924200  0.19678300  0.10100700  1
  F  F2  1  0.71257800  0.30296800  0.79620200  1
  F  F3  1  0.79559800  0.80068900  0.49785800  1
  F  F4  1  0.80734500  0.81348100  0.10264400  1
  F  F5  1  0.79720400  0.79807000  0.30007700  1
loop_
_geom_bond_atom_site_label_1
_geom_bond_atom_site_label_2
_geom_bond_distance
_geom_bond_site_symmetry_2
Fe0 O0 1.930417 1_655
Fe0 O12 1.934203 1_545
Fe0 O3 1.986067 1_646
Fe0 O8 1.990097 1_556
Fe1 O4 1.929189 1_555
Fe1 O12 1.960053 1_455
Fe1 O0 1.993535 1_565
Fe1 O13 2.004781 1_455
Fe2 O1 1.909747 1_655
Fe2 O13 1.912517 1_545
Fe2 O9 1.959168 1_555
Fe2 O5 1.964083 1_645
Fe3 O2 1.929174 1_555
Fe3 O1 1.929354 1_555
Fe3 O6 1.983138 1_545
Fe3 O10 1.984986 1_455
Fe4 O2 1.907778 1_555
Fe4 O7 1.990293 1_545
Fe4 O11 1.991108 1_455
Fe5 O4 1.957356 1_555
Fe5 O8 1.987040 1_556
Fe5 O3 1.991984 1_556
Fe5 O0 2.035051 1_555
Fe5 O12 2.053336 1_555
Fe6 O6 1.951727 1_555
Fe6 O10 1.961199 1_555
Fe6 O9 1.964852 1_555
Fe6 O5 1.971064 1_555
Fe6 O1 1.987112 1_555
Fe7 O4 1.943918 1_555
Fe7 O5 1.947691 1_555
Fe7 O13 1.974755 1_555
Fe7 O9 1.976208 1_555
Fe8 O10 1.964387 1_555
Fe8 O2 1.967907 1_555
Fe8 O7 1.968743 1_555
Fe8 O6 1.974256 1_555
Fe8 O11 1.975126 1_555
Fe9 O3 1.888700 1_555
Fe9 O8 1.908722 1_555
Fe9 O11 1.934344 1_555
Fe9 O7 1.939108 1_555
F0 Fe2 2.073520 1_455
F0 Fe1 2.125899 1_545
F0 Fe7 2.201280 1_555
F1 Fe4 2.008807 1_555
F1 Fe9 2.088923 1_555
F1 Fe0 2.128791 1_454
F2 Fe1 2.050721 1_645
F2 Fe7 2.068747 1_555
F2 Fe5 2.160551 1_555
F3 Fe3 2.066896 1_665
F3 Fe2 2.087146 1_565
F3 Fe6 2.174073 1_555
F4 Fe4 2.028612 1_665
F4 Fe9 2.087512 1_555
F4 Fe0 2.127594 1_564
F5 Fe4 2.023929 1_665
F5 Fe3 2.128208 1_665
F5 Fe8 2.172116 1_555
