# generated using pymatgen
data_Al4C3
_symmetry_space_group_name_H-M   'P 1'
_cell_length_a   4.48951600
_cell_length_b   4.53078745
_cell_length_c   5.02943497
_cell_angle_alpha   90.76419658
_cell_angle_beta   111.75053310
_cell_angle_gamma   119.17431198
_symmetry_Int_Tables_number   1
_chemical_formula_structural   Al4C3
_chemical_formula_sum   'Al4 C3'
_cell_volume   80.55805208
_cell_formula_units_Z   1
loop_
 _symmetry_equiv_pos_site_id
 _symmetry_equiv_pos_as_xyz
  1  'x, y, z'
loop_
 _atom_site_type_symbol
 _atom_site_label
 _atom_site_symmetry_multiplicity
 _atom_site_fract_x
 _atom_site_fract_y
 _atom_site_fract_z
 _atom_site_occupancy
  Al  Al0  1  0.07145600  0.45697900  0.96567300  1
  Al  Al1  1  0.20807300  0.03506000  0.65448100  1
  Al  Al2  1  0.62776500  0.23353300  0.28701700  1
  Al  Al3  1  0.52328400  0.69537600  0.63403700  1
  C  C0  1  0.05280700  0.91765900  0.99126300  1
  C  C1  1  0.64170400  0.70878100  0.28119500  1
  C  C2  1  0.92358400  0.00288100  0.20322000  1
loop_
_geom_bond_atom_site_label_1
_geom_bond_atom_site_label_2
_geom_bond_distance
_geom_bond_site_symmetry_2
Al0 C1 2.113595 1_556
Al0 C0 2.133390 1_555
Al0 C2 2.328700 1_456
Al0 C0 2.410685 1_545
Al1 C0 2.043401 1_545
Al1 C2 2.113016 1_455
Al1 C1 2.213323 1_445
Al2 C0 2.102321 1_544
Al2 C1 2.124363 1_555
Al2 C2 2.188542 1_555
Al2 C1 2.408739 1_545
Al3 C1 2.026365 1_555
Al3 C0 2.084659 1_655
C0 C2 1.512561 1_466
C1 C2 1.506187 1_565
