# generated using pymatgen
data_Li3V4P9O32
_symmetry_space_group_name_H-M   'P 1'
_cell_length_a   13.77768800
_cell_length_b   13.77768800
_cell_length_c   6.34549300
_cell_angle_alpha   90.00000000
_cell_angle_beta   90.00000000
_cell_angle_gamma   90.00000000
_symmetry_Int_Tables_number   1
_chemical_formula_structural   Li3V4P9O32
_chemical_formula_sum   'Li6 V8 P18 O64'
_cell_volume   1204.53122021
_cell_formula_units_Z   2
loop_
 _symmetry_equiv_pos_site_id
 _symmetry_equiv_pos_as_xyz
  1  'x, y, z'
loop_
 _atom_site_type_symbol
 _atom_site_label
 _atom_site_symmetry_multiplicity
 _atom_site_fract_x
 _atom_site_fract_y
 _atom_site_fract_z
 _atom_site_occupancy
  Li  Li0  1  0.50000000  0.00000000  0.35810900  1
  Li  Li1  1  0.00000000  0.50000000  0.14189100  1
  Li  Li2  1  0.50000000  0.00000000  0.85810900  1
  Li  Li3  1  0.50000000  0.50000000  0.50000000  1
  Li  Li4  1  0.00000000  0.50000000  0.64189100  1
  Li  Li5  1  0.00000000  0.00000000  0.00000000  1
  V  V0  1  0.80357000  0.11820400  0.37780600  1
  V  V1  1  0.30357000  0.38179600  0.12219400  1
  V  V2  1  0.11820400  0.19643000  0.62219400  1
  V  V3  1  0.88179600  0.80357000  0.62219400  1
  V  V4  1  0.19643000  0.88179600  0.37780600  1
  V  V5  1  0.38179600  0.69643000  0.87780600  1
  V  V6  1  0.61820400  0.30357000  0.87780600  1
  V  V7  1  0.69643000  0.61820400  0.12219400  1
  P  P0  1  0.24662500  0.89413900  0.86765300  1
  P  P1  1  0.55989900  0.80426900  0.11212000  1
  P  P2  1  0.44010100  0.19573100  0.11212000  1
  P  P3  1  0.94010100  0.30426900  0.38788000  1
  P  P4  1  0.69573100  0.94010100  0.61212000  1
  P  P5  1  0.05989900  0.69573100  0.38788000  1
  P  P6  1  0.50000000  0.50000000  0.00000000  1
  P  P7  1  0.30426900  0.05989900  0.61212000  1
  P  P8  1  0.00000000  0.00000000  0.50000000  1
  P  P9  1  0.25337500  0.39413900  0.63234700  1
  P  P10  1  0.10586100  0.24662500  0.13234700  1
  P  P11  1  0.19573100  0.55989900  0.88788000  1
  P  P12  1  0.39413900  0.74662500  0.36765300  1
  P  P13  1  0.89413900  0.75337500  0.13234700  1
  P  P14  1  0.60586100  0.25337500  0.36765300  1
  P  P15  1  0.80426900  0.44010100  0.88788000  1
  P  P16  1  0.74662500  0.60586100  0.63234700  1
  P  P17  1  0.75337500  0.10586100  0.86765300  1
  O  O0  1  0.25081800  0.00515600  0.43090500  1
  O  O1  1  0.99491100  0.27759200  0.16964500  1
  O  O2  1  0.25419800  0.15936700  0.63821700  1
  O  O3  1  0.68852300  0.60234200  0.42806200  1
  O  O4  1  0.24580200  0.65936700  0.86178300  1
  O  O5  1  0.36672400  0.68021100  0.18402400  1
  O  O6  1  0.81978900  0.13327600  0.68402400  1
  O  O7  1  0.49484400  0.24918200  0.93090500  1
  O  O8  1  0.66503700  0.16012900  0.38184500  1
  O  O9  1  0.74580200  0.84063300  0.63821700  1
  O  O10  1  0.33987100  0.83496300  0.88184500  1
  O  O11  1  0.56372800  0.56258000  0.14926200  1
  O  O12  1  0.93627200  0.06258000  0.35073800  1
  O  O13  1  0.68021100  0.63327600  0.81597600  1
  O  O14  1  0.75081800  0.49484400  0.06909500  1
  O  O15  1  0.16012900  0.33496300  0.61815500  1
  O  O16  1  0.39765800  0.68852300  0.57193800  1
  O  O17  1  0.50515600  0.75081800  0.93090500  1
  O  O18  1  0.93742000  0.93627200  0.64926200  1
  O  O19  1  0.74918200  0.99484400  0.43090500  1
  O  O20  1  0.72240800  0.99491100  0.83035500  1
  O  O21  1  0.86672400  0.81978900  0.31597600  1
  O  O22  1  0.34063300  0.24580200  0.13821700  1
  O  O23  1  0.56258000  0.43627200  0.85073800  1
  O  O24  1  0.24918200  0.50515600  0.06909500  1
  O  O25  1  0.65936700  0.75419800  0.13821700  1
  O  O26  1  0.18021100  0.86672400  0.68402400  1
  O  O27  1  0.83987100  0.66503700  0.61815500  1
  O  O28  1  0.99484400  0.25081800  0.56909500  1
  O  O29  1  0.31147700  0.39765800  0.42806200  1
  O  O30  1  0.63327600  0.31978900  0.18402400  1
  O  O31  1  0.89765800  0.81147700  0.92806200  1
  O  O32  1  0.66012900  0.16503700  0.88184500  1
  O  O33  1  0.84063300  0.25419800  0.36178300  1
  O  O34  1  0.18852300  0.89765800  0.07193800  1
  O  O35  1  0.81147700  0.10234200  0.07193800  1
  O  O36  1  0.43627200  0.43742000  0.14926200  1
  O  O37  1  0.50508900  0.77759200  0.33035500  1
  O  O38  1  0.05923600  0.58721900  0.40804400  1
  O  O39  1  0.75419800  0.34063300  0.86178300  1
  O  O40  1  0.58721900  0.94076400  0.59195600  1
  O  O41  1  0.43742000  0.56372800  0.85073800  1
  O  O42  1  0.91278100  0.44076400  0.90804400  1
  O  O43  1  0.08721900  0.55923600  0.90804400  1
  O  O44  1  0.13327600  0.18021100  0.31597600  1
  O  O45  1  0.83496300  0.66012900  0.11815500  1
  O  O46  1  0.10234200  0.18852300  0.92806200  1
  O  O47  1  0.60234200  0.31147700  0.57193800  1
  O  O48  1  0.77759200  0.49491100  0.66964500  1
  O  O49  1  0.06258000  0.06372800  0.64926200  1
  O  O50  1  0.55923600  0.91278100  0.09195600  1
  O  O51  1  0.22240800  0.50508900  0.66964500  1
  O  O52  1  0.49491100  0.22240800  0.33035500  1
  O  O53  1  0.06372800  0.93742000  0.35073800  1
  O  O54  1  0.15936700  0.74580200  0.36178300  1
  O  O55  1  0.94076400  0.41278100  0.40804400  1
  O  O56  1  0.16503700  0.33987100  0.11815500  1
  O  O57  1  0.27759200  0.00508900  0.83035500  1
  O  O58  1  0.33496300  0.83987100  0.38184500  1
  O  O59  1  0.31978900  0.36672400  0.81597600  1
  O  O60  1  0.41278100  0.05923600  0.59195600  1
  O  O61  1  0.00508900  0.72240800  0.16964500  1
  O  O62  1  0.00515600  0.74918200  0.56909500  1
  O  O63  1  0.44076400  0.08721900  0.09195600  1
loop_
_geom_bond_atom_site_label_1
_geom_bond_atom_site_label_2
_geom_bond_distance
_geom_bond_site_symmetry_2
Li0 O40 2.076532 1_545
Li0 O60 2.076532 1_555
Li0 O63 2.227642 1_555
Li0 O50 2.227642 1_545
Li1 O43 2.076532 1_554
Li1 O42 2.076532 1_454
Li1 O38 2.227642 1_555
Li1 O55 2.227642 1_455
Li2 O63 2.076532 1_556
Li2 O50 2.076532 1_546
Li2 O40 2.227642 1_545
Li2 O60 2.227642 1_555
Li3 O41 2.543157 1_555
Li3 O36 2.543157 1_555
Li3 O11 2.543157 1_555
Li3 O23 2.543157 1_555
Li4 O38 2.076532 1_555
Li4 O55 2.076532 1_455
Li4 O43 2.227642 1_555
Li4 O42 2.227642 1_455
Li5 O49 2.543157 1_554
Li5 O53 2.543157 1_545
Li5 O12 2.543157 1_455
Li5 O18 2.543157 1_444
O0 P7 1.559956 1_555
O0 V4 1.887785 1_545
O1 P10 1.604609 1_655
O1 P3 1.619582 1_555
O2 P7 1.543190 1_555
O2 V2 1.944680 1_555
O3 P16 1.524314 1_555
O3 V7 1.956184 1_555
O4 P11 1.543190 1_555
O4 V5 1.944680 1_555
O5 P12 1.528948 1_555
O5 V5 1.966904 1_554
O6 P17 1.528948 1_555
O6 V0 1.966904 1_555
O7 P2 1.559956 1_556
O7 V6 1.887785 1_555
O8 P14 1.524247 1_555
O8 V0 1.994320 1_555
O9 P4 1.543190 1_555
O9 V3 1.944680 1_555
O10 P0 1.524247 1_555
O10 V5 1.994320 1_555
O11 P6 1.552870 1_555
O11 V7 1.989875 1_555
O12 P8 1.552870 1_655
O12 V0 1.989875 1_555
O13 P16 1.528948 1_555
O13 V7 1.966904 1_556
O14 P15 1.559956 1_554
O14 V7 1.887785 1_555
O15 P9 1.524247 1_555
O15 V2 1.994320 1_555
O16 P12 1.524314 1_555
O16 V5 1.956184 1_555
O17 P1 1.559956 1_556
O17 V5 1.887785 1_555
O18 P8 1.552870 1_665
O18 V3 1.989875 1_555
O19 P4 1.559956 1_555
O19 V0 1.887785 1_565
O20 P17 1.604609 1_565
O20 P4 1.619582 1_555
O21 P13 1.528948 1_555
O21 V3 1.966904 1_555
O22 P2 1.543190 1_555
O22 V1 1.944680 1_555
O23 P6 1.552870 1_556
O23 V6 1.989875 1_555
O24 P11 1.559956 1_554
O24 V1 1.887785 1_555
O25 P1 1.543190 1_555
O25 V7 1.944680 1_555
O26 P0 1.528948 1_555
O26 V4 1.966904 1_555
O27 P16 1.524247 1_555
O27 V3 1.994320 1_555
O28 P3 1.559956 1_555
O28 V2 1.887785 1_655
O29 P9 1.524314 1_555
O29 V1 1.956184 1_555
O30 P14 1.528948 1_555
O30 V6 1.966904 1_554
O31 P13 1.524314 1_556
O31 V3 1.956184 1_555
O32 P17 1.524247 1_555
O32 V6 1.994320 1_555
O33 P3 1.543190 1_555
O33 V0 1.944680 1_555
O34 P0 1.524314 1_554
O34 V4 1.956184 1_555
O35 P17 1.524314 1_554
O35 V0 1.956184 1_555
O36 P6 1.552870 1_555
O36 V1 1.989875 1_555
O37 P12 1.604609 1_555
O37 P1 1.619582 1_555
O38 P5 1.500537 1_555
O39 P15 1.543190 1_555
O39 V6 1.944680 1_555
O40 P4 1.500537 1_555
O41 P6 1.552870 1_556
O41 V5 1.989875 1_555
O42 P15 1.500537 1_555
O43 P11 1.500537 1_555
O44 P10 1.528948 1_555
O44 V2 1.966904 1_555
O45 P13 1.524247 1_555
O45 V7 1.994320 1_555
O46 P10 1.524314 1_556
O46 V2 1.956184 1_555
O47 P14 1.524314 1_555
O47 V6 1.956184 1_555
O48 P16 1.604609 1_555
O48 P15 1.619582 1_555
O49 P8 1.552870 1_555
O49 V2 1.989875 1_555
O50 P1 1.500537 1_555
O51 P9 1.604609 1_555
O51 P11 1.619582 1_555
O52 P14 1.604609 1_555
O52 P2 1.619582 1_555
O53 P8 1.552870 1_565
O53 V4 1.989875 1_555
O54 P5 1.543190 1_555
O54 V4 1.944680 1_555
O55 P3 1.500537 1_555
O56 P10 1.524247 1_555
O56 V1 1.994320 1_555
O57 P0 1.604609 1_545
O57 P7 1.619582 1_555
O58 P12 1.524247 1_555
O58 V4 1.994320 1_555
O59 P9 1.528948 1_555
O59 V1 1.966904 1_556
O60 P7 1.500537 1_555
O61 P13 1.604609 1_455
O61 P5 1.619582 1_555
O62 P5 1.559956 1_555
O62 V3 1.887785 1_455
O63 P2 1.500537 1_555
