# generated using pymatgen
data_HoBiO3
_symmetry_space_group_name_H-M   'P 1'
_cell_length_a   5.79045500
_cell_length_b   6.20860900
_cell_length_c   8.43538300
_cell_angle_alpha   90.00000000
_cell_angle_beta   90.00000000
_cell_angle_gamma   90.00000000
_symmetry_Int_Tables_number   1
_chemical_formula_structural   HoBiO3
_chemical_formula_sum   'Ho4 Bi4 O12'
_cell_volume   303.25767922
_cell_formula_units_Z   4
loop_
 _symmetry_equiv_pos_site_id
 _symmetry_equiv_pos_as_xyz
  1  'x, y, z'
loop_
 _atom_site_type_symbol
 _atom_site_label
 _atom_site_symmetry_multiplicity
 _atom_site_fract_x
 _atom_site_fract_y
 _atom_site_fract_z
 _atom_site_occupancy
  Ho  Ho0  1  0.00000000  0.50000000  0.50000000  1
  Ho  Ho1  1  0.00000000  0.50000000  0.00000000  1
  Ho  Ho2  1  0.50000000  0.00000000  0.50000000  1
  Ho  Ho3  1  0.50000000  0.00000000  0.00000000  1
  Bi  Bi0  1  0.01196700  0.96438000  0.75000000  1
  Bi  Bi1  1  0.48803300  0.46438000  0.75000000  1
  Bi  Bi2  1  0.51196700  0.53562000  0.25000000  1
  Bi  Bi3  1  0.98803300  0.03562000  0.25000000  1
  O  O0  1  0.14311300  0.44932500  0.25000000  1
  O  O1  1  0.16951700  0.18134700  0.93301900  1
  O  O2  1  0.16951700  0.18134700  0.56698100  1
  O  O3  1  0.33048300  0.68134700  0.93301900  1
  O  O4  1  0.33048300  0.68134700  0.56698100  1
  O  O5  1  0.35688700  0.94932500  0.25000000  1
  O  O6  1  0.64311300  0.05067500  0.75000000  1
  O  O7  1  0.66951700  0.31865300  0.43301900  1
  O  O8  1  0.66951700  0.31865300  0.06698100  1
  O  O9  1  0.83048300  0.81865300  0.43301900  1
  O  O10  1  0.83048300  0.81865300  0.06698100  1
  O  O11  1  0.85688700  0.55067500  0.75000000  1
loop_
_geom_bond_atom_site_label_1
_geom_bond_atom_site_label_2
_geom_bond_distance
_geom_bond_site_symmetry_2
Ho0 O9 2.279643 1_455
Ho0 O2 2.279643 1_555
Ho0 O0 2.287563 1_555
Ho0 O11 2.287563 1_455
Ho0 O4 2.291061 1_555
Ho0 O7 2.291061 1_455
Ho1 O10 2.279643 1_455
Ho1 O1 2.279643 1_554
Ho1 O0 2.287563 1_555
Ho1 O11 2.287563 1_454
Ho1 O3 2.291061 1_554
Ho1 O8 2.291061 1_455
Ho2 O7 2.279643 1_555
Ho2 O4 2.279643 1_545
Ho2 O6 2.287563 1_555
Ho2 O5 2.287563 1_545
Ho2 O2 2.291061 1_555
Ho2 O9 2.291061 1_545
Ho3 O8 2.279643 1_555
Ho3 O3 2.279643 1_544
Ho3 O6 2.287563 1_554
Ho3 O5 2.287563 1_545
Ho3 O1 2.291061 1_554
Ho3 O10 2.291061 1_545
Bi0 O6 2.202006 1_465
Bi0 O1 2.242827 1_565
Bi0 O2 2.242827 1_565
Bi0 O11 2.720980 1_455
Bi1 O11 2.202006 1_555
Bi1 O3 2.242827 1_555
Bi1 O4 2.242827 1_555
Bi1 O6 2.720980 1_555
Bi2 O0 2.202006 1_555
Bi2 O8 2.242827 1_555
Bi2 O7 2.242827 1_555
Bi2 O5 2.720980 1_555
Bi3 O5 2.202006 1_645
Bi3 O9 2.242827 1_545
Bi3 O10 2.242827 1_545
Bi3 O0 2.720980 1_655
