# generated using pymatgen
data_V3Cu(PO4)6
_symmetry_space_group_name_H-M   'P 1'
_cell_length_a   8.71864103
_cell_length_b   8.71864103
_cell_length_c   8.71864116
_cell_angle_alpha   58.43525890
_cell_angle_beta   58.43525890
_cell_angle_gamma   58.43526208
_symmetry_Int_Tables_number   1
_chemical_formula_structural   V3Cu(PO4)6
_chemical_formula_sum   'V3 Cu1 P6 O24'
_cell_volume   451.85078127
_cell_formula_units_Z   1
loop_
 _symmetry_equiv_pos_site_id
 _symmetry_equiv_pos_as_xyz
  1  'x, y, z'
loop_
 _atom_site_type_symbol
 _atom_site_label
 _atom_site_symmetry_multiplicity
 _atom_site_fract_x
 _atom_site_fract_y
 _atom_site_fract_z
 _atom_site_occupancy
  V  V0  1  0.86056200  0.86056200  0.86056200  1
  V  V1  1  0.64109500  0.64109500  0.64109500  1
  V  V2  1  0.36173500  0.36173500  0.36173500  1
  Cu  Cu0  1  0.14351400  0.14351400  0.14351400  1
  P  P0  1  0.25019600  0.53050300  0.96864700  1
  P  P1  1  0.96864700  0.25019600  0.53050300  1
  P  P2  1  0.53050300  0.96864700  0.25019600  1
  P  P3  1  0.46570300  0.03192900  0.75410500  1
  P  P4  1  0.03192900  0.75410500  0.46570300  1
  P  P5  1  0.75410500  0.46570300  0.03192900  1
  O  O0  1  0.71151700  0.50397700  0.86139100  1
  O  O1  1  0.50397700  0.86139100  0.71151700  1
  O  O2  1  0.07293500  0.71667500  0.93881000  1
  O  O3  1  0.86139100  0.71151700  0.50397700  1
  O  O4  1  0.42351400  0.57268200  0.78364700  1
  O  O5  1  0.23359900  0.36216000  0.97657900  1
  O  O6  1  0.93881000  0.07293500  0.71667500  1
  O  O7  1  0.78364700  0.42351400  0.57268200  1
  O  O8  1  0.57268200  0.78364700  0.42351400  1
  O  O9  1  0.64346200  0.00521100  0.77706600  1
  O  O10  1  0.28203900  0.05222300  0.92302800  1
  O  O11  1  0.00521100  0.77706600  0.64346200  1
  O  O12  1  0.97657900  0.23359900  0.36216000  1
  O  O13  1  0.71667500  0.93881000  0.07293500  1
  O  O14  1  0.36216000  0.97657900  0.23359900  1
  O  O15  1  0.44348700  0.21405700  0.56988500  1
  O  O16  1  0.21405700  0.56988500  0.44348700  1
  O  O17  1  0.05222300  0.92302800  0.28203900  1
  O  O18  1  0.77706600  0.64346200  0.00521100  1
  O  O19  1  0.56988500  0.44348700  0.21405700  1
  O  O20  1  0.14326800  0.27635900  0.50444100  1
  O  O21  1  0.92302800  0.28203900  0.05222300  1
  O  O22  1  0.50444100  0.14326800  0.27635900  1
  O  O23  1  0.27635900  0.50444100  0.14326800  1
loop_
_geom_bond_atom_site_label_1
_geom_bond_atom_site_label_2
_geom_bond_distance
_geom_bond_site_symmetry_2
Cu0 O5 1.958365 1_554
Cu0 O12 1.958365 1_455
Cu0 O14 1.958365 1_545
Cu0 O17 1.988055 1_545
Cu0 O10 1.988055 1_554
Cu0 O21 1.988055 1_455
O0 P5 1.545576 1_556
O0 V1 1.886119 1_555
O1 P3 1.545576 1_565
O1 V1 1.886119 1_555
O2 P0 1.563139 1_555
O2 V0 1.860716 1_455
O3 P4 1.545576 1_655
O3 V1 1.886119 1_555
O4 P0 1.558638 1_555
O4 V1 1.854525 1_555
O5 P0 1.511800 1_555
O6 P1 1.563139 1_555
O6 V0 1.860716 1_545
O7 P1 1.558638 1_555
O7 V1 1.854525 1_555
O8 P2 1.558638 1_555
O8 V1 1.854525 1_555
O9 P3 1.547353 1_555
O9 V0 1.919759 1_545
O10 P3 1.507221 1_555
O11 P4 1.547353 1_555
O11 V0 1.919759 1_455
O12 P1 1.511800 1_555
O13 P2 1.563139 1_555
O13 V0 1.860716 1_554
O14 P2 1.511800 1_555
O15 P3 1.572352 1_555
O15 V2 1.845651 1_555
O16 P4 1.572352 1_555
O16 V2 1.845651 1_555
O17 P4 1.507221 1_555
O18 P5 1.547353 1_555
O18 V0 1.919759 1_554
O19 P5 1.572352 1_555
O19 V2 1.845651 1_555
O20 P1 1.539052 1_455
O20 V2 1.940052 1_555
O21 P5 1.507222 1_555
O22 P2 1.539052 1_545
O22 V2 1.940052 1_555
O23 P0 1.539052 1_554
O23 V2 1.940052 1_555
