# generated using pymatgen
data_Li2Mn2Ni(PO4)3
_symmetry_space_group_name_H-M   'P 1'
_cell_length_a   8.49853990
_cell_length_b   8.49853990
_cell_length_c   8.33383229
_cell_angle_alpha   64.52027164
_cell_angle_beta   64.52027164
_cell_angle_gamma   63.07818669
_symmetry_Int_Tables_number   1
_chemical_formula_structural   Li2Mn2Ni(PO4)3
_chemical_formula_sum   'Li4 Mn4 Ni2 P6 O24'
_cell_volume   463.29710036
_cell_formula_units_Z   2
loop_
 _symmetry_equiv_pos_site_id
 _symmetry_equiv_pos_as_xyz
  1  'x, y, z'
loop_
 _atom_site_type_symbol
 _atom_site_label
 _atom_site_symmetry_multiplicity
 _atom_site_fract_x
 _atom_site_fract_y
 _atom_site_fract_z
 _atom_site_occupancy
  Li  Li0  1  0.35944300  0.64055700  0.50000000  1
  Li  Li1  1  0.65877000  0.34123000  0.00000000  1
  Li  Li2  1  0.24786300  0.15036900  0.60374400  1
  Li  Li3  1  0.84963100  0.75213700  0.39625600  1
  Mn  Mn0  1  0.35535600  0.85316400  0.10473400  1
  Mn  Mn1  1  0.14683600  0.64464400  0.89526600  1
  Mn  Mn2  1  0.84437800  0.34859800  0.59463200  1
  Mn  Mn3  1  0.65140200  0.15562200  0.40536800  1
  Ni  Ni0  1  0.49832600  0.00583200  0.24544600  1
  Ni  Ni1  1  0.99416800  0.50167400  0.75455400  1
  P  P0  1  0.74932300  0.56188400  0.17896600  1
  P  P1  1  0.43811600  0.25067700  0.82103400  1
  P  P2  1  0.06069700  0.93930300  0.50000000  1
  P  P3  1  0.95945900  0.04054100  0.00000000  1
  P  P4  1  0.54663900  0.74928800  0.69139400  1
  P  P5  1  0.25071200  0.45336100  0.30860600  1
  O  O0  1  0.18328800  0.51311100  0.14233900  1
  O  O1  1  0.00493900  0.88687500  0.92149800  1
  O  O2  1  0.58345200  0.75231200  0.17656900  1
  O  O3  1  0.40339000  0.67999000  0.70293100  1
  O  O4  1  0.68743400  0.40439400  0.21126000  1
  O  O5  1  0.89782100  0.58078900  0.98857200  1
  O  O6  1  0.41921100  0.10217900  0.01142800  1
  O  O7  1  0.24768800  0.41654800  0.82343100  1
  O  O8  1  0.11312500  0.99506100  0.07850200  1
  O  O9  1  0.08323900  0.74191000  0.64799300  1
  O  O10  1  0.76387400  0.05815300  0.14654700  1
  O  O11  1  0.48688900  0.81671200  0.85766100  1
  O  O12  1  0.46225200  0.19003600  0.66051300  1
  O  O13  1  0.25809000  0.91676100  0.35200700  1
  O  O14  1  0.94184700  0.23612600  0.85345300  1
  O  O15  1  0.90597400  0.96961600  0.43277500  1
  O  O16  1  0.74428800  0.59957000  0.68292900  1
  O  O17  1  0.57140200  0.90272300  0.49849800  1
  O  O18  1  0.09727700  0.42859800  0.50150200  1
  O  O19  1  0.32001000  0.59661000  0.29706900  1
  O  O20  1  0.59560600  0.31256600  0.78874000  1
  O  O21  1  0.40043000  0.25571200  0.31707100  1
  O  O22  1  0.03038400  0.09402600  0.56722500  1
  O  O23  1  0.80996400  0.53774800  0.33948700  1
loop_
_geom_bond_atom_site_label_1
_geom_bond_atom_site_label_2
_geom_bond_distance
_geom_bond_site_symmetry_2
Li0 O19 2.063093 1_555
Li0 O3 2.063093 1_555
Li0 O9 2.089325 1_555
Li0 O13 2.089325 1_555
Li1 O14 2.131146 1_554
Li1 O10 2.131146 1_555
Li1 O4 2.178944 1_555
Li1 O20 2.178944 1_554
Li2 O18 2.102230 1_555
Li2 O21 2.176260 1_555
Li2 O12 2.256590 1_555
Li2 O22 2.269078 1_555
Li2 O14 2.560759 1_455
Li3 O17 2.102230 1_555
Li3 O16 2.176260 1_555
Li3 O23 2.256590 1_555
Li3 O15 2.269078 1_555
Li3 O10 2.560759 1_565
Mn0 O8 1.911086 1_555
Mn0 O11 1.959634 1_554
Mn0 O2 1.975648 1_555
Mn0 O13 2.076086 1_555
Mn0 O19 2.141324 1_555
Mn0 O6 2.153783 1_565
Mn1 O1 1.911086 1_555
Mn1 O0 1.959634 1_556
Mn1 O7 1.975648 1_555
Mn1 O9 2.076086 1_555
Mn1 O3 2.141324 1_555
Mn1 O5 2.153783 1_455
Mn2 O22 2.061373 1_655
Mn2 O23 2.087907 1_555
Mn2 O20 2.097126 1_555
Mn2 O16 2.232305 1_555
Mn2 O18 2.262300 1_655
Mn2 O14 2.301893 1_555
Mn3 O15 2.061373 1_545
Mn3 O12 2.087907 1_555
Mn3 O4 2.097126 1_555
Mn3 O21 2.232305 1_555
Mn3 O17 2.262300 1_545
Mn3 O10 2.301893 1_555
Ni0 O6 2.044942 1_555
Ni0 O21 2.149805 1_555
Ni0 O17 2.155241 1_545
Ni0 O2 2.188662 1_545
Ni0 O13 2.188873 1_545
Ni0 O10 2.227795 1_555
Ni1 O5 2.044942 1_555
Ni1 O16 2.149805 1_555
Ni1 O18 2.155241 1_655
Ni1 O7 2.188662 1_655
Ni1 O9 2.188873 1_655
Ni1 O14 2.227795 1_555
O0 P5 1.523304 1_555
O1 P3 1.530788 1_466
O2 P0 1.592854 1_555
O3 P4 1.529049 1_555
O4 P0 1.531746 1_555
O5 P0 1.541929 1_556
O6 P1 1.541929 1_554
O7 P1 1.592854 1_555
O8 P3 1.530788 1_465
O9 P2 1.582454 1_555
O10 P3 1.569147 1_555
O11 P4 1.523304 1_555
O12 P1 1.535777 1_555
O13 P2 1.582454 1_555
O14 P3 1.569147 1_556
O15 P2 1.520574 1_655
O16 P4 1.576486 1_555
O17 P4 1.575679 1_555
O18 P5 1.575679 1_555
O19 P5 1.529049 1_555
O20 P1 1.531746 1_555
O21 P5 1.576486 1_555
O22 P2 1.520574 1_545
O23 P0 1.535777 1_555
