# generated using pymatgen
data_Li2V5Cr2O12
_symmetry_space_group_name_H-M   'P 1'
_cell_length_a   9.09637400
_cell_length_b   5.09515000
_cell_length_c   9.86779442
_cell_angle_alpha   77.35997766
_cell_angle_beta   90.00000000
_cell_angle_gamma   90.00000000
_symmetry_Int_Tables_number   1
_chemical_formula_structural   Li2V5Cr2O12
_chemical_formula_sum   'Li4 V10 Cr4 O24'
_cell_volume   446.26233312
_cell_formula_units_Z   2
loop_
 _symmetry_equiv_pos_site_id
 _symmetry_equiv_pos_as_xyz
  1  'x, y, z'
loop_
 _atom_site_type_symbol
 _atom_site_label
 _atom_site_symmetry_multiplicity
 _atom_site_fract_x
 _atom_site_fract_y
 _atom_site_fract_z
 _atom_site_occupancy
  Li  Li0  1  0.92065500  0.49621500  0.25835700  1
  Li  Li1  1  0.58053700  0.74399600  0.49361300  1
  Li  Li2  1  0.42065500  0.50378500  0.74164300  1
  Li  Li3  1  0.08053700  0.25600400  0.50638700  1
  V  V0  1  0.91736000  0.24672600  0.99844800  1
  V  V1  1  0.93373900  0.75421000  0.50463500  1
  V  V2  1  0.73811200  0.98723500  0.25961100  1
  V  V3  1  0.74587500  0.51423500  0.74017500  1
  V  V4  1  0.57249000  0.25037000  0.00746500  1
  V  V5  1  0.43373900  0.24579000  0.49536500  1
  V  V6  1  0.23811200  0.01276500  0.74038900  1
  V  V7  1  0.41736000  0.75327400  0.00155200  1
  V  V8  1  0.24587500  0.48576500  0.25982500  1
  V  V9  1  0.07249000  0.74963000  0.99253500  1
  Cr  Cr0  1  0.75232900  0.24638500  0.50485600  1
  Cr  Cr1  1  0.74269100  0.75404600  0.99566400  1
  Cr  Cr2  1  0.24269100  0.24595400  0.00433600  1
  Cr  Cr3  1  0.25232900  0.75361500  0.49514400  1
  O  O0  1  0.89599100  0.10680000  0.38092000  1
  O  O1  1  0.89746000  0.86913500  0.11115000  1
  O  O2  1  0.77192400  0.86019500  0.61571600  1
  O  O3  1  0.90582000  0.40616900  0.61075300  1
  O  O4  1  0.73882100  0.14975100  0.89054700  1
  O  O5  1  0.90044600  0.62079400  0.88632700  1
  O  O6  1  0.77303500  0.63355400  0.38121100  1
  O  O7  1  0.59573200  0.12493100  0.39594300  1
  O  O8  1  0.58906200  0.87464100  0.11472700  1
  O  O9  1  0.75427100  0.35757300  0.11615300  1
  O  O10  1  0.59641800  0.38003300  0.61643900  1
  O  O11  1  0.58649600  0.61666600  0.88424600  1
  O  O12  1  0.39599100  0.89320000  0.61908000  1
  O  O13  1  0.39746000  0.13086500  0.88885000  1
  O  O14  1  0.27192400  0.13980500  0.38428400  1
  O  O15  1  0.40582000  0.59383100  0.38924700  1
  O  O16  1  0.23882100  0.85024900  0.10945300  1
  O  O17  1  0.40044600  0.37920600  0.11367300  1
  O  O18  1  0.27303500  0.36644600  0.61878900  1
  O  O19  1  0.09573200  0.87506900  0.60405700  1
  O  O20  1  0.08906200  0.12535900  0.88527300  1
  O  O21  1  0.25427100  0.64242700  0.88384700  1
  O  O22  1  0.09641800  0.61996700  0.38356100  1
  O  O23  1  0.08649600  0.38333400  0.11575400  1
loop_
_geom_bond_atom_site_label_1
_geom_bond_atom_site_label_2
_geom_bond_distance
_geom_bond_site_symmetry_2
Li0 O6 2.033158 1_555
Li0 O0 2.097523 1_555
Li0 O1 2.134703 1_555
Li0 O22 2.195705 1_655
Li0 O23 2.222807 1_655
Li0 O9 2.278719 1_555
Li1 O7 1.973951 1_565
Li1 O10 1.986243 1_555
Li1 O15 2.125256 1_555
Li1 O6 2.210467 1_555
Li1 O2 2.268327 1_555
Li1 O12 2.311002 1_555
Li2 O18 2.033158 1_555
Li2 O12 2.097523 1_555
Li2 O13 2.134703 1_555
Li2 O10 2.195705 1_555
Li2 O11 2.222807 1_555
Li2 O21 2.278719 1_555
Li3 O19 1.973951 1_545
Li3 O22 1.986243 1_555
Li3 O3 2.125256 1_455
Li3 O18 2.210467 1_555
Li3 O14 2.268327 1_555
Li3 O0 2.311002 1_455
Cr0 O7 1.964220 1_555
Cr0 O10 2.003891 1_555
Cr0 O3 2.019032 1_555
Cr0 O0 2.022345 1_555
Cr0 O2 2.039178 1_545
Cr0 O6 2.088598 1_555
Cr1 O1 1.979140 1_556
Cr1 O5 2.001205 1_555
Cr1 O8 2.006681 1_556
Cr1 O11 2.013518 1_555
Cr1 O4 2.055936 1_565
Cr1 O9 2.110529 1_556
Cr2 O13 1.979140 1_554
Cr2 O17 2.001205 1_555
Cr2 O20 2.006681 1_554
Cr2 O23 2.013518 1_555
Cr2 O16 2.055936 1_545
Cr2 O21 2.110529 1_554
Cr3 O19 1.964220 1_555
Cr3 O22 2.003891 1_555
Cr3 O15 2.019032 1_555
Cr3 O12 2.022345 1_555
Cr3 O14 2.039178 1_565
Cr3 O18 2.088598 1_555
O0 V1 1.968709 1_545
O0 V2 2.045892 1_545
O1 V0 2.008610 1_564
O1 V9 2.141860 1_654
O1 V2 2.234968 1_555
O2 V3 1.929816 1_555
O2 V1 1.979578 1_555
O3 V1 1.868957 1_555
O3 V3 2.087756 1_555
O4 V4 2.035181 1_556
O4 V0 2.060492 1_555
O4 V3 2.109198 1_555
O5 V0 1.989339 1_555
O5 V9 2.068705 1_655
O5 V3 2.166642 1_555
O6 V2 1.960051 1_555
O6 V1 2.079874 1_555
O7 V5 1.943569 1_555
O7 V2 2.095829 1_545
O8 V4 1.980185 1_565
O8 V7 2.090760 1_555
O8 V2 2.137826 1_555
O9 V0 2.038616 1_554
O9 V2 2.101674 1_545
O9 V4 2.106950 1_555
O10 V3 2.042566 1_555
O10 V5 2.107758 1_555
O11 V4 1.996170 1_556
O11 V7 2.131682 1_556
O11 V3 2.172571 1_555
O12 V5 1.968709 1_565
O12 V6 2.045892 1_565
O13 V7 2.008610 1_546
O13 V4 2.141860 1_556
O13 V6 2.234968 1_555
O14 V8 1.929816 1_555
O14 V5 1.979578 1_555
O15 V5 1.868957 1_555
O15 V8 2.087756 1_555
O16 V9 2.035181 1_554
O16 V7 2.060492 1_555
O16 V8 2.109198 1_555
O17 V7 1.989339 1_555
O17 V4 2.068705 1_555
O17 V8 2.166642 1_555
O18 V6 1.960051 1_555
O18 V5 2.079874 1_555
O19 V1 1.943569 1_455
O19 V6 2.095829 1_565
O20 V9 1.980185 1_545
O20 V0 2.090760 1_455
O20 V6 2.137826 1_555
O21 V7 2.038616 1_556
O21 V6 2.101674 1_565
O21 V9 2.106950 1_555
O22 V8 2.042566 1_555
O22 V1 2.107758 1_455
O23 V9 1.996170 1_554
O23 V0 2.131682 1_454
O23 V8 2.172571 1_555
