# generated using pymatgen
data_LiFe(SO4)2
_symmetry_space_group_name_H-M   'P 1'
_cell_length_a   9.07578000
_cell_length_b   9.24197300
_cell_length_c   13.77898494
_cell_angle_alpha   89.68146774
_cell_angle_beta   90.00000000
_cell_angle_gamma   90.00000000
_symmetry_Int_Tables_number   1
_chemical_formula_structural   LiFe(SO4)2
_chemical_formula_sum   'Li8 Fe8 S16 O64'
_cell_volume   1155.73740465
_cell_formula_units_Z   8
loop_
 _symmetry_equiv_pos_site_id
 _symmetry_equiv_pos_as_xyz
  1  'x, y, z'
loop_
 _atom_site_type_symbol
 _atom_site_label
 _atom_site_symmetry_multiplicity
 _atom_site_fract_x
 _atom_site_fract_y
 _atom_site_fract_z
 _atom_site_occupancy
  Li  Li0  1  0.04306700  0.94555800  0.37833700  1
  Li  Li1  1  0.95693300  0.94555800  0.87833700  1
  Li  Li2  1  0.53650300  0.55606500  0.37199400  1
  Li  Li3  1  0.46349700  0.55606500  0.87199400  1
  Li  Li4  1  0.80249800  0.23094300  0.12664100  1
  Li  Li5  1  0.19750200  0.23094300  0.62664100  1
  Li  Li6  1  0.47807000  0.04162500  0.62641400  1
  Li  Li7  1  0.52193000  0.04162500  0.12641400  1
  Fe  Fe0  1  0.14768800  0.85294500  0.12501800  1
  Fe  Fe1  1  0.85231200  0.85294500  0.62501800  1
  Fe  Fe2  1  0.64616800  0.64023300  0.12524000  1
  Fe  Fe3  1  0.35383200  0.64023300  0.62524000  1
  Fe  Fe4  1  0.14351300  0.36430000  0.37264800  1
  Fe  Fe5  1  0.85648700  0.36430000  0.87264800  1
  Fe  Fe6  1  0.64627100  0.13979100  0.37570000  1
  Fe  Fe7  1  0.35372900  0.13979100  0.87570000  1
  S  S0  1  0.18562600  0.92422500  0.72527300  1
  S  S1  1  0.81437400  0.92422500  0.22527300  1
  S  S2  1  0.56485200  0.83815600  0.48872000  1
  S  S3  1  0.43514800  0.83815600  0.98872000  1
  S  S4  1  0.06563200  0.65918100  0.49037200  1
  S  S5  1  0.93436800  0.65918100  0.99037200  1
  S  S6  1  0.31647200  0.57420500  0.22125600  1
  S  S7  1  0.68352800  0.57420500  0.72125600  1
  S  S8  1  0.81438500  0.42608400  0.27720600  1
  S  S9  1  0.18561500  0.42608400  0.77720600  1
  S  S10  1  0.56393900  0.33796900  0.01096500  1
  S  S11  1  0.43606100  0.33796900  0.51096500  1
  S  S12  1  0.06485600  0.15875100  0.00938500  1
  S  S13  1  0.93514400  0.15875100  0.50938500  1
  S  S14  1  0.68638700  0.07759300  0.77672500  1
  S  S15  1  0.31361300  0.07759300  0.27672500  1
  O  O0  1  0.54974600  0.99941800  0.47311600  1
  O  O1  1  0.45025400  0.99941800  0.97311600  1
  O  O2  1  0.25380400  0.98427400  0.35199100  1
  O  O3  1  0.74619600  0.98427400  0.85199100  1
  O  O4  1  0.77927900  0.98020300  0.32523200  1
  O  O5  1  0.22072100  0.98020300  0.82523200  1
  O  O6  1  0.02017100  0.92035400  0.72209800  1
  O  O7  1  0.97982900  0.92035400  0.22209800  1
  O  O8  1  0.52508300  0.81293100  0.07989500  1
  O  O9  1  0.47491700  0.81293100  0.57989500  1
  O  O10  1  0.27951100  0.80262800  0.01286400  1
  O  O11  1  0.72048900  0.80262800  0.51286400  1
  O  O12  1  0.24626800  0.77604800  0.71775300  1
  O  O13  1  0.75373200  0.77604800  0.21775300  1
  O  O14  1  0.51515100  0.75649100  0.40647800  1
  O  O15  1  0.48484900  0.75649100  0.90647800  1
  O  O16  1  0.02150200  0.74527000  0.40702900  1
  O  O17  1  0.97849800  0.74527000  0.90702900  1
  O  O18  1  0.25723700  0.72635100  0.21726400  1
  O  O19  1  0.74276300  0.72635100  0.71726400  1
  O  O20  1  0.22253100  0.69387200  0.51636600  1
  O  O21  1  0.77746900  0.69387200  0.01636600  1
  O  O22  1  0.02457400  0.69055000  0.07914600  1
  O  O23  1  0.97542600  0.69055000  0.57914600  1
  O  O24  1  0.48495600  0.58624000  0.22285000  1
  O  O25  1  0.51504400  0.58624000  0.72285000  1
  O  O26  1  0.71560200  0.51887100  0.82348900  1
  O  O27  1  0.28439800  0.51887100  0.32348900  1
  O  O28  1  0.74798100  0.51289000  0.35194100  1
  O  O29  1  0.25201900  0.51289000  0.85194100  1
  O  O30  1  0.05279300  0.50135600  0.47077300  1
  O  O31  1  0.94720700  0.50135600  0.97077300  1
  O  O32  1  0.54769400  0.49695000  0.02615200  1
  O  O33  1  0.45230600  0.49695000  0.52615200  1
  O  O34  1  0.73815400  0.48320800  0.64590000  1
  O  O35  1  0.26184600  0.48320800  0.14590000  1
  O  O36  1  0.77620100  0.47714300  0.17569200  1
  O  O37  1  0.22379900  0.47714300  0.67569200  1
  O  O38  1  0.97802800  0.42085200  0.28139400  1
  O  O39  1  0.02197200  0.42085200  0.78139400  1
  O  O40  1  0.52348700  0.30862200  0.42053700  1
  O  O41  1  0.47651300  0.30862200  0.92053700  1
  O  O42  1  0.72261300  0.30226300  0.98934200  1
  O  O43  1  0.27738700  0.30226300  0.48934200  1
  O  O44  1  0.75746200  0.27077900  0.27837200  1
  O  O45  1  0.24253800  0.27077900  0.77837200  1
  O  O46  1  0.52052200  0.25198000  0.09487200  1
  O  O47  1  0.47947800  0.25198000  0.59487200  1
  O  O48  1  0.01110400  0.23625400  0.09306100  1
  O  O49  1  0.98889600  0.23625400  0.59306100  1
  O  O50  1  0.74375900  0.22808600  0.78305200  1
  O  O51  1  0.25624100  0.22808600  0.28305200  1
  O  O52  1  0.77978700  0.19843700  0.48595400  1
  O  O53  1  0.22021300  0.19843700  0.98595400  1
  O  O54  1  0.02566400  0.18762900  0.41882400  1
  O  O55  1  0.97433600  0.18762900  0.91882400  1
  O  O56  1  0.51872400  0.08311400  0.77868300  1
  O  O57  1  0.48127600  0.08311400  0.27868300  1
  O  O58  1  0.71809600  0.02095500  0.67590000  1
  O  O59  1  0.28190400  0.02095500  0.17590000  1
  O  O60  1  0.24776000  0.02040800  0.65019500  1
  O  O61  1  0.75224000  0.02040800  0.15019500  1
  O  O62  1  0.05367000  0.99705300  0.02297400  1
  O  O63  1  0.94633000  0.99705300  0.52297400  1
loop_
_geom_bond_atom_site_label_1
_geom_bond_atom_site_label_2
_geom_bond_distance
_geom_bond_site_symmetry_2
Li0 O16 1.900757 1_555
Li0 O2 1.978994 1_555
Li0 O63 2.231528 1_455
Li0 O7 2.241394 1_455
Li0 O54 2.314123 1_565
Li0 O4 2.523287 1_455
Li1 O17 1.900757 1_555
Li1 O3 1.978994 1_555
Li1 O62 2.231528 1_656
Li1 O6 2.241394 1_655
Li1 O55 2.314123 1_565
Li1 O5 2.523287 1_655
Li2 O14 1.924641 1_555
Li2 O28 1.980053 1_555
Li2 O24 2.124501 1_555
Li2 O33 2.319803 1_555
Li2 O40 2.382032 1_555
Li2 O27 2.408854 1_555
Li3 O15 1.924641 1_555
Li3 O29 1.980053 1_555
Li3 O25 2.124501 1_555
Li3 O32 2.319803 1_556
Li3 O41 2.382032 1_555
Li3 O26 2.408854 1_555
Li4 O48 1.949535 1_655
Li4 O61 2.022954 1_555
Li4 O42 2.127278 1_554
Li4 O44 2.163837 1_555
Li4 O36 2.389182 1_555
Li4 O46 2.603408 1_555
Li5 O49 1.949535 1_455
Li5 O60 2.022954 1_555
Li5 O43 2.127278 1_555
Li5 O45 2.163837 1_555
Li5 O37 2.389182 1_555
Li5 O47 2.603408 1_555
Li6 O47 1.989765 1_555
Li6 O60 2.124670 1_555
Li6 O56 2.166606 1_555
Li6 O9 2.212234 1_545
Li6 O0 2.246389 1_545
Li6 O58 2.290309 1_555
Li7 O46 1.989765 1_555
Li7 O61 2.124670 1_555
Li7 O57 2.166606 1_555
Li7 O8 2.212234 1_545
Li7 O1 2.246389 1_544
Li7 O59 2.290309 1_555
Fe0 O22 1.977649 1_555
Fe0 O18 1.989074 1_555
Fe0 O10 2.010913 1_555
Fe0 O59 2.097252 1_565
Fe0 O62 2.111420 1_555
Fe0 O7 2.123119 1_455
Fe1 O23 1.977649 1_555
Fe1 O19 1.989074 1_555
Fe1 O11 2.010913 1_555
Fe1 O58 2.097252 1_565
Fe1 O63 2.111420 1_555
Fe1 O6 2.123119 1_655
Fe2 O21 1.976879 1_555
Fe2 O8 2.033324 1_555
Fe2 O36 2.033777 1_555
Fe2 O13 2.042372 1_555
Fe2 O24 2.047244 1_555
Fe2 O32 2.106309 1_555
Fe3 O20 1.976879 1_555
Fe3 O9 2.033324 1_555
Fe3 O37 2.033777 1_555
Fe3 O12 2.042372 1_555
Fe3 O25 2.047244 1_555
Fe3 O33 2.106309 1_555
Fe4 O38 2.025488 1_455
Fe4 O27 2.030692 1_555
Fe4 O30 2.032111 1_555
Fe4 O51 2.042765 1_555
Fe4 O54 2.050184 1_555
Fe4 O43 2.092880 1_555
Fe5 O39 2.025488 1_655
Fe5 O26 2.030692 1_555
Fe5 O31 2.032111 1_555
Fe5 O50 2.042765 1_555
Fe5 O55 2.050184 1_555
Fe5 O42 2.092880 1_555
Fe6 O40 2.017136 1_555
Fe6 O52 2.019709 1_555
Fe6 O4 2.031637 1_545
Fe6 O0 2.057397 1_545
Fe6 O44 2.065029 1_555
Fe6 O57 2.076431 1_555
Fe7 O41 2.017136 1_555
Fe7 O53 2.019709 1_555
Fe7 O5 2.031637 1_545
Fe7 O1 2.057397 1_545
Fe7 O45 2.065029 1_555
Fe7 O56 2.076431 1_555
O0 S2 1.510858 1_555
O1 S3 1.510858 1_555
O2 S15 1.450544 1_565
O3 S14 1.450544 1_565
O4 S1 1.508002 1_555
O5 S0 1.508002 1_555
O6 S0 1.502702 1_555
O7 S1 1.502702 1_555
O8 S3 1.515128 1_554
O9 S2 1.515128 1_555
O10 S3 1.487450 1_554
O11 S2 1.487450 1_555
O12 S0 1.480072 1_555
O13 S1 1.480072 1_555
O14 S2 1.437633 1_555
O15 S3 1.437633 1_555
O16 S4 1.449850 1_555
O17 S5 1.449850 1_555
O18 S6 1.506115 1_555
O19 S7 1.506115 1_555
O20 S4 1.503355 1_555
O21 S5 1.503355 1_554
O22 S5 1.501500 1_454
O23 S4 1.501500 1_655
O24 S6 1.533330 1_555
O25 S7 1.533330 1_555
O26 S7 1.524006 1_555
O27 S6 1.524006 1_555
O28 S8 1.440987 1_555
O29 S9 1.440987 1_555
O30 S4 1.489444 1_555
O31 S5 1.489444 1_555
O32 S10 1.492576 1_555
O33 S11 1.492576 1_555
O34 S7 1.428599 1_555
O35 S6 1.428599 1_555
O36 S8 1.513923 1_555
O37 S9 1.513923 1_555
O38 S8 1.487084 1_555
O39 S9 1.487084 1_555
O40 S11 1.503140 1_555
O41 S10 1.503140 1_556
O42 S10 1.507521 1_556
O43 S11 1.507521 1_555
O44 S8 1.525469 1_555
O45 S9 1.525469 1_555
O46 S10 1.453721 1_555
O47 S11 1.453721 1_555
O48 S12 1.445535 1_555
O49 S13 1.445535 1_555
O50 S14 1.488134 1_555
O51 S15 1.488134 1_555
O52 S13 1.491813 1_555
O53 S12 1.491813 1_556
O54 S13 1.516429 1_455
O55 S12 1.516429 1_656
O56 S14 1.522772 1_555
O57 S15 1.522772 1_555
O58 S14 1.514913 1_555
O59 S15 1.514913 1_555
O60 S0 1.472461 1_545
O61 S1 1.472461 1_545
O62 S12 1.508480 1_565
O63 S13 1.508480 1_565
