# generated using pymatgen
data_LiMn(PO3)3
_symmetry_space_group_name_H-M   'P 1'
_cell_length_a   6.48034308
_cell_length_b   13.28328403
_cell_length_c   10.44624294
_cell_angle_alpha   89.99660992
_cell_angle_beta   89.97763205
_cell_angle_gamma   95.57023061
_symmetry_Int_Tables_number   1
_chemical_formula_structural   LiMn(PO3)3
_chemical_formula_sum   'Li4 Mn4 P12 O36'
_cell_volume   894.96888074
_cell_formula_units_Z   4
loop_
 _symmetry_equiv_pos_site_id
 _symmetry_equiv_pos_as_xyz
  1  'x, y, z'
loop_
 _atom_site_type_symbol
 _atom_site_label
 _atom_site_symmetry_multiplicity
 _atom_site_fract_x
 _atom_site_fract_y
 _atom_site_fract_z
 _atom_site_occupancy
  Li  Li0  1  0.17401000  0.17395300  0.99993000  1
  Li  Li1  1  0.92391400  0.42395500  0.49991900  1
  Li  Li2  1  0.67401300  0.67401400  0.00004900  1
  Li  Li3  1  0.42387800  0.92400700  0.50001800  1
  Mn  Mn0  1  0.48476300  0.48575200  0.99996900  1
  Mn  Mn1  1  0.23555700  0.73561600  0.50013100  1
  Mn  Mn2  1  0.98559600  0.98574500  0.99997500  1
  Mn  Mn3  1  0.73540600  0.23543000  0.49989400  1
  P  P0  1  0.70125600  0.35068300  0.78506500  1
  P  P1  1  0.45101100  0.60067800  0.28516900  1
  P  P2  1  0.20120800  0.85068200  0.78516500  1
  P  P3  1  0.95118200  0.10065400  0.28507200  1
  P  P4  1  0.78177000  0.13450900  0.78262200  1
  P  P5  1  0.53163600  0.38459100  0.28263900  1
  P  P6  1  0.28171500  0.63456900  0.78268400  1
  P  P7  1  0.03171200  0.88454100  0.28266900  1
  P  P8  1  0.24442200  0.24196800  0.43215900  1
  P  P9  1  0.99425600  0.49200200  0.93223200  1
  P  P10  1  0.74434400  0.74199100  0.43221800  1
  P  P11  1  0.49448800  0.99197300  0.93226700  1
  O  O0  1  0.90240700  0.38471100  0.87365200  1
  O  O1  1  0.65215600  0.63469100  0.37378700  1
  O  O2  1  0.40233500  0.88469700  0.87378900  1
  O  O3  1  0.15227700  0.13466200  0.37372700  1
  O  O4  1  0.66329200  0.23252900  0.82181500  1
  O  O5  1  0.41302400  0.48253200  0.32196500  1
  O  O6  1  0.16318000  0.73255600  0.82193900  1
  O  O7  1  0.91301400  0.98252700  0.32183500  1
  O  O8  1  0.34767600  0.29561200  0.30430300  1
  O  O9  1  0.09769700  0.54565500  0.80442300  1
  O  O10  1  0.84768400  0.79560600  0.30436100  1
  O  O11  1  0.59771000  0.04561300  0.80439100  1
  O  O12  1  0.95344400  0.12532300  0.87780600  1
  O  O13  1  0.70328300  0.37537300  0.37781500  1
  O  O14  1  0.45336200  0.62541500  0.87786900  1
  O  O15  1  0.20323900  0.87540800  0.37797600  1
  O  O16  1  0.01569700  0.11293000  0.14700500  1
  O  O17  1  0.76574400  0.36290600  0.64699800  1
  O  O18  1  0.51550100  0.61298900  0.14708600  1
  O  O19  1  0.26571700  0.86291600  0.64709100  1
  O  O20  1  0.32117700  0.05185000  0.97516000  1
  O  O21  1  0.07112300  0.30183500  0.47511800  1
  O  O22  1  0.82095800  0.55187300  0.97511200  1
  O  O23  1  0.57098900  0.80186900  0.47505500  1
  O  O24  1  0.15955900  0.46921200  0.02483300  1
  O  O25  1  0.90973300  0.71927500  0.52480800  1
  O  O26  1  0.65990000  0.96921900  0.02481700  1
  O  O27  1  0.40989100  0.21921700  0.52469600  1
  O  O28  1  0.51589300  0.39821500  0.83298300  1
  O  O29  1  0.26549400  0.64811600  0.33298700  1
  O  O30  1  0.01576200  0.89816000  0.83298700  1
  O  O31  1  0.76575400  0.14818200  0.33287600  1
  O  O32  1  0.57767200  0.38592000  0.14224200  1
  O  O33  1  0.32778200  0.63572500  0.64230700  1
  O  O34  1  0.07792500  0.88574200  0.14230900  1
  O  O35  1  0.82780000  0.13561400  0.64223500  1
loop_
_geom_bond_atom_site_label_1
_geom_bond_atom_site_label_2
_geom_bond_distance
_geom_bond_site_symmetry_2
Li0 O16 1.976668 1_556
Li0 O20 1.976684 1_555
Li0 O12 1.977392 1_455
Li1 O17 1.976381 1_555
Li1 O21 1.977075 1_655
Li1 O13 1.977385 1_555
Li2 O22 1.976543 1_554
Li2 O18 1.976987 1_555
Li2 O14 1.978045 1_554
Li3 O19 1.976505 1_555
Li3 O15 1.977060 1_555
Li3 O23 1.977148 1_555
Mn0 O24 2.113454 1_556
Mn0 O28 2.116861 1_555
Mn0 O32 2.117863 1_556
Mn0 O14 2.276661 1_555
Mn0 O18 2.278861 1_556
Mn0 O22 2.283299 1_555
Mn1 O33 2.116138 1_555
Mn1 O29 2.116816 1_555
Mn1 O25 2.117165 1_455
Mn1 O19 2.278313 1_555
Mn1 O15 2.279404 1_555
Mn1 O23 2.279541 1_555
Mn2 O30 2.116318 1_655
Mn2 O26 2.116572 1_556
Mn2 O34 2.118501 1_656
Mn2 O12 2.276962 1_565
Mn2 O16 2.277680 1_666
Mn2 O20 2.279539 1_665
Mn3 O31 2.114250 1_555
Mn3 O27 2.115338 1_555
Mn3 O35 2.117073 1_555
Mn3 O13 2.280396 1_555
Mn3 O17 2.281059 1_555
Mn3 O21 2.281470 1_655
O0 P9 1.611083 1_555
O0 P0 1.626797 1_555
O1 P10 1.611218 1_555
O1 P1 1.626911 1_555
O2 P11 1.611069 1_555
O2 P2 1.626862 1_555
O3 P8 1.611211 1_555
O3 P3 1.626867 1_455
O4 P0 1.611225 1_555
O4 P4 1.626735 1_555
O5 P1 1.611247 1_555
O5 P5 1.626675 1_555
O6 P2 1.610952 1_555
O6 P6 1.626731 1_555
O7 P3 1.610991 1_565
O7 P7 1.627066 1_655
O8 P5 1.611076 1_555
O8 P8 1.626645 1_555
O9 P6 1.610866 1_555
O9 P9 1.626736 1_455
O10 P7 1.611025 1_655
O10 P10 1.626705 1_555
O11 P4 1.610934 1_555
O11 P11 1.626719 1_545
O12 P4 1.506129 1_555
O13 P5 1.506008 1_555
O14 P6 1.505940 1_555
O15 P7 1.506160 1_555
O16 P3 1.505929 1_455
O17 P0 1.505826 1_555
O18 P1 1.506084 1_555
O19 P2 1.505944 1_555
O20 P11 1.505928 1_545
O21 P8 1.505992 1_555
O22 P9 1.505773 1_555
O23 P10 1.505990 1_555
O24 P9 1.496201 1_454
O25 P10 1.496270 1_555
O26 P11 1.496246 1_554
O27 P8 1.496420 1_555
O28 P0 1.496304 1_555
O29 P1 1.496174 1_555
O30 P2 1.496065 1_555
O31 P3 1.496236 1_555
O32 P5 1.496303 1_555
O33 P6 1.496157 1_555
O34 P7 1.496166 1_555
O35 P4 1.496218 1_555
