# generated using pymatgen
data_LiFeF4
_symmetry_space_group_name_H-M   'P 1'
_cell_length_a   4.64769539
_cell_length_b   5.51207673
_cell_length_c   10.03202543
_cell_angle_alpha   84.27049704
_cell_angle_beta   90.00000000
_cell_angle_gamma   90.00000000
_symmetry_Int_Tables_number   1
_chemical_formula_structural   LiFeF4
_chemical_formula_sum   'Li4 Fe4 F16'
_cell_volume   255.72105732
_cell_formula_units_Z   4
loop_
 _symmetry_equiv_pos_site_id
 _symmetry_equiv_pos_as_xyz
  1  'x, y, z'
loop_
 _atom_site_type_symbol
 _atom_site_label
 _atom_site_symmetry_multiplicity
 _atom_site_fract_x
 _atom_site_fract_y
 _atom_site_fract_z
 _atom_site_occupancy
  Li  Li0  1  0.49325874  0.61082952  0.62318583  1
  Li  Li1  1  0.00674126  0.61082952  0.12318583  1
  Li  Li2  1  0.99325874  0.38917048  0.87681417  1
  Li  Li3  1  0.50674126  0.38917048  0.37681417  1
  Fe  Fe0  1  0.49269518  0.85477186  0.87499697  1
  Fe  Fe1  1  0.00730482  0.85477186  0.37499697  1
  Fe  Fe2  1  0.99269518  0.14522814  0.62500303  1
  Fe  Fe3  1  0.50730482  0.14522814  0.12500303  1
  F  F0  1  0.29177333  0.91082385  0.70176198  1
  F  F1  1  0.20822667  0.91082385  0.20176198  1
  F  F2  1  0.81090774  0.85482931  0.54956628  1
  F  F3  1  0.68909226  0.85482931  0.04956628  1
  F  F4  1  0.19549579  0.65711937  0.94930881  1
  F  F5  1  0.30450421  0.65711937  0.44930881  1
  F  F6  1  0.68568641  0.60346036  0.80125161  1
  F  F7  1  0.81431359  0.60346036  0.30125161  1
  F  F8  1  0.18568641  0.39653964  0.69874839  1
  F  F9  1  0.31431359  0.39653964  0.19874839  1
  F  F10  1  0.69549579  0.34288063  0.55069119  1
  F  F11  1  0.80450421  0.34288063  0.05069119  1
  F  F12  1  0.31090774  0.14517069  0.95043372  1
  F  F13  1  0.18909226  0.14517069  0.45043372  1
  F  F14  1  0.79177333  0.08917615  0.79823802  1
  F  F15  1  0.70822667  0.08917615  0.29823802  1
loop_
_geom_bond_atom_site_label_1
_geom_bond_atom_site_label_2
_geom_bond_distance
_geom_bond_site_symmetry_2
F0 Fe0 1.969915 1_555
F0 Fe2 1.998972 1_465
F0 Li0 2.119654 1_555
F1 Fe1 1.969915 1_555
F1 Fe3 1.998972 1_565
F1 Li1 2.119654 1_555
F2 Fe1 1.974917 1_655
F2 Fe2 2.022542 1_565
F2 Li0 2.082205 1_555
F3 Fe0 1.974917 1_554
F3 Fe3 2.022542 1_565
F3 Li1 2.082205 1_655
F4 Fe0 1.867759 1_555
F4 Li1 1.946423 1_556
F4 Li2 1.951477 1_455
F5 Fe1 1.867759 1_555
F5 Li0 1.946423 1_555
F5 Li3 1.951477 1_555
F6 Fe0 1.864244 1_555
F6 Li2 1.958194 1_555
F6 Li0 1.994517 1_555
F7 Fe1 1.864244 1_655
F7 Li3 1.958194 1_555
F7 Li1 1.994517 1_655
F8 Fe2 1.864244 1_455
F8 Li0 1.958194 1_555
F8 Li2 1.994517 1_455
F9 Fe3 1.864244 1_555
F9 Li1 1.958194 1_555
F9 Li3 1.994517 1_555
F10 Fe2 1.867759 1_555
F10 Li3 1.946423 1_555
F10 Li0 1.951477 1_555
F11 Fe3 1.867759 1_555
F11 Li2 1.946423 1_554
F11 Li1 1.951477 1_655
F12 Fe3 1.974917 1_556
F12 Fe0 2.022542 1_545
F12 Li2 2.082205 1_455
F13 Fe2 1.974917 1_455
F13 Fe1 2.022542 1_545
F13 Li3 2.082205 1_555
F14 Fe2 1.969915 1_555
F14 Fe0 1.998972 1_545
F14 Li2 2.119654 1_555
F15 Fe3 1.969915 1_555
F15 Fe1 1.998972 1_645
F15 Li3 2.119654 1_555
