# generated using pymatgen
data_TiV3(PO4)6
_symmetry_space_group_name_H-M   'P 1'
_cell_length_a   8.75433692
_cell_length_b   8.75433692
_cell_length_c   8.75433726
_cell_angle_alpha   58.50736701
_cell_angle_beta   58.50736701
_cell_angle_gamma   58.50736678
_symmetry_Int_Tables_number   1
_chemical_formula_structural   TiV3(PO4)6
_chemical_formula_sum   'Ti1 V3 P6 O24'
_cell_volume   458.21282300
_cell_formula_units_Z   1
loop_
 _symmetry_equiv_pos_site_id
 _symmetry_equiv_pos_as_xyz
  1  'x, y, z'
loop_
 _atom_site_type_symbol
 _atom_site_label
 _atom_site_symmetry_multiplicity
 _atom_site_fract_x
 _atom_site_fract_y
 _atom_site_fract_z
 _atom_site_occupancy
  Ti  Ti0  1  0.13979200  0.13979200  0.13979200  1
  V  V0  1  0.86022200  0.86022200  0.86022200  1
  V  V1  1  0.64148500  0.64148500  0.64148500  1
  V  V2  1  0.35963800  0.35963800  0.35963800  1
  P  P0  1  0.53308000  0.96641500  0.25088900  1
  P  P1  1  0.25088900  0.53308000  0.96641500  1
  P  P2  1  0.96641500  0.25088900  0.53308000  1
  P  P3  1  0.03201500  0.74751700  0.46971900  1
  P  P4  1  0.74751700  0.46971900  0.03201500  1
  P  P5  1  0.46971900  0.03201500  0.74751700  1
  O  O0  1  0.49778200  0.86335300  0.71480000  1
  O  O1  1  0.86335300  0.71480000  0.49778200  1
  O  O2  1  0.71614000  0.94017700  0.07128400  1
  O  O3  1  0.71480000  0.49778200  0.86335300  1
  O  O4  1  0.56702600  0.78491900  0.42116200  1
  O  O5  1  0.36282000  0.99400500  0.22087000  1
  O  O6  1  0.07128400  0.71614000  0.94017700  1
  O  O7  1  0.42116200  0.56702600  0.78491900  1
  O  O8  1  0.78491900  0.42116200  0.56702600  1
  O  O9  1  0.00478000  0.77503700  0.64433800  1
  O  O10  1  0.06210800  0.91937500  0.28841900  1
  O  O11  1  0.77503700  0.64433800  0.00478000  1
  O  O12  1  0.22087000  0.36282000  0.99400500  1
  O  O13  1  0.94017700  0.07128400  0.71614000  1
  O  O14  1  0.99400500  0.22087000  0.36282000  1
  O  O15  1  0.21535000  0.56928600  0.44194600  1
  O  O16  1  0.56928600  0.44194600  0.21535000  1
  O  O17  1  0.91937500  0.28841900  0.06210800  1
  O  O18  1  0.64433800  0.00478000  0.77503700  1
  O  O19  1  0.44194600  0.21535000  0.56928600  1
  O  O20  1  0.27663300  0.50462000  0.14300200  1
  O  O21  1  0.28841900  0.06210800  0.91937500  1
  O  O22  1  0.14300200  0.27663300  0.50462000  1
  O  O23  1  0.50462000  0.14300200  0.27663300  1
loop_
_geom_bond_atom_site_label_1
_geom_bond_atom_site_label_2
_geom_bond_distance
_geom_bond_site_symmetry_2
O0 P5 1.520476 1_565
O0 V1 1.916532 1_555
O1 P3 1.520476 1_655
O1 V1 1.916532 1_555
O2 P0 1.566315 1_555
O2 V0 1.867833 1_554
O3 P4 1.520476 1_556
O3 V1 1.916532 1_555
O4 P0 1.526379 1_555
O4 V1 1.910457 1_555
O5 P0 1.521784 1_555
O5 Ti0 1.960296 1_565
O6 P1 1.566315 1_555
O6 V0 1.867833 1_455
O7 P1 1.526379 1_555
O7 V1 1.910457 1_555
O8 P2 1.526379 1_555
O8 V1 1.910457 1_555
O9 P3 1.547806 1_555
O9 V0 1.927986 1_455
O10 P3 1.527890 1_555
O10 Ti0 1.924128 1_565
O11 P4 1.547806 1_555
O11 V0 1.927986 1_554
O12 P1 1.521784 1_555
O12 Ti0 1.960296 1_556
O13 P2 1.566315 1_555
O13 V0 1.867833 1_545
O14 P2 1.521784 1_555
O14 Ti0 1.960296 1_655
O15 P3 1.562646 1_555
O15 V2 1.868641 1_555
O16 P4 1.562646 1_555
O16 V2 1.868641 1_555
O17 P4 1.527890 1_555
O17 Ti0 1.924128 1_655
O18 P5 1.547806 1_555
O18 V0 1.927986 1_545
O19 P5 1.562646 1_555
O19 V2 1.868641 1_555
O20 P1 1.551004 1_554
O20 V2 1.922768 1_555
O21 P5 1.527890 1_555
O21 Ti0 1.924128 1_556
O22 P2 1.551004 1_455
O22 V2 1.922768 1_555
O23 P0 1.551004 1_545
O23 V2 1.922768 1_555
