# generated using pymatgen
data_Li4Nb2Fe3O10
_symmetry_space_group_name_H-M   'P 1'
_cell_length_a   5.43452353
_cell_length_b   10.67881765
_cell_length_c   8.13960926
_cell_angle_alpha   70.48731063
_cell_angle_beta   108.88993239
_cell_angle_gamma   101.91157758
_symmetry_Int_Tables_number   1
_chemical_formula_structural   Li4Nb2Fe3O10
_chemical_formula_sum   'Li8 Nb4 Fe6 O20'
_cell_volume   418.70160515
_cell_formula_units_Z   2
loop_
 _symmetry_equiv_pos_site_id
 _symmetry_equiv_pos_as_xyz
  1  'x, y, z'
loop_
 _atom_site_type_symbol
 _atom_site_label
 _atom_site_symmetry_multiplicity
 _atom_site_fract_x
 _atom_site_fract_y
 _atom_site_fract_z
 _atom_site_occupancy
  Li  Li0  1  0.74641500  0.26965100  0.61514400  1
  Li  Li1  1  0.74655600  0.76964800  0.61521500  1
  Li  Li2  1  0.25362500  0.23037100  0.38488500  1
  Li  Li3  1  0.25339800  0.73037000  0.38484500  1
  Li  Li4  1  0.61888000  0.21236500  0.23685100  1
  Li  Li5  1  0.61918800  0.71219400  0.23727000  1
  Li  Li6  1  0.38108700  0.28767200  0.76314700  1
  Li  Li7  1  0.38049900  0.78765300  0.76285800  1
  Nb  Nb0  1  0.90877700  0.47065500  0.30856700  1
  Nb  Nb1  1  0.90801800  0.97070400  0.30842100  1
  Nb  Nb2  1  0.09124000  0.02935400  0.69140700  1
  Nb  Nb3  1  0.09207700  0.52928500  0.69155900  1
  Fe  Fe0  1  0.00007500  0.75003000  0.00008900  1
  Fe  Fe1  1  0.32496200  0.99228000  0.11726200  1
  Fe  Fe2  1  0.67508300  0.50777900  0.88268300  1
  Fe  Fe3  1  0.00000700  0.24999500  0.00000100  1
  Fe  Fe4  1  0.32559700  0.49225000  0.11733900  1
  Fe  Fe5  1  0.67428500  0.00773100  0.88252300  1
  O  O0  1  0.58672600  0.35803300  0.33845200  1
  O  O1  1  0.58616100  0.85799600  0.33839400  1
  O  O2  1  0.41323600  0.14195400  0.66157400  1
  O  O3  1  0.41387000  0.64199100  0.66156600  1
  O  O4  1  0.77962900  0.38557600  0.77609900  1
  O  O5  1  0.77916800  0.88551800  0.77609600  1
  O  O6  1  0.22043000  0.11444300  0.22390300  1
  O  O7  1  0.22092500  0.61445200  0.22399300  1
  O  O8  1  0.88762100  0.10856000  0.44346500  1
  O  O9  1  0.88842800  0.60853900  0.44360200  1
  O  O10  1  0.11231900  0.39143600  0.55650100  1
  O  O11  1  0.11158700  0.89146400  0.55640800  1
  O  O12  1  0.68519600  0.10184400  0.07963400  1
  O  O13  1  0.68577000  0.60174600  0.07971000  1
  O  O14  1  0.31484600  0.39813000  0.92031300  1
  O  O15  1  0.31423400  0.89826800  0.92029600  1
  O  O16  1  0.01908100  0.13347900  0.82262900  1
  O  O17  1  0.02009000  0.63346600  0.82284800  1
  O  O18  1  0.98081500  0.36656100  0.17725400  1
  O  O19  1  0.98010000  0.86655700  0.17719900  1
loop_
_geom_bond_atom_site_label_1
_geom_bond_atom_site_label_2
_geom_bond_distance
_geom_bond_site_symmetry_2
Li0 O4 2.029668 1_555
Li0 O2 2.088167 1_555
Li0 O0 2.090156 1_555
Li0 O16 2.188846 1_655
Li0 O10 2.237348 1_655
Li1 O5 2.029506 1_555
Li1 O3 2.085715 1_555
Li1 O1 2.091539 1_555
Li1 O17 2.191967 1_655
Li1 O11 2.233893 1_655
Li2 O6 2.029899 1_555
Li2 O0 2.087683 1_555
Li2 O2 2.090136 1_555
Li2 O18 2.189785 1_455
Li2 O8 2.237737 1_455
Li3 O7 2.029913 1_555
Li3 O1 2.086107 1_555
Li3 O3 2.091021 1_555
Li3 O19 2.191306 1_455
Li3 O9 2.233543 1_455
Li4 O8 2.005660 1_555
Li4 O0 2.049240 1_555
Li4 O12 2.154898 1_555
Li4 O6 2.187374 1_555
Li4 O18 2.358557 1_555
Li5 O9 2.005574 1_555
Li5 O1 2.049660 1_555
Li5 O13 2.157294 1_555
Li5 O7 2.185627 1_555
Li5 O19 2.356109 1_555
Li6 O10 2.005667 1_555
Li6 O2 2.049561 1_555
Li6 O14 2.153836 1_555
Li6 O4 2.187752 1_555
Li6 O16 2.358608 1_555
Li7 O11 2.005660 1_555
Li7 O3 2.049933 1_555
Li7 O15 2.157046 1_555
Li7 O5 2.187975 1_555
Li7 O17 2.353022 1_555
Nb0 O18 1.943096 1_555
Nb0 O0 1.944244 1_555
Nb0 O10 1.952506 1_655
Nb0 O13 2.096438 1_555
Nb0 O9 2.148362 1_555
Nb0 O7 2.164312 1_655
Nb1 O19 1.943069 1_555
Nb1 O1 1.943897 1_555
Nb1 O11 1.952904 1_655
Nb1 O12 2.095992 1_565
Nb1 O8 2.148252 1_565
Nb1 O6 2.164948 1_665
Nb2 O16 1.943090 1_555
Nb2 O2 1.943820 1_555
Nb2 O8 1.952658 1_455
Nb2 O15 2.096507 1_545
Nb2 O11 2.148192 1_545
Nb2 O5 2.164503 1_445
Nb3 O17 1.943541 1_555
Nb3 O3 1.943640 1_555
Nb3 O9 1.952902 1_455
Nb3 O14 2.095819 1_555
Nb3 O10 2.147972 1_555
Nb3 O4 2.165012 1_455
Fe0 O5 2.096738 1_454
Fe0 O7 2.096773 1_555
Fe0 O15 2.181311 1_554
Fe0 O13 2.181687 1_455
Fe0 O19 2.234712 1_455
Fe0 O17 2.236005 1_554
Fe1 O6 2.039537 1_565
Fe1 O12 2.121000 1_565
Fe1 O15 2.138261 1_554
Fe1 O19 2.160735 1_455
Fe1 O1 2.184654 1_555
Fe1 O16 2.612652 1_564
Fe2 O4 2.039599 1_555
Fe2 O14 2.121302 1_555
Fe2 O13 2.138433 1_556
Fe2 O17 2.160986 1_655
Fe2 O3 2.184249 1_555
Fe2 O18 2.612100 1_556
Fe3 O6 2.095616 1_555
Fe3 O4 2.095671 1_454
Fe3 O12 2.183064 1_455
Fe3 O14 2.183234 1_554
Fe3 O18 2.234443 1_455
Fe3 O16 2.234608 1_554
Fe4 O7 2.040381 1_555
Fe4 O13 2.120491 1_555
Fe4 O14 2.139484 1_554
Fe4 O18 2.160195 1_455
Fe4 O0 2.184027 1_555
Fe4 O17 2.611193 1_554
Fe5 O5 2.039762 1_545
Fe5 O15 2.120117 1_545
Fe5 O12 2.139781 1_556
Fe5 O16 2.160437 1_655
Fe5 O2 2.183309 1_555
Fe5 O19 2.612562 1_546
