# generated using pymatgen
data_Na2CoO3
_symmetry_space_group_name_H-M   'P 1'
_cell_length_a   9.94906005
_cell_length_b   9.47182069
_cell_length_c   5.40581294
_cell_angle_alpha   78.76367469
_cell_angle_beta   69.03241028
_cell_angle_gamma   32.20391502
_symmetry_Int_Tables_number   1
_chemical_formula_structural   Na2CoO3
_chemical_formula_sum   'Na8 Co4 O12'
_cell_volume   247.47618569
_cell_formula_units_Z   4
loop_
 _symmetry_equiv_pos_site_id
 _symmetry_equiv_pos_as_xyz
  1  'x, y, z'
loop_
 _atom_site_type_symbol
 _atom_site_label
 _atom_site_symmetry_multiplicity
 _atom_site_fract_x
 _atom_site_fract_y
 _atom_site_fract_z
 _atom_site_occupancy
  Na  Na0  1  0.99270100  0.99270100  0.50729900  1
  Na  Na1  1  0.42096300  0.42096300  0.57903700  1
  Na  Na2  1  0.82903700  0.82903700  0.67096300  1
  Na  Na3  1  0.25729900  0.25729900  0.74270100  1
  Na  Na4  1  0.74270100  0.74270100  0.25729900  1
  Na  Na5  1  0.67096300  0.67096300  0.82903700  1
  Na  Na6  1  0.57903700  0.57903700  0.42096300  1
  Na  Na7  1  0.50729900  0.50729900  0.99270100  1
  Co  Co0  1  0.91243500  0.91243500  0.08756500  1
  Co  Co1  1  0.33756500  0.33756500  0.16243500  1
  Co  Co2  1  0.16243500  0.16243500  0.33756500  1
  Co  Co3  1  0.08756500  0.08756500  0.91243500  1
  O  O0  1  0.65020100  0.15701800  0.89403300  1
  O  O1  1  0.15701800  0.65020100  0.29874800  1
  O  O2  1  0.59979900  0.09298200  0.35596700  1
  O  O3  1  0.09298200  0.59979900  0.95125200  1
  O  O4  1  0.44185300  0.05814700  0.05814700  1
  O  O5  1  0.05814700  0.44185300  0.44185300  1
  O  O6  1  0.95125200  0.35596700  0.09298200  1
  O  O7  1  0.35596700  0.95125200  0.59979900  1
  O  O8  1  0.29874800  0.89403300  0.15701800  1
  O  O9  1  0.89403300  0.29874800  0.65020100  1
  O  O10  1  0.80814700  0.19185300  0.19185300  1
  O  O11  1  0.19185300  0.80814700  0.80814700  1
loop_
_geom_bond_atom_site_label_1
_geom_bond_atom_site_label_2
_geom_bond_distance
_geom_bond_site_symmetry_2
Na0 O10 2.227853 1_565
Na0 O11 2.227853 1_655
Na0 O8 2.340478 1_655
Na0 O9 2.340478 1_565
Na0 O1 2.366205 1_655
Na0 O0 2.366205 1_565
Na1 O3 2.200232 1_555
Na1 O2 2.200232 1_555
Na1 O11 2.404573 1_555
Na1 O10 2.404573 1_555
Na1 O0 2.412970 1_555
Na1 O1 2.412970 1_555
Na2 O1 2.200232 1_655
Na2 O0 2.200232 1_565
Na2 O5 2.404573 1_655
Na2 O4 2.404573 1_566
Na2 O2 2.412970 1_565
Na2 O3 2.412970 1_655
Na3 O5 2.227853 1_555
Na3 O4 2.227853 1_556
Na3 O6 2.340478 1_456
Na3 O7 2.340478 1_545
Na3 O2 2.366205 1_555
Na3 O3 2.366205 1_555
Na4 O4 2.227853 1_565
Na4 O5 2.227853 1_655
Na4 O2 2.340478 1_565
Na4 O3 2.340478 1_654
Na4 O6 2.366205 1_555
Na4 O7 2.366205 1_555
Na5 O9 2.200232 1_555
Na5 O8 2.200232 1_556
Na5 O5 2.404573 1_655
Na5 O4 2.404573 1_566
Na5 O7 2.412970 1_555
Na5 O6 2.412970 1_556
Na6 O7 2.200232 1_555
Na6 O6 2.200232 1_555
Na6 O11 2.404573 1_555
Na6 O10 2.404573 1_555
Na6 O9 2.412970 1_555
Na6 O8 2.412970 1_555
Na7 O11 2.227853 1_555
Na7 O10 2.227853 1_556
Na7 O0 2.340478 1_555
Na7 O1 2.340478 1_556
Na7 O9 2.366205 1_555
Na7 O8 2.366205 1_556
Co0 O3 1.854682 1_654
Co0 O2 1.854682 1_565
Co0 O11 1.978524 1_654
Co0 O10 1.978524 1_565
Co0 O0 2.012112 1_564
Co0 O1 2.012112 1_655
Co1 O1 1.854682 1_555
Co1 O0 1.854682 1_554
Co1 O4 1.978524 1_555
Co1 O5 1.978524 1_555
Co1 O2 2.012112 1_555
Co1 O3 2.012112 1_554
Co2 O9 1.854682 1_455
Co2 O8 1.854682 1_545
Co2 O5 1.978524 1_555
Co2 O4 1.978524 1_555
Co2 O7 2.012112 1_545
Co2 O6 2.012112 1_455
Co3 O7 1.854682 1_545
Co3 O6 1.854682 1_456
Co3 O11 1.978524 1_545
Co3 O10 1.978524 1_456
Co3 O9 2.012112 1_455
Co3 O8 2.012112 1_546
