# generated using pymatgen
data_H8PtN2(ClO)2
_symmetry_space_group_name_H-M   'P 1'
_cell_length_a   7.62595500
_cell_length_b   6.47892000
_cell_length_c   6.77447899
_cell_angle_alpha   89.84130154
_cell_angle_beta   90.00000000
_cell_angle_gamma   90.00000000
_symmetry_Int_Tables_number   1
_chemical_formula_structural   H8PtN2(ClO)2
_chemical_formula_sum   'H16 Pt2 N4 Cl4 O4'
_cell_volume   334.71185115
_cell_formula_units_Z   2
loop_
 _symmetry_equiv_pos_site_id
 _symmetry_equiv_pos_as_xyz
  1  'x, y, z'
loop_
 _atom_site_type_symbol
 _atom_site_label
 _atom_site_symmetry_multiplicity
 _atom_site_fract_x
 _atom_site_fract_y
 _atom_site_fract_z
 _atom_site_occupancy
  H  H0  1  0.25000000  0.17804500  0.58762400  1
  H  H1  1  0.75000000  0.82195500  0.41237600  1
  H  H2  1  0.25000000  0.82491600  0.19973600  1
  H  H3  1  0.75000000  0.17508400  0.80026400  1
  H  H4  1  0.93459300  0.11071300  0.34689100  1
  H  H5  1  0.43459300  0.88928700  0.65310900  1
  H  H6  1  0.06540700  0.88928700  0.65310900  1
  H  H7  1  0.56540700  0.11071300  0.34689100  1
  H  H8  1  0.92763900  0.34176900  0.23727500  1
  H  H9  1  0.42763900  0.65823100  0.76272500  1
  H  H10  1  0.07236100  0.65823100  0.76272500  1
  H  H11  1  0.57236100  0.34176900  0.23727500  1
  H  H12  1  0.92908900  0.13099300  0.09884100  1
  H  H13  1  0.42908900  0.86900700  0.90115900  1
  H  H14  1  0.07091100  0.86900700  0.90115900  1
  H  H15  1  0.57091100  0.13099300  0.09884100  1
  Pt  Pt0  1  0.25000000  0.20602400  0.22733000  1
  Pt  Pt1  1  0.75000000  0.79397600  0.77267000  1
  N  N0  1  0.97929600  0.19589500  0.22722400  1
  N  N1  1  0.47929600  0.80410500  0.77277600  1
  N  N2  1  0.02070400  0.80410500  0.77277600  1
  N  N3  1  0.52070400  0.19589500  0.22722400  1
  Cl  Cl0  1  0.25000000  0.35477100  0.90933300  1
  Cl  Cl1  1  0.75000000  0.64522900  0.09066700  1
  Cl  Cl2  1  0.25000000  0.52680400  0.39084400  1
  Cl  Cl3  1  0.75000000  0.47319600  0.60915600  1
  O  O0  1  0.25000000  0.06302800  0.49380500  1
  O  O1  1  0.75000000  0.93697200  0.50619500  1
  O  O2  1  0.25000000  0.92824200  0.09236300  1
  O  O3  1  0.75000000  0.07175800  0.90763700  1
loop_
_geom_bond_atom_site_label_1
_geom_bond_atom_site_label_2
_geom_bond_distance
_geom_bond_site_symmetry_2
H0 O0 0.980755 1_555
H1 O1 0.980755 1_555
H2 O2 0.987197 1_555
H3 O3 0.987197 1_555
H4 N0 1.037073 1_555
H5 N1 1.037073 1_555
H6 N2 1.037073 1_555
H7 N3 1.037073 1_555
H8 N0 1.026354 1_555
H9 N1 1.026354 1_555
H10 N2 1.026354 1_555
H11 N3 1.026354 1_555
H12 N0 1.040126 1_555
H13 N1 1.040126 1_555
H14 N2 1.040126 1_555
H15 N3 1.040126 1_555
N0 Pt0 2.065420 1_655
N1 Pt1 2.065420 1_555
N2 Pt1 2.065420 1_455
N3 Pt0 2.065420 1_555
Cl0 Pt0 2.357564 1_556
Cl1 Pt1 2.357564 1_554
Cl2 Pt0 2.357788 1_555
Cl3 Pt1 2.357788 1_555
O0 Pt0 2.026799 1_555
O1 Pt1 2.026799 1_555
O2 Pt0 2.020924 1_565
O3 Pt1 2.020924 1_545
