# generated using pymatgen
data_Mn8O13F3
_symmetry_space_group_name_H-M   'P 1'
_cell_length_a   5.97357800
_cell_length_b   4.52668400
_cell_length_c   9.34988514
_cell_angle_alpha   85.87592186
_cell_angle_beta   90.00000000
_cell_angle_gamma   90.00000000
_symmetry_Int_Tables_number   1
_chemical_formula_structural   Mn8O13F3
_chemical_formula_sum   'Mn8 O13 F3'
_cell_volume   252.17091442
_cell_formula_units_Z   1
loop_
 _symmetry_equiv_pos_site_id
 _symmetry_equiv_pos_as_xyz
  1  'x, y, z'
loop_
 _atom_site_type_symbol
 _atom_site_label
 _atom_site_symmetry_multiplicity
 _atom_site_fract_x
 _atom_site_fract_y
 _atom_site_fract_z
 _atom_site_occupancy
  Mn  Mn0  1  0.00000000  0.00348500  0.00071800  1
  Mn  Mn1  1  0.75069100  0.53919900  0.26436300  1
  Mn  Mn2  1  0.50000000  0.97005000  0.98667400  1
  Mn  Mn3  1  0.00000000  0.01007900  0.50493900  1
  Mn  Mn4  1  0.74266800  0.47283900  0.73970200  1
  Mn  Mn5  1  0.24930900  0.53919900  0.26436300  1
  Mn  Mn6  1  0.50000000  0.00327800  0.50090400  1
  Mn  Mn7  1  0.25733200  0.47283900  0.73970200  1
  O  O0  1  0.75103200  0.78352900  0.08988500  1
  O  O1  1  0.74806800  0.20592900  0.90766400  1
  O  O2  1  0.00000000  0.74082200  0.34002600  1
  O  O3  1  0.25193200  0.20592900  0.90766400  1
  O  O4  1  0.75135600  0.22375300  0.41564900  1
  O  O5  1  0.50000000  0.73700500  0.34347000  1
  O  O6  1  0.24896800  0.78352900  0.08988500  1
  O  O7  1  0.75036800  0.77925100  0.58338500  1
  O  O8  1  0.00000000  0.26840300  0.66140600  1
  O  O9  1  0.24963200  0.77925100  0.58338500  1
  O  O10  1  0.50000000  0.27210500  0.66116200  1
  O  O11  1  0.24864400  0.22375300  0.41564900  1
  O  O12  1  0.50000000  0.67542200  0.82345600  1
  F  F0  1  0.00000000  0.30827000  0.17193000  1
  F  F1  1  0.00000000  0.68513600  0.82813900  1
  F  F2  1  0.50000000  0.31694700  0.17588000  1
loop_
_geom_bond_atom_site_label_1
_geom_bond_atom_site_label_2
_geom_bond_distance
_geom_bond_site_symmetry_2
Mn0 O3 1.935696 1_554
Mn0 O1 1.935696 1_454
Mn0 O6 1.943933 1_545
Mn0 O0 1.943933 1_445
Mn1 O0 1.903953 1_555
Mn1 O2 1.908991 1_655
Mn1 O5 1.920065 1_555
Mn1 O4 1.936310 1_555
Mn2 O1 1.941199 1_565
Mn2 O3 1.941199 1_565
Mn2 O0 1.943093 1_556
Mn2 O6 1.943093 1_556
Mn2 O12 2.097702 1_555
Mn3 O11 1.929371 1_555
Mn3 O4 1.929371 1_455
Mn3 O9 1.934731 1_545
Mn3 O7 1.934731 1_445
Mn3 O8 1.937435 1_555
Mn3 O2 2.033076 1_545
Mn4 O10 1.887385 1_555
Mn4 O1 1.911584 1_555
Mn4 O12 1.912797 1_555
Mn4 O7 1.941779 1_555
Mn4 O8 1.962832 1_655
Mn5 O6 1.903953 1_555
Mn5 O2 1.908991 1_555
Mn5 O5 1.920065 1_555
Mn5 O11 1.936310 1_555
Mn6 O7 1.935831 1_545
Mn6 O9 1.935831 1_545
Mn6 O4 1.942038 1_555
Mn6 O11 1.942038 1_555
Mn6 O5 1.968446 1_545
Mn6 O10 1.997068 1_555
Mn7 O10 1.887385 1_555
Mn7 O3 1.911584 1_555
Mn7 O12 1.912797 1_555
Mn7 O9 1.941779 1_555
Mn7 O8 1.962832 1_555
F0 Mn5 2.046340 1_555
F0 Mn1 2.046340 1_455
F0 Mn0 2.187177 1_555
F1 Mn4 2.021015 1_455
F1 Mn7 2.021015 1_555
F1 Mn0 2.239377 1_566
F2 Mn1 2.014669 1_555
F2 Mn5 2.014669 1_555
F2 Mn2 2.448455 1_544
