# generated using pymatgen
data_Li2V3CrO8
_symmetry_space_group_name_H-M   'P 1'
_cell_length_a   8.46114500
_cell_length_b   8.35828200
_cell_length_c   8.47752979
_cell_angle_alpha   89.62374901
_cell_angle_beta   90.00000000
_cell_angle_gamma   90.00000000
_symmetry_Int_Tables_number   1
_chemical_formula_structural   Li2V3CrO8
_chemical_formula_sum   'Li8 V12 Cr4 O32'
_cell_volume   599.52337103
_cell_formula_units_Z   4
loop_
 _symmetry_equiv_pos_site_id
 _symmetry_equiv_pos_as_xyz
  1  'x, y, z'
loop_
 _atom_site_type_symbol
 _atom_site_label
 _atom_site_symmetry_multiplicity
 _atom_site_fract_x
 _atom_site_fract_y
 _atom_site_fract_z
 _atom_site_occupancy
  Li  Li0  1  0.00443400  0.25511100  0.49826500  1
  Li  Li1  1  0.24760300  0.49728400  0.25406600  1
  Li  Li2  1  0.75777000  0.99497800  0.24378100  1
  Li  Li3  1  0.99763700  0.75538800  0.00514700  1
  Li  Li4  1  0.49763700  0.24461200  0.99485300  1
  Li  Li5  1  0.25777000  0.00502200  0.75621900  1
  Li  Li6  1  0.74760300  0.50271600  0.74593400  1
  Li  Li7  1  0.50443400  0.74488900  0.50173500  1
  V  V0  1  0.12802900  0.87863700  0.37862400  1
  V  V1  1  0.38083400  0.11817100  0.37591700  1
  V  V2  1  0.62147300  0.37303700  0.37065000  1
  V  V3  1  0.37301100  0.87179100  0.12831400  1
  V  V4  1  0.62650000  0.62255600  0.12213200  1
  V  V5  1  0.86969300  0.37594700  0.12196300  1
  V  V6  1  0.36969300  0.62405300  0.87803700  1
  V  V7  1  0.12650000  0.37744400  0.87786800  1
  V  V8  1  0.87301100  0.12820900  0.87168600  1
  V  V9  1  0.12147300  0.62696300  0.62935000  1
  V  V10  1  0.88083400  0.88182900  0.62408300  1
  V  V11  1  0.62802900  0.12136300  0.62137600  1
  Cr  Cr0  1  0.87520200  0.62445000  0.37399300  1
  Cr  Cr1  1  0.12425600  0.12514200  0.12300800  1
  Cr  Cr2  1  0.62425600  0.87485800  0.87699200  1
  Cr  Cr3  1  0.37520200  0.37555000  0.62600700  1
  O  O0  1  0.11497600  0.64421800  0.39129700  1
  O  O1  1  0.89272000  0.86468500  0.38924500  1
  O  O2  1  0.61933100  0.13327500  0.38418500  1
  O  O3  1  0.13778900  0.10592300  0.36446300  1
  O  O4  1  0.39717400  0.36661300  0.38602200  1
  O  O5  1  0.36134000  0.87470200  0.36288600  1
  O  O6  1  0.63696700  0.61067500  0.35876600  1
  O  O7  1  0.85073000  0.38205300  0.36101500  1
  O  O8  1  0.13975900  0.88275900  0.14345600  1
  O  O9  1  0.36716700  0.09993200  0.13481100  1
  O  O10  1  0.62117800  0.39283800  0.13373100  1
  O  O11  1  0.61174600  0.85458600  0.11619600  1
  O  O12  1  0.85709900  0.61663900  0.13529700  1
  O  O13  1  0.38392200  0.64139600  0.11633700  1
  O  O14  1  0.11397600  0.36645200  0.11037200  1
  O  O15  1  0.88842300  0.13787800  0.10694800  1
  O  O16  1  0.38842300  0.86212200  0.89305200  1
  O  O17  1  0.61397600  0.63354800  0.88962800  1
  O  O18  1  0.88392200  0.35860400  0.88366300  1
  O  O19  1  0.35709900  0.38336100  0.86470300  1
  O  O20  1  0.11174600  0.14541400  0.88380400  1
  O  O21  1  0.12117800  0.60716200  0.86626900  1
  O  O22  1  0.86716700  0.90006800  0.86518900  1
  O  O23  1  0.63975900  0.11724100  0.85654400  1
  O  O24  1  0.35073000  0.61794700  0.63898500  1
  O  O25  1  0.13696700  0.38932500  0.64123400  1
  O  O26  1  0.86134000  0.12529800  0.63711400  1
  O  O27  1  0.89717400  0.63338700  0.61397800  1
  O  O28  1  0.63778900  0.89407700  0.63553700  1
  O  O29  1  0.11933100  0.86672500  0.61581500  1
  O  O30  1  0.39272000  0.13531500  0.61075500  1
  O  O31  1  0.61497600  0.35578200  0.60870300  1
loop_
_geom_bond_atom_site_label_1
_geom_bond_atom_site_label_2
_geom_bond_distance
_geom_bond_site_symmetry_2
Li0 O25 2.000696 1_555
Li0 O26 2.002979 1_455
Li0 O3 2.033046 1_555
Li0 O7 2.038309 1_455
Li1 O14 1.993887 1_555
Li1 O4 2.007441 1_555
Li1 O13 2.031275 1_555
Li1 O0 2.034641 1_555
Li2 O15 1.994010 1_565
Li2 O1 1.998209 1_555
Li2 O11 2.022381 1_555
Li2 O2 2.035452 1_565
Li3 O12 1.989843 1_555
Li3 O8 1.992640 1_655
Li3 O21 2.008196 1_654
Li3 O22 2.017408 1_554
Li4 O19 1.989843 1_555
Li4 O23 1.992640 1_555
Li4 O10 2.008196 1_556
Li4 O9 2.017408 1_556
Li5 O16 1.994010 1_545
Li5 O30 1.998209 1_555
Li5 O20 2.022381 1_555
Li5 O29 2.035452 1_545
Li6 O17 1.993887 1_555
Li6 O27 2.007441 1_555
Li6 O18 2.031275 1_555
Li6 O31 2.034641 1_555
Li7 O6 2.000696 1_555
Li7 O5 2.002979 1_555
Li7 O28 2.033046 1_555
Li7 O24 2.038309 1_555
Cr0 O1 2.018407 1_555
Cr0 O6 2.023197 1_555
Cr0 O12 2.030818 1_555
Cr0 O7 2.040263 1_555
Cr0 O0 2.040837 1_655
Cr0 O27 2.044810 1_555
Cr1 O15 2.002840 1_455
Cr1 O14 2.020950 1_555
Cr1 O8 2.036403 1_545
Cr1 O20 2.036569 1_554
Cr1 O3 2.055376 1_555
Cr1 O9 2.068433 1_555
Cr2 O16 2.002840 1_555
Cr2 O17 2.020950 1_555
Cr2 O23 2.036403 1_565
Cr2 O11 2.036569 1_556
Cr2 O28 2.055376 1_555
Cr2 O22 2.068433 1_555
Cr3 O30 2.018407 1_555
Cr3 O25 2.023197 1_555
Cr3 O19 2.030818 1_555
Cr3 O24 2.040263 1_555
Cr3 O31 2.040837 1_555
Cr3 O4 2.044810 1_555
O0 V0 1.964686 1_555
O0 V9 2.023050 1_555
O1 V0 1.996393 1_655
O1 V10 1.999466 1_555
O2 V2 2.006610 1_555
O2 V11 2.013949 1_555
O2 V1 2.023146 1_555
O3 V0 1.904514 1_545
O3 V1 2.061306 1_555
O4 V2 1.903029 1_555
O4 V1 2.083469 1_555
O5 V0 1.978870 1_555
O5 V3 1.991350 1_555
O5 V1 2.045365 1_565
O6 V2 1.992456 1_555
O6 V4 2.009829 1_555
O7 V2 1.942937 1_555
O7 V5 2.033887 1_555
O8 V3 1.979912 1_555
O8 V0 1.996184 1_555
O9 V3 1.908664 1_545
O9 V1 2.053916 1_555
O10 V4 1.922447 1_555
O10 V2 2.014213 1_555
O10 V5 2.109859 1_555
O11 V4 1.943708 1_555
O11 V3 2.027736 1_555
O12 V4 1.954928 1_555
O12 V5 2.018501 1_555
O13 V3 1.931255 1_555
O13 V6 2.029912 1_554
O13 V4 2.059081 1_555
O14 V7 1.975441 1_554
O14 V5 2.070794 1_455
O15 V8 2.000861 1_554
O15 V5 2.001034 1_555
O16 V3 2.000861 1_556
O16 V6 2.001034 1_555
O17 V4 1.975441 1_556
O17 V6 2.070794 1_555
O18 V8 1.931255 1_555
O18 V5 2.029912 1_556
O18 V7 2.059081 1_655
O19 V7 1.954928 1_555
O19 V6 2.018501 1_555
O20 V7 1.943708 1_555
O20 V8 2.027736 1_455
O21 V7 1.922447 1_555
O21 V9 2.014213 1_555
O21 V6 2.109859 1_555
O22 V8 1.908664 1_565
O22 V10 2.053916 1_555
O23 V8 1.979912 1_555
O23 V11 1.996184 1_555
O24 V9 1.942937 1_555
O24 V6 2.033887 1_555
O25 V9 1.992456 1_555
O25 V7 2.009829 1_555
O26 V11 1.978870 1_555
O26 V8 1.991350 1_555
O26 V10 2.045365 1_545
O27 V9 1.903029 1_655
O27 V10 2.083469 1_555
O28 V11 1.904514 1_565
O28 V10 2.061306 1_555
O29 V9 2.006610 1_555
O29 V0 2.013949 1_555
O29 V10 2.023146 1_455
O30 V11 1.996393 1_555
O30 V1 1.999466 1_555
O31 V11 1.964686 1_555
O31 V2 2.023050 1_555
