# generated using pymatgen
data_Lu2Pb2O7
_symmetry_space_group_name_H-M   'P 1'
_cell_length_a   7.52835660
_cell_length_b   7.52835660
_cell_length_c   7.52835660
_cell_angle_alpha   60.00000000
_cell_angle_beta   60.00000000
_cell_angle_gamma   60.00000000
_symmetry_Int_Tables_number   1
_chemical_formula_structural   Lu2Pb2O7
_chemical_formula_sum   'Lu4 Pb4 O14'
_cell_volume   301.70711259
_cell_formula_units_Z   2
loop_
 _symmetry_equiv_pos_site_id
 _symmetry_equiv_pos_as_xyz
  1  'x, y, z'
loop_
 _atom_site_type_symbol
 _atom_site_label
 _atom_site_symmetry_multiplicity
 _atom_site_fract_x
 _atom_site_fract_y
 _atom_site_fract_z
 _atom_site_occupancy
  Lu  Lu0  1  0.62500000  0.62500000  0.12500000  1
  Lu  Lu1  1  0.62500000  0.62500000  0.62500000  1
  Lu  Lu2  1  0.62500000  0.12500000  0.62500000  1
  Lu  Lu3  1  0.12500000  0.62500000  0.62500000  1
  Pb  Pb0  1  0.12500000  0.12500000  0.12500000  1
  Pb  Pb1  1  0.62500000  0.12500000  0.12500000  1
  Pb  Pb2  1  0.12500000  0.12500000  0.62500000  1
  Pb  Pb3  1  0.12500000  0.62500000  0.12500000  1
  O  O0  1  0.02113700  0.47886300  0.47886300  1
  O  O1  1  0.77113700  0.77113700  0.22886300  1
  O  O2  1  0.77113700  0.22886300  0.22886300  1
  O  O3  1  0.47886300  0.02113700  0.47886300  1
  O  O4  1  0.75000000  0.75000000  0.75000000  1
  O  O5  1  0.02113700  0.47886300  0.02113700  1
  O  O6  1  0.02113700  0.02113700  0.47886300  1
  O  O7  1  0.22886300  0.77113700  0.22886300  1
  O  O8  1  0.22886300  0.22886300  0.77113700  1
  O  O9  1  0.77113700  0.22886300  0.77113700  1
  O  O10  1  0.50000000  0.50000000  0.50000000  1
  O  O11  1  0.47886300  0.02113700  0.02113700  1
  O  O12  1  0.47886300  0.47886300  0.02113700  1
  O  O13  1  0.22886300  0.77113700  0.77113700  1
loop_
_geom_bond_atom_site_label_1
_geom_bond_atom_site_label_2
_geom_bond_distance
_geom_bond_site_symmetry_2
Lu0 O4 2.305079 1_554
Lu0 O10 2.305079 1_555
Lu0 O1 2.441928 1_555
Lu0 O7 2.441928 1_555
Lu0 O5 2.441928 1_655
Lu0 O2 2.441928 1_555
Lu0 O11 2.441928 1_565
Lu0 O12 2.441928 1_555
Lu1 O4 2.305079 1_555
Lu1 O10 2.305079 1_555
Lu1 O9 2.441928 1_555
Lu1 O1 2.441928 1_555
Lu1 O13 2.441928 1_555
Lu1 O0 2.441928 1_655
Lu1 O12 2.441928 1_556
Lu1 O3 2.441928 1_565
Lu2 O10 2.305079 1_555
Lu2 O4 2.305079 1_545
Lu2 O9 2.441928 1_555
Lu2 O11 2.441928 1_556
Lu2 O6 2.441928 1_655
Lu2 O8 2.441928 1_555
Lu2 O2 2.441928 1_555
Lu2 O3 2.441928 1_555
Lu3 O4 2.305079 1_455
Lu3 O10 2.305079 1_555
Lu3 O13 2.441928 1_555
Lu3 O6 2.441928 1_565
Lu3 O8 2.441928 1_555
Lu3 O5 2.441928 1_556
Lu3 O7 2.441928 1_555
Lu3 O0 2.441928 1_555
O0 Pb2 2.182899 1_555
O0 Pb3 2.182899 1_555
O1 Pb3 2.182899 1_655
O1 Pb1 2.182899 1_565
O2 Pb1 2.182899 1_555
O2 Pb0 2.182899 1_655
O3 Pb1 2.182899 1_555
O3 Pb2 2.182899 1_555
O5 Pb3 2.182899 1_555
O5 Pb0 2.182899 1_555
O6 Pb0 2.182899 1_555
O6 Pb2 2.182899 1_555
O7 Pb3 2.182899 1_555
O7 Pb0 2.182899 1_565
O8 Pb2 2.182899 1_555
O8 Pb0 2.182899 1_556
O9 Pb2 2.182899 1_655
O9 Pb1 2.182899 1_556
O11 Pb0 2.182899 1_555
O11 Pb1 2.182899 1_555
O12 Pb1 2.182899 1_555
O12 Pb3 2.182899 1_555
O13 Pb2 2.182899 1_565
O13 Pb3 2.182899 1_556
