# generated using pymatgen
data_Mn12O5F19
_symmetry_space_group_name_H-M   'P 1'
_cell_length_a   4.85909600
_cell_length_b   5.86007708
_cell_length_c   15.91089523
_cell_angle_alpha   90.21032199
_cell_angle_beta   90.23930065
_cell_angle_gamma   90.98166043
_symmetry_Int_Tables_number   1
_chemical_formula_structural   Mn12O5F19
_chemical_formula_sum   'Mn12 O5 F19'
_cell_volume   452.98398487
_cell_formula_units_Z   1
loop_
 _symmetry_equiv_pos_site_id
 _symmetry_equiv_pos_as_xyz
  1  'x, y, z'
loop_
 _atom_site_type_symbol
 _atom_site_label
 _atom_site_symmetry_multiplicity
 _atom_site_fract_x
 _atom_site_fract_y
 _atom_site_fract_z
 _atom_site_occupancy
  Mn  Mn0  1  0.99363600  0.17501500  0.40570700  1
  Mn  Mn1  1  0.01877500  0.85314300  0.24809800  1
  Mn  Mn2  1  0.97312200  0.19017500  0.07824800  1
  Mn  Mn3  1  0.03581000  0.17094600  0.75051300  1
  Mn  Mn4  1  0.01034300  0.85995800  0.58564900  1
  Mn  Mn5  1  0.99897100  0.83615200  0.91827000  1
  Mn  Mn6  1  0.48808300  0.31702800  0.58664700  1
  Mn  Mn7  1  0.50007500  0.34234600  0.91451100  1
  Mn  Mn8  1  0.49663100  0.32555300  0.26079000  1
  Mn  Mn9  1  0.51158500  0.64078000  0.08286900  1
  Mn  Mn10  1  0.51456000  0.64857100  0.41773800  1
  Mn  Mn11  1  0.48881000  0.64754700  0.75002400  1
  O  O0  1  0.21421900  0.12509300  0.30556400  1
  O  O1  1  0.21662200  0.10905900  0.64441500  1
  O  O2  1  0.29611300  0.37612300  0.80816500  1
  O  O3  1  0.70170000  0.39235500  0.01982400  1
  O  O4  1  0.71411200  0.37684700  0.36178300  1
  F  F0  1  0.23453000  0.11831000  0.97172200  1
  F  F1  1  0.23713700  0.87771700  0.13251400  1
  F  F2  1  0.22972700  0.89886300  0.46957300  1
  F  F3  1  0.23850200  0.87999100  0.80986200  1
  F  F4  1  0.27246000  0.37897100  0.14913900  1
  F  F5  1  0.26628000  0.62000100  0.30756600  1
  F  F6  1  0.26189400  0.39401700  0.47603300  1
  F  F7  1  0.26531100  0.61171300  0.63722100  1
  F  F8  1  0.26075500  0.60668000  0.97471100  1
  F  F9  1  0.73334000  0.59836900  0.19776100  1
  F  F10  1  0.73712000  0.62004700  0.53409800  1
  F  F11  1  0.72840200  0.60785300  0.86082600  1
  F  F12  1  0.73887100  0.39073400  0.69196100  1
  F  F13  1  0.76058200  0.10500800  0.19066000  1
  F  F14  1  0.77569700  0.11722200  0.51765600  1
  F  F15  1  0.76569300  0.88021100  0.35712600  1
  F  F16  1  0.76249800  0.89267300  0.02746300  1
  F  F17  1  0.79037200  0.12264700  0.85598800  1
  F  F18  1  0.76766600  0.89227500  0.69930700  1
loop_
_geom_bond_atom_site_label_1
_geom_bond_atom_site_label_2
_geom_bond_distance
_geom_bond_site_symmetry_2
Mn0 O4 1.945586 1_555
Mn0 O0 1.948027 1_655
Mn1 O0 2.051294 1_565
Mn2 O3 2.014606 1_555
Mn3 O1 1.942157 1_555
Mn3 O2 1.953714 1_555
Mn4 O1 1.985401 1_565
Mn6 O1 2.008298 1_555
Mn7 O3 1.956089 1_556
Mn7 O2 1.969680 1_555
Mn8 O0 1.931228 1_555
Mn8 O4 1.939220 1_555
Mn9 O3 2.005498 1_555
Mn10 O4 2.077987 1_555
Mn11 O2 2.056548 1_555
F0 Mn7 2.043934 1_555
F0 Mn5 2.164271 1_445
F0 Mn2 2.166707 1_456
F1 Mn9 2.096278 1_555
F1 Mn1 2.131113 1_555
F1 Mn2 2.413870 1_465
F2 Mn4 2.147207 1_555
F2 Mn10 2.194823 1_555
F2 Mn0 2.243521 1_465
F3 Mn11 2.073188 1_555
F3 Mn5 2.098957 1_455
F3 Mn3 2.197818 1_565
F4 Mn8 2.107115 1_555
F4 Mn2 2.129290 1_455
F4 Mn9 2.185575 1_555
F5 Mn1 2.065070 1_555
F5 Mn10 2.128265 1_555
F5 Mn8 2.201760 1_555
F6 Mn6 2.125008 1_555
F6 Mn0 2.125589 1_455
F6 Mn10 2.133008 1_555
F7 Mn4 2.094398 1_555
F7 Mn11 2.101888 1_555
F7 Mn6 2.205103 1_555
F8 Mn5 2.071410 1_455
F8 Mn9 2.111515 1_556
F8 Mn7 2.174701 1_555
F9 Mn9 2.135557 1_555
F9 Mn1 2.169130 1_655
F9 Mn8 2.200672 1_555
F10 Mn4 2.080952 1_655
F10 Mn10 2.148685 1_555
F10 Mn6 2.293966 1_555
F11 Mn5 2.067467 1_555
F11 Mn7 2.083230 1_555
F11 Mn11 2.124298 1_555
F12 Mn6 2.106873 1_555
F12 Mn11 2.157904 1_555
F12 Mn3 2.160989 1_655
F13 Mn2 2.125791 1_555
F13 Mn8 2.149078 1_555
F13 Mn1 2.156705 1_645
F14 Mn0 2.101607 1_555
F14 Mn6 2.142078 1_555
F14 Mn4 2.191740 1_645
F15 Mn10 2.055341 1_555
F15 Mn1 2.137575 1_655
F15 Mn0 2.173992 1_565
F16 Mn9 2.097473 1_555
F16 Mn5 2.115163 1_554
F16 Mn2 2.159018 1_565
F17 Mn3 2.080245 1_655
F17 Mn7 2.139794 1_555
F17 Mn5 2.211374 1_545
F18 Mn11 2.120124 1_555
F18 Mn4 2.172468 1_655
F18 Mn3 2.221867 1_665
