# generated using pymatgen
data_LiMnPHO5
_symmetry_space_group_name_H-M   'P 1'
_cell_length_a   6.78969664
_cell_length_b   7.29927723
_cell_length_c   8.31155703
_cell_angle_alpha   93.98011540
_cell_angle_beta   94.08948198
_cell_angle_gamma   61.89843955
_symmetry_Int_Tables_number   1
_chemical_formula_structural   LiMnPHO5
_chemical_formula_sum   'Li4 Mn4 P4 H4 O20'
_cell_volume   362.13459821
_cell_formula_units_Z   4
loop_
 _symmetry_equiv_pos_site_id
 _symmetry_equiv_pos_as_xyz
  1  'x, y, z'
loop_
 _atom_site_type_symbol
 _atom_site_label
 _atom_site_symmetry_multiplicity
 _atom_site_fract_x
 _atom_site_fract_y
 _atom_site_fract_z
 _atom_site_occupancy
  Li  Li0  1  0.74279400  0.82428400  0.18110400  1
  Li  Li1  1  0.24277600  0.82422200  0.68118700  1
  Li  Li2  1  0.25719700  0.17569200  0.81887100  1
  Li  Li3  1  0.75717200  0.17563600  0.31896100  1
  Mn  Mn0  1  0.99968900  0.50024300  0.49991400  1
  Mn  Mn1  1  0.49968700  0.99984700  0.49990500  1
  Mn  Mn2  1  0.50040900  0.50020900  0.00004400  1
  Mn  Mn3  1  0.99984400  0.99993200  0.00009600  1
  P  P0  1  0.28742800  0.23456300  0.14922500  1
  P  P1  1  0.78731800  0.23448200  0.64931700  1
  P  P2  1  0.71275900  0.76545900  0.85058400  1
  P  P3  1  0.21266100  0.76537900  0.35069400  1
  H  H0  1  0.87653500  0.34396000  0.14036100  1
  H  H1  1  0.37640400  0.34399800  0.64018900  1
  H  H2  1  0.12379900  0.65586400  0.85994400  1
  H  H3  1  0.62366600  0.65591400  0.35977700  1
  O  O0  1  0.71774600  0.72335800  0.40195400  1
  O  O1  1  0.21795600  0.72334400  0.90210200  1
  O  O2  1  0.28195400  0.27672800  0.59794200  1
  O  O3  1  0.78213400  0.27671200  0.09808200  1
  O  O4  1  0.08095500  0.38640400  0.24187300  1
  O  O5  1  0.58102300  0.38631600  0.74188500  1
  O  O6  1  0.91908500  0.61371700  0.75815600  1
  O  O7  1  0.41913300  0.61364000  0.25816000  1
  O  O8  1  0.66254400  0.66008100  0.98949100  1
  O  O9  1  0.16236900  0.66002600  0.48946600  1
  O  O10  1  0.33786300  0.34008200  0.01053600  1
  O  O11  1  0.83768000  0.34000800  0.51054300  1
  O  O12  1  0.23934600  0.06737400  0.05030200  1
  O  O13  1  0.73921400  0.06738400  0.55030700  1
  O  O14  1  0.76048800  0.93270600  0.94955700  1
  O  O15  1  0.26034700  0.93269700  0.44954900  1
  O  O16  1  0.49703900  0.11978800  0.26062100  1
  O  O17  1  0.99699900  0.11978400  0.76061700  1
  O  O18  1  0.50302300  0.88008000  0.73934800  1
  O  O19  1  0.00296700  0.88008700  0.23933400  1
loop_
_geom_bond_atom_site_label_1
_geom_bond_atom_site_label_2
_geom_bond_distance
_geom_bond_site_symmetry_2
Li0 O19 2.012262 1_655
Li0 O0 2.071560 1_555
Li0 O16 2.107677 1_565
Li0 O8 2.120449 1_554
Li0 O14 2.162982 1_554
Li1 O18 2.012890 1_555
Li1 O1 2.071413 1_555
Li1 O17 2.107777 1_465
Li1 O9 2.121540 1_555
Li1 O15 2.163610 1_555
Li2 O17 2.012917 1_455
Li2 O2 2.071911 1_555
Li2 O18 2.108347 1_545
Li2 O10 2.122942 1_556
Li2 O12 2.162062 1_556
Li3 O16 2.012350 1_555
Li3 O3 2.072098 1_555
Li3 O19 2.108247 1_645
Li3 O11 2.121876 1_555
Li3 O13 2.161406 1_555
Mn0 O11 1.956011 1_555
Mn0 O9 1.956827 1_655
Mn0 O0 2.001132 1_555
Mn0 O2 2.003688 1_655
Mn0 O4 2.254819 1_655
Mn0 O6 2.255275 1_555
Mn1 O15 1.918613 1_555
Mn1 O13 1.921682 1_565
Mn1 O0 2.014140 1_555
Mn1 O2 2.015571 1_565
Mn1 O18 2.223032 1_555
Mn1 O16 2.223509 1_565
Mn2 O8 1.954362 1_554
Mn2 O10 1.958274 1_555
Mn2 O3 2.001678 1_555
Mn2 O1 2.003016 1_554
Mn2 O7 2.254861 1_555
Mn2 O5 2.255207 1_554
Mn3 O14 1.919284 1_554
Mn3 O12 1.920849 1_665
Mn3 O1 2.014837 1_654
Mn3 O3 2.014898 1_565
Mn3 O19 2.222065 1_655
Mn3 O17 2.224387 1_564
H0 O3 1.007758 1_555
H0 O4 1.713487 1_655
H1 O2 1.008089 1_555
H1 O5 1.714809 1_555
H2 O1 1.007388 1_555
H2 O6 1.715029 1_455
H3 O0 1.006790 1_555
H3 O7 1.713860 1_555
O4 P0 1.535710 1_555
O5 P1 1.534618 1_555
O6 P2 1.533973 1_555
O7 P3 1.535026 1_555
O8 P2 1.570768 1_555
O9 P3 1.570033 1_555
O10 P0 1.570758 1_555
O11 P1 1.571096 1_555
O12 P0 1.571503 1_555
O13 P1 1.571355 1_555
O14 P2 1.570763 1_555
O15 P3 1.570595 1_555
O16 P0 1.543076 1_555
O17 P1 1.542832 1_555
O18 P2 1.542678 1_555
O19 P3 1.543183 1_555
