# generated using pymatgen
data_Na4MnO4
_symmetry_space_group_name_H-M   'P 1'
_cell_length_a   6.33791902
_cell_length_b   7.58795331
_cell_length_c   11.40636201
_cell_angle_alpha   90.00365575
_cell_angle_beta   90.00147662
_cell_angle_gamma   89.61487267
_symmetry_Int_Tables_number   1
_chemical_formula_structural   Na4MnO4
_chemical_formula_sum   'Na16 Mn4 O16'
_cell_volume   548.54047050
_cell_formula_units_Z   4
loop_
 _symmetry_equiv_pos_site_id
 _symmetry_equiv_pos_as_xyz
  1  'x, y, z'
loop_
 _atom_site_type_symbol
 _atom_site_label
 _atom_site_symmetry_multiplicity
 _atom_site_fract_x
 _atom_site_fract_y
 _atom_site_fract_z
 _atom_site_occupancy
  Na  Na0  1  0.04505800  0.66539000  0.44714500  1
  Na  Na1  1  0.04510900  0.66546300  0.94723000  1
  Na  Na2  1  0.54491600  0.16543300  0.05279800  1
  Na  Na3  1  0.54515600  0.16542000  0.55275500  1
  Na  Na4  1  0.30862500  0.72614100  0.15562800  1
  Na  Na5  1  0.30870500  0.72615900  0.65563300  1
  Na  Na6  1  0.80864700  0.22615400  0.34440500  1
  Na  Na7  1  0.80864400  0.22618400  0.84437700  1
  Na  Na8  1  0.22753900  0.31508000  0.18934200  1
  Na  Na9  1  0.22771400  0.31513400  0.68938900  1
  Na  Na10  1  0.72757400  0.81505000  0.31065100  1
  Na  Na11  1  0.72771900  0.81515900  0.81056400  1
  Na  Na12  1  0.26216400  0.00127100  0.34866900  1
  Na  Na13  1  0.26207100  0.00139100  0.84879800  1
  Na  Na14  1  0.76213700  0.50124200  0.15133000  1
  Na  Na15  1  0.76214800  0.50131500  0.65123100  1
  Mn  Mn0  1  0.98994700  0.99647100  0.59110000  1
  Mn  Mn1  1  0.48989700  0.49656400  0.90886900  1
  Mn  Mn2  1  0.98953400  0.99642300  0.09127000  1
  Mn  Mn3  1  0.48976500  0.49643100  0.40879700  1
  O  O0  1  0.26249200  0.02513800  0.12924000  1
  O  O1  1  0.26286300  0.02522600  0.62923400  1
  O  O2  1  0.76268100  0.52522900  0.37070900  1
  O  O3  1  0.76284800  0.52522300  0.87076800  1
  O  O4  1  0.43453100  0.47625200  0.06336900  1
  O  O5  1  0.43437600  0.47619700  0.56326200  1
  O  O6  1  0.93454300  0.97625800  0.43657800  1
  O  O7  1  0.93413900  0.97617000  0.93686300  1
  O  O8  1  0.43298700  0.26921800  0.36316300  1
  O  O9  1  0.43293800  0.26932300  0.86320300  1
  O  O10  1  0.93286400  0.76916900  0.13688200  1
  O  O11  1  0.93307000  0.76926400  0.63675100  1
  O  O12  1  0.38014400  0.70426100  0.34984500  1
  O  O13  1  0.38042800  0.70440700  0.84981900  1
  O  O14  1  0.87953700  0.20428600  0.15017400  1
  O  O15  1  0.88041800  0.20429100  0.65015500  1
loop_
_geom_bond_atom_site_label_1
_geom_bond_atom_site_label_2
_geom_bond_distance
_geom_bond_site_symmetry_2
Na0 O2 2.262652 1_455
Na0 O11 2.407217 1_455
Na0 O12 2.416118 1_555
Na0 O6 2.459093 1_455
Na1 O3 2.262468 1_455
Na1 O10 2.407752 1_456
Na1 O13 2.418070 1_555
Na1 O7 2.458618 1_455
Na2 O0 2.263486 1_555
Na2 O9 2.407183 1_554
Na2 O14 2.413840 1_555
Na2 O4 2.458497 1_555
Na3 O1 2.262625 1_555
Na3 O8 2.407280 1_555
Na3 O15 2.417556 1_555
Na3 O5 2.458854 1_555
Na4 O12 2.267070 1_555
Na4 O0 2.305340 1_565
Na4 O4 2.306298 1_555
Na4 O10 2.411140 1_455
Na5 O13 2.266913 1_555
Na5 O1 2.305658 1_565
Na5 O5 2.306829 1_555
Na5 O11 2.410565 1_455
Na6 O14 2.266430 1_555
Na6 O2 2.305634 1_555
Na6 O6 2.305964 1_545
Na6 O8 2.410563 1_555
Na7 O15 2.267458 1_555
Na7 O3 2.305366 1_555
Na7 O7 2.307465 1_545
Na7 O9 2.410993 1_555
Na8 O4 2.302884 1_555
Na8 O0 2.313569 1_555
Na8 O8 2.396127 1_555
Na8 O14 2.407470 1_455
Na9 O5 2.302341 1_555
Na9 O1 2.313615 1_555
Na9 O9 2.395237 1_555
Na9 O15 2.403633 1_455
Na10 O6 2.302480 1_555
Na10 O2 2.312715 1_555
Na10 O10 2.395132 1_555
Na10 O12 2.404223 1_555
Na11 O7 2.302339 1_555
Na11 O3 2.314051 1_555
Na11 O11 2.395773 1_555
Na11 O13 2.403444 1_555
Na12 O6 2.314841 1_445
Na12 O8 2.315774 1_555
Na12 O12 2.369770 1_545
Na12 O0 2.509444 1_555
Na13 O9 2.315733 1_555
Na13 O7 2.317520 1_445
Na13 O13 2.370313 1_545
Na13 O1 2.510967 1_555
Na14 O4 2.314940 1_555
Na14 O10 2.315337 1_555
Na14 O14 2.368244 1_555
Na14 O2 2.508919 1_555
Na15 O5 2.316010 1_555
Na15 O11 2.316095 1_555
Na15 O15 2.370432 1_555
Na15 O3 2.510676 1_555
Mn0 O1 1.798266 1_665
Mn0 O6 1.803888 1_555
Mn0 O11 1.838985 1_555
Mn0 O15 1.845944 1_565
Mn1 O3 1.798323 1_555
Mn1 O4 1.803697 1_556
Mn1 O9 1.839314 1_555
Mn1 O13 1.845992 1_555
Mn2 O0 1.798032 1_665
Mn2 O7 1.802621 1_554
Mn2 O10 1.838929 1_555
Mn2 O14 1.846695 1_565
Mn3 O2 1.798209 1_555
Mn3 O5 1.803284 1_555
Mn3 O8 1.838779 1_555
Mn3 O12 1.845857 1_555
