# generated using pymatgen
data_Li3CrBAsO7
_symmetry_space_group_name_H-M   'P 1'
_cell_length_a   5.11877354
_cell_length_b   10.76238265
_cell_length_c   10.75960725
_cell_angle_alpha   105.35306723
_cell_angle_beta   94.21400563
_cell_angle_gamma   85.79650397
_symmetry_Int_Tables_number   1
_chemical_formula_structural   Li3CrBAsO7
_chemical_formula_sum   'Li12 Cr4 B4 As4 O28'
_cell_volume   569.15582393
_cell_formula_units_Z   4
loop_
 _symmetry_equiv_pos_site_id
 _symmetry_equiv_pos_as_xyz
  1  'x, y, z'
loop_
 _atom_site_type_symbol
 _atom_site_label
 _atom_site_symmetry_multiplicity
 _atom_site_fract_x
 _atom_site_fract_y
 _atom_site_fract_z
 _atom_site_occupancy
  Li  Li0  1  0.76157600  0.17175600  0.07830100  1
  Li  Li1  1  0.76156800  0.67176100  0.57829300  1
  Li  Li2  1  0.23846100  0.82828000  0.92174000  1
  Li  Li3  1  0.23841700  0.32828600  0.42172900  1
  Li  Li4  1  0.25232000  0.60794500  0.38242500  1
  Li  Li5  1  0.25230500  0.10791400  0.88244000  1
  Li  Li6  1  0.25231900  0.36754200  0.14194400  1
  Li  Li7  1  0.25226000  0.86754700  0.64195000  1
  Li  Li8  1  0.74773400  0.63247600  0.85812300  1
  Li  Li9  1  0.74773600  0.13247100  0.35811000  1
  Li  Li10  1  0.74763200  0.39206700  0.61759100  1
  Li  Li11  1  0.74770700  0.89213400  0.11760800  1
  Cr  Cr0  1  0.78855800  0.03114100  0.71888200  1
  Cr  Cr1  1  0.21151400  0.96885400  0.28116300  1
  Cr  Cr2  1  0.78861000  0.53102800  0.21887200  1
  Cr  Cr3  1  0.21136700  0.46890700  0.78095800  1
  B  B0  1  0.70324800  0.39365100  0.35636200  1
  B  B1  1  0.70329900  0.89364500  0.85637600  1
  B  B2  1  0.29670500  0.60640200  0.64362100  1
  B  B3  1  0.29669100  0.10635000  0.14368200  1
  As  As0  1  0.72711800  0.33615200  0.91381900  1
  As  As1  1  0.72711900  0.83612000  0.41384200  1
  As  As2  1  0.27293400  0.66383300  0.08613700  1
  As  As3  1  0.27289000  0.16384600  0.58617100  1
  O  O0  1  0.36037700  0.18139300  0.06860600  1
  O  O1  1  0.36037100  0.68142000  0.56859800  1
  O  O2  1  0.63960500  0.81860400  0.93145700  1
  O  O3  1  0.63955700  0.31861500  0.43146000  1
  O  O4  1  0.95850700  0.41808900  0.33194500  1
  O  O5  1  0.95861000  0.91809100  0.83197700  1
  O  O6  1  0.04133000  0.58197900  0.66796000  1
  O  O7  1  0.04126900  0.08190400  0.16802500  1
  O  O8  1  0.50991000  0.45784500  0.29210800  1
  O  O9  1  0.50988800  0.95784300  0.79209500  1
  O  O10  1  0.49022700  0.54220000  0.70789900  1
  O  O11  1  0.49016400  0.04216000  0.20800200  1
  O  O12  1  0.39267400  0.35860300  0.89163800  1
  O  O13  1  0.39263900  0.85852100  0.39172700  1
  O  O14  1  0.60731200  0.64142600  0.10825000  1
  O  O15  1  0.60726000  0.14143400  0.60830800  1
  O  O16  1  0.13981800  0.57594600  0.17413700  1
  O  O17  1  0.13976100  0.07595800  0.67417400  1
  O  O18  1  0.86032500  0.42406100  0.82582800  1
  O  O19  1  0.86023500  0.92400200  0.32583200  1
  O  O20  1  0.82508400  0.17441400  0.88012900  1
  O  O21  1  0.82507000  0.67437800  0.38008300  1
  O  O22  1  0.82543200  0.36973900  0.07551900  1
  O  O23  1  0.82550400  0.86980100  0.57552900  1
  O  O24  1  0.17452900  0.63016400  0.92440300  1
  O  O25  1  0.17451300  0.13015300  0.42443700  1
  O  O26  1  0.17501800  0.82558500  0.11990900  1
  O  O27  1  0.17492500  0.32556300  0.61982300  1
loop_
_geom_bond_atom_site_label_1
_geom_bond_atom_site_label_2
_geom_bond_distance
_geom_bond_site_symmetry_2
Li0 O7 2.001276 1_655
Li0 O0 2.045024 1_555
Li0 O22 2.187516 1_555
Li0 O20 2.188271 1_554
Li1 O6 2.000741 1_655
Li1 O1 2.045012 1_555
Li1 O23 2.188158 1_555
Li1 O21 2.188545 1_555
Li2 O5 2.001785 1_455
Li2 O2 2.044738 1_555
Li2 O26 2.188278 1_556
Li2 O24 2.188656 1_555
Li3 O4 2.002057 1_455
Li3 O3 2.044716 1_555
Li3 O27 2.187621 1_555
Li3 O25 2.188942 1_555
Li4 O1 2.001580 1_555
Li4 O8 2.082620 1_555
Li4 O16 2.214375 1_555
Li4 O21 2.250998 1_455
Li4 O4 2.544557 1_455
Li5 O0 2.001545 1_556
Li5 O9 2.082502 1_545
Li5 O17 2.214235 1_555
Li5 O20 2.251029 1_455
Li5 O5 2.543901 1_445
Li6 O0 2.001704 1_555
Li6 O8 2.082519 1_555
Li6 O16 2.216050 1_555
Li6 O22 2.249011 1_455
Li6 O4 2.545613 1_455
Li7 O1 2.001582 1_555
Li7 O9 2.082487 1_555
Li7 O17 2.216088 1_565
Li7 O23 2.248379 1_455
Li7 O5 2.545309 1_455
Li8 O2 2.001584 1_555
Li8 O10 2.082558 1_555
Li8 O18 2.216152 1_555
Li8 O24 2.248205 1_655
Li8 O6 2.546312 1_655
Li9 O3 2.001820 1_555
Li9 O11 2.082121 1_555
Li9 O19 2.216629 1_545
Li9 O25 2.248245 1_655
Li9 O7 2.545412 1_655
Li10 O3 2.001176 1_555
Li10 O10 2.082227 1_555
Li10 O18 2.214051 1_555
Li10 O27 2.251369 1_655
Li10 O6 2.544711 1_655
Li11 O2 2.001522 1_554
Li11 O11 2.082246 1_565
Li11 O19 2.213878 1_555
Li11 O26 2.251595 1_655
Li11 O7 2.543040 1_665
Cr0 O9 1.984127 1_545
Cr0 O20 2.000158 1_555
Cr0 O23 2.001606 1_545
Cr0 O17 2.018155 1_655
Cr0 O15 2.027256 1_555
Cr0 O5 2.047397 1_545
Cr1 O11 1.983785 1_565
Cr1 O26 2.000171 1_555
Cr1 O25 2.000875 1_565
Cr1 O19 2.018500 1_455
Cr1 O13 2.027156 1_555
Cr1 O7 2.048064 1_565
Cr2 O8 1.983697 1_555
Cr2 O21 2.000329 1_555
Cr2 O22 2.001190 1_555
Cr2 O16 2.018685 1_655
Cr2 O14 2.028421 1_555
Cr2 O4 2.046098 1_555
Cr3 O10 1.983934 1_555
Cr3 O27 1.999749 1_555
Cr3 O24 2.001514 1_555
Cr3 O18 2.018148 1_455
Cr3 O12 2.028165 1_555
Cr3 O6 2.046790 1_555
B0 O3 1.354329 1_555
B0 O4 1.408137 1_555
B0 O8 1.409550 1_555
B1 O2 1.354234 1_555
B1 O5 1.408358 1_555
B1 O9 1.409975 1_555
B2 O1 1.353514 1_555
B2 O6 1.408400 1_555
B2 O10 1.410339 1_555
B3 O0 1.354196 1_555
B3 O7 1.408718 1_555
B3 O11 1.410365 1_555
As0 O18 1.708844 1_555
As0 O12 1.719285 1_555
As0 O22 1.725077 1_556
As0 O20 1.725538 1_555
As1 O19 1.708557 1_555
As1 O13 1.719336 1_555
As1 O23 1.724995 1_555
As1 O21 1.725534 1_555
As2 O16 1.708518 1_555
As2 O14 1.718831 1_555
As2 O24 1.725495 1_554
As2 O26 1.725587 1_555
As3 O17 1.708582 1_555
As3 O15 1.718823 1_555
As3 O27 1.725340 1_555
As3 O25 1.725452 1_555
