# generated using pymatgen
data_BaP4O11
_symmetry_space_group_name_H-M   'P 1'
_cell_length_a   12.84330675
_cell_length_b   9.19053806
_cell_length_c   12.91938846
_cell_angle_alpha   47.42488962
_cell_angle_beta   90.00000000
_cell_angle_gamma   90.00000000
_symmetry_Int_Tables_number   1
_chemical_formula_structural   BaP4O11
_chemical_formula_sum   'Ba4 P16 O44'
_cell_volume   1122.97026189
_cell_formula_units_Z   4
loop_
 _symmetry_equiv_pos_site_id
 _symmetry_equiv_pos_as_xyz
  1  'x, y, z'
loop_
 _atom_site_type_symbol
 _atom_site_label
 _atom_site_symmetry_multiplicity
 _atom_site_fract_x
 _atom_site_fract_y
 _atom_site_fract_z
 _atom_site_occupancy
  Ba  Ba0  1  0.01750709  0.03919942  0.23117086  1
  Ba  Ba1  1  0.51750709  0.96080058  0.26882914  1
  Ba  Ba2  1  0.48249291  0.03919942  0.73117086  1
  Ba  Ba3  1  0.98249291  0.96080058  0.76882914  1
  P  P0  1  0.28826904  0.33968542  0.07732663  1
  P  P1  1  0.32904197  0.60331543  0.77848380  1
  P  P2  1  0.00391927  0.48110021  0.81485785  1
  P  P3  1  0.66177568  0.37316921  0.89444886  1
  P  P4  1  0.16177568  0.62683079  0.60555114  1
  P  P5  1  0.50391927  0.51889979  0.68514215  1
  P  P6  1  0.78826904  0.66031458  0.42267337  1
  P  P7  1  0.82904197  0.39668457  0.72151620  1
  P  P8  1  0.17095803  0.60331543  0.27848380  1
  P  P9  1  0.21173096  0.33968542  0.57732663  1
  P  P10  1  0.49608073  0.48110021  0.31485785  1
  P  P11  1  0.83822432  0.37316921  0.39444886  1
  P  P12  1  0.33822432  0.62683079  0.10555114  1
  P  P13  1  0.99608073  0.51889979  0.18514215  1
  P  P14  1  0.67095803  0.39668457  0.22151620  1
  P  P15  1  0.71173096  0.66031458  0.92267337  1
  O  O0  1  0.62079821  0.23709675  0.24209943  1
  O  O1  1  0.02780762  0.65742413  0.79206977  1
  O  O2  1  0.72877752  0.48207122  0.92477191  1
  O  O3  1  0.39883443  0.28366465  0.10260622  1
  O  O4  1  0.20380384  0.19734387  0.16144904  1
  O  O5  1  0.10583539  0.80190710  0.48774476  1
  O  O6  1  0.26069007  0.45909519  0.91358617  1
  O  O7  1  0.24729528  0.68740952  0.65864756  1
  O  O8  1  0.59462977  0.54058182  0.76326826  1
  O  O9  1  0.90280021  0.53720672  0.71639495  1
  O  O10  1  0.98737338  0.28254575  0.95354118  1
  O  O11  1  0.48737338  0.71745425  0.54645882  1
  O  O12  1  0.40280021  0.46279328  0.78360505  1
  O  O13  1  0.60583539  0.19809290  0.01225524  1
  O  O14  1  0.70380384  0.80265613  0.33855096  1
  O  O15  1  0.09462977  0.45941818  0.73673174  1
  O  O16  1  0.89883443  0.71633535  0.39739378  1
  O  O17  1  0.74729528  0.31259048  0.84135244  1
  O  O18  1  0.76069007  0.54090481  0.58641383  1
  O  O19  1  0.22877752  0.51792878  0.57522809  1
  O  O20  1  0.12079821  0.76290325  0.25790057  1
  O  O21  1  0.47219238  0.65742413  0.29206977  1
  O  O22  1  0.52780762  0.34257587  0.70793023  1
  O  O23  1  0.87920179  0.23709675  0.74209943  1
  O  O24  1  0.77122248  0.48207122  0.42477191  1
  O  O25  1  0.23930993  0.45909519  0.41358617  1
  O  O26  1  0.25270472  0.68740952  0.15864756  1
  O  O27  1  0.10116557  0.28366465  0.60260622  1
  O  O28  1  0.90537023  0.54058182  0.26326826  1
  O  O29  1  0.29619616  0.19734387  0.66144904  1
  O  O30  1  0.39416461  0.80190710  0.98774476  1
  O  O31  1  0.59719979  0.53720672  0.21639495  1
  O  O32  1  0.51262662  0.28254575  0.45354118  1
  O  O33  1  0.01262662  0.71745425  0.04645882  1
  O  O34  1  0.09719979  0.46279328  0.28360505  1
  O  O35  1  0.40537023  0.45941818  0.23673174  1
  O  O36  1  0.75270472  0.31259048  0.34135244  1
  O  O37  1  0.73930993  0.54090481  0.08641383  1
  O  O38  1  0.89416461  0.19809290  0.51225524  1
  O  O39  1  0.79619616  0.80265613  0.83855096  1
  O  O40  1  0.60116557  0.71633535  0.89739378  1
  O  O41  1  0.27122248  0.51792878  0.07522809  1
  O  O42  1  0.97219238  0.34257587  0.20793023  1
  O  O43  1  0.37920179  0.76290325  0.75790057  1
loop_
_geom_bond_atom_site_label_1
_geom_bond_atom_site_label_2
_geom_bond_distance
_geom_bond_site_symmetry_2
Ba0 O4 2.622442 1_555
Ba0 O42 2.658967 1_455
Ba0 O16 2.667814 1_445
Ba0 O20 2.672203 1_545
Ba0 O10 2.676262 1_454
Ba0 O5 2.692414 1_545
Ba1 O14 2.622442 1_555
Ba1 O21 2.658967 1_555
Ba1 O3 2.667814 1_565
Ba1 O0 2.672203 1_565
Ba1 O11 2.676262 1_555
Ba1 O13 2.692414 1_565
Ba2 O29 2.622442 1_555
Ba2 O22 2.658967 1_555
Ba2 O40 2.667814 1_545
Ba2 O43 2.672203 1_545
Ba2 O32 2.676262 1_555
Ba2 O30 2.692414 1_545
Ba3 O39 2.622442 1_555
Ba3 O1 2.658967 1_655
Ba3 O27 2.667814 1_665
Ba3 O23 2.672203 1_565
Ba3 O33 2.676262 1_656
Ba3 O38 2.692414 1_565
O0 P14 1.452302 1_555
O1 P2 1.470138 1_555
O2 P3 1.557646 1_555
O2 P15 1.634660 1_555
O3 P0 1.469929 1_555
O4 P0 1.464769 1_555
O5 P4 1.451880 1_555
O6 P1 1.563205 1_555
O6 P0 1.632036 1_556
O7 P1 1.574002 1_555
O7 P4 1.582305 1_555
O8 P3 1.566812 1_555
O8 P5 1.639485 1_555
O9 P7 1.566537 1_555
O9 P2 1.638030 1_655
O10 P2 1.470130 1_655
O11 P5 1.470130 1_555
O12 P1 1.566537 1_555
O12 P5 1.638030 1_555
O13 P3 1.451880 1_554
O14 P6 1.464769 1_555
O15 P4 1.566812 1_555
O15 P2 1.639485 1_555
O16 P6 1.469929 1_555
O17 P7 1.574002 1_555
O17 P3 1.582305 1_555
O18 P7 1.563205 1_555
O18 P6 1.632036 1_555
O19 P4 1.557646 1_555
O19 P9 1.634660 1_555
O20 P8 1.452302 1_555
O21 P10 1.470138 1_555
O22 P5 1.470138 1_555
O23 P7 1.452302 1_555
O24 P11 1.557646 1_555
O24 P6 1.634660 1_555
O25 P8 1.563205 1_555
O25 P9 1.632036 1_555
O26 P8 1.574002 1_555
O26 P12 1.582305 1_555
O27 P9 1.469929 1_555
O28 P11 1.566812 1_555
O28 P13 1.639485 1_555
O29 P9 1.464769 1_555
O30 P12 1.451880 1_556
O31 P14 1.566537 1_555
O31 P10 1.638030 1_555
O32 P10 1.470130 1_555
O33 P13 1.470130 1_455
O34 P8 1.566537 1_555
O34 P13 1.638030 1_455
O35 P12 1.566812 1_555
O35 P10 1.639485 1_555
O36 P14 1.574002 1_555
O36 P11 1.582305 1_555
O37 P14 1.563205 1_555
O37 P15 1.632036 1_554
O38 P11 1.451880 1_555
O39 P15 1.464769 1_555
O40 P15 1.469929 1_555
O41 P12 1.557646 1_555
O41 P0 1.634660 1_555
O42 P13 1.470138 1_555
O43 P1 1.452302 1_555
