# generated using pymatgen
data_Li12Mn3FeP4(CO7)4
_symmetry_space_group_name_H-M   'P 1'
_cell_length_a   6.59421700
_cell_length_b   8.53562100
_cell_length_c   10.01150931
_cell_angle_alpha   85.46800626
_cell_angle_beta   90.00000000
_cell_angle_gamma   90.00000000
_symmetry_Int_Tables_number   1
_chemical_formula_structural   Li12Mn3FeP4(CO7)4
_chemical_formula_sum   'Li12 Mn3 Fe1 P4 C4 O28'
_cell_volume   561.74330744
_cell_formula_units_Z   1
loop_
 _symmetry_equiv_pos_site_id
 _symmetry_equiv_pos_as_xyz
  1  'x, y, z'
loop_
 _atom_site_type_symbol
 _atom_site_label
 _atom_site_symmetry_multiplicity
 _atom_site_fract_x
 _atom_site_fract_y
 _atom_site_fract_z
 _atom_site_occupancy
  Li  Li0  1  0.00000000  0.90930800  0.62123400  1
  Li  Li1  1  0.00000000  0.90875600  0.12109400  1
  Li  Li2  1  0.22305600  0.72681700  0.87705900  1
  Li  Li3  1  0.77694400  0.72681700  0.87705900  1
  Li  Li4  1  0.22276500  0.72653300  0.37695800  1
  Li  Li5  1  0.77723500  0.72653300  0.37695800  1
  Li  Li6  1  0.72428000  0.27312200  0.62321800  1
  Li  Li7  1  0.27572000  0.27312200  0.62321800  1
  Li  Li8  1  0.72406500  0.27328300  0.12310600  1
  Li  Li9  1  0.27593500  0.27328300  0.12310600  1
  Li  Li10  1  0.50000000  0.09090100  0.87875500  1
  Li  Li11  1  0.50000000  0.09012700  0.37854200  1
  Mn  Mn0  1  0.50000000  0.65942000  0.61045800  1
  Mn  Mn1  1  0.50000000  0.65956000  0.10998500  1
  Mn  Mn2  1  0.00000000  0.34079900  0.88987700  1
  Fe  Fe0  1  0.00000000  0.33652300  0.39328700  1
  P  P0  1  0.00000000  0.59030800  0.63965100  1
  P  P1  1  0.00000000  0.58867500  0.14073100  1
  P  P2  1  0.50000000  0.41004100  0.85988300  1
  P  P3  1  0.50000000  0.41064800  0.35939400  1
  C  C0  1  0.50000000  0.96704100  0.64777700  1
  C  C1  1  0.50000000  0.96697900  0.14776900  1
  C  C2  1  0.00000000  0.03283600  0.85230300  1
  C  C3  1  0.00000000  0.03399100  0.35184800  1
  O  O0  1  0.50000000  0.92998100  0.52471500  1
  O  O1  1  0.00000000  0.88714600  0.82298200  1
  O  O2  1  0.50000000  0.92997000  0.02483300  1
  O  O3  1  0.50000000  0.85576300  0.74473300  1
  O  O4  1  0.00000000  0.88837700  0.32296800  1
  O  O5  1  0.50000000  0.85567100  0.24484000  1
  O  O6  1  0.18428400  0.69002700  0.58647200  1
  O  O7  1  0.81571600  0.69002700  0.58647200  1
  O  O8  1  0.18393300  0.68935700  0.08731200  1
  O  O9  1  0.81606700  0.68935700  0.08731200  1
  O  O10  1  0.50000000  0.57938100  0.90580200  1
  O  O11  1  0.00000000  0.57586200  0.79650400  1
  O  O12  1  0.50000000  0.57917100  0.40604400  1
  O  O13  1  0.00000000  0.57298300  0.29785900  1
  O  O14  1  0.50000000  0.42397900  0.70291200  1
  O  O15  1  0.00000000  0.42127200  0.59292100  1
  O  O16  1  0.50000000  0.42376000  0.20292700  1
  O  O17  1  0.00000000  0.42082700  0.09231200  1
  O  O18  1  0.31588500  0.31037500  0.91335400  1
  O  O19  1  0.68411500  0.31037500  0.91335400  1
  O  O20  1  0.68612700  0.31132400  0.41272500  1
  O  O21  1  0.31387300  0.31132400  0.41272500  1
  O  O22  1  0.00000000  0.14436600  0.75519000  1
  O  O23  1  0.50000000  0.11299700  0.67684300  1
  O  O24  1  0.00000000  0.14615800  0.25532500  1
  O  O25  1  0.00000000  0.06997700  0.97527000  1
  O  O26  1  0.50000000  0.11291000  0.17711100  1
  O  O27  1  0.00000000  0.07186200  0.47491400  1
loop_
_geom_bond_atom_site_label_1
_geom_bond_atom_site_label_2
_geom_bond_distance
_geom_bond_site_symmetry_2
Li0 O27 1.936449 1_565
Li0 O1 2.013704 1_555
Li0 O7 2.281239 1_455
Li0 O6 2.281239 1_555
Li0 O22 2.499856 1_565
Li1 O25 1.925508 1_564
Li1 O4 2.014795 1_555
Li1 O8 2.278732 1_555
Li1 O9 2.278732 1_455
Li1 O24 2.518428 1_565
Li2 O1 2.052394 1_555
Li2 O8 2.119727 1_556
Li2 O11 2.153678 1_555
Li2 O10 2.223602 1_555
Li2 O3 2.463967 1_555
Li3 O1 2.052394 1_655
Li3 O9 2.119727 1_556
Li3 O11 2.153678 1_655
Li3 O10 2.223602 1_555
Li3 O3 2.463967 1_555
Li4 O4 2.059219 1_555
Li4 O6 2.111378 1_555
Li4 O13 2.160269 1_555
Li4 O12 2.225121 1_555
Li4 O5 2.465007 1_555
Li5 O4 2.059219 1_655
Li5 O7 2.111378 1_555
Li5 O13 2.160269 1_655
Li5 O12 2.225121 1_555
Li5 O5 2.465007 1_555
Li6 O23 2.056116 1_555
Li6 O20 2.121784 1_555
Li6 O14 2.155062 1_555
Li6 O15 2.221751 1_655
Li6 O22 2.455550 1_655
Li7 O23 2.056116 1_555
Li7 O21 2.121784 1_555
Li7 O14 2.155062 1_555
Li7 O15 2.221751 1_555
Li7 O22 2.455550 1_555
Li8 O26 2.057258 1_555
Li8 O19 2.115253 1_554
Li8 O16 2.152589 1_555
Li8 O17 2.220491 1_655
Li8 O24 2.452244 1_655
Li9 O26 2.057258 1_555
Li9 O18 2.115253 1_554
Li9 O16 2.152589 1_555
Li9 O17 2.220491 1_555
Li9 O24 2.452244 1_555
Li10 O2 1.925676 1_546
Li10 O23 2.015330 1_555
Li10 O19 2.281663 1_555
Li10 O18 2.281663 1_555
Li10 O3 2.500829 1_545
Li11 O0 1.921975 1_545
Li11 O26 2.010630 1_555
Li11 O20 2.300085 1_555
Li11 O21 2.300085 1_555
Li11 O5 2.493989 1_545
Mn0 O6 2.109576 1_555
Mn0 O7 2.109576 1_555
Mn0 O14 2.145092 1_555
Mn0 O12 2.208812 1_555
Mn0 O3 2.229761 1_555
Mn0 O0 2.399364 1_555
Mn1 O9 2.109748 1_555
Mn1 O8 2.109748 1_555
Mn1 O16 2.149607 1_555
Mn1 O10 2.206384 1_554
Mn1 O5 2.232031 1_555
Mn1 O2 2.396499 1_555
Mn2 O18 2.109973 1_555
Mn2 O19 2.109973 1_455
Mn2 O11 2.145491 1_555
Mn2 O17 2.189251 1_556
Mn2 O22 2.233108 1_555
Mn2 O25 2.400462 1_555
Fe0 O21 2.088389 1_555
Fe0 O20 2.088389 1_455
Fe0 O13 2.163721 1_555
Fe0 O15 2.178605 1_555
Fe0 O24 2.214193 1_555
Fe0 O27 2.340807 1_555
C0 O0 1.295981 1_555
C0 O23 1.301556 1_565
C0 O3 1.303335 1_555
C1 O2 1.294619 1_555
C1 O26 1.302178 1_565
C1 O5 1.304298 1_555
C2 O25 1.295280 1_555
C2 O1 1.300110 1_545
C2 O22 1.305856 1_555
C3 O4 1.298154 1_545
C3 O27 1.298246 1_555
C3 O24 1.305469 1_555
O6 P0 1.553399 1_555
O7 P0 1.553399 1_655
O8 P1 1.556611 1_555
O9 P1 1.556611 1_655
O10 P2 1.550998 1_555
O11 P0 1.565426 1_555
O12 P3 1.547070 1_555
O13 P1 1.568200 1_555
O14 P2 1.566612 1_555
O15 P0 1.551546 1_555
O16 P3 1.561618 1_555
O17 P1 1.548329 1_555
O18 P2 1.553171 1_555
O19 P2 1.553171 1_555
O20 P3 1.561637 1_555
O21 P3 1.561637 1_555
