# generated using pymatgen
data_VFe3Co2(PO4)6
_symmetry_space_group_name_H-M   'P 1'
_cell_length_a   8.43713746
_cell_length_b   8.43713746
_cell_length_c   8.43713734
_cell_angle_alpha   61.48267561
_cell_angle_beta   61.48267561
_cell_angle_gamma   61.48267911
_symmetry_Int_Tables_number   1
_chemical_formula_structural   VFe3Co2(PO4)6
_chemical_formula_sum   'V1 Fe3 Co2 P6 O24'
_cell_volume   438.82468960
_cell_formula_units_Z   1
loop_
 _symmetry_equiv_pos_site_id
 _symmetry_equiv_pos_as_xyz
  1  'x, y, z'
loop_
 _atom_site_type_symbol
 _atom_site_label
 _atom_site_symmetry_multiplicity
 _atom_site_fract_x
 _atom_site_fract_y
 _atom_site_fract_z
 _atom_site_occupancy
  V  V0  1  0.85648800  0.85648800  0.85648800  1
  Fe  Fe0  1  0.35565400  0.35565400  0.35565400  1
  Fe  Fe1  1  0.14468600  0.14468600  0.14468600  1
  Fe  Fe2  1  0.64423800  0.64423800  0.64423800  1
  Co  Co0  1  0.00135300  0.00135300  0.00135300  1
  Co  Co1  1  0.50103200  0.50103200  0.50103200  1
  P  P0  1  0.45645500  0.74834700  0.04466600  1
  P  P1  1  0.74834700  0.04466600  0.45645500  1
  P  P2  1  0.04466600  0.45645500  0.74834700  1
  P  P3  1  0.95409700  0.54548900  0.24831100  1
  P  P4  1  0.24831100  0.95409700  0.54548900  1
  P  P5  1  0.54548900  0.24831100  0.95409700  1
  O  O0  1  0.67490000  0.89147500  0.49885400  1
  O  O1  1  0.89147500  0.49885400  0.67490000  1
  O  O2  1  0.49885400  0.67490000  0.89147500  1
  O  O3  1  0.25718500  0.90727600  0.05884200  1
  O  O4  1  0.61660100  0.82176300  0.99500200  1
  O  O5  1  0.44912400  0.59239000  0.24490500  1
  O  O6  1  0.90727600  0.05884200  0.25718500  1
  O  O7  1  0.59239000  0.24490500  0.44912400  1
  O  O8  1  0.99636700  0.39072600  0.17681600  1
  O  O9  1  0.24490500  0.44912400  0.59239000  1
  O  O10  1  0.93569800  0.74756100  0.08783600  1
  O  O11  1  0.17681600  0.99636700  0.39072600  1
  O  O12  1  0.82176300  0.99500200  0.61660100  1
  O  O13  1  0.05884200  0.25718500  0.90727600  1
  O  O14  1  0.75319800  0.56197000  0.40558900  1
  O  O15  1  0.99500200  0.61660100  0.82176300  1
  O  O16  1  0.40558900  0.75319800  0.56197000  1
  O  O17  1  0.08783600  0.93569800  0.74756100  1
  O  O18  1  0.56197000  0.40558900  0.75319800  1
  O  O19  1  0.39072600  0.17681600  0.99636700  1
  O  O20  1  0.74756100  0.08783600  0.93569800  1
  O  O21  1  0.51079300  0.31157300  0.11274000  1
  O  O22  1  0.11274000  0.51079300  0.31157300  1
  O  O23  1  0.31157300  0.11274000  0.51079300  1
loop_
_geom_bond_atom_site_label_1
_geom_bond_atom_site_label_2
_geom_bond_distance
_geom_bond_site_symmetry_2
Fe0 O23 1.937404 1_555
Fe0 O21 1.937404 1_555
Fe0 O22 1.937404 1_555
Fe0 O5 2.121998 1_555
Fe0 O9 2.121998 1_555
Fe0 O7 2.121998 1_555
Fe1 O19 1.918773 1_554
Fe1 O11 1.918773 1_545
Fe1 O8 1.918773 1_455
Fe1 O6 2.085953 1_455
Fe1 O13 2.085953 1_554
Fe1 O3 2.085953 1_545
Fe2 O2 1.921435 1_555
Fe2 O0 1.921435 1_555
Fe2 O1 1.921435 1_555
Fe2 O18 2.083000 1_555
Fe2 O14 2.083000 1_555
Fe2 O16 2.083000 1_555
Co0 O13 2.126151 1_554
Co0 O6 2.126151 1_455
Co0 O3 2.126151 1_545
Co0 O10 2.163123 1_445
Co0 O17 2.163123 1_544
Co0 O20 2.163123 1_454
Co1 O9 2.108705 1_555
Co1 O5 2.108705 1_555
Co1 O7 2.108705 1_555
Co1 O14 2.110109 1_555
Co1 O18 2.110109 1_555
Co1 O16 2.110109 1_555
O0 P1 1.514640 1_565
O1 P2 1.514640 1_655
O2 P0 1.514640 1_556
O3 P0 1.564447 1_555
O4 P0 1.547788 1_556
O4 V0 1.878500 1_555
O5 P0 1.563567 1_555
O6 P1 1.564447 1_555
O7 P1 1.563567 1_555
O8 P3 1.515939 1_555
O9 P2 1.563567 1_555
O10 P3 1.583615 1_555
O10 V0 2.011830 1_554
O11 P4 1.515939 1_555
O12 P1 1.547788 1_565
O12 V0 1.878500 1_555
O13 P2 1.564447 1_555
O14 P3 1.567392 1_555
O15 P2 1.547788 1_655
O15 V0 1.878500 1_555
O16 P4 1.567392 1_555
O17 P4 1.583615 1_555
O17 V0 2.011830 1_455
O18 P5 1.567392 1_555
O19 P5 1.515939 1_555
O20 P5 1.583615 1_555
O20 V0 2.011830 1_545
O21 P5 1.523478 1_554
O22 P3 1.523478 1_455
O23 P4 1.523478 1_545
