# generated using pymatgen
data_Be3Zn2(NF6)2
_symmetry_space_group_name_H-M   'P 1'
_cell_length_a   10.01384500
_cell_length_b   10.01384500
_cell_length_c   10.01384500
_cell_angle_alpha   90.00000000
_cell_angle_beta   90.00000000
_cell_angle_gamma   90.00000000
_symmetry_Int_Tables_number   1
_chemical_formula_structural   Be3Zn2(NF6)2
_chemical_formula_sum   'Be12 Zn8 N8 F48'
_cell_volume   1004.15925317
_cell_formula_units_Z   4
loop_
 _symmetry_equiv_pos_site_id
 _symmetry_equiv_pos_as_xyz
  1  'x, y, z'
loop_
 _atom_site_type_symbol
 _atom_site_label
 _atom_site_symmetry_multiplicity
 _atom_site_fract_x
 _atom_site_fract_y
 _atom_site_fract_z
 _atom_site_occupancy
  Be  Be0  1  0.23322100  0.37669400  0.96130500  1
  Be  Be1  1  0.03869500  0.73322100  0.12330600  1
  Be  Be2  1  0.87669400  0.53869500  0.76677900  1
  Be  Be3  1  0.73322100  0.12330600  0.03869500  1
  Be  Be4  1  0.53869500  0.76677900  0.87669400  1
  Be  Be5  1  0.37669400  0.96130500  0.23322100  1
  Be  Be6  1  0.76677900  0.87669400  0.53869500  1
  Be  Be7  1  0.96130500  0.23322100  0.37669400  1
  Be  Be8  1  0.12330600  0.03869500  0.73322100  1
  Be  Be9  1  0.26677900  0.62330600  0.46130500  1
  Be  Be10  1  0.46130500  0.26677900  0.62330600  1
  Be  Be11  1  0.62330600  0.46130500  0.26677900  1
  Zn  Zn0  1  0.91519900  0.41519900  0.08480100  1
  Zn  Zn1  1  0.41519900  0.08480100  0.91519900  1
  Zn  Zn2  1  0.08480100  0.91519900  0.41519900  1
  Zn  Zn3  1  0.58480100  0.58480100  0.58480100  1
  Zn  Zn4  1  0.65007400  0.15007400  0.34992600  1
  Zn  Zn5  1  0.15007400  0.34992600  0.65007400  1
  Zn  Zn6  1  0.34992600  0.65007400  0.15007400  1
  Zn  Zn7  1  0.84992600  0.84992600  0.84992600  1
  N  N0  1  0.42441800  0.92441800  0.57558200  1
  N  N1  1  0.92441800  0.57558200  0.42441800  1
  N  N2  1  0.57558200  0.42441800  0.92441800  1
  N  N3  1  0.07558200  0.07558200  0.07558200  1
  N  N4  1  0.21323200  0.71323200  0.78676800  1
  N  N5  1  0.71323200  0.78676800  0.21323200  1
  N  N6  1  0.78676800  0.21323200  0.71323200  1
  N  N7  1  0.28676800  0.28676800  0.28676800  1
  F  F0  1  0.08386300  0.35254500  0.99720600  1
  F  F1  1  0.00279400  0.58386300  0.14745500  1
  F  F2  1  0.85254500  0.50279400  0.91613700  1
  F  F3  1  0.58386300  0.14745500  0.00279400  1
  F  F4  1  0.50279400  0.91613700  0.85254500  1
  F  F5  1  0.35254500  0.99720600  0.08386300  1
  F  F6  1  0.91613700  0.85254500  0.50279400  1
  F  F7  1  0.99720600  0.08386300  0.35254500  1
  F  F8  1  0.14745500  0.00279400  0.58386300  1
  F  F9  1  0.41613700  0.64745500  0.49720600  1
  F  F10  1  0.49720600  0.41613700  0.64745500  1
  F  F11  1  0.64745500  0.49720600  0.41613700  1
  F  F12  1  0.31140900  0.24322100  0.98476500  1
  F  F13  1  0.01523500  0.81140900  0.25677900  1
  F  F14  1  0.74322100  0.51523500  0.68859100  1
  F  F15  1  0.81140900  0.25677900  0.01523500  1
  F  F16  1  0.51523500  0.68859100  0.74322100  1
  F  F17  1  0.24322100  0.98476500  0.31140900  1
  F  F18  1  0.68859100  0.74322100  0.51523500  1
  F  F19  1  0.98476500  0.31140900  0.24322100  1
  F  F20  1  0.25677900  0.01523500  0.81140900  1
  F  F21  1  0.18859100  0.75677900  0.48476500  1
  F  F22  1  0.48476500  0.18859100  0.75677900  1
  F  F23  1  0.75677900  0.48476500  0.18859100  1
  F  F24  1  0.24340700  0.42150000  0.81133100  1
  F  F25  1  0.18866900  0.74340700  0.07850000  1
  F  F26  1  0.92150000  0.68866900  0.75659300  1
  F  F27  1  0.74340700  0.07850000  0.18866900  1
  F  F28  1  0.68866900  0.75659300  0.92150000  1
  F  F29  1  0.42150000  0.81133100  0.24340700  1
  F  F30  1  0.75659300  0.92150000  0.68866900  1
  F  F31  1  0.81133100  0.24340700  0.42150000  1
  F  F32  1  0.07850000  0.18866900  0.74340700  1
  F  F33  1  0.25659300  0.57850000  0.31133100  1
  F  F34  1  0.31133100  0.25659300  0.57850000  1
  F  F35  1  0.57850000  0.31133100  0.25659300  1
  F  F36  1  0.30225900  0.48295600  0.04925700  1
  F  F37  1  0.95074300  0.80225900  0.01704400  1
  F  F38  1  0.98295600  0.45074300  0.69774100  1
  F  F39  1  0.80225900  0.01704400  0.95074300  1
  F  F40  1  0.45074300  0.69774100  0.98295600  1
  F  F41  1  0.48295600  0.04925700  0.30225900  1
  F  F42  1  0.69774100  0.98295600  0.45074300  1
  F  F43  1  0.04925700  0.30225900  0.48295600  1
  F  F44  1  0.01704400  0.95074300  0.80225900  1
  F  F45  1  0.19774100  0.51704400  0.54925700  1
  F  F46  1  0.54925700  0.19774100  0.51704400  1
  F  F47  1  0.51704400  0.54925700  0.19774100  1
loop_
_geom_bond_atom_site_label_1
_geom_bond_atom_site_label_2
_geom_bond_distance
_geom_bond_site_symmetry_2
Be0 F36 1.544647 1_556
Be0 F0 1.557141 1_555
Be0 F12 1.566736 1_555
Be0 F24 1.570723 1_555
Be1 F37 1.544647 1_455
Be1 F1 1.557141 1_555
Be1 F13 1.566736 1_555
Be1 F25 1.570723 1_555
Be2 F38 1.544647 1_555
Be2 F2 1.557141 1_555
Be2 F14 1.566736 1_555
Be2 F26 1.570723 1_555
Be3 F39 1.544647 1_554
Be3 F3 1.557141 1_555
Be3 F15 1.566736 1_555
Be3 F27 1.570723 1_555
Be4 F40 1.544647 1_555
Be4 F4 1.557141 1_555
Be4 F16 1.566736 1_555
Be4 F28 1.570723 1_555
Be5 F41 1.544647 1_565
Be5 F5 1.557141 1_555
Be5 F17 1.566736 1_555
Be5 F29 1.570723 1_555
Be6 F42 1.544647 1_555
Be6 F6 1.557141 1_555
Be6 F18 1.566736 1_555
Be6 F30 1.570723 1_555
Be7 F43 1.544647 1_655
Be7 F7 1.557141 1_555
Be7 F19 1.566736 1_555
Be7 F31 1.570723 1_555
Be8 F44 1.544647 1_545
Be8 F8 1.557141 1_555
Be8 F20 1.566736 1_555
Be8 F32 1.570723 1_555
Be9 F45 1.544647 1_555
Be9 F9 1.557141 1_555
Be9 F21 1.566736 1_555
Be9 F33 1.570723 1_555
Be10 F46 1.544647 1_555
Be10 F10 1.557141 1_555
Be10 F22 1.566736 1_555
Be10 F34 1.570723 1_555
Be11 F47 1.544647 1_555
Be11 F11 1.557141 1_555
Be11 F23 1.566736 1_555
Be11 F35 1.570723 1_555
F0 Zn0 2.003919 1_456
F1 Zn0 2.003919 1_455
F2 Zn0 2.003919 1_556
F3 Zn1 2.003919 1_554
F4 Zn1 2.003919 1_565
F5 Zn1 2.003919 1_564
F6 Zn2 2.003919 1_655
F7 Zn2 2.003919 1_645
F8 Zn2 2.003919 1_545
F9 Zn3 2.003919 1_555
F10 Zn3 2.003919 1_555
F11 Zn3 2.003919 1_555
F12 Zn1 2.020433 1_555
F13 Zn2 2.020433 1_555
F14 Zn3 2.020433 1_555
F15 Zn0 2.020433 1_555
F16 Zn3 2.020433 1_555
F17 Zn2 2.020433 1_555
F18 Zn3 2.020433 1_555
F19 Zn0 2.020433 1_555
F20 Zn1 2.020433 1_555
F21 Zn2 2.020433 1_555
F22 Zn1 2.020433 1_555
F23 Zn0 2.020433 1_555
F24 Zn5 1.998702 1_555
F25 Zn6 1.998702 1_555
F26 Zn7 1.998702 1_555
F27 Zn4 1.998702 1_555
F28 Zn7 1.998702 1_555
F29 Zn6 1.998702 1_555
F30 Zn7 1.998702 1_555
F31 Zn4 1.998702 1_555
F32 Zn5 1.998702 1_555
F33 Zn6 1.998702 1_555
F34 Zn5 1.998702 1_555
F35 Zn4 1.998702 1_555
F36 Zn6 2.011877 1_555
F37 Zn7 2.011877 1_554
F38 Zn5 2.011877 1_655
F39 Zn7 2.011877 1_545
F40 Zn6 2.011877 1_556
F41 Zn4 2.011877 1_555
F42 Zn4 2.011877 1_565
F43 Zn5 2.011877 1_555
F44 Zn7 2.011877 1_455
F45 Zn5 2.011877 1_555
F46 Zn4 2.011877 1_555
F47 Zn6 2.011877 1_555
