# generated using pymatgen
data_Pr5(Mo16O27)2
_symmetry_space_group_name_H-M   'P 1'
_cell_length_a   9.42487705
_cell_length_b   11.17196349
_cell_length_c   24.78504317
_cell_angle_alpha   100.59300066
_cell_angle_beta   90.00000000
_cell_angle_gamma   90.00000000
_symmetry_Int_Tables_number   1
_chemical_formula_structural   Pr5(Mo16O27)2
_chemical_formula_sum   'Pr10 Mo64 O108'
_cell_volume   2565.25037673
_cell_formula_units_Z   2
loop_
 _symmetry_equiv_pos_site_id
 _symmetry_equiv_pos_as_xyz
  1  'x, y, z'
loop_
 _atom_site_type_symbol
 _atom_site_label
 _atom_site_symmetry_multiplicity
 _atom_site_fract_x
 _atom_site_fract_y
 _atom_site_fract_z
 _atom_site_occupancy
  Pr  Pr0  1  0.01222870  0.63260914  0.09503016  1
  Pr  Pr1  1  0.48777130  0.13260914  0.59503016  1
  Pr  Pr2  1  0.04347041  0.02310483  0.81443084  1
  Pr  Pr3  1  0.50000000  0.00000000  0.00000000  1
  Pr  Pr4  1  0.54347041  0.47689517  0.68556916  1
  Pr  Pr5  1  0.98777130  0.36739086  0.90496984  1
  Pr  Pr6  1  0.45652959  0.52310483  0.31443084  1
  Pr  Pr7  1  0.51222870  0.86739086  0.40496984  1
  Pr  Pr8  1  0.95652959  0.97689517  0.18556916  1
  Pr  Pr9  1  0.00000000  0.50000000  0.50000000  1
  Mo  Mo0  1  0.86533944  0.31387610  0.74315099  1
  Mo  Mo1  1  0.86443246  0.60431312  0.76920054  1
  Mo  Mo2  1  0.36533944  0.18612390  0.75684901  1
  Mo  Mo3  1  0.63407367  0.26848711  0.17629328  1
  Mo  Mo4  1  0.36592633  0.73151289  0.82370672  1
  Mo  Mo5  1  0.14709961  0.92211495  0.51463031  1
  Mo  Mo6  1  0.63466056  0.81387610  0.24315099  1
  Mo  Mo7  1  0.13556754  0.39568688  0.23079946  1
  Mo  Mo8  1  0.15292309  0.33882303  0.67227083  1
  Mo  Mo9  1  0.12295375  0.51764673  0.35865436  1
  Mo  Mo10  1  0.34670495  0.36554445  0.44744170  1
  Mo  Mo11  1  0.85920605  0.53517295  0.20188024  1
  Mo  Mo12  1  0.63828462  0.34701194  0.52088817  1
  Mo  Mo13  1  0.14551678  0.80447177  0.38619689  1
  Mo  Mo14  1  0.64781689  0.41317498  0.07730377  1
  Mo  Mo15  1  0.87904514  0.72016577  0.89316234  1
  Mo  Mo16  1  0.36171538  0.65298806  0.47911183  1
  Mo  Mo17  1  0.14079395  0.46482705  0.79811976  1
  Mo  Mo18  1  0.62295375  0.98235327  0.14134564  1
  Mo  Mo19  1  0.84707691  0.66117697  0.32772917  1
  Mo  Mo20  1  0.37904514  0.77983423  0.60683766  1
  Mo  Mo21  1  0.35107144  0.12904201  0.19953073  1
  Mo  Mo22  1  0.86592633  0.76848711  0.67629328  1
  Mo  Mo23  1  0.85107144  0.37095799  0.30046927  1
  Mo  Mo24  1  0.63556754  0.10431312  0.26920054  1
  Mo  Mo25  1  0.35218311  0.58682502  0.92269623  1
  Mo  Mo26  1  0.14117092  0.98759930  0.07533324  1
  Mo  Mo27  1  0.37704625  0.01764673  0.85865436  1
  Mo  Mo28  1  0.13466056  0.68612390  0.25684901  1
  Mo  Mo29  1  0.36443246  0.89568688  0.73079946  1
  Mo  Mo30  1  0.36272930  0.71504403  0.04506117  1
  Mo  Mo31  1  0.64079395  0.03517295  0.70188024  1
  Mo  Mo32  1  0.62371235  0.46074682  0.85547006  1
  Mo  Mo33  1  0.62095486  0.22016577  0.39316234  1
  Mo  Mo34  1  0.35882908  0.48759930  0.57533324  1
  Mo  Mo35  1  0.64551678  0.69552823  0.11380311  1
  Mo  Mo36  1  0.13727070  0.21504403  0.54506117  1
  Mo  Mo37  1  0.65292309  0.16117697  0.82772917  1
  Mo  Mo38  1  0.13828462  0.15298806  0.97911183  1
  Mo  Mo39  1  0.63727070  0.28495597  0.95493883  1
  Mo  Mo40  1  0.35448322  0.30447177  0.88619689  1
  Mo  Mo41  1  0.64709961  0.57788505  0.98536969  1
  Mo  Mo42  1  0.12095486  0.27983423  0.10683766  1
  Mo  Mo43  1  0.85448322  0.19552823  0.61380311  1
  Mo  Mo44  1  0.65329505  0.63445555  0.55255830  1
  Mo  Mo45  1  0.85218311  0.91317498  0.57730377  1
  Mo  Mo46  1  0.35290039  0.42211495  0.01463031  1
  Mo  Mo47  1  0.86171538  0.84701194  0.02088817  1
  Mo  Mo48  1  0.84670495  0.13445555  0.05255830  1
  Mo  Mo49  1  0.13407367  0.23151289  0.32370672  1
  Mo  Mo50  1  0.14781689  0.08682502  0.42269623  1
  Mo  Mo51  1  0.87628765  0.96074682  0.35547006  1
  Mo  Mo52  1  0.12371235  0.03925318  0.64452994  1
  Mo  Mo53  1  0.14892856  0.62904201  0.69953073  1
  Mo  Mo54  1  0.87704625  0.48235327  0.64134564  1
  Mo  Mo55  1  0.15329505  0.86554445  0.94744170  1
  Mo  Mo56  1  0.85882908  0.01240070  0.92466676  1
  Mo  Mo57  1  0.64892856  0.87095799  0.80046927  1
  Mo  Mo58  1  0.85290039  0.07788505  0.48536969  1
  Mo  Mo59  1  0.34707691  0.83882303  0.17227083  1
  Mo  Mo60  1  0.35920605  0.96482705  0.29811976  1
  Mo  Mo61  1  0.64117092  0.51240070  0.42466676  1
  Mo  Mo62  1  0.37628765  0.53925318  0.14452994  1
  Mo  Mo63  1  0.86272930  0.78495597  0.45493883  1
  O  O0  1  0.72120318  0.18888723  0.54314214  1
  O  O1  1  0.24178159  0.14492500  0.05548136  1
  O  O2  1  0.25088469  0.38894413  0.30561559  1
  O  O3  1  0.49182934  0.83558017  0.10290975  1
  O  O4  1  0.98775438  0.74434720  0.74196615  1
  O  O5  1  0.50574019  0.61747126  0.61754807  1
  O  O6  1  0.25424669  0.68669671  0.12073311  1
  O  O7  1  0.50817066  0.16441983  0.89709025  1
  O  O8  1  0.00172228  0.26422849  0.03752040  1
  O  O9  1  0.25241121  0.16052728  0.83255461  1
  O  O10  1  0.24378712  0.43284971  0.09016018  1
  O  O11  1  0.25621288  0.93284971  0.59016018  1
  O  O12  1  0.49425981  0.38252874  0.38245193  1
  O  O13  1  0.74525059  0.23004216  0.32643490  1
  O  O14  1  0.48775438  0.75565280  0.75803385  1
  O  O15  1  0.22954712  0.84514361  0.24397969  1
  O  O16  1  0.74731447  0.39169982  0.22692102  1
  O  O17  1  0.51224562  0.24434720  0.24196615  1
  O  O18  1  0.75621288  0.56715029  0.90983982  1
  O  O19  1  0.24575331  0.18669671  0.62073311  1
  O  O20  1  0.77537079  0.95655961  0.28002273  1
  O  O21  1  0.72954712  0.65485639  0.25602031  1
  O  O22  1  0.74575331  0.31330329  0.87926689  1
  O  O23  1  0.29131316  0.01841249  0.93851359  1
  O  O24  1  0.00574019  0.88252874  0.88245193  1
  O  O25  1  0.24758879  0.66052728  0.33255461  1
  O  O26  1  0.50172228  0.23577151  0.46247960  1
  O  O27  1  0.00166203  0.19285080  0.68174362  1
  O  O28  1  0.22120318  0.31111277  0.95685786  1
  O  O29  1  0.50398839  0.17963875  0.68881339  1
  O  O30  1  0.99507640  0.84821397  0.09372378  1
  O  O31  1  0.21522392  0.98403995  0.15646796  1
  O  O32  1  0.49601161  0.82036125  0.31118661  1
  O  O33  1  0.28477608  0.48403995  0.65646796  1
  O  O34  1  0.27537079  0.54344039  0.21997727  1
  O  O35  1  0.99182934  0.66441983  0.39709025  1
  O  O36  1  0.25268553  0.60830018  0.77307898  1
  O  O37  1  0.71763037  0.05104702  0.62393143  1
  O  O38  1  0.02288791  0.08280393  0.34991697  1
  O  O39  1  0.76082086  0.42274014  0.00231894  1
  O  O40  1  0.76064679  0.76893032  0.60600516  1
  O  O41  1  0.28236963  0.94895298  0.37606857  1
  O  O42  1  0.98645308  0.58758157  0.84098385  1
  O  O43  1  0.47711209  0.58280393  0.84991697  1
  O  O44  1  0.28618491  0.87614858  0.02101953  1
  O  O45  1  0.21763037  0.44895298  0.87606857  1
  O  O46  1  0.74378712  0.06715029  0.40983982  1
  O  O47  1  0.23917914  0.57725986  -0.00231894  1
  O  O48  1  0.24525059  0.26995784  0.17356510  1
  O  O49  1  0.00492360  0.15178603  0.90627622  1
  O  O50  1  0.99601161  0.67963875  0.18881339  1
  O  O51  1  0.78477608  0.01596005  0.84353204  1
  O  O52  1  0.77045288  0.15485639  0.75602031  1
  O  O53  1  0.49144065  0.70953272  0.97545392  1
  O  O54  1  0.75821841  0.85507500  0.94451864  1
  O  O55  1  0.52288791  0.41719607  0.15008303  1
  O  O56  1  0.71522392  0.51596005  0.34353204  1
  O  O57  1  0.49507640  0.65178603  0.40627622  1
  O  O58  1  0.50492360  0.34821397  0.59372378  1
  O  O59  1  0.51354692  0.08758157  0.34098385  1
  O  O60  1  0.00855935  0.20953272  0.47545392  1
  O  O61  1  0.79131316  0.48158751  0.56148641  1
  O  O62  1  0.74178159  0.35507500  0.44451864  1
  O  O63  1  0.49833797  0.69285080  0.18174362  1
  O  O64  1  0.00171823  0.63237701  0.63403821  1
  O  O65  1  0.73917914  0.92274014  0.50231894  1
  O  O66  1  0.01224562  0.25565280  0.25803385  1
  O  O67  1  0.24911531  0.88894413  0.80561559  1
  O  O68  1  0.25821841  0.64492500  0.55548136  1
  O  O69  1  0.48645308  0.91241843  0.65901615  1
  O  O70  1  0.99828177  0.36762299  0.36596179  1
  O  O71  1  0.26064679  0.73106968  0.89399484  1
  O  O72  1  0.49828177  0.13237701  0.13403821  1
  O  O73  1  0.25474941  0.76995784  0.67356510  1
  O  O74  1  0.74758879  0.83947272  0.16744539  1
  O  O75  1  0.75424669  0.81330329  0.37926689  1
  O  O76  1  0.23935321  0.23106968  0.39399484  1
  O  O77  1  0.27045288  0.34514361  0.74397969  1
  O  O78  1  0.75241121  0.33947272  0.66744539  1
  O  O79  1  0.01354692  0.41241843  0.15901615  1
  O  O80  1  0.20868684  0.51841249  0.43851359  1
  O  O81  1  0.26082086  0.07725986  0.49768106  1
  O  O82  1  0.21381509  0.37614858  0.52101953  1
  O  O83  1  0.24731447  0.10830018  0.27307898  1
  O  O84  1  0.97711209  0.91719607  0.65008303  1
  O  O85  1  0.77879682  0.68888723  0.04314214  1
  O  O86  1  0.72462921  0.45655961  0.78002273  1
  O  O87  1  0.70868684  0.98158751  0.06148641  1
  O  O88  1  0.50171823  0.86762299  0.86596179  1
  O  O89  1  0.99827772  0.73577151  0.96247960  1
  O  O90  1  0.73935321  0.26893032  0.10600516  1
  O  O91  1  0.00817066  0.33558017  0.60290975  1
  O  O92  1  0.22462921  0.04344039  0.71997727  1
  O  O93  1  0.00398839  0.32036125  0.81118661  1
  O  O94  1  0.99144065  0.79046728  0.52454608  1
  O  O95  1  0.99833797  0.80714920  0.31825638  1
  O  O96  1  0.27879682  0.81111277  0.45685786  1
  O  O97  1  0.74911531  0.61105587  0.69438441  1
  O  O98  1  0.99425981  0.11747126  0.11754807  1
  O  O99  1  0.78236963  0.55104702  0.12393143  1
  O  O100  1  0.75268553  0.89169982  0.72692102  1
  O  O101  1  0.78618491  0.62385142  0.47898047  1
  O  O102  1  0.50166203  0.30714920  0.81825638  1
  O  O103  1  0.75474941  0.73004216  0.82643490  1
  O  O104  1  0.49827772  0.76422849  0.53752040  1
  O  O105  1  0.50855935  0.29046728  0.02454608  1
  O  O106  1  0.71381509  0.12385142  0.97898047  1
  O  O107  1  0.75088469  0.11105587  0.19438441  1
loop_
_geom_bond_atom_site_label_1
_geom_bond_atom_site_label_2
_geom_bond_distance
_geom_bond_site_symmetry_2
Mo0 O52 2.065434 1_555
Mo0 O93 2.124010 1_655
Mo0 O86 2.144601 1_555
Mo0 O78 2.220949 1_555
Mo0 O27 2.244718 1_655
Mo1 O103 2.078789 1_555
Mo1 O4 2.154609 1_555
Mo1 O42 2.155264 1_555
Mo1 O97 2.162587 1_555
Mo1 O86 2.166952 1_555
Mo2 O77 2.065434 1_555
Mo2 O29 2.124010 1_555
Mo2 O92 2.144601 1_555
Mo2 O9 2.220949 1_555
Mo2 O102 2.244718 1_555
Mo3 O16 1.993341 1_555
Mo3 O90 2.005652 1_555
Mo3 O17 2.049865 1_555
Mo3 O72 2.112233 1_555
Mo3 O55 2.162657 1_555
Mo3 O107 2.190088 1_555
Mo4 O36 1.993341 1_555
Mo4 O71 2.005652 1_555
Mo4 O14 2.049865 1_555
Mo4 O88 2.112233 1_555
Mo4 O43 2.162657 1_555
Mo4 O67 2.190088 1_555
Mo5 O96 2.115653 1_555
Mo5 O11 2.119865 1_555
Mo5 O94 2.123375 1_455
Mo5 O81 2.144106 1_565
Mo6 O21 2.065434 1_555
Mo6 O32 2.124010 1_555
Mo6 O20 2.144601 1_555
Mo6 O74 2.220949 1_555
Mo6 O63 2.244718 1_555
Mo7 O48 2.078789 1_555
Mo7 O66 2.154609 1_555
Mo7 O79 2.155264 1_555
Mo7 O2 2.162587 1_555
Mo7 O34 2.166952 1_555
Mo8 O77 2.084388 1_555
Mo8 O19 2.118355 1_555
Mo8 O33 2.136207 1_555
Mo8 O91 2.189754 1_555
Mo8 O27 2.210832 1_555
Mo9 O70 2.081887 1_455
Mo9 O35 2.132894 1_455
Mo9 O2 2.134100 1_555
Mo9 O80 2.136454 1_555
Mo9 O25 2.173934 1_555
Mo10 O76 2.074567 1_555
Mo10 O26 2.138724 1_555
Mo10 O12 2.162633 1_555
Mo10 O80 2.190139 1_555
Mo10 O82 2.197478 1_555
Mo11 O99 2.101032 1_555
Mo11 O21 2.102880 1_555
Mo11 O16 2.105294 1_555
Mo11 O50 2.136456 1_555
Mo11 O79 2.142370 1_655
Mo12 O0 2.096175 1_555
Mo12 O62 2.145944 1_555
Mo12 O26 2.152979 1_555
Mo12 O61 2.190176 1_555
Mo12 O58 2.197717 1_555
Mo13 O41 2.116855 1_555
Mo13 O25 2.119705 1_555
Mo13 O96 2.145417 1_555
Mo13 O35 2.185056 1_455
Mo13 O95 2.186121 1_455
Mo14 O90 2.066088 1_555
Mo14 O55 2.147654 1_555
Mo14 O105 2.157013 1_555
Mo14 O99 2.159124 1_555
Mo14 O39 2.161665 1_555
Mo15 O89 2.033401 1_555
Mo15 O103 2.046169 1_555
Mo15 O42 2.046214 1_555
Mo15 O54 2.117383 1_555
Mo15 O18 2.166382 1_555
Mo15 O24 2.227919 1_655
Mo16 O96 2.096175 1_555
Mo16 O68 2.145944 1_555
Mo16 O104 2.152979 1_555
Mo16 O80 2.190176 1_555
Mo16 O57 2.197717 1_555
Mo17 O45 2.101032 1_555
Mo17 O77 2.102880 1_555
Mo17 O36 2.105294 1_555
Mo17 O93 2.136456 1_555
Mo17 O42 2.142370 1_455
Mo18 O72 2.081887 1_565
Mo18 O3 2.132894 1_555
Mo18 O107 2.134100 1_565
Mo18 O87 2.136454 1_555
Mo18 O74 2.173934 1_555
Mo19 O21 2.084388 1_555
Mo19 O75 2.118355 1_555
Mo19 O56 2.136207 1_555
Mo19 O35 2.189754 1_555
Mo19 O95 2.210832 1_555
Mo20 O104 2.033401 1_555
Mo20 O73 2.046169 1_555
Mo20 O69 2.046214 1_555
Mo20 O68 2.117383 1_555
Mo20 O11 2.166382 1_555
Mo20 O5 2.227919 1_555
Mo21 O48 2.063932 1_555
Mo21 O83 2.118546 1_555
Mo21 O17 2.138925 1_555
Mo21 O72 2.140912 1_555
Mo21 O31 2.183350 1_545
Mo22 O100 1.993341 1_555
Mo22 O40 2.005652 1_555
Mo22 O4 2.049865 1_555
Mo22 O64 2.112233 1_655
Mo22 O84 2.162657 1_555
Mo22 O97 2.190088 1_555
Mo23 O13 2.063932 1_555
Mo23 O16 2.118546 1_555
Mo23 O66 2.138925 1_655
Mo23 O70 2.140912 1_555
Mo23 O56 2.183350 1_555
Mo24 O13 2.078789 1_555
Mo24 O17 2.154609 1_555
Mo24 O59 2.155264 1_555
Mo24 O107 2.162587 1_555
Mo24 O20 2.166952 1_545
Mo25 O71 2.066088 1_555
Mo25 O43 2.147654 1_555
Mo25 O53 2.157013 1_555
Mo25 O45 2.159124 1_555
Mo25 O47 2.161665 1_556
Mo26 O1 2.132722 1_565
Mo26 O98 2.135168 1_465
Mo26 O31 2.135868 1_555
Mo26 O44 2.148073 1_555
Mo26 O30 2.188502 1_455
Mo27 O88 2.081887 1_545
Mo27 O7 2.132894 1_555
Mo27 O67 2.134100 1_545
Mo27 O23 2.136454 1_555
Mo27 O9 2.173934 1_555
Mo28 O15 2.065434 1_555
Mo28 O50 2.124010 1_455
Mo28 O34 2.144601 1_555
Mo28 O25 2.220949 1_555
Mo28 O95 2.244718 1_455
Mo29 O73 2.078789 1_555
Mo29 O14 2.154609 1_555
Mo29 O69 2.155264 1_555
Mo29 O67 2.162587 1_555
Mo29 O92 2.166952 1_565
Mo30 O53 2.100643 1_554
Mo30 O47 2.107096 1_555
Mo30 O44 2.123511 1_555
Mo30 O3 2.154005 1_555
Mo30 O6 2.209451 1_555
Mo31 O37 2.101032 1_555
Mo31 O52 2.102880 1_555
Mo31 O100 2.105294 1_545
Mo31 O29 2.136456 1_555
Mo31 O69 2.142370 1_545
Mo32 O43 1.963788 1_555
Mo32 O18 2.049281 1_555
Mo32 O86 2.090800 1_555
Mo32 O102 2.129936 1_555
Mo32 O22 2.177489 1_555
Mo33 O26 2.033401 1_555
Mo33 O13 2.046169 1_555
Mo33 O59 2.046214 1_555
Mo33 O62 2.117383 1_555
Mo33 O46 2.166382 1_555
Mo33 O12 2.227919 1_555
Mo34 O68 2.132722 1_555
Mo34 O5 2.135168 1_555
Mo34 O33 2.135868 1_555
Mo34 O82 2.148073 1_555
Mo34 O58 2.188502 1_555
Mo35 O99 2.116855 1_555
Mo35 O74 2.119705 1_555
Mo35 O85 2.145417 1_555
Mo35 O3 2.185056 1_555
Mo35 O63 2.186121 1_555
Mo36 O60 2.100643 1_555
Mo36 O81 2.107096 1_555
Mo36 O82 2.123511 1_555
Mo36 O91 2.154005 1_555
Mo36 O19 2.209451 1_555
Mo37 O52 2.084388 1_555
Mo37 O22 2.118355 1_555
Mo37 O51 2.136207 1_555
Mo37 O7 2.189754 1_555
Mo37 O102 2.210832 1_555
Mo38 O28 2.096175 1_555
Mo38 O1 2.145944 1_556
Mo38 O8 2.152979 1_556
Mo38 O23 2.190176 1_555
Mo38 O49 2.197717 1_555
Mo39 O105 2.100643 1_556
Mo39 O39 2.107096 1_556
Mo39 O106 2.123511 1_555
Mo39 O7 2.154005 1_555
Mo39 O22 2.209451 1_555
Mo40 O45 2.116855 1_555
Mo40 O9 2.119705 1_555
Mo40 O28 2.145417 1_555
Mo40 O7 2.185056 1_555
Mo40 O102 2.186121 1_555
Mo41 O85 2.115653 1_556
Mo41 O18 2.119865 1_555
Mo41 O53 2.123375 1_555
Mo41 O39 2.144106 1_556
Mo42 O8 2.033401 1_555
Mo42 O48 2.046169 1_555
Mo42 O79 2.046214 1_555
Mo42 O1 2.117383 1_555
Mo42 O10 2.166382 1_555
Mo42 O98 2.227919 1_455
Mo43 O37 2.116855 1_555
Mo43 O78 2.119705 1_555
Mo43 O0 2.145417 1_555
Mo43 O91 2.185056 1_655
Mo43 O27 2.186121 1_655
Mo44 O40 2.074567 1_555
Mo44 O104 2.138724 1_555
Mo44 O5 2.162633 1_555
Mo44 O61 2.190139 1_555
Mo44 O101 2.197478 1_555
Mo45 O40 2.066088 1_555
Mo45 O84 2.147654 1_555
Mo45 O94 2.157013 1_555
Mo45 O37 2.159124 1_565
Mo45 O65 2.161665 1_555
Mo46 O28 2.115653 1_554
Mo46 O10 2.119865 1_555
Mo46 O105 2.123375 1_555
Mo46 O47 2.144106 1_555
Mo47 O85 2.096175 1_555
Mo47 O54 2.145944 1_554
Mo47 O89 2.152979 1_554
Mo47 O87 2.190176 1_555
Mo47 O30 2.197717 1_555
Mo48 O90 2.074567 1_555
Mo48 O8 2.138724 1_655
Mo48 O98 2.162633 1_555
Mo48 O87 2.190139 1_545
Mo48 O106 2.197478 1_554
Mo49 O83 1.993341 1_555
Mo49 O76 2.005652 1_555
Mo49 O66 2.049865 1_555
Mo49 O70 2.112233 1_455
Mo49 O38 2.162657 1_555
Mo49 O2 2.190088 1_555
Mo50 O76 2.066088 1_555
Mo50 O38 2.147654 1_555
Mo50 O60 2.157013 1_555
Mo50 O41 2.159124 1_545
Mo50 O81 2.161665 1_555
Mo51 O38 1.963788 1_665
Mo51 O46 2.049281 1_565
Mo51 O20 2.090800 1_555
Mo51 O95 2.129936 1_555
Mo51 O75 2.177489 1_555
Mo52 O84 1.963788 1_445
Mo52 O11 2.049281 1_545
Mo52 O92 2.090800 1_555
Mo52 O27 2.129936 1_555
Mo52 O19 2.177489 1_555
Mo53 O73 2.063932 1_555
Mo53 O36 2.118546 1_555
Mo53 O4 2.138925 1_455
Mo53 O64 2.140912 1_555
Mo53 O33 2.183350 1_555
Mo54 O64 2.081887 1_655
Mo54 O91 2.132894 1_655
Mo54 O97 2.134100 1_555
Mo54 O61 2.136454 1_555
Mo54 O78 2.173934 1_555
Mo55 O71 2.074567 1_555
Mo55 O89 2.138724 1_455
Mo55 O24 2.162633 1_555
Mo55 O23 2.190139 1_565
Mo55 O44 2.197478 1_556
Mo56 O54 2.132722 1_545
Mo56 O24 2.135168 1_645
Mo56 O51 2.135868 1_555
Mo56 O106 2.148073 1_555
Mo56 O49 2.188502 1_655
Mo57 O103 2.063932 1_555
Mo57 O100 2.118546 1_555
Mo57 O14 2.138925 1_555
Mo57 O88 2.140912 1_555
Mo57 O51 2.183350 1_565
Mo58 O0 2.115653 1_555
Mo58 O46 2.119865 1_555
Mo58 O60 2.123375 1_655
Mo58 O65 2.144106 1_545
Mo59 O15 2.084388 1_555
Mo59 O6 2.118355 1_555
Mo59 O31 2.136207 1_555
Mo59 O3 2.189754 1_555
Mo59 O63 2.210832 1_555
Mo60 O41 2.101032 1_555
Mo60 O15 2.102880 1_555
Mo60 O83 2.105294 1_565
Mo60 O32 2.136456 1_555
Mo60 O59 2.142370 1_565
Mo61 O62 2.132722 1_555
Mo61 O12 2.135168 1_555
Mo61 O56 2.135868 1_555
Mo61 O101 2.148073 1_555
Mo61 O57 2.188502 1_555
Mo62 O55 1.963788 1_555
Mo62 O10 2.049281 1_555
Mo62 O34 2.090800 1_555
Mo62 O63 2.129936 1_555
Mo62 O6 2.177489 1_555
Mo63 O94 2.100643 1_555
Mo63 O65 2.107096 1_555
Mo63 O101 2.123511 1_555
Mo63 O35 2.154005 1_555
Mo63 O75 2.209451 1_555
O0 Pr1 2.680822 1_555
O2 Pr6 2.435238 1_555
O5 Pr4 2.531543 1_555
O6 Pr0 2.415026 1_555
O9 Pr2 2.486607 1_555
O10 Pr0 3.107885 1_555
O11 Pr1 3.107885 1_565
O12 Pr6 2.531543 1_555
O18 Pr5 3.107885 1_555
O19 Pr1 2.415026 1_555
O20 Pr8 2.939867 1_555
O22 Pr5 2.415026 1_555
O23 Pr3 2.519616 1_556
O24 Pr2 2.531543 1_565
O25 Pr6 2.486607 1_555
O28 Pr5 2.680822 1_455
O29 Pr1 2.292016 1_555
O30 Pr0 2.420296 1_655
O30 Pr8 2.485456 1_555
O31 Pr8 2.548021 1_455
O32 Pr7 2.292016 1_555
O33 Pr4 2.548021 1_555
O34 Pr6 2.939867 1_555
O37 Pr1 2.505325 1_555
O39 Pr5 3.198542 1_554
O41 Pr7 2.505325 1_555
O42 Pr5 3.162432 1_555
O44 Pr3 2.551846 1_565
O45 Pr5 2.505325 1_455
O46 Pr7 3.107885 1_545
O47 Pr0 3.198542 1_555
O49 Pr5 2.420296 1_455
O49 Pr2 2.485456 1_555
O50 Pr0 2.292016 1_655
O51 Pr2 2.548021 1_655
O56 Pr6 2.548021 1_555
O57 Pr7 2.420296 1_555
O57 Pr6 2.485456 1_555
O58 Pr1 2.420296 1_555
O58 Pr4 2.485456 1_555
O59 Pr7 3.162432 1_545
O61 Pr9 2.519616 1_655
O65 Pr7 3.198542 1_555
O67 Pr2 2.435238 1_565
O69 Pr1 3.162432 1_565
O74 Pr8 2.486607 1_555
O75 Pr7 2.415026 1_555
O78 Pr4 2.486607 1_555
O79 Pr0 3.162432 1_555
O80 Pr9 2.519616 1_555
O81 Pr1 3.198542 1_555
O82 Pr9 2.551846 1_555
O85 Pr0 2.680822 1_655
O86 Pr4 2.939867 1_555
O87 Pr3 2.519616 1_565
O92 Pr2 2.939867 1_555
O93 Pr5 2.292016 1_455
O96 Pr7 2.680822 1_555
O97 Pr4 2.435238 1_555
O98 Pr8 2.531543 1_545
O99 Pr0 2.505325 1_655
O101 Pr9 2.551846 1_655
O106 Pr3 2.551846 1_556
O107 Pr8 2.435238 1_545
