# generated using pymatgen
data_Na5Ti12O24
_symmetry_space_group_name_H-M   'P 1'
_cell_length_a   8.97734700
_cell_length_b   5.51983200
_cell_length_c   9.53170805
_cell_angle_alpha   89.84684974
_cell_angle_beta   90.00000000
_cell_angle_gamma   90.00000000
_symmetry_Int_Tables_number   1
_chemical_formula_structural   Na5Ti12O24
_chemical_formula_sum   'Na5 Ti12 O24'
_cell_volume   472.32730472
_cell_formula_units_Z   1
loop_
 _symmetry_equiv_pos_site_id
 _symmetry_equiv_pos_as_xyz
  1  'x, y, z'
loop_
 _atom_site_type_symbol
 _atom_site_label
 _atom_site_symmetry_multiplicity
 _atom_site_fract_x
 _atom_site_fract_y
 _atom_site_fract_z
 _atom_site_occupancy
  Na  Na0  1  0.50000000  0.45674100  0.97813900  1
  Na  Na1  1  0.00000000  0.53731500  0.02473900  1
  Na  Na2  1  0.00000000  0.96116700  0.51961300  1
  Na  Na3  1  0.33516800  0.95455000  0.52304800  1
  Na  Na4  1  0.66483200  0.95455000  0.52304800  1
  Ti  Ti0  1  0.50000000  0.00405500  0.14802700  1
  Ti  Ti1  1  0.82673700  0.01409600  0.14558100  1
  Ti  Ti2  1  0.17326300  0.01409600  0.14558100  1
  Ti  Ti3  1  0.17058700  0.48756000  0.64714600  1
  Ti  Ti4  1  0.50000000  0.47917700  0.64555000  1
  Ti  Ti5  1  0.82941300  0.48756000  0.64714600  1
  Ti  Ti6  1  0.33383100  0.50582800  0.35153300  1
  Ti  Ti7  1  0.00000000  0.51281800  0.35729300  1
  Ti  Ti8  1  0.66616900  0.50582800  0.35153300  1
  Ti  Ti9  1  0.00000000  0.98955100  0.85582600  1
  Ti  Ti10  1  0.67513600  0.98170100  0.86310700  1
  Ti  Ti11  1  0.32486400  0.98170100  0.86310700  1
  O  O0  1  0.32884100  0.17884400  0.03907100  1
  O  O1  1  0.67115900  0.17884400  0.03907100  1
  O  O2  1  0.00000000  0.15478200  0.03958300  1
  O  O3  1  0.83223500  0.18506200  0.76763000  1
  O  O4  1  0.16776500  0.18506200  0.76763000  1
  O  O5  1  0.50000000  0.19679600  0.77274400  1
  O  O6  1  0.83774800  0.30050100  0.27545500  1
  O  O7  1  0.16225200  0.30050100  0.27545500  1
  O  O8  1  0.50000000  0.30056500  0.27100900  1
  O  O9  1  0.33111500  0.33376800  0.53406700  1
  O  O10  1  0.66888500  0.33376800  0.53406700  1
  O  O11  1  0.00000000  0.34037400  0.54157400  1
  O  O12  1  0.50000000  0.67550800  0.45843600  1
  O  O13  1  0.83263600  0.67944700  0.46234500  1
  O  O14  1  0.16736400  0.67944700  0.46234500  1
  O  O15  1  0.00000000  0.69810400  0.72654600  1
  O  O16  1  0.33567900  0.69996300  0.72392200  1
  O  O17  1  0.66432100  0.69996300  0.72392200  1
  O  O18  1  0.33173000  0.80451400  0.22891100  1
  O  O19  1  0.66827000  0.80451400  0.22891100  1
  O  O20  1  0.00000000  0.79767700  0.22613800  1
  O  O21  1  0.82952200  0.81616000  0.96458400  1
  O  O22  1  0.50000000  0.83948600  0.96238400  1
  O  O23  1  0.17047800  0.81616000  0.96458400  1
loop_
_geom_bond_atom_site_label_1
_geom_bond_atom_site_label_2
_geom_bond_distance
_geom_bond_site_symmetry_2
Na0 O22 2.117618 1_555
Na0 O1 2.246449 1_556
Na0 O0 2.246449 1_556
Na0 O5 2.430363 1_555
Na1 O2 2.115876 1_555
Na1 O23 2.243961 1_554
Na1 O21 2.243961 1_454
Na1 O20 2.401108 1_555
Na2 O11 2.104156 1_565
Na2 O14 2.231173 1_555
Na2 O13 2.231173 1_455
Na2 O15 2.446147 1_555
Na3 O9 2.096449 1_565
Na3 O14 2.216920 1_555
Na3 O12 2.224061 1_555
Na3 O16 2.372006 1_555
Na4 O10 2.096449 1_565
Na4 O13 2.216920 1_555
Na4 O12 2.224061 1_555
Na4 O17 2.372006 1_555
O0 Ti2 1.950237 1_555
O0 Ti11 2.002081 1_544
O0 Ti0 2.089270 1_555
O1 Ti1 1.950237 1_555
O1 Ti10 2.002081 1_544
O1 Ti0 2.089270 1_555
O2 Ti9 1.976913 1_544
O2 Ti2 2.009738 1_555
O2 Ti1 2.009738 1_455
O3 Ti10 2.017878 1_545
O3 Ti5 2.024174 1_555
O3 Ti9 2.033419 1_645
O4 Ti11 2.017878 1_545
O4 Ti3 2.024174 1_555
O4 Ti9 2.033419 1_545
O5 Ti4 1.972127 1_555
O5 Ti10 2.148962 1_545
O5 Ti11 2.148962 1_545
O6 Ti1 2.012946 1_555
O6 Ti7 2.026947 1_655
O6 Ti8 2.046306 1_555
O7 Ti2 2.012946 1_555
O7 Ti7 2.026947 1_555
O7 Ti6 2.046306 1_555
O8 Ti0 2.015717 1_555
O8 Ti8 2.025542 1_555
O8 Ti6 2.025542 1_555
O9 Ti6 1.980123 1_555
O9 Ti3 1.990999 1_555
O9 Ti4 2.019066 1_555
O10 Ti8 1.980123 1_555
O10 Ti5 1.990999 1_555
O10 Ti4 2.019066 1_555
O11 Ti7 1.995605 1_555
O11 Ti3 2.005562 1_555
O11 Ti5 2.005562 1_455
O12 Ti8 2.036164 1_555
O12 Ti6 2.036164 1_555
O12 Ti4 2.084474 1_555
O13 Ti7 2.027560 1_655
O13 Ti5 2.053170 1_555
O13 Ti8 2.067072 1_555
O14 Ti7 2.027560 1_555
O14 Ti3 2.053170 1_555
O14 Ti6 2.067072 1_555
O15 Ti9 2.029064 1_555
O15 Ti3 2.067209 1_555
O15 Ti5 2.067209 1_455
O16 Ti3 2.027635 1_555
O16 Ti11 2.049144 1_555
O16 Ti4 2.055299 1_555
O17 Ti5 2.027635 1_555
O17 Ti10 2.049144 1_555
O17 Ti4 2.055299 1_555
O18 Ti2 1.997026 1_565
O18 Ti6 2.018500 1_555
O18 Ti0 2.021130 1_565
O19 Ti1 1.997026 1_565
O19 Ti8 2.018500 1_555
O19 Ti0 2.021130 1_565
O20 Ti7 2.006160 1_555
O20 Ti2 2.105028 1_565
O20 Ti1 2.105028 1_465
O21 Ti10 1.920086 1_555
O21 Ti1 2.044693 1_566
O21 Ti9 2.080290 1_655
O22 Ti0 1.991202 1_566
O22 Ti10 1.994917 1_555
O22 Ti11 1.994917 1_555
O23 Ti11 1.920086 1_555
O23 Ti2 2.044693 1_566
O23 Ti9 2.080290 1_555
