# generated using pymatgen
data_Li5Ti2Cu3O10
_symmetry_space_group_name_H-M   'P 1'
_cell_length_a   5.09967400
_cell_length_b   5.55360832
_cell_length_c   7.64847608
_cell_angle_alpha   103.22959594
_cell_angle_beta   103.31965343
_cell_angle_gamma   105.81998837
_symmetry_Int_Tables_number   1
_chemical_formula_structural   Li5Ti2Cu3O10
_chemical_formula_sum   'Li5 Ti2 Cu3 O10'
_cell_volume   192.71405577
_cell_formula_units_Z   1
loop_
 _symmetry_equiv_pos_site_id
 _symmetry_equiv_pos_as_xyz
  1  'x, y, z'
loop_
 _atom_site_type_symbol
 _atom_site_label
 _atom_site_symmetry_multiplicity
 _atom_site_fract_x
 _atom_site_fract_y
 _atom_site_fract_z
 _atom_site_occupancy
  Li  Li0  1  0.20896900  0.88724900  0.38428000  1
  Li  Li1  1  0.40654300  0.30647500  0.79838400  1
  Li  Li2  1  0.50000000  0.50000000  0.50000000  1
  Li  Li3  1  0.59345700  0.69352500  0.20161600  1
  Li  Li4  1  0.79103100  0.11275100  0.61572000  1
  Ti  Ti0  1  0.09564700  0.69548700  0.69403900  1
  Ti  Ti1  1  0.90435300  0.30451300  0.30596100  1
  Cu  Cu0  1  0.00000000  0.50000000  0.00000000  1
  Cu  Cu1  1  0.69776000  0.88830600  0.90022300  1
  Cu  Cu2  1  0.30224000  0.11169400  0.09977700  1
  O  O0  1  0.05836800  0.03223300  0.84085900  1
  O  O1  1  0.35296800  0.67452900  0.93265700  1
  O  O2  1  0.12861300  0.32888900  0.54513000  1
  O  O3  1  0.21639800  0.52631200  0.24523900  1
  O  O4  1  0.45748200  0.87851000  0.66560700  1
  O  O5  1  0.54251800  0.12149000  0.33439300  1
  O  O6  1  0.78360200  0.47368800  0.75476100  1
  O  O7  1  0.87138700  0.67111100  0.45487000  1
  O  O8  1  0.64703200  0.32547100  0.06734300  1
  O  O9  1  0.94163200  0.96776700  0.15914100  1
loop_
_geom_bond_atom_site_label_1
_geom_bond_atom_site_label_2
_geom_bond_distance
_geom_bond_site_symmetry_2
Li0 O5 2.012713 1_565
Li0 O3 2.057832 1_555
Li0 O7 2.072267 1_455
Li0 O9 2.151032 1_455
Li0 O4 2.250166 1_555
Li1 O6 2.033465 1_555
Li1 O8 2.101108 1_556
Li1 O0 2.143747 1_555
Li1 O2 2.172081 1_555
Li1 O1 2.186402 1_555
Li1 O4 2.470055 1_545
Li2 O7 2.019727 1_555
Li2 O2 2.019727 1_555
Li2 O6 2.203840 1_555
Li2 O3 2.203840 1_555
Li2 O4 2.286169 1_555
Li2 O5 2.286169 1_555
Li3 O3 2.033465 1_555
Li3 O1 2.101108 1_554
Li3 O9 2.143747 1_555
Li3 O7 2.172081 1_555
Li3 O8 2.186402 1_555
Li3 O5 2.470055 1_565
Li4 O4 2.012713 1_545
Li4 O6 2.057832 1_555
Li4 O2 2.072267 1_655
Li4 O0 2.151032 1_655
Li4 O5 2.250166 1_555
Cu0 O3 1.894814 1_555
Cu0 O6 1.894814 1_454
Cu0 O1 2.036980 1_554
Cu0 O8 2.036980 1_455
Cu1 O4 1.905338 1_555
Cu1 O1 1.939166 1_555
Cu1 O9 1.956811 1_556
Cu1 O0 1.994069 1_665
Cu1 O6 2.516540 1_555
Cu1 O8 2.582553 1_566
Cu2 O5 1.905338 1_555
Cu2 O8 1.939166 1_555
Cu2 O0 1.956811 1_554
Cu2 O9 1.994069 1_445
Cu2 O3 2.516540 1_555
Cu2 O1 2.582553 1_544
O0 Ti0 2.031164 1_545
O1 Ti0 2.035536 1_555
O2 Ti1 1.873717 1_455
O2 Ti0 2.164253 1_555
O3 Ti1 1.949088 1_455
O4 Ti0 1.936179 1_555
O5 Ti1 1.936179 1_555
O6 Ti0 1.949088 1_655
O7 Ti0 1.873717 1_655
O7 Ti1 2.164253 1_555
O8 Ti1 2.035536 1_555
O9 Ti1 2.031164 1_565
