# generated using pymatgen
data_Hf2N2O
_symmetry_space_group_name_H-M   'P 1'
_cell_length_a   8.65090103
_cell_length_b   8.66907959
_cell_length_c   8.68878221
_cell_angle_alpha   109.44532528
_cell_angle_beta   109.47460116
_cell_angle_gamma   109.38995919
_symmetry_Int_Tables_number   1
_chemical_formula_structural   Hf2N2O
_chemical_formula_sum   'Hf16 N16 O8'
_cell_volume   502.25716928
_cell_formula_units_Z   8
loop_
 _symmetry_equiv_pos_site_id
 _symmetry_equiv_pos_as_xyz
  1  'x, y, z'
loop_
 _atom_site_type_symbol
 _atom_site_label
 _atom_site_symmetry_multiplicity
 _atom_site_fract_x
 _atom_site_fract_y
 _atom_site_fract_z
 _atom_site_occupancy
  Hf  Hf0  1  0.99799698  0.00904990  0.50037957  1
  Hf  Hf1  1  0.25797920  0.71674424  0.46539026  1
  Hf  Hf2  1  0.77652201  0.53393776  0.25347456  1
  Hf  Hf3  1  0.28552719  0.03525301  0.24863610  1
  Hf  Hf4  1  0.73986538  0.78645341  0.03512034  1
  Hf  Hf5  1  0.48677398  0.48838960  0.48724381  1
  Hf  Hf6  1  0.96633200  0.74200898  0.71520147  1
  Hf  Hf7  1  0.49911121  0.99925879  0.00168922  1
  Hf  Hf8  1  0.01118579  0.50127260  0.99532488  1
  Hf  Hf9  1  0.53701842  0.25421481  0.78422116  1
  Hf  Hf10  1  0.03303120  0.25279922  0.28513827  1
  Hf  Hf11  1  0.46116444  0.74189610  0.21383409  1
  Hf  Hf12  1  0.25952806  0.21548409  0.96744940  1
  Hf  Hf13  1  0.21571844  0.46163433  0.74740374  1
  Hf  Hf14  1  0.71829219  0.97141334  0.75219017  1
  Hf  Hf15  1  0.75331990  0.29085622  0.54204586  1
  N  N0  1  0.73196250  0.76009870  0.27186910  1
  N  N1  1  0.53959788  0.27402218  0.04457519  1
  N  N2  1  0.26813397  0.23066869  0.72300120  1
  N  N3  1  0.51752456  0.74617395  0.47429864  1
  N  N4  1  0.22316562  0.77340097  0.23848499  1
  N  N5  1  0.22814343  0.95418202  0.96368913  1
  N  N6  1  0.73004167  0.49365651  0.45688899  1
  N  N7  1  0.00952272  0.54368510  0.77365869  1
  N  N8  1  0.25635391  0.27100917  0.22610166  1
  N  N9  1  0.48772997  0.25915251  0.53177635  1
  N  N10  1  0.77398237  0.22634914  0.76734137  1
  N  N11  1  0.77361554  0.04500398  0.03254331  1
  N  N12  1  0.46719008  0.72870209  0.95457537  1
  N  N13  1  0.23933219  0.46477004  0.01475142  1
  N  N14  1  0.26905893  0.51344706  0.54284337  1
  N  N15  1  0.94567777  0.21819982  0.48213572  1
  O  O0  1  0.95965981  0.00195771  0.73031157  1
  O  O1  1  0.05383884  0.77664324  0.51896092  1
  O  O2  1  0.44974298  0.96421372  0.72667642  1
  O  O3  1  0.03692296  0.99259688  0.26682266  1
  O  O4  1  0.98551501  0.46008948  0.23094493  1
  O  O5  1  0.75071109  0.73014439  0.78160093  1
  O  O6  1  0.75967426  0.53582095  0.98224331  1
  O  O7  1  0.54353253  0.03534630  0.26916188  1
loop_
_geom_bond_atom_site_label_1
_geom_bond_atom_site_label_2
_geom_bond_distance
_geom_bond_site_symmetry_2
Hf0 N15 2.050822 1_555
Hf0 N2 2.103412 1_655
Hf0 O3 2.132306 1_645
Hf0 O0 2.148286 1_555
Hf0 N0 2.167636 1_545
Hf0 O1 2.264837 1_645
Hf1 O2 2.095571 1_555
Hf1 N14 2.104038 1_555
Hf1 N4 2.136802 1_555
Hf1 O1 2.145021 1_555
Hf1 N3 2.145476 1_555
Hf1 O4 2.225832 1_455
Hf2 N6 2.049139 1_555
Hf2 N1 2.074220 1_555
Hf2 N0 2.086238 1_555
Hf2 O4 2.153612 1_555
Hf2 O1 2.287005 1_655
Hf2 O6 2.318096 1_554
Hf3 N4 2.115092 1_545
Hf3 O3 2.127076 1_545
Hf3 N9 2.139261 1_555
Hf3 N5 2.158808 1_544
Hf3 O7 2.178721 1_555
Hf3 N8 2.203425 1_555
Hf4 N12 2.046115 1_554
Hf4 O5 2.133446 1_554
Hf4 O6 2.143917 1_554
Hf4 N0 2.164413 1_555
Hf4 N11 2.170909 1_565
Hf4 O3 2.226250 1_655
Hf5 N8 2.077528 1_555
Hf5 N9 2.149372 1_555
Hf5 N14 2.153218 1_555
Hf5 N6 2.194268 1_555
Hf5 N3 2.206833 1_555
Hf5 O5 2.346696 1_555
Hf6 N7 2.057903 1_655
Hf6 O5 2.110096 1_555
Hf6 N5 2.122183 1_655
Hf6 O1 2.149688 1_655
Hf6 N6 2.156981 1_555
Hf6 O0 2.234577 1_565
Hf7 O7 2.118296 1_565
Hf7 N5 2.132228 1_554
Hf7 N12 2.144849 1_554
Hf7 N1 2.168700 1_565
Hf7 O2 2.175906 1_554
Hf7 N11 2.178946 1_565
Hf8 N13 2.062072 1_556
Hf8 N7 2.073991 1_555
Hf8 N4 2.148846 1_556
Hf8 N10 2.171158 1_455
Hf8 O4 2.259462 1_456
Hf8 O6 2.264331 1_455
Hf9 N9 2.108514 1_555
Hf9 O6 2.121686 1_555
Hf9 N2 2.126675 1_555
Hf9 N10 2.188118 1_555
Hf9 O2 2.188941 1_545
Hf9 N1 2.202843 1_556
Hf10 N11 2.120722 1_455
Hf10 N8 2.128999 1_555
Hf10 O4 2.131845 1_455
Hf10 N15 2.155141 1_455
Hf10 N14 2.192700 1_555
Hf10 O3 2.220292 1_545
Hf11 N13 2.098810 1_555
Hf11 N3 2.134756 1_555
Hf11 N0 2.163579 1_555
Hf11 O7 2.228049 1_565
Hf11 N4 2.233389 1_555
Hf11 N12 2.236270 1_554
Hf12 N1 2.109837 1_556
Hf12 N13 2.139373 1_556
Hf12 N8 2.147743 1_556
Hf12 N5 2.177744 1_545
Hf12 N2 2.195256 1_555
Hf12 O0 2.260435 1_455
Hf13 N14 2.124748 1_555
Hf13 N12 2.145442 1_555
Hf13 N2 2.154970 1_555
Hf13 N7 2.178446 1_555
Hf13 N13 2.253069 1_556
Hf13 N15 2.262982 1_455
Hf14 N10 2.047147 1_565
Hf14 O0 2.096964 1_565
Hf14 N3 2.114740 1_555
Hf14 N11 2.134248 1_566
Hf14 O2 2.236375 1_555
Hf14 O5 2.283908 1_555
Hf15 N15 2.119447 1_555
Hf15 N7 2.151694 1_655
Hf15 N6 2.163503 1_555
Hf15 N10 2.176827 1_555
Hf15 O7 2.187839 1_555
Hf15 N9 2.188632 1_555
