# generated using pymatgen
data_LiVF6
_symmetry_space_group_name_H-M   'P 1'
_cell_length_a   5.70561119
_cell_length_b   5.70561119
_cell_length_c   4.84209400
_cell_angle_alpha   90.00000000
_cell_angle_beta   90.00000000
_cell_angle_gamma   119.99999060
_symmetry_Int_Tables_number   1
_chemical_formula_structural   LiVF6
_chemical_formula_sum   'Li1 V1 F6'
_cell_volume   136.51118462
_cell_formula_units_Z   1
loop_
 _symmetry_equiv_pos_site_id
 _symmetry_equiv_pos_as_xyz
  1  'x, y, z'
loop_
 _atom_site_type_symbol
 _atom_site_label
 _atom_site_symmetry_multiplicity
 _atom_site_fract_x
 _atom_site_fract_y
 _atom_site_fract_z
 _atom_site_occupancy
  Li  Li0  1  0.66666700  0.33333300  0.70010900  1
  V  V0  1  0.33333300  0.66666700  0.01450300  1
  F  F0  1  0.63863800  0.81931900  0.21743000  1
  F  F1  1  0.18068100  0.36136200  0.21743000  1
  F  F2  1  0.48402900  0.51597100  0.78355200  1
  F  F3  1  0.18068100  0.81931900  0.21743000  1
  F  F4  1  0.48402900  0.96805700  0.78355200  1
  F  F5  1  0.03194300  0.51597100  0.78355200  1
loop_
_geom_bond_atom_site_label_1
_geom_bond_atom_site_label_2
_geom_bond_distance
_geom_bond_site_symmetry_2
F0 V0 1.800356 1_555
F1 V0 1.800356 1_555
F2 Li0 1.849574 1_555
F2 V0 1.862364 1_556
F3 V0 1.800352 1_555
F4 Li0 1.849574 1_565
F4 V0 1.862356 1_556
F5 Li0 1.849574 1_455
F5 V0 1.862356 1_556
