# generated using pymatgen
data_K2DyPCO7
_symmetry_space_group_name_H-M   'P 1'
_cell_length_a   7.14589700
_cell_length_b   5.84144100
_cell_length_c   9.99244555
_cell_angle_alpha   88.06523485
_cell_angle_beta   90.00000000
_cell_angle_gamma   90.00000000
_symmetry_Int_Tables_number   1
_chemical_formula_structural   K2DyPCO7
_chemical_formula_sum   'K4 Dy2 P2 C2 O14'
_cell_volume   416.87022949
_cell_formula_units_Z   2
loop_
 _symmetry_equiv_pos_site_id
 _symmetry_equiv_pos_as_xyz
  1  'x, y, z'
loop_
 _atom_site_type_symbol
 _atom_site_label
 _atom_site_symmetry_multiplicity
 _atom_site_fract_x
 _atom_site_fract_y
 _atom_site_fract_z
 _atom_site_occupancy
  K  K0  1  0.48860300  0.24706500  0.77875300  1
  K  K1  1  0.01139700  0.24706500  0.77875300  1
  K  K2  1  0.51139700  0.75293500  0.22124700  1
  K  K3  1  0.98860300  0.75293500  0.22124700  1
  Dy  Dy0  1  0.75000000  0.78055100  0.63199400  1
  Dy  Dy1  1  0.25000000  0.21944900  0.36800600  1
  P  P0  1  0.25000000  0.71077300  0.56908000  1
  P  P1  1  0.75000000  0.28922700  0.43092000  1
  C  C0  1  0.75000000  0.72896900  0.90671200  1
  C  C1  1  0.25000000  0.27103100  0.09328800  1
  O  O0  1  0.25000000  0.30161100  0.96844200  1
  O  O1  1  0.75000000  0.93330600  0.84603400  1
  O  O2  1  0.75000000  0.55564600  0.82343900  1
  O  O3  1  0.07028300  0.77013400  0.64762300  1
  O  O4  1  0.42971700  0.77013400  0.64762300  1
  O  O5  1  0.75000000  0.15207200  0.56866700  1
  O  O6  1  0.25000000  0.44835300  0.54157500  1
  O  O7  1  0.75000000  0.55164700  0.45842500  1
  O  O8  1  0.25000000  0.84792800  0.43133300  1
  O  O9  1  0.57028300  0.22986600  0.35237700  1
  O  O10  1  0.92971700  0.22986600  0.35237700  1
  O  O11  1  0.25000000  0.44435400  0.17656100  1
  O  O12  1  0.25000000  0.06669400  0.15396600  1
  O  O13  1  0.75000000  0.69838900  0.03155800  1
loop_
_geom_bond_atom_site_label_1
_geom_bond_atom_site_label_2
_geom_bond_distance
_geom_bond_site_symmetry_2
K0 O0 2.577246 1_555
K0 O2 2.644249 1_555
K0 O1 2.686461 1_545
K0 O5 2.877955 1_555
K0 O6 3.117427 1_555
K0 O4 3.146755 1_545
K0 O4 3.310525 1_555
K1 O0 2.577246 1_555
K1 O2 2.644249 1_455
K1 O1 2.686461 1_445
K1 O5 2.877955 1_455
K1 O6 3.117427 1_555
K1 O3 3.146755 1_545
K1 O3 3.310525 1_555
K2 O13 2.577246 1_555
K2 O11 2.644249 1_555
K2 O12 2.686461 1_565
K2 O8 2.877955 1_555
K2 O7 3.117427 1_555
K2 O9 3.146755 1_565
K2 O9 3.310525 1_555
K3 O13 2.577246 1_555
K3 O11 2.644249 1_655
K3 O12 2.686461 1_665
K3 O8 2.877955 1_655
K3 O7 3.117427 1_555
K3 O10 3.146755 1_565
K3 O10 3.310525 1_555
Dy0 O7 2.225439 1_555
Dy0 O5 2.239987 1_565
Dy0 O2 2.283828 1_555
Dy0 O3 2.294698 1_655
Dy0 O4 2.294698 1_555
Dy0 O1 2.345096 1_555
Dy1 O6 2.225439 1_555
Dy1 O8 2.239987 1_545
Dy1 O11 2.283828 1_555
Dy1 O9 2.294698 1_555
Dy1 O10 2.294698 1_455
Dy1 O12 2.345096 1_555
C0 O13 1.254257 1_556
C0 O1 1.320414 1_555
C0 O2 1.332046 1_555
C1 O0 1.254257 1_554
C1 O12 1.320414 1_555
C1 O11 1.332046 1_555
O3 P0 1.550436 1_555
O4 P0 1.550436 1_555
O5 P1 1.569073 1_555
O6 P0 1.566462 1_555
O7 P1 1.566462 1_555
O8 P0 1.569073 1_555
O9 P1 1.550436 1_555
O10 P1 1.550436 1_555
