# generated using pymatgen
data_Na3CaPCO7
_symmetry_space_group_name_H-M   'P 1'
_cell_length_a   7.08856600
_cell_length_b   5.27939300
_cell_length_c   9.19071909
_cell_angle_alpha   89.79805244
_cell_angle_beta   90.00000000
_cell_angle_gamma   90.00000000
_symmetry_Int_Tables_number   1
_chemical_formula_structural   Na3CaPCO7
_chemical_formula_sum   'Na6 Ca2 P2 C2 O14'
_cell_volume   343.94513761
_cell_formula_units_Z   2
loop_
 _symmetry_equiv_pos_site_id
 _symmetry_equiv_pos_as_xyz
  1  'x, y, z'
loop_
 _atom_site_type_symbol
 _atom_site_label
 _atom_site_symmetry_multiplicity
 _atom_site_fract_x
 _atom_site_fract_y
 _atom_site_fract_z
 _atom_site_occupancy
  Na  Na0  1  0.25000000  0.75986900  0.91644500  1
  Na  Na1  1  0.00669200  0.24819300  0.74135600  1
  Na  Na2  1  0.49330800  0.24819300  0.74135600  1
  Na  Na3  1  0.50669200  0.75180700  0.25864400  1
  Na  Na4  1  0.99330800  0.75180700  0.25864400  1
  Na  Na5  1  0.75000000  0.24013100  0.08355500  1
  Ca  Ca0  1  0.75000000  0.77217800  0.63877000  1
  Ca  Ca1  1  0.25000000  0.22782200  0.36123000  1
  P  P0  1  0.25000000  0.69992600  0.59322200  1
  P  P1  1  0.75000000  0.30007400  0.40677800  1
  C  C0  1  0.75000000  0.73530300  0.94342400  1
  C  C1  1  0.25000000  0.26469700  0.05657600  1
  O  O0  1  0.25000000  0.28563600  0.91632800  1
  O  O1  1  0.75000000  0.95874800  0.88164700  1
  O  O2  1  0.75000000  0.53211600  0.86222500  1
  O  O3  1  0.07326800  0.78939400  0.67988700  1
  O  O4  1  0.42673200  0.78939400  0.67988700  1
  O  O5  1  0.25000000  0.40500000  0.58646500  1
  O  O6  1  0.75000000  0.19814900  0.56649200  1
  O  O7  1  0.25000000  0.80185100  0.43350800  1
  O  O8  1  0.75000000  0.59500000  0.41353500  1
  O  O9  1  0.57326800  0.21060600  0.32011300  1
  O  O10  1  0.92673200  0.21060600  0.32011300  1
  O  O11  1  0.25000000  0.46788400  0.13777500  1
  O  O12  1  0.25000000  0.04125200  0.11835300  1
  O  O13  1  0.75000000  0.71436400  0.08367200  1
loop_
_geom_bond_atom_site_label_1
_geom_bond_atom_site_label_2
_geom_bond_distance
_geom_bond_site_symmetry_2
Na0 O12 2.381131 1_566
Na0 O0 2.503666 1_555
Na0 O4 2.513610 1_555
Na0 O3 2.513610 1_555
Na0 O11 2.547945 1_556
Na0 O0 2.775727 1_565
Na1 O0 2.366848 1_555
Na1 O5 2.382887 1_555
Na1 O6 2.442645 1_455
Na1 O3 2.533472 1_545
Na1 O2 2.608345 1_455
Na1 O1 2.700840 1_445
Na1 O3 2.948587 1_555
Na2 O0 2.366848 1_555
Na2 O5 2.382887 1_555
Na2 O6 2.442645 1_555
Na2 O4 2.533472 1_545
Na2 O2 2.608345 1_555
Na2 O1 2.700840 1_545
Na2 O4 2.948587 1_555
Na3 O13 2.366848 1_555
Na3 O8 2.382887 1_555
Na3 O7 2.442645 1_555
Na3 O9 2.533472 1_565
Na3 O11 2.608345 1_555
Na3 O12 2.700840 1_565
Na3 O9 2.948587 1_555
Na4 O13 2.366848 1_555
Na4 O8 2.382887 1_555
Na4 O7 2.442645 1_655
Na4 O10 2.533472 1_565
Na4 O11 2.608345 1_655
Na4 O12 2.700840 1_665
Na4 O10 2.948587 1_555
Na5 O1 2.381131 1_544
Na5 O13 2.503666 1_555
Na5 O9 2.513610 1_555
Na5 O10 2.513610 1_555
Na5 O2 2.547945 1_554
Na5 O13 2.775727 1_545
Ca0 O8 2.274600 1_555
Ca0 O4 2.324287 1_555
Ca0 O3 2.324287 1_655
Ca0 O6 2.342681 1_565
Ca0 O2 2.409490 1_555
Ca0 O1 2.443043 1_555
Ca1 O5 2.274600 1_555
Ca1 O10 2.324287 1_455
Ca1 O9 2.324287 1_555
Ca1 O7 2.342681 1_545
Ca1 O11 2.409490 1_555
Ca1 O12 2.443043 1_555
C0 O13 1.293323 1_556
C0 O1 1.307375 1_555
C0 O2 1.308918 1_555
C1 O0 1.293323 1_554
C1 O12 1.307375 1_555
C1 O11 1.308918 1_555
O3 P0 1.558729 1_555
O4 P0 1.558729 1_555
O5 P0 1.558487 1_555
O6 P1 1.561626 1_555
O7 P0 1.561626 1_555
O8 P1 1.558487 1_555
O9 P1 1.558729 1_555
O10 P1 1.558729 1_555
