# generated using pymatgen
data_Na8Fe7(PO4)8
_symmetry_space_group_name_H-M   'P 1'
_cell_length_a   8.09152703
_cell_length_b   8.09152703
_cell_length_c   11.52262051
_cell_angle_alpha   74.44077360
_cell_angle_beta   74.44077360
_cell_angle_gamma   102.85885612
_symmetry_Int_Tables_number   1
_chemical_formula_structural   Na8Fe7(PO4)8
_chemical_formula_sum   'Na8 Fe7 P8 O32'
_cell_volume   663.95129199
_cell_formula_units_Z   1
loop_
 _symmetry_equiv_pos_site_id
 _symmetry_equiv_pos_as_xyz
  1  'x, y, z'
loop_
 _atom_site_type_symbol
 _atom_site_label
 _atom_site_symmetry_multiplicity
 _atom_site_fract_x
 _atom_site_fract_y
 _atom_site_fract_z
 _atom_site_occupancy
  Na  Na0  1  0.26129400  0.50740900  0.48444700  1
  Na  Na1  1  0.50740900  0.26129400  0.48444700  1
  Na  Na2  1  0.74673700  0.99856500  0.50267200  1
  Na  Na3  1  0.99856500  0.74673700  0.50267200  1
  Na  Na4  1  0.74541900  0.98777000  0.00256000  1
  Na  Na5  1  0.98777000  0.74541900  0.00256000  1
  Na  Na6  1  0.49887800  0.25957700  0.00561400  1
  Na  Na7  1  0.25957700  0.49887800  0.00561400  1
  Fe  Fe0  1  0.01445500  0.01445500  0.21690700  1
  Fe  Fe1  1  0.47668100  0.97681600  0.28639800  1
  Fe  Fe2  1  0.97681600  0.47668100  0.28639800  1
  Fe  Fe3  1  0.02553400  0.02553400  0.71312600  1
  Fe  Fe4  1  0.52594100  0.52594100  0.71253900  1
  Fe  Fe5  1  0.49398300  0.99379600  0.78370200  1
  Fe  Fe6  1  0.99379600  0.49398300  0.78370200  1
  P  P0  1  0.78899500  0.27625000  0.11201700  1
  P  P1  1  0.27625000  0.78899500  0.11201700  1
  P  P2  1  0.65762300  0.65762300  0.39136200  1
  P  P3  1  0.14383600  0.14383600  0.39977500  1
  P  P4  1  0.35169200  0.85454800  0.60554500  1
  P  P5  1  0.85454800  0.35169200  0.60554500  1
  P  P6  1  0.71294500  0.71294500  0.88653700  1
  P  P7  1  0.21145600  0.21145600  0.89133100  1
  O  O0  1  0.19268500  0.19268500  0.03293100  1
  O  O1  1  0.68987200  0.68987200  0.02534800  1
  O  O2  1  0.92722300  0.42812600  0.12813000  1
  O  O3  1  0.42812600  0.92722300  0.12813000  1
  O  O4  1  0.58571000  0.24294100  0.18926300  1
  O  O5  1  0.80147200  0.08305200  0.17277000  1
  O  O6  1  0.24294100  0.58571000  0.18926300  1
  O  O7  1  0.08305200  0.80147200  0.17277000  1
  O  O8  1  0.21789000  0.01793200  0.32605200  1
  O  O9  1  0.01793200  0.21789000  0.32605200  1
  O  O10  1  0.53197800  0.73834700  0.32646000  1
  O  O11  1  0.73834700  0.53197800  0.32646000  1
  O  O12  1  0.29036900  0.29036900  0.40269100  1
  O  O13  1  0.81108400  0.81108400  0.39021200  1
  O  O14  1  0.97508800  0.47028900  0.46053100  1
  O  O15  1  0.47028900  0.97508800  0.46053100  1
  O  O16  1  0.01282300  0.01282300  0.53613200  1
  O  O17  1  0.53280900  0.53280900  0.53165500  1
  O  O18  1  0.69815700  0.20134900  0.60830300  1
  O  O19  1  0.20134900  0.69815700  0.60830300  1
  O  O20  1  0.98402200  0.28565700  0.67217900  1
  O  O21  1  0.48266800  0.79292000  0.67217900  1
  O  O22  1  0.28565700  0.98402200  0.67217900  1
  O  O23  1  0.79292000  0.48266800  0.67217900  1
  O  O24  1  0.91024400  0.71378600  0.81428300  1
  O  O25  1  0.71378600  0.91024400  0.81428300  1
  O  O26  1  0.21119800  0.40809100  0.82341900  1
  O  O27  1  0.40809100  0.21119800  0.82341900  1
  O  O28  1  0.06244200  0.06244200  0.88464200  1
  O  O29  1  0.56442700  0.56442700  0.87555400  1
  O  O30  1  0.81282000  0.31231000  0.96925900  1
  O  O31  1  0.31231000  0.81282000  0.96925900  1
loop_
_geom_bond_atom_site_label_1
_geom_bond_atom_site_label_2
_geom_bond_distance
_geom_bond_site_symmetry_2
Na0 O12 2.231483 1_555
Na0 O14 2.367796 1_455
Na0 O17 2.380111 1_555
Na0 O19 2.407858 1_555
Na0 O10 2.411915 1_555
Na0 O20 2.540618 1_455
Na1 O12 2.231483 1_555
Na1 O15 2.367796 1_545
Na1 O17 2.380111 1_555
Na1 O18 2.407858 1_555
Na1 O11 2.411915 1_555
Na1 O22 2.540618 1_545
Na2 O16 2.270720 1_665
Na2 O13 2.301257 1_555
Na2 O18 2.330259 1_565
Na2 O21 2.363114 1_555
Na2 O15 2.391355 1_555
Na2 O9 2.457604 1_665
Na3 O16 2.270720 1_665
Na3 O13 2.301257 1_555
Na3 O19 2.330259 1_655
Na3 O23 2.363114 1_555
Na3 O14 2.391355 1_555
Na3 O8 2.457604 1_665
Na4 O1 2.279506 1_555
Na4 O5 2.404046 1_565
Na4 O28 2.406524 1_664
Na4 O3 2.447860 1_555
Na4 O30 2.459752 1_564
Na4 O25 2.474272 1_554
Na5 O1 2.279506 1_555
Na5 O7 2.404046 1_655
Na5 O28 2.406524 1_664
Na5 O2 2.447860 1_555
Na5 O31 2.459752 1_654
Na5 O24 2.474272 1_554
Na6 O0 2.328893 1_555
Na6 O29 2.370639 1_554
Na6 O30 2.379350 1_554
Na6 O4 2.382567 1_555
Na6 O27 2.498087 1_554
Na6 O3 2.529275 1_545
Na7 O0 2.328893 1_555
Na7 O29 2.370639 1_554
Na7 O31 2.379350 1_554
Na7 O6 2.382567 1_555
Na7 O26 2.498087 1_554
Na7 O2 2.529275 1_455
Fe0 O5 2.069109 1_455
Fe0 O7 2.069109 1_545
Fe0 O0 2.108938 1_555
Fe0 O13 2.161598 1_445
Fe0 O8 2.324016 1_555
Fe0 O9 2.324016 1_555
Fe1 O15 1.989407 1_555
Fe1 O4 1.999929 1_565
Fe1 O10 2.038089 1_555
Fe1 O3 2.085167 1_555
Fe1 O8 2.140724 1_565
Fe1 O5 2.429940 1_565
Fe2 O14 1.989407 1_555
Fe2 O6 1.999929 1_655
Fe2 O11 2.038089 1_555
Fe2 O2 2.085167 1_555
Fe2 O9 2.140724 1_655
Fe2 O7 2.429940 1_655
Fe3 O16 2.097808 1_555
Fe3 O20 2.152332 1_455
Fe3 O22 2.152332 1_545
Fe3 O28 2.162811 1_555
Fe3 O24 2.320319 1_445
Fe3 O25 2.320319 1_445
Fe4 O17 2.055397 1_555
Fe4 O29 2.075242 1_555
Fe4 O23 2.211495 1_555
Fe4 O21 2.211495 1_555
Fe4 O26 2.355313 1_555
Fe4 O27 2.355313 1_555
Fe5 O25 2.118500 1_555
Fe5 O31 2.133741 1_555
Fe5 O27 2.142981 1_565
Fe5 O18 2.188017 1_565
Fe5 O21 2.327876 1_555
Fe5 O22 2.378305 1_555
Fe6 O24 2.118500 1_555
Fe6 O30 2.133741 1_555
Fe6 O26 2.142981 1_655
Fe6 O19 2.188017 1_655
Fe6 O23 2.327876 1_555
Fe6 O20 2.378305 1_555
O0 P7 1.559521 1_554
O1 P6 1.513967 1_554
O2 P0 1.554892 1_555
O3 P1 1.554892 1_555
O4 P0 1.568144 1_555
O5 P0 1.570072 1_555
O6 P1 1.568144 1_555
O7 P1 1.570072 1_555
O8 P3 1.606687 1_555
O9 P3 1.606687 1_555
O10 P2 1.568728 1_555
O11 P2 1.568728 1_555
O12 P3 1.493249 1_555
O13 P2 1.542733 1_555
O14 P5 1.585279 1_555
O15 P4 1.585279 1_555
O16 P3 1.558506 1_555
O17 P2 1.564443 1_555
O18 P5 1.534512 1_555
O19 P4 1.534512 1_555
O20 P5 1.559861 1_555
O21 P4 1.558110 1_555
O22 P4 1.559861 1_555
O23 P5 1.558110 1_555
O24 P6 1.587745 1_555
O25 P6 1.587745 1_555
O26 P7 1.574261 1_555
O27 P7 1.574261 1_555
O28 P7 1.538252 1_555
O29 P6 1.557156 1_555
O30 P0 1.541267 1_556
O31 P1 1.541267 1_556
