# generated using pymatgen
data_Li15(FeO6)2
_symmetry_space_group_name_H-M   'P 1'
_cell_length_a   5.44830300
_cell_length_b   5.82502089
_cell_length_c   8.09213193
_cell_angle_alpha   86.08709979
_cell_angle_beta   89.14808659
_cell_angle_gamma   89.56111653
_symmetry_Int_Tables_number   1
_chemical_formula_structural   Li15(FeO6)2
_chemical_formula_sum   'Li15 Fe2 O12'
_cell_volume   256.18311450
_cell_formula_units_Z   1
loop_
 _symmetry_equiv_pos_site_id
 _symmetry_equiv_pos_as_xyz
  1  'x, y, z'
loop_
 _atom_site_type_symbol
 _atom_site_label
 _atom_site_symmetry_multiplicity
 _atom_site_fract_x
 _atom_site_fract_y
 _atom_site_fract_z
 _atom_site_occupancy
  Li  Li0  1  0.98097600  0.31061300  0.65261800  1
  Li  Li1  1  0.85410900  0.72582600  0.63708300  1
  Li  Li2  1  0.85786500  0.43812200  0.93410500  1
  Li  Li3  1  0.77955300  0.03217900  0.27350100  1
  Li  Li4  1  0.63244200  0.79703800  0.89937100  1
  Li  Li5  1  0.68731100  0.48066100  0.20710800  1
  Li  Li6  1  0.65838400  0.06654100  0.56511600  1
  Li  Li7  1  0.51690600  0.19317600  0.83896100  1
  Li  Li8  1  0.34045200  0.89823800  0.40802200  1
  Li  Li9  1  0.30295600  0.56268100  0.79508000  1
  Li  Li10  1  0.37319300  0.19478100  0.12757400  1
  Li  Li11  1  0.19172600  0.94568200  0.69883600  1
  Li  Li12  1  0.20710600  0.61532600  0.08622700  1
  Li  Li13  1  0.12546200  0.25700100  0.37151600  1
  Li  Li14  1  0.00248300  0.68061200  0.35170900  1
  Fe  Fe0  1  0.49617800  0.48964200  0.50302700  1
  Fe  Fe1  1  0.00490600  0.01010600  0.99499100  1
  O  O0  1  0.84974400  0.00290000  0.76091900  1
  O  O1  1  0.86127000  0.70605300  0.06528700  1
  O  O2  1  0.78660900  0.32866800  0.42635400  1
  O  O3  1  0.64202900  0.49667400  0.73240500  1
  O  O4  1  0.71415200  0.18017900  0.06035900  1
  O  O5  1  0.66876300  0.78491400  0.43975000  1
  O  O6  1  0.33078500  0.19506100  0.56586600  1
  O  O7  1  0.29492400  0.85136300  0.91434100  1
  O  O8  1  0.34867700  0.48381200  0.28208500  1
  O  O9  1  0.20022700  0.65837300  0.57263800  1
  O  O10  1  0.17876600  0.30345500  0.93500200  1
  O  O11  1  0.12973300  0.99844400  0.23674200  1
loop_
_geom_bond_atom_site_label_1
_geom_bond_atom_site_label_2
_geom_bond_distance
_geom_bond_site_symmetry_2
Li0 O0 2.068501 1_555
Li0 O2 2.124748 1_555
Li0 O6 2.140851 1_655
Li0 O3 2.243020 1_555
Li0 O9 2.405092 1_655
Li0 O10 2.538536 1_655
Li1 O3 1.889035 1_555
Li1 O5 1.911997 1_555
Li1 O0 1.956802 1_565
Li1 O9 1.992433 1_655
Li2 O10 1.910698 1_655
Li2 O4 1.923325 1_556
Li2 O1 1.946832 1_556
Li2 O3 2.034241 1_555
Li3 O4 1.911979 1_555
Li3 O11 1.937134 1_645
Li3 O5 1.993354 1_545
Li3 O2 2.192741 1_555
Li4 O7 1.867099 1_555
Li4 O1 1.892184 1_556
Li4 O0 1.973278 1_565
Li4 O3 2.282226 1_555
Li5 O1 1.928775 1_555
Li5 O8 1.933939 1_555
Li5 O2 2.007747 1_555
Li5 O4 2.183978 1_555
Li6 O0 1.923012 1_555
Li6 O6 1.930294 1_555
Li6 O2 1.959424 1_555
Li6 O5 1.986846 1_545
Li7 O3 2.031396 1_555
Li7 O4 2.099494 1_556
Li7 O10 2.101930 1_555
Li7 O0 2.224051 1_555
Li7 O7 2.376623 1_545
Li7 O6 2.444445 1_555
Li8 O11 1.872549 1_555
Li8 O5 1.916687 1_555
Li8 O9 2.010583 1_555
Li8 O6 2.218493 1_565
Li9 O9 1.937090 1_555
Li9 O10 1.944086 1_555
Li9 O3 1.950825 1_555
Li9 O7 1.995018 1_555
Li10 O11 1.923105 1_545
Li10 O4 1.930746 1_555
Li10 O10 1.963510 1_554
Li10 O8 2.166699 1_555
Li11 O7 1.884890 1_555
Li11 O6 1.902961 1_565
Li11 O0 1.954629 1_465
Li11 O9 2.019047 1_555
Li12 O8 1.885559 1_555
Li12 O7 1.945066 1_554
Li12 O1 1.959671 1_455
Li12 O10 2.266037 1_554
Li13 O8 1.901629 1_555
Li13 O11 1.918643 1_545
Li13 O2 1.941305 1_455
Li13 O6 1.955422 1_555
Li14 O5 2.046024 1_455
Li14 O9 2.096954 1_555
Li14 O11 2.130536 1_555
Li14 O8 2.283120 1_555
Li14 O2 2.407867 1_455
Li14 O1 2.447515 1_455
Fe0 O2 1.948210 1_555
Fe0 O8 1.973566 1_555
Fe0 O6 1.976361 1_555
Fe0 O9 1.976748 1_555
Fe0 O5 1.998722 1_555
Fe0 O3 2.033024 1_555
Fe1 O4 1.947623 1_456
Fe1 O7 1.951156 1_545
Fe1 O1 1.985786 1_446
Fe1 O10 1.987638 1_555
Fe1 O11 2.077233 1_546
Fe1 O0 2.088826 1_455
