# generated using pymatgen
data_Li4V5(Fe2O9)2
_symmetry_space_group_name_H-M   'P 1'
_cell_length_a   2.96343500
_cell_length_b   9.06238600
_cell_length_c   25.79740500
_cell_angle_alpha   90.00000000
_cell_angle_beta   90.00000000
_cell_angle_gamma   90.00000000
_symmetry_Int_Tables_number   1
_chemical_formula_structural   Li4V5(Fe2O9)2
_chemical_formula_sum   'Li8 V10 Fe8 O36'
_cell_volume   692.80973910
_cell_formula_units_Z   2
loop_
 _symmetry_equiv_pos_site_id
 _symmetry_equiv_pos_as_xyz
  1  'x, y, z'
loop_
 _atom_site_type_symbol
 _atom_site_label
 _atom_site_symmetry_multiplicity
 _atom_site_fract_x
 _atom_site_fract_y
 _atom_site_fract_z
 _atom_site_occupancy
  Li  Li0  1  0.00000000  0.19502000  0.98094800  1
  Li  Li1  1  0.00000000  0.20132500  0.17768000  1
  Li  Li2  1  0.00000000  0.29867500  0.67768000  1
  Li  Li3  1  0.00000000  0.30498000  0.48094800  1
  Li  Li4  1  0.00000000  0.69502000  0.51905200  1
  Li  Li5  1  0.00000000  0.70132500  0.32232000  1
  Li  Li6  1  0.00000000  0.79867500  0.82232000  1
  Li  Li7  1  0.00000000  0.80498000  0.01905200  1
  V  V0  1  0.00000000  0.00000000  0.50000000  1
  V  V1  1  0.00000000  0.99472100  0.10205900  1
  V  V2  1  0.50000000  0.14822500  0.80849300  1
  V  V3  1  0.50000000  0.35177500  0.30849300  1
  V  V4  1  0.00000000  0.50527900  0.60205900  1
  V  V5  1  0.00000000  0.50000000  0.00000000  1
  V  V6  1  0.00000000  0.49472100  0.39794100  1
  V  V7  1  0.50000000  0.64822500  0.69150700  1
  V  V8  1  0.50000000  0.85177500  0.19150700  1
  V  V9  1  0.00000000  0.00527900  0.89794100  1
  Fe  Fe0  1  0.00000000  0.00404000  0.30504900  1
  Fe  Fe1  1  0.50000000  0.15010800  0.58611800  1
  Fe  Fe2  1  0.50000000  0.34989200  0.08611800  1
  Fe  Fe3  1  0.00000000  0.49596000  0.80504900  1
  Fe  Fe4  1  0.00000000  0.50404000  0.19495100  1
  Fe  Fe5  1  0.50000000  0.65010800  0.91388200  1
  Fe  Fe6  1  0.50000000  0.84989200  0.41388200  1
  Fe  Fe7  1  0.00000000  0.99596000  0.69495100  1
  O  O0  1  0.00000000  0.99479200  0.42644200  1
  O  O1  1  0.00000000  0.00520800  0.57355800  1
  O  O2  1  0.50000000  0.06403100  0.94115000  1
  O  O3  1  0.50000000  0.04412700  0.15821100  1
  O  O4  1  0.50000000  0.12246200  0.66499000  1
  O  O5  1  0.00000000  0.09392000  0.76186800  1
  O  O6  1  0.50000000  0.15013800  0.50391400  1
  O  O7  1  0.50000000  0.14828500  0.29274200  1
  O  O8  1  0.00000000  0.18264600  0.85854100  1
  O  O9  1  0.00000000  0.19855900  0.08775100  1
  O  O10  1  0.00000000  0.30144100  0.58775100  1
  O  O11  1  0.00000000  0.31735400  0.35854100  1
  O  O12  1  0.50000000  0.35171500  0.79274200  1
  O  O13  1  0.50000000  0.34986200  0.00391400  1
  O  O14  1  0.00000000  0.40608000  0.26186800  1
  O  O15  1  0.50000000  0.37753800  0.16499000  1
  O  O16  1  0.50000000  0.45587300  0.65821100  1
  O  O17  1  0.50000000  0.43596900  0.44115000  1
  O  O18  1  0.00000000  0.49479200  0.07355800  1
  O  O19  1  0.00000000  0.50520800  0.92644200  1
  O  O20  1  0.50000000  0.56403100  0.55885000  1
  O  O21  1  0.50000000  0.54412700  0.34178900  1
  O  O22  1  0.50000000  0.62246200  0.83501000  1
  O  O23  1  0.00000000  0.59392000  0.73813200  1
  O  O24  1  0.50000000  0.65013800  0.99608600  1
  O  O25  1  0.50000000  0.64828500  0.20725800  1
  O  O26  1  0.00000000  0.68264600  0.64145900  1
  O  O27  1  0.00000000  0.69855900  0.41224900  1
  O  O28  1  0.00000000  0.80144100  0.91224900  1
  O  O29  1  0.00000000  0.81735400  0.14145900  1
  O  O30  1  0.50000000  0.85171500  0.70725800  1
  O  O31  1  0.50000000  0.84986200  0.49608600  1
  O  O32  1  0.00000000  0.90608000  0.23813200  1
  O  O33  1  0.50000000  0.87753800  0.33501000  1
  O  O34  1  0.50000000  0.95587300  0.84178900  1
  O  O35  1  0.50000000  0.93596900  0.05885000  1
loop_
_geom_bond_atom_site_label_1
_geom_bond_atom_site_label_2
_geom_bond_distance
_geom_bond_site_symmetry_2
Li0 O13 2.124989 1_456
Li0 O13 2.124989 1_556
Li0 O2 2.158405 1_555
Li0 O2 2.158405 1_455
Li1 O3 2.115938 1_455
Li1 O3 2.115938 1_555
Li1 O15 2.202903 1_555
Li1 O15 2.202903 1_455
Li1 O9 2.320070 1_555
Li2 O16 2.115938 1_555
Li2 O16 2.115938 1_455
Li2 O4 2.202903 1_555
Li2 O4 2.202903 1_455
Li2 O10 2.320070 1_555
Li3 O6 2.124989 1_555
Li3 O6 2.124989 1_455
Li3 O17 2.158405 1_555
Li3 O17 2.158405 1_455
Li4 O31 2.124989 1_455
Li4 O31 2.124989 1_555
Li4 O20 2.158405 1_455
Li4 O20 2.158405 1_555
Li5 O21 2.115938 1_455
Li5 O21 2.115938 1_555
Li5 O33 2.202903 1_455
Li5 O33 2.202903 1_555
Li5 O27 2.320070 1_555
Li6 O34 2.115938 1_455
Li6 O34 2.115938 1_555
Li6 O22 2.202903 1_555
Li6 O22 2.202903 1_455
Li6 O28 2.320070 1_555
Li7 O24 2.124989 1_454
Li7 O24 2.124989 1_554
Li7 O35 2.158405 1_555
Li7 O35 2.158405 1_455
Fe0 O32 1.941175 1_545
Fe0 O7 2.001267 1_455
Fe0 O7 2.001267 1_555
Fe0 O33 2.026608 1_545
Fe0 O33 2.026608 1_445
Fe1 O1 2.006193 1_655
Fe1 O1 2.006193 1_555
Fe1 O10 2.019432 1_555
Fe1 O10 2.019432 1_655
Fe1 O4 2.050060 1_555
Fe1 O6 2.120650 1_555
Fe2 O18 2.006193 1_655
Fe2 O18 2.006193 1_555
Fe2 O9 2.019432 1_555
Fe2 O9 2.019432 1_655
Fe2 O15 2.050060 1_555
Fe2 O13 2.120650 1_555
Fe3 O23 1.941175 1_555
Fe3 O12 2.001267 1_555
Fe3 O12 2.001267 1_455
Fe3 O22 2.026608 1_555
Fe3 O22 2.026608 1_455
Fe4 O14 1.941175 1_555
Fe4 O25 2.001267 1_555
Fe4 O25 2.001267 1_455
Fe4 O15 2.026608 1_455
Fe4 O15 2.026608 1_555
Fe5 O19 2.006193 1_555
Fe5 O19 2.006193 1_655
Fe5 O28 2.019432 1_555
Fe5 O28 2.019432 1_655
Fe5 O22 2.050060 1_555
Fe5 O24 2.120650 1_555
Fe6 O0 2.006193 1_655
Fe6 O0 2.006193 1_555
Fe6 O27 2.019432 1_555
Fe6 O27 2.019432 1_655
Fe6 O33 2.050060 1_555
Fe6 O31 2.120650 1_555
Fe7 O5 1.941175 1_565
Fe7 O30 2.001267 1_455
Fe7 O30 2.001267 1_555
Fe7 O4 2.026608 1_565
Fe7 O4 2.026608 1_465
O0 V0 1.898192 1_565
O1 V0 1.898192 1_555
O2 V9 1.929115 1_555
O2 V9 1.929115 1_655
O3 V8 1.943304 1_545
O3 V1 2.119983 1_545
O3 V1 2.119983 1_645
O5 V2 1.970893 1_555
O5 V2 1.970893 1_455
O6 V0 2.014184 1_655
O6 V0 2.014184 1_555
O7 V3 1.888341 1_555
O8 V9 1.901772 1_555
O8 V2 1.989913 1_455
O8 V2 1.989913 1_555
O9 V1 1.883774 1_545
O10 V4 1.883774 1_555
O11 V6 1.901772 1_555
O11 V3 1.989913 1_455
O11 V3 1.989913 1_555
O12 V2 1.888341 1_555
O13 V5 2.014184 1_655
O13 V5 2.014184 1_555
O14 V3 1.970893 1_555
O14 V3 1.970893 1_455
O16 V7 1.943304 1_555
O16 V4 2.119983 1_655
O16 V4 2.119983 1_555
O17 V6 1.929115 1_555
O17 V6 1.929115 1_655
O18 V5 1.898192 1_555
O19 V5 1.898192 1_556
O20 V4 1.929115 1_655
O20 V4 1.929115 1_555
O21 V3 1.943304 1_555
O21 V6 2.119983 1_655
O21 V6 2.119983 1_555
O23 V7 1.970893 1_555
O23 V7 1.970893 1_455
O24 V5 2.014184 1_556
O24 V5 2.014184 1_656
O25 V8 1.888341 1_555
O26 V4 1.901772 1_555
O26 V7 1.989913 1_555
O26 V7 1.989913 1_455
O27 V6 1.883774 1_555
O28 V9 1.883774 1_565
O29 V1 1.901772 1_555
O29 V8 1.989913 1_555
O29 V8 1.989913 1_455
O30 V7 1.888341 1_555
O31 V0 2.014184 1_565
O31 V0 2.014184 1_665
O32 V8 1.970893 1_555
O32 V8 1.970893 1_455
O34 V2 1.943304 1_565
O34 V9 2.119983 1_665
O34 V9 2.119983 1_565
O35 V1 1.929115 1_555
O35 V1 1.929115 1_655
