# generated using pymatgen
data_Li3NbS4
_symmetry_space_group_name_H-M   'P 1'
_cell_length_a   8.92981156
_cell_length_b   8.92981591
_cell_length_c   8.92981413
_cell_angle_alpha   109.47147246
_cell_angle_beta   109.47142534
_cell_angle_gamma   109.47149077
_symmetry_Int_Tables_number   1
_chemical_formula_structural   Li3NbS4
_chemical_formula_sum   'Li12 Nb4 S16'
_cell_volume   548.15254367
_cell_formula_units_Z   4
loop_
 _symmetry_equiv_pos_site_id
 _symmetry_equiv_pos_as_xyz
  1  'x, y, z'
loop_
 _atom_site_type_symbol
 _atom_site_label
 _atom_site_symmetry_multiplicity
 _atom_site_fract_x
 _atom_site_fract_y
 _atom_site_fract_z
 _atom_site_occupancy
  Li  Li0  1  -0.00000152  0.49925818  0.23762650  1
  Li  Li1  1  0.49925806  -0.00000150  0.23762652  1
  Li  Li2  1  0.76238090  0.26164261  0.76238096  1
  Li  Li3  1  0.73835877  0.50073580  0.50073578  1
  Li  Li4  1  0.76238165  0.76238108  0.26164274  1
  Li  Li5  1  0.23762658  0.49925823  -0.00000158  1
  Li  Li6  1  0.50073574  0.50073571  0.73835875  1
  Li  Li7  1  0.49925792  0.23762666  -0.00000170  1
  Li  Li8  1  -0.00000149  0.23762661  0.49925810  1
  Li  Li9  1  0.50073596  0.73835901  0.50073585  1
  Li  Li10  1  0.23762685  -0.00000113  0.49925818  1
  Li  Li11  1  0.26164253  0.76238086  0.76238085  1
  Nb  Nb0  1  0.71797766  0.00000263  0.00000252  1
  Nb  Nb1  1  0.28202397  0.28202442  0.28202406  1
  Nb  Nb2  1  0.00000234  0.71797887  0.00000287  1
  Nb  Nb3  1  0.00000170  -0.00000081  0.71797631  1
  S  S0  1  0.75819736  0.24414738  0.24414710  1
  S  S1  1  0.75585195  0.51405296  0.00000001  1
  S  S2  1  0.22906871  0.00000002  -0.00000017  1
  S  S3  1  -0.00000043  0.22906720  -0.00000044  1
  S  S4  1  -0.00000037  -0.00000022  0.22906875  1
  S  S5  1  0.48594626  0.48594658  0.24179845  1
  S  S6  1  0.48594622  0.24179844  0.48594628  1
  S  S7  1  0.51405315  0.00000007  0.75585185  1
  S  S8  1  0.00000051  0.51405520  0.75585212  1
  S  S9  1  0.24179848  0.48594651  0.48594616  1
  S  S10  1  0.24414729  0.75819762  0.24414724  1
  S  S11  1  0.75585189  0.00000024  0.51405490  1
  S  S12  1  0.24414632  0.24414646  0.75819716  1
  S  S13  1  0.77093185  0.77093156  0.77093171  1
  S  S14  1  0.51405315  0.75585192  -0.00000013  1
  S  S15  1  0.00000006  0.75585084  0.51405232  1
loop_
_geom_bond_atom_site_label_1
_geom_bond_atom_site_label_2
_geom_bond_distance
_geom_bond_site_symmetry_2
Li0 S10 2.562821 1_555
Li0 S1 2.562827 1_455
Li0 S9 2.597749 1_555
Li0 S0 2.597753 1_455
Li0 S3 2.628863 1_555
Li0 S15 2.751832 1_555
Li1 S0 2.562821 1_555
Li1 S14 2.562829 1_545
Li1 S6 2.597750 1_555
Li1 S10 2.597752 1_545
Li1 S2 2.628856 1_555
Li1 S11 2.751852 1_555
Li2 S1 2.562777 1_556
Li2 S8 2.562791 1_655
Li2 S11 2.597791 1_555
Li2 S7 2.597799 1_555
Li2 S3 2.628842 1_656
Li2 S6 2.751878 1_555
Li3 S6 2.562784 1_555
Li3 S5 2.562786 1_555
Li3 S8 2.597788 1_655
Li3 S15 2.597791 1_655
Li3 S13 2.628864 1_555
Li3 S0 2.751830 1_555
Li4 S15 2.562777 1_655
Li4 S11 2.562792 1_565
Li4 S1 2.597799 1_555
Li4 S14 2.597806 1_555
Li4 S4 2.628829 1_665
Li4 S5 2.751878 1_555
Li5 S10 2.562822 1_555
Li5 S8 2.562836 1_554
Li5 S5 2.597749 1_555
Li5 S12 2.597755 1_554
Li5 S3 2.628863 1_555
Li5 S14 2.751841 1_555
Li6 S6 2.562784 1_555
Li6 S9 2.562786 1_555
Li6 S14 2.597792 1_556
Li6 S1 2.597795 1_556
Li6 S13 2.628865 1_555
Li6 S12 2.751836 1_555
Li7 S0 2.562823 1_555
Li7 S7 2.562829 1_554
Li7 S5 2.597750 1_555
Li7 S12 2.597755 1_554
Li7 S2 2.628853 1_555
Li7 S1 2.751840 1_555
Li8 S12 2.562820 1_555
Li8 S11 2.562836 1_455
Li8 S9 2.597750 1_555
Li8 S0 2.597757 1_455
Li8 S4 2.628853 1_555
Li8 S8 2.751852 1_555
Li9 S9 2.562783 1_555
Li9 S5 2.562783 1_555
Li9 S11 2.597783 1_565
Li9 S7 2.597792 1_565
Li9 S13 2.628867 1_555
Li9 S10 2.751832 1_555
Li10 S12 2.562820 1_555
Li10 S15 2.562831 1_545
Li10 S6 2.597745 1_555
Li10 S10 2.597754 1_545
Li10 S4 2.628856 1_555
Li10 S7 2.751842 1_555
Li11 S7 2.562779 1_565
Li11 S14 2.562779 1_556
Li11 S8 2.597787 1_555
Li11 S15 2.597799 1_555
Li11 S2 2.628836 1_566
Li11 S9 2.751876 1_555
Nb0 S0 2.328609 1_555
Nb0 S14 2.328633 1_545
Nb0 S7 2.328635 1_554
Nb0 S3 2.663119 1_655
Nb0 S4 2.663128 1_655
Nb0 S13 2.663155 1_544
Nb1 S9 2.328622 1_555
Nb1 S5 2.328623 1_555
Nb1 S6 2.328627 1_555
Nb1 S3 2.663127 1_555
Nb1 S2 2.663133 1_555
Nb1 S4 2.663134 1_555
Nb2 S10 2.328614 1_555
Nb2 S8 2.328635 1_554
Nb2 S1 2.328636 1_455
Nb2 S4 2.663119 1_565
Nb2 S2 2.663123 1_565
Nb2 S13 2.663146 1_454
Nb3 S12 2.328617 1_555
Nb3 S15 2.328623 1_545
Nb3 S11 2.328635 1_455
Nb3 S2 2.663122 1_556
Nb3 S3 2.663138 1_556
Nb3 S13 2.663140 1_445
