# generated using pymatgen
data_Li3Fe2(CO4)2
_symmetry_space_group_name_H-M   'P 1'
_cell_length_a   5.14882800
_cell_length_b   6.89109500
_cell_length_c   11.17013357
_cell_angle_alpha   79.07629093
_cell_angle_beta   90.00000000
_cell_angle_gamma   90.00000000
_symmetry_Int_Tables_number   1
_chemical_formula_structural   Li3Fe2(CO4)2
_chemical_formula_sum   'Li6 Fe4 C4 O16'
_cell_volume   389.14689526
_cell_formula_units_Z   2
loop_
 _symmetry_equiv_pos_site_id
 _symmetry_equiv_pos_as_xyz
  1  'x, y, z'
loop_
 _atom_site_type_symbol
 _atom_site_label
 _atom_site_symmetry_multiplicity
 _atom_site_fract_x
 _atom_site_fract_y
 _atom_site_fract_z
 _atom_site_occupancy
  Li  Li0  1  0.90357900  0.87379700  0.78716200  1
  Li  Li1  1  0.09642100  0.87379700  0.28716200  1
  Li  Li2  1  0.57411200  0.21322500  0.92994200  1
  Li  Li3  1  0.42588800  0.21322500  0.42994200  1
  Li  Li4  1  0.39188900  0.12518800  0.71523000  1
  Li  Li5  1  0.60811100  0.12518800  0.21523000  1
  Fe  Fe0  1  0.12034800  0.49051300  0.84365600  1
  Fe  Fe1  1  0.60424600  0.51316200  0.65631900  1
  Fe  Fe2  1  0.87965200  0.49051300  0.34365600  1
  Fe  Fe3  1  0.39575400  0.51316200  0.15631900  1
  C  C0  1  0.44574500  0.79968300  0.92421000  1
  C  C1  1  0.55425500  0.79968300  0.42421000  1
  C  C2  1  0.92135300  0.20416300  0.57077500  1
  C  C3  1  0.07864700  0.20416300  0.07077500  1
  O  O0  1  0.55255900  0.95312100  0.85729800  1
  O  O1  1  0.44744100  0.95312100  0.35729800  1
  O  O2  1  0.21395900  0.74391200  0.89346600  1
  O  O3  1  0.78604100  0.74391200  0.39346600  1
  O  O4  1  0.43922800  0.70467500  0.51891000  1
  O  O5  1  0.87714900  0.62111700  0.74082100  1
  O  O6  1  0.56077200  0.70467500  0.01891000  1
  O  O7  1  0.12285100  0.62111700  0.24082100  1
  O  O8  1  0.39322800  0.35690900  0.78844100  1
  O  O9  1  0.94496300  0.28828200  0.97366800  1
  O  O10  1  0.60677200  0.35690900  0.28844100  1
  O  O11  1  0.05503700  0.28828200  0.47366800  1
  O  O12  1  0.66998300  0.24318500  0.57327700  1
  O  O13  1  0.33001700  0.24318500  0.07327700  1
  O  O14  1  0.03513300  0.09259600  0.65800800  1
  O  O15  1  0.96486700  0.09259600  0.15800800  1
loop_
_geom_bond_atom_site_label_1
_geom_bond_atom_site_label_2
_geom_bond_distance
_geom_bond_site_symmetry_2
Li0 O5 1.913111 1_555
Li0 O14 1.997257 1_665
Li0 O0 2.083592 1_555
Li0 O2 2.088587 1_655
Li1 O7 1.913111 1_555
Li1 O15 1.997257 1_465
Li1 O1 2.083592 1_555
Li1 O3 2.088587 1_455
Li2 O8 1.937235 1_555
Li2 O9 2.061024 1_555
Li2 O13 2.076268 1_556
Li2 O0 2.105871 1_545
Li3 O10 1.937235 1_555
Li3 O11 2.061024 1_555
Li3 O12 2.076268 1_555
Li3 O1 2.105871 1_545
Li4 O8 1.927052 1_555
Li4 O14 1.971677 1_555
Li4 O0 1.973696 1_545
Li4 O12 2.176459 1_555
Li5 O10 1.927052 1_555
Li5 O15 1.971677 1_555
Li5 O1 1.973696 1_545
Li5 O13 2.176459 1_555
Fe0 O5 1.818140 1_455
Fe0 O8 1.848597 1_555
Fe0 O2 1.989799 1_555
Fe0 O9 2.024734 1_455
Fe1 O5 1.919609 1_555
Fe1 O8 1.978799 1_555
Fe1 O4 2.012891 1_555
Fe1 O12 2.256162 1_555
Fe2 O7 1.818140 1_655
Fe2 O10 1.848597 1_555
Fe2 O3 1.989799 1_555
Fe2 O11 2.024734 1_655
Fe3 O7 1.919609 1_555
Fe3 O10 1.978799 1_555
Fe3 O6 2.012891 1_555
Fe3 O13 2.256162 1_555
C0 O6 1.279020 1_556
C0 O0 1.295984 1_555
C0 O2 1.319062 1_555
C1 O4 1.279020 1_555
C1 O1 1.295984 1_555
C1 O3 1.319062 1_555
C2 O14 1.264840 1_655
C2 O11 1.322143 1_655
C2 O12 1.323273 1_555
C3 O15 1.264840 1_455
C3 O9 1.322143 1_454
C3 O13 1.323273 1_555
