# generated using pymatgen
data_Li4Mn3Ni3(TeO8)2
_symmetry_space_group_name_H-M   'P 1'
_cell_length_a   5.95012863
_cell_length_b   5.95012863
_cell_length_c   9.71242700
_cell_angle_alpha   88.97000228
_cell_angle_beta   88.97000228
_cell_angle_gamma   60.07127852
_symmetry_Int_Tables_number   1
_chemical_formula_structural   Li4Mn3Ni3(TeO8)2
_chemical_formula_sum   'Li4 Mn3 Ni3 Te2 O16'
_cell_volume   297.94009287
_cell_formula_units_Z   1
loop_
 _symmetry_equiv_pos_site_id
 _symmetry_equiv_pos_as_xyz
  1  'x, y, z'
loop_
 _atom_site_type_symbol
 _atom_site_label
 _atom_site_symmetry_multiplicity
 _atom_site_fract_x
 _atom_site_fract_y
 _atom_site_fract_z
 _atom_site_occupancy
  Li  Li0  1  0.66206600  0.66206600  0.09312200  1
  Li  Li1  1  0.99916600  0.99916600  0.01771400  1
  Li  Li2  1  0.99927000  0.99927000  0.51211000  1
  Li  Li3  1  0.32997100  0.32997100  0.58521500  1
  Mn  Mn0  1  0.33844000  0.82994400  0.78844500  1
  Mn  Mn1  1  0.82994400  0.33844000  0.78844500  1
  Mn  Mn2  1  0.17337600  0.17337600  0.28652400  1
  Ni  Ni0  1  0.82773900  0.82773900  0.78575400  1
  Ni  Ni1  1  0.17076200  0.66098300  0.28824700  1
  Ni  Ni2  1  0.66098300  0.17076200  0.28824700  1
  Te  Te0  1  0.67020100  0.67020100  0.51425500  1
  Te  Te1  1  0.33697900  0.33697900  0.01817100  1
  O  O0  1  0.34256600  0.84146600  0.40477000  1
  O  O1  1  0.51533800  0.51533800  0.63629200  1
  O  O2  1  0.65512600  0.65512600  0.88675000  1
  O  O3  1  0.00772800  0.00772800  0.70292100  1
  O  O4  1  0.01012500  0.01012500  0.20279800  1
  O  O5  1  0.84146600  0.34256600  0.40477000  1
  O  O6  1  0.51431900  0.96103200  0.64895100  1
  O  O7  1  0.96103200  0.51431900  0.64895100  1
  O  O8  1  0.17715900  0.17715900  0.91324200  1
  O  O9  1  0.83322000  0.83322000  0.41426100  1
  O  O10  1  0.03622800  0.47040400  0.15313900  1
  O  O11  1  0.47040400  0.03622800  0.15313900  1
  O  O12  1  0.32500000  0.32500000  0.38852400  1
  O  O13  1  0.16808600  0.66273800  0.91124700  1
  O  O14  1  0.48027200  0.48027200  0.14491800  1
  O  O15  1  0.66273800  0.16808600  0.91124700  1
loop_
_geom_bond_atom_site_label_1
_geom_bond_atom_site_label_2
_geom_bond_distance
_geom_bond_site_symmetry_2
Li0 O14 1.929154 1_555
Li0 O2 2.007131 1_554
Li0 O11 2.021412 1_565
Li0 O10 2.021412 1_655
Li1 O4 1.803495 1_665
Li1 O13 2.028804 1_654
Li1 O15 2.028804 1_564
Li1 O8 2.077220 1_664
Li2 O3 1.857092 1_665
Li2 O9 1.974113 1_555
Li2 O5 2.045912 1_565
Li2 O0 2.045912 1_655
Li3 O12 1.912096 1_555
Li3 O1 1.983019 1_555
Li3 O7 1.994552 1_455
Li3 O6 1.994552 1_545
Mn0 O2 1.901951 1_555
Mn0 O3 1.905575 1_565
Mn0 O6 2.065101 1_555
Mn0 O13 2.088053 1_555
Mn0 O8 2.174440 1_565
Mn0 O1 2.207562 1_555
Mn1 O2 1.901951 1_555
Mn1 O3 1.905575 1_655
Mn1 O7 2.065101 1_555
Mn1 O15 2.088053 1_555
Mn1 O8 2.174440 1_655
Mn1 O1 2.207562 1_555
Mn2 O12 1.867011 1_555
Mn2 O4 1.883262 1_555
Mn2 O10 1.996079 1_555
Mn2 O11 1.996079 1_555
Mn2 O0 2.051542 1_545
Mn2 O5 2.051542 1_455
Ni0 O3 2.005907 1_665
Ni0 O2 2.012982 1_555
Ni0 O6 2.108927 1_555
Ni0 O7 2.108927 1_555
Ni0 O15 2.147632 1_565
Ni0 O13 2.147632 1_655
Ni1 O4 1.975669 1_565
Ni1 O12 1.979586 1_555
Ni1 O14 2.114549 1_555
Ni1 O9 2.117741 1_455
Ni1 O10 2.155379 1_555
Ni1 O0 2.158651 1_555
Ni2 O4 1.975669 1_655
Ni2 O12 1.979586 1_555
Ni2 O14 2.114549 1_555
Ni2 O9 2.117741 1_545
Ni2 O11 2.155379 1_555
Ni2 O5 2.158651 1_555
O0 Te0 2.005714 1_555
O1 Te0 1.967677 1_555
O5 Te0 2.005714 1_555
O6 Te0 2.000621 1_555
O7 Te0 2.000621 1_555
O8 Te1 1.954289 1_556
O9 Te0 1.922509 1_555
O10 Te1 2.021494 1_555
O11 Te1 2.021494 1_555
O13 Te1 1.966437 1_556
O14 Te1 1.941689 1_555
O15 Te1 1.966437 1_556
