# generated using pymatgen
data_NaB3H4O7
_symmetry_space_group_name_H-M   'P 1'
_cell_length_a   10.48629584
_cell_length_b   10.48629584
_cell_length_c   6.44171594
_cell_angle_alpha   77.74859813
_cell_angle_beta   77.74859813
_cell_angle_gamma   56.47679015
_symmetry_Int_Tables_number   1
_chemical_formula_structural   NaB3H4O7
_chemical_formula_sum   'Na4 B12 H16 O28'
_cell_volume   573.13549432
_cell_formula_units_Z   4
loop_
 _symmetry_equiv_pos_site_id
 _symmetry_equiv_pos_as_xyz
  1  'x, y, z'
loop_
 _atom_site_type_symbol
 _atom_site_label
 _atom_site_symmetry_multiplicity
 _atom_site_fract_x
 _atom_site_fract_y
 _atom_site_fract_z
 _atom_site_occupancy
  Na  Na0  1  0.06446400  0.58975000  0.60051600  1
  Na  Na1  1  0.41025000  0.93553600  0.89948400  1
  Na  Na2  1  0.93553600  0.41025000  0.39948400  1
  Na  Na3  1  0.58975000  0.06446400  0.10051600  1
  B  B0  1  0.82970500  0.48839100  0.94261700  1
  B  B1  1  0.51160900  0.17029500  0.55738300  1
  B  B2  1  0.17029500  0.51160900  0.05738300  1
  B  B3  1  0.48839100  0.82970500  0.44261700  1
  B  B4  1  0.99583700  0.19856500  0.99383800  1
  B  B5  1  0.80143500  0.00416300  0.50616200  1
  B  B6  1  0.00416300  0.80143500  0.00616200  1
  B  B7  1  0.19856500  0.99583700  0.49383800  1
  B  B8  1  0.72016000  0.32322300  0.98426500  1
  B  B9  1  0.67677700  0.27984000  0.51573500  1
  B  B10  1  0.27984000  0.67677700  0.01573500  1
  B  B11  1  0.32322300  0.72016000  0.48426500  1
  H  H0  1  0.49783100  0.38412400  0.00404400  1
  H  H1  1  0.61587600  0.50216900  0.49595600  1
  H  H2  1  0.50216900  0.61587600  0.99595600  1
  H  H3  1  0.38412400  0.49783100  0.50404400  1
  H  H4  1  0.75959100  0.63369200  0.66843300  1
  H  H5  1  0.36630800  0.24040900  0.83156700  1
  H  H6  1  0.24040900  0.36630800  0.33156700  1
  H  H7  1  0.63369200  0.75959100  0.16843300  1
  H  H8  1  0.86995900  0.62911400  0.05313300  1
  H  H9  1  0.37088600  0.13004100  0.44686700  1
  H  H10  1  0.13004100  0.37088600  0.94686700  1
  H  H11  1  0.62911400  0.86995900  0.55313300  1
  H  H12  1  0.13069500  0.97198800  0.02184900  1
  H  H13  1  0.02801200  0.86930500  0.47815100  1
  H  H14  1  0.86930500  0.02801200  0.97815100  1
  H  H15  1  0.97198800  0.13069500  0.52184900  1
  O  O0  1  0.60575700  0.29438600  0.99724800  1
  O  O1  1  0.70561400  0.39424300  0.50275200  1
  O  O2  1  0.39424300  0.70561400  0.00275200  1
  O  O3  1  0.29438600  0.60575700  0.49724800  1
  O  O4  1  0.85734100  0.54115200  0.71746400  1
  O  O5  1  0.45884800  0.14265900  0.78253600  1
  O  O6  1  0.14265900  0.45884800  0.28253600  1
  O  O7  1  0.54115200  0.85734100  0.21746400  1
  O  O8  1  0.79791700  0.59246000  0.09388300  1
  O  O9  1  0.40754000  0.20208300  0.40611700  1
  O  O10  1  0.20208300  0.40754000  0.90611700  1
  O  O11  1  0.59246000  0.79791700  0.59388300  1
  O  O12  1  0.13705400  0.06454200  0.01219000  1
  O  O13  1  0.93545800  0.86294600  0.48781000  1
  O  O14  1  0.86294600  0.93545800  0.98781000  1
  O  O15  1  0.06454200  0.13705400  0.51219000  1
  O  O16  1  0.86876000  0.18970900  0.98244900  1
  O  O17  1  0.81029100  0.13124000  0.51755100  1
  O  O18  1  0.13124000  0.81029100  0.01755100  1
  O  O19  1  0.18970900  0.86876000  0.48244900  1
  O  O20  1  0.97687200  0.33732800  0.99436100  1
  O  O21  1  0.66267200  0.02312800  0.50563900  1
  O  O22  1  0.02312800  0.66267200  0.00563900  1
  O  O23  1  0.33732800  0.97687200  0.49436100  1
  O  O24  1  0.69707300  0.46449600  0.98055400  1
  O  O25  1  0.53550400  0.30292700  0.51944600  1
  O  O26  1  0.30292700  0.53550400  0.01944600  1
  O  O27  1  0.46449600  0.69707300  0.48055400  1
loop_
_geom_bond_atom_site_label_1
_geom_bond_atom_site_label_2
_geom_bond_distance
_geom_bond_site_symmetry_2
Na0 O13 2.411999 1_455
Na0 O4 2.431015 1_455
Na0 O6 2.447350 1_555
Na0 O3 2.450040 1_555
Na0 O10 2.484438 1_555
Na0 O22 2.753875 1_556
Na1 O12 2.411999 1_566
Na1 O5 2.431015 1_565
Na1 O7 2.447350 1_556
Na1 O2 2.450040 1_556
Na1 O11 2.484438 1_555
Na1 O23 2.753875 1_555
Na2 O15 2.411999 1_655
Na2 O6 2.431015 1_655
Na2 O4 2.447350 1_555
Na2 O1 2.450040 1_555
Na2 O8 2.484438 1_555
Na2 O20 2.753875 1_554
Na3 O14 2.411999 1_544
Na3 O7 2.431015 1_545
Na3 O5 2.447350 1_554
Na3 O0 2.450040 1_554
Na3 O9 2.484438 1_555
Na3 O21 2.753875 1_555
B0 O4 1.466909 1_555
B0 O8 1.470773 1_556
B0 O24 1.507175 1_555
B0 O20 1.515267 1_555
B1 O5 1.466909 1_555
B1 O9 1.470773 1_555
B1 O25 1.507175 1_555
B1 O21 1.515267 1_555
B2 O6 1.466909 1_555
B2 O10 1.470773 1_554
B2 O26 1.507175 1_555
B2 O22 1.515267 1_555
B3 O7 1.466909 1_555
B3 O11 1.470773 1_555
B3 O27 1.507175 1_555
B3 O23 1.515267 1_555
B4 O20 1.356122 1_555
B4 O12 1.373699 1_656
B4 O16 1.403857 1_555
B5 O21 1.356122 1_555
B5 O13 1.373699 1_545
B5 O17 1.403857 1_555
B6 O22 1.356122 1_555
B6 O14 1.373699 1_454
B6 O18 1.403857 1_555
B7 O23 1.356122 1_555
B7 O15 1.373699 1_565
B7 O19 1.403857 1_555
B8 O24 1.358344 1_555
B8 O0 1.372958 1_555
B8 O16 1.406399 1_555
B9 O25 1.358344 1_555
B9 O1 1.372958 1_555
B9 O17 1.406399 1_555
B10 O26 1.358344 1_555
B10 O2 1.372958 1_555
B10 O18 1.406399 1_555
B11 O27 1.358344 1_555
B11 O3 1.372958 1_555
B11 O19 1.406399 1_555
H0 O0 0.994182 1_554
H1 O1 0.994182 1_555
H2 O2 0.994182 1_556
H3 O3 0.994182 1_555
H4 O4 1.000383 1_555
H5 O5 1.000383 1_555
H6 O6 1.000383 1_555
H7 O7 1.000383 1_555
H8 O8 0.990504 1_555
H9 O9 0.990504 1_555
H10 O10 0.990504 1_555
H11 O11 0.990504 1_555
H12 O12 0.997185 1_565
H12 O18 1.698535 1_555
H13 O13 0.997185 1_455
H13 O19 1.698535 1_555
H14 O14 0.997185 1_545
H14 O16 1.698535 1_555
H15 O15 0.997185 1_655
H15 O17 1.698535 1_555
