# generated using pymatgen
data_LiMnSiO4
_symmetry_space_group_name_H-M   'P 1'
_cell_length_a   6.40770400
_cell_length_b   9.04231500
_cell_length_c   4.91734300
_cell_angle_alpha   89.99992703
_cell_angle_beta   89.99997046
_cell_angle_gamma   90.00005851
_symmetry_Int_Tables_number   1
_chemical_formula_structural   LiMnSiO4
_chemical_formula_sum   'Li4 Mn4 Si4 O16'
_cell_volume   284.91320388
_cell_formula_units_Z   4
loop_
 _symmetry_equiv_pos_site_id
 _symmetry_equiv_pos_as_xyz
  1  'x, y, z'
loop_
 _atom_site_type_symbol
 _atom_site_label
 _atom_site_symmetry_multiplicity
 _atom_site_fract_x
 _atom_site_fract_y
 _atom_site_fract_z
 _atom_site_occupancy
  Li  Li0  1  0.25000000  0.16300000  0.46221000  1
  Li  Li1  1  0.25000000  0.66299800  0.03779400  1
  Li  Li2  1  0.75000000  0.33700200  0.96220600  1
  Li  Li3  1  0.75000000  0.83700000  0.53779000  1
  Mn  Mn0  1  0.00000000  0.00000000  0.00000000  1
  Mn  Mn1  1  0.00000000  0.50000000  0.50000000  1
  Mn  Mn2  1  0.50000000  0.00000000  0.00000000  1
  Mn  Mn3  1  0.50000000  0.50000000  0.50000000  1
  Si  Si0  1  0.24999800  0.32066600  0.96469200  1
  Si  Si1  1  0.25000000  0.82066800  0.53530800  1
  Si  Si2  1  0.75000000  0.17933200  0.46469200  1
  Si  Si3  1  0.75000200  0.67933400  0.03530800  1
  O  O0  1  0.03803100  0.38114400  0.81457100  1
  O  O1  1  0.03803300  0.88114500  0.68543000  1
  O  O2  1  0.25000000  0.13622300  0.90113700  1
  O  O3  1  0.25000100  0.36832700  0.28619900  1
  O  O4  1  0.25000000  0.86833100  0.21380300  1
  O  O5  1  0.24999700  0.63622400  0.59886000  1
  O  O6  1  0.46196600  0.38114200  0.81456800  1
  O  O7  1  0.46196700  0.88114300  0.68543100  1
  O  O8  1  0.53803300  0.11885700  0.31456900  1
  O  O9  1  0.53803400  0.61885800  0.18543200  1
  O  O10  1  0.75000000  0.13166900  0.78619700  1
  O  O11  1  0.75000300  0.36377500  0.40114000  1
  O  O12  1  0.74999900  0.63167300  0.71380100  1
  O  O13  1  0.75000000  0.86377700  0.09886300  1
  O  O14  1  0.96196700  0.11885500  0.31457000  1
  O  O15  1  0.96196900  0.61885600  0.18542900  1
loop_
_geom_bond_atom_site_label_1
_geom_bond_atom_site_label_2
_geom_bond_distance
_geom_bond_site_symmetry_2
Li0 O8 2.023056 1_555
Li0 O14 2.023057 1_455
Li0 O3 2.048457 1_555
Li0 O2 2.171893 1_555
Li1 O15 2.023031 1_455
Li1 O9 2.023051 1_555
Li1 O4 2.048504 1_555
Li1 O5 2.171925 1_554
Li2 O0 2.023031 1_655
Li2 O6 2.023051 1_555
Li2 O10 2.048504 1_555
Li2 O11 2.171924 1_556
Li3 O7 2.023056 1_555
Li3 O1 2.023057 1_655
Li3 O12 2.048457 1_555
Li3 O13 2.171893 1_555
Mn0 O14 1.899255 1_455
Mn0 O1 1.899255 1_544
Mn0 O2 2.078402 1_554
Mn0 O13 2.078402 1_445
Mn0 O10 2.255882 1_454
Mn0 O4 2.255882 1_545
Mn1 O0 1.899260 1_555
Mn1 O15 1.899260 1_455
Mn1 O5 2.078391 1_555
Mn1 O11 2.078396 1_455
Mn1 O12 2.255901 1_455
Mn1 O3 2.255901 1_555
Mn2 O8 1.899261 1_555
Mn2 O7 1.899261 1_544
Mn2 O2 2.078405 1_554
Mn2 O13 2.078405 1_545
Mn2 O10 2.255879 1_554
Mn2 O4 2.255879 1_545
Mn3 O6 1.899261 1_555
Mn3 O9 1.899261 1_555
Mn3 O5 2.078422 1_555
Mn3 O11 2.078427 1_555
Mn3 O12 2.255891 1_555
Mn3 O3 2.255891 1_555
O0 Si0 1.639744 1_555
O1 Si1 1.639743 1_555
O2 Si0 1.696821 1_555
O3 Si0 1.638648 1_554
O4 Si1 1.638643 1_555
O5 Si1 1.696826 1_555
O6 Si0 1.639748 1_555
O7 Si1 1.639739 1_555
O8 Si2 1.639739 1_555
O9 Si3 1.639748 1_555
O10 Si2 1.638643 1_555
O11 Si2 1.696817 1_555
O12 Si3 1.638648 1_556
O13 Si3 1.696821 1_555
O14 Si2 1.639743 1_555
O15 Si3 1.639744 1_555
