# generated using pymatgen
data_Mn3OF5
_symmetry_space_group_name_H-M   'P 1'
_cell_length_a   5.88648358
_cell_length_b   5.88648358
_cell_length_c   7.50540006
_cell_angle_alpha   73.67955308
_cell_angle_beta   73.67955308
_cell_angle_gamma   73.85887820
_symmetry_Int_Tables_number   1
_chemical_formula_structural   Mn3OF5
_chemical_formula_sum   'Mn6 O2 F10'
_cell_volume   233.87080029
_cell_formula_units_Z   2
loop_
 _symmetry_equiv_pos_site_id
 _symmetry_equiv_pos_as_xyz
  1  'x, y, z'
loop_
 _atom_site_type_symbol
 _atom_site_label
 _atom_site_symmetry_multiplicity
 _atom_site_fract_x
 _atom_site_fract_y
 _atom_site_fract_z
 _atom_site_occupancy
  Mn  Mn0  1  0.32804400  0.32804400  0.15464200  1
  Mn  Mn1  1  0.65977500  0.65977500  0.34632100  1
  Mn  Mn2  1  0.34173300  0.34173300  0.68072200  1
  Mn  Mn3  1  0.66043500  0.66043500  0.82514200  1
  Mn  Mn4  1  0.00247100  0.00247100  0.50253600  1
  Mn  Mn5  1  0.01161800  0.01161800  0.00189300  1
  O  O0  1  0.24197300  0.24197300  0.95462100  1
  O  O1  1  0.55270500  0.55270500  0.63532800  1
  F  F0  1  0.97151600  0.36469800  0.32618700  1
  F  F1  1  0.63958000  0.02409800  0.66412900  1
  F  F2  1  0.12069600  0.12069600  0.69397600  1
  F  F3  1  0.41808300  0.41808300  0.37533500  1
  F  F4  1  0.76802400  0.76802400  0.03581000  1
  F  F5  1  0.89665400  0.89665400  0.29857200  1
  F  F6  1  0.02409800  0.63958000  0.66412900  1
  F  F7  1  0.36469800  0.97151600  0.32618700  1
  F  F8  1  0.69562900  0.30226800  0.00723400  1
  F  F9  1  0.30226800  0.69562900  0.00723400  1
loop_
_geom_bond_atom_site_label_1
_geom_bond_atom_site_label_2
_geom_bond_distance
_geom_bond_site_symmetry_2
Mn0 O0 1.940308 1_554
Mn1 O1 2.045409 1_555
Mn2 O1 1.892763 1_555
Mn2 O0 1.936618 1_555
Mn3 O1 2.018155 1_555
Mn5 O0 2.069976 1_554
F0 Mn0 2.120023 1_655
F0 Mn1 2.150989 1_555
F0 Mn4 2.159840 1_655
F1 Mn4 2.128332 1_655
F1 Mn3 2.131052 1_545
F1 Mn2 2.184240 1_555
F2 Mn2 2.047335 1_555
F2 Mn4 2.103895 1_555
F2 Mn5 2.174107 1_556
F3 Mn0 2.109134 1_555
F3 Mn2 2.147532 1_555
F3 Mn1 2.207453 1_555
F4 Mn3 2.156574 1_554
F4 Mn1 2.190863 1_555
F4 Mn5 2.215835 1_665
F5 Mn4 2.099278 1_665
F5 Mn5 2.105933 1_665
F5 Mn1 2.129883 1_555
F6 Mn4 2.128332 1_565
F6 Mn3 2.131052 1_455
F6 Mn2 2.184240 1_555
F7 Mn0 2.120023 1_565
F7 Mn1 2.150989 1_555
F7 Mn4 2.159840 1_565
F8 Mn0 2.120231 1_555
F8 Mn5 2.148452 1_655
F8 Mn3 2.157010 1_554
F9 Mn0 2.120231 1_555
F9 Mn5 2.148452 1_565
F9 Mn3 2.157010 1_554
