# generated using pymatgen
data_Li12CrCo3P4(CO7)4
_symmetry_space_group_name_H-M   'P 1'
_cell_length_a   6.45621800
_cell_length_b   8.49209300
_cell_length_c   10.00281808
_cell_angle_alpha   85.33568399
_cell_angle_beta   90.00000000
_cell_angle_gamma   90.00000000
_symmetry_Int_Tables_number   1
_chemical_formula_structural   Li12CrCo3P4(CO7)4
_chemical_formula_sum   'Li12 Cr1 Co3 P4 C4 O28'
_cell_volume   546.60629125
_cell_formula_units_Z   1
loop_
 _symmetry_equiv_pos_site_id
 _symmetry_equiv_pos_as_xyz
  1  'x, y, z'
loop_
 _atom_site_type_symbol
 _atom_site_label
 _atom_site_symmetry_multiplicity
 _atom_site_fract_x
 _atom_site_fract_y
 _atom_site_fract_z
 _atom_site_occupancy
  Li  Li0  1  0.00000000  0.90070300  0.61915100  1
  Li  Li1  1  0.00000000  0.90361500  0.11680000  1
  Li  Li2  1  0.22840200  0.72460900  0.87505100  1
  Li  Li3  1  0.77159800  0.72460900  0.87505100  1
  Li  Li4  1  0.22787100  0.72524100  0.37515800  1
  Li  Li5  1  0.77212900  0.72524100  0.37515800  1
  Li  Li6  1  0.72849900  0.27556300  0.62666200  1
  Li  Li7  1  0.27150100  0.27556300  0.62666200  1
  Li  Li8  1  0.72727200  0.27557500  0.12346600  1
  Li  Li9  1  0.27272800  0.27557500  0.12346600  1
  Li  Li10  1  0.50000000  0.09641600  0.88227100  1
  Li  Li11  1  0.50000000  0.09536900  0.38215600  1
  Cr  Cr0  1  0.00000000  0.33447900  0.39216000  1
  Co  Co0  1  0.50000000  0.66787800  0.60561800  1
  Co  Co1  1  0.50000000  0.66888200  0.10487000  1
  Co  Co2  1  0.00000000  0.33261500  0.89545900  1
  P  P0  1  0.00000000  0.58674900  0.64069300  1
  P  P1  1  0.00000000  0.58985500  0.13905000  1
  P  P2  1  0.50000000  0.41337700  0.86026700  1
  P  P3  1  0.50000000  0.41393900  0.35934700  1
  C  C0  1  0.50000000  0.96328200  0.64884700  1
  C  C1  1  0.50000000  0.96329900  0.14916900  1
  C  C2  1  0.00000000  0.03780200  0.85096900  1
  C  C3  1  0.00000000  0.03136200  0.35247800  1
  O  O0  1  0.50000000  0.92675800  0.52572500  1
  O  O1  1  0.00000000  0.89189100  0.82042400  1
  O  O2  1  0.50000000  0.92781200  0.02600200  1
  O  O3  1  0.50000000  0.84822800  0.74389400  1
  O  O4  1  0.00000000  0.88768000  0.31765700  1
  O  O5  1  0.50000000  0.84784800  0.24383700  1
  O  O6  1  0.18729600  0.69009900  0.58820900  1
  O  O7  1  0.81270400  0.69009900  0.58820900  1
  O  O8  1  0.18793000  0.69115300  0.08479900  1
  O  O9  1  0.81207000  0.69115300  0.08479900  1
  O  O10  1  0.50000000  0.57972400  0.91196800  1
  O  O11  1  0.00000000  0.56743800  0.79711000  1
  O  O12  1  0.50000000  0.57966000  0.41221300  1
  O  O13  1  0.00000000  0.57879800  0.29461400  1
  O  O14  1  0.50000000  0.43187600  0.70352100  1
  O  O15  1  0.00000000  0.42003800  0.58923100  1
  O  O16  1  0.50000000  0.43286800  0.20301000  1
  O  O17  1  0.00000000  0.42082100  0.09015700  1
  O  O18  1  0.31288400  0.30932500  0.91235000  1
  O  O19  1  0.68711600  0.30932500  0.91235000  1
  O  O20  1  0.68616600  0.30967400  0.41251400  1
  O  O21  1  0.31383400  0.30967400  0.41251400  1
  O  O22  1  0.00000000  0.15322700  0.75588800  1
  O  O23  1  0.50000000  0.10921500  0.67953300  1
  O  O24  1  0.00000000  0.14848600  0.25853100  1
  O  O25  1  0.00000000  0.07438800  0.97391700  1
  O  O26  1  0.50000000  0.10931700  0.18035700  1
  O  O27  1  0.00000000  0.06182900  0.47668900  1
loop_
_geom_bond_atom_site_label_1
_geom_bond_atom_site_label_2
_geom_bond_distance
_geom_bond_site_symmetry_2
Li0 O27 1.893623 1_565
Li0 O1 2.008597 1_555
Li0 O7 2.201514 1_455
Li0 O6 2.201514 1_555
Li1 O25 1.951602 1_564
Li1 O4 2.002679 1_555
Li1 O8 2.218972 1_555
Li1 O9 2.218972 1_455
Li2 O1 2.089223 1_555
Li2 O8 2.110439 1_556
Li2 O10 2.156628 1_555
Li2 O11 2.175545 1_555
Li2 O3 2.382014 1_555
Li3 O1 2.089223 1_655
Li3 O9 2.110439 1_556
Li3 O10 2.156628 1_555
Li3 O11 2.175545 1_655
Li3 O3 2.382014 1_555
Li4 O4 2.066166 1_555
Li4 O13 2.126733 1_555
Li4 O6 2.143801 1_555
Li4 O12 2.162880 1_555
Li4 O5 2.381999 1_555
Li5 O4 2.066166 1_655
Li5 O13 2.126733 1_655
Li5 O7 2.143801 1_555
Li5 O12 2.162880 1_555
Li5 O5 2.381999 1_555
Li6 O23 2.080884 1_555
Li6 O15 2.154832 1_655
Li6 O20 2.155508 1_555
Li6 O14 2.166893 1_555
Li6 O22 2.367344 1_655
Li7 O23 2.080884 1_555
Li7 O15 2.154832 1_555
Li7 O21 2.155508 1_555
Li7 O14 2.166893 1_555
Li7 O22 2.367344 1_555
Li8 O26 2.083169 1_555
Li8 O19 2.123778 1_554
Li8 O17 2.160079 1_655
Li8 O16 2.177882 1_555
Li8 O24 2.419363 1_655
Li9 O26 2.083169 1_555
Li9 O18 2.123778 1_554
Li9 O17 2.160079 1_555
Li9 O16 2.177882 1_555
Li9 O24 2.419363 1_555
Li10 O2 1.944811 1_546
Li10 O23 2.022017 1_555
Li10 O19 2.215272 1_555
Li10 O18 2.215272 1_555
Li11 O0 1.943751 1_545
Li11 O26 2.012393 1_555
Li11 O21 2.222330 1_555
Li11 O20 2.222330 1_555
Cr0 O20 2.045546 1_455
Cr0 O21 2.045546 1_555
Cr0 O24 2.150526 1_555
Cr0 O15 2.155629 1_555
Cr0 O13 2.219803 1_555
Cr0 O27 2.399471 1_555
Co0 O7 2.033835 1_555
Co0 O6 2.033835 1_555
Co0 O12 2.130634 1_555
Co0 O3 2.145522 1_555
Co0 O14 2.157883 1_555
Co0 O0 2.277284 1_555
Co1 O9 2.032065 1_555
Co1 O8 2.032065 1_555
Co1 O10 2.129337 1_554
Co1 O5 2.141410 1_555
Co1 O16 2.158872 1_555
Co1 O2 2.274911 1_555
Co2 O18 2.035392 1_555
Co2 O19 2.035392 1_455
Co2 O17 2.142709 1_556
Co2 O22 2.148414 1_555
Co2 O11 2.150659 1_555
Co2 O25 2.268210 1_555
C0 O0 1.294251 1_555
C0 O23 1.300726 1_565
C0 O3 1.306695 1_555
C1 O2 1.291924 1_555
C1 O26 1.303010 1_565
C1 O5 1.306500 1_555
C2 O25 1.292728 1_555
C2 O1 1.300103 1_545
C2 O22 1.309093 1_555
C3 O27 1.289546 1_555
C3 O4 1.295851 1_545
C3 O24 1.311630 1_555
O6 P0 1.559866 1_555
O7 P0 1.559866 1_655
O8 P1 1.559070 1_555
O9 P1 1.559070 1_655
O10 P2 1.543308 1_555
O11 P0 1.559862 1_555
O12 P3 1.543119 1_555
O13 P1 1.551268 1_555
O14 P2 1.562989 1_555
O15 P0 1.545246 1_555
O16 P3 1.558993 1_555
O17 P1 1.553669 1_555
O18 P2 1.561007 1_555
O19 P2 1.561007 1_555
O20 P3 1.560405 1_555
O21 P3 1.560405 1_555
