# generated using pymatgen
data_LiMg(Fe5O8)2
_symmetry_space_group_name_H-M   'P 1'
_cell_length_a   10.19205259
_cell_length_b   10.19205259
_cell_length_c   10.19205269
_cell_angle_alpha   34.09471792
_cell_angle_beta   34.09471792
_cell_angle_gamma   34.09471667
_symmetry_Int_Tables_number   1
_chemical_formula_structural   LiMg(Fe5O8)2
_chemical_formula_sum   'Li1 Mg1 Fe10 O16'
_cell_volume   296.59432074
_cell_formula_units_Z   1
loop_
 _symmetry_equiv_pos_site_id
 _symmetry_equiv_pos_as_xyz
  1  'x, y, z'
loop_
 _atom_site_type_symbol
 _atom_site_label
 _atom_site_symmetry_multiplicity
 _atom_site_fract_x
 _atom_site_fract_y
 _atom_site_fract_z
 _atom_site_occupancy
  Li  Li0  1  0.50341300  0.50341300  0.50341300  1
  Mg  Mg0  1  0.68997300  0.68997300  0.68997300  1
  Fe  Fe0  1  0.00169000  0.00169000  0.00169000  1
  Fe  Fe1  1  0.25545000  0.25545000  0.74819500  1
  Fe  Fe2  1  0.25545000  0.74819500  0.25545000  1
  Fe  Fe3  1  0.19453400  0.19453400  0.19453400  1
  Fe  Fe4  1  0.74819500  0.25545000  0.25545000  1
  Fe  Fe5  1  0.81434500  0.81434500  0.81434500  1
  Fe  Fe6  1  0.75187300  0.25310900  0.75187300  1
  Fe  Fe7  1  0.75187300  0.75187300  0.25310900  1
  Fe  Fe8  1  0.25310900  0.75187300  0.75187300  1
  Fe  Fe9  1  0.31128700  0.31128700  0.31128700  1
  O  O0  1  0.89622200  0.89622200  0.34089700  1
  O  O1  1  0.89622200  0.34089700  0.89622200  1
  O  O2  1  0.12619900  0.12619900  0.12619900  1
  O  O3  1  0.34089700  0.89622200  0.89622200  1
  O  O4  1  0.13411100  0.61940700  0.61940700  1
  O  O5  1  0.38286200  0.38286200  0.38286200  1
  O  O6  1  0.61940700  0.13411100  0.61940700  1
  O  O7  1  0.61940700  0.61940700  0.13411100  1
  O  O8  1  0.39159300  0.39159300  0.86683600  1
  O  O9  1  0.39159300  0.86683600  0.39159300  1
  O  O10  1  0.62050700  0.62050700  0.62050700  1
  O  O11  1  0.86683600  0.39159300  0.39159300  1
  O  O12  1  0.88250300  0.88250300  0.88250300  1
  O  O13  1  0.66589100  0.10388200  0.10388200  1
  O  O14  1  0.10388200  0.10388200  0.66589100  1
  O  O15  1  0.10388200  0.66589100  0.10388200  1
loop_
_geom_bond_atom_site_label_1
_geom_bond_atom_site_label_2
_geom_bond_distance
_geom_bond_site_symmetry_2
Li0 O11 2.117925 1_555
Li0 O9 2.117925 1_555
Li0 O8 2.117925 1_555
Li0 O4 2.130171 1_555
Li0 O6 2.130171 1_555
Li0 O7 2.130171 1_555
Mg0 O10 1.998605 1_555
Mg0 O3 2.010186 1_555
Mg0 O1 2.010186 1_555
Mg0 O0 2.010186 1_555
Fe0 O3 1.966484 1_544
Fe0 O1 1.966484 1_454
Fe0 O0 1.966484 1_445
Fe0 O15 1.967721 1_545
Fe0 O13 1.967721 1_455
Fe0 O14 1.967721 1_554
Fe1 O5 2.003341 1_555
Fe1 O4 2.009693 1_555
Fe1 O6 2.009693 1_555
Fe1 O1 2.046001 1_455
Fe1 O3 2.046001 1_545
Fe1 O2 2.091971 1_556
Fe2 O5 2.003341 1_555
Fe2 O7 2.009693 1_555
Fe2 O4 2.009693 1_555
Fe2 O0 2.046001 1_455
Fe2 O3 2.046001 1_554
Fe2 O2 2.091971 1_565
Fe3 O11 1.919282 1_455
Fe3 O9 1.919282 1_545
Fe3 O8 1.919282 1_554
Fe3 O2 1.966065 1_555
Fe4 O5 2.003341 1_555
Fe4 O7 2.009693 1_555
Fe4 O6 2.009693 1_555
Fe4 O0 2.046001 1_545
Fe4 O1 2.046001 1_554
Fe4 O2 2.091971 1_655
Fe5 O4 1.898839 1_655
Fe5 O6 1.898839 1_565
Fe5 O7 1.898839 1_556
Fe5 O12 1.960972 1_555
Fe6 O8 1.969231 1_555
Fe6 O11 1.969231 1_555
Fe6 O14 1.978794 1_655
Fe6 O13 1.978794 1_556
Fe6 O10 1.992179 1_555
Fe6 O12 2.022454 1_545
Fe7 O9 1.969231 1_555
Fe7 O11 1.969231 1_555
Fe7 O15 1.978794 1_655
Fe7 O13 1.978794 1_565
Fe7 O10 1.992179 1_555
Fe7 O12 2.022454 1_554
Fe8 O8 1.969231 1_555
Fe8 O9 1.969231 1_555
Fe8 O14 1.978794 1_565
Fe8 O15 1.978794 1_556
Fe8 O10 1.992179 1_555
Fe8 O12 2.022454 1_455
Fe9 O15 2.023161 1_555
Fe9 O13 2.023161 1_555
Fe9 O14 2.023161 1_555
Fe9 O5 2.059283 1_555
