# generated using pymatgen
data_CuH9C4S4N
_symmetry_space_group_name_H-M   'P 1'
_cell_length_a   9.50158600
_cell_length_b   10.97899005
_cell_length_c   10.98202581
_cell_angle_alpha   78.37577970
_cell_angle_beta   74.14170250
_cell_angle_gamma   66.05267926
_symmetry_Int_Tables_number   1
_chemical_formula_structural   CuH9C4S4N
_chemical_formula_sum   'Cu4 H36 C16 S16 N4'
_cell_volume   1001.79648655
_cell_formula_units_Z   4
loop_
 _symmetry_equiv_pos_site_id
 _symmetry_equiv_pos_as_xyz
  1  'x, y, z'
loop_
 _atom_site_type_symbol
 _atom_site_label
 _atom_site_symmetry_multiplicity
 _atom_site_fract_x
 _atom_site_fract_y
 _atom_site_fract_z
 _atom_site_occupancy
  Cu  Cu0  1  0.57041400  0.94276500  0.10995600  1
  Cu  Cu1  1  0.42958600  0.05723500  0.89004400  1
  Cu  Cu2  1  0.08254500  0.45457500  0.37783100  1
  Cu  Cu3  1  0.91745500  0.54542500  0.62216900  1
  H  H0  1  0.30651000  0.47234400  0.05392100  1
  H  H1  1  0.69349000  0.52765600  0.94607900  1
  H  H2  1  0.30592600  0.58824800  0.91346600  1
  H  H3  1  0.69407400  0.41175200  0.08653400  1
  H  H4  1  0.13313900  0.55319500  0.99126500  1
  H  H5  1  0.86686100  0.44680500  0.00873500  1
  H  H6  1  0.03235300  0.87647600  0.10246300  1
  H  H7  1  0.96764700  0.12352400  0.89753700  1
  H  H8  1  0.97438200  0.78632900  0.01982700  1
  H  H9  1  0.02561800  0.21367100  0.98017300  1
  H  H10  1  0.13641400  0.83844400  0.94407800  1
  H  H11  1  0.86358600  0.16155600  0.05592200  1
  H  H12  1  0.38658400  0.59392800  0.16176700  1
  H  H13  1  0.61341600  0.40607200  0.83823300  1
  H  H14  1  0.26635200  0.76450300  0.18849500  1
  H  H15  1  0.73364800  0.23549700  0.81150500  1
  H  H16  1  0.38518400  0.72513100  0.03430500  1
  H  H17  1  0.61481600  0.27486900  0.96569500  1
  H  H18  1  0.88456800  0.05808400  0.32835300  1
  H  H19  1  0.11543200  0.94191600  0.67164700  1
  H  H20  1  0.93525100  0.13382100  0.43141000  1
  H  H21  1  0.06474900  0.86617900  0.56859000  1
  H  H22  1  0.86027000  0.23117500  0.29592600  1
  H  H23  1  0.13973000  0.76882500  0.70407400  1
  H  H24  1  0.69798200  0.98977800  0.49140400  1
  H  H25  1  0.30201800  0.01022200  0.50859600  1
  H  H26  1  0.53363400  0.11078900  0.58151300  1
  H  H27  1  0.46636600  0.88921100  0.41848700  1
  H  H28  1  0.72420200  0.05685700  0.61555200  1
  H  H29  1  0.27579800  0.94314300  0.38444800  1
  H  H30  1  0.65390200  0.39201600  0.42608100  1
  H  H31  1  0.34609800  0.60798400  0.57391900  1
  H  H32  1  0.70044600  0.30318200  0.57421400  1
  H  H33  1  0.29955400  0.69681800  0.42578600  1
  H  H34  1  0.50921300  0.34346200  0.54559200  1
  H  H35  1  0.49078700  0.65653800  0.45440800  1
  C  C0  1  0.79519900  0.65577700  0.25038900  1
  C  C1  1  0.20480100  0.34422300  0.74961100  1
  C  C2  1  0.38997100  0.21432200  0.24090000  1
  C  C3  1  0.61002900  0.78567800  0.75910000  1
  C  C4  1  0.23444400  0.56718700  0.00753000  1
  C  C5  1  0.76555600  0.43281300  0.99247000  1
  C  C6  1  0.07604800  0.80002200  0.03566300  1
  C  C7  1  0.92395200  0.19997800  0.96433700  1
  C  C8  1  0.31144700  0.69007100  0.11934300  1
  C  C9  1  0.68855300  0.30992900  0.88065700  1
  C  C10  1  0.85025900  0.15058400  0.37163300  1
  C  C11  1  0.14974100  0.84941600  0.62836700  1
  C  C12  1  0.66005300  0.08115200  0.53754400  1
  C  C13  1  0.33994700  0.91884800  0.46245600  1
  C  C14  1  0.63497500  0.31343100  0.50042700  1
  C  C15  1  0.36502500  0.68656900  0.49957300  1
  S  S0  1  0.30417100  0.04095800  0.10504800  1
  S  S1  1  0.69582900  0.95904200  0.89495200  1
  S  S2  1  0.22904100  0.20601500  0.19792100  1
  S  S3  1  0.77095900  0.79398500  0.80207900  1
  S  S4  1  0.57758500  0.10667000  0.20036600  1
  S  S5  1  0.42241500  0.89333000  0.79963400  1
  S  S6  1  0.34557600  0.34354200  0.32617000  1
  S  S7  1  0.65442400  0.65645800  0.67383000  1
  S  S8  1  0.98390500  0.67110300  0.43163900  1
  S  S9  1  0.01609500  0.32889700  0.56836100  1
  S  S10  1  0.81192200  0.77043700  0.33132700  1
  S  S11  1  0.18807800  0.22956300  0.66867300  1
  S  S12  1  0.65837300  0.71896000  0.15822800  1
  S  S13  1  0.34162700  0.28104000  0.84177200  1
  S  S14  1  0.90182000  0.49010500  0.26302200  1
  S  S15  1  0.09818000  0.50989500  0.73697800  1
  N  N0  1  0.18190900  0.67453400  0.08764800  1
  N  N1  1  0.81809100  0.32546600  0.91235200  1
  N  N2  1  0.69010100  0.18779100  0.44616800  1
  N  N3  1  0.30989900  0.81220900  0.55383200  1
loop_
_geom_bond_atom_site_label_1
_geom_bond_atom_site_label_2
_geom_bond_distance
_geom_bond_site_symmetry_2
Cu0 S12 2.251055 1_555
Cu0 S4 2.255045 1_565
Cu0 S0 2.324185 1_565
Cu0 S1 2.343548 1_554
Cu1 S13 2.251055 1_555
Cu1 S5 2.255045 1_545
Cu1 S1 2.324185 1_545
Cu1 S0 2.343548 1_556
Cu2 S6 2.254893 1_555
Cu2 S14 2.265356 1_455
Cu2 S8 2.309472 1_455
Cu2 S9 2.345729 1_555
Cu3 S7 2.254893 1_555
Cu3 S15 2.265356 1_655
Cu3 S9 2.309472 1_655
Cu3 S8 2.345729 1_555
C0 S14 1.683222 1_555
C0 S12 1.702887 1_555
C0 S10 1.757986 1_555
C1 S15 1.683222 1_555
C1 S13 1.702887 1_555
C1 S11 1.757986 1_555
C2 S4 1.685468 1_555
C2 S6 1.703308 1_555
C2 S2 1.759036 1_555
C3 S5 1.685468 1_555
C3 S7 1.703308 1_555
C3 S3 1.759036 1_555
C4 H4 1.098673 1_554
C4 H0 1.100341 1_555
C4 H2 1.108906 1_554
C4 N0 1.453479 1_555
C5 H5 1.098673 1_556
C5 H1 1.100341 1_555
C5 H3 1.108906 1_556
C5 N1 1.453479 1_555
C6 H8 1.098280 1_455
C6 H6 1.101771 1_555
C6 H10 1.108466 1_554
C6 N0 1.451790 1_555
C7 H9 1.098280 1_655
C7 H7 1.101771 1_555
C7 H11 1.108466 1_556
C7 N1 1.451790 1_555
C8 H12 1.101266 1_555
C8 H14 1.102783 1_555
C8 H16 1.107998 1_555
C8 N0 1.446951 1_555
C9 H13 1.101266 1_555
C9 H15 1.102783 1_555
C9 H17 1.107998 1_555
C9 N1 1.446951 1_555
C10 H18 1.097553 1_555
C10 H22 1.100834 1_555
C10 H20 1.112372 1_555
C10 N2 1.449820 1_555
C11 H19 1.097553 1_555
C11 H23 1.100834 1_555
C11 H21 1.112372 1_555
C11 N3 1.449820 1_555
C12 H24 1.097537 1_545
C12 H26 1.100416 1_555
C12 H28 1.112599 1_555
C12 N2 1.449336 1_555
C13 H25 1.097537 1_565
C13 H27 1.100416 1_555
C13 H29 1.112599 1_555
C13 N3 1.449336 1_555
C14 H34 1.097615 1_555
C14 H30 1.097814 1_555
C14 H32 1.112746 1_555
C14 N2 1.451307 1_555
C15 H35 1.097615 1_555
C15 H31 1.097814 1_555
C15 H33 1.112746 1_555
C15 N3 1.451307 1_555
S0 S2 2.032373 1_555
S1 S3 2.032373 1_555
S10 S8 2.031314 1_555
S11 S9 2.031314 1_555
