# generated using pymatgen
data_Fe2O3F
_symmetry_space_group_name_H-M   'P 1'
_cell_length_a   4.70388184
_cell_length_b   4.70388184
_cell_length_c   5.99709700
_cell_angle_alpha   90.00000000
_cell_angle_beta   90.00000000
_cell_angle_gamma   94.25128692
_symmetry_Int_Tables_number   1
_chemical_formula_structural   Fe2O3F
_chemical_formula_sum   'Fe4 O6 F2'
_cell_volume   132.32968566
_cell_formula_units_Z   2
loop_
 _symmetry_equiv_pos_site_id
 _symmetry_equiv_pos_as_xyz
  1  'x, y, z'
loop_
 _atom_site_type_symbol
 _atom_site_label
 _atom_site_symmetry_multiplicity
 _atom_site_fract_x
 _atom_site_fract_y
 _atom_site_fract_z
 _atom_site_occupancy
  Fe  Fe0  1  0.00000000  0.00000000  0.00000000  1
  Fe  Fe1  1  0.00000000  0.00000000  0.50000000  1
  Fe  Fe2  1  0.53341800  0.46658200  0.25000000  1
  Fe  Fe3  1  0.46658200  0.53341800  0.75000000  1
  O  O0  1  0.17815500  0.82184500  0.75000000  1
  O  O1  1  0.30745200  0.30745200  0.50000000  1
  O  O2  1  0.30745200  0.30745200  0.00000000  1
  O  O3  1  0.69254800  0.69254800  0.00000000  1
  O  O4  1  0.69254800  0.69254800  0.50000000  1
  O  O5  1  0.82184500  0.17815500  0.25000000  1
  F  F0  1  0.20104000  0.79896000  0.25000000  1
  F  F1  1  0.79896000  0.20104000  0.75000000  1
loop_
_geom_bond_atom_site_label_1
_geom_bond_atom_site_label_2
_geom_bond_distance
_geom_bond_site_symmetry_2
Fe0 O0 1.938169 1_544
Fe0 O5 1.938169 1_455
Fe0 O3 1.967993 1_445
Fe0 O2 1.967993 1_555
Fe1 O5 1.938169 1_455
Fe1 O0 1.938169 1_545
Fe1 O4 1.967993 1_445
Fe1 O1 1.967993 1_555
Fe2 O1 1.954470 1_555
Fe2 O2 1.954470 1_555
Fe2 O3 1.954470 1_555
Fe2 O4 1.954470 1_555
Fe2 O5 1.988547 1_555
Fe3 O1 1.954470 1_555
Fe3 O2 1.954470 1_556
Fe3 O3 1.954470 1_556
Fe3 O4 1.954470 1_555
Fe3 O0 1.988547 1_555
F0 Fe1 2.041810 1_565
F0 Fe0 2.041810 1_565
F0 Fe2 2.291565 1_555
F1 Fe0 2.041810 1_656
F1 Fe1 2.041810 1_655
F1 Fe3 2.291565 1_555
