# generated using pymatgen
data_Ni17(As3O16)2
_symmetry_space_group_name_H-M   'P 1'
_cell_length_a   9.92813784
_cell_length_b   6.02749888
_cell_length_c   10.37060661
_cell_angle_alpha   90.00000353
_cell_angle_beta   69.48742357
_cell_angle_gamma   90.00000117
_symmetry_Int_Tables_number   1
_chemical_formula_structural   Ni17(As3O16)2
_chemical_formula_sum   'Ni17 As6 O32'
_cell_volume   581.24746199
_cell_formula_units_Z   1
loop_
 _symmetry_equiv_pos_site_id
 _symmetry_equiv_pos_as_xyz
  1  'x, y, z'
loop_
 _atom_site_type_symbol
 _atom_site_label
 _atom_site_symmetry_multiplicity
 _atom_site_fract_x
 _atom_site_fract_y
 _atom_site_fract_z
 _atom_site_occupancy
  Ni  Ni0  1  0.74010200  0.50000000  0.75113800  1
  Ni  Ni1  1  0.74368900  0.24351400  0.50452200  1
  Ni  Ni2  1  0.74368900  0.75648600  0.50452200  1
  Ni  Ni3  1  0.73408100  0.00000000  0.25495400  1
  Ni  Ni4  1  0.73601300  0.25172400  0.00428600  1
  Ni  Ni5  1  0.73601300  0.74827600  0.00428600  1
  Ni  Ni6  1  0.26398700  0.74827600  0.99571400  1
  Ni  Ni7  1  0.26398700  0.25172400  0.99571400  1
  Ni  Ni8  1  0.26591900  0.00000000  0.74504600  1
  Ni  Ni9  1  0.25631100  0.75648600  0.49547800  1
  Ni  Ni10  1  0.25631100  0.24351400  0.49547800  1
  Ni  Ni11  1  0.25989800  0.50000000  0.24886200  1
  Ni  Ni12  1  0.99929300  0.75781300  0.74175800  1
  Ni  Ni13  1  0.99929300  0.24218700  0.74175800  1
  Ni  Ni14  1  0.00070700  0.24218700  0.25824200  1
  Ni  Ni15  1  0.00070700  0.75781300  0.25824200  1
  Ni  Ni16  1  0.00000000  0.50000000  0.00000000  1
  As  As0  1  0.57851100  0.00000000  0.80764800  1
  As  As1  1  0.57579400  0.50000000  0.31014300  1
  As  As2  1  0.42420600  0.50000000  0.68985700  1
  As  As3  1  0.42148900  0.00000000  0.19235200  1
  As  As4  1  0.00000000  0.50000000  0.50000000  1
  As  As5  1  0.00000000  0.00000000  0.00000000  1
  O  O0  1  0.88397200  0.00000000  0.89080000  1
  O  O1  1  0.87113200  0.50000000  0.87819300  1
  O  O2  1  0.88116500  0.28712400  0.61532900  1
  O  O3  1  0.88116500  0.71287600  0.61532900  1
  O  O4  1  0.88498200  0.50000000  0.38938300  1
  O  O5  1  0.86093900  0.00000000  0.36746800  1
  O  O6  1  0.62872400  0.23725300  0.86958400  1
  O  O7  1  0.62872400  0.76274700  0.86958400  1
  O  O8  1  0.88529700  0.77877700  0.11132900  1
  O  O9  1  0.88529700  0.22122300  0.11132900  1
  O  O10  1  0.62817400  0.00000000  0.63235200  1
  O  O11  1  0.61345400  0.50000000  0.62744800  1
  O  O12  1  0.62944600  0.73561500  0.37013500  1
  O  O13  1  0.62944600  0.26438500  0.37013500  1
  O  O14  1  0.38800000  0.00000000  0.87182500  1
  O  O15  1  0.37040400  0.50000000  0.86695100  1
  O  O16  1  0.62959600  0.50000000  0.13304900  1
  O  O17  1  0.61200000  0.00000000  0.12817500  1
  O  O18  1  0.37055400  0.26438500  0.62986500  1
  O  O19  1  0.37055400  0.73561500  0.62986500  1
  O  O20  1  0.38654600  0.50000000  0.37255200  1
  O  O21  1  0.37182600  0.00000000  0.36764800  1
  O  O22  1  0.11470300  0.77877700  0.88867100  1
  O  O23  1  0.11470300  0.22122300  0.88867100  1
  O  O24  1  0.37127600  0.76274700  0.13041600  1
  O  O25  1  0.37127600  0.23725300  0.13041600  1
  O  O26  1  0.13906100  0.00000000  0.63253200  1
  O  O27  1  0.11501800  0.50000000  0.61061700  1
  O  O28  1  0.11883500  0.28712400  0.38467100  1
  O  O29  1  0.11883500  0.71287600  0.38467100  1
  O  O30  1  0.12886800  0.50000000  0.12180700  1
  O  O31  1  0.11602800  0.00000000  0.10920000  1
loop_
_geom_bond_atom_site_label_1
_geom_bond_atom_site_label_2
_geom_bond_distance
_geom_bond_site_symmetry_2
Ni0 O2 2.051593 1_555
Ni0 O3 2.051593 1_555
Ni0 O7 2.070702 1_555
Ni0 O6 2.070702 1_555
Ni0 O11 2.087290 1_555
Ni0 O1 2.151685 1_555
Ni1 O10 2.039989 1_555
Ni1 O2 2.086074 1_555
Ni1 O13 2.086248 1_555
Ni1 O5 2.090477 1_555
Ni1 O11 2.128806 1_555
Ni1 O4 2.147021 1_555
Ni2 O10 2.039989 1_565
Ni2 O3 2.086074 1_555
Ni2 O12 2.086248 1_555
Ni2 O5 2.090477 1_565
Ni2 O11 2.128806 1_555
Ni2 O4 2.147021 1_555
Ni3 O5 1.994414 1_555
Ni3 O13 2.043489 1_555
Ni3 O12 2.043490 1_545
Ni3 O17 2.077131 1_555
Ni3 O8 2.164092 1_545
Ni3 O9 2.164092 1_555
Ni4 O6 2.033835 1_554
Ni4 O16 2.037184 1_555
Ni4 O17 2.088085 1_555
Ni4 O1 2.125939 1_554
Ni4 O9 2.148451 1_555
Ni4 O0 2.152545 1_554
Ni5 O7 2.033835 1_554
Ni5 O16 2.037184 1_555
Ni5 O17 2.088085 1_565
Ni5 O1 2.125939 1_554
Ni5 O8 2.148451 1_555
Ni5 O0 2.152545 1_564
Ni6 O24 2.033835 1_556
Ni6 O15 2.037184 1_555
Ni6 O14 2.088085 1_565
Ni6 O30 2.125939 1_556
Ni6 O22 2.148451 1_555
Ni6 O31 2.152545 1_566
Ni7 O25 2.033835 1_556
Ni7 O15 2.037184 1_555
Ni7 O14 2.088085 1_555
Ni7 O30 2.125939 1_556
Ni7 O23 2.148451 1_555
Ni7 O31 2.152545 1_556
Ni8 O26 1.994414 1_555
Ni8 O19 2.043489 1_545
Ni8 O18 2.043490 1_555
Ni8 O14 2.077131 1_555
Ni8 O23 2.164092 1_555
Ni8 O22 2.164092 1_545
Ni9 O21 2.039989 1_565
Ni9 O29 2.086074 1_555
Ni9 O19 2.086248 1_555
Ni9 O26 2.090477 1_565
Ni9 O20 2.128806 1_555
Ni9 O27 2.147021 1_555
Ni10 O21 2.039989 1_555
Ni10 O28 2.086074 1_555
Ni10 O18 2.086248 1_555
Ni10 O26 2.090477 1_555
Ni10 O20 2.128806 1_555
Ni10 O27 2.147021 1_555
Ni11 O29 2.051593 1_555
Ni11 O28 2.051593 1_555
Ni11 O25 2.070702 1_555
Ni11 O24 2.070702 1_555
Ni11 O20 2.087290 1_555
Ni11 O30 2.151685 1_555
Ni12 O26 2.058644 1_665
Ni12 O3 2.060477 1_555
Ni12 O27 2.118823 1_655
Ni12 O0 2.142578 1_565
Ni12 O1 2.184966 1_555
Ni12 O22 2.207617 1_655
Ni13 O26 2.058644 1_655
Ni13 O2 2.060477 1_555
Ni13 O27 2.118823 1_655
Ni13 O0 2.142578 1_555
Ni13 O1 2.184966 1_555
Ni13 O23 2.207617 1_655
Ni14 O5 2.058644 1_455
Ni14 O28 2.060477 1_555
Ni14 O4 2.118823 1_455
Ni14 O31 2.142578 1_555
Ni14 O30 2.184966 1_555
Ni14 O9 2.207617 1_455
Ni15 O5 2.058644 1_465
Ni15 O29 2.060477 1_555
Ni15 O4 2.118823 1_455
Ni15 O31 2.142578 1_565
Ni15 O30 2.184966 1_555
Ni15 O8 2.207617 1_455
Ni16 O30 2.089325 1_555
Ni16 O1 2.089325 1_454
Ni16 O8 2.128823 1_455
Ni16 O23 2.128823 1_554
Ni16 O22 2.128823 1_554
Ni16 O9 2.128823 1_455
As0 O10 1.708736 1_555
As0 O6 1.711876 1_555
As0 O7 1.711877 1_545
As0 O14 1.771497 1_555
As1 O12 1.708783 1_555
As1 O13 1.708783 1_555
As1 O16 1.723601 1_555
As1 O20 1.759786 1_555
As2 O18 1.708783 1_555
As2 O19 1.708783 1_555
As2 O15 1.723601 1_555
As2 O11 1.759786 1_555
As3 O21 1.708736 1_555
As3 O24 1.711876 1_545
As3 O25 1.711877 1_555
As3 O17 1.771497 1_555
As4 O28 1.865445 1_555
As4 O3 1.865445 1_455
As4 O29 1.865445 1_555
As4 O2 1.865445 1_455
As4 O27 1.880961 1_555
As4 O4 1.880961 1_455
As5 O9 1.867190 1_455
As5 O22 1.867190 1_544
As5 O23 1.867190 1_554
As5 O8 1.867190 1_445
As5 O31 1.877156 1_555
As5 O0 1.877156 1_454
