# generated using pymatgen
data_Li6CrFeP2(CO7)2
_symmetry_space_group_name_H-M   'P 1'
_cell_length_a   8.65546644
_cell_length_b   5.02730327
_cell_length_c   6.45524247
_cell_angle_alpha   89.98122872
_cell_angle_beta   90.03706086
_cell_angle_gamma   83.82556876
_symmetry_Int_Tables_number   1
_chemical_formula_structural   Li6CrFeP2(CO7)2
_chemical_formula_sum   'Li6 Cr1 Fe1 P2 C2 O14'
_cell_volume   279.26167875
_cell_formula_units_Z   1
loop_
 _symmetry_equiv_pos_site_id
 _symmetry_equiv_pos_as_xyz
  1  'x, y, z'
loop_
 _atom_site_type_symbol
 _atom_site_label
 _atom_site_symmetry_multiplicity
 _atom_site_fract_x
 _atom_site_fract_y
 _atom_site_fract_z
 _atom_site_occupancy
  Li  Li0  1  0.11115200  0.79186600  0.25011300  1
  Li  Li1  1  0.27039900  0.27536300  0.01827400  1
  Li  Li2  1  0.27055800  0.27519400  0.48134500  1
  Li  Li3  1  0.72827300  0.72359300  0.52137000  1
  Li  Li4  1  0.72854700  0.72339100  0.97932200  1
  Li  Li5  1  0.89454000  0.20406300  0.75009500  1
  Cr  Cr0  1  0.66725000  0.19940800  0.24998800  1
  Fe  Fe0  1  0.33222700  0.79400200  0.74999100  1
  P  P0  1  0.40895600  0.73560700  0.24987600  1
  P  P1  1  0.58799800  0.27106800  0.74994600  1
  C  C0  1  0.03848100  0.67584100  0.75012400  1
  C  C1  1  0.96417700  0.31684900  0.24998800  1
  O  O0  1  0.06301900  0.92460700  0.74982500  1
  O  O1  1  0.09980900  0.40509100  0.25008400  1
  O  O2  1  0.15992500  0.49563000  0.75025800  1
  O  O3  1  0.30935300  0.85177500  0.06214800  1
  O  O4  1  0.30916200  0.85127600  0.43739900  1
  O  O5  1  0.42497300  0.17760700  0.74957500  1
  O  O6  1  0.41795800  0.42619500  0.24972900  1
  O  O7  1  0.57245700  0.58385700  0.75008300  1
  O  O8  1  0.57458300  0.82382200  0.25026800  1
  O  O9  1  0.69081300  0.15939300  0.93624100  1
  O  O10  1  0.69095800  0.15986500  0.56382300  1
  O  O11  1  0.83676000  0.48624400  0.24989100  1
  O  O12  1  0.89862700  0.60286700  0.75025600  1
  O  O13  1  0.94904700  0.06552900  0.24998600  1
loop_
_geom_bond_atom_site_label_1
_geom_bond_atom_site_label_2
_geom_bond_distance
_geom_bond_site_symmetry_2
Li0 O13 1.856400 1_465
Li0 O1 1.957430 1_555
Li0 O4 2.143792 1_555
Li0 O3 2.149317 1_555
Li1 O3 2.138625 1_545
Li1 O1 2.154306 1_555
Li1 O6 2.155258 1_555
Li1 O5 2.214091 1_554
Li1 O2 2.214194 1_554
Li2 O4 2.140402 1_545
Li2 O1 2.151316 1_555
Li2 O6 2.156265 1_555
Li2 O5 2.209178 1_555
Li2 O2 2.221159 1_555
Li3 O12 2.128292 1_555
Li3 O7 2.167449 1_555
Li3 O10 2.199542 1_565
Li3 O8 2.222231 1_555
Li3 O11 2.266963 1_555
Li4 O12 2.128916 1_555
Li4 O7 2.170048 1_555
Li4 O9 2.198632 1_565
Li4 O8 2.224581 1_556
Li4 O11 2.259542 1_556
Li5 O0 1.913011 1_645
Li5 O12 2.009022 1_555
Li5 O10 2.163759 1_555
Li5 O9 2.165981 1_555
Cr0 O9 2.043510 1_554
Cr0 O10 2.043586 1_555
Cr0 O8 2.129401 1_545
Cr0 O11 2.164983 1_555
Cr0 O6 2.329491 1_555
Cr0 O13 2.459471 1_555
Fe0 O3 2.042672 1_556
Fe0 O4 2.044809 1_555
Fe0 O5 2.167154 1_565
Fe0 O2 2.226067 1_555
Fe0 O7 2.228694 1_555
Fe0 O0 2.351907 1_555
C0 O0 1.290854 1_555
C0 O12 1.302088 1_455
C0 O2 1.311816 1_555
C1 O13 1.284164 1_555
C1 O1 1.298847 1_655
C1 O11 1.318892 1_555
O3 P0 1.562919 1_555
O4 P0 1.563114 1_555
O5 P1 1.534428 1_555
O6 P0 1.549066 1_555
O7 P1 1.563747 1_555
O8 P0 1.545506 1_555
O9 P1 1.563342 1_555
O10 P1 1.563617 1_555
