# generated using pymatgen
data_FeOF
_symmetry_space_group_name_H-M   'P 1'
_cell_length_a   3.12961100
_cell_length_b   9.58588300
_cell_length_c   14.30957863
_cell_angle_alpha   89.94484868
_cell_angle_beta   90.00000000
_cell_angle_gamma   90.00000000
_symmetry_Int_Tables_number   1
_chemical_formula_structural   FeOF
_chemical_formula_sum   'Fe12 O12 F12'
_cell_volume   429.28837462
_cell_formula_units_Z   12
loop_
 _symmetry_equiv_pos_site_id
 _symmetry_equiv_pos_as_xyz
  1  'x, y, z'
loop_
 _atom_site_type_symbol
 _atom_site_label
 _atom_site_symmetry_multiplicity
 _atom_site_fract_x
 _atom_site_fract_y
 _atom_site_fract_z
 _atom_site_occupancy
  Fe  Fe0  1  0.00000000  0.99449800  0.00430500  1
  Fe  Fe1  1  0.00000000  0.98839100  0.32855400  1
  Fe  Fe2  1  0.00000000  0.99308000  0.66997000  1
  Fe  Fe3  1  0.50000000  0.77259500  0.16509300  1
  Fe  Fe4  1  0.50000000  0.75484000  0.48174800  1
  Fe  Fe5  1  0.50000000  0.77682500  0.83313500  1
  Fe  Fe6  1  0.00000000  0.50045500  0.34267400  1
  Fe  Fe7  1  0.00000000  0.48775100  0.99688500  1
  Fe  Fe8  1  0.00000000  0.48531400  0.66329400  1
  Fe  Fe9  1  0.50000000  0.21667800  0.17145600  1
  Fe  Fe10  1  0.50000000  0.26948600  0.49685400  1
  Fe  Fe11  1  0.50000000  0.27155100  0.83110800  1
  O  O0  1  0.50000000  0.90025700  0.27111600  1
  O  O1  1  0.50000000  0.90713700  0.93758900  1
  O  O2  1  0.00000000  0.84347400  0.10167200  1
  O  O3  1  0.00000000  0.84856900  0.77004400  1
  O  O4  1  0.00000000  0.85141500  0.43397100  1
  O  O5  1  0.50000000  0.59425600  0.39596000  1
  O  O6  1  0.50000000  0.40258000  0.94047600  1
  O  O7  1  0.50000000  0.40455700  0.60076700  1
  O  O8  1  0.00000000  0.34149900  0.43175900  1
  O  O9  1  0.00000000  0.35109000  0.76961000  1
  O  O10  1  0.00000000  0.14642600  0.23565300  1
  O  O11  1  0.50000000  0.09410800  0.06258600  1
  F  F0  1  0.50000000  0.89933800  0.59683900  1
  F  F1  1  0.00000000  0.64660200  0.22865200  1
  F  F2  1  0.00000000  0.65831900  0.56685900  1
  F  F3  1  0.00000000  0.65214000  0.90149700  1
  F  F4  1  0.50000000  0.59497600  0.06663100  1
  F  F5  1  0.50000000  0.60077000  0.73299300  1
  F  F6  1  0.50000000  0.40109900  0.26355600  1
  F  F7  1  0.00000000  0.34649000  0.10579800  1
  F  F8  1  0.00000000  0.15318600  0.89508800  1
  F  F9  1  0.00000000  0.14858400  0.56756500  1
  F  F10  1  0.50000000  0.09669800  0.40483600  1
  F  F11  1  0.50000000  0.10496700  0.73340900  1
loop_
_geom_bond_atom_site_label_1
_geom_bond_atom_site_label_2
_geom_bond_distance
_geom_bond_site_symmetry_2
Fe0 O2 2.008278 1_555
Fe0 O11 2.014300 1_565
Fe0 O11 2.014300 1_465
Fe0 O1 2.015653 1_454
Fe0 O1 2.015653 1_554
Fe1 O0 1.959401 1_455
Fe1 O0 1.959401 1_555
Fe1 O4 1.998935 1_555
Fe1 O10 2.014521 1_565
Fe2 O3 1.991435 1_555
Fe3 O2 1.932012 1_655
Fe3 O2 1.932012 1_555
Fe3 O0 1.950096 1_555
Fe4 O4 1.942119 1_555
Fe4 O4 1.942119 1_655
Fe4 O5 1.969818 1_555
Fe5 O3 1.932731 1_555
Fe5 O3 1.932731 1_655
Fe5 O1 1.948869 1_555
Fe6 O5 1.959551 1_455
Fe6 O5 1.959551 1_555
Fe6 O8 1.985714 1_555
Fe7 O6 1.941137 1_555
Fe7 O6 1.941137 1_455
Fe8 O7 1.962084 1_555
Fe8 O7 1.962084 1_455
Fe8 O9 1.991527 1_555
Fe9 O10 1.935152 1_655
Fe9 O10 1.935152 1_555
Fe9 O11 1.952182 1_555
Fe10 O8 1.947193 1_655
Fe10 O8 1.947193 1_555
Fe10 O7 1.972605 1_555
Fe11 O9 1.950148 1_655
Fe11 O9 1.950148 1_555
Fe11 O6 2.007648 1_555
F0 Fe2 2.086388 1_555
F0 Fe2 2.086388 1_655
F0 Fe4 2.152974 1_555
F1 Fe6 2.149511 1_555
F1 Fe3 2.175400 1_455
F1 Fe3 2.175400 1_555
F2 Fe8 2.156421 1_555
F2 Fe4 2.187647 1_555
F2 Fe4 2.187647 1_455
F3 Fe7 2.083787 1_555
F3 Fe5 2.198145 1_455
F3 Fe5 2.198145 1_555
F4 Fe7 2.122059 1_654
F4 Fe7 2.122059 1_554
F4 Fe3 2.211046 1_555
F5 Fe8 2.161103 1_655
F5 Fe8 2.161103 1_555
F5 Fe5 2.215006 1_555
F6 Fe6 2.153959 1_555
F6 Fe6 2.153959 1_655
F6 Fe9 2.206044 1_555
F7 Fe7 2.063607 1_554
F7 Fe9 2.208514 1_555
F7 Fe9 2.208514 1_455
F8 Fe11 2.138270 1_455
F8 Fe11 2.138270 1_555
F8 Fe0 2.179877 1_546
F9 Fe2 2.089289 1_545
F9 Fe10 2.193937 1_455
F9 Fe10 2.193937 1_555
F10 Fe10 2.116935 1_555
F10 Fe1 2.172603 1_545
F10 Fe1 2.172603 1_645
F11 Fe2 2.103544 1_645
F11 Fe2 2.103544 1_545
F11 Fe11 2.123378 1_555
