# generated using pymatgen
data_ThV2O7
_symmetry_space_group_name_H-M   'P 1'
_cell_length_a   7.18152900
_cell_length_b   7.35575700
_cell_length_c   23.60682300
_cell_angle_alpha   90.00000000
_cell_angle_beta   90.00000000
_cell_angle_gamma   90.00000000
_symmetry_Int_Tables_number   1
_chemical_formula_structural   ThV2O7
_chemical_formula_sum   'Th8 V16 O56'
_cell_volume   1247.04416916
_cell_formula_units_Z   8
loop_
 _symmetry_equiv_pos_site_id
 _symmetry_equiv_pos_as_xyz
  1  'x, y, z'
loop_
 _atom_site_type_symbol
 _atom_site_label
 _atom_site_symmetry_multiplicity
 _atom_site_fract_x
 _atom_site_fract_y
 _atom_site_fract_z
 _atom_site_occupancy
  Th  Th0  1  0.14033200  0.74232300  0.64472600  1
  Th  Th1  1  0.85966800  0.25767700  0.64472600  1
  Th  Th2  1  0.64033200  0.75767700  0.85527400  1
  Th  Th3  1  0.35966800  0.24232300  0.14472600  1
  Th  Th4  1  0.14033200  0.74232300  0.35527400  1
  Th  Th5  1  0.85966800  0.25767700  0.35527400  1
  Th  Th6  1  0.64033200  0.75767700  0.14472600  1
  Th  Th7  1  0.35966800  0.24232300  0.85527400  1
  V  V0  1  0.61798000  0.31579200  0.00000000  1
  V  V1  1  0.88202000  0.81579200  0.50000000  1
  V  V2  1  0.31532300  0.24533800  0.31353000  1
  V  V3  1  0.31532300  0.24533800  0.68647000  1
  V  V4  1  0.68467700  0.75466200  0.68647000  1
  V  V5  1  0.63059100  0.17210900  0.50000000  1
  V  V6  1  0.38202000  0.68420800  0.00000000  1
  V  V7  1  0.81532300  0.25466200  0.81353000  1
  V  V8  1  0.18467700  0.74533800  0.18647000  1
  V  V9  1  0.86940900  0.67210900  0.00000000  1
  V  V10  1  0.68467700  0.75466200  0.31353000  1
  V  V11  1  0.11798000  0.18420800  0.50000000  1
  V  V12  1  0.18467700  0.74533800  0.81353000  1
  V  V13  1  0.81532300  0.25466200  0.18647000  1
  V  V14  1  0.13059100  0.32789100  0.00000000  1
  V  V15  1  0.36940900  0.82789100  0.50000000  1
  O  O0  1  0.17141700  0.06700300  0.66083400  1
  O  O1  1  0.67603900  0.06758800  0.16478200  1
  O  O2  1  0.32858300  0.56700300  0.83916600  1
  O  O3  1  0.53465400  0.24104200  0.65920600  1
  O  O4  1  0.43208900  0.79784300  0.06020100  1
  O  O5  1  0.82858300  0.93299700  0.33916600  1
  O  O6  1  0.33024200  0.70325900  0.44142700  1
  O  O7  1  0.32396100  0.93241200  0.83521800  1
  O  O8  1  0.82858300  0.93299700  0.66083400  1
  O  O9  1  0.17603900  0.43241200  0.33521800  1
  O  O10  1  0.37633900  0.11568900  0.50000000  1
  O  O11  1  0.06791100  0.29784300  0.43979900  1
  O  O12  1  0.65994200  0.75314500  0.24075800  1
  O  O13  1  0.46534600  0.75895800  0.34079400  1
  O  O14  1  0.65994200  0.75314500  0.75924200  1
  O  O15  1  0.17141700  0.06700300  0.33916600  1
  O  O16  1  0.34005800  0.24685500  0.24075800  1
  O  O17  1  0.67141700  0.43299700  0.83916600  1
  O  O18  1  0.37174000  0.42342100  0.00000000  1
  O  O19  1  0.62366100  0.88431100  0.50000000  1
  O  O20  1  0.83024200  0.79674100  0.94142700  1
  O  O21  1  0.87633900  0.38431100  0.00000000  1
  O  O22  1  0.83024200  0.79674100  0.05857300  1
  O  O23  1  0.67141700  0.43299700  0.16083400  1
  O  O24  1  0.03465400  0.25895800  0.84079400  1
  O  O25  1  0.32858300  0.56700300  0.16083400  1
  O  O26  1  0.03465400  0.25895800  0.15920600  1
  O  O27  1  0.66975800  0.29674100  0.55857300  1
  O  O28  1  0.15994200  0.74685500  0.25924200  1
  O  O29  1  0.33024200  0.70325900  0.55857300  1
  O  O30  1  0.56791100  0.20215700  0.06020100  1
  O  O31  1  0.84005800  0.25314500  0.25924200  1
  O  O32  1  0.15994200  0.74685500  0.74075800  1
  O  O33  1  0.66975800  0.29674100  0.44142700  1
  O  O34  1  0.16975800  0.20325900  0.94142700  1
  O  O35  1  0.82396100  0.56758800  0.33521800  1
  O  O36  1  0.82396100  0.56758800  0.66478200  1
  O  O37  1  0.12366100  0.61568900  0.00000000  1
  O  O38  1  0.16975800  0.20325900  0.05857300  1
  O  O39  1  0.34005800  0.24685500  0.75924200  1
  O  O40  1  0.46534600  0.75895800  0.65920600  1
  O  O41  1  0.96534600  0.74104200  0.15920600  1
  O  O42  1  0.84005800  0.25314500  0.74075800  1
  O  O43  1  0.32396100  0.93241200  0.16478200  1
  O  O44  1  0.93208900  0.70215700  0.43979900  1
  O  O45  1  0.43208900  0.79784300  0.93979900  1
  O  O46  1  0.67603900  0.06758800  0.83521800  1
  O  O47  1  0.17603900  0.43241200  0.66478200  1
  O  O48  1  0.96534600  0.74104200  0.84079400  1
  O  O49  1  0.93208900  0.70215700  0.56020100  1
  O  O50  1  0.06791100  0.29784300  0.56020100  1
  O  O51  1  0.87174000  0.07657900  0.50000000  1
  O  O52  1  0.56791100  0.20215700  0.93979900  1
  O  O53  1  0.12826000  0.92342100  0.50000000  1
  O  O54  1  0.62826000  0.57657900  0.00000000  1
  O  O55  1  0.53465400  0.24104200  0.34079400  1
loop_
_geom_bond_atom_site_label_1
_geom_bond_atom_site_label_2
_geom_bond_distance
_geom_bond_site_symmetry_2
O0 V3 1.776257 1_555
O0 Th0 2.428632 1_545
O0 Th1 2.669106 1_455
O1 V13 1.776582 1_555
O1 Th6 2.342356 1_545
O1 Th3 2.652977 1_555
O2 V12 1.776257 1_555
O2 Th7 2.428632 1_555
O2 Th2 2.669106 1_555
O3 V3 1.701846 1_555
O3 Th1 2.362166 1_555
O4 V6 1.687499 1_555
O4 Th6 2.511038 1_555
O5 V10 1.776257 1_555
O5 Th5 2.428632 1_565
O5 Th4 2.669106 1_655
O6 V15 1.682704 1_555
O6 Th4 2.465558 1_555
O7 V12 1.776582 1_555
O7 Th7 2.342356 1_565
O7 Th2 2.652977 1_555
O8 V4 1.776257 1_555
O8 Th1 2.428632 1_565
O8 Th0 2.669106 1_655
O9 V2 1.776582 1_555
O9 Th4 2.342356 1_555
O9 Th5 2.652977 1_455
O10 V5 1.872488 1_555
O10 V11 1.922650 1_555
O10 V15 2.117557 1_545
O11 V11 1.687499 1_555
O11 Th5 2.511038 1_455
O12 V10 1.727111 1_555
O12 Th6 2.271625 1_555
O13 V10 1.701846 1_555
O13 Th4 2.362166 1_555
O14 V4 1.727111 1_555
O14 Th2 2.271625 1_555
O15 V2 1.776257 1_555
O15 Th4 2.428632 1_545
O15 Th5 2.669106 1_455
O16 V2 1.727111 1_555
O16 Th3 2.271625 1_555
O17 V7 1.776257 1_555
O17 Th2 2.428632 1_555
O17 Th7 2.669106 1_555
O18 V14 1.868951 1_555
O18 V6 1.919706 1_555
O18 V0 1.937510 1_555
O19 V15 1.872488 1_555
O19 V1 1.922650 1_555
O19 V5 2.117557 1_565
O20 V9 1.682704 1_556
O20 Th2 2.465558 1_555
O21 V14 1.872488 1_655
O21 V0 1.922650 1_555
O21 V9 2.117557 1_555
O22 V9 1.682704 1_555
O22 Th6 2.465558 1_555
O23 V13 1.776257 1_555
O23 Th6 2.428632 1_555
O23 Th3 2.669106 1_555
O24 V7 1.701846 1_455
O24 Th7 2.362166 1_555
O25 V8 1.776257 1_555
O25 Th3 2.428632 1_555
O25 Th6 2.669106 1_555
O26 V13 1.701846 1_455
O26 Th3 2.362166 1_555
O27 V5 1.682704 1_555
O27 Th1 2.465558 1_555
O28 V8 1.727111 1_555
O28 Th4 2.271625 1_555
O29 V15 1.682704 1_555
O29 Th0 2.465558 1_555
O30 V0 1.687499 1_555
O30 Th3 2.511038 1_555
O31 V13 1.727111 1_555
O31 Th5 2.271625 1_555
O32 V12 1.727111 1_555
O32 Th0 2.271625 1_555
O33 V5 1.682704 1_555
O33 Th5 2.465558 1_555
O34 V14 1.682704 1_556
O34 Th7 2.465558 1_555
O35 V10 1.776582 1_555
O35 Th5 2.342356 1_555
O35 Th4 2.652977 1_655
O36 V4 1.776582 1_555
O36 Th1 2.342356 1_555
O36 Th0 2.652977 1_655
O37 V9 1.872488 1_455
O37 V6 1.922650 1_555
O37 V14 2.117557 1_555
O38 V14 1.682704 1_555
O38 Th3 2.465558 1_555
O39 V3 1.727111 1_555
O39 Th7 2.271625 1_555
O40 V4 1.701846 1_555
O40 Th0 2.362166 1_555
O41 V8 1.701846 1_655
O41 Th6 2.362166 1_555
O42 V7 1.727111 1_555
O42 Th1 2.271625 1_555
O43 V8 1.776582 1_555
O43 Th3 2.342356 1_565
O43 Th6 2.652977 1_555
O44 V1 1.687499 1_555
O44 Th4 2.511038 1_655
O45 V6 1.687499 1_556
O45 Th2 2.511038 1_555
O46 V7 1.776582 1_555
O46 Th2 2.342356 1_545
O46 Th7 2.652977 1_555
O47 V3 1.776582 1_555
O47 Th0 2.342356 1_555
O47 Th1 2.652977 1_455
O48 V12 1.701846 1_655
O48 Th2 2.362166 1_555
O49 V1 1.687499 1_555
O49 Th0 2.511038 1_655
O50 V11 1.687499 1_555
O50 Th1 2.511038 1_455
O51 V5 1.868951 1_555
O51 V1 1.919706 1_545
O51 V11 1.937510 1_655
O52 V0 1.687499 1_556
O52 Th7 2.511038 1_555
O53 V15 1.868951 1_555
O53 V11 1.919706 1_565
O53 V1 1.937510 1_455
O54 V9 1.868951 1_555
O54 V0 1.919706 1_555
O54 V6 1.937510 1_555
O55 V2 1.701846 1_555
O55 Th5 2.362166 1_555
