# generated using pymatgen
data_LiCu2F6
_symmetry_space_group_name_H-M   'P 1'
_cell_length_a   5.16728086
_cell_length_b   5.16728086
_cell_length_c   8.92076056
_cell_angle_alpha   89.61890663
_cell_angle_beta   89.61890663
_cell_angle_gamma   121.73284618
_symmetry_Int_Tables_number   1
_chemical_formula_structural   LiCu2F6
_chemical_formula_sum   'Li2 Cu4 F12'
_cell_volume   202.56516876
_cell_formula_units_Z   2
loop_
 _symmetry_equiv_pos_site_id
 _symmetry_equiv_pos_as_xyz
  1  'x, y, z'
loop_
 _atom_site_type_symbol
 _atom_site_label
 _atom_site_symmetry_multiplicity
 _atom_site_fract_x
 _atom_site_fract_y
 _atom_site_fract_z
 _atom_site_occupancy
  Li  Li0  1  0.00618400  0.99381600  0.75000000  1
  Li  Li1  1  0.99381600  0.00618400  0.25000000  1
  Cu  Cu0  1  0.33443000  0.66596300  0.50040600  1
  Cu  Cu1  1  0.33403700  0.66557000  0.99959400  1
  Cu  Cu2  1  0.66596300  0.33443000  0.00040600  1
  Cu  Cu3  1  0.66557000  0.33403700  0.49959400  1
  F  F0  1  0.00577800  0.35046600  0.38366600  1
  F  F1  1  0.00688800  0.35635500  0.88087300  1
  F  F2  1  0.34118400  0.34327100  0.11670900  1
  F  F3  1  0.65672900  0.65881600  0.38329100  1
  F  F4  1  0.35635500  0.00688800  0.38087300  1
  F  F5  1  0.35046600  0.00577800  0.88366600  1
  F  F6  1  0.64953400  0.99422200  0.11633400  1
  F  F7  1  0.64364500  0.99311200  0.61912700  1
  F  F8  1  0.34327100  0.34118400  0.61670900  1
  F  F9  1  0.65881600  0.65672900  0.88329100  1
  F  F10  1  0.99311200  0.64364500  0.11912700  1
  F  F11  1  0.99422200  0.64953400  0.61633400  1
loop_
_geom_bond_atom_site_label_1
_geom_bond_atom_site_label_2
_geom_bond_distance
_geom_bond_site_symmetry_2
Cu0 F7 1.933228 1_555
Cu0 F0 1.939097 1_555
Cu0 F3 1.977000 1_555
Cu0 F8 1.988233 1_555
Cu0 F11 1.996186 1_455
Cu0 F4 2.004189 1_565
Cu1 F1 1.933228 1_555
Cu1 F6 1.939097 1_556
Cu1 F2 1.977000 1_556
Cu1 F9 1.988233 1_555
Cu1 F5 1.996186 1_565
Cu1 F10 2.004189 1_456
Cu2 F10 1.933228 1_555
Cu2 F5 1.939097 1_554
Cu2 F9 1.977000 1_554
Cu2 F2 1.988233 1_555
Cu2 F6 1.996186 1_545
Cu2 F1 2.004189 1_654
Cu3 F4 1.933228 1_555
Cu3 F11 1.939097 1_555
Cu3 F8 1.977000 1_555
Cu3 F3 1.988233 1_555
Cu3 F0 1.996186 1_655
Cu3 F7 2.004189 1_545
F0 Li1 2.122268 1_455
F1 Li0 2.212335 1_545
F2 Li1 2.079638 1_455
F3 Li1 2.079638 1_565
F4 Li1 2.212335 1_455
F5 Li0 2.122268 1_545
F6 Li1 2.122268 1_565
F7 Li0 2.212335 1_655
F8 Li0 2.079638 1_545
F9 Li0 2.079638 1_655
F10 Li1 2.212335 1_565
F11 Li0 2.122268 1_655
