# generated using pymatgen
data_H2S
_symmetry_space_group_name_H-M   'P 1'
_cell_length_a   13.40218768
_cell_length_b   13.40218768
_cell_length_c   4.32020372
_cell_angle_alpha   90.00000000
_cell_angle_beta   90.00000000
_cell_angle_gamma   90.00000000
_symmetry_Int_Tables_number   1
_chemical_formula_structural   H2S
_chemical_formula_sum   'H32 S16'
_cell_volume   775.98909345
_cell_formula_units_Z   16
loop_
 _symmetry_equiv_pos_site_id
 _symmetry_equiv_pos_as_xyz
  1  'x, y, z'
loop_
 _atom_site_type_symbol
 _atom_site_label
 _atom_site_symmetry_multiplicity
 _atom_site_fract_x
 _atom_site_fract_y
 _atom_site_fract_z
 _atom_site_occupancy
  H  H0  1  0.13184575  0.80652572  0.65502728  1
  H  H1  1  0.86815425  0.19347428  0.65502728  1
  H  H2  1  0.80652572  0.86815425  0.15502728  1
  H  H3  1  0.19347428  0.13184575  0.15502728  1
  H  H4  1  0.05590398  0.88488957  0.35301868  1
  H  H5  1  0.94409602  0.11511043  0.35301868  1
  H  H6  1  0.88488957  0.94409602  0.85301868  1
  H  H7  1  0.11511043  0.05590398  0.85301868  1
  H  H8  1  0.12085658  0.31017850  0.66478546  1
  H  H9  1  0.87914342  0.68982150  0.66478546  1
  H  H10  1  0.31017850  0.87914342  0.16478546  1
  H  H11  1  0.68982150  0.12085658  0.16478546  1
  H  H12  1  0.05115398  0.38888960  0.34925775  1
  H  H13  1  0.94884602  0.61111040  0.34925775  1
  H  H14  1  0.38888960  0.94884602  0.84925775  1
  H  H15  1  0.61111040  0.05115398  0.84925775  1
  H  H16  1  0.63149300  0.81545863  0.64043212  1
  H  H17  1  0.36850700  0.18454137  0.64043212  1
  H  H18  1  0.81545863  0.36850700  0.14043212  1
  H  H19  1  0.18454137  0.63149300  0.14043212  1
  H  H20  1  0.55538851  0.89211559  0.33838851  1
  H  H21  1  0.44461149  0.10788441  0.33838851  1
  H  H22  1  0.89211559  0.44461149  0.83838851  1
  H  H23  1  0.10788441  0.55538851  0.83838851  1
  H  H24  1  0.61668335  0.31852766  0.33692362  1
  H  H25  1  0.38331665  0.68147234  0.33692362  1
  H  H26  1  0.31852766  0.38331665  0.83692362  1
  H  H27  1  0.68147234  0.61668335  0.83692362  1
  H  H28  1  0.55214320  0.39620316  0.66063068  1
  H  H29  1  0.44785680  0.60379684  0.66063068  1
  H  H30  1  0.39620316  0.44785680  0.16063068  1
  H  H31  1  0.60379684  0.55214320  0.16063068  1
  S  S0  1  0.14296397  0.89426657  0.50681390  1
  S  S1  1  0.85703603  0.10573343  0.50681390  1
  S  S2  1  0.89426657  0.85703603  0.00681390  1
  S  S3  1  0.10573343  0.14296397  0.00681390  1
  S  S4  1  0.13836205  0.39464214  0.50453835  1
  S  S5  1  0.86163795  0.60535786  0.50453835  1
  S  S6  1  0.39464214  0.86163795  0.00453835  1
  S  S7  1  0.60535786  0.13836205  0.00453835  1
  S  S8  1  0.64144156  0.90361634  0.49700750  1
  S  S9  1  0.35855844  0.09638366  0.49700750  1
  S  S10  1  0.90361634  0.35855844  0.99700750  1
  S  S11  1  0.09638366  0.64144156  0.99700750  1
  S  S12  1  0.63716412  0.40257019  0.49317614  1
  S  S13  1  0.36283588  0.59742981  0.49317614  1
  S  S14  1  0.40257019  0.36283588  0.99317614  1
  S  S15  1  0.59742981  0.63716412  0.99317614  1
loop_
_geom_bond_atom_site_label_1
_geom_bond_atom_site_label_2
_geom_bond_distance
_geom_bond_site_symmetry_2
H0 S0 1.347215 1_555
H1 S1 1.347215 1_555
H2 S2 1.347215 1_555
H3 S3 1.347215 1_555
H4 S0 1.348579 1_555
H5 S1 1.348579 1_555
H6 S2 1.348579 1_556
H7 S3 1.348579 1_556
H8 S4 1.347494 1_555
H9 S5 1.347494 1_555
H10 S6 1.347494 1_555
H11 S7 1.347494 1_555
H12 S4 1.349822 1_555
H13 S5 1.349822 1_555
H14 S6 1.349822 1_556
H15 S7 1.349822 1_556
H16 S8 1.340771 1_555
H17 S9 1.340771 1_555
H18 S10 1.340771 1_554
H19 S11 1.340771 1_554
H20 S8 1.350351 1_555
H21 S9 1.350351 1_555
H22 S10 1.350351 1_555
H23 S11 1.350351 1_555
H24 S12 1.341528 1_555
H25 S13 1.341528 1_555
H26 S14 1.341528 1_555
H27 S15 1.341528 1_555
H28 S12 1.352415 1_555
H29 S13 1.352415 1_555
H30 S14 1.352415 1_554
H31 S15 1.352415 1_554
