# generated using pymatgen
data_LiMn2(CO4)2
_symmetry_space_group_name_H-M   'P 1'
_cell_length_a   9.30277600
_cell_length_b   6.38742500
_cell_length_c   9.78643464
_cell_angle_alpha   70.73870047
_cell_angle_beta   90.00000000
_cell_angle_gamma   90.00000000
_symmetry_Int_Tables_number   1
_chemical_formula_structural   LiMn2(CO4)2
_chemical_formula_sum   'Li4 Mn8 C8 O32'
_cell_volume   548.96657819
_cell_formula_units_Z   4
loop_
 _symmetry_equiv_pos_site_id
 _symmetry_equiv_pos_as_xyz
  1  'x, y, z'
loop_
 _atom_site_type_symbol
 _atom_site_label
 _atom_site_symmetry_multiplicity
 _atom_site_fract_x
 _atom_site_fract_y
 _atom_site_fract_z
 _atom_site_occupancy
  Li  Li0  1  0.10212800  0.22496800  0.31552300  1
  Li  Li1  1  0.39787200  0.22496800  0.81552300  1
  Li  Li2  1  0.60212800  0.77503200  0.18447700  1
  Li  Li3  1  0.89787200  0.77503200  0.68447700  1
  Mn  Mn0  1  0.12310200  0.40427800  0.94449900  1
  Mn  Mn1  1  0.11675400  0.90770000  0.93242800  1
  Mn  Mn2  1  0.37689800  0.40427800  0.44449900  1
  Mn  Mn3  1  0.38324600  0.90770000  0.43242800  1
  Mn  Mn4  1  0.62310200  0.59572200  0.55550100  1
  Mn  Mn5  1  0.61675400  0.09230000  0.56757200  1
  Mn  Mn6  1  0.87689800  0.59572200  0.05550100  1
  Mn  Mn7  1  0.88324600  0.09230000  0.06757200  1
  C  C0  1  0.16268400  0.55506800  0.63275700  1
  C  C1  1  0.16045500  0.06481700  0.63624400  1
  C  C2  1  0.33954500  0.06481700  0.13624400  1
  C  C3  1  0.33731600  0.55506800  0.13275700  1
  C  C4  1  0.66268400  0.44493200  0.86724300  1
  C  C5  1  0.66045500  0.93518300  0.86375600  1
  C  C6  1  0.83731600  0.44493200  0.36724300  1
  C  C7  1  0.83954500  0.93518300  0.36375600  1
  O  O0  1  0.99605400  0.80910300  0.10181800  1
  O  O1  1  0.00005600  0.33686000  0.11446100  1
  O  O2  1  0.02979100  0.03528600  0.63202700  1
  O  O3  1  0.03294200  0.58992400  0.61822000  1
  O  O4  1  0.25032600  0.60449000  0.51518900  1
  O  O5  1  0.23879300  0.13982900  0.51331200  1
  O  O6  1  0.23427700  0.02110900  0.75685700  1
  O  O7  1  0.23002300  0.47605500  0.75804200  1
  O  O8  1  0.26572300  0.02110900  0.25685700  1
  O  O9  1  0.26997700  0.47605500  0.25804200  1
  O  O10  1  0.26120700  0.13982900  0.01331200  1
  O  O11  1  0.24967400  0.60449000  0.01518900  1
  O  O12  1  0.46705800  0.58992400  0.11822000  1
  O  O13  1  0.47020900  0.03528600  0.13202700  1
  O  O14  1  0.49994400  0.33686000  0.61446100  1
  O  O15  1  0.50394600  0.80910300  0.60181800  1
  O  O16  1  0.50005600  0.66314000  0.38553900  1
  O  O17  1  0.49605400  0.19089700  0.39818200  1
  O  O18  1  0.53294200  0.41007600  0.88178000  1
  O  O19  1  0.52979100  0.96471400  0.86797300  1
  O  O20  1  0.75032600  0.39551000  0.98481100  1
  O  O21  1  0.73879300  0.86017100  0.98668800  1
  O  O22  1  0.73002300  0.52394500  0.74195800  1
  O  O23  1  0.73427700  0.97889100  0.74314300  1
  O  O24  1  0.76572300  0.97889100  0.24314300  1
  O  O25  1  0.76997700  0.52394500  0.24195800  1
  O  O26  1  0.74967400  0.39551000  0.48481100  1
  O  O27  1  0.76120700  0.86017100  0.48668800  1
  O  O28  1  0.97020900  0.96471400  0.36797300  1
  O  O29  1  0.96705800  0.41007600  0.38178000  1
  O  O30  1  0.99994400  0.66314000  0.88553900  1
  O  O31  1  0.00394600  0.19089700  0.89818200  1
loop_
_geom_bond_atom_site_label_1
_geom_bond_atom_site_label_2
_geom_bond_distance
_geom_bond_site_symmetry_2
Li0 O29 1.975627 1_455
Li0 O28 1.992483 1_445
Li0 O1 2.087199 1_555
Li0 O9 2.175214 1_555
Li0 O8 2.198761 1_555
Li0 O5 2.228084 1_555
Li1 O18 1.975627 1_555
Li1 O19 1.992483 1_545
Li1 O14 2.087199 1_555
Li1 O7 2.175214 1_555
Li1 O6 2.198761 1_555
Li1 O10 2.228084 1_556
Li2 O12 1.975627 1_555
Li2 O13 1.992483 1_565
Li2 O16 2.087199 1_555
Li2 O25 2.175214 1_555
Li2 O24 2.198761 1_555
Li2 O21 2.228084 1_554
Li3 O3 1.975627 1_655
Li3 O2 1.992483 1_665
Li3 O30 2.087199 1_555
Li3 O22 2.175214 1_555
Li3 O23 2.198761 1_555
Li3 O27 2.228084 1_555
Mn0 O31 1.923391 1_555
Mn0 O30 1.936513 1_455
Mn0 O1 1.946737 1_556
Mn0 O7 1.994320 1_555
Mn0 O11 2.020927 1_556
Mn0 O10 2.051062 1_556
Mn1 O0 1.927867 1_456
Mn1 O6 1.962426 1_565
Mn1 O31 2.021328 1_565
Mn1 O30 2.074728 1_455
Mn1 O11 2.213822 1_556
Mn1 O10 2.324900 1_566
Mn2 O17 1.923391 1_555
Mn2 O16 1.936513 1_555
Mn2 O14 1.946737 1_555
Mn2 O9 1.994320 1_555
Mn2 O4 2.020927 1_555
Mn2 O5 2.051062 1_555
Mn3 O15 1.927867 1_555
Mn3 O8 1.962426 1_565
Mn3 O17 2.021328 1_565
Mn3 O16 2.074728 1_555
Mn3 O4 2.213822 1_555
Mn3 O5 2.324900 1_565
Mn4 O15 1.923391 1_555
Mn4 O14 1.936513 1_555
Mn4 O16 1.946737 1_555
Mn4 O22 1.994320 1_555
Mn4 O26 2.020927 1_555
Mn4 O27 2.051062 1_555
Mn5 O17 1.927867 1_555
Mn5 O23 1.962426 1_545
Mn5 O15 2.021328 1_545
Mn5 O14 2.074728 1_555
Mn5 O26 2.213822 1_555
Mn5 O27 2.324900 1_545
Mn6 O0 1.923391 1_555
Mn6 O1 1.936513 1_655
Mn6 O30 1.946737 1_554
Mn6 O25 1.994320 1_555
Mn6 O20 2.020927 1_554
Mn6 O21 2.051062 1_554
Mn7 O31 1.927867 1_654
Mn7 O24 1.962426 1_545
Mn7 O0 2.021328 1_545
Mn7 O1 2.074728 1_655
Mn7 O20 2.213822 1_554
Mn7 O21 2.324900 1_544
C0 O3 1.227056 1_555
C0 O7 1.319920 1_555
C0 O4 1.359623 1_555
C1 O2 1.232863 1_555
C1 O6 1.313556 1_555
C1 O5 1.351935 1_555
C2 O13 1.232863 1_555
C2 O8 1.313556 1_555
C2 O10 1.351935 1_555
C3 O12 1.227056 1_555
C3 O9 1.319920 1_555
C3 O11 1.359623 1_555
C4 O18 1.227056 1_555
C4 O22 1.319920 1_555
C4 O20 1.359623 1_555
C5 O19 1.232863 1_555
C5 O23 1.313556 1_555
C5 O21 1.351935 1_555
C6 O29 1.227056 1_555
C6 O25 1.319920 1_555
C6 O26 1.359623 1_555
C7 O28 1.232863 1_555
C7 O24 1.313556 1_555
C7 O27 1.351935 1_555
