# generated using pymatgen
data_Ti3NbO8
_symmetry_space_group_name_H-M   'P 1'
_cell_length_a   4.72510800
_cell_length_b   6.00896287
_cell_length_c   9.91242829
_cell_angle_alpha   107.64000018
_cell_angle_beta   90.45051891
_cell_angle_gamma   89.96923992
_symmetry_Int_Tables_number   1
_chemical_formula_structural   Ti3NbO8
_chemical_formula_sum   'Ti6 Nb2 O16'
_cell_volume   268.20110545
_cell_formula_units_Z   2
loop_
 _symmetry_equiv_pos_site_id
 _symmetry_equiv_pos_as_xyz
  1  'x, y, z'
loop_
 _atom_site_type_symbol
 _atom_site_label
 _atom_site_symmetry_multiplicity
 _atom_site_fract_x
 _atom_site_fract_y
 _atom_site_fract_z
 _atom_site_occupancy
  Ti  Ti0  1  0.49552200  0.37673700  0.24672500  1
  Ti  Ti1  1  0.50447800  0.62326300  0.75327500  1
  Ti  Ti2  1  0.00000000  0.50000000  0.00000000  1
  Ti  Ti3  1  0.99806500  0.26218300  0.50295500  1
  Ti  Ti4  1  0.00000000  0.00000000  0.00000000  1
  Ti  Ti5  1  0.00193500  0.73781700  0.49704500  1
  Nb  Nb0  1  0.49747300  0.12011300  0.74811700  1
  Nb  Nb1  1  0.50252700  0.87988700  0.25188300  1
  O  O0  1  0.80552400  0.95408300  0.40441500  1
  O  O1  1  0.80419200  0.45389300  0.40309900  1
  O  O2  1  0.80759900  0.20305900  0.90259600  1
  O  O3  1  0.80237600  0.70113500  0.90297500  1
  O  O4  1  0.69686000  0.07998000  0.15046100  1
  O  O5  1  0.69668700  0.82251200  0.65057200  1
  O  O6  1  0.70104300  0.57442900  0.15316500  1
  O  O7  1  0.69433900  0.32793400  0.65022400  1
  O  O8  1  0.30331300  0.17748800  0.34942800  1
  O  O9  1  0.29895700  0.42557100  0.84683500  1
  O  O10  1  0.30314000  0.92002000  0.84953900  1
  O  O11  1  0.30566100  0.67206600  0.34977600  1
  O  O12  1  0.19447600  0.04591700  0.59558500  1
  O  O13  1  0.19580800  0.54610700  0.59690100  1
  O  O14  1  0.19762400  0.29886500  0.09702500  1
  O  O15  1  0.19240100  0.79694100  0.09740400  1
loop_
_geom_bond_atom_site_label_1
_geom_bond_atom_site_label_2
_geom_bond_distance
_geom_bond_site_symmetry_2
Nb0 O5 1.995857 1_545
Nb0 O10 2.011922 1_545
Nb0 O12 2.023029 1_555
Nb0 O7 2.028848 1_555
Nb0 O9 2.032346 1_555
Nb0 O2 2.059966 1_555
Nb1 O8 1.995857 1_565
Nb1 O4 2.011922 1_565
Nb1 O0 2.023029 1_555
Nb1 O11 2.028848 1_555
Nb1 O6 2.032346 1_555
Nb1 O15 2.059966 1_555
O0 Ti3 2.025131 1_565
O0 Ti5 2.025250 1_655
O1 Ti5 1.917311 1_655
O1 Ti3 1.954904 1_555
O1 Ti0 2.067471 1_555
O2 Ti2 1.971363 1_656
O2 Ti4 1.986589 1_656
O3 Ti2 1.986666 1_656
O3 Ti1 1.987274 1_555
O3 Ti4 1.990721 1_666
O4 Ti0 1.994135 1_555
O4 Ti4 2.026195 1_655
O5 Ti1 2.012250 1_555
O5 Ti5 2.054167 1_655
O6 Ti0 1.974184 1_555
O6 Ti2 2.030279 1_655
O7 Ti1 1.977770 1_555
O7 Ti3 2.007361 1_555
O8 Ti0 2.012250 1_555
O8 Ti3 2.054167 1_455
O9 Ti1 1.974184 1_555
O9 Ti2 2.030279 1_556
O10 Ti1 1.994135 1_555
O10 Ti4 2.026195 1_566
O11 Ti0 1.977770 1_555
O11 Ti5 2.007361 1_555
O12 Ti5 2.025131 1_545
O12 Ti3 2.025250 1_455
O13 Ti3 1.917311 1_455
O13 Ti5 1.954904 1_555
O13 Ti1 2.067471 1_555
O14 Ti2 1.986666 1_555
O14 Ti0 1.987274 1_555
O14 Ti4 1.990721 1_555
O15 Ti2 1.971363 1_555
O15 Ti4 1.986589 1_565
