# generated using pymatgen
data_Dy2Zr2O7
_symmetry_space_group_name_H-M   'P 1'
_cell_length_a   5.53596700
_cell_length_b   7.87998300
_cell_length_c   13.82667959
_cell_angle_alpha   81.54405978
_cell_angle_beta   90.00000000
_cell_angle_gamma   90.00000000
_symmetry_Int_Tables_number   1
_chemical_formula_structural   Dy2Zr2O7
_chemical_formula_sum   'Dy8 Zr8 O28'
_cell_volume   596.60887581
_cell_formula_units_Z   4
loop_
 _symmetry_equiv_pos_site_id
 _symmetry_equiv_pos_as_xyz
  1  'x, y, z'
loop_
 _atom_site_type_symbol
 _atom_site_label
 _atom_site_symmetry_multiplicity
 _atom_site_fract_x
 _atom_site_fract_y
 _atom_site_fract_z
 _atom_site_occupancy
  Dy  Dy0  1  0.32731600  0.86333100  0.55911900  1
  Dy  Dy1  1  0.77922600  0.76275300  0.92769000  1
  Dy  Dy2  1  0.24297100  0.71347200  0.13399400  1
  Dy  Dy3  1  0.75958200  0.63801800  0.39898000  1
  Dy  Dy4  1  0.25958200  0.36198200  0.60102000  1
  Dy  Dy5  1  0.74297100  0.28652800  0.86600600  1
  Dy  Dy6  1  0.27922600  0.23724700  0.07231000  1
  Dy  Dy7  1  0.82731600  0.13666900  0.44088100  1
  Zr  Zr0  1  0.26536500  0.92561400  0.31968500  1
  Zr  Zr1  1  0.76292200  0.97305900  0.11866200  1
  Zr  Zr2  1  0.77714300  0.58941800  0.67298800  1
  Zr  Zr3  1  0.26482300  0.53230000  0.87483000  1
  Zr  Zr4  1  0.76482300  0.46770000  0.12517000  1
  Zr  Zr5  1  0.27714300  0.41058200  0.32701200  1
  Zr  Zr6  1  0.26292200  0.02694100  0.88133800  1
  Zr  Zr7  1  0.76536500  0.07438600  0.68031500  1
  O  O0  1  0.55218500  0.92232100  0.41733600  1
  O  O1  1  0.41906900  0.00368300  0.17405000  1
  O  O2  1  0.63396700  0.83032300  0.67418200  1
  O  O3  1  0.38600500  0.77822100  0.88291900  1
  O  O4  1  0.04347900  0.84621400  0.43445300  1
  O  O5  1  0.05026800  0.92492900  0.02154800  1
  O  O6  1  0.96656600  0.86118300  0.22982100  1
  O  O7  1  0.11179100  0.63500600  0.62217100  1
  O  O8  1  0.91415200  0.58432300  0.82713100  1
  O  O9  1  0.63453800  0.72858100  0.08444000  1
  O  O10  1  0.40380600  0.67642800  0.29829000  1
  O  O11  1  0.57599400  0.57773900  0.54693600  1
  O  O12  1  0.54631600  0.43912500  0.97682600  1
  O  O13  1  0.47500200  0.47393200  0.76636400  1
  O  O14  1  0.97500200  0.52606800  0.23363600  1
  O  O15  1  0.04631600  0.56087500  0.02317400  1
  O  O16  1  0.07599400  0.42226100  0.45306400  1
  O  O17  1  0.90380600  0.32357200  0.70171000  1
  O  O18  1  0.13453800  0.27141900  0.91556000  1
  O  O19  1  0.41415200  0.41567700  0.17286900  1
  O  O20  1  0.61179100  0.36499400  0.37782900  1
  O  O21  1  0.46656600  0.13881700  0.77017900  1
  O  O22  1  0.55026800  0.07507100  0.97845200  1
  O  O23  1  0.54347900  0.15378600  0.56554700  1
  O  O24  1  0.88600500  0.22177900  0.11708100  1
  O  O25  1  0.13396700  0.16967700  0.32581800  1
  O  O26  1  0.91906900  0.99631700  0.82595000  1
  O  O27  1  0.05218500  0.07767900  0.58266400  1
loop_
_geom_bond_atom_site_label_1
_geom_bond_atom_site_label_2
_geom_bond_distance
_geom_bond_site_symmetry_2
Dy0 O7 2.226976 1_555
Dy0 O0 2.311037 1_555
Dy0 O2 2.314934 1_555
Dy0 O27 2.332488 1_565
Dy0 O4 2.350913 1_555
Dy0 O23 2.595816 1_565
Dy0 O11 2.664520 1_555
Dy1 O8 2.245658 1_555
Dy1 O3 2.261544 1_555
Dy1 O26 2.281260 1_555
Dy1 O9 2.289057 1_556
Dy1 O15 2.417069 1_656
Dy1 O5 2.460989 1_656
Dy1 O12 2.849204 1_555
Dy2 O9 2.271249 1_555
Dy2 O15 2.349652 1_555
Dy2 O5 2.360063 1_555
Dy2 O14 2.383526 1_455
Dy2 O10 2.417320 1_555
Dy2 O6 2.430087 1_455
Dy2 O19 2.514484 1_555
Dy2 O1 2.619032 1_565
Dy3 O11 2.271087 1_555
Dy3 O20 2.359786 1_555
Dy3 O4 2.374613 1_655
Dy3 O10 2.405225 1_555
Dy3 O16 2.478732 1_655
Dy3 O0 2.562972 1_555
Dy3 O14 2.831970 1_555
Dy3 O6 2.943856 1_555
Dy4 O16 2.271087 1_555
Dy4 O7 2.359786 1_555
Dy4 O23 2.374613 1_555
Dy4 O17 2.405225 1_455
Dy4 O11 2.478732 1_555
Dy4 O27 2.562972 1_555
Dy4 O13 2.831970 1_555
Dy4 O21 2.943856 1_555
Dy5 O18 2.271249 1_655
Dy5 O12 2.349652 1_555
Dy5 O22 2.360063 1_555
Dy5 O13 2.383526 1_555
Dy5 O17 2.417320 1_555
Dy5 O21 2.430087 1_555
Dy5 O8 2.514484 1_555
Dy5 O26 2.619032 1_545
Dy6 O19 2.245658 1_555
Dy6 O24 2.261544 1_455
Dy6 O1 2.281260 1_555
Dy6 O18 2.289057 1_554
Dy6 O12 2.417069 1_554
Dy6 O22 2.460989 1_554
Dy6 O15 2.849204 1_555
Dy7 O20 2.226976 1_555
Dy7 O27 2.311037 1_655
Dy7 O25 2.314934 1_655
Dy7 O0 2.332488 1_545
Dy7 O23 2.350913 1_555
Dy7 O4 2.595816 1_645
Dy7 O16 2.664520 1_655
O0 Zr0 2.081963 1_555
O1 Zr1 2.079091 1_545
O1 Zr0 2.189279 1_545
O2 Zr2 2.059461 1_555
O2 Zr7 2.069549 1_565
O3 Zr3 2.069198 1_555
O3 Zr6 2.072054 1_565
O4 Zr0 2.031366 1_555
O5 Zr1 2.151064 1_455
O5 Zr6 2.309132 1_564
O6 Zr1 2.002972 1_555
O6 Zr0 2.173326 1_655
O7 Zr2 1.995152 1_455
O8 Zr3 2.071753 1_655
O8 Zr2 2.257014 1_555
O9 Zr1 2.169898 1_555
O9 Zr4 2.173231 1_555
O10 Zr0 2.168265 1_555
O10 Zr5 2.189332 1_555
O11 Zr2 2.081653 1_555
O12 Zr3 2.156807 1_555
O12 Zr4 2.420085 1_556
O13 Zr3 2.004349 1_555
O13 Zr2 2.224237 1_555
O14 Zr4 2.004349 1_555
O14 Zr5 2.224237 1_655
O15 Zr4 2.156807 1_455
O15 Zr3 2.420085 1_554
O16 Zr5 2.081653 1_555
O17 Zr7 2.168265 1_555
O17 Zr2 2.189332 1_555
O18 Zr6 2.169898 1_555
O18 Zr3 2.173231 1_555
O19 Zr4 2.071753 1_555
O19 Zr5 2.257014 1_555
O20 Zr5 1.995152 1_555
O21 Zr6 2.002972 1_555
O21 Zr7 2.173326 1_555
O22 Zr6 2.151064 1_555
O22 Zr1 2.309132 1_546
O23 Zr7 2.031366 1_555
O24 Zr4 2.069198 1_555
O24 Zr1 2.072054 1_545
O25 Zr5 2.059461 1_555
O25 Zr0 2.069549 1_545
O26 Zr6 2.079091 1_665
O26 Zr7 2.189279 1_565
O27 Zr7 2.081963 1_455
