# generated using pymatgen
data_Na2Li4Ni2C4SO16
_symmetry_space_group_name_H-M   'P 1'
_cell_length_a   9.75899465
_cell_length_b   9.55987569
_cell_length_c   9.53181444
_cell_angle_alpha   61.48265009
_cell_angle_beta   59.40027482
_cell_angle_gamma   59.11707509
_symmetry_Int_Tables_number   1
_chemical_formula_structural   Na2Li4Ni2C4SO16
_chemical_formula_sum   'Na4 Li8 Ni4 C8 S2 O32'
_cell_volume   628.15918346
_cell_formula_units_Z   2
loop_
 _symmetry_equiv_pos_site_id
 _symmetry_equiv_pos_as_xyz
  1  'x, y, z'
loop_
 _atom_site_type_symbol
 _atom_site_label
 _atom_site_symmetry_multiplicity
 _atom_site_fract_x
 _atom_site_fract_y
 _atom_site_fract_z
 _atom_site_occupancy
  Na  Na0  1  0.52584200  0.52584200  0.97415800  1
  Na  Na1  1  0.27584200  0.27584200  0.72415800  1
  Na  Na2  1  0.97415800  0.97415800  0.52584200  1
  Na  Na3  1  0.72415800  0.72415800  0.27584200  1
  Li  Li0  1  0.45346100  0.81085200  0.13647500  1
  Li  Li1  1  0.65078900  0.11352500  0.43914800  1
  Li  Li2  1  0.13647500  0.59921100  0.45346100  1
  Li  Li3  1  0.43914800  0.79653900  0.65078900  1
  Li  Li4  1  0.81085200  0.45346100  0.59921100  1
  Li  Li5  1  0.11352500  0.65078900  0.79653900  1
  Li  Li6  1  0.59921100  0.13647500  0.81085200  1
  Li  Li7  1  0.79653900  0.43914800  0.11352500  1
  Ni  Ni0  1  0.12500000  0.62500000  0.12500000  1
  Ni  Ni1  1  0.12500000  0.12500000  0.62500000  1
  Ni  Ni2  1  0.62500000  0.12500000  0.12500000  1
  Ni  Ni3  1  0.12500000  0.12500000  0.12500000  1
  C  C0  1  0.28419100  0.89885400  0.90449100  1
  C  C1  1  0.33753600  0.34550900  0.35114600  1
  C  C2  1  0.89885400  0.28419100  0.91246400  1
  C  C3  1  0.90449100  0.91246400  0.28419100  1
  C  C4  1  0.34550900  0.33753600  0.96580900  1
  C  C5  1  0.35114600  0.96580900  0.33753600  1
  C  C6  1  0.91246400  0.90449100  0.89885400  1
  C  C7  1  0.96580900  0.35114600  0.34550900  1
  S  S0  1  0.50000000  0.50000000  0.50000000  1
  S  S1  1  0.75000000  0.75000000  0.75000000  1
  O  O0  1  0.28206700  0.92001500  0.02919400  1
  O  O1  1  0.48127700  0.22080600  0.32998500  1
  O  O2  1  0.31438200  0.48773300  0.23126500  1
  O  O3  1  0.28338000  0.01873500  0.76226700  1
  O  O4  1  0.29690100  0.75204600  0.91519000  1
  O  O5  1  0.56072600  0.56589500  0.56426400  1
  O  O6  1  0.48773300  0.31438200  0.96662000  1
  O  O7  1  0.21413700  0.33481000  0.49795400  1
  O  O8  1  0.94088500  0.68573600  0.68410500  1
  O  O9  1  0.01873500  0.28338000  0.93561800  1
  O  O10  1  0.91519000  0.03586300  0.29690100  1
  O  O11  1  0.49795400  0.95309900  0.21413700  1
  O  O12  1  0.02919400  0.76872300  0.28206700  1
  O  O13  1  0.32998500  0.96793300  0.48127700  1
  O  O14  1  0.56589500  0.56072600  0.30911500  1
  O  O15  1  0.56426400  0.30911500  0.56072600  1
  O  O16  1  0.68573600  0.94088500  0.68927400  1
  O  O17  1  0.68410500  0.68927400  0.94088500  1
  O  O18  1  0.92001500  0.28206700  0.76872300  1
  O  O19  1  0.22080600  0.48127700  0.96793300  1
  O  O20  1  0.75204600  0.29690100  0.03586300  1
  O  O21  1  0.33481000  0.21413700  0.95309900  1
  O  O22  1  0.23126500  0.96662000  0.31438200  1
  O  O23  1  0.30911500  0.56426400  0.56589500  1
  O  O24  1  0.03586300  0.91519000  0.75204600  1
  O  O25  1  0.76226700  0.93561800  0.28338000  1
  O  O26  1  0.68927400  0.68410500  0.68573600  1
  O  O27  1  0.95309900  0.49795400  0.33481000  1
  O  O28  1  0.96662000  0.23126500  0.48773300  1
  O  O29  1  0.93561800  0.76226700  0.01873500  1
  O  O30  1  0.76872300  0.02919400  0.92001500  1
  O  O31  1  0.96793300  0.32998500  0.22080600  1
loop_
_geom_bond_atom_site_label_1
_geom_bond_atom_site_label_2
_geom_bond_distance
_geom_bond_site_symmetry_2
Na0 O20 2.267618 1_556
Na0 O4 2.267618 1_555
Na0 O2 2.273270 1_556
Na0 O6 2.273270 1_555
Na0 O17 2.536231 1_555
Na0 O26 2.536231 1_555
Na1 O21 2.267618 1_555
Na1 O7 2.267618 1_555
Na1 O9 2.273270 1_555
Na1 O3 2.273270 1_555
Na1 O15 2.536231 1_555
Na1 O23 2.536231 1_555
Na2 O24 2.267618 1_655
Na2 O10 2.267618 1_565
Na2 O28 2.273270 1_565
Na2 O22 2.273270 1_655
Na2 O16 2.536231 1_555
Na2 O8 2.536231 1_555
Na3 O27 2.267618 1_555
Na3 O11 2.267618 1_555
Na3 O25 2.273270 1_555
Na3 O29 2.273270 1_555
Na3 O5 2.536231 1_555
Na3 O14 2.536231 1_555
Li0 O0 1.965422 1_555
Li0 O11 2.116681 1_555
Li0 O17 2.236999 1_554
Li0 O14 2.239908 1_555
Li0 O22 2.268903 1_555
Li1 O1 1.965422 1_555
Li1 O10 2.116674 1_555
Li1 O15 2.236995 1_555
Li1 O16 2.239905 1_545
Li1 O25 2.268906 1_545
Li2 O12 1.965422 1_555
Li2 O7 2.116672 1_555
Li2 O8 2.237002 1_455
Li2 O23 2.239912 1_555
Li2 O2 2.268898 1_555
Li3 O13 1.965422 1_555
Li3 O4 2.116674 1_555
Li3 O5 2.237004 1_555
Li3 O26 2.239903 1_555
Li3 O3 2.268898 1_565
Li4 O18 1.965422 1_555
Li4 O27 2.116674 1_555
Li4 O26 2.237004 1_555
Li4 O5 2.239903 1_555
Li4 O28 2.268898 1_555
Li5 O19 1.965422 1_555
Li5 O24 2.116672 1_555
Li5 O23 2.237002 1_555
Li5 O8 2.239912 1_455
Li5 O29 2.268898 1_456
Li6 O30 1.965422 1_555
Li6 O21 2.116674 1_555
Li6 O16 2.236995 1_545
Li6 O15 2.239905 1_555
Li6 O6 2.268906 1_555
Li7 O31 1.965422 1_555
Li7 O20 2.116681 1_555
Li7 O14 2.236999 1_555
Li7 O17 2.239908 1_554
Li7 O9 2.268903 1_654
Ni0 O12 2.055163 1_555
Ni0 O19 2.055163 1_554
Ni0 O2 2.076222 1_555
Ni0 O29 2.076222 1_455
Ni0 O4 2.155380 1_554
Ni0 O27 2.155380 1_455
Ni1 O18 2.055166 1_455
Ni1 O13 2.055166 1_545
Ni1 O3 2.076222 1_555
Ni1 O28 2.076222 1_455
Ni1 O7 2.155380 1_555
Ni1 O24 2.155380 1_545
Ni2 O1 2.055171 1_555
Ni2 O30 2.055171 1_554
Ni2 O25 2.076222 1_545
Ni2 O6 2.076222 1_554
Ni2 O20 2.155380 1_555
Ni2 O11 2.155380 1_545
Ni3 O31 2.055171 1_455
Ni3 O0 2.055171 1_545
Ni3 O22 2.076222 1_545
Ni3 O9 2.076222 1_554
Ni3 O10 2.155380 1_455
Ni3 O21 2.155380 1_554
C0 O0 1.286253 1_556
C0 O3 1.292052 1_565
C0 O4 1.301157 1_555
C1 O1 1.286258 1_555
C1 O2 1.292052 1_555
C1 O7 1.301157 1_555
C2 O18 1.286262 1_555
C2 O9 1.292052 1_655
C2 O20 1.301157 1_556
C3 O12 1.286258 1_655
C3 O25 1.292052 1_555
C3 O10 1.301157 1_565
C4 O19 1.286258 1_555
C4 O6 1.292052 1_555
C4 O21 1.301157 1_555
C5 O13 1.286262 1_555
C5 O22 1.292052 1_555
C5 O11 1.301157 1_555
C6 O30 1.286258 1_565
C6 O29 1.292052 1_556
C6 O24 1.301157 1_655
C7 O31 1.286253 1_555
C7 O28 1.292052 1_555
C7 O27 1.301157 1_555
O5 S0 1.498176 1_555
O8 S1 1.498176 1_555
O14 S0 1.498176 1_555
O15 S0 1.498176 1_555
O16 S1 1.498176 1_555
O17 S1 1.498176 1_555
O23 S0 1.498176 1_555
O26 S1 1.498176 1_555
