# generated using pymatgen
data_Na3Ni2P2(CO7)2
_symmetry_space_group_name_H-M   'P 1'
_cell_length_a   6.49256100
_cell_length_b   10.27133900
_cell_length_c   10.32157238
_cell_angle_alpha   61.42671977
_cell_angle_beta   90.00000000
_cell_angle_gamma   90.00000000
_symmetry_Int_Tables_number   1
_chemical_formula_structural   Na3Ni2P2(CO7)2
_chemical_formula_sum   'Na6 Ni4 P4 C4 O28'
_cell_volume   604.48485162
_cell_formula_units_Z   2
loop_
 _symmetry_equiv_pos_site_id
 _symmetry_equiv_pos_as_xyz
  1  'x, y, z'
loop_
 _atom_site_type_symbol
 _atom_site_label
 _atom_site_symmetry_multiplicity
 _atom_site_fract_x
 _atom_site_fract_y
 _atom_site_fract_z
 _atom_site_occupancy
  Na  Na0  1  0.21135200  0.25078900  0.75188400  1
  Na  Na1  1  0.26289600  0.75360900  0.74304100  1
  Na  Na2  1  0.73455500  0.75233300  0.74401600  1
  Na  Na3  1  0.78864800  0.25078900  0.25188400  1
  Na  Na4  1  0.26544500  0.75233300  0.24401600  1
  Na  Na5  1  0.73710400  0.75360900  0.24304100  1
  Ni  Ni0  1  0.50440000  0.34649200  0.93171000  1
  Ni  Ni1  1  0.00008400  0.64734400  0.56774100  1
  Ni  Ni2  1  0.49560000  0.34649200  0.43171000  1
  Ni  Ni3  1  0.99991600  0.64734400  0.06774100  1
  P  P0  1  0.99844700  0.42297300  0.92967900  1
  P  P1  1  0.49981500  0.57146100  0.57189200  1
  P  P2  1  0.00155300  0.42297300  0.42967900  1
  P  P3  1  0.50018500  0.57146100  0.07189200  1
  C  C0  1  0.99758600  0.91757900  0.90017600  1
  C  C1  1  0.00241400  0.91757900  0.40017600  1
  C  C2  1  0.50353500  0.07913600  0.60555100  1
  C  C3  1  0.49646500  0.07913600  0.10555100  1
  O  O0  1  0.48921400  0.13546800  0.96283300  1
  O  O1  1  0.18977100  0.33125300  0.93636200  1
  O  O2  1  0.80573200  0.32595600  0.95008000  1
  O  O3  1  0.49319200  0.42409700  0.71781700  1
  O  O4  1  0.00391900  0.46079300  0.55926700  1
  O  O5  1  0.49998300  0.54033900  0.93748200  1
  O  O6  1  0.99443200  0.57328700  0.78458300  1
  O  O7  1  0.31316400  0.67132200  0.55948400  1
  O  O8  1  0.68808800  0.66884100  0.56045500  1
  O  O9  1  0.99793100  0.81884700  0.85362700  1
  O  O10  1  0.00206900  0.81884700  0.35362700  1
  O  O11  1  0.00118100  0.85882100  0.54382600  1
  O  O12  1  0.50128200  0.94136300  0.69322900  1
  O  O13  1  0.49871800  0.94136300  0.19322900  1
  O  O14  1  0.99675600  0.05356300  0.81460200  1
  O  O15  1  0.00324400  0.05356300  0.31460200  1
  O  O16  1  0.51078600  0.13546800  0.46283300  1
  O  O17  1  0.49699300  0.17962100  0.64852700  1
  O  O18  1  0.50300700  0.17962100  0.14852700  1
  O  O19  1  0.19426800  0.32595600  0.45008000  1
  O  O20  1  0.81022900  0.33125300  0.43636200  1
  O  O21  1  0.50680800  0.42409700  0.21781700  1
  O  O22  1  0.99608100  0.46079300  0.05926700  1
  O  O23  1  0.50001700  0.54033900  0.43748200  1
  O  O24  1  0.00556800  0.57328700  0.28458300  1
  O  O25  1  0.68683600  0.67132200  0.05948400  1
  O  O26  1  0.31191200  0.66884100  0.06045500  1
  O  O27  1  0.99881900  0.85882100  0.04382600  1
loop_
_geom_bond_atom_site_label_1
_geom_bond_atom_site_label_2
_geom_bond_distance
_geom_bond_site_symmetry_2
Na0 O14 2.282460 1_455
Na0 O1 2.415292 1_555
Na0 O17 2.420269 1_555
Na0 O3 2.458063 1_555
Na0 O4 2.513362 1_555
Na0 O0 2.632738 1_555
Na0 O19 2.830476 1_555
Na1 O12 2.330330 1_555
Na1 O9 2.333005 1_455
Na1 O6 2.427499 1_455
Na1 O7 2.437648 1_555
Na1 O11 2.481445 1_555
Na1 O5 2.643948 1_555
Na2 O12 2.316207 1_555
Na2 O9 2.325967 1_555
Na2 O6 2.380689 1_555
Na2 O8 2.443425 1_555
Na2 O11 2.510104 1_655
Na2 O5 2.624698 1_555
Na3 O15 2.282460 1_655
Na3 O20 2.415292 1_555
Na3 O18 2.420269 1_555
Na3 O21 2.458063 1_555
Na3 O22 2.513362 1_555
Na3 O16 2.632738 1_555
Na3 O2 2.830476 1_554
Na4 O13 2.316207 1_555
Na4 O10 2.325967 1_555
Na4 O24 2.380689 1_555
Na4 O26 2.443425 1_555
Na4 O27 2.510104 1_455
Na4 O23 2.624698 1_555
Na5 O13 2.330330 1_555
Na5 O10 2.333005 1_655
Na5 O24 2.427499 1_655
Na5 O25 2.437648 1_555
Na5 O27 2.481445 1_555
Na5 O23 2.643948 1_555
Ni0 O3 1.957376 1_555
Ni0 O2 1.967168 1_555
Ni0 O5 2.020444 1_555
Ni0 O0 2.035909 1_555
Ni0 O1 2.047544 1_555
Ni0 O18 2.068063 1_556
Ni1 O4 1.959626 1_555
Ni1 O6 1.990161 1_455
Ni1 O8 2.035140 1_455
Ni1 O7 2.044425 1_555
Ni1 O10 2.064799 1_555
Ni1 O11 2.065512 1_555
Ni2 O21 1.957376 1_555
Ni2 O19 1.967168 1_555
Ni2 O23 2.020444 1_555
Ni2 O16 2.035909 1_555
Ni2 O20 2.047544 1_555
Ni2 O17 2.068063 1_555
Ni3 O22 1.959626 1_555
Ni3 O24 1.990161 1_655
Ni3 O26 2.035140 1_655
Ni3 O25 2.044425 1_555
Ni3 O9 2.064799 1_554
Ni3 O27 2.065512 1_555
C0 O14 1.245374 1_565
C0 O27 1.306412 1_556
C0 O9 1.313522 1_555
C1 O15 1.245374 1_565
C1 O11 1.306412 1_555
C1 O10 1.313522 1_555
C2 O12 1.263615 1_545
C2 O16 1.300631 1_555
C2 O17 1.304519 1_555
C3 O13 1.263615 1_545
C3 O0 1.300631 1_554
C3 O18 1.304519 1_555
O1 P0 1.540501 1_455
O2 P0 1.549890 1_555
O3 P1 1.542956 1_555
O4 P2 1.561155 1_555
O5 P3 1.565588 1_556
O6 P0 1.554178 1_555
O7 P1 1.552863 1_555
O8 P1 1.547784 1_555
O19 P2 1.549890 1_555
O20 P2 1.540501 1_655
O21 P3 1.542956 1_555
O22 P0 1.561155 1_554
O23 P1 1.565588 1_555
O24 P2 1.554178 1_555
O25 P3 1.552863 1_555
O26 P3 1.547784 1_555
