# generated using pymatgen
data_Dy2CuO4
_symmetry_space_group_name_H-M   'P 1'
_cell_length_a   6.53614336
_cell_length_b   6.53614336
_cell_length_c   5.49076900
_cell_angle_alpha   90.00000000
_cell_angle_beta   90.00000000
_cell_angle_gamma   130.29336776
_symmetry_Int_Tables_number   1
_chemical_formula_structural   Dy2CuO4
_chemical_formula_sum   'Dy4 Cu2 O8'
_cell_volume   178.91825447
_cell_formula_units_Z   2
loop_
 _symmetry_equiv_pos_site_id
 _symmetry_equiv_pos_as_xyz
  1  'x, y, z'
loop_
 _atom_site_type_symbol
 _atom_site_label
 _atom_site_symmetry_multiplicity
 _atom_site_fract_x
 _atom_site_fract_y
 _atom_site_fract_z
 _atom_site_occupancy
  Dy  Dy0  1  0.65358000  0.34642000  0.00000000  1
  Dy  Dy1  1  0.34642000  0.65358000  0.00000000  1
  Dy  Dy2  1  0.84642000  0.15358000  0.50000000  1
  Dy  Dy3  1  0.15358000  0.84642000  0.50000000  1
  Cu  Cu0  1  0.00000000  0.00000000  0.00000000  1
  Cu  Cu1  1  0.50000000  0.50000000  0.50000000  1
  O  O0  1  0.70660600  0.70660600  0.20727100  1
  O  O1  1  0.50916400  0.00916400  0.25000000  1
  O  O2  1  0.00916400  0.50916400  0.25000000  1
  O  O3  1  0.20660600  0.20660600  0.29272900  1
  O  O4  1  0.79339400  0.79339400  0.70727100  1
  O  O5  1  0.99083600  0.49083600  0.75000000  1
  O  O6  1  0.49083600  0.99083600  0.75000000  1
  O  O7  1  0.29339400  0.29339400  0.79272900  1
loop_
_geom_bond_atom_site_label_1
_geom_bond_atom_site_label_2
_geom_bond_distance
_geom_bond_site_symmetry_2
Dy0 O5 2.223334 1_554
Dy0 O1 2.223334 1_555
Dy0 O2 2.284698 1_655
Dy0 O6 2.284698 1_544
Dy0 O7 2.429483 1_554
Dy0 O0 2.429483 1_555
Dy1 O2 2.223334 1_555
Dy1 O6 2.223334 1_554
Dy1 O1 2.284698 1_565
Dy1 O5 2.284698 1_454
Dy1 O7 2.429483 1_554
Dy1 O0 2.429483 1_555
Dy2 O5 2.223334 1_555
Dy2 O1 2.223334 1_555
Dy2 O2 2.284698 1_655
Dy2 O6 2.284698 1_545
Dy2 O4 2.429483 1_545
Dy2 O3 2.429483 1_655
Dy3 O2 2.223334 1_555
Dy3 O6 2.223334 1_555
Dy3 O1 2.284698 1_565
Dy3 O5 2.284698 1_455
Dy3 O4 2.429483 1_455
Dy3 O3 2.429483 1_565
Cu0 O4 1.967736 1_444
Cu0 O3 1.967736 1_555
Cu0 O7 1.973243 1_554
Cu0 O0 1.973243 1_445
Cu1 O0 1.967736 1_555
Cu1 O7 1.967736 1_555
Cu1 O3 1.973243 1_555
Cu1 O4 1.973243 1_555
