# generated using pymatgen
data_NaLiV2O6
_symmetry_space_group_name_H-M   'P 1'
_cell_length_a   7.02217000
_cell_length_b   7.02562969
_cell_length_c   11.87344742
_cell_angle_alpha   74.66164395
_cell_angle_beta   74.66993963
_cell_angle_gamma   82.51460593
_symmetry_Int_Tables_number   1
_chemical_formula_structural   NaLiV2O6
_chemical_formula_sum   'Na4 Li4 V8 O24'
_cell_volume   543.66533742
_cell_formula_units_Z   4
loop_
 _symmetry_equiv_pos_site_id
 _symmetry_equiv_pos_as_xyz
  1  'x, y, z'
loop_
 _atom_site_type_symbol
 _atom_site_label
 _atom_site_symmetry_multiplicity
 _atom_site_fract_x
 _atom_site_fract_y
 _atom_site_fract_z
 _atom_site_occupancy
  Na  Na0  1  0.71903600  0.28037600  0.87543000  1
  Na  Na1  1  0.08164500  0.91605700  0.37587600  1
  Na  Na2  1  0.71442400  0.28571000  0.37455500  1
  Na  Na3  1  0.28212200  0.71422400  0.12325100  1
  Li  Li0  1  0.09263700  0.90616300  0.87465700  1
  Li  Li1  1  0.24787700  0.75326800  0.62807300  1
  Li  Li2  1  0.90721400  0.09136600  0.62845200  1
  Li  Li3  1  0.90837000  0.09346800  0.12151700  1
  V  V0  1  0.61926900  0.80139000  0.87592700  1
  V  V1  1  0.80691500  0.61198400  0.63089700  1
  V  V2  1  0.61933800  0.80088000  0.37834600  1
  V  V3  1  0.79986700  0.61988200  0.12669300  1
  V  V4  1  0.20023600  0.38536100  0.87066200  1
  V  V5  1  0.38332100  0.19382500  0.62334000  1
  V  V6  1  0.19776200  0.37659200  0.37485300  1
  V  V7  1  0.38458700  0.20002100  0.11900900  1
  O  O0  1  0.78779000  0.97543300  0.82254900  1
  O  O1  1  0.98986800  0.77058700  0.58789800  1
  O  O2  1  0.77789300  0.98273200  0.31818900  1
  O  O3  1  0.38800900  0.90464400  0.89884300  1
  O  O4  1  0.64923500  0.63807700  0.77497800  1
  O  O5  1  0.97575700  0.78624900  0.07230900  1
  O  O6  1  0.89970200  0.37751400  0.65610300  1
  O  O7  1  0.65916200  0.65162100  0.52135000  1
  O  O8  1  0.38899800  0.89985700  0.41345800  1
  O  O9  1  0.64566400  0.64341200  0.27330500  1
  O  O10  1  0.36082400  0.35700500  0.97388100  1
  O  O11  1  0.90234000  0.38826700  0.15083700  1
  O  O12  1  0.09956000  0.61761500  0.84459000  1
  O  O13  1  0.64052700  0.65022100  0.02314500  1
  O  O14  1  0.34853300  0.35535100  0.72516600  1
  O  O15  1  0.61741000  0.09887000  0.59855700  1
  O  O16  1  0.35836500  0.34838400  0.47759500  1
  O  O17  1  0.09616900  0.60604300  0.34379000  1
  O  O18  1  0.02499000  0.21826700  0.92602900  1
  O  O19  1  0.34966800  0.34755400  0.22934800  1
  O  O20  1  0.61652500  0.09871900  0.09475100  1
  O  O21  1  0.22266300  0.01094000  0.67306700  1
  O  O22  1  0.01666200  0.21723500  0.43326100  1
  O  O23  1  0.21906600  0.02483100  0.16545800  1
loop_
_geom_bond_atom_site_label_1
_geom_bond_atom_site_label_2
_geom_bond_distance
_geom_bond_site_symmetry_2
Na0 O18 2.338115 1_655
Na0 O0 2.345025 1_545
Na0 O4 2.526027 1_555
Na0 O6 2.528911 1_555
Na0 O10 2.531598 1_555
Na0 O20 2.533428 1_556
Na1 O17 2.293463 1_555
Na1 O8 2.299704 1_555
Na1 O22 2.344470 1_565
Na1 O2 2.362349 1_455
Na1 O23 2.380005 1_565
Na1 O1 2.397903 1_455
Na2 O2 2.350807 1_545
Na2 O22 2.358082 1_655
Na2 O16 2.514541 1_555
Na2 O9 2.527137 1_555
Na2 O15 2.586310 1_555
Na2 O11 2.588083 1_555
Na3 O23 2.327813 1_565
Na3 O5 2.343650 1_455
Na3 O13 2.520971 1_555
Na3 O17 2.556816 1_555
Na3 O19 2.594012 1_555
Na3 O3 2.601531 1_554
Li0 O12 2.141845 1_555
Li0 O3 2.166160 1_555
Li0 O5 2.237550 1_456
Li0 O21 2.278622 1_565
Li0 O0 2.339179 1_455
Li0 O18 2.385108 1_565
Li1 O1 1.973257 1_455
Li1 O21 1.993010 1_565
Li1 O8 2.465442 1_555
Li1 O12 2.479665 1_555
Li2 O6 2.112949 1_555
Li2 O15 2.148095 1_555
Li2 O0 2.200197 1_545
Li2 O22 2.212446 1_655
Li2 O21 2.375441 1_655
Li2 O1 2.394431 1_545
Li3 O20 2.149610 1_555
Li3 O11 2.182533 1_555
Li3 O18 2.220884 1_654
Li3 O2 2.234072 1_545
Li3 O23 2.336553 1_655
Li3 O5 2.340699 1_545
O0 V0 1.693421 1_555
O1 V1 1.696471 1_555
O2 V2 1.688049 1_555
O3 V0 1.673716 1_555
O4 V1 1.815953 1_555
O4 V0 1.824478 1_555
O5 V3 1.692281 1_555
O6 V1 1.670432 1_555
O7 V1 1.814538 1_555
O7 V2 1.814822 1_555
O8 V2 1.666546 1_555
O9 V3 1.827325 1_555
O9 V2 1.835311 1_555
O10 V7 1.819952 1_556
O10 V4 1.832053 1_555
O11 V3 1.674843 1_555
O12 V4 1.675142 1_555
O13 V0 1.822149 1_554
O13 V3 1.826367 1_555
O14 V4 1.815913 1_555
O14 V5 1.818432 1_555
O15 V5 1.672162 1_555
O16 V5 1.822390 1_555
O16 V6 1.827745 1_555
O17 V6 1.663907 1_555
O18 V4 1.692648 1_555
O19 V6 1.821968 1_555
O19 V7 1.825699 1_555
O20 V7 1.673489 1_555
O21 V5 1.701887 1_555
O22 V6 1.686873 1_555
O23 V7 1.686634 1_555
