# generated using pymatgen
data_LiV(CO3)2
_symmetry_space_group_name_H-M   'P 1'
_cell_length_a   8.72301431
_cell_length_b   8.72301431
_cell_length_c   8.72301431
_cell_angle_alpha   107.25326991
_cell_angle_beta   107.25326991
_cell_angle_gamma   114.00446564
_symmetry_Int_Tables_number   1
_chemical_formula_structural   LiV(CO3)2
_chemical_formula_sum   'Li4 V4 C8 O24'
_cell_volume   508.53077263
_cell_formula_units_Z   4
loop_
 _symmetry_equiv_pos_site_id
 _symmetry_equiv_pos_as_xyz
  1  'x, y, z'
loop_
 _atom_site_type_symbol
 _atom_site_label
 _atom_site_symmetry_multiplicity
 _atom_site_fract_x
 _atom_site_fract_y
 _atom_site_fract_z
 _atom_site_occupancy
  Li  Li0  1  0.55988800  0.87500000  0.18488800  1
  Li  Li1  1  0.62500000  0.44011200  0.31511200  1
  Li  Li2  1  0.12500000  0.30988800  0.68488800  1
  Li  Li3  1  0.69011200  0.37500000  0.81511200  1
  V  V0  1  0.85425300  0.87500000  0.47925300  1
  V  V1  1  0.12500000  0.60425300  0.97925300  1
  V  V2  1  0.62500000  0.14574700  0.02074700  1
  V  V3  1  0.39574700  0.37500000  0.52074700  1
  C  C0  1  0.40304600  0.56959900  0.26403200  1
  C  C1  1  0.43040100  0.69443400  0.83344800  1
  C  C2  1  0.38901400  0.05556600  0.23596800  1
  C  C3  1  0.86098600  0.59695400  0.16655200  1
  C  C4  1  0.84695400  0.61098600  0.66655200  1
  C  C5  1  0.30556600  0.13901400  0.73596800  1
  C  C6  1  0.94443400  0.18040100  0.33344800  1
  C  C7  1  0.81959900  0.15304600  0.76403200  1
  O  O0  1  0.32770100  0.87443100  0.15792100  1
  O  O1  1  0.23908800  0.52965300  0.16372800  1
  O  O2  1  0.55983100  0.70351700  0.28334100  1
  O  O3  1  0.01091200  0.67463900  0.79056400  1
  O  O4  1  0.12556900  0.28349000  0.45327000  1
  O  O5  1  0.41978000  0.46651000  0.34207900  1
  O  O6  1  0.92229900  0.58022000  0.04673000  1
  O  O7  1  0.72351000  0.44016900  0.14368700  1
  O  O8  1  0.92463900  0.76091200  0.29056400  1
  O  O9  1  0.77965300  0.98908800  0.66372800  1
  O  O10  1  0.32536100  0.11592500  0.33627200  1
  O  O11  1  0.47034700  0.63407500  0.70943600  1
  O  O12  1  0.29648300  0.57982300  0.85631300  1
  O  O13  1  0.52649000  0.17017700  0.21665900  1
  O  O14  1  0.53349000  0.87556900  0.95327000  1
  O  O15  1  0.83022000  0.67229900  0.54673000  1
  O  O16  1  0.12443100  0.07770100  0.65792100  1
  O  O17  1  0.88407500  0.22034700  0.20943600  1
  O  O18  1  0.69016900  0.47351000  0.64368700  1
  O  O19  1  0.42017700  0.27649000  0.71665900  1
  O  O20  1  0.82982300  0.04648300  0.35631300  1
  O  O21  1  0.36592500  0.07536100  0.83627200  1
  O  O22  1  0.71651000  0.16978000  0.84207900  1
  O  O23  1  0.95351700  0.30983100  0.78334100  1
loop_
_geom_bond_atom_site_label_1
_geom_bond_atom_site_label_2
_geom_bond_distance
_geom_bond_site_symmetry_2
Li0 O20 1.933074 1_565
Li0 O2 1.933081 1_555
Li0 O14 1.966214 1_554
Li0 O0 1.966214 1_555
Li1 O13 1.933073 1_555
Li1 O7 1.933073 1_555
Li1 O5 1.966214 1_555
Li1 O15 1.966214 1_555
Li2 O12 1.933074 1_555
Li2 O23 1.933081 1_455
Li2 O4 1.966214 1_555
Li2 O16 1.966214 1_555
Li3 O18 1.933073 1_555
Li3 O19 1.933073 1_555
Li3 O22 1.966214 1_555
Li3 O6 1.966214 1_556
C0 O1 1.266426 1_555
C0 O5 1.305548 1_555
C0 O2 1.307747 1_555
C1 O11 1.266428 1_555
C1 O14 1.305540 1_555
C1 O12 1.307744 1_555
C2 O10 1.266422 1_555
C2 O0 1.305540 1_545
C2 O13 1.307755 1_555
C3 O8 1.266428 1_555
C3 O6 1.305540 1_555
C3 O7 1.307755 1_555
C4 O3 1.266428 1_655
C4 O15 1.305540 1_555
C4 O18 1.307755 1_555
C5 O21 1.266422 1_555
C5 O16 1.305540 1_555
C5 O19 1.307755 1_555
C6 O17 1.266428 1_555
C6 O4 1.305540 1_655
C6 O20 1.307744 1_555
C7 O9 1.266426 1_545
C7 O22 1.305548 1_555
C7 O23 1.307747 1_555
O0 V1 1.976303 1_554
O1 V1 2.049737 1_554
O2 V0 2.123291 1_555
O3 V1 2.049737 1_555
O4 V3 1.976303 1_555
O5 V3 1.976303 1_555
O6 V1 1.976303 1_654
O7 V2 2.123292 1_555
O8 V0 2.049737 1_555
O9 V0 2.049737 1_555
O10 V3 2.049740 1_555
O11 V3 2.049740 1_555
O12 V1 2.123299 1_555
O13 V2 2.123292 1_555
O14 V2 1.976303 1_566
O15 V0 1.976303 1_555
O16 V0 1.976303 1_445
O17 V2 2.049740 1_555
O18 V3 2.123292 1_555
O19 V3 2.123292 1_555
O20 V0 2.123299 1_545
O21 V2 2.049740 1_556
O22 V2 1.976303 1_556
O23 V1 2.123291 1_655
