# generated using pymatgen
data_Tb2SbO2
_symmetry_space_group_name_H-M   'P 1'
_cell_length_a   7.19849686
_cell_length_b   7.19849686
_cell_length_c   7.19849686
_cell_angle_alpha   148.98194483
_cell_angle_beta   148.98194483
_cell_angle_gamma   44.43788312
_symmetry_Int_Tables_number   1
_chemical_formula_structural   Tb2SbO2
_chemical_formula_sum   'Tb2 Sb1 O2'
_cell_volume   98.75704822
_cell_formula_units_Z   1
loop_
 _symmetry_equiv_pos_site_id
 _symmetry_equiv_pos_as_xyz
  1  'x, y, z'
loop_
 _atom_site_type_symbol
 _atom_site_label
 _atom_site_symmetry_multiplicity
 _atom_site_fract_x
 _atom_site_fract_y
 _atom_site_fract_z
 _atom_site_occupancy
  Tb  Tb0  1  0.33443800  0.33443800  -0.00000000  1
  Tb  Tb1  1  0.66556200  0.66556200  0.00000000  1
  Sb  Sb0  1  0.00000000  0.00000000  0.00000000  1
  O  O0  1  0.75000000  0.25000000  0.50000000  1
  O  O1  1  0.25000000  0.75000000  0.50000000  1
loop_
_geom_bond_atom_site_label_1
_geom_bond_atom_site_label_2
_geom_bond_distance
_geom_bond_site_symmetry_2
Sb0 Tb0 3.504121 1_444
Sb0 Tb1 3.504121 1_556
Sb0 Tb1 3.504121 1_545
Sb0 Tb0 3.504121 1_545
Sb0 Tb0 3.504121 1_556
Sb0 Tb0 3.504121 1_455
Sb0 Tb1 3.504121 1_444
Sb0 Tb1 3.504121 1_455
O0 Tb0 2.229659 1_656
O0 Tb1 2.229659 1_545
O0 Tb1 2.229659 1_556
O0 Tb0 2.229659 1_555
O1 Tb1 2.229659 1_455
O1 Tb0 2.229659 1_566
O1 Tb1 2.229659 1_556
O1 Tb0 2.229659 1_555
