# generated using pymatgen
data_Na2MnAsCO7
_symmetry_space_group_name_H-M   'P 1'
_cell_length_a   6.79488300
_cell_length_b   5.39254900
_cell_length_c   9.14074735
_cell_angle_alpha   87.81460465
_cell_angle_beta   90.00000000
_cell_angle_gamma   90.00000000
_symmetry_Int_Tables_number   1
_chemical_formula_structural   Na2MnAsCO7
_chemical_formula_sum   'Na4 Mn2 As2 C2 O14'
_cell_volume   334.68927637
_cell_formula_units_Z   2
loop_
 _symmetry_equiv_pos_site_id
 _symmetry_equiv_pos_as_xyz
  1  'x, y, z'
loop_
 _atom_site_type_symbol
 _atom_site_label
 _atom_site_symmetry_multiplicity
 _atom_site_fract_x
 _atom_site_fract_y
 _atom_site_fract_z
 _atom_site_occupancy
  Na  Na0  1  0.49995100  0.76903000  0.77430700  1
  Na  Na1  1  0.00004900  0.76903000  0.77430700  1
  Na  Na2  1  0.50004900  0.23097000  0.22569300  1
  Na  Na3  1  0.99995100  0.23097000  0.22569300  1
  Mn  Mn0  1  0.25000000  0.22165200  0.65010400  1
  Mn  Mn1  1  0.75000000  0.77834800  0.34989600  1
  As  As0  1  0.75000000  0.29258000  0.57317400  1
  As  As1  1  0.25000000  0.70742000  0.42682600  1
  C  C0  1  0.25000000  0.28040600  0.92565400  1
  C  C1  1  0.75000000  0.71959400  0.07434600  1
  O  O0  1  0.75000000  0.72649300  0.93698100  1
  O  O1  1  0.25000000  0.07054500  0.85239400  1
  O  O2  1  0.25000000  0.47935900  0.84131800  1
  O  O3  1  0.95130400  0.20870700  0.67625900  1
  O  O4  1  0.54869600  0.20870700  0.67625900  1
  O  O5  1  0.25000000  0.83748000  0.59421400  1
  O  O6  1  0.75000000  0.61669900  0.54631000  1
  O  O7  1  0.25000000  0.38330100  0.45369000  1
  O  O8  1  0.75000000  0.16252000  0.40578600  1
  O  O9  1  0.45130400  0.79129300  0.32374100  1
  O  O10  1  0.04869600  0.79129300  0.32374100  1
  O  O11  1  0.75000000  0.52064100  0.15868200  1
  O  O12  1  0.75000000  0.92945500  0.14760600  1
  O  O13  1  0.25000000  0.27350700  0.06301900  1
loop_
_geom_bond_atom_site_label_1
_geom_bond_atom_site_label_2
_geom_bond_distance
_geom_bond_site_symmetry_2
Na0 O0 2.263723 1_555
Na0 O2 2.372086 1_555
Na0 O5 2.384188 1_555
Na0 O1 2.475110 1_565
Na0 O4 2.524365 1_565
Na0 O6 2.834687 1_555
Na1 O0 2.263723 1_455
Na1 O2 2.372086 1_555
Na1 O5 2.384188 1_555
Na1 O1 2.475110 1_565
Na1 O3 2.524365 1_465
Na1 O6 2.834687 1_455
Na2 O13 2.263723 1_555
Na2 O11 2.372086 1_555
Na2 O8 2.384188 1_555
Na2 O12 2.475110 1_545
Na2 O9 2.524365 1_545
Na2 O7 2.834687 1_555
Na3 O13 2.263723 1_655
Na3 O11 2.372086 1_555
Na3 O8 2.384188 1_555
Na3 O12 2.475110 1_545
Na3 O10 2.524365 1_645
Na3 O7 2.834687 1_655
Mn0 O7 1.965670 1_555
Mn0 O1 1.992028 1_555
Mn0 O4 2.044517 1_555
Mn0 O3 2.044517 1_455
Mn0 O5 2.152560 1_545
Mn0 O2 2.274082 1_555
Mn1 O6 1.965670 1_555
Mn1 O12 1.992028 1_555
Mn1 O10 2.044517 1_655
Mn1 O9 2.044517 1_555
Mn1 O8 2.152560 1_565
Mn1 O11 2.274082 1_555
As0 O8 1.707278 1_555
As0 O3 1.711993 1_555
As0 O4 1.711993 1_555
As0 O6 1.755696 1_555
As1 O5 1.707278 1_555
As1 O9 1.711993 1_555
As1 O10 1.711993 1_555
As1 O7 1.755696 1_555
C0 O13 1.254751 1_556
C0 O2 1.297011 1_555
C0 O1 1.336766 1_555
C1 O0 1.254751 1_554
C1 O11 1.297011 1_555
C1 O12 1.336766 1_555
