# generated using pymatgen
data_UCd3O6
_symmetry_space_group_name_H-M   'P 1'
_cell_length_a   5.78960881
_cell_length_b   5.65062061
_cell_length_c   10.02789903
_cell_angle_alpha   56.21334867
_cell_angle_beta   90.00000000
_cell_angle_gamma   90.00000000
_symmetry_Int_Tables_number   1
_chemical_formula_structural   UCd3O6
_chemical_formula_sum   'U2 Cd6 O12'
_cell_volume   272.65655749
_cell_formula_units_Z   2
loop_
 _symmetry_equiv_pos_site_id
 _symmetry_equiv_pos_as_xyz
  1  'x, y, z'
loop_
 _atom_site_type_symbol
 _atom_site_label
 _atom_site_symmetry_multiplicity
 _atom_site_fract_x
 _atom_site_fract_y
 _atom_site_fract_z
 _atom_site_occupancy
  U  U0  1  0.50000000  -0.00000000  0.50000000  1
  U  U1  1  -0.00000000  -0.00000000  0.00000000  1
  Cd  Cd0  1  0.50000000  0.50000000  0.00000000  1
  Cd  Cd1  1  0.95511119  0.25193090  0.24612003  1
  Cd  Cd2  1  0.45511119  0.74806910  0.25387997  1
  Cd  Cd3  1  -0.00000000  0.50000000  0.50000000  1
  Cd  Cd4  1  0.54488881  0.25193090  0.74612003  1
  Cd  Cd5  1  0.04488881  0.74806910  0.75387997  1
  O  O0  1  0.41697959  0.64099925  0.73751808  1
  O  O1  1  0.19886559  0.91697893  0.42331048  1
  O  O2  1  0.17044426  0.25095705  0.05764533  1
  O  O3  1  0.67044426  0.74904295  0.44235467  1
  O  O4  1  0.69886559  0.08302107  0.07668952  1
  O  O5  1  0.91697959  0.35900075  0.76248192  1
  O  O6  1  0.08302041  0.64099925  0.23751808  1
  O  O7  1  0.30113441  0.91697893  0.92331048  1
  O  O8  1  0.32955574  0.25095705  0.55764533  1
  O  O9  1  0.82955574  0.74904295  0.94235467  1
  O  O10  1  0.80113441  0.08302107  0.57668952  1
  O  O11  1  0.58302041  0.35900075  0.26248192  1
loop_
_geom_bond_atom_site_label_1
_geom_bond_atom_site_label_2
_geom_bond_distance
_geom_bond_site_symmetry_2
Cd0 O9 2.247267 1_554
Cd0 O2 2.247267 1_555
Cd0 O7 2.335242 1_554
Cd0 O4 2.335242 1_555
Cd0 O11 2.336999 1_555
Cd0 O0 2.336999 1_554
Cd1 O1 2.233987 1_645
Cd1 O2 2.266708 1_655
Cd1 O11 2.268083 1_555
Cd1 O6 2.275573 1_655
Cd2 O4 2.233987 1_565
Cd2 O3 2.266708 1_555
Cd2 O6 2.268083 1_555
Cd2 O11 2.275573 1_555
Cd3 O8 2.247267 1_555
Cd3 O3 2.247267 1_455
Cd3 O1 2.335242 1_555
Cd3 O10 2.335242 1_455
Cd3 O5 2.336999 1_455
Cd3 O6 2.336999 1_555
Cd4 O7 2.233987 1_545
Cd4 O8 2.266708 1_555
Cd4 O5 2.268083 1_555
Cd4 O0 2.275573 1_555
Cd5 O10 2.233987 1_465
Cd5 O9 2.266708 1_455
Cd5 O0 2.268083 1_555
Cd5 O5 2.275573 1_455
O0 U0 2.155307 1_565
O1 U0 2.062125 1_565
O2 U1 2.056830 1_555
O3 U0 2.056830 1_565
O4 U1 2.062125 1_655
O5 U1 2.155307 1_656
O6 U1 2.155307 1_565
O7 U1 2.062125 1_566
O8 U0 2.056830 1_555
O9 U1 2.056830 1_666
O10 U0 2.062125 1_555
O11 U0 2.155307 1_555
