# generated using pymatgen
data_Li4CoNi5O12
_symmetry_space_group_name_H-M   'P 1'
_cell_length_a   4.94262356
_cell_length_b   4.94262356
_cell_length_c   9.95900483
_cell_angle_alpha   89.35707068
_cell_angle_beta   89.35707068
_cell_angle_gamma   118.86899855
_symmetry_Int_Tables_number   1
_chemical_formula_structural   Li4CoNi5O12
_chemical_formula_sum   'Li4 Co1 Ni5 O12'
_cell_volume   213.00679022
_cell_formula_units_Z   1
loop_
 _symmetry_equiv_pos_site_id
 _symmetry_equiv_pos_as_xyz
  1  'x, y, z'
loop_
 _atom_site_type_symbol
 _atom_site_label
 _atom_site_symmetry_multiplicity
 _atom_site_fract_x
 _atom_site_fract_y
 _atom_site_fract_z
 _atom_site_occupancy
  Li  Li0  1  0.14999600  0.66544300  0.75199300  1
  Li  Li1  1  0.33455700  0.85000400  0.24800700  1
  Li  Li2  1  0.66544300  0.14999600  0.75199300  1
  Li  Li3  1  0.85000400  0.33455700  0.24800700  1
  Co  Co0  1  0.00000000  0.00000000  0.00000000  1
  Ni  Ni0  1  0.16599800  0.83400200  0.50000000  1
  Ni  Ni1  1  0.66265800  0.33734200  0.00000000  1
  Ni  Ni2  1  0.33734200  0.66265800  0.00000000  1
  Ni  Ni3  1  0.83400200  0.16599800  0.50000000  1
  Ni  Ni4  1  0.50000000  0.50000000  0.50000000  1
  O  O0  1  0.01592900  0.67963900  0.10393800  1
  O  O1  1  0.32036100  0.98407100  0.89606200  1
  O  O2  1  0.17621400  0.52796100  0.39578400  1
  O  O3  1  0.52796100  0.17621400  0.39578400  1
  O  O4  1  0.47203900  0.82378600  0.60421600  1
  O  O5  1  0.17293000  0.17293000  0.59877300  1
  O  O6  1  0.82378600  0.47203900  0.60421600  1
  O  O7  1  0.67963900  0.01592900  0.10393800  1
  O  O8  1  0.32631100  0.32631100  0.09547200  1
  O  O9  1  0.98407100  0.32036100  0.89606200  1
  O  O10  1  0.67368900  0.67368900  0.90452800  1
  O  O11  1  0.82707000  0.82707000  0.40122700  1
loop_
_geom_bond_atom_site_label_1
_geom_bond_atom_site_label_2
_geom_bond_distance
_geom_bond_site_symmetry_2
Li0 O4 2.007671 1_555
Li0 O1 2.011253 1_555
Li0 O9 2.051407 1_455
Li0 O6 2.067824 1_455
Li1 O2 2.007671 1_555
Li1 O0 2.011253 1_555
Li1 O7 2.051407 1_565
Li1 O3 2.067824 1_565
Li2 O6 2.007671 1_555
Li2 O9 2.011253 1_555
Li2 O1 2.051407 1_545
Li2 O4 2.067824 1_545
Li3 O3 2.007671 1_555
Li3 O7 2.011253 1_555
Li3 O0 2.051407 1_655
Li3 O2 2.067824 1_655
Co0 O8 1.914034 1_555
Co0 O10 1.914034 1_444
Co0 O1 1.915809 1_544
Co0 O9 1.915809 1_454
Co0 O0 1.915809 1_545
Co0 O7 1.915809 1_455
Ni0 O4 1.864314 1_555
Ni0 O2 1.864314 1_555
Ni0 O11 1.938399 1_455
Ni0 O5 1.938399 1_565
Ni0 O6 2.033656 1_455
Ni0 O3 2.033656 1_565
Ni1 O8 1.883226 1_555
Ni1 O10 1.883226 1_554
Ni1 O7 1.922508 1_555
Ni1 O9 1.922508 1_554
Ni1 O1 2.051817 1_544
Ni1 O0 2.051817 1_655
Ni2 O8 1.883226 1_555
Ni2 O10 1.883226 1_554
Ni2 O0 1.922508 1_555
Ni2 O1 1.922508 1_554
Ni2 O9 2.051817 1_454
Ni2 O7 2.051817 1_565
Ni3 O6 1.864314 1_555
Ni3 O3 1.864314 1_555
Ni3 O11 1.938399 1_545
Ni3 O5 1.938399 1_655
Ni3 O4 2.033656 1_545
Ni3 O2 2.033656 1_655
Ni4 O5 1.897222 1_555
Ni4 O11 1.897222 1_555
Ni4 O6 1.976122 1_555
Ni4 O3 1.976122 1_555
Ni4 O4 1.976122 1_555
Ni4 O2 1.976122 1_555
