# generated using pymatgen
data_Li3Ti2CuO6
_symmetry_space_group_name_H-M   'P 1'
_cell_length_a   6.75498255
_cell_length_b   6.75498255
_cell_length_c   6.01210940
_cell_angle_alpha   76.91387307
_cell_angle_beta   76.91387307
_cell_angle_gamma   25.23176273
_symmetry_Int_Tables_number   1
_chemical_formula_structural   Li3Ti2CuO6
_chemical_formula_sum   'Li3 Ti2 Cu1 O6'
_cell_volume   113.75101176
_cell_formula_units_Z   1
loop_
 _symmetry_equiv_pos_site_id
 _symmetry_equiv_pos_as_xyz
  1  'x, y, z'
loop_
 _atom_site_type_symbol
 _atom_site_label
 _atom_site_symmetry_multiplicity
 _atom_site_fract_x
 _atom_site_fract_y
 _atom_site_fract_z
 _atom_site_occupancy
  Li  Li0  1  0.00000000  0.00000000  0.00000000  1
  Li  Li1  1  0.66327200  0.66327200  0.66823900  1
  Li  Li2  1  0.33672800  0.33672800  0.33176100  1
  Ti  Ti0  1  0.65534100  0.65534100  0.17922100  1
  Ti  Ti1  1  0.34465900  0.34465900  0.82077900  1
  Cu  Cu0  1  0.00000000  0.00000000  0.50000000  1
  O  O0  1  0.17770100  0.17770100  0.38509100  1
  O  O1  1  0.82841000  0.82841000  0.05823000  1
  O  O2  1  0.82229900  0.82229900  0.61490900  1
  O  O3  1  0.48828600  0.48828600  0.76826300  1
  O  O4  1  0.51171400  0.51171400  0.23173700  1
  O  O5  1  0.17159000  0.17159000  0.94177000  1
loop_
_geom_bond_atom_site_label_1
_geom_bond_atom_site_label_2
_geom_bond_distance
_geom_bond_site_symmetry_2
Li0 O4 2.059497 1_545
Li0 O4 2.059497 1_455
Li0 O3 2.059497 1_544
Li0 O3 2.059497 1_454
Li0 O5 2.207404 1_554
Li0 O1 2.207404 1_445
Li1 O2 2.046096 1_555
Li1 O0 2.227229 1_565
Li1 O0 2.227229 1_655
Li1 O5 2.230882 1_655
Li1 O5 2.230882 1_565
Li1 O3 2.244997 1_555
Li2 O0 2.046096 1_555
Li2 O2 2.227229 1_455
Li2 O2 2.227229 1_545
Li2 O1 2.230882 1_545
Li2 O1 2.230882 1_455
Li2 O4 2.244997 1_555
Cu0 O4 2.164770 1_545
Cu0 O3 2.164770 1_455
Cu0 O4 2.164770 1_455
Cu0 O3 2.164770 1_545
Cu0 O0 2.283596 1_555
Cu0 O2 2.283596 1_445
O0 Ti0 1.991204 1_455
O0 Ti0 1.991204 1_545
O1 Ti1 2.029462 1_564
O1 Ti1 2.029462 1_654
O1 Ti0 2.228256 1_555
O2 Ti1 1.991204 1_565
O2 Ti1 1.991204 1_655
O3 Ti1 1.846018 1_555
O4 Ti0 1.846018 1_555
O5 Ti0 2.029462 1_456
O5 Ti0 2.029462 1_546
O5 Ti1 2.228256 1_555
