# generated using pymatgen
data_Fe10O11F9
_symmetry_space_group_name_H-M   'P 1'
_cell_length_a   15.30947700
_cell_length_b   4.77596100
_cell_length_c   4.77614932
_cell_angle_alpha   84.70300854
_cell_angle_beta   90.00000000
_cell_angle_gamma   90.00000000
_symmetry_Int_Tables_number   1
_chemical_formula_structural   Fe10O11F9
_chemical_formula_sum   'Fe10 O11 F9'
_cell_volume   347.72860392
_cell_formula_units_Z   1
loop_
 _symmetry_equiv_pos_site_id
 _symmetry_equiv_pos_as_xyz
  1  'x, y, z'
loop_
 _atom_site_type_symbol
 _atom_site_label
 _atom_site_symmetry_multiplicity
 _atom_site_fract_x
 _atom_site_fract_y
 _atom_site_fract_z
 _atom_site_occupancy
  Fe  Fe0  1  0.30723100  0.98523700  0.99426900  1
  Fe  Fe1  1  0.10224100  0.99855300  0.00016300  1
  Fe  Fe2  1  0.89775900  0.99855300  0.00016300  1
  Fe  Fe3  1  0.69276900  0.98523700  0.99426900  1
  Fe  Fe4  1  0.50000000  0.00679000  0.95425900  1
  Fe  Fe5  1  0.19997800  0.49334800  0.49520300  1
  Fe  Fe6  1  0.80002200  0.49334800  0.49520300  1
  Fe  Fe7  1  0.00000000  0.49864900  0.50112500  1
  Fe  Fe8  1  0.60528100  0.52206200  0.54067900  1
  Fe  Fe9  1  0.39471900  0.52206200  0.54067900  1
  O  O0  1  0.59957500  0.81415600  0.80661700  1
  O  O1  1  0.40042500  0.81415600  0.80661700  1
  O  O2  1  0.29520400  0.29985800  0.70278100  1
  O  O3  1  0.09985400  0.29812400  0.69689300  1
  O  O4  1  0.90014600  0.29812400  0.69689300  1
  O  O5  1  0.70479600  0.29985800  0.70278100  1
  O  O6  1  0.50000000  0.32364600  0.68371500  1
  O  O7  1  0.29761100  0.69483000  0.30623600  1
  O  O8  1  0.09997400  0.69562300  0.30110800  1
  O  O9  1  0.90002600  0.69562300  0.30110800  1
  O  O10  1  0.70238900  0.69483000  0.30623600  1
  F  F0  1  0.19978500  0.80285900  0.80970800  1
  F  F1  1  0.00000000  0.80669600  0.80956800  1
  F  F2  1  0.80021500  0.80285900  0.80970800  1
  F  F3  1  0.50000000  0.70837900  0.29630100  1
  F  F4  1  0.20087600  0.18723600  0.19165000  1
  F  F5  1  0.79912400  0.18723600  0.19165000  1
  F  F6  1  0.00000000  0.18903100  0.19000600  1
  F  F7  1  0.40231300  0.19151600  0.18720700  1
  F  F8  1  0.59768700  0.19151600  0.18720700  1
loop_
_geom_bond_atom_site_label_1
_geom_bond_atom_site_label_2
_geom_bond_distance
_geom_bond_site_symmetry_2
Fe0 O1 1.908328 1_555
Fe0 O7 1.945230 1_556
Fe0 O2 1.960538 1_565
Fe1 O3 1.940041 1_564
Fe1 O8 1.943302 1_555
Fe2 O4 1.940041 1_564
Fe2 O9 1.943302 1_555
Fe3 O0 1.908328 1_555
Fe3 O10 1.945230 1_556
Fe3 O5 1.960538 1_565
Fe4 O6 1.897020 1_555
Fe4 O0 1.946119 1_545
Fe4 O1 1.946119 1_545
Fe5 O2 1.947583 1_555
Fe5 O7 1.953033 1_555
Fe5 O8 1.992807 1_555
Fe5 O3 1.995262 1_555
Fe6 O5 1.947583 1_555
Fe6 O10 1.953033 1_555
Fe6 O9 1.992807 1_555
Fe6 O4 1.995262 1_555
Fe7 O3 1.990747 1_555
Fe7 O4 1.990747 1_455
Fe7 O9 1.993555 1_455
Fe7 O8 1.993555 1_555
Fe8 O6 1.960374 1_555
Fe8 O0 1.973374 1_555
Fe8 O5 1.973592 1_555
Fe8 O10 1.993553 1_555
Fe9 O6 1.960374 1_555
Fe9 O1 1.973374 1_555
Fe9 O2 1.973592 1_555
Fe9 O7 1.993553 1_555
F0 Fe1 2.021889 1_556
F0 Fe0 2.093638 1_555
F0 Fe5 2.202606 1_555
F1 Fe1 2.066956 1_556
F1 Fe2 2.066956 1_456
F1 Fe7 2.175981 1_555
F2 Fe2 2.021889 1_556
F2 Fe3 2.093638 1_555
F2 Fe6 2.202606 1_555
F3 Fe4 2.066422 1_564
F3 Fe8 2.135478 1_555
F3 Fe9 2.135478 1_555
F4 Fe1 2.020128 1_545
F4 Fe5 2.151950 1_555
F4 Fe0 2.153725 1_544
F5 Fe2 2.020128 1_545
F5 Fe6 2.151950 1_555
F5 Fe3 2.153725 1_544
F6 Fe1 2.062049 1_545
F6 Fe2 2.062049 1_445
F6 Fe7 2.190976 1_555
F7 Fe0 2.026400 1_544
F7 Fe4 2.105727 1_554
F7 Fe9 2.418255 1_555
F8 Fe3 2.026400 1_544
F8 Fe4 2.105727 1_554
F8 Fe8 2.418255 1_555
