# generated using pymatgen
data_P5HC(NCl6)3
_symmetry_space_group_name_H-M   'P 1'
_cell_length_a   13.84122595
_cell_length_b   13.84122595
_cell_length_c   15.41892600
_cell_angle_alpha   90.00000000
_cell_angle_beta   90.00000000
_cell_angle_gamma   106.21354093
_symmetry_Int_Tables_number   1
_chemical_formula_structural   P5HC(NCl6)3
_chemical_formula_sum   'P20 H4 C4 N12 Cl72'
_cell_volume   2836.46534214
_cell_formula_units_Z   4
loop_
 _symmetry_equiv_pos_site_id
 _symmetry_equiv_pos_as_xyz
  1  'x, y, z'
loop_
 _atom_site_type_symbol
 _atom_site_label
 _atom_site_symmetry_multiplicity
 _atom_site_fract_x
 _atom_site_fract_y
 _atom_site_fract_z
 _atom_site_occupancy
  P  P0  1  0.43615700  0.43615700  0.28894000  1
  P  P1  1  0.56384300  0.56384300  0.71106000  1
  P  P2  1  0.06384300  0.06384300  0.78894000  1
  P  P3  1  0.93615700  0.93615700  0.21106000  1
  P  P4  1  0.25749400  0.25749400  0.23756000  1
  P  P5  1  0.74250600  0.74250600  0.76244000  1
  P  P6  1  0.24250600  0.24250600  0.73756000  1
  P  P7  1  0.75749400  0.75749400  0.26244000  1
  P  P8  1  0.61449800  0.35911200  0.27187800  1
  P  P9  1  0.64088800  0.38550200  0.72812200  1
  P  P10  1  0.14088800  0.88550200  0.77187800  1
  P  P11  1  0.11449800  0.85911200  0.22812200  1
  P  P12  1  0.38550200  0.64088800  0.72812200  1
  P  P13  1  0.35911200  0.61449800  0.27187800  1
  P  P14  1  0.85911200  0.11449800  0.22812200  1
  P  P15  1  0.88550200  0.14088800  0.77187800  1
  P  P16  1  0.50000000  0.00000000  0.50000000  1
  P  P17  1  0.00000000  0.50000000  0.50000000  1
  P  P18  1  0.50000000  0.00000000  0.00000000  1
  P  P19  1  0.00000000  0.50000000  0.00000000  1
  H  H0  1  0.00011500  0.00011500  0.60096400  1
  H  H1  1  0.99988500  0.99988500  0.39903600  1
  H  H2  1  0.49988500  0.49988500  0.10096400  1
  H  H3  1  0.50011500  0.50011500  0.89903600  1
  C  C0  1  0.03081400  0.03081400  0.53731700  1
  C  C1  1  0.96918600  0.96918600  0.46268300  1
  C  C2  1  0.46918600  0.46918600  0.03731700  1
  C  C3  1  0.53081400  0.53081400  0.96268300  1
  N  N0  1  0.35000900  0.35000900  0.24399200  1
  N  N1  1  0.64999100  0.64999100  0.75600800  1
  N  N2  1  0.14999100  0.14999100  0.74399200  1
  N  N3  1  0.85000900  0.85000900  0.25600800  1
  N  N4  1  0.54676700  0.43165300  0.26349700  1
  N  N5  1  0.56834700  0.45323300  0.73650300  1
  N  N6  1  0.06834700  0.95323300  0.76349700  1
  N  N7  1  0.04676700  0.93165300  0.23650300  1
  N  N8  1  0.45323300  0.56834700  0.73650300  1
  N  N9  1  0.43165300  0.54676700  0.26349700  1
  N  N10  1  0.93165300  0.04676700  0.23650300  1
  N  N11  1  0.95323300  0.06834700  0.76349700  1
  Cl  Cl0  1  0.41839500  0.41839500  0.41962700  1
  Cl  Cl1  1  0.58160500  0.58160500  0.58037300  1
  Cl  Cl2  1  0.08160500  0.08160500  0.91962700  1
  Cl  Cl3  1  0.91839500  0.91839500  0.08037300  1
  Cl  Cl4  1  0.19989100  0.19989100  0.35139200  1
  Cl  Cl5  1  0.80010900  0.80010900  0.64860800  1
  Cl  Cl6  1  0.30010900  0.30010900  0.85139200  1
  Cl  Cl7  1  0.69989100  0.69989100  0.14860800  1
  Cl  Cl8  1  0.28517400  0.14377200  0.17236300  1
  Cl  Cl9  1  0.85622800  0.71482600  0.82763700  1
  Cl  Cl10  1  0.35622800  0.21482600  0.67236300  1
  Cl  Cl11  1  0.78517400  0.64377200  0.32763700  1
  Cl  Cl12  1  0.71482600  0.85622800  0.82763700  1
  Cl  Cl13  1  0.14377200  0.28517400  0.17236300  1
  Cl  Cl14  1  0.64377200  0.78517400  0.32763700  1
  Cl  Cl15  1  0.21482600  0.35622800  0.67236300  1
  Cl  Cl16  1  0.68586100  0.36830800  0.38564700  1
  Cl  Cl17  1  0.63169200  0.31413900  0.61435300  1
  Cl  Cl18  1  0.13169200  0.81413900  0.88564700  1
  Cl  Cl19  1  0.18586100  0.86830800  0.11435300  1
  Cl  Cl20  1  0.31413900  0.63169200  0.61435300  1
  Cl  Cl21  1  0.36830800  0.68586100  0.38564700  1
  Cl  Cl22  1  0.86830800  0.18586100  0.11435300  1
  Cl  Cl23  1  0.81413900  0.13169200  0.88564700  1
  Cl  Cl24  1  0.54579900  0.21339700  0.25579300  1
  Cl  Cl25  1  0.78660300  0.45420100  0.74420700  1
  Cl  Cl26  1  0.28660300  0.95420100  0.75579300  1
  Cl  Cl27  1  0.04579900  0.71339700  0.24420700  1
  Cl  Cl28  1  0.45420100  0.78660300  0.74420700  1
  Cl  Cl29  1  0.21339700  0.54579900  0.25579300  1
  Cl  Cl30  1  0.71339700  0.04579900  0.24420700  1
  Cl  Cl31  1  0.95420100  0.28660300  0.75579300  1
  Cl  Cl32  1  0.72371000  0.39251700  0.18374700  1
  Cl  Cl33  1  0.60748300  0.27629000  0.81625300  1
  Cl  Cl34  1  0.10748300  0.77629000  0.68374700  1
  Cl  Cl35  1  0.22371000  0.89251700  0.31625300  1
  Cl  Cl36  1  0.27629000  0.60748300  0.81625300  1
  Cl  Cl37  1  0.39251700  0.72371000  0.18374700  1
  Cl  Cl38  1  0.89251700  0.22371000  0.31625300  1
  Cl  Cl39  1  0.77629000  0.10748300  0.68374700  1
  Cl  Cl40  1  0.48813400  0.96105200  0.36266300  1
  Cl  Cl41  1  0.03894800  0.51186600  0.63733700  1
  Cl  Cl42  1  0.53894800  0.01186600  0.86266300  1
  Cl  Cl43  1  0.98813400  0.46105200  0.13733700  1
  Cl  Cl44  1  0.51186600  0.03894800  0.63733700  1
  Cl  Cl45  1  0.96105200  0.48813400  0.36266300  1
  Cl  Cl46  1  0.46105200  0.98813400  0.13733700  1
  Cl  Cl47  1  0.01186600  0.53894800  0.86266300  1
  Cl  Cl48  1  0.43063000  0.11969200  0.47469200  1
  Cl  Cl49  1  0.88030800  0.56937000  0.52530800  1
  Cl  Cl50  1  0.38030800  0.06937000  0.97469200  1
  Cl  Cl51  1  0.93063000  0.61969200  0.02530800  1
  Cl  Cl52  1  0.56937000  0.88030800  0.52530800  1
  Cl  Cl53  1  0.11969200  0.43063000  0.47469200  1
  Cl  Cl54  1  0.61969200  0.93063000  0.02530800  1
  Cl  Cl55  1  0.06937000  0.38030800  0.97469200  1
  Cl  Cl56  1  0.64723200  0.10375600  0.47737100  1
  Cl  Cl57  1  0.89624400  0.35276800  0.52262900  1
  Cl  Cl58  1  0.39624400  0.85276800  0.97737100  1
  Cl  Cl59  1  0.14723200  0.60375600  0.02262900  1
  Cl  Cl60  1  0.35276800  0.89624400  0.52262900  1
  Cl  Cl61  1  0.10375600  0.64723200  0.47737100  1
  Cl  Cl62  1  0.60375600  0.14723200  0.02262900  1
  Cl  Cl63  1  0.85276800  0.39624400  0.97737100  1
  Cl  Cl64  1  0.15827100  0.02618400  0.53158700  1
  Cl  Cl65  1  0.97381600  0.84172900  0.46841300  1
  Cl  Cl66  1  0.47381600  0.34172900  0.03158700  1
  Cl  Cl67  1  0.65827100  0.52618400  0.96841300  1
  Cl  Cl68  1  0.84172900  0.97381600  0.46841300  1
  Cl  Cl69  1  0.02618400  0.15827100  0.53158700  1
  Cl  Cl70  1  0.52618400  0.65827100  0.96841300  1
  Cl  Cl71  1  0.34172900  0.47381600  0.03158700  1
loop_
_geom_bond_atom_site_label_1
_geom_bond_atom_site_label_2
_geom_bond_distance
_geom_bond_site_symmetry_2
C0 H0 1.106055 1_555
C0 C1 1.540519 1_445
C0 Cl69 1.785304 1_555
C0 Cl64 1.785304 1_555
C1 H1 1.106055 1_555
C1 Cl65 1.785304 1_555
C1 Cl68 1.785304 1_555
C2 H2 1.106055 1_555
C2 C3 1.540519 1_554
C2 Cl71 1.785304 1_555
C2 Cl66 1.785304 1_555
C3 H3 1.106055 1_555
C3 Cl70 1.785304 1_555
C3 Cl67 1.785304 1_555
N0 P4 1.540655 1_555
N0 P0 1.590578 1_555
N1 P5 1.540655 1_555
N1 P1 1.590578 1_555
N2 P6 1.540655 1_555
N2 P2 1.590578 1_555
N3 P7 1.540655 1_555
N3 P3 1.590578 1_555
N4 P8 1.558635 1_555
N4 P0 1.598431 1_555
N5 P9 1.558635 1_555
N5 P1 1.598431 1_555
N6 P10 1.558635 1_555
N6 P2 1.598431 1_565
N7 P11 1.558635 1_555
N7 P3 1.598431 1_455
N8 P12 1.558635 1_555
N8 P1 1.598431 1_555
N9 P13 1.558635 1_555
N9 P0 1.598431 1_555
N10 P14 1.558635 1_555
N10 P3 1.598431 1_545
N11 P15 1.558635 1_555
N11 P2 1.598431 1_655
Cl0 P0 2.036558 1_555
Cl1 P1 2.036558 1_555
Cl2 P2 2.036558 1_555
Cl3 P3 2.036558 1_555
Cl4 P4 1.999247 1_555
Cl5 P5 1.999247 1_555
Cl6 P6 1.999247 1_555
Cl7 P7 1.999247 1_555
Cl8 P4 1.992927 1_555
Cl9 P5 1.992927 1_555
Cl10 P6 1.992927 1_555
Cl11 P7 1.992927 1_555
Cl12 P5 1.992927 1_555
Cl13 P4 1.992927 1_555
Cl14 P7 1.992927 1_555
Cl15 P6 1.992927 1_555
Cl16 P8 1.999712 1_555
Cl17 P9 1.999712 1_555
Cl18 P10 1.999712 1_555
Cl19 P11 1.999712 1_555
Cl20 P12 1.999712 1_555
Cl21 P13 1.999712 1_555
Cl22 P14 1.999712 1_555
Cl23 P15 1.999712 1_555
Cl24 P8 1.990601 1_555
Cl25 P9 1.990601 1_555
Cl26 P10 1.990601 1_555
Cl27 P11 1.990601 1_555
Cl28 P12 1.990601 1_555
Cl29 P13 1.990601 1_555
Cl30 P14 1.990601 1_555
Cl31 P15 1.990601 1_555
Cl32 P8 1.988735 1_555
Cl33 P9 1.988735 1_555
Cl34 P10 1.988735 1_555
Cl35 P11 1.988735 1_555
Cl36 P12 1.988735 1_555
Cl37 P13 1.988735 1_555
Cl38 P14 1.988735 1_555
Cl39 P15 1.988735 1_555
Cl40 P16 2.179984 1_565
Cl41 P17 2.179984 1_555
Cl42 P18 2.179984 1_556
Cl43 P19 2.179984 1_655
Cl44 P16 2.179984 1_555
Cl45 P17 2.179984 1_655
Cl46 P18 2.179984 1_565
Cl47 P19 2.179984 1_556
Cl48 P16 2.169584 1_555
Cl49 P17 2.169584 1_655
Cl50 P18 2.169584 1_556
Cl51 P19 2.169584 1_655
Cl52 P16 2.169584 1_565
Cl53 P17 2.169584 1_555
Cl54 P18 2.169584 1_565
Cl55 P19 2.169584 1_556
Cl56 P16 2.168583 1_555
Cl57 P17 2.168583 1_655
Cl58 P18 2.168583 1_566
Cl59 P19 2.168583 1_555
Cl60 P16 2.168583 1_565
Cl61 P17 2.168583 1_555
Cl62 P18 2.168583 1_555
Cl63 P19 2.168583 1_656
