# generated using pymatgen
data_Li2Cu2S3
_symmetry_space_group_name_H-M   'P 1'
_cell_length_a   9.04877671
_cell_length_b   9.04877671
_cell_length_c   6.47272186
_cell_angle_alpha   69.79141923
_cell_angle_beta   69.79141923
_cell_angle_gamma   83.17979756
_symmetry_Int_Tables_number   1
_chemical_formula_structural   Li2Cu2S3
_chemical_formula_sum   'Li8 Cu8 S12'
_cell_volume   466.74623234
_cell_formula_units_Z   4
loop_
 _symmetry_equiv_pos_site_id
 _symmetry_equiv_pos_as_xyz
  1  'x, y, z'
loop_
 _atom_site_type_symbol
 _atom_site_label
 _atom_site_symmetry_multiplicity
 _atom_site_fract_x
 _atom_site_fract_y
 _atom_site_fract_z
 _atom_site_occupancy
  Li  Li0  1  0.80996900  0.97518500  0.06101600  1
  Li  Li1  1  0.97518500  0.80996900  0.56101600  1
  Li  Li2  1  0.27539400  0.72460600  0.25000000  1
  Li  Li3  1  0.57115200  0.42884800  0.25000000  1
  Li  Li4  1  0.42884800  0.57115200  0.75000000  1
  Li  Li5  1  0.72460600  0.27539400  0.75000000  1
  Li  Li6  1  0.02481500  0.19003100  0.43898400  1
  Li  Li7  1  0.19003100  0.02481500  0.93898400  1
  Cu  Cu0  1  0.78325400  0.62974500  0.38658500  1
  Cu  Cu1  1  0.44084400  0.92123000  0.40075800  1
  Cu  Cu2  1  0.62974500  0.78325400  0.88658500  1
  Cu  Cu3  1  0.92123000  0.44084400  0.90075800  1
  Cu  Cu4  1  0.07877000  0.55915600  0.09924200  1
  Cu  Cu5  1  0.37025500  0.21674600  0.11341500  1
  Cu  Cu6  1  0.55915600  0.07877000  0.59924200  1
  Cu  Cu7  1  0.21674600  0.37025500  0.61341500  1
  S  S0  1  0.56594700  0.71689300  0.27770000  1
  S  S1  1  0.85295400  0.40571700  0.28744800  1
  S  S2  1  0.71689300  0.56594700  0.77770000  1
  S  S3  1  0.40571700  0.85295400  0.78744800  1
  S  S4  1  0.00277700  0.78399200  0.18400500  1
  S  S5  1  0.99722300  0.21600800  0.81599500  1
  S  S6  1  0.59428300  0.14704600  0.21255200  1
  S  S7  1  0.28310700  0.43405300  0.22230000  1
  S  S8  1  0.78399200  0.00277700  0.68400500  1
  S  S9  1  0.14704600  0.59428300  0.71255200  1
  S  S10  1  0.43405300  0.28310700  0.72230000  1
  S  S11  1  0.21600800  0.99722300  0.31599500  1
loop_
_geom_bond_atom_site_label_1
_geom_bond_atom_site_label_2
_geom_bond_distance
_geom_bond_site_symmetry_2
Li0 S4 2.441698 1_655
Li0 S8 2.456423 1_564
Li0 S6 2.489983 1_565
Li0 S5 2.601484 1_564
Li1 S8 2.441698 1_565
Li1 S4 2.456423 1_655
Li1 S9 2.489983 1_655
Li1 S11 2.601484 1_655
Li2 S4 2.609823 1_555
Li2 S11 2.609823 1_555
Li2 S9 2.680872 1_555
Li2 S3 2.680872 1_554
Li2 S7 2.687543 1_555
Li2 S0 2.687543 1_555
Li3 S1 2.621084 1_555
Li3 S6 2.621084 1_555
Li3 S0 2.667554 1_555
Li3 S7 2.667554 1_555
Li3 S2 2.758066 1_554
Li3 S10 2.758066 1_555
Li4 S3 2.621084 1_555
Li4 S9 2.621084 1_555
Li4 S2 2.667554 1_555
Li4 S10 2.667554 1_555
Li4 S0 2.758066 1_555
Li4 S7 2.758066 1_556
Li5 S8 2.609823 1_555
Li5 S5 2.609823 1_555
Li5 S6 2.680872 1_556
Li5 S1 2.680872 1_555
Li5 S10 2.687543 1_555
Li5 S2 2.687543 1_555
Li6 S11 2.441698 1_545
Li6 S5 2.456423 1_455
Li6 S1 2.489983 1_455
Li6 S8 2.601484 1_455
Li7 S5 2.441698 1_455
Li7 S11 2.456423 1_546
Li7 S3 2.489983 1_545
Li7 S4 2.601484 1_546
Cu0 S2 2.263874 1_555
Cu0 S0 2.278235 1_555
Cu0 S4 2.282078 1_655
Cu0 S1 2.287888 1_555
Cu1 S11 2.256383 1_555
Cu1 S3 2.275100 1_555
Cu1 S0 2.287389 1_555
Cu1 S6 2.317890 1_565
Cu2 S0 2.263874 1_556
Cu2 S2 2.278235 1_555
Cu2 S8 2.282078 1_565
Cu2 S3 2.287888 1_555
Cu3 S5 2.256383 1_555
Cu3 S1 2.275100 1_556
Cu3 S2 2.287389 1_555
Cu3 S9 2.317890 1_655
Cu4 S4 2.256383 1_555
Cu4 S9 2.275100 1_554
Cu4 S7 2.287389 1_555
Cu4 S1 2.317890 1_455
Cu5 S10 2.263874 1_554
Cu5 S7 2.278235 1_555
Cu5 S11 2.282078 1_545
Cu5 S6 2.287888 1_555
Cu6 S8 2.256383 1_555
Cu6 S6 2.275100 1_555
Cu6 S10 2.287389 1_555
Cu6 S3 2.317890 1_545
Cu7 S7 2.263874 1_555
Cu7 S10 2.278235 1_555
Cu7 S5 2.282078 1_455
Cu7 S9 2.287888 1_555
