# generated using pymatgen
data_Li7Ni13O24
_symmetry_space_group_name_H-M   'P 1'
_cell_length_a   7.60634130
_cell_length_b   7.60634130
_cell_length_c   9.69635416
_cell_angle_alpha   58.49016443
_cell_angle_beta   58.49016443
_cell_angle_gamma   69.27226708
_symmetry_Int_Tables_number   1
_chemical_formula_structural   Li7Ni13O24
_chemical_formula_sum   'Li7 Ni13 O24'
_cell_volume   405.23048415
_cell_formula_units_Z   1
loop_
 _symmetry_equiv_pos_site_id
 _symmetry_equiv_pos_as_xyz
  1  'x, y, z'
loop_
 _atom_site_type_symbol
 _atom_site_label
 _atom_site_symmetry_multiplicity
 _atom_site_fract_x
 _atom_site_fract_y
 _atom_site_fract_z
 _atom_site_occupancy
  Li  Li0  1  0.32470600  0.67529400  0.00000000  1
  Li  Li1  1  0.25110500  0.25110500  0.25282600  1
  Li  Li2  1  0.16444800  0.83555200  0.50000000  1
  Li  Li3  1  0.00000000  0.00000000  0.00000000  1
  Li  Li4  1  0.83555200  0.16444800  0.50000000  1
  Li  Li5  1  0.74889500  0.74889500  0.74717400  1
  Li  Li6  1  0.67529400  0.32470600  0.00000000  1
  Ni  Ni0  1  0.29350000  0.96601900  0.12439200  1
  Ni  Ni1  1  0.20931300  0.54093400  0.37307300  1
  Ni  Ni2  1  0.12405100  0.12405100  0.63062300  1
  Ni  Ni3  1  0.87594900  0.87594900  0.36937700  1
  Ni  Ni4  1  0.37534700  0.37534700  0.87054800  1
  Ni  Ni5  1  0.79068700  0.45906600  0.62692700  1
  Ni  Ni6  1  0.03398100  0.70650000  0.87560800  1
  Ni  Ni7  1  0.96601900  0.29350000  0.12439200  1
  Ni  Ni8  1  0.50000000  0.50000000  0.50000000  1
  Ni  Ni9  1  0.70650000  0.03398100  0.87560800  1
  Ni  Ni10  1  0.62465300  0.62465300  0.12945200  1
  Ni  Ni11  1  0.54093400  0.20931300  0.37307300  1
  Ni  Ni12  1  0.45906600  0.79068700  0.62692700  1
  O  O0  1  0.32398400  0.32398400  0.53370100  1
  O  O1  1  0.21371900  0.88537100  0.80383000  1
  O  O2  1  0.34743800  0.03701700  0.45316700  1
  O  O3  1  0.19717300  0.19717300  0.94217200  1
  O  O4  1  0.28821300  0.60405200  0.69394400  1
  O  O5  1  0.96298300  0.65256200  0.54683300  1
  O  O6  1  0.11462900  0.78628100  0.19617000  1
  O  O7  1  0.88537100  0.21371900  0.80383000  1
  O  O8  1  0.03701700  0.34743800  0.45316700  1
  O  O9  1  0.92841100  0.92841100  0.70074900  1
  O  O10  1  0.15653600  0.47046100  0.03894200  1
  O  O11  1  0.07158900  0.07158900  0.29925100  1
  O  O12  1  0.67601600  0.67601600  0.46629900  1
  O  O13  1  0.60405200  0.28821300  0.69394400  1
  O  O14  1  0.80282700  0.80282700  0.05782800  1
  O  O15  1  0.71178700  0.39594800  0.30605600  1
  O  O16  1  0.84346400  0.52953900  0.96105800  1
  O  O17  1  0.65256200  0.96298300  0.54683300  1
  O  O18  1  0.78628100  0.11462900  0.19617000  1
  O  O19  1  0.47046100  0.15653600  0.03894200  1
  O  O20  1  0.54956600  0.54956600  0.81802900  1
  O  O21  1  0.39594800  0.71178700  0.30605600  1
  O  O22  1  0.52953900  0.84346400  0.96105800  1
  O  O23  1  0.45043400  0.45043400  0.18197100  1
loop_
_geom_bond_atom_site_label_1
_geom_bond_atom_site_label_2
_geom_bond_distance
_geom_bond_site_symmetry_2
Li0 O23 2.098732 1_555
Li0 O20 2.098732 1_554
Li0 O1 2.104915 1_554
Li0 O6 2.104915 1_555
Li0 O22 2.120657 1_554
Li0 O10 2.120657 1_555
Li1 O11 1.991576 1_555
Li1 O8 2.073385 1_555
Li1 O2 2.073385 1_555
Li1 O23 2.125804 1_555
Li1 O10 2.166830 1_555
Li1 O19 2.166830 1_555
Li2 O11 2.097074 1_565
Li2 O9 2.097074 1_455
Li2 O5 2.147920 1_455
Li2 O2 2.147920 1_565
Li2 O21 2.176950 1_555
Li2 O4 2.176950 1_555
Li3 O18 2.125812 1_455
Li3 O6 2.125812 1_545
Li3 O1 2.125812 1_544
Li3 O7 2.125812 1_454
Li3 O3 2.155714 1_554
Li3 O14 2.155714 1_445
Li4 O11 2.097074 1_655
Li4 O9 2.097074 1_545
Li4 O17 2.147920 1_545
Li4 O8 2.147920 1_655
Li4 O15 2.176950 1_555
Li4 O13 2.176950 1_555
Li5 O9 1.991576 1_555
Li5 O5 2.073385 1_555
Li5 O17 2.073385 1_555
Li5 O20 2.125804 1_555
Li5 O22 2.166830 1_555
Li5 O16 2.166830 1_555
Li6 O20 2.098732 1_554
Li6 O23 2.098732 1_555
Li6 O7 2.104915 1_554
Li6 O18 2.104915 1_555
Li6 O16 2.120657 1_554
Li6 O19 2.120657 1_555
Ni0 O6 1.880650 1_555
Ni0 O19 1.886314 1_565
Ni0 O11 1.959807 1_565
Ni0 O3 1.985978 1_564
Ni0 O22 1.996738 1_554
Ni0 O21 2.063273 1_555
Ni1 O21 1.893498 1_555
Ni1 O8 1.895655 1_555
Ni1 O0 1.903768 1_555
Ni1 O6 1.984318 1_555
Ni1 O5 2.034621 1_455
Ni1 O23 2.039222 1_555
Ni2 O8 1.903803 1_555
Ni2 O2 1.903803 1_555
Ni2 O7 1.927567 1_455
Ni2 O1 1.927567 1_545
Ni2 O0 2.039077 1_555
Ni2 O9 2.084083 1_445
Ni3 O17 1.903803 1_555
Ni3 O5 1.903803 1_555
Ni3 O18 1.927567 1_565
Ni3 O6 1.927567 1_655
Ni3 O12 2.039077 1_555
Ni3 O11 2.084083 1_665
Ni4 O3 1.867668 1_555
Ni4 O19 1.871188 1_556
Ni4 O10 1.871188 1_556
Ni4 O20 1.898349 1_555
Ni4 O13 1.911604 1_555
Ni4 O4 1.911604 1_555
Ni5 O13 1.893498 1_555
Ni5 O5 1.895655 1_555
Ni5 O12 1.903768 1_555
Ni5 O7 1.984318 1_555
Ni5 O8 2.034621 1_655
Ni5 O20 2.039222 1_555
Ni6 O1 1.880650 1_555
Ni6 O16 1.886314 1_455
Ni6 O9 1.959807 1_455
Ni6 O14 1.985978 1_456
Ni6 O10 1.996738 1_556
Ni6 O4 2.063273 1_555
Ni7 O18 1.880650 1_555
Ni7 O10 1.886314 1_655
Ni7 O11 1.959807 1_655
Ni7 O3 1.985978 1_654
Ni7 O16 1.996738 1_554
Ni7 O15 2.063273 1_555
Ni8 O12 2.011454 1_555
Ni8 O0 2.011454 1_555
Ni8 O13 2.060243 1_555
Ni8 O4 2.060243 1_555
Ni8 O15 2.060243 1_555
Ni8 O21 2.060243 1_555
Ni9 O7 1.880650 1_555
Ni9 O22 1.886314 1_545
Ni9 O9 1.959807 1_545
Ni9 O14 1.985978 1_546
Ni9 O19 1.996738 1_556
Ni9 O13 2.063273 1_555
Ni10 O14 1.867668 1_555
Ni10 O22 1.871188 1_554
Ni10 O16 1.871188 1_554
Ni10 O23 1.898349 1_555
Ni10 O21 1.911604 1_555
Ni10 O15 1.911604 1_555
Ni11 O15 1.893498 1_555
Ni11 O2 1.895655 1_555
Ni11 O0 1.903768 1_555
Ni11 O18 1.984318 1_555
Ni11 O17 2.034621 1_545
Ni11 O23 2.039222 1_555
Ni12 O4 1.893498 1_555
Ni12 O17 1.895655 1_555
Ni12 O12 1.903768 1_555
Ni12 O1 1.984318 1_555
Ni12 O2 2.034621 1_565
Ni12 O20 2.039222 1_555
