# generated using pymatgen
data_ScH16I3O8
_symmetry_space_group_name_H-M   'P 1'
_cell_length_a   8.90475900
_cell_length_b   13.27807000
_cell_length_c   15.45327083
_cell_angle_alpha   69.62316429
_cell_angle_beta   90.00000000
_cell_angle_gamma   90.00000000
_symmetry_Int_Tables_number   1
_chemical_formula_structural   ScH16I3O8
_chemical_formula_sum   'Sc4 H64 I12 O32'
_cell_volume   1712.82530244
_cell_formula_units_Z   4
loop_
 _symmetry_equiv_pos_site_id
 _symmetry_equiv_pos_as_xyz
  1  'x, y, z'
loop_
 _atom_site_type_symbol
 _atom_site_label
 _atom_site_symmetry_multiplicity
 _atom_site_fract_x
 _atom_site_fract_y
 _atom_site_fract_z
 _atom_site_occupancy
  Sc  Sc0  1  0.48765800  0.77260800  0.48725800  1
  Sc  Sc1  1  0.98765800  0.22739200  0.01274200  1
  Sc  Sc2  1  0.51234200  0.22739200  0.51274200  1
  Sc  Sc3  1  0.01234200  0.77260800  0.98725800  1
  H  H0  1  0.38389900  0.66465700  0.66714400  1
  H  H1  1  0.88389900  0.33534300  0.83285600  1
  H  H2  1  0.61610100  0.33534300  0.33285600  1
  H  H3  1  0.11610100  0.66465700  0.16714400  1
  H  H4  1  0.44226900  0.77665400  0.66879200  1
  H  H5  1  0.94226900  0.22334600  0.83120800  1
  H  H6  1  0.55773100  0.22334600  0.33120800  1
  H  H7  1  0.05773100  0.77665400  0.16879200  1
  H  H8  1  0.66284700  0.57151800  0.29660600  1
  H  H9  1  0.16284700  0.42848200  0.20339400  1
  H  H10  1  0.33715300  0.42848200  0.70339400  1
  H  H11  1  0.83715300  0.57151800  0.79660600  1
  H  H12  1  0.70797800  0.88601900  0.34537500  1
  H  H13  1  0.20797800  0.11398100  0.15462500  1
  H  H14  1  0.29202200  0.11398100  0.65462500  1
  H  H15  1  0.79202200  0.88601900  0.84537500  1
  H  H16  1  0.40414300  0.48944200  0.60723700  1
  H  H17  1  0.90414300  0.51055800  0.89276300  1
  H  H18  1  0.59585700  0.51055800  0.39276300  1
  H  H19  1  0.09585700  0.48944200  0.10723700  1
  H  H20  1  0.55107500  0.58170100  0.50954000  1
  H  H21  1  0.05107500  0.41829900  0.99046000  1
  H  H22  1  0.44892500  0.41829900  0.49046000  1
  H  H23  1  0.94892500  0.58170100  0.00954000  1
  H  H24  1  0.94245200  0.74567300  0.59856600  1
  H  H25  1  0.44245200  0.25432700  0.90143400  1
  H  H26  1  0.05754800  0.25432700  0.40143400  1
  H  H27  1  0.55754800  0.74567300  0.09856600  1
  H  H28  1  0.90108200  0.43702200  0.51765700  1
  H  H29  1  0.40108200  0.56297800  0.98234300  1
  H  H30  1  0.09891800  0.56297800  0.48234300  1
  H  H31  1  0.59891800  0.43702200  0.01765700  1
  H  H32  1  0.27012700  0.93789200  0.40276300  1
  H  H33  1  0.77012700  0.06210800  0.09723700  1
  H  H34  1  0.72987300  0.06210800  0.59723700  1
  H  H35  1  0.22987300  0.93789200  0.90276300  1
  H  H36  1  0.22224600  0.88607900  0.50665300  1
  H  H37  1  0.72224600  0.11392100  0.99334700  1
  H  H38  1  0.77775400  0.11392100  0.49334700  1
  H  H39  1  0.27775400  0.88607900  0.00665300  1
  H  H40  1  0.69800000  0.90845000  0.50506000  1
  H  H41  1  0.19800000  0.09155000  0.99494000  1
  H  H42  1  0.30200000  0.09155000  0.49494000  1
  H  H43  1  0.80200000  0.90845000  0.00506000  1
  H  H44  1  0.56266100  0.96132900  0.32018300  1
  H  H45  1  0.06266100  0.03867100  0.17981700  1
  H  H46  1  0.43733900  0.03867100  0.67981700  1
  H  H47  1  0.93733900  0.96132900  0.82018300  1
  H  H48  1  0.24169900  0.80617800  0.33463000  1
  H  H49  1  0.74169900  0.19382200  0.16537000  1
  H  H50  1  0.75830100  0.19382200  0.66537000  1
  H  H51  1  0.25830100  0.80617800  0.83463000  1
  H  H52  1  0.39519200  0.76374700  0.30778100  1
  H  H53  1  0.89519200  0.23625300  0.19221900  1
  H  H54  1  0.60480800  0.23625300  0.69221900  1
  H  H55  1  0.10480800  0.76374700  0.80778100  1
  H  H56  1  0.29541000  0.51409100  0.76787600  1
  H  H57  1  0.79541000  0.48590900  0.73212400  1
  H  H58  1  0.70459000  0.48590900  0.23212400  1
  H  H59  1  0.20459000  0.51409100  0.26787600  1
  H  H60  1  0.98687200  0.50869600  0.62120800  1
  H  H61  1  0.48687200  0.49130400  0.87879200  1
  H  H62  1  0.01312800  0.49130400  0.37879200  1
  H  H63  1  0.51312800  0.50869600  0.12120800  1
  I  I0  1  0.32126300  0.54634800  0.87977700  1
  I  I1  1  0.82126300  0.45365200  0.62022300  1
  I  I2  1  0.67873700  0.45365200  0.12022300  1
  I  I3  1  0.17873700  0.54634800  0.37977700  1
  I  I4  1  0.52179600  0.87075900  0.79292500  1
  I  I5  1  0.02179600  0.12924100  0.70707500  1
  I  I6  1  0.47820400  0.12924100  0.20707500  1
  I  I7  1  0.97820400  0.87075900  0.29292500  1
  I  I8  1  0.01213200  0.84472700  0.62631700  1
  I  I9  1  0.51213200  0.15527300  0.87368300  1
  I  I10  1  0.98786800  0.15527300  0.37368300  1
  I  I11  1  0.48786800  0.84472700  0.12631700  1
  O  O0  1  0.39254800  0.74084000  0.62987900  1
  O  O1  1  0.89254800  0.25916000  0.87012100  1
  O  O2  1  0.60745200  0.25916000  0.37012100  1
  O  O3  1  0.10745200  0.74084000  0.12987900  1
  O  O4  1  0.69927900  0.75302500  0.53564100  1
  O  O5  1  0.19927900  0.24697500  0.96435900  1
  O  O6  1  0.30072100  0.24697500  0.46435900  1
  O  O7  1  0.80072100  0.75302500  0.03564100  1
  O  O8  1  0.45897200  0.61644400  0.51855400  1
  O  O9  1  0.95897200  0.38355600  0.98144600  1
  O  O10  1  0.54102800  0.38355600  0.48144600  1
  O  O11  1  0.04102800  0.61644400  0.01855400  1
  O  O12  1  0.60883600  0.89830000  0.36870800  1
  O  O13  1  0.10883600  0.10170000  0.13129200  1
  O  O14  1  0.39116400  0.10170000  0.63129200  1
  O  O15  1  0.89116400  0.89830000  0.86870800  1
  O  O16  1  0.31036100  0.90740500  0.46557500  1
  O  O17  1  0.81036100  0.09259500  0.03442500  1
  O  O18  1  0.68963900  0.09259500  0.53442500  1
  O  O19  1  0.18963900  0.90740500  0.96557500  1
  O  O20  1  0.65091700  0.84964200  0.55544200  1
  O  O21  1  0.15091700  0.15035800  0.94455800  1
  O  O22  1  0.34908300  0.15035800  0.44455800  1
  O  O23  1  0.84908300  0.84964200  0.05544200  1
  O  O24  1  0.34624600  0.78473500  0.35548100  1
  O  O25  1  0.84624600  0.21526500  0.14451900  1
  O  O26  1  0.65375400  0.21526500  0.64451900  1
  O  O27  1  0.15375400  0.78473500  0.85548100  1
  O  O28  1  0.38998700  0.41562800  0.65248900  1
  O  O29  1  0.88998700  0.58437200  0.84751100  1
  O  O30  1  0.61001300  0.58437200  0.34751100  1
  O  O31  1  0.11001300  0.41562800  0.15248900  1
loop_
_geom_bond_atom_site_label_1
_geom_bond_atom_site_label_2
_geom_bond_distance
_geom_bond_site_symmetry_2
H0 O0 0.977318 1_555
H1 O1 0.977318 1_555
H2 O2 0.977318 1_555
H3 O3 0.977318 1_555
H4 O0 0.991418 1_555
H5 O1 0.991418 1_555
H6 O2 0.991418 1_555
H7 O3 0.991418 1_555
H8 O30 0.981219 1_555
H9 O31 0.981219 1_555
H10 O28 0.981219 1_555
H11 O29 0.981219 1_555
H12 O12 0.988406 1_555
H13 O13 0.988406 1_555
H14 O14 0.988406 1_555
H15 O15 0.988406 1_555
H16 O28 0.994092 1_555
H17 O29 0.994092 1_555
H18 O30 0.994092 1_555
H19 O31 0.994092 1_555
H20 O8 0.974486 1_555
H21 O9 0.974486 1_455
H22 O10 0.974486 1_555
H23 O11 0.974486 1_655
H24 I8 1.640599 1_655
H25 I9 1.640599 1_555
H26 I10 1.640599 1_455
H27 I11 1.640599 1_555
H28 I1 1.819296 1_555
H29 I0 1.819296 1_555
H30 I3 1.819296 1_555
H31 I2 1.819296 1_555
H32 O16 0.980186 1_555
H33 O17 0.980186 1_555
H34 O18 0.980186 1_555
H35 O19 0.980186 1_555
H36 O16 0.986727 1_555
H37 O17 0.986727 1_556
H38 O18 0.986727 1_555
H39 O19 0.986727 1_554
H40 O20 0.984031 1_555
H41 O21 0.984031 1_555
H42 O22 0.984031 1_555
H43 O23 0.984031 1_555
H44 O12 0.997371 1_555
H44 I6 2.424415 1_565
H45 O13 0.997371 1_555
H45 I7 2.424415 1_445
H46 O14 0.997371 1_555
H46 I4 2.424415 1_545
H47 O15 0.997371 1_555
H47 I5 2.424415 1_665
H48 O24 0.993831 1_555
H49 O25 0.993831 1_555
H50 O26 0.993831 1_555
H51 O27 0.993831 1_555
H52 O24 0.976744 1_555
H53 O25 0.976744 1_555
H54 O26 0.976744 1_555
H55 O27 0.976744 1_555
H56 I0 1.934551 1_555
H57 I1 1.934551 1_555
H58 I2 1.934551 1_555
H59 I3 1.934551 1_555
H60 I1 1.648310 1_555
H61 I0 1.648310 1_555
H62 I3 1.648310 1_555
H63 I2 1.648310 1_555
O0 Sc0 2.259482 1_555
O1 Sc1 2.259482 1_556
O2 Sc2 2.259482 1_555
O3 Sc3 2.259482 1_554
O4 Sc0 2.010556 1_555
O5 Sc1 2.010556 1_456
O6 Sc2 2.010556 1_555
O7 Sc3 2.010556 1_654
O8 Sc0 1.974950 1_555
O9 Sc1 1.974950 1_556
O10 Sc2 1.974950 1_555
O11 Sc3 1.974950 1_554
O12 Sc0 2.275244 1_555
O13 Sc1 2.275244 1_455
O14 Sc2 2.275244 1_555
O15 Sc3 2.275244 1_655
O16 Sc0 2.321797 1_555
O17 Sc1 2.321797 1_555
O18 Sc2 2.321797 1_555
O19 Sc3 2.321797 1_555
O20 O4 1.482652 1_555
O20 Sc0 2.240642 1_555
O21 O5 1.482652 1_555
O21 Sc1 2.240642 1_456
O22 O6 1.482652 1_555
O22 Sc2 2.240642 1_555
O23 O7 1.482652 1_555
O23 Sc3 2.240642 1_654
O24 Sc0 2.351623 1_555
O25 Sc1 2.351623 1_555
O26 Sc2 2.351623 1_555
O27 Sc3 2.351623 1_555
