# generated using pymatgen
data_CaB2(H2O3)2
_symmetry_space_group_name_H-M   'P 1'
_cell_length_a   12.45747400
_cell_length_b   7.02523300
_cell_length_c   11.40489517
_cell_angle_alpha   59.60262122
_cell_angle_beta   90.00000000
_cell_angle_gamma   90.00000000
_symmetry_Int_Tables_number   1
_chemical_formula_structural   CaB2(H2O3)2
_chemical_formula_sum   'Ca8 B16 H32 O48'
_cell_volume   860.91378662
_cell_formula_units_Z   8
loop_
 _symmetry_equiv_pos_site_id
 _symmetry_equiv_pos_as_xyz
  1  'x, y, z'
loop_
 _atom_site_type_symbol
 _atom_site_label
 _atom_site_symmetry_multiplicity
 _atom_site_fract_x
 _atom_site_fract_y
 _atom_site_fract_z
 _atom_site_occupancy
  Ca  Ca0  1  0.89929100  0.41543100  0.36450000  1
  Ca  Ca1  1  0.39929100  0.58456900  0.13550000  1
  Ca  Ca2  1  0.76097100  0.06330500  0.73843900  1
  Ca  Ca3  1  0.26097100  0.93669500  0.76156100  1
  Ca  Ca4  1  0.73902900  0.06330500  0.23843900  1
  Ca  Ca5  1  0.23902900  0.93669500  0.26156100  1
  Ca  Ca6  1  0.60070900  0.41543100  0.86450000  1
  Ca  Ca7  1  0.10070900  0.58456900  0.63550000  1
  B  B0  1  0.80270900  0.80639900  0.09509400  1
  B  B1  1  0.66462900  0.55078500  0.26519200  1
  B  B2  1  0.15140300  0.34547700  0.47989700  1
  B  B3  1  0.65140300  0.65452300  0.02010300  1
  B  B4  1  0.16462900  0.44921500  0.23480800  1
  B  B5  1  0.00899800  0.07978200  0.66328700  1
  B  B6  1  0.50899800  0.92021800  0.83671300  1
  B  B7  1  0.30270900  0.19360100  0.40490600  1
  B  B8  1  0.69729100  0.80639900  0.59509400  1
  B  B9  1  0.49100200  0.07978200  0.16328700  1
  B  B10  1  0.99100200  0.92021800  0.33671300  1
  B  B11  1  0.83537100  0.55078500  0.76519200  1
  B  B12  1  0.34859700  0.34547700  0.97989700  1
  B  B13  1  0.84859700  0.65452300  0.52010300  1
  B  B14  1  0.33537100  0.44921500  0.73480800  1
  B  B15  1  0.19729100  0.19360100  0.90490600  1
  H  H0  1  0.72501400  0.48932500  0.48965200  1
  H  H1  1  0.18966900  0.78196700  0.08628400  1
  H  H2  1  0.94718800  0.22988700  0.76230100  1
  H  H3  1  0.52344700  0.24316100  0.70785400  1
  H  H4  1  0.41482500  0.06680200  0.91876100  1
  H  H5  1  0.54958200  0.42950700  0.41012200  1
  H  H6  1  0.07998700  0.98882400  0.90828100  1
  H  H7  1  0.40334000  0.35134800  0.46699900  1
  H  H8  1  0.90334000  0.64865200  0.03300100  1
  H  H9  1  0.04958200  0.57049300  0.08987800  1
  H  H10  1  0.68966900  0.21803300  0.41371600  1
  H  H11  1  0.22501400  0.51067500  0.01034800  1
  H  H12  1  0.57998700  0.01117600  0.59171900  1
  H  H13  1  0.55281200  0.22988700  0.26230100  1
  H  H14  1  0.91482500  0.93319800  0.58123900  1
  H  H15  1  0.97655300  0.24316100  0.20785400  1
  H  H16  1  0.02344700  0.75683900  0.79214600  1
  H  H17  1  0.08517500  0.06680200  0.41876100  1
  H  H18  1  0.44718800  0.77011300  0.73769900  1
  H  H19  1  0.42001300  0.98882400  0.40828100  1
  H  H20  1  0.77498600  0.48932500  0.98965200  1
  H  H21  1  0.31033100  0.78196700  0.58628400  1
  H  H22  1  0.95041800  0.42950700  0.91012200  1
  H  H23  1  0.09666000  0.35134800  0.96699900  1
  H  H24  1  0.59666000  0.64865200  0.53300100  1
  H  H25  1  0.92001300  0.01117600  0.09171900  1
  H  H26  1  0.45041800  0.57049300  0.58987800  1
  H  H27  1  0.58517500  0.93319800  0.08123900  1
  H  H28  1  0.47655300  0.75683900  0.29214600  1
  H  H29  1  0.05281200  0.77011300  0.23769900  1
  H  H30  1  0.81033100  0.21803300  0.91371600  1
  H  H31  1  0.27498600  0.51067500  0.51034800  1
  O  O0  1  0.74773700  0.71775400  0.22695400  1
  O  O1  1  0.79477000  0.44662400  0.53699200  1
  O  O2  1  0.60046400  0.55209400  0.37691100  1
  O  O3  1  0.21834600  0.67167400  0.17876700  1
  O  O4  1  0.57113500  0.13240800  0.77871400  1
  O  O5  1  0.07442900  0.27614000  0.59236700  1
  O  O6  1  0.89850300  0.65976300  0.11500900  1
  O  O7  1  0.15578500  0.97152300  0.93679300  1
  O  O8  1  0.59445700  0.59705800  0.14880700  1
  O  O9  1  0.95645700  0.07755300  0.78280500  1
  O  O10  1  0.09445700  0.40294200  0.35119300  1
  O  O11  1  0.42073900  0.92221400  0.92551500  1
  O  O12  1  0.39850300  0.34023700  0.38499100  1
  O  O13  1  0.73362600  0.82656900  0.98623700  1
  O  O14  1  0.71834600  0.32832600  0.32123300  1
  O  O15  1  0.23362600  0.17343100  0.51376300  1
  O  O16  1  0.10046400  0.44790600  0.12308900  1
  O  O17  1  0.92073900  0.07778600  0.57448500  1
  O  O18  1  0.24773700  0.28224600  0.27304600  1
  O  O19  1  0.45645700  0.92244700  0.71719500  1
  O  O20  1  0.65578500  0.02847700  0.56320700  1
  O  O21  1  0.70523000  0.44662400  0.03699200  1
  O  O22  1  0.57442900  0.72386000  0.90763300  1
  O  O23  1  0.07113500  0.86759200  0.72128600  1
  O  O24  1  0.92886500  0.13240800  0.27871400  1
  O  O25  1  0.42557100  0.27614000  0.09236700  1
  O  O26  1  0.29477000  0.55337600  0.96300800  1
  O  O27  1  0.34421500  0.97152300  0.43679300  1
  O  O28  1  0.54354300  0.07755300  0.28280500  1
  O  O29  1  0.75226300  0.71775400  0.72695400  1
  O  O30  1  0.07926100  0.92221400  0.42551500  1
  O  O31  1  0.89953600  0.55209400  0.87691100  1
  O  O32  1  0.76637400  0.82656900  0.48623700  1
  O  O33  1  0.28165400  0.67167400  0.67876700  1
  O  O34  1  0.26637400  0.17343100  0.01376300  1
  O  O35  1  0.60149700  0.65976300  0.61500900  1
  O  O36  1  0.57926100  0.07778600  0.07448500  1
  O  O37  1  0.90554300  0.59705800  0.64880700  1
  O  O38  1  0.04354300  0.92244700  0.21719500  1
  O  O39  1  0.40554300  0.40294200  0.85119300  1
  O  O40  1  0.84421500  0.02847700  0.06320700  1
  O  O41  1  0.10149700  0.34023700  0.88499100  1
  O  O42  1  0.92557100  0.72386000  0.40763300  1
  O  O43  1  0.42886500  0.86759200  0.22128600  1
  O  O44  1  0.78165400  0.32832600  0.82123300  1
  O  O45  1  0.39953600  0.44790600  0.62308900  1
  O  O46  1  0.20523000  0.55337600  0.46300800  1
  O  O47  1  0.25226300  0.28224600  0.77304600  1
loop_
_geom_bond_atom_site_label_1
_geom_bond_atom_site_label_2
_geom_bond_distance
_geom_bond_site_symmetry_2
Ca0 O17 2.384217 1_555
Ca0 O10 2.440350 1_655
Ca0 O14 2.450426 1_555
Ca0 O1 2.459625 1_555
Ca0 O6 2.469849 1_555
Ca0 O42 2.474432 1_555
Ca0 O24 2.648574 1_555
Ca0 O0 2.676659 1_555
Ca1 O11 2.384217 1_554
Ca1 O8 2.440350 1_555
Ca1 O3 2.450426 1_555
Ca1 O26 2.459625 1_554
Ca1 O12 2.469849 1_555
Ca1 O25 2.474432 1_555
Ca1 O43 2.648574 1_555
Ca1 O18 2.676659 1_555
Ca2 O13 2.472327 1_545
Ca2 O44 2.490695 1_555
Ca2 O29 2.498768 1_545
Ca2 O9 2.499560 1_555
Ca2 O4 2.502992 1_555
Ca2 O20 2.503147 1_555
Ca2 O1 2.538971 1_555
Ca2 O17 2.697333 1_555
Ca3 O15 2.472327 1_565
Ca3 O33 2.490695 1_555
Ca3 O47 2.498768 1_565
Ca3 O19 2.499560 1_555
Ca3 O23 2.502992 1_555
Ca3 O7 2.503147 1_555
Ca3 O26 2.538971 1_555
Ca3 O11 2.697333 1_555
Ca4 O32 2.472327 1_545
Ca4 O14 2.490695 1_555
Ca4 O0 2.498768 1_545
Ca4 O28 2.499560 1_555
Ca4 O24 2.502992 1_555
Ca4 O40 2.503147 1_555
Ca4 O21 2.538971 1_555
Ca4 O36 2.697333 1_555
Ca5 O34 2.472327 1_565
Ca5 O3 2.490695 1_555
Ca5 O18 2.498768 1_565
Ca5 O38 2.499560 1_555
Ca5 O43 2.502992 1_555
Ca5 O27 2.503147 1_555
Ca5 O46 2.538971 1_555
Ca5 O30 2.697333 1_555
Ca6 O36 2.384217 1_556
Ca6 O39 2.440350 1_555
Ca6 O44 2.450426 1_555
Ca6 O21 2.459625 1_556
Ca6 O35 2.469849 1_555
Ca6 O22 2.474432 1_555
Ca6 O4 2.648574 1_555
Ca6 O29 2.676659 1_555
Ca7 O30 2.384217 1_555
Ca7 O37 2.440350 1_455
Ca7 O33 2.450426 1_555
Ca7 O46 2.459625 1_555
Ca7 O41 2.469849 1_555
Ca7 O5 2.474432 1_555
Ca7 O23 2.648574 1_555
Ca7 O47 2.676659 1_555
B0 O13 1.457399 1_554
B0 O0 1.473295 1_555
B0 O40 1.503161 1_565
B0 O6 1.516610 1_555
B1 O0 1.456127 1_555
B1 O8 1.481572 1_555
B1 O2 1.508084 1_555
B1 O14 1.512576 1_555
B2 O5 1.473024 1_555
B2 O15 1.478780 1_555
B2 O10 1.490351 1_555
B2 O46 1.528140 1_555
B3 O22 1.473024 1_554
B3 O13 1.478780 1_554
B3 O8 1.490351 1_555
B3 O21 1.528140 1_555
B4 O18 1.456127 1_555
B4 O10 1.481572 1_555
B4 O16 1.508084 1_555
B4 O3 1.512576 1_555
B5 O5 1.446509 1_555
B5 O17 1.499717 1_455
B5 O23 1.503663 1_545
B5 O9 1.505014 1_455
B6 O22 1.446509 1_555
B6 O11 1.499717 1_555
B6 O4 1.503663 1_565
B6 O19 1.505014 1_555
B7 O15 1.457399 1_555
B7 O18 1.473295 1_555
B7 O27 1.503161 1_545
B7 O12 1.516610 1_555
B8 O32 1.457399 1_555
B8 O29 1.473295 1_555
B8 O20 1.503161 1_565
B8 O35 1.516610 1_555
B9 O25 1.446509 1_555
B9 O36 1.499717 1_555
B9 O43 1.503663 1_545
B9 O28 1.505014 1_555
B10 O42 1.446509 1_555
B10 O30 1.499717 1_655
B10 O24 1.503663 1_565
B10 O38 1.505014 1_655
B11 O29 1.456127 1_555
B11 O37 1.481572 1_555
B11 O31 1.508084 1_555
B11 O44 1.512576 1_555
B12 O25 1.473024 1_556
B12 O34 1.478780 1_556
B12 O39 1.490351 1_555
B12 O26 1.528140 1_555
B13 O42 1.473024 1_555
B13 O32 1.478780 1_555
B13 O37 1.490351 1_555
B13 O1 1.528140 1_555
B14 O47 1.456127 1_555
B14 O39 1.481572 1_555
B14 O45 1.508084 1_555
B14 O33 1.512576 1_555
B15 O34 1.457399 1_556
B15 O47 1.473295 1_555
B15 O7 1.503161 1_545
B15 O41 1.516610 1_555
H0 O1 0.986265 1_555
H1 O3 1.006700 1_555
H1 O7 1.600215 1_554
H2 O9 0.979820 1_555
H3 O4 0.987463 1_555
H4 O11 0.981813 1_545
H5 O2 0.978166 1_555
H6 O7 0.985965 1_555
H7 O12 0.978968 1_555
H8 O6 0.978968 1_555
H9 O16 0.978166 1_555
H10 O14 1.006700 1_555
H10 O20 1.600215 1_555
H11 O26 0.986265 1_554
H12 O20 0.985965 1_555
H13 O28 0.979820 1_555
H14 O17 0.981813 1_565
H15 O24 0.987463 1_555
H16 O23 0.987463 1_555
H17 O30 0.981813 1_545
H18 O19 0.979820 1_555
H19 O27 0.985965 1_555
H20 O21 0.986265 1_556
H21 O33 1.006700 1_555
H21 O27 1.600215 1_555
H22 O31 0.978166 1_555
H23 O41 0.978968 1_555
H24 O35 0.978968 1_555
H25 O40 0.985965 1_555
H26 O45 0.978166 1_555
H27 O36 0.981813 1_565
H28 O43 0.987463 1_555
H29 O38 0.979820 1_555
H30 O44 1.006700 1_555
H30 O40 1.600215 1_556
H31 O46 0.986265 1_555
