# generated using pymatgen
data_CsScO2
_symmetry_space_group_name_H-M   'P 1'
_cell_length_a   6.39017311
_cell_length_b   6.39017311
_cell_length_c   6.39017311
_cell_angle_alpha   60.00000000
_cell_angle_beta   90.00000000
_cell_angle_gamma   120.00000000
_symmetry_Int_Tables_number   1
_chemical_formula_structural   CsScO2
_chemical_formula_sum   'Cs2 Sc2 O4'
_cell_volume   184.51125913
_cell_formula_units_Z   2
loop_
 _symmetry_equiv_pos_site_id
 _symmetry_equiv_pos_as_xyz
  1  'x, y, z'
loop_
 _atom_site_type_symbol
 _atom_site_label
 _atom_site_symmetry_multiplicity
 _atom_site_fract_x
 _atom_site_fract_y
 _atom_site_fract_z
 _atom_site_occupancy
  Cs  Cs0  1  0.50000000  0.00000000  0.50000000  1
  Cs  Cs1  1  0.75000000  0.50000000  0.75000000  1
  Sc  Sc0  1  -0.00000000  0.00000000  0.00000000  1
  Sc  Sc1  1  0.25000000  0.50000000  0.25000000  1
  O  O0  1  0.12500000  0.25000000  0.12500000  1
  O  O1  1  0.62500000  0.75000000  0.12500000  1
  O  O2  1  0.12500000  0.75000000  0.12500000  1
  O  O3  1  0.12500000  0.25000000  0.62500000  1
loop_
_geom_bond_atom_site_label_1
_geom_bond_atom_site_label_2
_geom_bond_distance
_geom_bond_site_symmetry_2
Cs0 O1 3.746571 1_546
Cs0 O1 3.746571 1_545
Cs0 O0 3.746571 1_555
Cs0 O3 3.746571 1_555
Cs0 O2 3.746571 1_545
Cs0 O2 3.746571 1_546
Cs0 O0 3.746571 1_655
Cs0 O3 3.746571 1_655
Cs0 O0 3.746571 1_546
Cs0 O1 3.746571 1_555
Cs0 O3 3.746571 1_545
Cs0 O2 3.746571 1_655
Cs1 O2 3.746571 1_655
Cs1 O0 3.746571 1_556
Cs1 O2 3.746571 1_656
Cs1 O3 3.746571 1_555
Cs1 O0 3.746571 1_656
Cs1 O1 3.746571 1_555
Cs1 O1 3.746571 1_556
Cs1 O3 3.746571 1_655
Cs1 O3 3.746571 1_665
Cs1 O0 3.746571 1_665
Cs1 O1 3.746571 1_546
Cs1 O2 3.746571 1_546
O0 Sc1 1.956583 1_555
O0 Sc0 1.956583 1_555
O1 Sc1 1.956583 1_555
O1 Sc0 1.956583 1_665
O2 Sc1 1.956583 1_555
O2 Sc0 1.956583 1_565
O3 Sc1 1.956583 1_555
O3 Sc0 1.956583 1_556
