# generated using pymatgen
data_USiPbO7
_symmetry_space_group_name_H-M   'P 1'
_cell_length_a   6.93411500
_cell_length_b   6.77819300
_cell_length_c   13.34903190
_cell_angle_alpha   77.34896473
_cell_angle_beta   90.00000000
_cell_angle_gamma   90.00000000
_symmetry_Int_Tables_number   1
_chemical_formula_structural   USiPbO7
_chemical_formula_sum   'U4 Si4 Pb4 O28'
_cell_volume   612.18244101
_cell_formula_units_Z   4
loop_
 _symmetry_equiv_pos_site_id
 _symmetry_equiv_pos_as_xyz
  1  'x, y, z'
loop_
 _atom_site_type_symbol
 _atom_site_label
 _atom_site_symmetry_multiplicity
 _atom_site_fract_x
 _atom_site_fract_y
 _atom_site_fract_z
 _atom_site_occupancy
  U  U0  1  0.72375000  0.52135100  0.67873100  1
  U  U1  1  0.22375000  0.47864900  0.82126900  1
  U  U2  1  0.27625000  0.47864900  0.32126900  1
  U  U3  1  0.77625000  0.52135100  0.17873100  1
  Si  Si0  1  0.21092900  0.58935400  0.57368400  1
  Si  Si1  1  0.71092900  0.41064600  0.92631600  1
  Si  Si2  1  0.78907100  0.41064600  0.42631600  1
  Si  Si3  1  0.28907100  0.58935400  0.07368400  1
  Pb  Pb0  1  0.53016100  0.94771500  0.87070900  1
  Pb  Pb1  1  0.03016100  0.05228500  0.62929100  1
  Pb  Pb2  1  0.46983900  0.05228500  0.12929100  1
  Pb  Pb3  1  0.96983900  0.94771500  0.37070900  1
  O  O0  1  0.77769800  0.79607900  0.66997200  1
  O  O1  1  0.27769800  0.20392100  0.83002800  1
  O  O2  1  0.22230200  0.20392100  0.33002800  1
  O  O3  1  0.72230200  0.79607900  0.16997200  1
  O  O4  1  0.19414200  0.75752300  0.79832200  1
  O  O5  1  0.69414200  0.24247700  0.70167800  1
  O  O6  1  0.80585800  0.24247700  0.20167800  1
  O  O7  1  0.30585800  0.75752300  0.29832200  1
  O  O8  1  0.12736100  0.81680800  0.52702500  1
  O  O9  1  0.62736100  0.18319200  0.97297500  1
  O  O10  1  0.87263900  0.18319200  0.47297500  1
  O  O11  1  0.37263900  0.81680800  0.02702500  1
  O  O12  1  0.75722400  0.54060800  0.51420100  1
  O  O13  1  0.25722400  0.45939200  0.98579900  1
  O  O14  1  0.24277600  0.45939200  0.48579900  1
  O  O15  1  0.74277600  0.54060800  0.01420100  1
  O  O16  1  0.05811400  0.46976800  0.66397900  1
  O  O17  1  0.55811400  0.53023200  0.83602100  1
  O  O18  1  0.94188600  0.53023200  0.33602100  1
  O  O19  1  0.44188600  0.46976800  0.16397900  1
  O  O20  1  0.40441800  0.58126800  0.64705500  1
  O  O21  1  0.90441800  0.41873200  0.85294500  1
  O  O22  1  0.59558200  0.41873200  0.35294500  1
  O  O23  1  0.09558200  0.58126800  0.14705500  1
  O  O24  1  0.47310000  0.04080500  0.53426800  1
  O  O25  1  0.97310000  0.95919500  0.96573200  1
  O  O26  1  0.52690000  0.95919500  0.46573200  1
  O  O27  1  0.02690000  0.04080500  0.03426800  1
loop_
_geom_bond_atom_site_label_1
_geom_bond_atom_site_label_2
_geom_bond_distance
_geom_bond_site_symmetry_2
O0 U0 1.877731 1_555
O0 Pb1 2.441776 1_665
O1 U1 1.877731 1_555
O1 Pb0 2.441776 1_545
O2 U2 1.877731 1_555
O2 Pb3 2.441776 1_445
O3 U3 1.877731 1_555
O3 Pb2 2.441776 1_565
O4 U1 1.858883 1_555
O5 U0 1.858883 1_555
O6 U3 1.858883 1_555
O7 U2 1.858883 1_555
O8 Si0 1.637080 1_555
O8 Pb3 2.350225 1_455
O8 Pb1 2.412447 1_565
O9 Si1 1.637080 1_555
O9 Pb2 2.350225 1_556
O9 Pb0 2.412447 1_545
O10 Si2 1.637080 1_555
O10 Pb1 2.350225 1_655
O10 Pb3 2.412447 1_545
O11 Si3 1.637080 1_555
O11 Pb0 2.350225 1_554
O11 Pb2 2.412447 1_565
O12 Si2 1.629048 1_555
O12 U0 2.183837 1_555
O13 Si3 1.629048 1_556
O13 U1 2.183837 1_555
O14 Si0 1.629048 1_555
O14 U2 2.183837 1_555
O15 Si1 1.629048 1_554
O15 U3 2.183837 1_555
O16 Si0 1.674746 1_555
O16 U0 2.359389 1_455
O16 U1 2.405564 1_555
O17 Si1 1.674746 1_555
O17 U1 2.359389 1_555
O17 U0 2.405564 1_555
O18 Si2 1.674746 1_555
O18 U2 2.359389 1_655
O18 U3 2.405564 1_555
O19 Si3 1.674746 1_555
O19 U3 2.359389 1_555
O19 U2 2.405564 1_555
O20 Si0 1.654953 1_555
O20 U0 2.274109 1_555
O20 U1 2.598666 1_555
O21 Si1 1.654953 1_555
O21 U1 2.274109 1_655
O21 U0 2.598666 1_555
O22 Si2 1.654953 1_555
O22 U2 2.274109 1_555
O22 U3 2.598666 1_555
O23 Si3 1.654953 1_555
O23 U3 2.274109 1_455
O23 U2 2.598666 1_555
O24 O26 1.226323 1_545
O25 O27 1.226323 1_666
