# generated using pymatgen
data_RbMn4O8
_symmetry_space_group_name_H-M   'P 1'
_cell_length_a   7.14946173
_cell_length_b   7.06449923
_cell_length_c   7.14946173
_cell_angle_alpha   91.67534197
_cell_angle_beta   156.31854703
_cell_angle_gamma   93.20932541
_symmetry_Int_Tables_number   1
_chemical_formula_structural   RbMn4O8
_chemical_formula_sum   'Rb1 Mn4 O8'
_cell_volume   141.86102634
_cell_formula_units_Z   1
loop_
 _symmetry_equiv_pos_site_id
 _symmetry_equiv_pos_as_xyz
  1  'x, y, z'
loop_
 _atom_site_type_symbol
 _atom_site_label
 _atom_site_symmetry_multiplicity
 _atom_site_fract_x
 _atom_site_fract_y
 _atom_site_fract_z
 _atom_site_occupancy
  Rb  Rb0  1  0.50000155  0.00000200  0.50000045  1
  Mn  Mn0  1  0.83325658  0.18327186  0.35001728  1
  Mn  Mn1  1  0.34745137  0.51126692  0.16381555  1
  Mn  Mn2  1  0.65254753  0.48872913  0.83618160  1
  Mn  Mn3  1  0.16674419  0.81672563  0.64997945  1
  O  O0  1  0.82669407  0.36827306  0.54157899  1
  O  O1  1  0.79875434  0.95630071  0.15754537  1
  O  O2  1  0.54149336  0.69949470  0.15800134  1
  O  O3  1  0.15166096  0.35894554  0.20728357  1
  O  O4  1  0.84833309  0.64104482  0.79271073  1
  O  O5  1  0.45850467  0.30050292  0.84199825  1
  O  O6  1  0.20125384  0.04371614  0.84246231  1
  O  O7  1  0.17330345  0.63172555  0.45842310  1
loop_
_geom_bond_atom_site_label_1
_geom_bond_atom_site_label_2
_geom_bond_distance
_geom_bond_site_symmetry_2
Mn0 O0 1.898920 1_555
Mn0 O5 1.912300 1_655
Mn0 O5 1.912305 1_554
Mn0 O1 1.931429 1_545
Mn0 O6 1.953718 1_655
Mn0 O6 1.953722 1_554
Mn1 O2 1.896528 1_555
Mn1 O0 1.911126 1_555
Mn1 O0 1.911126 1_454
Mn1 O4 1.944541 1_555
Mn1 O4 1.944543 1_454
Mn1 O3 1.965100 1_555
Mn2 O5 1.896537 1_555
Mn2 O7 1.911151 1_555
Mn2 O7 1.911153 1_656
Mn2 O3 1.944553 1_656
Mn2 O3 1.944555 1_555
Mn2 O4 1.965067 1_555
Mn3 O7 1.898870 1_555
Mn3 O2 1.912319 1_455
Mn3 O2 1.912323 1_556
Mn3 O6 1.931553 1_565
Mn3 O1 1.953773 1_455
Mn3 O1 1.953776 1_556
O1 Rb0 2.919793 1_564
O1 Rb0 2.919794 1_665
O3 Rb0 2.912621 1_454
O3 Rb0 2.912622 1_555
O4 Rb0 2.912699 1_565
O4 Rb0 2.912700 1_666
O6 Rb0 2.919791 1_556
O6 Rb0 2.919792 1_455
