# generated using pymatgen
data_YScO3
_symmetry_space_group_name_H-M   'P 1'
_cell_length_a   5.46844800
_cell_length_b   5.76218000
_cell_length_c   7.99589900
_cell_angle_alpha   90.00000000
_cell_angle_beta   90.00000000
_cell_angle_gamma   90.00000000
_symmetry_Int_Tables_number   1
_chemical_formula_structural   YScO3
_chemical_formula_sum   'Y4 Sc4 O12'
_cell_volume   251.95223032
_cell_formula_units_Z   4
loop_
 _symmetry_equiv_pos_site_id
 _symmetry_equiv_pos_as_xyz
  1  'x, y, z'
loop_
 _atom_site_type_symbol
 _atom_site_label
 _atom_site_symmetry_multiplicity
 _atom_site_fract_x
 _atom_site_fract_y
 _atom_site_fract_z
 _atom_site_occupancy
  Y  Y0  1  0.98034800  0.93742400  0.75000000  1
  Y  Y1  1  0.48034800  0.56257600  0.25000000  1
  Y  Y2  1  0.51965200  0.43742400  0.75000000  1
  Y  Y3  1  0.01965200  0.06257600  0.25000000  1
  Sc  Sc0  1  0.50000000  0.00000000  0.00000000  1
  Sc  Sc1  1  0.00000000  0.50000000  0.50000000  1
  Sc  Sc2  1  0.00000000  0.50000000  0.00000000  1
  Sc  Sc3  1  0.50000000  0.00000000  0.50000000  1
  O  O0  1  0.62895000  0.94377900  0.25000000  1
  O  O1  1  0.19008500  0.80815000  0.43396800  1
  O  O2  1  0.19008500  0.80815000  0.06603200  1
  O  O3  1  0.69008500  0.69185000  0.56603200  1
  O  O4  1  0.69008500  0.69185000  0.93396800  1
  O  O5  1  0.12895000  0.55622100  0.75000000  1
  O  O6  1  0.87105000  0.44377900  0.25000000  1
  O  O7  1  0.30991500  0.30815000  0.43396800  1
  O  O8  1  0.30991500  0.30815000  0.06603200  1
  O  O9  1  0.80991500  0.19185000  0.56603200  1
  O  O10  1  0.80991500  0.19185000  0.93396800  1
  O  O11  1  0.37105000  0.05622100  0.75000000  1
loop_
_geom_bond_atom_site_label_1
_geom_bond_atom_site_label_2
_geom_bond_distance
_geom_bond_site_symmetry_2
O0 Sc3 2.144316 1_565
O0 Sc0 2.144316 1_565
O0 Y3 2.243514 1_665
O0 Y1 2.342057 1_555
O1 Sc3 2.091180 1_565
O1 Sc1 2.124165 1_555
O1 Y3 2.276343 1_565
O1 Y1 2.585660 1_555
O1 Y0 2.873302 1_455
O2 Sc0 2.091180 1_565
O2 Sc2 2.124165 1_555
O2 Y3 2.276343 1_565
O2 Y1 2.585660 1_555
O2 Y0 2.873302 1_454
O3 Sc1 2.091180 1_655
O3 Sc3 2.124165 1_565
O3 Y2 2.276343 1_555
O3 Y0 2.585660 1_555
O3 Y1 2.873302 1_555
O4 Sc2 2.091180 1_656
O4 Sc0 2.124165 1_566
O4 Y2 2.276343 1_555
O4 Y0 2.585660 1_555
O4 Y1 2.873302 1_556
O5 Sc1 2.144316 1_555
O5 Sc2 2.144316 1_556
O5 Y2 2.243514 1_555
O5 Y0 2.342057 1_455
O6 Sc1 2.144316 1_655
O6 Sc2 2.144316 1_655
O6 Y1 2.243514 1_555
O6 Y3 2.342057 1_655
O7 Sc1 2.091180 1_555
O7 Sc3 2.124165 1_555
O7 Y1 2.276343 1_555
O7 Y3 2.585660 1_555
O7 Y2 2.873302 1_555
O8 Sc2 2.091180 1_555
O8 Sc0 2.124165 1_555
O8 Y1 2.276343 1_555
O8 Y3 2.585660 1_555
O8 Y2 2.873302 1_554
O9 Sc3 2.091180 1_555
O9 Sc1 2.124165 1_655
O9 Y0 2.276343 1_545
O9 Y2 2.585660 1_555
O9 Y3 2.873302 1_655
O10 Sc0 2.091180 1_556
O10 Sc2 2.124165 1_656
O10 Y0 2.276343 1_545
O10 Y2 2.585660 1_555
O10 Y3 2.873302 1_656
O11 Sc0 2.144316 1_556
O11 Sc3 2.144316 1_555
O11 Y0 2.243514 1_445
O11 Y2 2.342057 1_555
