# generated using pymatgen
data_Li4Mn3Nb5O16
_symmetry_space_group_name_H-M   'P 1'
_cell_length_a   6.22249858
_cell_length_b   6.22249858
_cell_length_c   10.06859350
_cell_angle_alpha   89.21204645
_cell_angle_beta   89.21204645
_cell_angle_gamma   58.64370446
_symmetry_Int_Tables_number   1
_chemical_formula_structural   Li4Mn3Nb5O16
_chemical_formula_sum   'Li4 Mn3 Nb5 O16'
_cell_volume   332.87087735
_cell_formula_units_Z   1
loop_
 _symmetry_equiv_pos_site_id
 _symmetry_equiv_pos_as_xyz
  1  'x, y, z'
loop_
 _atom_site_type_symbol
 _atom_site_label
 _atom_site_symmetry_multiplicity
 _atom_site_fract_x
 _atom_site_fract_y
 _atom_site_fract_z
 _atom_site_occupancy
  Li  Li0  1  0.67184300  0.67184300  0.90876700  1
  Li  Li1  1  0.99848700  0.99848700  0.98796000  1
  Li  Li2  1  0.00216900  0.00216900  0.48885900  1
  Li  Li3  1  0.34202900  0.34202900  0.39969300  1
  Mn  Mn0  1  0.82912800  0.33871900  0.20727500  1
  Mn  Mn1  1  0.33871900  0.82912800  0.20727500  1
  Mn  Mn2  1  0.16266900  0.16266900  0.71163900  1
  Nb  Nb0  1  0.65975800  0.65975800  0.48962400  1
  Nb  Nb1  1  0.82667800  0.82667800  0.22728900  1
  Nb  Nb2  1  0.33056600  0.33056600  0.99838000  1
  Nb  Nb3  1  0.63501600  0.18318200  0.71551300  1
  Nb  Nb4  1  0.18318200  0.63501600  0.71551300  1
  O  O0  1  0.80884200  0.34008300  0.59265500  1
  O  O1  1  0.53062600  0.53062600  0.35526100  1
  O  O2  1  0.68465100  0.68465100  0.10496500  1
  O  O3  1  0.99275000  0.99275000  0.30404400  1
  O  O4  1  0.99372700  0.99372700  0.80479000  1
  O  O5  1  0.34008300  0.80884200  0.59265500  1
  O  O6  1  0.97205700  0.53149800  0.34852300  1
  O  O7  1  0.53149800  0.97205700  0.34852300  1
  O  O8  1  0.16911500  0.16911500  0.07818400  1
  O  O9  1  0.83282900  0.83282900  0.59454200  1
  O  O10  1  0.49363600  0.04601200  0.84456700  1
  O  O11  1  0.04601200  0.49363600  0.84456700  1
  O  O12  1  0.32616400  0.32616400  0.59012700  1
  O  O13  1  0.65551800  0.15591800  0.09481200  1
  O  O14  1  0.48640700  0.48640700  0.85700800  1
  O  O15  1  0.15591800  0.65551800  0.09481200  1
loop_
_geom_bond_atom_site_label_1
_geom_bond_atom_site_label_2
_geom_bond_distance
_geom_bond_site_symmetry_2
Li0 O2 1.982506 1_556
Li0 O14 2.086423 1_555
Li0 O10 2.087991 1_565
Li0 O11 2.087991 1_655
Li1 O4 1.845801 1_555
Li1 O8 2.075096 1_666
Li1 O15 2.112268 1_656
Li1 O13 2.112268 1_566
Li2 O3 1.865240 1_445
Li2 O0 2.086617 1_455
Li2 O5 2.086617 1_545
Li2 O9 2.108734 1_445
Li3 O12 1.922408 1_555
Li3 O6 2.036307 1_455
Li3 O7 2.036307 1_545
Li3 O1 2.087811 1_555
Mn0 O3 2.075799 1_545
Mn0 O2 2.110308 1_555
Mn0 O1 2.181885 1_555
Mn0 O8 2.217501 1_655
Mn0 O13 2.256323 1_555
Mn0 O6 2.333351 1_555
Mn1 O3 2.075799 1_455
Mn1 O2 2.110308 1_555
Mn1 O1 2.181885 1_555
Mn1 O8 2.217501 1_565
Mn1 O15 2.256323 1_555
Mn1 O7 2.333351 1_555
Mn2 O4 2.045909 1_445
Mn2 O12 2.139043 1_555
Mn2 O5 2.237855 1_545
Mn2 O0 2.237855 1_455
Mn2 O10 2.247846 1_555
Mn2 O11 2.247846 1_555
Nb0 O1 1.962964 1_555
Nb0 O5 1.985655 1_555
Nb0 O0 1.985655 1_555
Nb0 O9 2.169123 1_555
Nb0 O6 2.184681 1_555
Nb0 O7 2.184681 1_555
Nb1 O3 1.971876 1_555
Nb1 O6 1.980278 1_555
Nb1 O7 1.980278 1_555
Nb1 O2 1.987888 1_555
Nb1 O15 2.191750 1_655
Nb1 O13 2.191750 1_565
Nb2 O8 1.915766 1_556
Nb2 O13 1.987551 1_556
Nb2 O15 1.987551 1_556
Nb2 O11 2.173836 1_555
Nb2 O10 2.173836 1_555
Nb2 O14 2.193069 1_555
Nb3 O10 1.977475 1_555
Nb3 O12 2.082108 1_555
Nb3 O4 2.113643 1_545
Nb3 O14 2.160257 1_555
Nb3 O0 2.163863 1_555
Nb3 O9 2.233932 1_545
Nb4 O11 1.977475 1_555
Nb4 O12 2.082108 1_555
Nb4 O4 2.113643 1_455
Nb4 O14 2.160257 1_555
Nb4 O5 2.163863 1_555
Nb4 O9 2.233932 1_455
