# generated using pymatgen
data_LiMn5O5F
_symmetry_space_group_name_H-M   'P 1'
_cell_length_a   3.48808816
_cell_length_b   3.48808816
_cell_length_c   15.96954300
_cell_angle_alpha   90.00000000
_cell_angle_beta   90.00000000
_cell_angle_gamma   120.00000298
_symmetry_Int_Tables_number   1
_chemical_formula_structural   LiMn5O5F
_chemical_formula_sum   'Li1 Mn5 O5 F1'
_cell_volume   168.26663589
_cell_formula_units_Z   1
loop_
 _symmetry_equiv_pos_site_id
 _symmetry_equiv_pos_as_xyz
  1  'x, y, z'
loop_
 _atom_site_type_symbol
 _atom_site_label
 _atom_site_symmetry_multiplicity
 _atom_site_fract_x
 _atom_site_fract_y
 _atom_site_fract_z
 _atom_site_occupancy
  Li  Li0  1  0.66666700  0.33333300  0.84103900  1
  Mn  Mn0  1  0.33333300  0.66666700  0.32918500  1
  Mn  Mn1  1  0.33333300  0.66666700  0.99288700  1
  Mn  Mn2  1  0.33333300  0.66666700  0.66448700  1
  Mn  Mn3  1  0.66666700  0.33333300  0.49726300  1
  Mn  Mn4  1  0.66666700  0.33333300  0.16079600  1
  O  O0  1  0.33333300  0.66666700  0.46430900  1
  O  O1  1  0.33333300  0.66666700  0.12783200  1
  O  O2  1  0.66666700  0.33333300  0.29579300  1
  O  O3  1  0.66666700  0.33333300  0.95920100  1
  O  O4  1  0.66666700  0.33333300  0.63272500  1
  F  F0  1  0.33333300  0.66666700  0.79751400  1
loop_
_geom_bond_atom_site_label_1
_geom_bond_atom_site_label_2
_geom_bond_distance
_geom_bond_site_symmetry_2
Li0 O3 1.886993 1_555
Mn0 O2 2.083252 1_455
Mn0 O2 2.083252 1_565
Mn0 O2 2.083258 1_555
Mn0 O0 2.157869 1_555
Mn1 O3 2.084459 1_455
Mn1 O3 2.084459 1_565
Mn1 O3 2.084465 1_555
Mn1 O1 2.155010 1_556
Mn2 O4 2.076741 1_455
Mn2 O4 2.076741 1_565
Mn2 O4 2.076747 1_555
Mn3 O0 2.081473 1_545
Mn3 O0 2.081473 1_655
Mn3 O0 2.081478 1_555
Mn3 O4 2.163266 1_555
Mn4 O1 2.081513 1_655
Mn4 O1 2.081513 1_545
Mn4 O1 2.081519 1_555
Mn4 O2 2.155840 1_555
F0 Mn2 2.124380 1_555
F0 Li0 2.130424 1_455
F0 Li0 2.130424 1_565
F0 Li0 2.130430 1_555
