# generated using pymatgen
data_Ti5Fe7O18
_symmetry_space_group_name_H-M   'P 1'
_cell_length_a   5.56305600
_cell_length_b   7.63126836
_cell_length_c   8.93920860
_cell_angle_alpha   113.14343732
_cell_angle_beta   105.33009582
_cell_angle_gamma   96.06070985
_symmetry_Int_Tables_number   1
_chemical_formula_structural   Ti5Fe7O18
_chemical_formula_sum   'Ti5 Fe7 O18'
_cell_volume   327.01559853
_cell_formula_units_Z   1
loop_
 _symmetry_equiv_pos_site_id
 _symmetry_equiv_pos_as_xyz
  1  'x, y, z'
loop_
 _atom_site_type_symbol
 _atom_site_label
 _atom_site_symmetry_multiplicity
 _atom_site_fract_x
 _atom_site_fract_y
 _atom_site_fract_z
 _atom_site_occupancy
  Ti  Ti0  1  0.70470200  0.14761600  0.00068800  1
  Ti  Ti1  1  0.62625400  0.18729100  0.66740200  1
  Ti  Ti2  1  0.28875100  0.84941100  0.99439300  1
  Ti  Ti3  1  0.38247100  0.80906700  0.33485200  1
  Ti  Ti4  1  0.96316200  0.52297100  0.33762400  1
  Fe  Fe0  1  0.29115900  0.35723500  0.99616300  1
  Fe  Fe1  1  0.03783500  0.48044900  0.66420600  1
  Fe  Fe2  1  0.71002200  0.64397600  0.99890800  1
  Fe  Fe3  1  0.96530200  0.02523800  0.33699400  1
  Fe  Fe4  1  0.37472400  0.30744400  0.33037100  1
  Fe  Fe5  1  0.61974000  0.68346600  0.66665800  1
  Fe  Fe6  1  0.04285900  0.98022700  0.66656000  1
  O  O0  1  0.41692900  0.15424900  0.79398400  1
  O  O1  1  0.90949800  0.17915800  0.87132900  1
  O  O2  1  0.29272800  0.55907800  0.89630800  1
  O  O3  1  0.04149900  0.78837700  0.78294500  1
  O  O4  1  0.36710700  0.11235600  0.44873200  1
  O  O5  1  0.72422500  0.46001700  0.75793300  1
  O  O6  1  0.60042200  0.87344900  0.91117700  1
  O  O7  1  0.92840200  0.18744000  0.56168100  1
  O  O8  1  0.25523500  0.51131100  0.52867300  1
  O  O9  1  0.75353200  0.48945900  0.46042100  1
  O  O10  1  0.05983100  0.80045000  0.41859500  1
  O  O11  1  0.39040300  0.13135600  0.09027100  1
  O  O12  1  0.27411000  0.53745400  0.24074700  1
  O  O13  1  0.94644000  0.20606100  0.22252700  1
  O  O14  1  0.61966300  0.88293100  0.55243900  1
  O  O15  1  0.72161900  0.44624000  0.11703500  1
  O  O16  1  0.08920400  0.83124200  0.13641500  1
  O  O17  1  0.60217100  0.85498000  0.21397000  1
loop_
_geom_bond_atom_site_label_1
_geom_bond_atom_site_label_2
_geom_bond_distance
_geom_bond_site_symmetry_2
Fe0 O2 2.061917 1_555
Fe0 O12 2.110513 1_556
Fe0 O1 2.132106 1_455
Fe0 O0 2.202786 1_555
Fe0 O15 2.252729 1_556
Fe0 O11 2.253678 1_556
Fe1 O8 1.981145 1_555
Fe1 O2 1.990383 1_555
Fe1 O7 2.004257 1_455
Fe1 O9 2.103011 1_455
Fe1 O5 2.142004 1_455
Fe1 O3 2.160277 1_555
Fe2 O5 2.086523 1_555
Fe2 O16 2.148118 1_656
Fe2 O15 2.152511 1_556
Fe2 O2 2.177037 1_555
Fe2 O17 2.242606 1_556
Fe2 O6 2.259548 1_555
Fe3 O7 1.981374 1_555
Fe3 O13 2.011444 1_555
Fe3 O17 2.031333 1_545
Fe3 O4 2.102318 1_655
Fe3 O16 2.159649 1_645
Fe3 O10 2.173146 1_645
Fe4 O11 2.067984 1_555
Fe4 O9 2.130463 1_555
Fe4 O4 2.141566 1_555
Fe4 O8 2.162907 1_555
Fe4 O13 2.239316 1_455
Fe4 O12 2.260949 1_555
Fe5 O8 2.049478 1_555
Fe5 O6 2.134784 1_555
Fe5 O14 2.140350 1_555
Fe5 O3 2.210440 1_655
Fe5 O9 2.226530 1_555
Fe5 O5 2.227890 1_555
Fe6 O0 2.089385 1_565
Fe6 O3 2.103590 1_555
Fe6 O10 2.133546 1_555
Fe6 O7 2.201643 1_465
Fe6 O14 2.213618 1_455
Fe6 O1 2.230962 1_465
O0 Ti1 1.886533 1_555
O0 Ti0 2.122782 1_556
O1 Ti0 1.884305 1_556
O1 Ti1 2.097758 1_555
O2 Ti2 2.042485 1_555
O3 Ti2 1.865370 1_555
O4 Ti1 1.919252 1_555
O4 Ti3 2.153169 1_545
O5 Ti1 1.867306 1_555
O6 Ti0 1.880571 1_566
O6 Ti2 2.077334 1_555
O7 Ti1 2.135145 1_555
O8 Ti4 2.060910 1_455
O9 Ti4 1.861430 1_555
O10 Ti4 1.909425 1_455
O10 Ti3 2.123791 1_555
O11 Ti2 1.928979 1_544
O11 Ti0 2.118124 1_555
O12 Ti3 1.861380 1_555
O12 Ti4 2.140426 1_455
O13 Ti0 1.925603 1_555
O13 Ti4 2.204986 1_555
O14 Ti3 1.861752 1_555
O14 Ti1 2.130253 1_565
O15 Ti4 1.887323 1_555
O15 Ti0 2.079354 1_555
O16 Ti2 1.927274 1_554
O16 Ti3 2.144982 1_555
O17 Ti3 1.920869 1_555
O17 Ti2 2.236914 1_554
