# generated using pymatgen
data_Li2CuF4
_symmetry_space_group_name_H-M   'P 1'
_cell_length_a   8.86276791
_cell_length_b   8.86276791
_cell_length_c   8.86276848
_cell_angle_alpha   107.01273949
_cell_angle_beta   107.01273949
_cell_angle_gamma   107.01274327
_symmetry_Int_Tables_number   1
_chemical_formula_structural   Li2CuF4
_chemical_formula_sum   'Li12 Cu6 F24'
_cell_volume   579.56588096
_cell_formula_units_Z   6
loop_
 _symmetry_equiv_pos_site_id
 _symmetry_equiv_pos_as_xyz
  1  'x, y, z'
loop_
 _atom_site_type_symbol
 _atom_site_label
 _atom_site_symmetry_multiplicity
 _atom_site_fract_x
 _atom_site_fract_y
 _atom_site_fract_z
 _atom_site_occupancy
  Li  Li0  1  0.87302500  0.27424800  0.10551500  1
  Li  Li1  1  0.89448500  0.12697500  0.72575200  1
  Li  Li2  1  0.79717100  0.38948500  0.56338100  1
  Li  Li3  1  0.72575200  0.89448500  0.12697500  1
  Li  Li4  1  0.61051500  0.43661900  0.20282900  1
  Li  Li5  1  0.56338100  0.79717100  0.38948500  1
  Li  Li6  1  0.43661900  0.20282900  0.61051500  1
  Li  Li7  1  0.38948500  0.56338100  0.79717100  1
  Li  Li8  1  0.27424800  0.10551500  0.87302500  1
  Li  Li9  1  0.20282900  0.61051500  0.43661900  1
  Li  Li10  1  0.10551500  0.87302500  0.27424800  1
  Li  Li11  1  0.12697500  0.72575200  0.89448500  1
  Cu  Cu0  1  0.93648300  0.77275300  0.53575900  1
  Cu  Cu1  1  0.46424100  0.06351700  0.22724700  1
  Cu  Cu2  1  0.77275300  0.53575900  0.93648300  1
  Cu  Cu3  1  0.22724700  0.46424100  0.06351700  1
  Cu  Cu4  1  0.53575900  0.93648300  0.77275300  1
  Cu  Cu5  1  0.06351700  0.22724700  0.46424100  1
  F  F0  1  0.71085600  0.04133100  0.00770300  1
  F  F1  1  0.91584400  0.24687000  0.58477400  1
  F  F2  1  0.99229700  0.28914400  0.95866900  1
  F  F3  1  0.75313000  0.41522600  0.08415600  1
  F  F4  1  0.95697900  0.62705300  0.66176200  1
  F  F5  1  0.95866900  0.99229700  0.28914400  1
  F  F6  1  0.63301300  0.29965800  0.33254800  1
  F  F7  1  0.70034200  0.66745200  0.36698700  1
  F  F8  1  0.66745200  0.36698700  0.70034200  1
  F  F9  1  0.37294700  0.33823800  0.04302100  1
  F  F10  1  0.58477400  0.91584400  0.24687000  1
  F  F11  1  0.33823800  0.04302100  0.37294700  1
  F  F12  1  0.66176200  0.95697900  0.62705300  1
  F  F13  1  0.41522600  0.08415600  0.75313000  1
  F  F14  1  0.62705300  0.66176200  0.95697900  1
  F  F15  1  0.33254800  0.63301300  0.29965800  1
  F  F16  1  0.29965800  0.33254800  0.63301300  1
  F  F17  1  0.36698700  0.70034200  0.66745200  1
  F  F18  1  0.04133100  0.00770300  0.71085600  1
  F  F19  1  0.04302100  0.37294700  0.33823800  1
  F  F20  1  0.24687000  0.58477400  0.91584400  1
  F  F21  1  0.00770300  0.71085600  0.04133100  1
  F  F22  1  0.08415600  0.75313000  0.41522600  1
  F  F23  1  0.28914400  0.95866900  0.99229700  1
loop_
_geom_bond_atom_site_label_1
_geom_bond_atom_site_label_2
_geom_bond_distance
_geom_bond_site_symmetry_2
Cu0 F7 1.922695 1_555
Cu0 F22 1.930536 1_655
Cu0 F18 1.934082 1_665
Cu0 F4 1.951912 1_555
Cu1 F6 1.922695 1_555
Cu1 F10 1.930536 1_545
Cu1 F23 1.934082 1_544
Cu1 F11 1.951912 1_555
Cu2 F8 1.922695 1_555
Cu2 F3 1.930536 1_556
Cu2 F21 1.934082 1_656
Cu2 F14 1.951912 1_555
Cu3 F15 1.922695 1_555
Cu3 F20 1.930536 1_554
Cu3 F2 1.934082 1_454
Cu3 F9 1.951912 1_555
Cu4 F17 1.922695 1_555
Cu4 F13 1.930536 1_565
Cu4 F0 1.934082 1_566
Cu4 F12 1.951912 1_555
Cu5 F16 1.922695 1_555
Cu5 F1 1.930536 1_455
Cu5 F5 1.934082 1_445
Cu5 F19 1.951912 1_555
F0 Li0 1.888415 1_555
F0 Li3 1.911171 1_545
F1 Li1 1.877154 1_555
F1 Li2 1.881819 1_555
F2 Li1 1.888415 1_555
F2 Li0 1.911171 1_556
F3 Li0 1.877154 1_555
F3 Li4 1.881819 1_555
F4 Li11 1.908902 1_655
F4 Li2 1.912452 1_555
F5 Li3 1.888415 1_555
F5 Li10 1.911171 1_655
F6 Li2 1.887676 1_555
F6 Li4 1.912864 1_555
F7 Li4 1.887676 1_555
F7 Li5 1.912864 1_555
F8 Li6 1.887675 1_555
F8 Li2 1.912864 1_555
F9 Li8 1.908902 1_554
F9 Li4 1.912452 1_555
F10 Li3 1.877154 1_555
F10 Li5 1.881819 1_555
F11 Li10 1.908902 1_545
F11 Li6 1.912452 1_555
F12 Li1 1.908902 1_565
F12 Li5 1.912452 1_555
F13 Li8 1.877154 1_555
F13 Li6 1.881819 1_555
F14 Li3 1.908902 1_556
F14 Li7 1.912452 1_555
F15 Li5 1.887675 1_555
F15 Li9 1.912864 1_555
F16 Li7 1.887676 1_555
F16 Li6 1.912864 1_555
F17 Li9 1.887676 1_555
F17 Li7 1.912864 1_555
F18 Li8 1.888415 1_555
F18 Li1 1.911171 1_455
F19 Li0 1.908902 1_455
F19 Li9 1.912452 1_555
F20 Li11 1.877154 1_555
F20 Li7 1.881819 1_555
F21 Li10 1.888415 1_555
F21 Li11 1.911171 1_554
F22 Li10 1.877154 1_555
F22 Li9 1.881819 1_555
F23 Li11 1.888415 1_555
F23 Li8 1.911171 1_565
