# generated using pymatgen
data_NaAl(H2N)4
_symmetry_space_group_name_H-M   'P 1'
_cell_length_a   6.28335000
_cell_length_b   9.36137200
_cell_length_c   14.67742147
_cell_angle_alpha   84.10461666
_cell_angle_beta   90.00000000
_cell_angle_gamma   90.00000000
_symmetry_Int_Tables_number   1
_chemical_formula_structural   NaAl(H2N)4
_chemical_formula_sum   'Na4 Al4 H32 N16'
_cell_volume   858.77122356
_cell_formula_units_Z   4
loop_
 _symmetry_equiv_pos_site_id
 _symmetry_equiv_pos_as_xyz
  1  'x, y, z'
loop_
 _atom_site_type_symbol
 _atom_site_label
 _atom_site_symmetry_multiplicity
 _atom_site_fract_x
 _atom_site_fract_y
 _atom_site_fract_z
 _atom_site_occupancy
  Na  Na0  1  0.69980600  0.19987900  0.71121200  1
  Na  Na1  1  0.19980600  0.80012100  0.78878800  1
  Na  Na2  1  0.30019400  0.80012100  0.28878800  1
  Na  Na3  1  0.80019400  0.19987900  0.21121200  1
  Al  Al0  1  0.70805100  0.76415500  0.61928500  1
  Al  Al1  1  0.20805100  0.23584500  0.88071500  1
  Al  Al2  1  0.29194900  0.23584500  0.38071500  1
  Al  Al3  1  0.79194900  0.76415500  0.11928500  1
  H  H0  1  0.26480700  0.48913100  0.55846300  1
  H  H1  1  0.76480700  0.51086900  0.94153700  1
  H  H2  1  0.73519300  0.51086900  0.44153700  1
  H  H3  1  0.23519300  0.48913100  0.05846300  1
  H  H4  1  0.32094100  0.43220800  0.53510600  1
  H  H5  1  0.82094100  0.56779200  0.96489400  1
  H  H6  1  0.67905900  0.56779200  0.46489400  1
  H  H7  1  0.17905900  0.43220800  0.03510600  1
  H  H8  1  0.65556400  0.29406600  0.89079900  1
  H  H9  1  0.15556400  0.70593400  0.60920100  1
  H  H10  1  0.34443600  0.70593400  0.10920100  1
  H  H11  1  0.84443600  0.29406600  0.39079900  1
  H  H12  1  0.14583500  0.16567100  0.61668600  1
  H  H13  1  0.64583500  0.83432900  0.88331400  1
  H  H14  1  0.85416500  0.83432900  0.38331400  1
  H  H15  1  0.35416500  0.16567100  0.11668600  1
  H  H16  1  0.24635000  0.98028100  0.58616000  1
  H  H17  1  0.74635000  0.01971900  0.91384000  1
  H  H18  1  0.75365000  0.01971900  0.41384000  1
  H  H19  1  0.25365000  0.98028100  0.08616000  1
  H  H20  1  0.21671200  0.94444200  0.04542800  1
  H  H21  1  0.71671200  0.05555800  0.45457200  1
  H  H22  1  0.78328800  0.05555800  0.95457200  1
  H  H23  1  0.28328800  0.94444200  0.54542800  1
  H  H24  1  0.73731000  0.30865000  0.92630900  1
  H  H25  1  0.23731000  0.69135000  0.57369100  1
  H  H26  1  0.26269000  0.69135000  0.07369100  1
  H  H27  1  0.76269000  0.30865000  0.42630900  1
  H  H28  1  0.62372800  0.75629500  0.89721900  1
  H  H29  1  0.12372800  0.24370500  0.60278100  1
  H  H30  1  0.37627200  0.24370500  0.10278100  1
  H  H31  1  0.87627200  0.75629500  0.39721900  1
  N  N0  1  0.49852700  0.56083400  0.72903700  1
  N  N1  1  0.99852700  0.43916600  0.77096300  1
  N  N2  1  0.50147300  0.43916600  0.27096300  1
  N  N3  1  0.00147300  0.56083400  0.22903700  1
  N  N4  1  0.77014800  0.95192600  0.67768500  1
  N  N5  1  0.27014800  0.04807400  0.82231500  1
  N  N6  1  0.22985200  0.04807400  0.32231500  1
  N  N7  1  0.72985200  0.95192600  0.17768500  1
  N  N8  1  0.57790200  0.93159900  0.68158600  1
  N  N9  1  0.07790200  0.06840100  0.81841400  1
  N  N10  1  0.42209800  0.06840100  0.31841400  1
  N  N11  1  0.92209800  0.93159900  0.18158600  1
  N  N12  1  0.02207000  0.55867100  0.77638800  1
  N  N13  1  0.52207000  0.44132900  0.72361200  1
  N  N14  1  0.97793000  0.44132900  0.22361200  1
  N  N15  1  0.47793000  0.55867100  0.27638800  1
loop_
_geom_bond_atom_site_label_1
_geom_bond_atom_site_label_2
_geom_bond_distance
_geom_bond_site_symmetry_2
Al0 N8 2.063112 1_555
Al0 N4 2.070343 1_555
Al1 N9 2.063112 1_555
Al1 N5 2.070343 1_555
Al2 N10 2.063112 1_555
Al2 N6 2.070343 1_555
Al3 N11 2.063112 1_555
Al3 N7 2.070343 1_555
H0 H4 0.750610 1_555
H1 H5 0.750610 1_555
H2 H6 0.750610 1_555
H3 H7 0.750610 1_555
H10 H26 0.754139 1_555
H11 H27 0.754139 1_555
H12 H29 0.750972 1_555
H13 H28 0.750972 1_555
H14 H31 0.750972 1_555
H15 H30 0.750972 1_555
H16 H23 0.751696 1_555
H17 H22 0.751696 1_555
H18 H21 0.751696 1_555
H19 H20 0.751696 1_555
H24 H8 0.754139 1_555
H25 H9 0.754139 1_555
N0 N13 1.139333 1_555
N1 N12 1.139333 1_655
N4 N8 1.223270 1_555
N4 Na0 2.461711 1_565
N5 N9 1.223270 1_555
N5 Na1 2.461711 1_545
N6 Na2 2.461711 1_545
N7 Na3 2.461711 1_565
N8 Na0 2.703257 1_565
N8 Na1 3.039212 1_555
N9 Na1 2.703257 1_545
N9 Na0 3.039212 1_455
N10 N6 1.223270 1_555
N10 Na2 2.703257 1_545
N10 Na3 3.039212 1_555
N11 N7 1.223270 1_555
N11 Na3 2.703257 1_565
N11 Na2 3.039212 1_655
N12 Na1 2.544365 1_555
N13 Na0 2.544365 1_555
N14 N3 1.139333 1_655
N14 Na3 2.544365 1_555
N15 N2 1.139333 1_555
N15 Na2 2.544365 1_555
