# generated using pymatgen
data_Li4Ti3V2Cr3O16
_symmetry_space_group_name_H-M   'P 1'
_cell_length_a   5.91251415
_cell_length_b   5.91251415
_cell_length_c   9.55519028
_cell_angle_alpha   89.24106670
_cell_angle_beta   89.24106670
_cell_angle_gamma   60.23203016
_symmetry_Int_Tables_number   1
_chemical_formula_structural   Li4Ti3V2Cr3O16
_chemical_formula_sum   'Li4 Ti3 V2 Cr3 O16'
_cell_volume   289.91728946
_cell_formula_units_Z   1
loop_
 _symmetry_equiv_pos_site_id
 _symmetry_equiv_pos_as_xyz
  1  'x, y, z'
loop_
 _atom_site_type_symbol
 _atom_site_label
 _atom_site_symmetry_multiplicity
 _atom_site_fract_x
 _atom_site_fract_y
 _atom_site_fract_z
 _atom_site_occupancy
  Li  Li0  1  0.33373200  0.33373200  0.89130500  1
  Li  Li1  1  0.00385100  0.00385100  0.99315200  1
  Li  Li2  1  0.00212500  0.00212500  0.49791700  1
  Li  Li3  1  0.66572400  0.66572400  0.39794300  1
  Ti  Ti0  1  0.16552200  0.66363600  0.21452800  1
  Ti  Ti1  1  0.66363600  0.16552200  0.21452800  1
  Ti  Ti2  1  0.82677100  0.82677100  0.71910500  1
  V  V0  1  0.32855100  0.32855100  0.49307200  1
  V  V1  1  0.66233900  0.66233900  0.98636400  1
  Cr  Cr0  1  0.17064900  0.17064900  0.21246200  1
  Cr  Cr1  1  0.34062700  0.82378300  0.71313100  1
  Cr  Cr2  1  0.82378300  0.34062700  0.71313100  1
  O  O0  1  0.16589900  0.66552300  0.59622800  1
  O  O1  1  0.47776400  0.47776400  0.34035200  1
  O  O2  1  0.34075300  0.34075300  0.10352400  1
  O  O3  1  0.99868100  0.99868100  0.31168000  1
  O  O4  1  0.99638600  0.99638600  0.80699400  1
  O  O5  1  0.66552300  0.16589900  0.59622800  1
  O  O6  1  0.04162600  0.48313800  0.34085700  1
  O  O7  1  0.48313800  0.04162600  0.34085700  1
  O  O8  1  0.83786500  0.83786500  0.10738600  1
  O  O9  1  0.17356700  0.17356700  0.59379800  1
  O  O10  1  0.52282400  0.96045600  0.84015600  1
  O  O11  1  0.96045600  0.52282400  0.84015600  1
  O  O12  1  0.67256000  0.67256000  0.60353400  1
  O  O13  1  0.32628500  0.83183800  0.10115600  1
  O  O14  1  0.51640900  0.51640900  0.83701100  1
  O  O15  1  0.83183800  0.32628500  0.10115600  1
loop_
_geom_bond_atom_site_label_1
_geom_bond_atom_site_label_2
_geom_bond_distance
_geom_bond_site_symmetry_2
Li0 O14 1.931575 1_555
Li0 O10 1.980818 1_545
Li0 O11 1.980818 1_455
Li0 O2 2.030163 1_556
Li1 O4 1.781581 1_445
Li1 O13 1.957750 1_546
Li1 O15 1.957750 1_456
Li1 O8 2.004325 1_446
Li2 O3 1.780418 1_445
Li2 O0 1.960056 1_545
Li2 O5 1.960056 1_455
Li2 O9 1.990934 1_555
Li3 O12 1.966775 1_555
Li3 O6 2.000897 1_655
Li3 O7 2.000897 1_565
Li3 O1 2.007890 1_555
Cr0 O3 1.985418 1_445
Cr0 O2 2.013828 1_555
Cr0 O6 2.033813 1_555
Cr0 O7 2.033813 1_555
Cr0 O15 2.047171 1_455
Cr0 O13 2.047171 1_545
Cr1 O14 1.970825 1_555
Cr1 O4 1.975298 1_455
Cr1 O12 1.993910 1_555
Cr1 O0 2.051516 1_555
Cr1 O10 2.052227 1_555
Cr1 O9 2.119389 1_565
Cr2 O14 1.970825 1_555
Cr2 O4 1.975298 1_545
Cr2 O12 1.993910 1_555
Cr2 O5 2.051516 1_555
Cr2 O11 2.052227 1_555
Cr2 O9 2.119389 1_655
O0 V0 1.997551 1_555
O0 Ti2 2.092125 1_455
O1 Ti0 2.017574 1_555
O1 Ti1 2.017574 1_555
O1 V0 2.095411 1_555
O2 Ti0 1.975710 1_555
O2 Ti1 1.975710 1_555
O3 Ti0 1.960381 1_655
O3 Ti1 1.960381 1_565
O4 Ti2 1.939058 1_555
O5 V0 1.997551 1_555
O5 Ti2 2.092125 1_545
O6 Ti0 1.962479 1_555
O6 V0 2.078273 1_555
O7 Ti1 1.962479 1_555
O7 V0 2.078273 1_555
O8 Ti0 1.976175 1_655
O8 Ti1 1.976175 1_565
O8 V1 2.150428 1_554
O9 V0 1.841945 1_555
O10 Ti2 1.936711 1_555
O10 V1 2.064110 1_555
O11 Ti2 1.936711 1_555
O11 V1 2.064110 1_555
O12 Ti2 1.939328 1_555
O13 Ti0 1.987171 1_555
O13 V1 2.037019 1_554
O14 V1 2.080854 1_555
O15 Ti1 1.987171 1_555
O15 V1 2.037019 1_554
