# generated using pymatgen
data_LiFe2(BO3)2
_symmetry_space_group_name_H-M   'P 1'
_cell_length_a   5.27131700
_cell_length_b   9.12548193
_cell_length_c   10.18063909
_cell_angle_alpha   89.56725804
_cell_angle_beta   89.22029574
_cell_angle_gamma   89.72655085
_symmetry_Int_Tables_number   1
_chemical_formula_structural   LiFe2(BO3)2
_chemical_formula_sum   'Li4 Fe8 B8 O24'
_cell_volume   489.65776614
_cell_formula_units_Z   4
loop_
 _symmetry_equiv_pos_site_id
 _symmetry_equiv_pos_as_xyz
  1  'x, y, z'
loop_
 _atom_site_type_symbol
 _atom_site_label
 _atom_site_symmetry_multiplicity
 _atom_site_fract_x
 _atom_site_fract_y
 _atom_site_fract_z
 _atom_site_occupancy
  Li  Li0  1  0.65925300  0.98897900  0.84434800  1
  Li  Li1  1  0.34262500  0.00610100  0.12779100  1
  Li  Li2  1  0.14822400  0.51343500  0.33434900  1
  Li  Li3  1  0.15469700  0.48959900  0.83209600  1
  Fe  Fe0  1  0.83861100  0.82702500  0.12283700  1
  Fe  Fe1  1  0.15935500  0.84797000  0.37317200  1
  Fe  Fe2  1  0.66350800  0.65458300  0.87052300  1
  Fe  Fe3  1  0.35022000  0.67202800  0.61794000  1
  Fe  Fe4  1  0.65887900  0.32455300  0.36715000  1
  Fe  Fe5  1  0.84500400  0.17092800  0.62374500  1
  Fe  Fe6  1  0.34493300  0.34282200  0.11629100  1
  Fe  Fe7  1  0.16002900  0.15759900  0.87266900  1
  B  B0  1  0.84654200  0.83452500  0.62625700  1
  B  B1  1  0.66171200  0.65562200  0.36749800  1
  B  B2  1  0.16744100  0.82973800  0.87379700  1
  B  B3  1  0.33751200  0.67716000  0.12477300  1
  B  B4  1  0.65918600  0.33204800  0.86735200  1
  B  B5  1  0.33917400  0.33260800  0.62328900  1
  B  B6  1  0.84386900  0.15616600  0.12490200  1
  B  B7  1  0.16803300  0.17758400  0.36713400  1
  O  O0  1  0.75566700  0.97183000  0.65047000  1
  O  O1  1  0.91320800  0.82694300  0.91572600  1
  O  O2  1  0.30706200  0.95540400  0.88453100  1
  O  O3  1  0.79089900  0.77780800  0.31866300  1
  O  O4  1  0.69762700  0.71392100  0.65912800  1
  O  O5  1  0.20454400  0.80755200  0.15442800  1
  O  O6  1  0.08817200  0.81329900  0.57466700  1
  O  O7  1  0.58041700  0.69120600  0.07271500  1
  O  O8  1  0.78126100  0.52153300  0.36748200  1
  O  O9  1  0.41086600  0.66855700  0.41577700  1
  O  O10  1  0.27504700  0.70004900  0.82293500  1
  O  O11  1  0.80505700  0.45442200  0.86827200  1
  O  O12  1  0.23007700  0.54536000  0.14806400  1
  O  O13  1  0.71004200  0.27542300  0.17599600  1
  O  O14  1  0.57595000  0.30459300  0.56662400  1
  O  O15  1  0.25503800  0.47253000  0.64196300  1
  O  O16  1  0.40398600  0.33540000  0.90658800  1
  O  O17  1  0.92626200  0.18866400  0.42649300  1
  O  O18  1  0.76618500  0.19749400  0.82525100  1
  O  O19  1  0.29006200  0.31149100  0.33789400  1
  O  O20  1  0.19158500  0.21570400  0.66624600  1
  O  O21  1  0.71513100  0.02474600  0.11307100  1
  O  O22  1  0.09424600  0.16834900  0.08342900  1
  O  O23  1  0.27349600  0.04786500  0.33680400  1
loop_
_geom_bond_atom_site_label_1
_geom_bond_atom_site_label_2
_geom_bond_distance
_geom_bond_site_symmetry_2
Li0 O2 1.921126 1_555
Li0 O18 1.994452 1_565
Li0 O0 2.038452 1_555
Li0 O1 2.120822 1_555
Li1 O5 1.971280 1_545
Li1 O21 1.975327 1_555
Li1 O22 2.024312 1_555
Li1 O23 2.189922 1_555
Li1 O2 2.532431 1_544
Li2 O12 1.959168 1_555
Li2 O8 1.960183 1_455
Li2 O19 1.985684 1_555
Li2 O9 2.162282 1_555
Li3 O11 1.902881 1_455
Li3 O15 2.006682 1_555
Li3 O10 2.026484 1_555
Li3 O16 2.067690 1_555
Fe0 O21 1.917524 1_565
Fe0 O7 1.921839 1_555
Fe0 O5 1.966878 1_655
Fe0 O3 2.052670 1_555
Fe0 O1 2.139614 1_554
Fe1 O23 1.954683 1_565
Fe1 O6 2.102215 1_555
Fe1 O3 2.129974 1_455
Fe1 O9 2.147229 1_555
Fe1 O5 2.269192 1_555
Fe2 O11 1.969966 1_555
Fe2 O1 2.113145 1_555
Fe2 O7 2.127247 1_556
Fe2 O10 2.148440 1_555
Fe2 O4 2.220369 1_555
Fe3 O15 1.903807 1_555
Fe3 O4 1.924997 1_555
Fe3 O6 1.937811 1_555
Fe3 O9 2.078980 1_555
Fe3 O10 2.135996 1_555
Fe4 O8 1.912732 1_555
Fe4 O17 1.970909 1_555
Fe4 O19 1.975133 1_555
Fe4 O13 2.014614 1_555
Fe4 O14 2.078298 1_555
Fe5 O0 1.895787 1_545
Fe5 O20 1.929556 1_655
Fe5 O14 1.957726 1_555
Fe5 O17 2.052969 1_555
Fe5 O18 2.103149 1_555
Fe6 O12 1.969839 1_555
Fe6 O22 2.105531 1_555
Fe6 O13 2.113468 1_555
Fe6 O16 2.154815 1_554
Fe6 O19 2.286591 1_555
Fe7 O2 2.001330 1_545
Fe7 O16 2.108557 1_555
Fe7 O18 2.166353 1_455
Fe7 O20 2.167878 1_555
Fe7 O22 2.171723 1_556
B0 O0 1.362315 1_555
B0 O6 1.384443 1_655
B0 O4 1.391031 1_555
B1 O8 1.373692 1_555
B1 O3 1.394209 1_555
B1 O9 1.409135 1_555
B2 O2 1.371430 1_555
B2 O1 1.401228 1_455
B2 O10 1.409020 1_555
B3 O12 1.349839 1_555
B3 O7 1.385237 1_555
B3 O5 1.410665 1_555
B4 O11 1.359030 1_555
B4 O16 1.398332 1_555
B4 O18 1.415719 1_555
B5 O15 1.363514 1_555
B5 O20 1.387880 1_555
B5 O14 1.391239 1_555
B6 O22 1.384945 1_655
B6 O21 1.387608 1_555
B6 O13 1.394207 1_555
B7 O23 1.341726 1_555
B7 O17 1.406548 1_455
B7 O19 1.411519 1_555
