# generated using pymatgen
data_Mn4CrO8
_symmetry_space_group_name_H-M   'P 1'
_cell_length_a   5.99791011
_cell_length_b   5.99791011
_cell_length_c   6.16614249
_cell_angle_alpha   61.11779486
_cell_angle_beta   61.11779486
_cell_angle_gamma   58.21049787
_symmetry_Int_Tables_number   1
_chemical_formula_structural   Mn4CrO8
_chemical_formula_sum   'Mn4 Cr1 O8'
_cell_volume   157.11949707
_cell_formula_units_Z   1
loop_
 _symmetry_equiv_pos_site_id
 _symmetry_equiv_pos_as_xyz
  1  'x, y, z'
loop_
 _atom_site_type_symbol
 _atom_site_label
 _atom_site_symmetry_multiplicity
 _atom_site_fract_x
 _atom_site_fract_y
 _atom_site_fract_z
 _atom_site_occupancy
  Mn  Mn0  1  0.50000000  0.50000000  0.50000000  1
  Mn  Mn1  1  0.00000000  0.00000000  0.00000000  1
  Mn  Mn2  1  0.00000000  0.50000000  0.00000000  1
  Mn  Mn3  1  0.50000000  0.00000000  0.00000000  1
  Cr  Cr0  1  0.50000000  0.50000000  0.00000000  1
  O  O0  1  0.73241100  0.73241100  0.80919500  1
  O  O1  1  0.72184900  0.22324400  0.80509400  1
  O  O2  1  0.22324400  0.72184900  0.80509400  1
  O  O3  1  0.25683800  0.25683800  0.78599800  1
  O  O4  1  0.74316200  0.74316200  0.21400200  1
  O  O5  1  0.77675600  0.27815100  0.19490600  1
  O  O6  1  0.27815100  0.77675600  0.19490600  1
  O  O7  1  0.26758900  0.26758900  0.19080500  1
loop_
_geom_bond_atom_site_label_1
_geom_bond_atom_site_label_2
_geom_bond_distance
_geom_bond_site_symmetry_2
Mn0 O4 2.153157 1_555
Mn0 O3 2.153157 1_555
Mn0 O2 2.267040 1_555
Mn0 O5 2.267040 1_555
Mn0 O1 2.267040 1_555
Mn0 O6 2.267040 1_555
Mn1 O5 2.012290 1_455
Mn1 O2 2.012290 1_544
Mn1 O1 2.012290 1_454
Mn1 O6 2.012290 1_545
Mn1 O4 2.249528 1_445
Mn1 O3 2.249528 1_554
Mn2 O4 1.941584 1_455
Mn2 O3 1.941584 1_554
Mn2 O2 1.945682 1_554
Mn2 O5 1.945682 1_455
Mn2 O0 1.945748 1_454
Mn2 O7 1.945748 1_555
Mn3 O4 1.941584 1_545
Mn3 O3 1.941584 1_554
Mn3 O1 1.945682 1_554
Mn3 O6 1.945682 1_545
Mn3 O0 1.945748 1_544
Mn3 O7 1.945748 1_555
Cr0 O5 2.006381 1_555
Cr0 O2 2.006381 1_554
Cr0 O6 2.006381 1_555
Cr0 O1 2.006381 1_554
Cr0 O7 2.036972 1_555
Cr0 O0 2.036972 1_554
