# generated using pymatgen
data_Li2MnFe(BO3)2
_symmetry_space_group_name_H-M   'P 1'
_cell_length_a   5.25606251
_cell_length_b   5.23406298
_cell_length_c   20.80806718
_cell_angle_alpha   89.31154527
_cell_angle_beta   91.06690394
_cell_angle_gamma   60.03799658
_symmetry_Int_Tables_number   1
_chemical_formula_structural   Li2MnFe(BO3)2
_chemical_formula_sum   'Li8 Mn4 Fe4 B8 O24'
_cell_volume   495.70257167
_cell_formula_units_Z   4
loop_
 _symmetry_equiv_pos_site_id
 _symmetry_equiv_pos_as_xyz
  1  'x, y, z'
loop_
 _atom_site_type_symbol
 _atom_site_label
 _atom_site_symmetry_multiplicity
 _atom_site_fract_x
 _atom_site_fract_y
 _atom_site_fract_z
 _atom_site_occupancy
  Li  Li0  1  0.32594200  0.65339200  0.66621000  1
  Li  Li1  1  0.34573500  0.67661000  0.91688000  1
  Li  Li2  1  0.32318200  0.65290600  0.16606800  1
  Li  Li3  1  0.34839400  0.67738300  0.41650300  1
  Li  Li4  1  0.65114600  0.33216600  0.79275800  1
  Li  Li5  1  0.66318000  0.34908100  0.54174800  1
  Li  Li6  1  0.65133200  0.33408700  0.29141900  1
  Li  Li7  1  0.66060000  0.35129400  0.04134700  1
  Mn  Mn0  1  0.32656400  0.00792900  0.55938700  1
  Mn  Mn1  1  0.67576400  0.99968000  0.93193000  1
  Mn  Mn2  1  0.67758000  0.00076700  0.43252700  1
  Mn  Mn3  1  0.99859200  0.32568300  0.18374800  1
  Fe  Fe0  1  0.33687600  0.01157300  0.05868000  1
  Fe  Fe1  1  0.99273400  0.32311300  0.68478800  1
  Fe  Fe2  1  0.00201000  0.66896800  0.80737600  1
  Fe  Fe3  1  0.00439600  0.66809400  0.30747600  1
  B  B0  1  0.00357100  0.33785200  0.93673000  1
  B  B1  1  0.00447800  0.34060300  0.43635300  1
  B  B2  1  0.32831900  0.00316200  0.81104700  1
  B  B3  1  0.33019300  0.00671000  0.31167600  1
  B  B4  1  0.66344600  0.99855800  0.68807800  1
  B  B5  1  0.66022600  0.99684000  0.18733200  1
  B  B6  1  0.99353700  0.66845000  0.56320900  1
  B  B7  1  0.99589800  0.66562100  0.06191100  1
  O  O0  1  0.06363000  0.25287300  0.79242500  1
  O  O1  1  0.06487900  0.25362800  0.29216600  1
  O  O2  1  0.25414600  0.06603700  0.95190900  1
  O  O3  1  0.03309200  0.57643000  0.91627900  1
  O  O4  1  0.25475500  0.06873900  0.45201700  1
  O  O5  1  0.03563700  0.57770000  0.41566100  1
  O  O6  1  0.57875500  0.02358600  0.82512500  1
  O  O7  1  0.26817700  0.64311500  0.57004600  1
  O  O8  1  0.57919700  0.02911800  0.32593300  1
  O  O9  1  0.26515800  0.65217200  0.06866900  1
  O  O10  1  0.34681300  0.73002200  0.81800500  1
  O  O11  1  0.34732300  0.73373200  0.31809200  1
  O  O12  1  0.64024100  0.27380800  0.69446300  1
  O  O13  1  0.63105400  0.27319200  0.19376100  1
  O  O14  1  0.72783600  0.36756900  0.94355900  1
  O  O15  1  0.41779300  0.97916300  0.66929700  1
  O  O16  1  0.72911600  0.37060100  0.44355400  1
  O  O17  1  0.42348800  0.96491400  0.16690700  1
  O  O18  1  0.96061700  0.42541600  0.57904200  1
  O  O19  1  0.96901700  0.41664300  0.07621400  1
  O  O20  1  0.75071800  0.93249100  0.54145200  1
  O  O21  1  0.74675400  0.92916900  0.04204700  1
  O  O22  1  0.93403900  0.74387100  0.70171100  1
  O  O23  1  0.93287100  0.74669100  0.20268900  1
loop_
_geom_bond_atom_site_label_1
_geom_bond_atom_site_label_2
_geom_bond_distance
_geom_bond_site_symmetry_2
Li0 O12 1.918157 1_555
Li0 O15 1.992058 1_555
Li0 O7 2.023685 1_555
Li0 O22 2.025761 1_455
Li1 O14 1.910530 1_555
Li1 O3 1.958440 1_555
Li1 O2 1.996571 1_565
Li1 O10 2.073467 1_555
Li2 O13 1.904185 1_555
Li2 O17 1.950771 1_555
Li2 O23 2.022770 1_455
Li2 O9 2.044216 1_555
Li3 O16 1.904306 1_555
Li3 O5 1.957213 1_555
Li3 O4 2.006766 1_565
Li3 O11 2.064865 1_555
Li4 O6 1.950447 1_555
Li4 O10 1.975221 1_555
Li4 O0 1.993632 1_655
Li4 O12 2.075594 1_555
Li5 O18 1.947323 1_555
Li5 O7 1.975205 1_555
Li5 O20 1.991099 1_545
Li5 O16 2.089833 1_555
Li6 O8 1.947963 1_555
Li6 O11 1.989757 1_555
Li6 O1 1.996626 1_655
Li6 O13 2.069711 1_555
Li7 O19 1.946071 1_555
Li7 O9 1.979738 1_555
Li7 O21 2.021504 1_545
Li7 O14 2.079701 1_554
Mn0 O7 2.089755 1_545
Mn0 O20 2.102518 1_545
Mn0 O18 2.119993 1_455
Mn0 O4 2.250946 1_555
Mn0 O15 2.315557 1_545
Mn1 O14 2.091975 1_565
Mn1 O3 2.103643 1_655
Mn1 O2 2.115024 1_565
Mn1 O6 2.258787 1_565
Mn1 O21 2.309952 1_556
Mn2 O16 2.098855 1_555
Mn2 O5 2.109281 1_645
Mn2 O4 2.115977 1_555
Mn2 O8 2.254272 1_555
Mn2 O20 2.285489 1_545
Mn3 O13 2.096307 1_555
Mn3 O23 2.096678 1_555
Mn3 O17 2.123390 1_645
Mn3 O19 2.268279 1_555
Mn3 O1 2.274215 1_655
Fe0 O21 2.012523 1_545
Fe0 O19 2.077701 1_455
Fe0 O9 2.103745 1_545
Fe0 O2 2.243051 1_554
Fe0 O17 2.275065 1_545
Fe1 O12 2.007470 1_555
Fe1 O15 2.087955 1_645
Fe1 O22 2.100770 1_555
Fe1 O18 2.241519 1_555
Fe1 O0 2.258904 1_655
Fe2 O10 2.000184 1_555
Fe2 O0 2.064042 1_555
Fe2 O6 2.110265 1_465
Fe2 O22 2.219387 1_455
Fe2 O3 2.297198 1_555
Fe3 O11 2.005282 1_555
Fe3 O1 2.059156 1_555
Fe3 O8 2.131670 1_465
Fe3 O23 2.204136 1_455
Fe3 O5 2.280657 1_555
B0 O14 1.388465 1_455
B0 O3 1.395608 1_555
B0 O2 1.400190 1_555
B1 O16 1.386902 1_455
B1 O5 1.394643 1_555
B1 O4 1.401671 1_555
B2 O10 1.389227 1_545
B2 O0 1.394781 1_555
B2 O6 1.398874 1_555
B3 O11 1.390621 1_545
B3 O1 1.394939 1_555
B3 O8 1.397988 1_555
B4 O12 1.392036 1_565
B4 O15 1.393996 1_555
B4 O22 1.400867 1_555
B5 O13 1.384735 1_565
B5 O17 1.395192 1_555
B5 O23 1.403120 1_555
B6 O7 1.386466 1_655
B6 O20 1.394786 1_555
B6 O18 1.403035 1_555
B7 O9 1.385820 1_655
B7 O21 1.396542 1_555
B7 O19 1.408168 1_555
