# generated using pymatgen
data_Li3V2(O2F)2
_symmetry_space_group_name_H-M   'P 1'
_cell_length_a   5.93486300
_cell_length_b   7.37887351
_cell_length_c   7.89195896
_cell_angle_alpha   90.89758076
_cell_angle_beta   100.37796259
_cell_angle_gamma   90.37673727
_symmetry_Int_Tables_number   1
_chemical_formula_structural   Li3V2(O2F)2
_chemical_formula_sum   'Li9 V6 O12 F6'
_cell_volume   339.89831494
_cell_formula_units_Z   3
loop_
 _symmetry_equiv_pos_site_id
 _symmetry_equiv_pos_as_xyz
  1  'x, y, z'
loop_
 _atom_site_type_symbol
 _atom_site_label
 _atom_site_symmetry_multiplicity
 _atom_site_fract_x
 _atom_site_fract_y
 _atom_site_fract_z
 _atom_site_occupancy
  Li  Li0  1  0.08552100  0.64165400  0.42682100  1
  Li  Li1  1  0.04858200  0.35817800  0.19872800  1
  Li  Li2  1  0.44836500  0.63138100  0.79065600  1
  Li  Li3  1  0.27685000  0.62910900  0.10293900  1
  Li  Li4  1  0.38913400  0.37411300  0.55250700  1
  Li  Li5  1  0.57326200  0.40037900  0.22428400  1
  Li  Li6  1  0.72257400  0.36614900  0.90784700  1
  Li  Li7  1  0.95040000  0.62996900  0.78785000  1
  Li  Li8  1  0.88973700  0.35623100  0.56349700  1
  V  V0  1  0.99133600  0.00004900  0.99733100  1
  V  V1  1  0.16644100  0.00533700  0.67213900  1
  V  V2  1  0.49345300  0.00547100  0.99754900  1
  V  V3  1  0.34210600  0.00261000  0.33715400  1
  V  V4  1  0.66512800  0.99058900  0.66140400  1
  V  V5  1  0.83474700  0.98985000  0.32832000  1
  O  O0  1  0.11902000  0.13934600  0.46226000  1
  O  O1  1  0.21025500  0.85254500  0.87262500  1
  O  O2  1  0.04859800  0.85597600  0.23437000  1
  O  O3  1  0.26864100  0.13741200  0.11710300  1
  O  O4  1  0.44867900  0.14186900  0.77243100  1
  O  O5  1  0.39324200  0.86043600  0.56321500  1
  O  O6  1  0.63733600  0.14242300  0.44787700  1
  O  O7  1  0.71391300  0.85706800  0.87641300  1
  O  O8  1  0.55491900  0.86406600  0.21837100  1
  O  O9  1  0.92809100  0.14155500  0.76704600  1
  O  O10  1  0.78177800  0.14662000  0.11694800  1
  O  O11  1  0.89277300  0.85685900  0.55358600  1
  F  F0  1  0.00135600  0.50164500  0.99790400  1
  F  F1  1  0.16619800  0.51885400  0.64937100  1
  F  F2  1  0.31809800  0.48985200  0.32265600  1
  F  F3  1  0.49994600  0.50352300  0.00328900  1
  F  F4  1  0.67011700  0.48420100  0.68594800  1
  F  F5  1  0.85829200  0.46539300  0.34511800  1
loop_
_geom_bond_atom_site_label_1
_geom_bond_atom_site_label_2
_geom_bond_distance
_geom_bond_site_symmetry_2
Li0 O2 2.194475 1_555
Li0 O11 2.284187 1_455
Li0 O5 2.509717 1_555
Li1 O10 2.220020 1_455
Li1 O3 2.252226 1_555
Li2 O7 2.293679 1_555
Li2 O1 2.324932 1_555
Li2 O5 2.465018 1_555
Li3 O8 2.435243 1_555
Li3 O1 2.453946 1_554
Li3 O2 2.488966 1_555
Li4 O0 2.364646 1_555
Li4 O4 2.440130 1_555
Li4 O6 2.490299 1_555
Li5 O10 2.472560 1_555
Li5 O6 2.598921 1_555
Li6 O10 2.313657 1_556
Li6 O4 2.409688 1_555
Li6 O9 2.434365 1_555
Li7 O1 2.254747 1_655
Li7 O7 2.369413 1_555
Li7 O11 2.492921 1_555
Li8 O6 2.235372 1_555
Li8 O9 2.257062 1_555
Li8 O0 2.330549 1_655
O0 V1 1.920298 1_555
O0 V3 2.050140 1_555
O0 V5 2.115908 1_445
O1 V1 1.937441 1_565
O1 V0 2.070515 1_465
O1 V2 2.100814 1_565
O2 V5 1.862514 1_455
O2 V3 2.074045 1_565
O2 V0 2.140842 1_464
O3 V3 1.995601 1_555
O3 V0 2.004233 1_454
O3 V2 2.014965 1_554
O4 V1 1.980497 1_555
O4 V4 2.014389 1_545
O4 V2 2.032097 1_555
O5 V4 1.905872 1_555
O5 V1 2.025084 1_565
O5 V3 2.059932 1_565
O6 V5 1.978063 1_545
O6 V4 2.020787 1_545
O6 V3 2.072267 1_555
O7 V4 1.952669 1_555
O7 V0 2.028338 1_565
O7 V2 2.064381 1_565
O8 V5 1.951346 1_555
O8 V3 1.983080 1_565
O8 V2 2.022814 1_564
O9 V4 1.962367 1_545
O9 V1 1.987249 1_655
O9 V0 2.086367 1_555
O10 V0 2.004082 1_554
O10 V5 2.023851 1_545
O10 V2 2.065350 1_554
O11 V4 1.982037 1_555
O11 V5 2.020063 1_555
O11 V1 2.027481 1_665
F0 Li1 1.899358 1_556
F0 Li7 1.899597 1_455
F0 Li3 1.926678 1_556
F0 Li6 1.942820 1_455
F1 Li4 1.957816 1_555
F1 Li0 1.971723 1_555
F1 Li7 1.999223 1_455
F1 Li2 2.004254 1_555
F1 Li8 2.034535 1_455
F2 Li5 1.937151 1_555
F2 Li1 1.960934 1_555
F2 Li4 1.993826 1_555
F2 Li3 2.007175 1_555
F2 Li0 2.058164 1_555
F3 Li5 1.892865 1_555
F3 Li3 1.897042 1_555
F3 Li2 1.915233 1_554
F3 Li6 1.921681 1_554
F4 Li6 1.943559 1_555
F4 Li4 1.967857 1_555
F4 Li8 1.991440 1_555
F4 Li2 1.994200 1_555
F4 Li7 2.009505 1_555
F5 Li5 1.842523 1_555
F5 Li0 1.887688 1_655
F5 Li8 1.893007 1_555
F5 Li1 1.920733 1_655
