# generated using pymatgen
data_H2RuC3(ClO2)2
_symmetry_space_group_name_H-M   'P 1'
_cell_length_a   10.43042200
_cell_length_b   6.32901300
_cell_length_c   12.81711760
_cell_angle_alpha   68.43881211
_cell_angle_beta   90.00000000
_cell_angle_gamma   90.00000000
_symmetry_Int_Tables_number   1
_chemical_formula_structural   H2RuC3(ClO2)2
_chemical_formula_sum   'H8 Ru4 C12 Cl8 O16'
_cell_volume   786.90654663
_cell_formula_units_Z   4
loop_
 _symmetry_equiv_pos_site_id
 _symmetry_equiv_pos_as_xyz
  1  'x, y, z'
loop_
 _atom_site_type_symbol
 _atom_site_label
 _atom_site_symmetry_multiplicity
 _atom_site_fract_x
 _atom_site_fract_y
 _atom_site_fract_z
 _atom_site_occupancy
  H  H0  1  0.50731500  0.74015600  0.02431300  1
  H  H1  1  0.92256600  0.26163300  0.57500200  1
  H  H2  1  0.00731500  0.25984400  0.47568700  1
  H  H3  1  0.42256600  0.73836700  0.92499800  1
  H  H4  1  0.57743400  0.26163300  0.07500200  1
  H  H5  1  0.99268500  0.74015600  0.52431300  1
  H  H6  1  0.07743400  0.73836700  0.42499800  1
  H  H7  1  0.49268500  0.25984400  0.97568700  1
  Ru  Ru0  1  0.77947600  0.46594300  0.38666900  1
  Ru  Ru1  1  0.27947600  0.53405700  0.11333100  1
  Ru  Ru2  1  0.72052400  0.46594300  0.88666900  1
  Ru  Ru3  1  0.22052400  0.53405700  0.61333100  1
  C  C0  1  0.66626700  0.67554200  0.28722700  1
  C  C1  1  0.28538400  0.71244500  0.20481500  1
  C  C2  1  0.14009000  0.70435000  0.02494600  1
  C  C3  1  0.64009000  0.29565000  0.47505400  1
  C  C4  1  0.78538400  0.28755500  0.29518500  1
  C  C5  1  0.16626700  0.32445800  0.21277300  1
  C  C6  1  0.83373300  0.67554200  0.78722700  1
  C  C7  1  0.21461600  0.71244500  0.70481500  1
  C  C8  1  0.35991000  0.70435000  0.52494600  1
  C  C9  1  0.85991000  0.29565000  0.97505400  1
  C  C10  1  0.71461600  0.28755500  0.79518500  1
  C  C11  1  0.33373300  0.32445800  0.71277300  1
  Cl  Cl0  1  0.96207200  0.68096400  0.28264000  1
  Cl  Cl1  1  0.71989500  0.69327700  0.00460400  1
  Cl  Cl2  1  0.21989500  0.30672300  0.49539600  1
  Cl  Cl3  1  0.46207200  0.31903600  0.21736000  1
  Cl  Cl4  1  0.53792800  0.68096400  0.78264000  1
  Cl  Cl5  1  0.78010500  0.69327700  0.50460400  1
  Cl  Cl6  1  0.28010500  0.30672300  0.99539600  1
  Cl  Cl7  1  0.03792800  0.31903600  0.71736000  1
  O  O0  1  0.40159000  0.19030000  0.77216500  1
  O  O1  1  0.71148700  0.18263800  0.73833800  1
  O  O2  1  0.91722200  0.23892400  0.50268900  1
  O  O3  1  0.55499900  0.19762900  0.52823200  1
  O  O4  1  0.05499900  0.80237100  0.97176800  1
  O  O5  1  0.41722200  0.76107600  0.99731100  1
  O  O6  1  0.09841000  0.19030000  0.27216500  1
  O  O7  1  0.21148700  0.81736200  0.76166200  1
  O  O8  1  0.78851300  0.18263800  0.23833800  1
  O  O9  1  0.90159000  0.80970000  0.72783500  1
  O  O10  1  0.58277800  0.23892400  0.00268900  1
  O  O11  1  0.94500100  0.19762900  0.02823200  1
  O  O12  1  0.44500100  0.80237100  0.47176800  1
  O  O13  1  0.08277800  0.76107600  0.49731100  1
  O  O14  1  0.28851300  0.81736200  0.26166200  1
  O  O15  1  0.59841000  0.80970000  0.22783500  1
loop_
_geom_bond_atom_site_label_1
_geom_bond_atom_site_label_2
_geom_bond_distance
_geom_bond_site_symmetry_2
H0 O5 0.993317 1_554
H1 O2 0.990310 1_555
H2 O2 0.993317 1_455
H3 O5 0.990310 1_555
H4 O10 0.990310 1_555
H5 O13 0.993317 1_655
H6 O13 0.990310 1_555
H7 O10 0.993317 1_556
C0 O15 1.151656 1_555
C0 Ru0 1.880394 1_555
C1 O14 1.152592 1_555
C1 Ru1 1.904310 1_555
C2 O4 1.151679 1_554
C2 Ru1 1.913440 1_555
C3 O3 1.151679 1_555
C3 Ru0 1.913440 1_555
C4 O8 1.152592 1_555
C4 Ru0 1.904310 1_555
C5 O6 1.151656 1_555
C5 Ru1 1.880394 1_555
C6 O9 1.151656 1_555
C6 Ru2 1.880394 1_555
C7 O7 1.152592 1_555
C7 Ru3 1.904310 1_555
C8 O12 1.151679 1_555
C8 Ru3 1.913440 1_555
C9 O11 1.151679 1_556
C9 Ru2 1.913440 1_555
C10 O1 1.152592 1_555
C10 Ru2 1.904310 1_555
C11 O0 1.151656 1_555
C11 Ru3 1.880394 1_555
Cl0 Ru0 2.433817 1_555
Cl1 Ru2 2.439998 1_554
Cl2 Ru3 2.439998 1_555
Cl3 Ru1 2.433817 1_555
Cl4 Ru2 2.433817 1_555
Cl5 Ru0 2.439998 1_555
Cl6 Ru1 2.439998 1_556
Cl7 Ru3 2.433817 1_555
O2 Ru0 2.183937 1_555
O5 Ru1 2.183937 1_556
O10 Ru2 2.183937 1_554
O13 Ru3 2.183937 1_555
