# generated using pymatgen
data_Eu(Ni5P3)2
_symmetry_space_group_name_H-M   'P 1'
_cell_length_a   6.46993500
_cell_length_b   8.74014800
_cell_length_c   15.94946900
_cell_angle_alpha   90.00000000
_cell_angle_beta   90.00000000
_cell_angle_gamma   90.00000000
_symmetry_Int_Tables_number   1
_chemical_formula_structural   Eu(Ni5P3)2
_chemical_formula_sum   'Eu4 Ni40 P24'
_cell_volume   901.91359464
_cell_formula_units_Z   4
loop_
 _symmetry_equiv_pos_site_id
 _symmetry_equiv_pos_as_xyz
  1  'x, y, z'
loop_
 _atom_site_type_symbol
 _atom_site_label
 _atom_site_symmetry_multiplicity
 _atom_site_fract_x
 _atom_site_fract_y
 _atom_site_fract_z
 _atom_site_occupancy
  Eu  Eu0  1  0.75000000  0.98232300  0.74878100  1
  Eu  Eu1  1  0.25000000  0.01767700  0.25121900  1
  Eu  Eu2  1  0.75000000  0.51767700  0.24878100  1
  Eu  Eu3  1  0.25000000  0.48232300  0.75121900  1
  Ni  Ni0  1  0.45166900  0.01190600  0.92273200  1
  Ni  Ni1  1  0.75000000  0.89506500  0.20608000  1
  Ni  Ni2  1  0.95166900  0.51190600  0.57726800  1
  Ni  Ni3  1  0.44996800  0.54936500  0.07515900  1
  Ni  Ni4  1  0.75000000  0.77352100  0.55442700  1
  Ni  Ni5  1  0.99917300  0.73167000  0.91634000  1
  Ni  Ni6  1  0.54833100  0.51190600  0.57726800  1
  Ni  Ni7  1  0.25000000  0.81022500  0.04135800  1
  Ni  Ni8  1  0.50082700  0.73167000  0.91634000  1
  Ni  Ni9  1  0.75000000  0.13681800  0.29162200  1
  Ni  Ni10  1  0.00082700  0.26833000  0.08366000  1
  Ni  Ni11  1  0.99917300  0.76833000  0.41634000  1
  Ni  Ni12  1  0.45166900  0.48809400  0.42273200  1
  Ni  Ni13  1  0.04833100  0.48809400  0.42273200  1
  Ni  Ni14  1  0.04833100  0.01190600  0.92273200  1
  Ni  Ni15  1  0.05003200  0.95063500  0.57515900  1
  Ni  Ni16  1  0.75000000  0.31022500  0.45864200  1
  Ni  Ni17  1  0.75000000  0.60493500  0.70608000  1
  Ni  Ni18  1  0.25000000  0.27352100  0.94557300  1
  Ni  Ni19  1  0.75000000  0.72647900  0.05442700  1
  Ni  Ni20  1  0.95166900  0.98809400  0.07726800  1
  Ni  Ni21  1  0.25000000  0.10493500  0.79392000  1
  Ni  Ni22  1  0.75000000  0.18977500  0.95864200  1
  Ni  Ni23  1  0.50082700  0.76833000  0.41634000  1
  Ni  Ni24  1  0.25000000  0.63681800  0.20837800  1
  Ni  Ni25  1  0.55003200  0.45063500  0.92484100  1
  Ni  Ni26  1  0.49917300  0.26833000  0.08366000  1
  Ni  Ni27  1  0.25000000  0.39506500  0.29392000  1
  Ni  Ni28  1  0.55003200  0.04936500  0.42484100  1
  Ni  Ni29  1  0.25000000  0.86318200  0.70837800  1
  Ni  Ni30  1  0.25000000  0.68977500  0.54135800  1
  Ni  Ni31  1  0.05003200  0.54936500  0.07515900  1
  Ni  Ni32  1  0.75000000  0.36318200  0.79162200  1
  Ni  Ni33  1  0.94996800  0.45063500  0.92484100  1
  Ni  Ni34  1  0.94996800  0.04936500  0.42484100  1
  Ni  Ni35  1  0.49917300  0.23167000  0.58366000  1
  Ni  Ni36  1  0.44996800  0.95063500  0.57515900  1
  Ni  Ni37  1  0.25000000  0.22647900  0.44557300  1
  Ni  Ni38  1  0.00082700  0.23167000  0.58366000  1
  Ni  Ni39  1  0.54833100  0.98809400  0.07726800  1
  P  P0  1  0.75000000  0.44501400  0.04248700  1
  P  P1  1  0.99185000  0.23093800  0.85380900  1
  P  P2  1  0.75000000  0.91823200  0.95997500  1
  P  P3  1  0.75000000  0.60918200  0.84199700  1
  P  P4  1  0.25000000  0.08176800  0.04002500  1
  P  P5  1  0.00815000  0.73093800  0.64619100  1
  P  P6  1  0.25000000  0.55498600  0.95751300  1
  P  P7  1  0.99185000  0.26906200  0.35380900  1
  P  P8  1  0.75000000  0.58176800  0.45997500  1
  P  P9  1  0.49185000  0.76906200  0.14619100  1
  P  P10  1  0.25000000  0.41823200  0.54002500  1
  P  P11  1  0.25000000  0.94501400  0.45751300  1
  P  P12  1  0.50815000  0.23093800  0.85380900  1
  P  P13  1  0.25000000  0.85459000  0.84429800  1
  P  P14  1  0.00815000  0.76906200  0.14619100  1
  P  P15  1  0.75000000  0.35459000  0.65570200  1
  P  P16  1  0.49185000  0.73093800  0.64619100  1
  P  P17  1  0.25000000  0.64541000  0.34429800  1
  P  P18  1  0.75000000  0.05498600  0.54248700  1
  P  P19  1  0.25000000  0.10918200  0.65800300  1
  P  P20  1  0.50815000  0.26906200  0.35380900  1
  P  P21  1  0.75000000  0.89081800  0.34199700  1
  P  P22  1  0.25000000  0.39081800  0.15800300  1
  P  P23  1  0.75000000  0.14541000  0.15570200  1
loop_
_geom_bond_atom_site_label_1
_geom_bond_atom_site_label_2
_geom_bond_distance
_geom_bond_site_symmetry_2
Eu0 P12 3.158510 1_565
Eu0 P1 3.158510 1_565
Eu0 P16 3.208486 1_555
Eu0 P5 3.208486 1_655
Eu0 P18 3.351011 1_565
Eu0 Ni17 3.368005 1_555
Eu0 Ni14 3.389675 1_665
Eu0 Ni0 3.389675 1_565
Eu0 Ni36 3.393120 1_555
Eu0 Ni15 3.393120 1_655
Eu0 Ni32 3.398170 1_565
Eu0 P2 3.414692 1_555
Eu0 Ni29 3.458988 1_655
Eu0 Ni29 3.458988 1_555
Eu0 Ni21 3.483068 1_565
Eu0 Ni21 3.483068 1_665
Eu0 P15 3.576350 1_565
Eu0 P3 3.584207 1_555
Eu1 P14 3.158510 1_545
Eu1 P9 3.158510 1_545
Eu1 P7 3.208486 1_455
Eu1 P20 3.208486 1_555
Eu1 P11 3.351011 1_545
Eu1 Ni27 3.368005 1_555
Eu1 Ni39 3.389675 1_545
Eu1 Ni20 3.389675 1_445
Eu1 Ni28 3.393120 1_555
Eu1 Ni34 3.393120 1_455
Eu1 Ni24 3.398170 1_545
Eu1 P4 3.414692 1_555
Eu1 Ni9 3.458988 1_555
Eu1 Ni9 3.458988 1_455
Eu1 Ni1 3.483068 1_545
Eu1 Ni1 3.483068 1_445
Eu1 P17 3.576350 1_545
Eu1 P22 3.584207 1_555
Eu2 P20 3.158510 1_555
Eu2 P7 3.158510 1_555
Eu2 P9 3.208486 1_555
Eu2 P14 3.208486 1_655
Eu2 P0 3.351011 1_555
Eu2 Ni1 3.368005 1_555
Eu2 Ni13 3.389675 1_655
Eu2 Ni12 3.389675 1_555
Eu2 Ni3 3.393120 1_555
Eu2 Ni31 3.393120 1_655
Eu2 Ni9 3.398170 1_555
Eu2 P8 3.414692 1_555
Eu2 Ni24 3.458988 1_555
Eu2 Ni24 3.458988 1_655
Eu2 Ni27 3.483068 1_655
Eu2 Ni27 3.483068 1_555
Eu2 P23 3.576350 1_555
Eu2 P21 3.584207 1_555
Eu3 P5 3.158510 1_555
Eu3 P16 3.158510 1_555
Eu3 P1 3.208486 1_455
Eu3 P12 3.208486 1_555
Eu3 P6 3.351011 1_555
Eu3 Ni21 3.368005 1_555
Eu3 Ni2 3.389675 1_455
Eu3 Ni6 3.389675 1_555
Eu3 Ni25 3.393120 1_555
Eu3 Ni33 3.393120 1_455
Eu3 Ni29 3.398170 1_555
Eu3 P10 3.414692 1_555
Eu3 Ni32 3.458988 1_455
Eu3 Ni32 3.458988 1_555
Eu3 Ni17 3.483068 1_455
Eu3 Ni17 3.483068 1_555
Eu3 P13 3.576350 1_555
Eu3 P19 3.584207 1_555
Ni0 P2 2.179164 1_545
Ni0 P12 2.237585 1_555
Ni0 P13 2.271111 1_545
Ni0 P4 2.361154 1_556
Ni1 P21 2.168122 1_555
Ni1 P9 2.216945 1_555
Ni1 P14 2.216945 1_655
Ni1 P23 2.330920 1_565
Ni2 P10 2.179164 1_655
Ni2 P5 2.237585 1_655
Ni2 P15 2.271111 1_555
Ni2 P8 2.361154 1_555
Ni3 P0 2.207165 1_555
Ni3 P9 2.245896 1_555
Ni3 P6 2.279720 1_554
Ni3 P22 2.310839 1_555
Ni4 P16 2.251715 1_555
Ni4 P5 2.251715 1_655
Ni4 P8 2.253492 1_555
Ni4 P18 2.467406 1_565
Ni5 P13 2.260104 1_655
Ni5 P3 2.269590 1_555
Ni5 P6 2.334421 1_655
Ni5 P2 2.396271 1_555
Ni6 P10 2.179164 1_555
Ni6 P16 2.237585 1_555
Ni6 P15 2.271111 1_555
Ni6 P8 2.361154 1_555
Ni7 P14 2.318097 1_555
Ni7 P9 2.318097 1_555
Ni7 P4 2.373421 1_565
Ni7 P6 2.600945 1_554
Ni8 P13 2.260104 1_555
Ni8 P3 2.269590 1_555
Ni8 P6 2.334421 1_555
Ni8 P2 2.396271 1_555
Ni9 P23 2.169152 1_555
Ni9 P20 2.183614 1_555
Ni9 P7 2.183614 1_555
Ni9 P21 2.295293 1_545
Ni10 P23 2.260104 1_455
Ni10 P22 2.269590 1_555
Ni10 P0 2.334421 1_455
Ni10 P4 2.396271 1_555
Ni11 P17 2.260104 1_655
Ni11 P21 2.269590 1_555
Ni11 P11 2.334421 1_655
Ni11 P8 2.396271 1_555
Ni12 P8 2.179164 1_555
Ni12 P20 2.237585 1_555
Ni12 P17 2.271111 1_555
Ni12 P10 2.361154 1_555
Ni13 P8 2.179164 1_455
Ni13 P7 2.237585 1_455
Ni13 P17 2.271111 1_555
Ni13 P10 2.361154 1_555
Ni14 P2 2.179164 1_445
Ni14 P1 2.237585 1_455
Ni14 P13 2.271111 1_545
Ni14 P4 2.361154 1_556
Ni15 P18 2.207165 1_465
Ni15 P5 2.245896 1_555
Ni15 P11 2.279720 1_555
Ni15 P19 2.310839 1_565
Ni16 P20 2.318097 1_555
Ni16 P7 2.318097 1_555
Ni16 P8 2.373421 1_555
Ni16 P18 2.600945 1_555
Ni17 P3 2.168122 1_555
Ni17 P16 2.216945 1_555
Ni17 P5 2.216945 1_655
Ni17 P15 2.330920 1_555
Ni18 P1 2.251715 1_455
Ni18 P12 2.251715 1_555
Ni18 P4 2.253492 1_556
Ni18 P6 2.467406 1_555
Ni19 P9 2.251715 1_555
Ni19 P14 2.251715 1_655
Ni19 P2 2.253492 1_554
Ni19 P0 2.467406 1_555
Ni20 P4 2.179164 1_665
Ni20 P14 2.237585 1_655
Ni20 P23 2.271111 1_565
Ni20 P2 2.361154 1_554
Ni21 P19 2.168122 1_555
Ni21 P12 2.216945 1_555
Ni21 P1 2.216945 1_455
Ni21 P13 2.330920 1_545
Ni22 P12 2.318097 1_555
Ni22 P1 2.318097 1_555
Ni22 P2 2.373421 1_545
Ni22 P0 2.600945 1_556
Ni23 P17 2.260104 1_555
Ni23 P21 2.269590 1_555
Ni23 P11 2.334421 1_555
Ni23 P8 2.396271 1_555
Ni24 P17 2.169152 1_555
Ni24 P14 2.183614 1_555
Ni24 P9 2.183614 1_555
Ni24 P22 2.295293 1_555
Ni25 P6 2.207165 1_555
Ni25 P12 2.245896 1_555
Ni25 P0 2.279720 1_556
Ni25 P3 2.310839 1_555
Ni26 P23 2.260104 1_555
Ni26 P22 2.269590 1_555
Ni26 P0 2.334421 1_555
Ni26 P4 2.396271 1_555
Ni27 P22 2.168122 1_555
Ni27 P7 2.216945 1_455
Ni27 P20 2.216945 1_555
Ni27 P17 2.330920 1_555
Ni28 P11 2.207165 1_545
Ni28 P20 2.245896 1_555
Ni28 P18 2.279720 1_555
Ni28 P21 2.310839 1_545
Ni29 P13 2.169152 1_555
Ni29 P16 2.183614 1_555
Ni29 P5 2.183614 1_555
Ni29 P19 2.295293 1_565
Ni30 P5 2.318097 1_555
Ni30 P16 2.318097 1_555
Ni30 P10 2.373421 1_555
Ni30 P11 2.600945 1_555
Ni31 P0 2.207165 1_455
Ni31 P14 2.245896 1_555
Ni31 P6 2.279720 1_554
Ni31 P22 2.310839 1_555
Ni32 P15 2.169152 1_555
Ni32 P12 2.183614 1_555
Ni32 P1 2.183614 1_555
Ni32 P3 2.295293 1_555
Ni33 P6 2.207165 1_655
Ni33 P1 2.245896 1_555
Ni33 P0 2.279720 1_556
Ni33 P3 2.310839 1_555
Ni34 P11 2.207165 1_645
Ni34 P7 2.245896 1_555
Ni34 P18 2.279720 1_555
Ni34 P21 2.310839 1_545
Ni35 P15 2.260104 1_555
Ni35 P19 2.269590 1_555
Ni35 P18 2.334421 1_555
Ni35 P10 2.396271 1_555
Ni36 P18 2.207165 1_565
Ni36 P16 2.245896 1_555
Ni36 P11 2.279720 1_555
Ni36 P19 2.310839 1_565
Ni37 P7 2.251715 1_455
Ni37 P20 2.251715 1_555
Ni37 P10 2.253492 1_555
Ni37 P11 2.467406 1_545
Ni38 P15 2.260104 1_455
Ni38 P19 2.269590 1_555
Ni38 P18 2.334421 1_455
Ni38 P10 2.396271 1_555
Ni39 P4 2.179164 1_565
Ni39 P9 2.237585 1_555
Ni39 P23 2.271111 1_565
Ni39 P2 2.361154 1_554
