# generated using pymatgen
data_K2U2MoO10
_symmetry_space_group_name_H-M   'P 1'
_cell_length_a   15.58684700
_cell_length_b   8.39681100
_cell_length_c   8.43671710
_cell_angle_alpha   75.39204066
_cell_angle_beta   90.00000000
_cell_angle_gamma   90.00000000
_symmetry_Int_Tables_number   1
_chemical_formula_structural   K2U2MoO10
_chemical_formula_sum   'K8 U8 Mo4 O40'
_cell_volume   1068.50183917
_cell_formula_units_Z   4
loop_
 _symmetry_equiv_pos_site_id
 _symmetry_equiv_pos_as_xyz
  1  'x, y, z'
loop_
 _atom_site_type_symbol
 _atom_site_label
 _atom_site_symmetry_multiplicity
 _atom_site_fract_x
 _atom_site_fract_y
 _atom_site_fract_z
 _atom_site_occupancy
  K  K0  1  0.26387000  0.17513300  0.57465800  1
  K  K1  1  0.54196000  0.55542600  0.22632800  1
  K  K2  1  0.95804000  0.55542600  0.72632800  1
  K  K3  1  0.23613000  0.17513300  0.07465800  1
  K  K4  1  0.45804000  0.44457400  0.77367200  1
  K  K5  1  0.76387000  0.82486700  0.92534200  1
  K  K6  1  0.04196000  0.44457400  0.27367200  1
  K  K7  1  0.73613000  0.82486700  0.42534200  1
  U  U0  1  0.92879000  0.11619200  0.60585200  1
  U  U1  1  0.42879000  0.88380800  0.89414800  1
  U  U2  1  0.42583100  0.86605900  0.41729300  1
  U  U3  1  0.07416900  0.86605900  0.91729300  1
  U  U4  1  0.07121000  0.88380800  0.39414800  1
  U  U5  1  0.57121000  0.11619200  0.10585200  1
  U  U6  1  0.57416900  0.13394100  0.58270700  1
  U  U7  1  0.92583100  0.13394100  0.08270700  1
  Mo  Mo0  1  0.76327300  0.37824000  0.29016500  1
  Mo  Mo1  1  0.73672700  0.37824000  0.79016500  1
  Mo  Mo2  1  0.26327300  0.62176000  0.20983500  1
  Mo  Mo3  1  0.23672700  0.62176000  0.70983500  1
  O  O0  1  0.95666700  0.02682000  0.86829900  1
  O  O1  1  0.33182800  0.75285200  0.67939500  1
  O  O2  1  0.04333300  0.97318000  0.13170100  1
  O  O3  1  0.46578900  0.90192900  0.14517500  1
  O  O4  1  0.49261700  0.28455000  0.09363100  1
  O  O5  1  0.66576900  0.33566400  0.96479500  1
  O  O6  1  0.49941000  0.69044400  0.49004700  1
  O  O7  1  0.65584500  0.95952400  0.12025200  1
  O  O8  1  0.34627600  0.03092500  0.34572800  1
  O  O9  1  0.67106100  0.34438100  0.62577900  1
  O  O10  1  0.99941000  0.30955600  0.00995300  1
  O  O11  1  0.16817200  0.75285200  0.17939500  1
  O  O12  1  0.72918900  0.58606500  0.24144100  1
  O  O13  1  0.00738300  0.28455000  0.59363100  1
  O  O14  1  0.16576900  0.66433600  0.53520500  1
  O  O15  1  0.15372400  0.03092500  0.84572800  1
  O  O16  1  0.50059000  0.30955600  0.50995300  1
  O  O17  1  0.83423100  0.33566400  0.46479500  1
  O  O18  1  0.54333300  0.02682000  0.36829900  1
  O  O19  1  0.27081100  0.41393500  0.75855900  1
  O  O20  1  0.50738300  0.71545000  0.90636900  1
  O  O21  1  0.84627600  0.96907500  0.15427200  1
  O  O22  1  0.33423100  0.66433600  0.03520500  1
  O  O23  1  0.15584500  0.04047600  0.37974800  1
  O  O24  1  0.66817200  0.24714800  0.32060500  1
  O  O25  1  0.45666700  0.97318000  0.63170100  1
  O  O26  1  0.22918900  0.41393500  0.25855900  1
  O  O27  1  0.84415500  0.95952400  0.62025200  1
  O  O28  1  0.03421100  0.90192900  0.64517500  1
  O  O29  1  0.32893900  0.65561900  0.37422100  1
  O  O30  1  0.99261700  0.71545000  0.40636900  1
  O  O31  1  0.96578900  0.09807100  0.35482500  1
  O  O32  1  0.65372400  0.96907500  0.65427200  1
  O  O33  1  0.17106100  0.65561900  0.87422100  1
  O  O34  1  0.53421100  0.09807100  0.85482500  1
  O  O35  1  0.83182800  0.24714800  0.82060500  1
  O  O36  1  0.77081100  0.58606500  0.74144100  1
  O  O37  1  0.00059000  0.69044400  0.99004700  1
  O  O38  1  0.34415500  0.04047600  0.87974800  1
  O  O39  1  0.82893900  0.34438100  0.12577900  1
loop_
_geom_bond_atom_site_label_1
_geom_bond_atom_site_label_2
_geom_bond_distance
_geom_bond_site_symmetry_2
K0 O23 2.784859 1_555
K0 O38 2.828727 1_555
K0 O19 2.829999 1_555
K0 O8 2.833038 1_555
K0 O15 2.871764 1_555
K0 O26 2.954261 1_555
K1 O20 2.748305 1_554
K1 O16 2.812832 1_555
K1 O6 2.819185 1_555
K1 O4 2.881421 1_555
K1 O12 2.935221 1_555
K1 O3 3.055957 1_555
K1 O24 3.188225 1_555
K2 O30 2.748305 1_555
K2 O10 2.812832 1_556
K2 O37 2.819185 1_655
K2 O13 2.881421 1_655
K2 O36 2.935221 1_555
K2 O28 3.055957 1_655
K2 O35 3.188225 1_555
K3 O38 2.784859 1_554
K3 O23 2.828727 1_555
K3 O26 2.829999 1_555
K3 O15 2.833038 1_554
K3 O8 2.871764 1_555
K3 O19 2.954261 1_554
K4 O4 2.748305 1_556
K4 O6 2.812832 1_555
K4 O16 2.819185 1_555
K4 O20 2.881421 1_555
K4 O19 2.935221 1_555
K4 O34 3.055957 1_555
K4 O1 3.188225 1_555
K5 O7 2.784859 1_556
K5 O27 2.828727 1_555
K5 O36 2.829999 1_555
K5 O21 2.833038 1_556
K5 O32 2.871764 1_555
K5 O12 2.954261 1_556
K6 O13 2.748305 1_555
K6 O37 2.812832 1_554
K6 O10 2.819185 1_455
K6 O30 2.881421 1_455
K6 O26 2.935221 1_555
K6 O31 3.055957 1_455
K6 O11 3.188225 1_555
K7 O27 2.784859 1_555
K7 O7 2.828727 1_555
K7 O12 2.829999 1_555
K7 O32 2.833038 1_555
K7 O21 2.871764 1_555
K7 O36 2.954261 1_555
Mo0 O12 1.770492 1_555
Mo0 O39 1.802985 1_555
Mo0 O17 1.804444 1_555
Mo0 O24 1.825462 1_555
Mo1 O36 1.770492 1_555
Mo1 O9 1.802985 1_555
Mo1 O5 1.804444 1_555
Mo1 O35 1.825462 1_555
Mo2 O26 1.770492 1_555
Mo2 O29 1.802985 1_555
Mo2 O22 1.804444 1_555
Mo2 O11 1.825462 1_555
Mo3 O19 1.770492 1_555
Mo3 O33 1.802985 1_555
Mo3 O14 1.804444 1_555
Mo3 O1 1.825462 1_555
O0 U0 2.194646 1_555
O0 U3 2.250762 1_645
O0 U7 2.265587 1_556
O1 U2 2.622964 1_555
O1 U1 2.789418 1_555
O2 U4 2.194646 1_555
O2 U7 2.250762 1_465
O2 U3 2.265587 1_554
O3 U1 2.236859 1_554
O3 U2 2.323888 1_555
O3 U5 2.397059 1_565
O4 U5 1.853710 1_555
O5 U5 2.424557 1_556
O6 U2 1.846610 1_555
O7 U5 1.845260 1_565
O8 U2 1.843093 1_545
O9 U6 2.420566 1_555
O10 U7 1.846610 1_555
O11 U3 2.622964 1_554
O11 U4 2.789418 1_555
O13 U0 1.853710 1_455
O14 U4 2.424557 1_555
O15 U3 1.843093 1_545
O16 U6 1.846610 1_555
O17 U0 2.424557 1_555
O18 U5 2.194646 1_555
O18 U2 2.250762 1_545
O18 U6 2.265587 1_555
O20 U1 1.853710 1_555
O21 U7 1.843093 1_565
O22 U1 2.424557 1_554
O23 U4 1.845260 1_545
O24 U6 2.622964 1_555
O24 U5 2.789418 1_555
O25 U1 2.194646 1_555
O25 U6 2.250762 1_565
O25 U2 2.265587 1_555
O27 U0 1.845260 1_565
O28 U4 2.236859 1_555
O28 U3 2.323888 1_555
O28 U0 2.397059 1_465
O29 U2 2.420566 1_555
O30 U4 1.853710 1_655
O31 U0 2.236859 1_555
O31 U7 2.323888 1_555
O31 U4 2.397059 1_645
O32 U6 1.843093 1_565
O33 U3 2.420566 1_555
O34 U5 2.236859 1_556
O34 U6 2.323888 1_555
O34 U1 2.397059 1_545
O35 U7 2.622964 1_556
O35 U0 2.789418 1_555
O37 U3 1.846610 1_555
O38 U1 1.845260 1_545
O39 U7 2.420566 1_555
