# generated using pymatgen
data_Li3V3(PO4)4
_symmetry_space_group_name_H-M   'P 1'
_cell_length_a   8.40382700
_cell_length_b   8.84446950
_cell_length_c   13.52300763
_cell_angle_alpha   84.51035347
_cell_angle_beta   89.93665393
_cell_angle_gamma   89.87074789
_symmetry_Int_Tables_number   1
_chemical_formula_structural   Li3V3(PO4)4
_chemical_formula_sum   'Li9 V9 P12 O48'
_cell_volume   1000.51691196
_cell_formula_units_Z   3
loop_
 _symmetry_equiv_pos_site_id
 _symmetry_equiv_pos_as_xyz
  1  'x, y, z'
loop_
 _atom_site_type_symbol
 _atom_site_label
 _atom_site_symmetry_multiplicity
 _atom_site_fract_x
 _atom_site_fract_y
 _atom_site_fract_z
 _atom_site_occupancy
  Li  Li0  1  0.47919100  0.66091200  0.82908300  1
  Li  Li1  1  0.52381900  0.00192200  0.50287100  1
  Li  Li2  1  0.14582000  0.56190800  0.82426600  1
  Li  Li3  1  0.64655100  0.93963300  0.17831400  1
  Li  Li4  1  0.00404800  0.18137200  0.84270300  1
  Li  Li5  1  0.98959600  0.48572100  0.49697800  1
  Li  Li6  1  0.97415700  0.83955600  0.17254500  1
  Li  Li7  1  0.85203200  0.10244800  0.50753600  1
  Li  Li8  1  0.50822700  0.31649000  0.16129900  1
  V  V0  1  0.85481500  0.76831600  0.83924000  1
  V  V1  1  0.14225400  0.89797300  0.49517900  1
  V  V2  1  0.65034300  0.26788600  0.83996000  1
  V  V3  1  0.65438500  0.60441600  0.50126400  1
  V  V4  1  0.34896600  0.06506800  0.83229100  1
  V  V5  1  0.35321900  0.39843200  0.49576600  1
  V  V6  1  0.35769000  0.73515900  0.16044200  1
  V  V7  1  0.84470000  0.43396800  0.17042700  1
  V  V8  1  0.14801100  0.22944000  0.15945900  1
  P  P0  1  0.19278100  0.85401300  0.94379300  1
  P  P1  1  0.69736600  0.97425600  0.72014400  1
  P  P2  1  0.29789300  0.36065000  0.94366000  1
  P  P3  1  0.30270300  0.69238500  0.61372100  1
  P  P4  1  0.80082700  0.47937300  0.72407200  1
  P  P5  1  0.81079900  0.81152800  0.38566000  1
  P  P6  1  0.19914000  0.18734800  0.61050000  1
  P  P7  1  0.20004500  0.52404400  0.27576200  1
  P  P8  1  0.70224300  0.30739700  0.39024700  1
  P  P9  1  0.69354000  0.64550700  0.05677300  1
  P  P10  1  0.29968500  0.02123400  0.27713200  1
  P  P11  1  0.79850400  0.13893500  0.05668400  1
  O  O0  1  0.86237800  0.97795500  0.77688000  1
  O  O1  1  0.35940500  0.85375200  0.88774300  1
  O  O2  1  0.07518600  0.74590600  0.89978700  1
  O  O3  1  0.71246500  0.69231300  0.94505200  1
  O  O4  1  0.64360100  0.80964900  0.75144900  1
  O  O5  1  0.36965800  0.51711000  0.92852600  1
  O  O6  1  0.35595400  0.85702800  0.58197500  1
  O  O7  1  0.29637200  0.64324600  0.72280800  1
  O  O8  1  0.91538800  0.59222900  0.76934300  1
  O  O9  1  0.28541900  0.97554500  0.38877900  1
  O  O10  1  0.92496300  0.91904500  0.43635100  1
  O  O11  1  0.63363200  0.47736900  0.77844400  1
  O  O12  1  0.13883600  0.34839300  0.89212500  1
  O  O13  1  0.64272000  0.81191300  0.44282300  1
  O  O14  1  0.13808000  0.68738100  0.55681400  1
  O  O15  1  0.42166800  0.24077400  0.89746800  1
  O  O16  1  0.79623900  0.19997100  0.94327900  1
  O  O17  1  0.42014000  0.57860400  0.56039100  1
  O  O18  1  0.78782300  0.52602100  0.61180200  1
  O  O19  1  0.41632400  0.90878900  0.23186400  1
  O  O20  1  0.85498400  0.31324500  0.74821400  1
  O  O21  1  0.79634600  0.85450500  0.27549000  1
  O  O22  1  0.85715200  0.64174600  0.41491700  1
  O  O23  1  0.87123800  0.98320800  0.07089700  1
  O  O24  1  0.14734500  0.02384800  0.92152400  1
  O  O25  1  0.14659100  0.35408000  0.58544300  1
  O  O26  1  0.21270000  0.14061000  0.72285100  1
  O  O27  1  0.14479200  0.68887800  0.25284500  1
  O  O28  1  0.58109300  0.08814900  0.77422400  1
  O  O29  1  0.21146900  0.47118300  0.38727900  1
  O  O30  1  0.57916600  0.42852900  0.43654200  1
  O  O31  1  0.21216800  0.80686000  0.05597800  1
  O  O32  1  0.57582100  0.75527400  0.10071400  1
  O  O33  1  0.86225000  0.31845800  0.44110500  1
  O  O34  1  0.36713600  0.18985300  0.55663100  1
  O  O35  1  0.85916300  0.64496000  0.11357200  1
  O  O36  1  0.36474100  0.52191800  0.22097600  1
  O  O37  1  0.08460200  0.07526500  0.56526400  1
  O  O38  1  0.70302400  0.02373900  0.61100900  1
  O  O39  1  0.08206000  0.41074900  0.22826400  1
  O  O40  1  0.70435300  0.36691700  0.27678200  1
  O  O41  1  0.62829600  0.15217400  0.40691500  1
  O  O42  1  0.64620800  0.47627500  0.07890100  1
  O  O43  1  0.35085600  0.18802200  0.25179500  1
  O  O44  1  0.29429800  0.30135800  0.05733300  1
  O  O45  1  0.92022300  0.25858600  0.10441400  1
  O  O46  1  0.63816000  0.15070100  0.10768300  1
  O  O47  1  0.13416000  0.02062900  0.22096600  1
loop_
_geom_bond_atom_site_label_1
_geom_bond_atom_site_label_2
_geom_bond_distance
_geom_bond_site_symmetry_2
Li0 O5 1.987115 1_555
Li0 O4 2.117188 1_555
Li0 O7 2.121138 1_555
Li0 O1 2.191105 1_555
Li0 O11 2.233815 1_555
Li0 O3 2.544066 1_555
Li1 O41 1.973191 1_555
Li1 O38 2.122247 1_555
Li1 O6 2.125843 1_545
Li1 O13 2.175717 1_545
Li1 O34 2.290038 1_555
Li1 O9 2.554716 1_545
Li2 O7 1.952470 1_555
Li2 O12 2.020028 1_555
Li2 O8 2.082392 1_455
Li2 O2 2.087093 1_555
Li2 O5 2.361984 1_555
Li3 O21 1.920559 1_555
Li3 O46 2.015083 1_565
Li3 O19 2.074539 1_555
Li3 O32 2.108644 1_555
Li3 O23 2.390419 1_555
Li4 O12 2.027322 1_555
Li4 O24 2.058768 1_555
Li4 O20 2.067402 1_455
Li4 O16 2.227789 1_455
Li4 O0 2.401043 1_445
Li4 O26 2.436016 1_555
Li5 O22 2.019257 1_555
Li5 O33 2.031620 1_555
Li5 O25 2.063375 1_655
Li5 O18 2.347499 1_555
Li5 O14 2.383565 1_655
Li5 O29 2.392311 1_655
Li6 O23 1.978717 1_555
Li6 O21 2.053809 1_555
Li6 O27 2.174725 1_655
Li6 O35 2.191781 1_555
Li6 O47 2.239174 1_665
Li6 O31 2.578160 1_655
Li7 O38 1.955592 1_555
Li7 O33 2.033858 1_555
Li7 O10 2.055846 1_545
Li7 O37 2.110107 1_655
Li7 O41 2.338300 1_555
Li8 O46 2.015574 1_555
Li8 O43 2.067575 1_555
Li8 O42 2.070414 1_555
Li8 O44 2.295517 1_555
Li8 O40 2.344487 1_555
Li8 O36 2.382213 1_555
O0 P1 1.587487 1_555
O0 V0 1.963235 1_555
O1 P0 1.591625 1_555
O1 V4 1.947908 1_565
O2 P0 1.536041 1_555
O2 V0 2.027334 1_455
O3 P9 1.536001 1_556
O3 V0 1.935519 1_555
O4 P1 1.545161 1_555
O4 V0 2.147654 1_555
O5 P2 1.506599 1_555
O6 P3 1.545294 1_555
O6 V1 2.157421 1_555
O7 P3 1.498381 1_555
O8 P4 1.555809 1_555
O8 V0 1.963431 1_555
O9 P10 1.529790 1_565
O9 V1 1.949242 1_555
O10 P5 1.557222 1_555
O10 V1 1.993857 1_655
O11 P4 1.584462 1_555
O11 V2 1.961805 1_555
O12 P2 1.517015 1_555
O13 P5 1.609599 1_555
O13 V3 1.929768 1_555
O14 P3 1.586597 1_555
O14 V1 1.966805 1_555
O15 P2 1.648207 1_555
O15 V4 1.957722 1_555
O15 V2 2.078097 1_555
O16 P11 1.576470 1_556
O16 V2 1.912094 1_555
O17 P3 1.624692 1_555
O17 V5 1.972546 1_555
O17 V3 2.128442 1_555
O18 P4 1.538667 1_555
O18 V3 1.942835 1_555
O19 P10 1.560570 1_565
O19 V6 1.955037 1_555
O20 P4 1.542122 1_555
O20 V2 2.135649 1_555
O21 P5 1.506874 1_555
O22 P5 1.564354 1_555
O22 V3 2.073770 1_555
O23 P11 1.501130 1_565
O24 P0 1.550455 1_545
O24 V4 2.091429 1_555
O25 P6 1.544745 1_555
O25 V5 2.132425 1_555
O26 P6 1.540199 1_555
O26 V4 1.938855 1_555
O27 P7 1.532271 1_555
O27 V6 2.197852 1_555
O28 P1 1.624581 1_545
O28 V2 1.982848 1_555
O28 V4 2.105103 1_555
O29 P7 1.538577 1_555
O29 V5 1.950684 1_555
O30 P8 1.652705 1_555
O30 V3 1.962592 1_555
O30 V5 2.067830 1_555
O31 P0 1.543109 1_554
O31 V6 1.929323 1_555
O32 P9 1.542414 1_555
O32 V6 2.003777 1_555
O33 P8 1.518627 1_555
O34 P6 1.587182 1_555
O34 V5 1.950138 1_555
O35 P9 1.590254 1_555
O35 V7 1.953095 1_555
O36 P7 1.570093 1_555
O36 V6 1.983643 1_555
O37 P6 1.550827 1_555
O37 V1 1.967659 1_545
O38 P1 1.499414 1_545
O39 P7 1.590220 1_555
O39 V8 2.006171 1_555
O39 V7 2.145630 1_455
O40 P8 1.573918 1_555
O40 V7 1.909853 1_555
O41 P8 1.505351 1_555
O42 P9 1.550743 1_555
O42 V7 2.089881 1_555
O43 P10 1.544094 1_555
O43 V8 2.124531 1_555
O44 P2 1.576272 1_554
O44 V8 1.911791 1_555
O45 P11 1.649203 1_555
O45 V7 1.965978 1_555
O45 V8 2.061374 1_655
O46 P11 1.520943 1_555
O47 P10 1.585897 1_555
O47 V8 1.955243 1_555
