# generated using pymatgen
data_Li7FeO5F
_symmetry_space_group_name_H-M   'P 1'
_cell_length_a   5.52784632
_cell_length_b   10.87675631
_cell_length_c   9.71774855
_cell_angle_alpha   91.29520042
_cell_angle_beta   88.50049644
_cell_angle_gamma   87.35062548
_symmetry_Int_Tables_number   1
_chemical_formula_structural   Li7FeO5F
_chemical_formula_sum   'Li28 Fe4 O20 F4'
_cell_volume   583.28966943
_cell_formula_units_Z   4
loop_
 _symmetry_equiv_pos_site_id
 _symmetry_equiv_pos_as_xyz
  1  'x, y, z'
loop_
 _atom_site_type_symbol
 _atom_site_label
 _atom_site_symmetry_multiplicity
 _atom_site_fract_x
 _atom_site_fract_y
 _atom_site_fract_z
 _atom_site_occupancy
  Li  Li0  1  0.34838700  0.76330900  0.01109100  1
  Li  Li1  1  0.84838500  0.76332300  0.51109000  1
  Li  Li2  1  0.21270900  0.63334500  0.18712300  1
  Li  Li3  1  0.71269600  0.63334300  0.68710700  1
  Li  Li4  1  0.49620700  0.91151700  0.17480600  1
  Li  Li5  1  0.99623800  0.91151600  0.67479600  1
  Li  Li6  1  0.48693400  0.42938200  0.16423200  1
  Li  Li7  1  0.98690900  0.42937400  0.66427000  1
  Li  Li8  1  0.82457600  0.75817500  0.13678700  1
  Li  Li9  1  0.32457200  0.75819800  0.63679000  1
  Li  Li10  1  0.35333100  0.77425900  0.35937800  1
  Li  Li11  1  0.85332800  0.77425200  0.85935700  1
  Li  Li12  1  0.68802300  0.62773900  0.30850800  1
  Li  Li13  1  0.18799900  0.62774000  0.80850000  1
  Li  Li14  1  0.10719600  0.27158000  0.15407300  1
  Li  Li15  1  0.60719600  0.27158300  0.65407500  1
  Li  Li16  1  0.67571800  0.26448400  0.32740700  1
  Li  Li17  1  0.17567200  0.26448700  0.82741600  1
  Li  Li18  1  0.98506500  0.92931800  0.32574600  1
  Li  Li19  1  0.48502700  0.92931600  0.82572700  1
  Li  Li20  1  0.00472600  0.41295000  0.34470900  1
  Li  Li21  1  0.50470300  0.41295400  0.84471500  1
  Li  Li22  1  0.30523000  0.12945800  0.30485700  1
  Li  Li23  1  0.80519000  0.12947900  0.80486200  1
  Li  Li24  1  0.88032900  0.13019400  0.48294800  1
  Li  Li25  1  0.38025500  0.13018900  0.98294300  1
  Li  Li26  1  0.20469200  0.26133300  0.49720800  1
  Li  Li27  1  0.70460700  0.26136700  0.99719400  1
  Fe  Fe0  1  0.49407900  0.00233200  0.50645900  1
  Fe  Fe1  1  0.98844300  0.50262300  0.00255600  1
  Fe  Fe2  1  0.99390000  0.00233500  0.00638600  1
  Fe  Fe3  1  0.48841800  0.50259200  0.50251900  1
  O  O0  1  0.52008600  0.17055300  0.47885700  1
  O  O1  1  0.01965300  0.17060700  0.97875100  1
  O  O2  1  0.54384700  0.67070700  0.50109000  1
  O  O3  1  0.04393200  0.67060000  0.00108300  1
  O  O4  1  0.13334200  0.45959300  0.16357700  1
  O  O5  1  0.63330400  0.45960600  0.66350200  1
  O  O6  1  0.70339200  0.43311300  0.00716500  1
  O  O7  1  0.20348700  0.43310600  0.50716500  1
  O  O8  1  0.49852300  0.72507700  0.18446000  1
  O  O9  1  0.99848200  0.72517800  0.68441000  1
  O  O10  1  0.84881000  0.93062200  0.14693500  1
  O  O11  1  0.34883300  0.93060800  0.64700900  1
  O  O12  1  0.63709600  0.45218400  0.33840600  1
  O  O13  1  0.13700800  0.45217800  0.83846600  1
  O  O14  1  0.01532900  0.22648700  0.33848600  1
  O  O15  1  0.51512400  0.22645500  0.83851200  1
  O  O16  1  0.31608000  0.95459600  0.00970400  1
  O  O17  1  0.81614100  0.95456300  0.50973100  1
  O  O18  1  0.32423500  0.95631100  0.35367300  1
  O  O19  1  0.82415700  0.95630100  0.85358700  1
  F  F0  1  0.47296400  0.22265300  0.15789000  1
  F  F1  1  0.97297900  0.22265100  0.65789700  1
  F  F2  1  0.99760100  0.72299600  0.32498600  1
  F  F3  1  0.49752600  0.72298700  0.82493000  1
loop_
_geom_bond_atom_site_label_1
_geom_bond_atom_site_label_2
_geom_bond_distance
_geom_bond_site_symmetry_2
Li0 O8 1.942435 1_555
Li0 O3 2.004924 1_555
Li0 O16 2.080370 1_555
Li1 O9 1.941717 1_555
Li1 O2 2.004770 1_555
Li1 O17 2.079839 1_555
Li2 O8 1.907125 1_555
Li2 O4 1.969457 1_555
Li2 O3 2.095125 1_555
Li3 O9 1.907624 1_555
Li3 O5 1.969394 1_555
Li3 O2 2.095339 1_555
Li4 O16 1.964592 1_555
Li4 O10 1.981924 1_555
Li4 O18 1.998696 1_555
Li4 O8 2.031614 1_555
Li5 O17 1.964125 1_555
Li5 O11 1.981767 1_655
Li5 O19 1.998314 1_555
Li5 O9 2.030494 1_555
Li6 O6 1.916972 1_555
Li6 O12 1.920661 1_555
Li6 O4 1.967195 1_555
Li7 O7 1.917662 1_655
Li7 O13 1.920694 1_655
Li7 O5 1.967330 1_555
Li8 O10 1.887153 1_555
Li8 O8 1.901733 1_555
Li8 O3 1.967091 1_655
Li9 O11 1.886791 1_555
Li9 O9 1.901610 1_455
Li9 O2 1.966406 1_555
Li10 O8 1.915066 1_555
Li10 O18 1.981379 1_555
Li10 O2 2.076178 1_555
Li11 O9 1.914950 1_555
Li11 O19 1.981395 1_555
Li11 O3 2.077095 1_656
Li12 O8 1.921617 1_555
Li12 O12 1.969830 1_555
Li12 O2 2.050351 1_555
Li13 O9 1.922522 1_455
Li13 O13 1.970080 1_555
Li13 O3 2.049924 1_556
Li14 O14 1.930058 1_555
Li14 O4 2.056894 1_555
Li14 O1 2.085848 1_554
Li15 O15 1.930668 1_555
Li15 O5 2.056960 1_555
Li15 O0 2.084687 1_555
Li16 O14 1.909863 1_655
Li16 O0 2.008222 1_555
Li16 O12 2.042951 1_555
Li17 O15 1.909087 1_555
Li17 O1 2.008027 1_555
Li17 O13 2.042880 1_555
Li18 O10 1.911943 1_555
Li18 O18 1.936218 1_655
Li18 O17 2.002682 1_555
Li19 O11 1.910970 1_555
Li19 O19 1.935879 1_555
Li19 O16 2.002706 1_556
Li20 O7 1.960858 1_555
Li20 O4 1.967069 1_555
Li20 O14 2.025738 1_555
Li20 O12 2.059909 1_455
Li21 O6 1.960581 1_556
Li21 O5 1.967771 1_555
Li21 O15 2.026146 1_555
Li21 O13 2.060212 1_555
Li22 O14 1.894552 1_555
Li22 O18 1.951285 1_545
Li22 O0 2.142317 1_555
Li23 O15 1.895028 1_555
Li23 O19 1.951373 1_545
Li23 O1 2.140262 1_655
Li24 O14 1.925756 1_655
Li24 O17 1.980700 1_545
Li24 O0 2.020877 1_555
Li25 O15 1.925081 1_555
Li25 O16 1.980250 1_546
Li25 O1 2.022974 1_555
Li26 O7 1.868346 1_555
Li26 O14 1.926963 1_555
Li26 O0 1.965447 1_555
Li27 O6 1.868055 1_556
Li27 O15 1.927175 1_555
Li27 O1 1.963741 1_655
Fe0 O11 1.779722 1_545
Fe0 O17 1.832665 1_545
Fe0 O18 1.849131 1_545
Fe0 O0 1.866788 1_555
Fe1 O6 1.778895 1_555
Fe1 O13 1.835333 1_654
Fe1 O4 1.836612 1_655
Fe1 O3 1.866855 1_655
Fe2 O10 1.779268 1_545
Fe2 O16 1.833235 1_645
Fe2 O19 1.848970 1_544
Fe2 O1 1.867222 1_654
Fe3 O7 1.778177 1_555
Fe3 O12 1.835676 1_555
Fe3 O5 1.836137 1_555
Fe3 O2 1.868255 1_555
F0 Li22 2.002491 1_555
F0 Li25 2.044590 1_554
F0 Li27 2.056814 1_554
F0 Li14 2.068342 1_555
F0 Li16 2.070448 1_555
F0 Li6 2.252939 1_555
F1 Li23 2.002484 1_555
F1 Li24 2.044473 1_555
F1 Li26 2.056913 1_655
F1 Li15 2.068436 1_555
F1 Li17 2.070283 1_655
F1 Li7 2.252858 1_555
F2 Li2 1.977368 1_655
F2 Li1 1.999023 1_555
F2 Li12 2.049005 1_555
F2 Li10 2.101602 1_655
F2 Li8 2.120220 1_555
F2 Li18 2.241819 1_555
F3 Li3 1.977273 1_555
F3 Li0 1.999345 1_556
F3 Li13 2.048662 1_555
F3 Li11 2.102048 1_555
F3 Li9 2.119596 1_555
F3 Li19 2.241891 1_555
