# generated using pymatgen
data_Li5V3P8O29
_symmetry_space_group_name_H-M   'P 1'
_cell_length_a   9.77464357
_cell_length_b   9.79829251
_cell_length_c   14.06923673
_cell_angle_alpha   89.84221168
_cell_angle_beta   89.77219844
_cell_angle_gamma   60.08623141
_symmetry_Int_Tables_number   1
_chemical_formula_structural   Li5V3P8O29
_chemical_formula_sum   'Li10 V6 P16 O58'
_cell_volume   1167.95364989
_cell_formula_units_Z   2
loop_
 _symmetry_equiv_pos_site_id
 _symmetry_equiv_pos_as_xyz
  1  'x, y, z'
loop_
 _atom_site_type_symbol
 _atom_site_label
 _atom_site_symmetry_multiplicity
 _atom_site_fract_x
 _atom_site_fract_y
 _atom_site_fract_z
 _atom_site_occupancy
  Li  Li0  1  0.76279851  0.89859502  0.55888967  1
  Li  Li1  1  0.89884176  0.33521552  0.56142784  1
  Li  Li2  1  0.76493863  0.33873765  0.05860381  1
  Li  Li3  1  0.33102568  0.90598368  0.05879878  1
  Li  Li4  1  0.33039035  0.76383704  0.56070477  1
  Li  Li5  1  0.66954053  0.09599576  0.93970383  1
  Li  Li6  1  0.23417948  0.66326366  0.93995572  1
  Li  Li7  1  0.23423008  0.09848230  0.44179364  1
  Li  Li8  1  0.99744778  0.99966392  0.99885526  1
  Li  Li9  1  0.96993696  0.98719310  0.49775394  1
  V  V0  1  0.56520748  0.43417776  0.25709478  1
  V  V1  1  0.43499895  0.56397625  0.74591724  1
  V  V2  1  0.56725488  0.99925538  0.75179938  1
  V  V3  1  0.43634022  0.00069016  0.24651319  1
  V  V4  1  0.99932029  0.56630430  0.24679548  1
  V  V5  1  0.00124009  0.43569104  0.75282400  1
  P  P0  1  0.91807654  0.77711681  0.84443470  1
  P  P1  1  0.77716826  0.91014726  0.33958940  1
  P  P2  1  0.91623480  0.31224794  0.34317033  1
  P  P3  1  0.66708875  0.66234721  0.13113210  1
  P  P4  1  0.66778459  0.66666012  0.62986088  1
  P  P5  1  0.77199134  0.31501997  0.84152550  1
  P  P6  1  0.69325234  0.22113156  0.65858198  1
  P  P7  1  0.31362862  0.90997052  0.84223804  1
  P  P8  1  0.68868384  0.09169190  0.15851905  1
  P  P9  1  0.31243204  0.77694384  0.34322856  1
  P  P10  1  0.22657613  0.68689453  0.16108245  1
  P  P11  1  0.32729870  0.33390035  0.36826377  1
  P  P12  1  0.33428243  0.33423783  0.86901588  1
  P  P13  1  0.08106694  0.69406011  0.65704963  1
  P  P14  1  0.22611900  0.08808414  0.65995863  1
  P  P15  1  0.08392963  0.22243345  0.15790834  1
  O  O0  1  0.99214469  0.79444099  0.57385610  1
  O  O1  1  0.91698067  0.73925612  0.32829142  1
  O  O2  1  0.77351943  0.02062149  0.06765487  1
  O  O3  1  0.74616787  0.91887480  0.84184901  1
  O  O4  1  0.91832254  0.62127860  0.83291628  1
  O  O5  1  0.81203201  0.66501559  0.17728629  1
  O  O6  1  0.91618185  0.46792114  0.32758653  1
  O  O7  1  0.99045785  0.20936868  0.07832996  1
  O  O8  1  0.91385834  0.34291261  0.83283418  1
  O  O9  1  0.67725041  0.81128312  0.67029794  1
  O  O10  1  0.61963430  0.91402324  0.32783093  1
  O  O11  1  0.81112808  0.51319348  0.67125339  1
  O  O12  1  0.67171875  0.65384436  0.02549997  1
  O  O13  1  0.66924191  0.66583676  0.52339940  1
  O  O14  1  0.67124444  0.51213208  0.17427027  1
  O  O15  1  0.47035758  0.91107732  0.82822163  1
  O  O16  1  0.51282942  0.81175374  0.16801603  1
  O  O17  1  0.74633431  0.34085277  0.33755708  1
  O  O18  1  0.79003969  0.19866575  0.75621323  1
  O  O19  1  0.79859564  0.20622659  0.57698093  1
  O  O20  1  0.77823067  0.22979280  0.93270119  1
  O  O21  1  0.61723611  0.46987512  0.82786619  1
  O  O22  1  0.51018680  0.67878434  0.66852015  1
  O  O23  1  0.65778751  0.26299045  0.16654451  1
  O  O24  1  0.47005608  0.62095158  0.32762914  1
  O  O25  1  0.34153751  0.91867238  0.33642944  1
  O  O26  1  0.79626626  0.00280421  0.24944510  1
  O  O27  1  0.79327699  0.98012889  0.43002745  1
  O  O28  1  0.22553839  0.00123010  0.57119053  1
  O  O29  1  0.66008642  0.08149152  0.65981088  1
  O  O30  1  0.53780206  0.37900055  0.66770999  1
  O  O31  1  0.34193027  0.73950523  0.83558633  1
  O  O32  1  0.47700739  0.33427373  0.32651313  1
  O  O33  1  0.38265778  0.53289259  0.17477520  1
  O  O34  1  0.22244698  0.77607312  0.07244656  1
  O  O35  1  0.22988270  0.78328465  0.43371385  1
  O  O36  1  0.20386913  0.79633124  0.25241438  1
  O  O37  1  0.25452331  0.65954900  0.65722173  1
  O  O38  1  0.49074487  0.18711717  0.83102637  1
  O  O39  1  0.53157601  0.09089556  0.17122657  1
  O  O40  1  0.32585016  0.48775892  0.82780612  1
  O  O41  1  0.33404014  0.33743712  0.97518023  1
  O  O42  1  0.31778623  0.34121620  0.47351722  1
  O  O43  1  0.18389371  0.47791803  0.31769840  1
  O  O44  1  0.38022536  0.09051385  0.67339940  1
  O  O45  1  0.32553072  0.18552905  0.32900167  1
  O  O46  1  0.08554213  0.65722644  0.16369157  1
  O  O47  1  0.00142422  0.79796059  0.75046338  1
  O  O48  1  0.00629399  0.79145179  0.92728350  1
  O  O49  1  0.07655850  0.53947450  0.67005680  1
  O  O50  1  0.19274578  0.32747007  0.82262803  1
  O  O51  1  0.07872321  0.38182279  0.16809367  1
  O  O52  1  0.25679841  0.08368455  0.15669704  1
  O  O53  1  0.22980113  0.98245699  0.93348072  1
  O  O54  1  0.20413007  0.00056932  0.75191768  1
  O  O55  1  0.08091059  0.25616693  0.66046792  1
  O  O56  1  0.99763923  0.22877101  0.43363627  1
  O  O57  1  0.01256176  0.19754627  0.25684467  1
loop_
_geom_bond_atom_site_label_1
_geom_bond_atom_site_label_2
_geom_bond_distance
_geom_bond_site_symmetry_2
Li0 O0 1.957580 1_555
Li0 O27 2.058892 1_555
Li0 O29 2.108018 1_565
Li0 O9 2.140950 1_555
Li1 O19 1.958921 1_555
Li1 O56 2.060311 1_555
Li1 O55 2.085105 1_655
Li1 O11 2.162587 1_555
Li2 O7 1.938823 1_555
Li2 O20 2.040669 1_554
Li2 O23 2.170383 1_555
Li2 O14 2.196575 1_555
Li3 O53 1.978940 1_554
Li3 O34 2.031750 1_555
Li3 O52 2.049497 1_565
Li3 O16 2.179223 1_555
Li4 O35 2.004747 1_555
Li4 O28 2.026233 1_565
Li4 O37 2.044062 1_555
Li4 O22 2.153486 1_555
Li5 O2 2.019309 1_556
Li5 O3 2.043721 1_545
Li5 O20 2.060270 1_555
Li5 O38 2.155638 1_555
Li6 O48 1.944882 1_555
Li6 O31 2.142416 1_555
Li6 O34 2.143084 1_556
Li6 O40 2.171765 1_555
Li7 O56 2.011892 1_455
Li7 O28 2.073520 1_555
Li7 O25 2.135552 1_545
Li7 O45 2.186914 1_555
Li8 O48 2.240139 1_655
Li8 O2 2.303474 1_566
Li8 O7 2.312778 1_566
Li8 O53 2.373804 1_655
Li8 O20 2.393200 1_565
Li8 O34 2.430733 1_656
Li9 O27 2.006786 1_555
Li9 O0 2.083817 1_555
Li9 O19 2.250941 1_565
Li9 O35 2.487582 1_655
O0 P13 1.497316 1_655
O1 P1 1.553721 1_555
O1 V4 1.864730 1_555
O2 P8 1.492437 1_555
O3 P0 1.557718 1_555
O3 V2 1.980433 1_555
O4 P0 1.534776 1_555
O4 V5 1.940985 1_655
O5 P3 1.572874 1_555
O5 V4 1.867146 1_555
O6 P2 1.540156 1_555
O6 V4 1.910404 1_555
O7 P15 1.493401 1_655
O8 P5 1.545654 1_555
O8 V5 1.893212 1_655
O9 P4 1.573504 1_555
O9 V2 1.972262 1_555
O10 P1 1.530874 1_555
O10 V3 1.932219 1_565
O11 P4 1.569625 1_555
O11 V5 1.987867 1_655
O12 P3 1.487971 1_555
O13 P4 1.497849 1_555
O14 P3 1.572258 1_555
O14 V0 1.946966 1_555
O15 P7 1.549223 1_555
O15 V2 1.898048 1_555
O16 P3 1.575528 1_555
O16 V3 1.957045 1_565
O17 P2 1.542545 1_555
O17 V0 1.909896 1_555
O18 P5 1.605244 1_555
O18 P6 1.622102 1_555
O19 P6 1.497059 1_555
O20 P5 1.513443 1_555
O21 P5 1.529331 1_555
O21 V1 1.929984 1_555
O22 P4 1.579285 1_555
O22 V1 1.950077 1_555
O23 P8 1.554445 1_555
O23 V0 1.934960 1_555
O24 P9 1.551948 1_555
O24 V0 1.871889 1_555
O25 P9 1.552955 1_555
O25 V3 1.957735 1_565
O26 P8 1.609955 1_555
O26 P1 1.621232 1_545
O27 P1 1.492666 1_555
O28 P14 1.514842 1_555
O29 P6 1.555535 1_555
O29 V2 1.965141 1_545
O30 P6 1.540553 1_555
O30 V1 1.921220 1_555
O31 P7 1.553990 1_555
O31 V1 1.954343 1_555
O32 P11 1.576368 1_555
O32 V0 1.866846 1_555
O33 P10 1.531750 1_555
O33 V0 1.936418 1_555
O34 P10 1.509795 1_555
O35 P9 1.489254 1_555
O36 P9 1.613389 1_555
O36 P10 1.618075 1_555
O37 P13 1.554729 1_555
O37 V1 1.977254 1_555
O38 P12 1.581615 1_555
O38 V2 1.954916 1_545
O39 P8 1.549218 1_555
O39 V3 1.891394 1_555
O40 P12 1.574045 1_555
O40 V1 1.950255 1_555
O41 P12 1.494034 1_555
O42 P11 1.483071 1_555
O43 P11 1.578538 1_555
O43 V4 1.857746 1_455
O44 P14 1.530826 1_555
O44 V2 1.933526 1_545
O45 P11 1.564762 1_555
O45 V3 1.960914 1_555
O46 P10 1.544509 1_555
O46 V4 1.899027 1_455
O47 P13 1.605771 1_555
O47 P0 1.615333 1_455
O48 P0 1.500548 1_455
O49 P13 1.547468 1_555
O49 V5 1.914536 1_555
O50 P12 1.563089 1_555
O50 V5 1.903168 1_555
O51 P15 1.544044 1_555
O51 V4 1.923741 1_455
O52 P15 1.553198 1_555
O52 V3 1.981548 1_555
O53 P7 1.496654 1_555
O54 P7 1.614102 1_545
O54 P14 1.622005 1_555
O55 P14 1.547739 1_555
O55 V5 2.006812 1_555
O56 P2 1.508418 1_555
O57 P2 1.602412 1_455
O57 P15 1.625954 1_555
