# generated using pymatgen
data_K8Al2O7
_symmetry_space_group_name_H-M   'P 1'
_cell_length_a   12.24139000
_cell_length_b   9.55706600
_cell_length_c   11.25948812
_cell_angle_alpha   72.03422503
_cell_angle_beta   90.00000000
_cell_angle_gamma   90.00000000
_symmetry_Int_Tables_number   1
_chemical_formula_structural   K8Al2O7
_chemical_formula_sum   'K32 Al8 O28'
_cell_volume   1253.03873785
_cell_formula_units_Z   4
loop_
 _symmetry_equiv_pos_site_id
 _symmetry_equiv_pos_as_xyz
  1  'x, y, z'
loop_
 _atom_site_type_symbol
 _atom_site_label
 _atom_site_symmetry_multiplicity
 _atom_site_fract_x
 _atom_site_fract_y
 _atom_site_fract_z
 _atom_site_occupancy
  K  K0  1  0.52423700  0.88364400  0.92392900  1
  K  K1  1  0.53903500  0.92043500  0.64298200  1
  K  K2  1  0.25932200  0.89505900  0.53128800  1
  K  K3  1  0.97576300  0.88364400  0.42392900  1
  K  K4  1  0.05799100  0.75406700  0.71217500  1
  K  K5  1  0.96096500  0.92043500  0.14298200  1
  K  K6  1  0.75667000  0.70861700  0.56865200  1
  K  K7  1  0.24067800  0.89505900  0.03128800  1
  K  K8  1  0.53315600  0.57309300  0.85840700  1
  K  K9  1  0.49156500  0.66395000  0.51762200  1
  K  K10  1  0.44200900  0.75406700  0.21217500  1
  K  K11  1  0.77207100  0.50462200  0.87128600  1
  K  K12  1  0.74333000  0.70861700  0.06865200  1
  K  K13  1  0.27207100  0.49537800  0.62871400  1
  K  K14  1  0.96684400  0.57309300  0.35840700  1
  K  K15  1  0.99156500  0.33605000  0.98237800  1
  K  K16  1  0.00843500  0.66395000  0.01762200  1
  K  K17  1  0.03315600  0.42690700  0.64159300  1
  K  K18  1  0.72792900  0.50462200  0.37128600  1
  K  K19  1  0.25667000  0.29138300  0.93134800  1
  K  K20  1  0.22792900  0.49537800  0.12871400  1
  K  K21  1  0.55799100  0.24593300  0.78782500  1
  K  K22  1  0.50843500  0.33605000  0.48237800  1
  K  K23  1  0.46684400  0.42690700  0.14159300  1
  K  K24  1  0.75932200  0.10494100  0.96871200  1
  K  K25  1  0.24333000  0.29138300  0.43134800  1
  K  K26  1  0.03903500  0.07956500  0.85701800  1
  K  K27  1  0.94200900  0.24593300  0.28782500  1
  K  K28  1  0.02423700  0.11635600  0.57607100  1
  K  K29  1  0.74067800  0.10494100  0.46871200  1
  K  K30  1  0.46096500  0.07956500  0.35701800  1
  K  K31  1  0.47576300  0.11635600  0.07607100  1
  Al  Al0  1  0.79933400  0.91548400  0.76849600  1
  Al  Al1  1  0.70066600  0.91548400  0.26849600  1
  Al  Al2  1  0.29176800  0.70516200  0.84037500  1
  Al  Al3  1  0.20823200  0.70516200  0.34037500  1
  Al  Al4  1  0.79176800  0.29483800  0.65962500  1
  Al  Al5  1  0.70823200  0.29483800  0.15962500  1
  Al  Al6  1  0.29933400  0.08451600  0.73150400  1
  Al  Al7  1  0.20066600  0.08451600  0.23150400  1
  O  O0  1  0.88269000  0.88707500  0.90803300  1
  O  O1  1  0.23604100  0.89591900  0.78138100  1
  O  O2  1  0.87859100  0.89920500  0.63828000  1
  O  O3  1  0.61731000  0.88707500  0.40803300  1
  O  O4  1  0.68739800  0.78417800  0.80514100  1
  O  O5  1  0.26395900  0.89591900  0.28138100  1
  O  O6  1  0.62140900  0.89920500  0.13828000  1
  O  O7  1  0.37472900  0.68112900  0.71437800  1
  O  O8  1  0.81260200  0.78417800  0.30514100  1
  O  O9  1  0.17387900  0.57984300  0.88249300  1
  O  O10  1  0.12437100  0.67564400  0.47918700  1
  O  O11  1  0.12527100  0.68112900  0.21437800  1
  O  O12  1  0.32612100  0.57984300  0.38249300  1
  O  O13  1  0.62437100  0.32435600  0.02081300  1
  O  O14  1  0.37562900  0.67564400  0.97918700  1
  O  O15  1  0.67387900  0.42015700  0.61750700  1
  O  O16  1  0.87472900  0.31887100  0.78562200  1
  O  O17  1  0.87562900  0.32435600  0.52081300  1
  O  O18  1  0.82612100  0.42015700  0.11750700  1
  O  O19  1  0.18739800  0.21582200  0.69485900  1
  O  O20  1  0.62527100  0.31887100  0.28562200  1
  O  O21  1  0.37859100  0.10079500  0.86172000  1
  O  O22  1  0.73604100  0.10408100  0.71861900  1
  O  O23  1  0.31260200  0.21582200  0.19485900  1
  O  O24  1  0.38269000  0.11292500  0.59196700  1
  O  O25  1  0.12140900  0.10079500  0.36172000  1
  O  O26  1  0.76395900  0.10408100  0.21861900  1
  O  O27  1  0.11731000  0.11292500  0.09196700  1
loop_
_geom_bond_atom_site_label_1
_geom_bond_atom_site_label_2
_geom_bond_distance
_geom_bond_site_symmetry_2
K0 O14 2.623951 1_555
K0 O21 2.660754 1_565
K0 O4 2.732425 1_555
K0 O6 2.735579 1_556
K1 O24 2.593314 1_565
K1 O4 2.619377 1_555
K1 O3 2.922030 1_555
K1 O7 2.964484 1_555
K1 O22 3.247114 1_565
K2 O7 2.797438 1_555
K2 O5 2.811874 1_555
K2 O24 2.821425 1_565
K2 O1 2.832837 1_555
K2 O25 2.836482 1_565
K2 O10 2.868681 1_555
K3 O10 2.623951 1_655
K3 O25 2.660754 1_665
K3 O8 2.732425 1_555
K3 O2 2.735579 1_555
K4 O9 2.548079 1_555
K4 O2 2.593686 1_455
K4 O1 2.801309 1_555
K4 O10 3.052342 1_555
K5 O27 2.593314 1_665
K5 O8 2.619377 1_555
K5 O0 2.922030 1_554
K5 O11 2.964484 1_655
K5 O26 3.247114 1_565
K6 O2 2.653444 1_555
K6 O3 2.680857 1_555
K6 O15 2.827424 1_555
K6 O8 2.910602 1_555
K6 O4 3.084963 1_555
K7 O11 2.797438 1_555
K7 O1 2.811874 1_554
K7 O27 2.821425 1_565
K7 O5 2.832837 1_555
K7 O21 2.836482 1_564
K7 O14 2.868681 1_554
K8 O7 2.534593 1_555
K8 O4 2.692227 1_555
K8 O14 2.711220 1_555
K8 O13 2.749551 1_556
K9 O3 2.610745 1_555
K9 O7 2.684172 1_555
K9 O12 2.795924 1_555
K9 O15 3.171406 1_555
K10 O12 2.548079 1_555
K10 O6 2.593686 1_555
K10 O5 2.801309 1_555
K10 O14 3.052342 1_554
K11 O16 2.591778 1_555
K11 O13 2.698577 1_556
K11 O18 2.719304 1_556
K11 O4 2.745851 1_555
K12 O6 2.653444 1_555
K12 O0 2.680857 1_554
K12 O18 2.827424 1_555
K12 O4 2.910602 1_554
K12 O8 3.084963 1_555
K13 O7 2.591778 1_555
K13 O10 2.698577 1_555
K13 O12 2.719304 1_555
K13 O19 2.745851 1_555
K14 O11 2.534593 1_655
K14 O8 2.692227 1_555
K14 O10 2.711220 1_655
K14 O17 2.749551 1_555
K15 O27 2.610745 1_656
K15 O16 2.684172 1_555
K15 O18 2.795924 1_556
K15 O9 3.171406 1_655
K16 O0 2.610745 1_454
K16 O11 2.684172 1_555
K16 O9 2.795924 1_554
K16 O18 3.171406 1_455
K17 O16 2.534593 1_455
K17 O19 2.692227 1_555
K17 O17 2.711220 1_455
K17 O10 2.749551 1_555
K18 O20 2.591778 1_555
K18 O17 2.698577 1_555
K18 O15 2.719304 1_555
K18 O8 2.745851 1_555
K19 O21 2.653444 1_555
K19 O27 2.680857 1_556
K19 O9 2.827424 1_555
K19 O23 2.910602 1_556
K19 O19 3.084963 1_555
K20 O11 2.591778 1_555
K20 O14 2.698577 1_554
K20 O9 2.719304 1_554
K20 O23 2.745851 1_555
K21 O15 2.548079 1_555
K21 O21 2.593686 1_555
K21 O22 2.801309 1_555
K21 O13 3.052342 1_556
K22 O24 2.610745 1_555
K22 O20 2.684172 1_555
K22 O15 2.795924 1_555
K22 O12 3.171406 1_555
K23 O20 2.534593 1_555
K23 O23 2.692227 1_555
K23 O13 2.711220 1_555
K23 O14 2.749551 1_554
K24 O16 2.797438 1_555
K24 O26 2.811874 1_556
K24 O0 2.821425 1_545
K24 O22 2.832837 1_555
K24 O6 2.836482 1_546
K24 O13 2.868681 1_556
K25 O25 2.653444 1_555
K25 O24 2.680857 1_555
K25 O12 2.827424 1_555
K25 O19 2.910602 1_555
K25 O23 3.084963 1_555
K26 O0 2.593314 1_445
K26 O19 2.619377 1_555
K26 O27 2.922030 1_556
K26 O16 2.964484 1_455
K26 O1 3.247114 1_545
K27 O18 2.548079 1_555
K27 O25 2.593686 1_655
K27 O26 2.801309 1_555
K27 O17 3.052342 1_555
K28 O17 2.623951 1_455
K28 O2 2.660754 1_445
K28 O19 2.732425 1_555
K28 O25 2.735579 1_555
K29 O20 2.797438 1_555
K29 O22 2.811874 1_555
K29 O3 2.821425 1_545
K29 O26 2.832837 1_555
K29 O2 2.836482 1_545
K29 O17 2.868681 1_555
K30 O3 2.593314 1_545
K30 O23 2.619377 1_555
K30 O24 2.922030 1_555
K30 O20 2.964484 1_555
K30 O5 3.247114 1_545
K31 O13 2.623951 1_555
K31 O6 2.660754 1_545
K31 O23 2.732425 1_555
K31 O21 2.735579 1_554
Al0 O2 1.804406 1_555
Al0 O4 1.817469 1_555
Al0 O0 1.822134 1_555
Al0 O22 1.881493 1_565
Al1 O6 1.804406 1_555
Al1 O8 1.817469 1_555
Al1 O3 1.822134 1_555
Al1 O26 1.881493 1_565
Al2 O7 1.815965 1_555
Al2 O14 1.817762 1_555
Al2 O9 1.841620 1_555
Al2 O1 1.866320 1_555
Al3 O11 1.815965 1_555
Al3 O10 1.817762 1_555
Al3 O12 1.841620 1_555
Al3 O5 1.866320 1_555
Al4 O16 1.815965 1_555
Al4 O17 1.817762 1_555
Al4 O15 1.841620 1_555
Al4 O22 1.866320 1_555
Al5 O20 1.815965 1_555
Al5 O13 1.817762 1_555
Al5 O18 1.841620 1_555
Al5 O26 1.866320 1_555
Al6 O21 1.804406 1_555
Al6 O19 1.817469 1_555
Al6 O24 1.822134 1_555
Al6 O1 1.881493 1_545
Al7 O25 1.804406 1_555
Al7 O23 1.817469 1_555
Al7 O27 1.822134 1_555
Al7 O5 1.881493 1_545
