# generated using pymatgen
data_Ca5La7Mn7Ru5O36
_symmetry_space_group_name_H-M   'P 1'
_cell_length_a   5.56082136
_cell_length_b   5.65386631
_cell_length_c   23.69855559
_cell_angle_alpha   89.82751242
_cell_angle_beta   90.10070298
_cell_angle_gamma   90.16411406
_symmetry_Int_Tables_number   1
_chemical_formula_structural   Ca5La7Mn7Ru5O36
_chemical_formula_sum   'Ca5 La7 Mn7 Ru5 O36'
_cell_volume   745.07834552
_cell_formula_units_Z   1
loop_
 _symmetry_equiv_pos_site_id
 _symmetry_equiv_pos_as_xyz
  1  'x, y, z'
loop_
 _atom_site_type_symbol
 _atom_site_label
 _atom_site_symmetry_multiplicity
 _atom_site_fract_x
 _atom_site_fract_y
 _atom_site_fract_z
 _atom_site_occupancy
  Ca  Ca0  1  0.01040200  0.05010200  0.08575300  1
  Ca  Ca1  1  0.48382200  0.55660900  0.08560300  1
  Ca  Ca2  1  0.51656300  0.44409100  0.24903400  1
  Ca  Ca3  1  0.98768300  0.94968500  0.24952100  1
  Ca  Ca4  1  0.99202500  0.95773900  0.57922300  1
  La  La0  1  0.00834600  0.03898300  0.41753500  1
  La  La1  1  0.00563900  0.03665100  0.75041400  1
  La  La2  1  0.48872800  0.54201000  0.41562000  1
  La  La3  1  0.48758700  0.54182600  0.75165300  1
  La  La4  1  0.51340800  0.45616100  0.57968700  1
  La  La5  1  0.51187200  0.45904500  0.91826500  1
  La  La6  1  0.99194400  0.96141900  0.91773200  1
  Mn  Mn0  1  0.99866700  0.49943300  0.83417800  1
  Mn  Mn1  1  0.50107000  0.99920300  0.50028200  1
  Mn  Mn2  1  0.49866800  0.00039000  0.83397100  1
  Mn  Mn3  1  0.49691900  0.00080000  0.00434700  1
  Mn  Mn4  1  0.50142900  0.99914400  0.33001400  1
  Mn  Mn5  1  0.49996600  0.00017500  0.66428100  1
  Mn  Mn6  1  0.00118800  0.50100900  0.50032800  1
  Ru  Ru0  1  0.99994300  0.50226500  0.00467800  1
  Ru  Ru1  1  0.00099000  0.50043300  0.16703300  1
  Ru  Ru2  1  0.99956200  0.49950800  0.66442900  1
  Ru  Ru3  1  0.50163800  0.99963000  0.16730600  1
  Ru  Ru4  1  0.00054100  0.49790200  0.32931500  1
  O  O0  1  0.09570300  0.52671900  0.24883700  1
  O  O1  1  0.09158600  0.53601600  0.58578500  1
  O  O2  1  0.08918000  0.52338500  0.92175200  1
  O  O3  1  0.20580600  0.79282600  0.14970700  1
  O  O4  1  0.22195900  0.78239000  0.48407800  1
  O  O5  1  0.21801800  0.78337000  0.81912400  1
  O  O6  1  0.20047900  0.78187100  0.34886000  1
  O  O7  1  0.18767200  0.79752400  0.01759200  1
  O  O8  1  0.20493900  0.78007000  0.68488100  1
  O  O9  1  0.29384300  0.31103700  0.01625600  1
  O  O10  1  0.28135500  0.29530400  0.34901000  1
  O  O11  1  0.28640400  0.29746200  0.68255200  1
  O  O12  1  0.29579600  0.29164600  0.14925200  1
  O  O13  1  0.28450200  0.28779900  0.48556700  1
  O  O14  1  0.27721600  0.28255900  0.81950100  1
  O  O15  1  0.41216100  0.02353000  0.58332100  1
  O  O16  1  0.40136300  0.03287200  0.24820000  1
  O  O17  1  0.42139900  0.01647400  0.91809600  1
  O  O18  1  0.60016700  0.96561500  0.08699800  1
  O  O19  1  0.57672600  0.98572400  0.41404900  1
  O  O20  1  0.57869900  0.98406300  0.74897400  1
  O  O21  1  0.70378400  0.70735600  0.18458000  1
  O  O22  1  0.71823400  0.71401700  0.51243100  1
  O  O23  1  0.71895800  0.71610600  0.84757000  1
  O  O24  1  0.70784600  0.69275100  0.31689900  1
  O  O25  1  0.70940800  0.69414900  0.65230600  1
  O  O26  1  0.71897300  0.70642500  0.98397500  1
  O  O27  1  0.80643600  0.20636000  0.31603600  1
  O  O28  1  0.80995100  0.20721500  0.64908100  1
  O  O29  1  0.79775100  0.22122900  0.98425900  1
  O  O30  1  0.79522200  0.20615500  0.18395300  1
  O  O31  1  0.77907300  0.21656900  0.84831200  1
  O  O32  1  0.78503000  0.21548100  0.51418900  1
  O  O33  1  0.90067500  0.46973400  0.08482500  1
  O  O34  1  0.91442700  0.47877700  0.41209100  1
  O  O35  1  0.91065800  0.47520200  0.74689800  1
loop_
_geom_bond_atom_site_label_1
_geom_bond_atom_site_label_2
_geom_bond_distance
_geom_bond_site_symmetry_2
Ca0 O18 2.329598 1_445
Ca0 O3 2.362980 1_545
Ca0 O7 2.376519 1_545
Ca0 O33 2.451466 1_455
Ca0 O12 2.576773 1_555
Ca0 O9 2.711917 1_555
Ca0 O30 2.766642 1_455
Ca0 O29 2.846450 1_454
Ca1 O12 2.365510 1_555
Ca1 O33 2.371003 1_555
Ca1 O9 2.396639 1_555
Ca1 O18 2.399787 1_555
Ca1 O3 2.552246 1_555
Ca1 O7 2.674971 1_555
Ca1 O21 2.778568 1_555
Ca1 O26 2.867122 1_554
Ca2 O21 2.369726 1_555
Ca2 O24 2.386134 1_555
Ca2 O0 2.387805 1_555
Ca2 O16 2.409976 1_555
Ca2 O30 2.573422 1_555
Ca2 O27 2.629974 1_555
Ca2 O12 2.799599 1_555
Ca2 O10 2.832754 1_555
Ca3 O16 2.346912 1_665
Ca3 O27 2.373671 1_565
Ca3 O30 2.377401 1_565
Ca3 O0 2.467456 1_655
Ca3 O21 2.594186 1_555
Ca3 O24 2.657675 1_555
Ca3 O6 2.797476 1_655
Ca3 O3 2.807485 1_655
Ca4 O15 2.366546 1_665
Ca4 O28 2.404904 1_565
Ca4 O32 2.411156 1_565
Ca4 O1 2.453758 1_655
Ca4 O22 2.591323 1_555
Ca4 O25 2.769689 1_555
Ca4 O4 2.780777 1_655
Ca4 O8 2.943098 1_655
La0 O19 2.419419 1_445
La0 O6 2.435713 1_545
La0 O4 2.447862 1_545
La0 O34 2.545102 1_455
La0 O13 2.632338 1_555
La0 O10 2.650297 1_555
La0 O32 2.795611 1_455
La0 O27 2.815124 1_455
La1 O20 2.392034 1_445
La1 O8 2.402805 1_545
La1 O5 2.466937 1_545
La1 O35 2.537711 1_455
La1 O14 2.624369 1_555
La1 O11 2.679513 1_555
La1 O28 2.804271 1_455
La1 O31 2.834874 1_455
La2 O34 2.396735 1_555
La2 O10 2.401015 1_555
La2 O13 2.467021 1_555
La2 O19 2.554777 1_555
La2 O4 2.590955 1_555
La2 O6 2.627189 1_555
La2 O24 2.770665 1_555
La2 O22 2.798985 1_555
La3 O35 2.386563 1_555
La3 O11 2.416702 1_555
La3 O14 2.466820 1_555
La3 O20 2.550368 1_555
La3 O5 2.588839 1_555
La3 O8 2.603721 1_555
La3 O23 2.790914 1_555
La3 O25 2.792535 1_555
La4 O1 2.394698 1_555
La4 O22 2.438452 1_555
La4 O25 2.441128 1_555
La4 O15 2.509685 1_555
La4 O32 2.564219 1_555
La4 O28 2.719317 1_555
La4 O13 2.738142 1_555
La4 O11 2.886581 1_555
La5 O2 2.381142 1_555
La5 O26 2.388532 1_555
La5 O23 2.495565 1_555
La5 O17 2.550914 1_555
La5 O29 2.602294 1_555
La5 O31 2.620968 1_555
La5 O9 2.748715 1_556
La5 O14 2.858755 1_555
La6 O17 2.407443 1_665
La6 O29 2.416309 1_565
La6 O31 2.485450 1_565
La6 O2 2.537911 1_655
La6 O26 2.613300 1_555
La6 O23 2.643053 1_555
La6 O7 2.761760 1_656
La6 O5 2.843679 1_655
Mn0 O23 2.008916 1_555
Mn0 O14 2.009755 1_655
Mn0 O31 2.036674 1_555
Mn0 O5 2.044286 1_655
Mn0 O35 2.129405 1_555
Mn0 O2 2.139275 1_655
Mn1 O4 2.012198 1_555
Mn1 O32 2.021587 1_565
Mn1 O15 2.035054 1_565
Mn1 O22 2.036713 1_555
Mn1 O13 2.059292 1_565
Mn1 O19 2.088837 1_555
Mn2 O31 2.007604 1_555
Mn2 O5 2.013615 1_545
Mn2 O17 2.042505 1_555
Mn2 O14 2.045893 1_555
Mn2 O23 2.048089 1_545
Mn2 O20 2.066039 1_545
Mn3 O18 2.049417 1_545
Mn3 O17 2.087667 1_554
Mn3 O7 2.089274 1_545
Mn3 O9 2.108791 1_555
Mn3 O26 2.132278 1_544
Mn3 O29 2.136732 1_554
Mn4 O16 2.024801 1_565
Mn4 O19 2.035565 1_555
Mn4 O27 2.085015 1_565
Mn4 O24 2.104976 1_555
Mn4 O6 2.120558 1_555
Mn4 O10 2.126575 1_565
Mn5 O15 1.983067 1_555
Mn5 O20 2.055354 1_545
Mn5 O11 2.107277 1_555
Mn5 O25 2.108637 1_545
Mn5 O28 2.111748 1_555
Mn5 O8 2.113286 1_545
Mn6 O22 2.005727 1_455
Mn6 O13 2.018150 1_555
Mn6 O32 2.036150 1_455
Mn6 O4 2.042839 1_555
Mn6 O1 2.095614 1_555
Mn6 O34 2.149166 1_455
O0 Ru4 1.986257 1_555
O0 Ru1 2.013825 1_555
O1 Ru2 1.943827 1_455
O2 Ru0 2.030836 1_456
O3 Ru1 2.045842 1_555
O3 Ru3 2.058357 1_555
O6 Ru4 2.005201 1_555
O7 Ru0 1.990518 1_455
O8 Ru2 2.011903 1_455
O9 Ru0 1.980406 1_455
O10 Ru4 1.993203 1_555
O11 Ru2 2.009664 1_455
O12 Ru3 2.055237 1_545
O12 Ru1 2.067621 1_555
O16 Ru3 2.006973 1_545
O18 Ru3 1.991422 1_555
O21 Ru3 2.041277 1_555
O21 Ru1 2.071109 1_655
O24 Ru4 1.988972 1_655
O25 Ru2 1.975750 1_555
O26 Ru0 2.004622 1_556
O27 Ru4 1.993203 1_655
O28 Ru2 1.991825 1_555
O29 Ru0 2.003882 1_556
O30 Ru3 2.043024 1_545
O30 Ru1 2.055484 1_655
O33 Ru0 1.986742 1_555
O33 Ru1 2.033345 1_655
O34 Ru4 2.022594 1_655
O35 Ru2 2.020978 1_555
