# generated using pymatgen
data_Li3Ti2(PO4)3
_symmetry_space_group_name_H-M   'P 1'
_cell_length_a   4.96862546
_cell_length_b   4.96862546
_cell_length_c   18.61473440
_cell_angle_alpha   89.63124619
_cell_angle_beta   89.63124619
_cell_angle_gamma   66.84018246
_symmetry_Int_Tables_number   1
_chemical_formula_structural   Li3Ti2(PO4)3
_chemical_formula_sum   'Li6 Ti4 P6 O24'
_cell_volume   422.49963113
_cell_formula_units_Z   2
loop_
 _symmetry_equiv_pos_site_id
 _symmetry_equiv_pos_as_xyz
  1  'x, y, z'
loop_
 _atom_site_type_symbol
 _atom_site_label
 _atom_site_symmetry_multiplicity
 _atom_site_fract_x
 _atom_site_fract_y
 _atom_site_fract_z
 _atom_site_occupancy
  Li  Li0  1  0.99990700  0.99990700  0.16752100  1
  Li  Li1  1  0.32937200  0.32937200  0.91249300  1
  Li  Li2  1  0.33009200  0.33009200  0.24555500  1
  Li  Li3  1  0.00009300  0.00009300  0.83247900  1
  Li  Li4  1  0.66990800  0.66990800  0.75444500  1
  Li  Li5  1  0.67062800  0.67062800  0.08750700  1
  Ti  Ti0  1  0.00000000  0.00000000  0.50000000  1
  Ti  Ti1  1  0.99833600  0.99833600  0.33639100  1
  Ti  Ti2  1  0.00166400  0.00166400  0.66360900  1
  Ti  Ti3  1  0.00000000  0.00000000  0.00000000  1
  P  P0  1  0.34771800  0.34771800  0.74715000  1
  P  P1  1  0.34625300  0.34625300  0.41680200  1
  P  P2  1  0.35104900  0.35104900  0.08057500  1
  P  P3  1  0.65374700  0.65374700  0.58319800  1
  P  P4  1  0.64895100  0.64895100  0.91942500  1
  P  P5  1  0.65228200  0.65228200  0.25285000  1
  O  O0  1  0.69053100  0.22588100  0.41772200  1
  O  O1  1  0.69227400  0.23517600  0.74142700  1
  O  O2  1  0.69518300  0.23882800  0.07696700  1
  O  O3  1  0.77411900  0.30946900  0.58227800  1
  O  O4  1  0.76117200  0.30481700  0.92303300  1
  O  O5  1  0.76482400  0.30772600  0.25857300  1
  O  O6  1  0.76405400  0.76405400  0.51717700  1
  O  O7  1  0.74991100  0.74991100  0.85128500  1
  O  O8  1  0.24493900  0.24493900  0.34728000  1
  O  O9  1  0.23207300  0.23207300  0.68239700  1
  O  O10  1  0.23594600  0.23594600  0.48282300  1
  O  O11  1  0.74698800  0.74698800  0.18301000  1
  O  O12  1  0.75722200  0.75722200  0.98746700  1
  O  O13  1  0.75506100  0.75506100  0.65272000  1
  O  O14  1  0.25301200  0.25301200  0.81699000  1
  O  O15  1  0.24277800  0.24277800  0.01253300  1
  O  O16  1  0.76792700  0.76792700  0.31760300  1
  O  O17  1  0.25008900  0.25008900  0.14871500  1
  O  O18  1  0.30946900  0.77411900  0.58227800  1
  O  O19  1  0.30772600  0.76482400  0.25857300  1
  O  O20  1  0.22588100  0.69053100  0.41772200  1
  O  O21  1  0.30481700  0.76117200  0.92303300  1
  O  O22  1  0.23882800  0.69518300  0.07696700  1
  O  O23  1  0.23517600  0.69227400  0.74142700  1
loop_
_geom_bond_atom_site_label_1
_geom_bond_atom_site_label_2
_geom_bond_distance
_geom_bond_site_symmetry_2
Li0 O17 2.101711 1_665
Li0 O11 2.115272 1_555
Li0 O2 2.266338 1_565
Li0 O22 2.266338 1_655
Li0 O5 2.275717 1_565
Li0 O19 2.275717 1_655
Li1 O14 1.891806 1_555
Li1 O15 1.990748 1_556
Li1 O4 2.110820 1_555
Li1 O21 2.110820 1_555
Li2 O17 1.925697 1_555
Li2 O8 2.015901 1_555
Li2 O5 2.134089 1_555
Li2 O19 2.134089 1_555
Li3 O7 2.101711 1_445
Li3 O14 2.115272 1_555
Li3 O21 2.266338 1_545
Li3 O4 2.266338 1_455
Li3 O1 2.275717 1_455
Li3 O23 2.275717 1_545
Li4 O7 1.925697 1_555
Li4 O13 2.015901 1_555
Li4 O23 2.134089 1_555
Li4 O1 2.134089 1_555
Li5 O11 1.891806 1_555
Li5 O12 1.990748 1_554
Li5 O2 2.110820 1_555
Li5 O22 2.110820 1_555
O0 P1 1.574678 1_555
O0 Ti1 2.131054 1_545
O0 Ti0 2.149515 1_655
O1 P0 1.581229 1_555
O1 Ti2 2.097050 1_655
O2 P2 1.577385 1_555
O2 Ti3 2.082037 1_655
O3 P3 1.574678 1_555
O3 Ti2 2.131054 1_655
O3 Ti0 2.149515 1_655
O4 P4 1.577385 1_555
O4 Ti3 2.082037 1_656
O5 P5 1.581229 1_555
O5 Ti1 2.097050 1_545
O6 P3 1.526454 1_555
O6 Ti0 1.980492 1_665
O7 P4 1.514491 1_555
O8 P1 1.548445 1_555
O8 Ti1 2.056942 1_445
O9 P0 1.546204 1_555
O9 Ti2 1.945441 1_555
O10 P1 1.526454 1_555
O10 Ti0 1.980492 1_555
O11 P5 1.513741 1_555
O12 P4 1.558272 1_555
O12 Ti3 2.028899 1_666
O13 P3 1.548445 1_555
O13 Ti2 2.056942 1_665
O14 P0 1.513741 1_555
O15 P2 1.558272 1_555
O15 Ti3 2.028899 1_555
O16 P5 1.546204 1_555
O16 Ti1 1.945441 1_555
O17 P2 1.514491 1_555
O18 P3 1.574678 1_555
O18 Ti2 2.131054 1_565
O18 Ti0 2.149515 1_565
O19 P5 1.581229 1_555
O19 Ti1 2.097050 1_455
O20 P1 1.574678 1_555
O20 Ti1 2.131054 1_455
O20 Ti0 2.149515 1_565
O21 P4 1.577385 1_555
O21 Ti3 2.082037 1_566
O22 P2 1.577385 1_555
O22 Ti3 2.082037 1_565
O23 P0 1.581229 1_555
O23 Ti2 2.097050 1_565
