# generated using pymatgen
data_La2Nb2N2O5
_symmetry_space_group_name_H-M   'P 1'
_cell_length_a   8.05266300
_cell_length_b   13.74421740
_cell_length_c   5.71461526
_cell_angle_alpha   91.17967957
_cell_angle_beta   89.98901130
_cell_angle_gamma   98.38065898
_symmetry_Int_Tables_number   1
_chemical_formula_structural   La2Nb2N2O5
_chemical_formula_sum   'La8 Nb8 N8 O20'
_cell_volume   625.59059804
_cell_formula_units_Z   4
loop_
 _symmetry_equiv_pos_site_id
 _symmetry_equiv_pos_as_xyz
  1  'x, y, z'
loop_
 _atom_site_type_symbol
 _atom_site_label
 _atom_site_symmetry_multiplicity
 _atom_site_fract_x
 _atom_site_fract_y
 _atom_site_fract_z
 _atom_site_occupancy
  La  La0  1  0.56763100  0.33923900  0.13364000  1
  La  La1  1  0.90964800  0.76522600  0.21459400  1
  La  La2  1  0.12226900  0.25304600  0.27530000  1
  La  La3  1  0.38143700  0.77284400  0.33856400  1
  La  La4  1  0.61628400  0.28686200  0.67386200  1
  La  La5  1  0.88055500  0.75180900  0.72941300  1
  La  La6  1  0.09309600  0.26502900  0.77962600  1
  La  La7  1  0.43233400  0.82986900  0.86234000  1
  Nb  Nb0  1  0.31210400  0.26319000  0.05835400  1
  Nb  Nb1  1  0.10907100  0.73957600  0.01736400  1
  Nb  Nb2  1  0.67345900  0.79385200  0.41487600  1
  Nb  Nb3  1  0.88244200  0.26467300  0.47072100  1
  Nb  Nb4  1  0.11828900  0.76630300  0.53516600  1
  Nb  Nb5  1  0.32645300  0.28423800  0.58755200  1
  Nb  Nb6  1  0.87523200  0.26431000  0.96340100  1
  Nb  Nb7  1  0.67635400  0.78640100  0.92801500  1
  N  N0  1  0.19011800  0.45645700  0.02993000  1
  N  N1  1  0.77269500  0.45507000  0.87269300  1
  N  N2  1  0.98634300  0.53948900  0.96110900  1
  N  N3  1  0.56923700  0.55754900  0.87328100  1
  N  N4  1  0.10875900  0.82088000  0.77127000  1
  N  N5  1  0.30378700  0.19278100  0.82293500  1
  N  N6  1  0.82178800  0.94091100  0.97456600  1
  N  N7  1  0.59006100  0.04592200  0.91624200  1
  O  O0  1  0.40933700  0.54058700  0.09187400  1
  O  O1  1  0.69609200  0.68802500  0.18250700  1
  O  O2  1  0.88974200  0.32131400  0.22923500  1
  O  O3  1  0.42999500  0.05315800  0.13613600  1
  O  O4  1  0.02570300  0.03950800  0.05111000  1
  O  O5  1  0.23037900  0.97277200  0.12600600  1
  O  O6  1  0.61419400  0.07869900  0.37457600  1
  O  O7  1  0.82076800  0.94357800  0.43121500  1
  O  O8  1  0.08639200  0.67365700  0.27761800  1
  O  O9  1  0.30448600  0.35249700  0.33716900  1
  O  O10  1  0.56080300  0.58685100  0.40918000  1
  O  O11  1  0.98072200  0.52385800  0.53580800  1
  O  O12  1  0.77461300  0.45393300  0.49915900  1
  O  O13  1  0.22805400  0.96298700  0.49731400  1
  O  O14  1  0.01941900  0.02968000  0.46138000  1
  O  O15  1  0.43663200  0.08056900  0.58700200  1
  O  O16  1  0.69505300  0.84700400  0.66327800  1
  O  O17  1  0.91237100  0.17413500  0.72156200  1
  O  O18  1  0.17843800  0.44498400  0.56501700  1
  O  O19  1  0.38736000  0.58165800  0.61803900  1
loop_
_geom_bond_atom_site_label_1
_geom_bond_atom_site_label_2
_geom_bond_distance
_geom_bond_site_symmetry_2
La0 Nb0 2.206018 1_555
La0 O9 2.445221 1_555
La0 N1 2.610654 1_554
La0 O2 2.698065 1_555
La0 O12 2.953980 1_555
La1 O1 1.891308 1_555
La1 O8 2.068893 1_655
La1 O7 2.905118 1_555
La2 O9 1.882039 1_555
La2 O2 2.231209 1_455
La2 O14 3.261053 1_555
La3 Nb2 2.366568 1_555
La3 Nb4 2.389226 1_555
La3 O8 2.580942 1_555
La3 O19 3.109206 1_555
La3 O13 3.165617 1_555
La4 Nb5 2.380523 1_555
La4 Nb3 2.491844 1_555
La4 O12 2.671251 1_555
La4 N1 2.695524 1_555
La4 Nb6 2.718967 1_555
La4 N5 2.797537 1_555
La4 O15 3.020769 1_555
La4 O6 3.300826 1_555
La5 N4 1.953890 1_655
La5 Nb7 2.103093 1_555
La5 O16 2.162495 1_555
La5 Nb4 2.198615 1_655
La6 O17 1.800519 1_455
La6 N5 2.104090 1_555
La6 O18 2.779006 1_555
La7 Nb7 2.170432 1_555
La7 O16 2.385392 1_555
La7 N4 2.641876 1_555
La7 N7 3.064143 1_565
La7 O5 3.095321 1_556
Nb0 O9 1.997614 1_555
Nb1 O8 1.753072 1_555
Nb2 O16 1.580925 1_555
Nb2 O1 1.977317 1_555
Nb2 O7 2.220637 1_555
Nb3 O2 1.595230 1_555
Nb3 O17 1.955086 1_555
Nb3 O12 2.861418 1_555
Nb4 O8 1.918641 1_555
Nb4 O13 2.731889 1_555
Nb5 O9 1.750001 1_555
Nb5 O18 2.664162 1_555
Nb6 O2 1.691048 1_556
Nb6 O17 1.890198 1_555
Nb7 O16 1.737953 1_555
Nb7 O1 2.027856 1_556
N0 O0 1.991730 1_555
N1 N2 1.988903 1_555
N1 O12 2.134408 1_555
N1 Nb6 2.917486 1_555
N2 Nb1 2.795398 1_656
N3 O0 1.787911 1_556
N3 O19 2.131798 1_555
N4 Nb4 1.537560 1_555
N4 Nb1 1.814393 1_556
N5 Nb0 1.636584 1_556
N5 Nb5 1.850778 1_555
N6 O4 2.012788 1_666
N6 Nb7 2.281220 1_555
N7 O3 1.811621 1_556
O3 O5 1.813175 1_545
O3 O6 2.002335 1_555
O10 O19 1.831440 1_555
O11 O12 1.802519 1_555
O11 O18 2.061221 1_655
O13 O14 2.040055 1_565
O14 O7 1.851753 1_445
O15 O6 1.878169 1_555
