# generated using pymatgen
data_Dy3Co29(Si2B5)2
_symmetry_space_group_name_H-M   'P 1'
_cell_length_a   11.13335500
_cell_length_b   11.13335500
_cell_length_c   7.82503100
_cell_angle_alpha   90.00000000
_cell_angle_beta   90.00000000
_cell_angle_gamma   90.00000000
_symmetry_Int_Tables_number   1
_chemical_formula_structural   Dy3Co29(Si2B5)2
_chemical_formula_sum   'Dy6 Co58 Si8 B20'
_cell_volume   969.92506208
_cell_formula_units_Z   2
loop_
 _symmetry_equiv_pos_site_id
 _symmetry_equiv_pos_as_xyz
  1  'x, y, z'
loop_
 _atom_site_type_symbol
 _atom_site_label
 _atom_site_symmetry_multiplicity
 _atom_site_fract_x
 _atom_site_fract_y
 _atom_site_fract_z
 _atom_site_occupancy
  Dy  Dy0  1  0.75000000  0.25000000  0.00000000  1
  Dy  Dy1  1  0.25000000  0.25000000  0.00000000  1
  Dy  Dy2  1  0.50000000  0.50000000  0.50000000  1
  Dy  Dy3  1  0.75000000  0.75000000  0.00000000  1
  Dy  Dy4  1  0.25000000  0.75000000  0.00000000  1
  Dy  Dy5  1  0.00000000  0.00000000  0.50000000  1
  Co  Co0  1  0.00000000  0.27224700  0.47399800  1
  Co  Co1  1  0.33847600  0.32570000  0.33591300  1
  Co  Co2  1  0.66152400  0.32570000  0.33591300  1
  Co  Co3  1  0.00000000  0.33552900  0.97099800  1
  Co  Co4  1  0.32570000  0.33847600  0.66408700  1
  Co  Co5  1  0.67430000  0.33847600  0.66408700  1
  Co  Co6  1  0.88435300  0.38435300  0.24978400  1
  Co  Co7  1  0.11564700  0.38435300  0.24978400  1
  Co  Co8  1  0.50000000  0.38973300  0.11124300  1
  Co  Co9  1  0.88983800  0.38983800  0.69891800  1
  Co  Co10  1  0.11016200  0.38983800  0.69891800  1
  Co  Co11  1  0.83552900  0.50000000  0.97099800  1
  Co  Co12  1  0.77224700  0.50000000  0.47399800  1
  Co  Co13  1  0.00000000  0.50000000  0.46720900  1
  Co  Co14  1  0.38973300  0.50000000  0.88875700  1
  Co  Co15  1  0.61026700  0.50000000  0.88875700  1
  Co  Co16  1  0.16447100  0.50000000  0.97099800  1
  Co  Co17  1  0.22775300  0.50000000  0.47399800  1
  Co  Co18  1  0.88983800  0.61016200  0.69891800  1
  Co  Co19  1  0.11016200  0.61016200  0.69891800  1
  Co  Co20  1  0.50000000  0.61026700  0.11124300  1
  Co  Co21  1  0.88435300  0.61564700  0.24978400  1
  Co  Co22  1  0.11564700  0.61564700  0.24978400  1
  Co  Co23  1  0.32570000  0.66152400  0.66408700  1
  Co  Co24  1  0.67430000  0.66152400  0.66408700  1
  Co  Co25  1  0.00000000  0.66447100  0.97099800  1
  Co  Co26  1  0.33847600  0.67430000  0.33591300  1
  Co  Co27  1  0.66152400  0.67430000  0.33591300  1
  Co  Co28  1  0.00000000  0.72775300  0.47399800  1
  Co  Co29  1  0.50000000  0.77224700  0.52600200  1
  Co  Co30  1  0.83847600  0.82570000  0.66408700  1
  Co  Co31  1  0.16152400  0.82570000  0.66408700  1
  Co  Co32  1  0.50000000  0.83552900  0.02900200  1
  Co  Co33  1  0.82570000  0.83847600  0.33591300  1
  Co  Co34  1  0.17430000  0.83847600  0.33591300  1
  Co  Co35  1  0.38435300  0.88435300  0.75021600  1
  Co  Co36  1  0.61564700  0.88435300  0.75021600  1
  Co  Co37  1  0.00000000  0.88973300  0.88875700  1
  Co  Co38  1  0.38983800  0.88983800  0.30108200  1
  Co  Co39  1  0.61016200  0.88983800  0.30108200  1
  Co  Co40  1  0.66447100  0.00000000  0.02900200  1
  Co  Co41  1  0.72775300  0.00000000  0.52600200  1
  Co  Co42  1  0.88973300  0.00000000  0.11124300  1
  Co  Co43  1  0.11026700  0.00000000  0.11124300  1
  Co  Co44  1  0.27224700  0.00000000  0.52600200  1
  Co  Co45  1  0.33552900  0.00000000  0.02900200  1
  Co  Co46  1  0.50000000  0.00000000  0.53279100  1
  Co  Co47  1  0.38983800  0.11016200  0.30108200  1
  Co  Co48  1  0.61016200  0.11016200  0.30108200  1
  Co  Co49  1  0.00000000  0.11026700  0.88875700  1
  Co  Co50  1  0.38435300  0.11564700  0.75021600  1
  Co  Co51  1  0.61564700  0.11564700  0.75021600  1
  Co  Co52  1  0.82570000  0.16152400  0.33591300  1
  Co  Co53  1  0.17430000  0.16152400  0.33591300  1
  Co  Co54  1  0.50000000  0.16447100  0.02900200  1
  Co  Co55  1  0.83847600  0.17430000  0.66408700  1
  Co  Co56  1  0.16152400  0.17430000  0.66408700  1
  Co  Co57  1  0.50000000  0.22775300  0.52600200  1
  Si  Si0  1  0.50000000  0.31804600  0.82475400  1
  Si  Si1  1  0.31804600  0.50000000  0.17524600  1
  Si  Si2  1  0.68195400  0.50000000  0.17524600  1
  Si  Si3  1  0.50000000  0.68195400  0.82475400  1
  Si  Si4  1  0.00000000  0.81804600  0.17524600  1
  Si  Si5  1  0.81804600  0.00000000  0.82475400  1
  Si  Si6  1  0.18195400  0.00000000  0.82475400  1
  Si  Si7  1  0.00000000  0.18195400  0.17524600  1
  B  B0  1  0.81344200  0.31344200  0.48227300  1
  B  B1  1  0.18655800  0.31344200  0.48227300  1
  B  B2  1  0.50000000  0.25628900  0.26334200  1
  B  B3  1  0.00000000  0.50000000  0.10799000  1
  B  B4  1  0.00000000  0.50000000  0.85108400  1
  B  B5  1  0.25628900  0.50000000  0.73665800  1
  B  B6  1  0.74371100  0.50000000  0.73665800  1
  B  B7  1  0.50000000  0.74371100  0.26334200  1
  B  B8  1  0.81344200  0.68655800  0.48227300  1
  B  B9  1  0.18655800  0.68655800  0.48227300  1
  B  B10  1  0.31344200  0.81344200  0.51772700  1
  B  B11  1  0.68655800  0.81344200  0.51772700  1
  B  B12  1  0.00000000  0.75628900  0.73665800  1
  B  B13  1  0.75628900  0.00000000  0.26334200  1
  B  B14  1  0.24371100  0.00000000  0.26334200  1
  B  B15  1  0.50000000  0.00000000  0.14891600  1
  B  B16  1  0.50000000  0.00000000  0.89201000  1
  B  B17  1  0.00000000  0.24371100  0.73665800  1
  B  B18  1  0.68655800  0.18655800  0.51772700  1
  B  B19  1  0.31344200  0.18655800  0.51772700  1
loop_
_geom_bond_atom_site_label_1
_geom_bond_atom_site_label_2
_geom_bond_distance
_geom_bond_site_symmetry_2
Dy0 Si7 3.193960 1_655
Dy0 Si0 3.193960 1_554
Dy0 Si2 3.193960 1_555
Dy0 Si5 3.193960 1_554
Dy1 Si7 3.193960 1_555
Dy1 Si0 3.193960 1_554
Dy1 Si1 3.193960 1_555
Dy1 Si6 3.193960 1_554
Dy2 Si1 3.249838 1_555
Dy2 Si0 3.249838 1_555
Dy2 Si2 3.249838 1_555
Dy2 Si3 3.249838 1_555
Dy3 Si3 3.193960 1_554
Dy3 Si5 3.193960 1_564
Dy3 Si4 3.193960 1_655
Dy3 Si2 3.193960 1_555
Dy4 Si4 3.193960 1_555
Dy4 Si3 3.193960 1_554
Dy4 Si6 3.193960 1_564
Dy4 Si1 3.193960 1_555
Dy5 Si7 3.249838 1_555
Dy5 Si5 3.249838 1_455
Dy5 Si6 3.249838 1_555
Dy5 Si4 3.249838 1_545
Co0 Co13 2.536211 1_555
Co0 Si7 2.544720 1_555
Co0 Dy5 3.037844 1_555
Co1 Si1 2.323372 1_555
Co1 Dy1 2.930830 1_555
Co1 Dy2 2.940787 1_555
Co2 Si2 2.323372 1_555
Co2 Dy0 2.930830 1_555
Co2 Dy2 2.940787 1_555
Co3 Si7 2.340476 1_556
Co3 Dy1 2.950459 1_556
Co3 Dy0 2.950459 1_456
Co4 Si0 2.323372 1_555
Co4 Dy1 2.930830 1_556
Co4 Dy2 2.940787 1_555
Co5 Si0 2.323372 1_555
Co5 Dy0 2.930830 1_556
Co5 Dy2 2.940787 1_555
Co6 Si7 2.660014 1_655
Co6 Si2 2.660014 1_555
Co6 Dy0 2.880133 1_555
Co7 Si7 2.660014 1_555
Co7 Si1 2.660014 1_555
Co7 Dy1 2.880133 1_555
Co8 Si0 2.379620 1_554
Co8 Si2 2.421080 1_555
Co8 Si1 2.421080 1_555
Co8 Dy1 3.305284 1_555
Co8 Dy0 3.305284 1_555
Co9 Dy0 3.224637 1_556
Co10 Co13 2.509165 1_555
Co10 Dy1 3.224637 1_556
Co11 Si2 2.340476 1_556
Co11 Dy0 2.950459 1_556
Co11 Dy3 2.950459 1_556
Co12 Co13 2.536211 1_655
Co12 Si2 2.544720 1_555
Co12 Dy2 3.037844 1_555
Co13 Co6 2.492013 1_455
Co13 Co22 2.492013 1_555
Co13 Co7 2.492013 1_555
Co13 Co21 2.492013 1_455
Co13 Co18 2.509165 1_455
Co13 Co9 2.509165 1_455
Co13 Co19 2.509165 1_555
Co13 Co28 2.536211 1_555
Co13 Co17 2.536211 1_555
Co14 Si1 2.379620 1_556
Co14 Si3 2.421080 1_555
Co14 Si0 2.421080 1_555
Co14 Dy4 3.305284 1_556
Co14 Dy1 3.305284 1_556
Co15 Si2 2.379620 1_556
Co15 Si3 2.421080 1_555
Co15 Si0 2.421080 1_555
Co15 Dy3 3.305284 1_556
Co15 Dy0 3.305284 1_556
Co16 Si1 2.340476 1_556
Co16 Dy1 2.950459 1_556
Co16 Dy4 2.950459 1_556
Co17 Si1 2.544720 1_555
Co17 Dy2 3.037844 1_555
Co18 Dy3 3.224637 1_556
Co19 Dy4 3.224637 1_556
Co20 Si3 2.379620 1_554
Co20 Si2 2.421080 1_555
Co20 Si1 2.421080 1_555
Co20 Dy3 3.305284 1_555
Co20 Dy4 3.305284 1_555
Co21 Si4 2.660014 1_655
Co21 Si2 2.660014 1_555
Co21 Dy3 2.880133 1_555
Co22 Si4 2.660014 1_555
Co22 Si1 2.660014 1_555
Co22 Dy4 2.880133 1_555
Co23 Si3 2.323372 1_555
Co23 Dy4 2.930830 1_556
Co23 Dy2 2.940787 1_555
Co24 Si3 2.323372 1_555
Co24 Dy3 2.930830 1_556
Co24 Dy2 2.940787 1_555
Co25 Si4 2.340476 1_556
Co25 Dy3 2.950459 1_456
Co25 Dy4 2.950459 1_556
Co26 Si1 2.323372 1_555
Co26 Dy4 2.930830 1_555
Co26 Dy2 2.940787 1_555
Co27 Si2 2.323372 1_555
Co27 Dy3 2.930830 1_555
Co27 Dy2 2.940787 1_555
Co28 Si4 2.544720 1_555
Co28 Dy5 3.037844 1_565
Co29 Co46 2.536211 1_565
Co29 Si3 2.544720 1_555
Co29 Dy2 3.037844 1_555
Co30 Si5 2.323372 1_565
Co30 Dy3 2.930830 1_556
Co30 Dy5 2.940787 1_665
Co31 Si6 2.323372 1_565
Co31 Dy4 2.930830 1_556
Co31 Dy5 2.940787 1_565
Co32 Si3 2.340476 1_554
Co32 Dy3 2.950459 1_555
Co32 Dy4 2.950459 1_555
Co33 Si4 2.323372 1_655
Co33 Dy3 2.930830 1_555
Co33 Dy5 2.940787 1_665
Co34 Si4 2.323372 1_555
Co34 Dy4 2.930830 1_555
Co34 Dy5 2.940787 1_565
Co35 Co46 2.492013 1_565
Co35 Si3 2.660014 1_555
Co35 Si6 2.660014 1_565
Co35 Dy4 2.880133 1_556
Co36 Co46 2.492013 1_565
Co36 Si3 2.660014 1_555
Co36 Si5 2.660014 1_565
Co36 Dy3 2.880133 1_556
Co37 Si4 2.379620 1_556
Co37 Si5 2.421080 1_465
Co37 Si6 2.421080 1_565
Co37 Dy3 3.305284 1_456
Co37 Dy4 3.305284 1_556
Co38 Co46 2.509165 1_565
Co38 Dy4 3.224637 1_555
Co39 Co46 2.509165 1_565
Co39 Dy3 3.224637 1_555
Co40 Si5 2.340476 1_554
Co40 Dy3 2.950459 1_545
Co40 Dy0 2.950459 1_555
Co41 Co46 2.536211 1_555
Co41 Si5 2.544720 1_555
Co41 Dy5 3.037844 1_655
Co42 Si5 2.379620 1_554
Co42 Si4 2.421080 1_645
Co42 Si7 2.421080 1_655
Co42 Dy3 3.305284 1_545
Co42 Dy0 3.305284 1_555
Co43 Si6 2.379620 1_554
Co43 Si4 2.421080 1_545
Co43 Si7 2.421080 1_555
Co43 Dy4 3.305284 1_545
Co43 Dy1 3.305284 1_555
Co44 Co46 2.536211 1_555
Co44 Si6 2.544720 1_555
Co44 Dy5 3.037844 1_555
Co45 Si6 2.340476 1_554
Co45 Dy4 2.950459 1_545
Co45 Dy1 2.950459 1_555
Co46 Co50 2.492013 1_555
Co46 Co51 2.492013 1_555
Co46 Co47 2.509165 1_555
Co46 Co48 2.509165 1_555
Co46 Co57 2.536211 1_555
Co47 Dy1 3.224637 1_555
Co48 Dy0 3.224637 1_555
Co49 Si7 2.379620 1_556
Co49 Si5 2.421080 1_455
Co49 Si6 2.421080 1_555
Co49 Dy0 3.305284 1_456
Co49 Dy1 3.305284 1_556
Co50 Si0 2.660014 1_555
Co50 Si6 2.660014 1_555
Co50 Dy1 2.880133 1_556
Co51 Si0 2.660014 1_555
Co51 Si5 2.660014 1_555
Co51 Dy0 2.880133 1_556
Co52 Si7 2.323372 1_655
Co52 Dy0 2.930830 1_555
Co52 Dy5 2.940787 1_655
Co53 Si7 2.323372 1_555
Co53 Dy1 2.930830 1_555
Co53 Dy5 2.940787 1_555
Co54 Si0 2.340476 1_554
Co54 Dy0 2.950459 1_555
Co54 Dy1 2.950459 1_555
Co55 Si5 2.323372 1_555
Co55 Dy0 2.930830 1_556
Co55 Dy5 2.940787 1_655
Co56 Si6 2.323372 1_555
Co56 Dy1 2.930830 1_556
Co56 Dy5 2.940787 1_555
Co57 Si0 2.544720 1_555
Co57 Dy2 3.037844 1_555
B0 B18 2.016952 1_555
B0 Co2 2.047183 1_555
B0 Co52 2.047183 1_555
B0 Co9 2.078638 1_555
B0 Co5 2.121679 1_555
B0 Co55 2.121679 1_555
B0 Co0 2.128037 1_655
B0 Co12 2.128037 1_555
B0 Co6 2.134516 1_555
B1 B19 2.016952 1_555
B1 Co1 2.047183 1_555
B1 Co53 2.047183 1_555
B1 Co10 2.078638 1_555
B1 Co4 2.121679 1_555
B1 Co56 2.121679 1_555
B1 Co0 2.128037 1_555
B1 Co17 2.128037 1_555
B1 Co7 2.134516 1_555
B2 Co8 1.903620 1_555
B2 Co2 2.038028 1_555
B2 Co1 2.038028 1_555
B2 Co48 2.058688 1_555
B2 Co47 2.058688 1_555
B2 Co57 2.079732 1_555
B2 Co54 2.099405 1_555
B3 B4 2.010297 1_554
B3 Co3 2.121813 1_554
B3 Co16 2.121813 1_554
B3 Co11 2.121813 1_454
B3 Co25 2.121813 1_554
B3 Co6 2.132275 1_455
B3 Co22 2.132275 1_555
B3 Co7 2.132275 1_555
B3 Co21 2.132275 1_455
B4 Co3 2.057533 1_555
B4 Co16 2.057533 1_555
B4 Co25 2.057533 1_555
B4 Co11 2.057533 1_455
B4 Co10 2.103864 1_555
B4 Co18 2.103864 1_455
B4 Co9 2.103864 1_455
B4 Co19 2.103864 1_555
B5 Co14 1.903620 1_555
B5 Co4 2.038028 1_555
B5 Co23 2.038028 1_555
B5 Co19 2.058688 1_555
B5 Co10 2.058688 1_555
B5 Co17 2.079732 1_555
B5 Co16 2.099405 1_555
B6 Co15 1.903620 1_555
B6 Co24 2.038028 1_555
B6 Co5 2.038028 1_555
B6 Co18 2.058688 1_555
B6 Co9 2.058688 1_555
B6 Co12 2.079732 1_555
B6 Co11 2.099405 1_555
B7 Co20 1.903620 1_555
B7 Co26 2.038028 1_555
B7 Co27 2.038028 1_555
B7 Co39 2.058688 1_555
B7 Co38 2.058688 1_555
B7 Co29 2.079732 1_555
B7 Co32 2.099405 1_555
B8 Co27 2.047183 1_555
B8 Co33 2.047183 1_555
B8 Co18 2.078638 1_555
B8 Co24 2.121679 1_555
B8 Co30 2.121679 1_555
B8 Co28 2.128037 1_655
B8 Co12 2.128037 1_555
B8 Co21 2.134516 1_555
B9 Co26 2.047183 1_555
B9 Co34 2.047183 1_555
B9 Co19 2.078638 1_555
B9 Co31 2.121679 1_555
B9 Co23 2.121679 1_555
B9 Co28 2.128037 1_555
B9 Co17 2.128037 1_555
B9 Co22 2.134516 1_555
B10 B9 2.016952 1_555
B10 Co23 2.047183 1_555
B10 Co31 2.047183 1_555
B10 Co38 2.078638 1_555
B10 Co26 2.121679 1_555
B10 Co34 2.121679 1_555
B10 Co44 2.128037 1_565
B10 Co29 2.128037 1_555
B10 Co35 2.134516 1_555
B11 B8 2.016952 1_555
B11 Co24 2.047183 1_555
B11 Co30 2.047183 1_555
B11 Co39 2.078638 1_555
B11 Co27 2.121679 1_555
B11 Co33 2.121679 1_555
B11 Co41 2.128037 1_565
B11 Co29 2.128037 1_555
B11 Co36 2.134516 1_555
B12 Co37 1.903620 1_555
B12 Co31 2.038028 1_555
B12 Co30 2.038028 1_455
B12 Co19 2.058688 1_555
B12 Co18 2.058688 1_455
B12 Co28 2.079732 1_555
B12 Co25 2.099405 1_555
B13 Co42 1.903620 1_555
B13 Co52 2.038028 1_555
B13 Co33 2.038028 1_545
B13 Co48 2.058688 1_555
B13 Co39 2.058688 1_545
B13 Co41 2.079732 1_555
B13 Co40 2.099405 1_555
B14 Co43 1.903620 1_555
B14 Co53 2.038028 1_555
B14 Co34 2.038028 1_545
B14 Co38 2.058688 1_545
B14 Co47 2.058688 1_555
B14 Co44 2.079732 1_555
B14 Co45 2.099405 1_555
B15 B16 2.010297 1_554
B15 Co54 2.057533 1_555
B15 Co45 2.057533 1_555
B15 Co32 2.057533 1_545
B15 Co40 2.057533 1_555
B15 Co47 2.103864 1_555
B15 Co39 2.103864 1_545
B15 Co48 2.103864 1_555
B15 Co38 2.103864 1_545
B16 Co45 2.121813 1_556
B16 Co54 2.121813 1_556
B16 Co32 2.121813 1_546
B16 Co40 2.121813 1_556
B16 Co51 2.132275 1_555
B16 Co50 2.132275 1_555
B16 Co35 2.132275 1_545
B16 Co36 2.132275 1_545
B17 Co49 1.903620 1_555
B17 Co56 2.038028 1_555
B17 Co55 2.038028 1_455
B17 Co10 2.058688 1_555
B17 Co9 2.058688 1_455
B17 Co0 2.079732 1_555
B17 Co3 2.099405 1_555
B18 Co5 2.047183 1_555
B18 Co55 2.047183 1_555
B18 Co48 2.078638 1_555
B18 Co52 2.121679 1_555
B18 Co2 2.121679 1_555
B18 Co41 2.128037 1_555
B18 Co57 2.128037 1_555
B18 Co51 2.134516 1_555
B19 Co4 2.047183 1_555
B19 Co56 2.047183 1_555
B19 Co47 2.078638 1_555
B19 Co53 2.121679 1_555
B19 Co1 2.121679 1_555
B19 Co44 2.128037 1_555
B19 Co57 2.128037 1_555
B19 Co50 2.134516 1_555
