# generated using pymatgen
data_H12WN3O3F5
_symmetry_space_group_name_H-M   'P 1'
_cell_length_a   7.89576800
_cell_length_b   17.90604100
_cell_length_c   18.44195900
_cell_angle_alpha   90.00000000
_cell_angle_beta   90.00000000
_cell_angle_gamma   90.00000000
_symmetry_Int_Tables_number   1
_chemical_formula_structural   H12WN3O3F5
_chemical_formula_sum   'H96 W8 N24 O24 F40'
_cell_volume   2607.36004289
_cell_formula_units_Z   8
loop_
 _symmetry_equiv_pos_site_id
 _symmetry_equiv_pos_as_xyz
  1  'x, y, z'
loop_
 _atom_site_type_symbol
 _atom_site_label
 _atom_site_symmetry_multiplicity
 _atom_site_fract_x
 _atom_site_fract_y
 _atom_site_fract_z
 _atom_site_occupancy
  H  H0  1  0.22512200  0.76946200  0.33997000  1
  H  H1  1  0.77487800  0.26946200  0.16003000  1
  H  H2  1  0.27487800  0.23053800  0.83997000  1
  H  H3  1  0.72512200  0.73053800  0.66003000  1
  H  H4  1  0.77487800  0.23053800  0.66003000  1
  H  H5  1  0.22512200  0.73053800  0.83997000  1
  H  H6  1  0.72512200  0.76946200  0.16003000  1
  H  H7  1  0.27487800  0.26946200  0.33997000  1
  H  H8  1  0.38322600  0.67716000  0.27264700  1
  H  H9  1  0.61677400  0.17716000  0.22735300  1
  H  H10  1  0.11677400  0.32284000  0.77264700  1
  H  H11  1  0.88322600  0.82284000  0.72735300  1
  H  H12  1  0.61677400  0.32284000  0.72735300  1
  H  H13  1  0.38322600  0.82284000  0.77264700  1
  H  H14  1  0.88322600  0.67716000  0.22735300  1
  H  H15  1  0.11677400  0.17716000  0.27264700  1
  H  H16  1  0.31618800  0.80440400  0.26771800  1
  H  H17  1  0.68381200  0.30440400  0.23228200  1
  H  H18  1  0.18381200  0.19559600  0.76771800  1
  H  H19  1  0.81618800  0.69559600  0.73228200  1
  H  H20  1  0.68381200  0.19559600  0.73228200  1
  H  H21  1  0.31618800  0.69559600  0.76771800  1
  H  H22  1  0.81618800  0.80440400  0.23228200  1
  H  H23  1  0.18381200  0.30440400  0.26771800  1
  H  H24  1  0.42885400  0.78935500  0.34168800  1
  H  H25  1  0.57114600  0.28935500  0.15831200  1
  H  H26  1  0.07114600  0.21064500  0.84168800  1
  H  H27  1  0.92885400  0.71064500  0.65831200  1
  H  H28  1  0.57114600  0.21064500  0.65831200  1
  H  H29  1  0.42885400  0.71064500  0.84168800  1
  H  H30  1  0.92885400  0.78935500  0.15831200  1
  H  H31  1  0.07114600  0.28935500  0.34168800  1
  H  H32  1  0.24798200  0.76351800  0.08059400  1
  H  H33  1  0.75201800  0.26351800  0.41940600  1
  H  H34  1  0.25201800  0.23648200  0.58059400  1
  H  H35  1  0.74798200  0.73648200  0.91940600  1
  H  H36  1  0.75201800  0.23648200  0.91940600  1
  H  H37  1  0.24798200  0.73648200  0.58059400  1
  H  H38  1  0.74798200  0.76351800  0.41940600  1
  H  H39  1  0.25201800  0.26351800  0.08059400  1
  H  H40  1  0.01596800  0.94375500  0.04722000  1
  H  H41  1  0.98403200  0.44375500  0.45278000  1
  H  H42  1  0.48403200  0.05624500  0.54722000  1
  H  H43  1  0.51596800  0.55624500  0.95278000  1
  H  H44  1  0.98403200  0.05624500  0.95278000  1
  H  H45  1  0.01596800  0.55624500  0.54722000  1
  H  H46  1  0.51596800  0.94375500  0.45278000  1
  H  H47  1  0.48403200  0.44375500  0.04722000  1
  H  H48  1  0.50352800  0.87216600  0.12728100  1
  H  H49  1  0.49647200  0.37216600  0.37271900  1
  H  H50  1  0.99647200  0.12783400  0.62728100  1
  H  H51  1  0.00352800  0.62783400  0.87271900  1
  H  H52  1  0.49647200  0.12783400  0.87271900  1
  H  H53  1  0.50352800  0.62783400  0.62728100  1
  H  H54  1  0.00352800  0.87216600  0.37271900  1
  H  H55  1  0.99647200  0.37216600  0.12728100  1
  H  H56  1  0.20589700  0.01712800  0.86822600  1
  H  H57  1  0.79410300  0.51712800  0.63177400  1
  H  H58  1  0.29410300  0.98287200  0.36822600  1
  H  H59  1  0.70589700  0.48287200  0.13177400  1
  H  H60  1  0.79410300  0.98287200  0.13177400  1
  H  H61  1  0.20589700  0.48287200  0.36822600  1
  H  H62  1  0.70589700  0.01712800  0.63177400  1
  H  H63  1  0.29410300  0.51712800  0.86822600  1
  H  H64  1  0.28858200  0.54442600  0.30174400  1
  H  H65  1  0.71141800  0.04442600  0.19825600  1
  H  H66  1  0.21141800  0.45557400  0.80174400  1
  H  H67  1  0.78858200  0.95557400  0.69825600  1
  H  H68  1  0.71141800  0.45557400  0.69825600  1
  H  H69  1  0.28858200  0.95557400  0.80174400  1
  H  H70  1  0.78858200  0.54442600  0.19825600  1
  H  H71  1  0.21141800  0.04442600  0.30174400  1
  H  H72  1  0.38115900  0.63171100  0.19320700  1
  H  H73  1  0.61884100  0.13171100  0.30679300  1
  H  H74  1  0.11884100  0.36828900  0.69320700  1
  H  H75  1  0.88115900  0.86828900  0.80679300  1
  H  H76  1  0.61884100  0.36828900  0.80679300  1
  H  H77  1  0.38115900  0.86828900  0.69320700  1
  H  H78  1  0.88115900  0.63171100  0.30679300  1
  H  H79  1  0.11884100  0.13171100  0.19320700  1
  H  H80  1  0.38309700  0.53500600  0.38157700  1
  H  H81  1  0.61690300  0.03500600  0.11842300  1
  H  H82  1  0.11690300  0.46499400  0.88157700  1
  H  H83  1  0.88309700  0.96499400  0.61842300  1
  H  H84  1  0.61690300  0.46499400  0.61842300  1
  H  H85  1  0.38309700  0.96499400  0.88157700  1
  H  H86  1  0.88309700  0.53500600  0.11842300  1
  H  H87  1  0.11690300  0.03500600  0.38157700  1
  H  H88  1  0.38867600  0.46278600  0.32475300  1
  H  H89  1  0.61132400  0.96278600  0.17524700  1
  H  H90  1  0.11132400  0.53721400  0.82475300  1
  H  H91  1  0.88867600  0.03721400  0.67524700  1
  H  H92  1  0.61132400  0.53721400  0.67524700  1
  H  H93  1  0.38867600  0.03721400  0.82475300  1
  H  H94  1  0.88867600  0.46278600  0.17524700  1
  H  H95  1  0.11132400  0.96278600  0.32475300  1
  W  W0  1  0.23800000  0.60853800  0.01090700  1
  W  W1  1  0.76200000  0.10853800  0.48909300  1
  W  W2  1  0.26200000  0.39146200  0.51090700  1
  W  W3  1  0.73800000  0.89146200  0.98909300  1
  W  W4  1  0.76200000  0.39146200  0.98909300  1
  W  W5  1  0.23800000  0.89146200  0.51090700  1
  W  W6  1  0.73800000  0.60853800  0.48909300  1
  W  W7  1  0.26200000  0.10853800  0.01090700  1
  N  N0  1  0.33379800  0.76814400  0.30991200  1
  N  N1  1  0.66620200  0.26814400  0.19008800  1
  N  N2  1  0.16620200  0.23185600  0.80991200  1
  N  N3  1  0.83379800  0.73185600  0.69008800  1
  N  N4  1  0.66620200  0.23185600  0.69008800  1
  N  N5  1  0.33379800  0.73185600  0.80991200  1
  N  N6  1  0.83379800  0.76814400  0.19008800  1
  N  N7  1  0.16620200  0.26814400  0.30991200  1
  N  N8  1  0.39349300  0.62326100  0.24810400  1
  N  N9  1  0.60650700  0.12326100  0.25189600  1
  N  N10  1  0.10650700  0.37673900  0.74810400  1
  N  N11  1  0.89349300  0.87673900  0.75189600  1
  N  N12  1  0.60650700  0.37673900  0.75189600  1
  N  N13  1  0.39349300  0.87673900  0.74810400  1
  N  N14  1  0.89349300  0.62326100  0.25189600  1
  N  N15  1  0.10650700  0.12326100  0.24810400  1
  N  N16  1  0.31197500  0.50599200  0.34377800  1
  N  N17  1  0.68802500  0.00599200  0.15622200  1
  N  N18  1  0.18802500  0.49400800  0.84377800  1
  N  N19  1  0.81197500  0.99400800  0.65622200  1
  N  N20  1  0.68802500  0.49400800  0.65622200  1
  N  N21  1  0.31197500  0.99400800  0.84377800  1
  N  N22  1  0.81197500  0.50599200  0.15622200  1
  N  N23  1  0.18802500  0.00599200  0.34377800  1
  O  O0  1  0.09877800  0.63882600  0.94109300  1
  O  O1  1  0.90122200  0.13882600  0.55890700  1
  O  O2  1  0.40122200  0.36117400  0.44109300  1
  O  O3  1  0.59877800  0.86117400  0.05890700  1
  O  O4  1  0.90122200  0.36117400  0.05890700  1
  O  O5  1  0.09877800  0.86117400  0.44109300  1
  O  O6  1  0.59877800  0.63882600  0.55890700  1
  O  O7  1  0.40122200  0.13882600  0.94109300  1
  O  O8  1  0.40548300  0.57816500  0.94007900  1
  O  O9  1  0.59451700  0.07816500  0.55992100  1
  O  O10  1  0.09451700  0.42183500  0.44007900  1
  O  O11  1  0.90548300  0.92183500  0.05992100  1
  O  O12  1  0.59451700  0.42183500  0.05992100  1
  O  O13  1  0.40548300  0.92183500  0.44007900  1
  O  O14  1  0.90548300  0.57816500  0.55992100  1
  O  O15  1  0.09451700  0.07816500  0.94007900  1
  O  O16  1  0.32764700  0.68693300  0.05352000  1
  O  O17  1  0.67235300  0.18693300  0.44648000  1
  O  O18  1  0.17235300  0.31306700  0.55352000  1
  O  O19  1  0.82764700  0.81306700  0.94648000  1
  O  O20  1  0.67235300  0.31306700  0.94648000  1
  O  O21  1  0.32764700  0.81306700  0.55352000  1
  O  O22  1  0.82764700  0.68693300  0.44648000  1
  O  O23  1  0.17235300  0.18693300  0.05352000  1
  F  F0  1  0.04654500  0.58894300  0.07560200  1
  F  F1  1  0.95345500  0.08894300  0.42439800  1
  F  F2  1  0.45345500  0.41105700  0.57560200  1
  F  F3  1  0.54654500  0.91105700  0.92439800  1
  F  F4  1  0.95345500  0.41105700  0.92439800  1
  F  F5  1  0.04654500  0.91105700  0.57560200  1
  F  F6  1  0.54654500  0.58894300  0.42439800  1
  F  F7  1  0.45345500  0.08894300  0.07560200  1
  F  F8  1  0.07484100  0.60661200  0.24703400  1
  F  F9  1  0.92515900  0.10661200  0.25296600  1
  F  F10  1  0.42515900  0.39338800  0.74703400  1
  F  F11  1  0.57484100  0.89338800  0.75296600  1
  F  F12  1  0.92515900  0.39338800  0.75296600  1
  F  F13  1  0.07484100  0.89338800  0.74703400  1
  F  F14  1  0.57484100  0.60661200  0.25296600  1
  F  F15  1  0.42515900  0.10661200  0.24703400  1
  F  F16  1  0.18926000  0.80565200  0.10228900  1
  F  F17  1  0.81074000  0.30565200  0.39771100  1
  F  F18  1  0.31074000  0.19434800  0.60228900  1
  F  F19  1  0.68926000  0.69434800  0.89771100  1
  F  F20  1  0.81074000  0.19434800  0.89771100  1
  F  F21  1  0.18926000  0.69434800  0.60228900  1
  F  F22  1  0.68926000  0.80565200  0.39771100  1
  F  F23  1  0.31074000  0.30565200  0.10228900  1
  F  F24  1  0.31233700  0.51482600  0.05880400  1
  F  F25  1  0.68766300  0.01482600  0.44119600  1
  F  F26  1  0.18766300  0.48517400  0.55880400  1
  F  F27  1  0.81233700  0.98517400  0.94119600  1
  F  F28  1  0.68766300  0.48517400  0.94119600  1
  F  F29  1  0.31233700  0.98517400  0.55880400  1
  F  F30  1  0.81233700  0.51482600  0.44119600  1
  F  F31  1  0.18766300  0.01482600  0.05880400  1
  F  F32  1  0.96971600  0.88796900  0.32276000  1
  F  F33  1  0.03028400  0.38796900  0.17724000  1
  F  F34  1  0.53028400  0.11203100  0.82276000  1
  F  F35  1  0.46971600  0.61203100  0.67724000  1
  F  F36  1  0.03028400  0.11203100  0.67724000  1
  F  F37  1  0.96971600  0.61203100  0.82276000  1
  F  F38  1  0.46971600  0.88796900  0.17724000  1
  F  F39  1  0.53028400  0.38796900  0.32276000  1
loop_
_geom_bond_atom_site_label_1
_geom_bond_atom_site_label_2
_geom_bond_distance
_geom_bond_site_symmetry_2
H0 N0 1.021831 1_555
H1 N1 1.021831 1_555
H2 N2 1.021831 1_555
H3 N3 1.021831 1_555
H4 N4 1.021831 1_555
H5 N5 1.021831 1_555
H6 N6 1.021831 1_555
H7 N7 1.021831 1_555
H8 N8 1.069060 1_555
H9 N9 1.069060 1_555
H10 N10 1.069060 1_555
H11 N11 1.069060 1_555
H12 N12 1.069060 1_555
H13 N13 1.069060 1_555
H14 N14 1.069060 1_555
H15 N15 1.069060 1_555
H16 N0 1.022932 1_555
H17 N1 1.022932 1_555
H18 N2 1.022932 1_555
H19 N3 1.022932 1_555
H20 N4 1.022932 1_555
H21 N5 1.022932 1_555
H22 N6 1.022932 1_555
H23 N7 1.022932 1_555
H24 N0 1.025169 1_555
H25 N1 1.025169 1_555
H26 N2 1.025169 1_555
H27 N3 1.025169 1_555
H28 N4 1.025169 1_555
H29 N5 1.025169 1_555
H30 N6 1.025169 1_555
H31 N7 1.025169 1_555
H32 O16 1.589188 1_555
H33 O17 1.589188 1_555
H34 O18 1.589188 1_555
H35 O19 1.589188 1_555
H36 O20 1.589188 1_555
H37 O21 1.589188 1_555
H38 O22 1.589188 1_555
H39 O23 1.589188 1_555
H40 O11 0.984855 1_455
H41 O10 0.984855 1_655
H42 O9 0.984855 1_555
H43 O8 0.984855 1_555
H44 O15 0.984855 1_655
H45 O14 0.984855 1_455
H46 O13 0.984855 1_555
H47 O12 0.984855 1_555
H48 O3 1.481333 1_555
H49 O2 1.481333 1_555
H50 O1 1.481333 1_555
H51 O0 1.481333 1_555
H52 O7 1.481333 1_555
H53 O6 1.481333 1_555
H54 O5 1.481333 1_555
H55 O4 1.481333 1_555
H56 N21 1.037395 1_545
H57 N20 1.037395 1_555
H58 N23 1.037395 1_565
H59 N22 1.037395 1_555
H60 N17 1.037395 1_565
H61 N16 1.037395 1_555
H62 N19 1.037395 1_545
H63 N18 1.037395 1_555
H64 N16 1.052927 1_555
H65 N17 1.052927 1_555
H66 N18 1.052927 1_555
H67 N19 1.052927 1_555
H68 N20 1.052927 1_555
H69 N21 1.052927 1_555
H70 N22 1.052927 1_555
H71 N23 1.052927 1_555
H72 N8 1.028274 1_555
H73 N9 1.028274 1_555
H74 N10 1.028274 1_555
H75 N11 1.028274 1_555
H76 N12 1.028274 1_555
H77 N13 1.028274 1_555
H78 N14 1.028274 1_555
H79 N15 1.028274 1_555
H80 N16 1.034984 1_555
H81 N17 1.034984 1_555
H82 N18 1.034984 1_555
H83 N19 1.034984 1_555
H84 N20 1.034984 1_555
H85 N21 1.034984 1_555
H86 N22 1.034984 1_555
H87 N23 1.034984 1_555
H88 N16 1.043265 1_555
H89 N17 1.043265 1_565
H90 N18 1.043265 1_555
H91 N19 1.043265 1_545
H92 N20 1.043265 1_555
H93 N21 1.043265 1_545
H94 N22 1.043265 1_555
H95 N23 1.043265 1_565
O0 W0 1.777692 1_556
O1 W1 1.777692 1_555
O2 W2 1.777692 1_555
O3 W3 1.777692 1_554
O4 W4 1.777692 1_554
O5 W5 1.777692 1_555
O6 W6 1.777692 1_555
O7 W7 1.777692 1_556
O8 W0 1.936678 1_556
O9 W1 1.936678 1_555
O10 W2 1.936678 1_555
O11 W3 1.936678 1_554
O12 W4 1.936678 1_554
O13 W5 1.936678 1_555
O14 W6 1.936678 1_555
O15 W7 1.936678 1_556
O16 W0 1.757587 1_555
O17 W1 1.757587 1_555
O18 W2 1.757587 1_555
O19 W3 1.757587 1_555
O20 W4 1.757587 1_555
O21 W5 1.757587 1_555
O22 W6 1.757587 1_555
O23 W7 1.757587 1_555
F0 W0 1.957496 1_555
F1 W1 1.957496 1_555
F2 W2 1.957496 1_555
F3 W3 1.957496 1_555
F4 W4 1.957496 1_555
F5 W5 1.957496 1_555
F6 W6 1.957496 1_555
F7 W7 1.957496 1_555
F8 N14 1.465332 1_455
F9 N15 1.465332 1_655
F10 N12 1.465332 1_555
F11 N13 1.465332 1_555
F12 N10 1.465332 1_655
F13 N11 1.465332 1_455
F14 N8 1.465332 1_555
F15 N9 1.465332 1_555
F16 H32 0.971728 1_555
F17 H33 0.971728 1_555
F18 H34 0.971728 1_555
F19 H35 0.971728 1_555
F20 H36 0.971728 1_555
F21 H37 0.971728 1_555
F22 H38 0.971728 1_555
F23 H39 0.971728 1_555
F24 W0 1.985062 1_555
F25 W1 1.985062 1_555
F26 W2 1.985062 1_555
F27 W3 1.985062 1_555
F28 W4 1.985062 1_555
F29 W5 1.985062 1_555
F30 W6 1.985062 1_555
F31 W7 1.985062 1_555
F32 H54 1.000108 1_655
F33 H55 1.000108 1_455
F34 H52 1.000108 1_555
F35 H53 1.000108 1_555
F36 H50 1.000108 1_455
F37 H51 1.000108 1_655
F38 H48 1.000108 1_555
F39 H49 1.000108 1_555
