# generated using pymatgen
data_LiCr3O9
_symmetry_space_group_name_H-M   'P 1'
_cell_length_a   12.92470627
_cell_length_b   12.92470627
_cell_length_c   10.46104288
_cell_angle_alpha   70.34884546
_cell_angle_beta   70.34884546
_cell_angle_gamma   111.78351384
_symmetry_Int_Tables_number   1
_chemical_formula_structural   LiCr3O9
_chemical_formula_sum   'Li6 Cr18 O54'
_cell_volume   1298.52224154
_cell_formula_units_Z   6
loop_
 _symmetry_equiv_pos_site_id
 _symmetry_equiv_pos_as_xyz
  1  'x, y, z'
loop_
 _atom_site_type_symbol
 _atom_site_label
 _atom_site_symmetry_multiplicity
 _atom_site_fract_x
 _atom_site_fract_y
 _atom_site_fract_z
 _atom_site_occupancy
  Li  Li0  1  0.82383500  0.66960700  0.50310700  1
  Li  Li1  1  0.66960700  0.82383500  0.00310700  1
  Li  Li2  1  0.33573800  0.15820400  0.00390200  1
  Li  Li3  1  0.52562900  0.01290100  0.46745000  1
  Li  Li4  1  0.15820400  0.33573800  0.50390200  1
  Li  Li5  1  0.01290100  0.52562900  0.96745000  1
  Cr  Cr0  1  0.84122200  0.90703300  0.18866800  1
  Cr  Cr1  1  0.90703300  0.84122200  0.68866800  1
  Cr  Cr2  1  0.43216000  0.82797700  0.29528000  1
  Cr  Cr3  1  0.76336000  0.49071600  0.30422000  1
  Cr  Cr4  1  0.82797700  0.43216000  0.79528000  1
  Cr  Cr5  1  0.49071600  0.76336000  0.80422000  1
  Cr  Cr6  1  0.88183800  0.17105700  0.20397200  1
  Cr  Cr7  1  0.18105100  0.81143600  0.25827600  1
  Cr  Cr8  1  0.49948000  0.46275300  0.27892800  1
  Cr  Cr9  1  0.17105700  0.88183800  0.70397200  1
  Cr  Cr10  1  0.81143600  0.18105100  0.75827600  1
  Cr  Cr11  1  0.53642200  0.26757600  0.15226600  1
  Cr  Cr12  1  0.46275300  0.49948000  0.77892800  1
  Cr  Cr13  1  0.19458400  0.59774200  0.15205600  1
  Cr  Cr14  1  0.26757600  0.53642200  0.65226600  1
  Cr  Cr15  1  0.59774200  0.19458400  0.65205600  1
  Cr  Cr16  1  0.07368700  0.13279000  0.34087800  1
  Cr  Cr17  1  0.13279000  0.07368700  0.84087800  1
  O  O0  1  0.99032600  0.95107400  0.01848700  1
  O  O1  1  0.95107400  0.99032600  0.51848700  1
  O  O2  1  0.83901400  0.83974000  0.35275500  1
  O  O3  1  0.71345900  0.82597500  0.18358500  1
  O  O4  1  0.83974000  0.83901400  0.85275500  1
  O  O5  1  0.52085700  0.95133600  0.30176000  1
  O  O6  1  0.82597500  0.71345900  0.68358500  1
  O  O7  1  0.83456300  0.61216000  0.32443100  1
  O  O8  1  0.84197200  0.50034500  0.13805200  1
  O  O9  1  0.49685500  0.82615900  0.13379800  1
  O  O10  1  0.95133600  0.52085700  0.80176000  1
  O  O11  1  0.91843600  0.31013900  0.07474400  1
  O  O12  1  0.61216000  0.83456300  0.82443100  1
  O  O13  1  0.26845700  0.95236600  0.09311500  1
  O  O14  1  0.56802000  0.61115800  0.13656800  1
  O  O15  1  0.50034500  0.84197200  0.63805200  1
  O  O16  1  0.82615900  0.49685500  0.63379800  1
  O  O17  1  0.00013200  0.20247400  0.25849300  1
  O  O18  1  0.31013900  0.91843600  0.57474400  1
  O  O19  1  0.95236600  0.26845700  0.59311500  1
  O  O20  1  0.61115800  0.56802000  0.63656800  1
  O  O21  1  0.20247400  0.00013200  0.75849300  1
  O  O22  1  0.26646800  0.79981400  0.35104600  1
  O  O23  1  0.59501300  0.45036100  0.35495300  1
  O  O24  1  0.89068600  0.08086800  0.11772200  1
  O  O25  1  0.37813500  0.67492200  0.46777300  1
  O  O26  1  0.71353500  0.33731500  0.47262000  1
  O  O27  1  0.79981400  0.26646800  0.85104600  1
  O  O28  1  0.45036100  0.59501300  0.85495300  1
  O  O29  1  0.08086800  0.89068600  0.61772200  1
  O  O30  1  0.67492200  0.37813500  0.96777300  1
  O  O31  1  0.33731500  0.71353500  0.97262000  1
  O  O32  1  0.47294900  0.35644800  0.20706600  1
  O  O33  1  0.13509000  0.68189300  0.22351700  1
  O  O34  1  0.04724900  0.79045800  0.37676400  1
  O  O35  1  0.73712500  0.09255400  0.35915400  1
  O  O36  1  0.56962900  0.19992800  0.27962800  1
  O  O37  1  0.21764500  0.51080400  0.27792700  1
  O  O38  1  0.35644800  0.47294900  0.70706600  1
  O  O39  1  0.35884900  0.41280100  0.42106700  1
  O  O40  1  0.68189300  0.13509000  0.72351700  1
  O  O41  1  0.79045800  0.04724900  0.87676400  1
  O  O42  1  0.09255400  0.73712500  0.85915400  1
  O  O43  1  0.19992800  0.56962900  0.77962800  1
  O  O44  1  0.08854300  0.50639200  0.12620700  1
  O  O45  1  0.43043800  0.15832800  0.14446300  1
  O  O46  1  0.51080400  0.21764500  0.77792700  1
  O  O47  1  0.41280100  0.35884900  0.92106700  1
  O  O48  1  0.50639200  0.08854300  0.62620700  1
  O  O49  1  0.15832800  0.43043800  0.64446300  1
  O  O50  1  0.16510400  0.23371600  0.37162000  1
  O  O51  1  0.15907800  0.10552400  0.21930400  1
  O  O52  1  0.23371600  0.16510400  0.87162000  1
  O  O53  1  0.10552400  0.15907800  0.71930400  1
loop_
_geom_bond_atom_site_label_1
_geom_bond_atom_site_label_2
_geom_bond_distance
_geom_bond_site_symmetry_2
Li0 O2 2.119828 1_555
Li0 O6 2.151672 1_555
Li0 O20 2.176277 1_555
Li0 O16 2.208978 1_555
Li0 O7 2.213527 1_555
Li0 O34 2.285099 1_655
Li1 O4 2.119828 1_554
Li1 O3 2.151672 1_555
Li1 O14 2.176277 1_555
Li1 O9 2.208978 1_555
Li1 O12 2.213527 1_554
Li1 O41 2.285099 1_564
Li2 O47 2.111645 1_554
Li2 O13 2.184504 1_545
Li2 O45 2.206996 1_555
Li2 O52 2.212043 1_554
Li2 O51 2.260147 1_555
Li2 O46 2.277917 1_554
Li3 O15 2.143024 1_545
Li3 O5 2.145776 1_545
Li3 O48 2.184144 1_555
Li3 O35 2.204428 1_555
Li3 O18 2.226977 1_545
Li3 O36 2.249634 1_555
Li4 O39 2.111645 1_555
Li4 O19 2.184504 1_455
Li4 O49 2.206996 1_555
Li4 O50 2.212043 1_555
Li4 O53 2.260147 1_555
Li4 O37 2.277917 1_555
Li5 O8 2.143024 1_456
Li5 O10 2.145776 1_455
Li5 O44 2.184144 1_556
Li5 O42 2.204428 1_555
Li5 O11 2.226977 1_456
Li5 O43 2.249634 1_555
Cr0 O3 1.624720 1_555
Cr0 O2 1.627335 1_555
Cr0 O0 1.844978 1_555
Cr0 O24 1.871032 1_565
Cr1 O6 1.624720 1_555
Cr1 O4 1.627335 1_555
Cr1 O1 1.844978 1_555
Cr1 O29 1.871032 1_655
Cr2 O5 1.621487 1_555
Cr2 O9 1.626224 1_555
Cr2 O25 1.839402 1_555
Cr2 O22 1.870105 1_555
Cr3 O7 1.623981 1_555
Cr3 O8 1.625492 1_555
Cr3 O26 1.840984 1_555
Cr3 O23 1.866230 1_555
Cr4 O10 1.621487 1_555
Cr4 O16 1.626224 1_555
Cr4 O30 1.839402 1_555
Cr4 O27 1.870105 1_555
Cr5 O12 1.623981 1_555
Cr5 O15 1.625492 1_555
Cr5 O31 1.840984 1_555
Cr5 O28 1.866230 1_555
Cr6 O11 1.608413 1_555
Cr6 O35 1.613874 1_555
Cr6 O24 1.709638 1_555
Cr6 O17 1.763306 1_655
Cr7 O34 1.607728 1_555
Cr7 O13 1.619397 1_555
Cr7 O22 1.711375 1_555
Cr7 O33 1.762087 1_555
Cr8 O39 1.611549 1_555
Cr8 O14 1.616162 1_555
Cr8 O23 1.704201 1_555
Cr8 O32 1.757521 1_555
Cr9 O18 1.608413 1_555
Cr9 O42 1.613874 1_555
Cr9 O29 1.709638 1_555
Cr9 O21 1.763306 1_565
Cr10 O41 1.607728 1_555
Cr10 O19 1.619397 1_555
Cr10 O27 1.711375 1_555
Cr10 O40 1.762087 1_555
Cr11 O45 1.610580 1_555
Cr11 O36 1.613507 1_555
Cr11 O30 1.701195 1_554
Cr11 O32 1.773974 1_555
Cr12 O47 1.611549 1_555
Cr12 O20 1.616162 1_555
Cr12 O28 1.704201 1_555
Cr12 O38 1.757521 1_555
Cr13 O37 1.613271 1_555
Cr13 O44 1.615085 1_555
Cr13 O31 1.702589 1_554
Cr13 O33 1.764653 1_555
Cr14 O49 1.610580 1_555
Cr14 O43 1.613507 1_555
Cr14 O25 1.701195 1_555
Cr14 O38 1.773974 1_555
Cr15 O46 1.613271 1_555
Cr15 O48 1.615085 1_555
Cr15 O26 1.702589 1_555
Cr15 O40 1.764653 1_555
Cr16 O50 1.610843 1_555
Cr16 O51 1.614234 1_555
Cr16 O1 1.704933 1_445
Cr16 O17 1.766973 1_555
Cr17 O52 1.610843 1_555
Cr17 O53 1.614234 1_555
Cr17 O0 1.704933 1_446
Cr17 O21 1.766973 1_555
