# generated using pymatgen
data_Cu3(OF)2
_symmetry_space_group_name_H-M   'P 1'
_cell_length_a   8.03926325
_cell_length_b   8.20420100
_cell_length_c   10.37122846
_cell_angle_alpha   90.00000000
_cell_angle_beta   72.59729091
_cell_angle_gamma   90.00000000
_symmetry_Int_Tables_number   1
_chemical_formula_structural   Cu3(OF)2
_chemical_formula_sum   'Cu24 O16 F16'
_cell_volume   652.73075218
_cell_formula_units_Z   8
loop_
 _symmetry_equiv_pos_site_id
 _symmetry_equiv_pos_as_xyz
  1  'x, y, z'
loop_
 _atom_site_type_symbol
 _atom_site_label
 _atom_site_symmetry_multiplicity
 _atom_site_fract_x
 _atom_site_fract_y
 _atom_site_fract_z
 _atom_site_occupancy
  Cu  Cu0  1  0.07522700  0.79110900  0.35557900  1
  Cu  Cu1  1  0.10511400  0.41937000  0.38057900  1
  Cu  Cu2  1  0.23297100  0.18029400  0.16596200  1
  Cu  Cu3  1  0.07522700  0.70889100  0.85557900  1
  Cu  Cu4  1  0.30771400  0.51323200  0.06982300  1
  Cu  Cu5  1  0.10511400  0.08063000  0.88057900  1
  Cu  Cu6  1  0.23297100  0.31970600  0.66596200  1
  Cu  Cu7  1  0.45006900  0.92763100  0.26812700  1
  Cu  Cu8  1  0.30771400  0.98676800  0.56982300  1
  Cu  Cu9  1  0.59432400  0.15339400  0.00713800  1
  Cu  Cu10  1  0.40567600  0.65339400  0.49286300  1
  Cu  Cu11  1  0.54993100  0.42763100  0.23187300  1
  Cu  Cu12  1  0.45006900  0.57236900  0.76812700  1
  Cu  Cu13  1  0.59432400  0.34660600  0.50713700  1
  Cu  Cu14  1  0.40567600  0.84660600  0.99286300  1
  Cu  Cu15  1  0.69228600  0.01323200  0.43017700  1
  Cu  Cu16  1  0.54993100  0.07236900  0.73187300  1
  Cu  Cu17  1  0.76702900  0.68029400  0.33403800  1
  Cu  Cu18  1  0.89488600  0.91937000  0.11942100  1
  Cu  Cu19  1  0.69228600  0.48676800  0.93017700  1
  Cu  Cu20  1  0.92477300  0.29110900  0.14442100  1
  Cu  Cu21  1  0.76702900  0.81970600  0.83403800  1
  Cu  Cu22  1  0.89488600  0.58063000  0.61942100  1
  Cu  Cu23  1  0.92477300  0.20889100  0.64442100  1
  O  O0  1  0.06169200  0.09868500  0.07466100  1
  O  O1  1  0.12322200  0.38622600  0.19027300  1
  O  O2  1  0.06169200  0.40131500  0.57466100  1
  O  O3  1  0.12322200  0.11377400  0.69027300  1
  O  O4  1  0.40165800  0.02025900  0.11643800  1
  O  O5  1  0.50410100  0.37368200  0.06724700  1
  O  O6  1  0.49589900  0.87368200  0.43275300  1
  O  O7  1  0.40165800  0.47974100  0.61643800  1
  O  O8  1  0.59834200  0.52025800  0.38356200  1
  O  O9  1  0.50410100  0.12631800  0.56724700  1
  O  O10  1  0.49589900  0.62631800  0.93275300  1
  O  O11  1  0.59834200  0.97974200  0.88356200  1
  O  O12  1  0.87677800  0.88622600  0.30972700  1
  O  O13  1  0.93830800  0.59868500  0.42533900  1
  O  O14  1  0.87677800  0.61377400  0.80972700  1
  O  O15  1  0.93830800  0.90131500  0.92533900  1
  F  F0  1  0.18883800  0.72947200  0.09450700  1
  F  F1  1  0.19824700  0.99272800  0.36627900  1
  F  F2  1  0.18883800  0.77052800  0.59450700  1
  F  F3  1  0.29468800  0.66481500  0.32145000  1
  F  F4  1  0.19824700  0.50727200  0.86627900  1
  F  F5  1  0.33367400  0.30532600  0.33516100  1
  F  F6  1  0.29468800  0.83518500  0.82145000  1
  F  F7  1  0.66632600  0.80532600  0.16483900  1
  F  F8  1  0.33367400  0.19467400  0.83516100  1
  F  F9  1  0.70531200  0.16481500  0.17855000  1
  F  F10  1  0.66632600  0.69467400  0.66483900  1
  F  F11  1  0.80175300  0.49272800  0.13372100  1
  F  F12  1  0.70531200  0.33518500  0.67855000  1
  F  F13  1  0.81116200  0.22947200  0.40549300  1
  F  F14  1  0.80175300  0.00727200  0.63372100  1
  F  F15  1  0.81116200  0.27052800  0.90549300  1
loop_
_geom_bond_atom_site_label_1
_geom_bond_atom_site_label_2
_geom_bond_distance
_geom_bond_site_symmetry_2
Cu0 O13 1.936731 1_455
Cu0 F1 1.947354 1_555
Cu0 O12 1.958102 1_455
Cu0 F3 1.984463 1_555
Cu1 O2 1.942970 1_555
Cu1 O13 1.950806 1_455
Cu1 O1 1.954171 1_555
Cu1 F5 1.988922 1_555
Cu1 F3 2.488896 1_555
Cu2 O4 1.846641 1_555
Cu2 O1 1.887695 1_555
Cu2 O0 2.005203 1_555
Cu2 F5 2.374190 1_555
Cu2 F1 2.532816 1_545
Cu2 O5 2.642275 1_555
Cu3 O15 1.936731 1_455
Cu3 F4 1.947354 1_555
Cu3 O14 1.958102 1_455
Cu3 F6 1.984463 1_555
Cu4 O1 1.933336 1_555
Cu4 O5 1.943940 1_555
Cu4 O10 1.970781 1_554
Cu4 F0 1.994957 1_555
Cu4 F4 2.518816 1_554
Cu5 O0 1.942970 1_556
Cu5 O15 1.950806 1_445
Cu5 O3 1.954171 1_555
Cu5 F8 1.988922 1_555
Cu5 F6 2.488896 1_545
Cu6 O7 1.846641 1_555
Cu6 O3 1.887695 1_555
Cu6 O2 2.005203 1_555
Cu6 F8 2.374190 1_555
Cu6 F4 2.532816 1_555
Cu6 O9 2.642275 1_555
Cu7 O4 1.889492 1_565
Cu7 O6 1.903435 1_555
Cu7 F7 2.015661 1_555
Cu7 F1 2.046264 1_555
Cu7 F3 2.470256 1_555
Cu8 O3 1.933336 1_565
Cu8 O9 1.943940 1_565
Cu8 O6 1.970781 1_555
Cu8 F2 1.994957 1_555
Cu8 F1 2.518816 1_555
Cu9 O11 1.910123 1_544
Cu9 O4 1.956232 1_555
Cu9 O5 1.977509 1_555
Cu9 F15 1.993583 1_554
Cu9 F9 2.216788 1_555
Cu10 O7 1.910122 1_555
Cu10 O8 1.956241 1_555
Cu10 O6 1.977511 1_555
Cu10 F2 1.993580 1_555
Cu10 F3 2.216798 1_555
Cu11 O8 1.889489 1_555
Cu11 O5 1.903435 1_555
Cu11 F5 2.015661 1_555
Cu11 F11 2.046264 1_555
Cu11 F9 2.470256 1_555
Cu12 O7 1.889492 1_555
Cu12 O10 1.903435 1_555
Cu12 F10 2.015661 1_555
Cu12 F4 2.046264 1_555
Cu12 F6 2.470256 1_555
Cu13 O8 1.910116 1_555
Cu13 O7 1.956236 1_555
Cu13 O9 1.977511 1_555
Cu13 F13 1.993580 1_555
Cu13 F12 2.216798 1_555
Cu14 O4 1.910122 1_566
Cu14 O11 1.956241 1_555
Cu14 O10 1.977511 1_555
Cu14 F0 1.993580 1_556
Cu14 F6 2.216798 1_555
Cu15 O12 1.933336 1_545
Cu15 O6 1.943940 1_545
Cu15 O9 1.970781 1_555
Cu15 F13 1.994957 1_555
Cu15 F14 2.518816 1_555
Cu16 O11 1.889489 1_545
Cu16 O9 1.903435 1_555
Cu16 F8 2.015661 1_555
Cu16 F14 2.046264 1_555
Cu16 F12 2.470256 1_555
Cu17 O8 1.846647 1_555
Cu17 O12 1.887695 1_555
Cu17 O13 2.005203 1_555
Cu17 F7 2.374190 1_555
Cu17 F11 2.532816 1_555
Cu17 O6 2.642275 1_555
Cu18 O15 1.942970 1_554
Cu18 O0 1.950806 1_665
Cu18 O12 1.954171 1_555
Cu18 F7 1.988922 1_555
Cu18 F9 2.488896 1_565
Cu19 O14 1.933336 1_555
Cu19 O10 1.943940 1_555
Cu19 O5 1.970781 1_556
Cu19 F15 1.994957 1_555
Cu19 F11 2.518816 1_556
Cu20 O0 1.936731 1_655
Cu20 F11 1.947354 1_555
Cu20 O1 1.958102 1_655
Cu20 F9 1.984463 1_555
Cu21 O11 1.846647 1_555
Cu21 O14 1.887695 1_555
Cu21 O15 2.005203 1_555
Cu21 F10 2.374190 1_555
Cu21 F14 2.532816 1_565
Cu21 O10 2.642275 1_555
Cu22 O13 1.942970 1_555
Cu22 O2 1.950806 1_655
Cu22 O14 1.954171 1_555
Cu22 F10 1.988922 1_555
Cu22 F12 2.488896 1_555
Cu23 O2 1.936731 1_655
Cu23 F14 1.947354 1_555
Cu23 O3 1.958102 1_655
Cu23 F12 1.984463 1_555
