# generated using pymatgen
data_Sc2(PO4)3
_symmetry_space_group_name_H-M   'P 1'
_cell_length_a   9.12322200
_cell_length_b   9.08050700
_cell_length_c   15.48978637
_cell_angle_alpha   54.37088202
_cell_angle_beta   90.00000000
_cell_angle_gamma   90.00000000
_symmetry_Int_Tables_number   1
_chemical_formula_structural   Sc2(PO4)3
_chemical_formula_sum   'Sc8 P12 O48'
_cell_volume   1043.01376065
_cell_formula_units_Z   4
loop_
 _symmetry_equiv_pos_site_id
 _symmetry_equiv_pos_as_xyz
  1  'x, y, z'
loop_
 _atom_site_type_symbol
 _atom_site_label
 _atom_site_symmetry_multiplicity
 _atom_site_fract_x
 _atom_site_fract_y
 _atom_site_fract_z
 _atom_site_occupancy
  Sc  Sc0  1  0.53754400  0.13226100  0.11973600  1
  Sc  Sc1  1  0.96359000  0.37162600  0.87903800  1
  Sc  Sc2  1  0.46359000  0.62837400  0.62096200  1
  Sc  Sc3  1  0.03754400  0.86773900  0.38026400  1
  Sc  Sc4  1  0.96245600  0.13226100  0.61973600  1
  Sc  Sc5  1  0.53641000  0.37162600  0.37903800  1
  Sc  Sc6  1  0.03641000  0.62837400  0.12096200  1
  Sc  Sc7  1  0.46245600  0.86773900  0.88026400  1
  P  P0  1  0.74970700  0.53537200  0.49814700  1
  P  P1  1  0.60883800  0.24768700  0.85645700  1
  P  P2  1  0.89404200  0.96383900  0.14224000  1
  P  P3  1  0.39404200  0.03616100  0.35776000  1
  P  P4  1  0.10883800  0.75231300  0.64354300  1
  P  P5  1  0.24970700  0.46462800  0.00185300  1
  P  P6  1  0.75029300  0.53537200  0.99814700  1
  P  P7  1  0.89116200  0.24768700  0.35645700  1
  P  P8  1  0.60595800  0.96383900  0.64224000  1
  P  P9  1  0.10595800  0.03616100  0.85776000  1
  P  P10  1  0.39116200  0.75231300  0.14354300  1
  P  P11  1  0.25029300  0.46462800  0.50185300  1
  O  O0  1  0.16002200  0.63747600  0.42594000  1
  O  O1  1  0.33475200  0.48360000  0.58115900  1
  O  O2  1  0.09109500  0.20507900  0.85781400  1
  O  O3  1  0.41621300  0.91485000  0.14848500  1
  O  O4  1  0.64001000  0.56373600  0.56246500  1
  O  O5  1  0.77162500  0.30278500  0.83618900  1
  O  O6  1  0.85330100  0.69913100  0.43836500  1
  O  O7  1  0.57011200  0.19245400  0.96849200  1
  O  O8  1  0.93712500  0.13340700  0.03220000  1
  O  O9  1  0.73359400  0.98664600  0.16311400  1
  O  O10  1  0.99415700  0.94487000  0.22777700  1
  O  O11  1  0.51170100  0.40706200  0.77386400  1
  O  O12  1  0.01170100  0.59293800  0.72613600  1
  O  O13  1  0.49415700  0.05513000  0.27222300  1
  O  O14  1  0.23359400  0.01335400  0.33688600  1
  O  O15  1  0.43712500  0.86659300  0.46780000  1
  O  O16  1  0.07011200  0.80754600  0.53150800  1
  O  O17  1  0.35330100  0.30086900  0.06163500  1
  O  O18  1  0.27162500  0.69721500  0.66381100  1
  O  O19  1  0.14001000  0.43626400  0.93753500  1
  O  O20  1  0.91621300  0.08515000  0.35151500  1
  O  O21  1  0.59109500  0.79492100  0.64218600  1
  O  O22  1  0.83475200  0.51640000  0.91884100  1
  O  O23  1  0.66002200  0.36252400  0.07406000  1
  O  O24  1  0.33997800  0.63747600  0.92594000  1
  O  O25  1  0.16524800  0.48360000  0.08115900  1
  O  O26  1  0.40890500  0.20507900  0.35781400  1
  O  O27  1  0.08378700  0.91485000  0.64848500  1
  O  O28  1  0.85999000  0.56373600  0.06246500  1
  O  O29  1  0.72837500  0.30278500  0.33618900  1
  O  O30  1  0.64669900  0.69913100  0.93836500  1
  O  O31  1  0.92988800  0.19245400  0.46849200  1
  O  O32  1  0.56287500  0.13340700  0.53220000  1
  O  O33  1  0.76640600  0.98664600  0.66311400  1
  O  O34  1  0.50584300  0.94487000  0.72777700  1
  O  O35  1  0.98829900  0.40706200  0.27386400  1
  O  O36  1  0.48829900  0.59293800  0.22613600  1
  O  O37  1  0.00584300  0.05513000  0.77222300  1
  O  O38  1  0.26640600  0.01335400  0.83688600  1
  O  O39  1  0.06287500  0.86659300  0.96780000  1
  O  O40  1  0.42988800  0.80754600  0.03150800  1
  O  O41  1  0.14669900  0.30086900  0.56163500  1
  O  O42  1  0.22837500  0.69721500  0.16381100  1
  O  O43  1  0.35999000  0.43626400  0.43753500  1
  O  O44  1  0.58378700  0.08515000  0.85151500  1
  O  O45  1  0.90890500  0.79492100  0.14218600  1
  O  O46  1  0.66524800  0.51640000  0.41884100  1
  O  O47  1  0.83997800  0.36252400  0.57406000  1
loop_
_geom_bond_atom_site_label_1
_geom_bond_atom_site_label_2
_geom_bond_distance
_geom_bond_site_symmetry_2
O0 P11 1.540834 1_555
O0 Sc3 2.097019 1_555
O1 P11 1.542407 1_555
O1 Sc2 2.105770 1_555
O2 P9 1.540329 1_555
O2 Sc1 2.080300 1_455
O3 P10 1.538850 1_555
O3 Sc0 2.072874 1_565
O4 P0 1.536044 1_555
O4 Sc2 2.091820 1_555
O5 P1 1.539976 1_555
O5 Sc1 2.093291 1_555
O6 P0 1.535464 1_555
O6 Sc3 2.091433 1_655
O7 P1 1.540755 1_555
O7 Sc0 2.093700 1_556
O8 P2 1.540427 1_545
O8 Sc1 2.094496 1_554
O9 P2 1.538886 1_555
O9 Sc0 2.088983 1_565
O10 P2 1.534117 1_555
O10 Sc3 2.073363 1_655
O11 P1 1.536028 1_555
O11 Sc2 2.072521 1_555
O12 P4 1.536028 1_555
O12 Sc1 2.072521 1_455
O13 P3 1.534117 1_555
O13 Sc0 2.073363 1_555
O14 P3 1.538886 1_555
O14 Sc3 2.088983 1_545
O15 P3 1.540427 1_565
O15 Sc2 2.094496 1_555
O16 P4 1.540755 1_555
O16 Sc3 2.093700 1_555
O17 P5 1.535464 1_555
O17 Sc0 2.091433 1_555
O18 P4 1.539976 1_555
O18 Sc2 2.093291 1_555
O19 P5 1.536044 1_556
O19 Sc1 2.091820 1_455
O20 P7 1.538850 1_555
O20 Sc3 2.072874 1_645
O21 P8 1.540329 1_555
O21 Sc2 2.080300 1_555
O22 P6 1.542407 1_555
O22 Sc1 2.105770 1_555
O23 P6 1.540834 1_554
O23 Sc0 2.097019 1_555
O24 P5 1.540834 1_556
O24 Sc7 2.097019 1_555
O25 P5 1.542407 1_555
O25 Sc6 2.105770 1_555
O26 P3 1.540329 1_555
O26 Sc5 2.080300 1_555
O27 P4 1.538850 1_555
O27 Sc4 2.072874 1_465
O28 P6 1.536044 1_554
O28 Sc6 2.091820 1_655
O29 P7 1.539976 1_555
O29 Sc5 2.093291 1_555
O30 P6 1.535464 1_555
O30 Sc7 2.091433 1_555
O31 P7 1.540755 1_555
O31 Sc4 2.093700 1_555
O32 P8 1.540427 1_545
O32 Sc5 2.094496 1_555
O33 P8 1.538886 1_555
O33 Sc4 2.088983 1_565
O34 P8 1.534117 1_555
O34 Sc7 2.073363 1_555
O35 P7 1.536028 1_555
O35 Sc6 2.072521 1_655
O36 P10 1.536028 1_555
O36 Sc5 2.072521 1_555
O37 P9 1.534117 1_555
O37 Sc4 2.073363 1_455
O38 P9 1.538886 1_555
O38 Sc7 2.088983 1_545
O39 P9 1.540427 1_565
O39 Sc6 2.094496 1_556
O40 P10 1.540755 1_555
O40 Sc7 2.093700 1_554
O41 P11 1.535464 1_555
O41 Sc4 2.091433 1_455
O42 P10 1.539976 1_555
O42 Sc6 2.093291 1_555
O43 P11 1.536044 1_555
O43 Sc5 2.091820 1_555
O44 P1 1.538850 1_555
O44 Sc7 2.072874 1_545
O45 P2 1.540329 1_555
O45 Sc6 2.080300 1_655
O46 P0 1.542407 1_555
O46 Sc5 2.105770 1_555
O47 P0 1.540834 1_555
O47 Sc4 2.097019 1_555
