# generated using pymatgen
data_Li2Mn3CrO8
_symmetry_space_group_name_H-M   'P 1'
_cell_length_a   5.80410700
_cell_length_b   5.93607683
_cell_length_c   5.97248210
_cell_angle_alpha   119.41964205
_cell_angle_beta   90.20745545
_cell_angle_gamma   118.96631147
_symmetry_Int_Tables_number   1
_chemical_formula_structural   Li2Mn3CrO8
_chemical_formula_sum   'Li2 Mn3 Cr1 O8'
_cell_volume   148.73358087
_cell_formula_units_Z   1
loop_
 _symmetry_equiv_pos_site_id
 _symmetry_equiv_pos_as_xyz
  1  'x, y, z'
loop_
 _atom_site_type_symbol
 _atom_site_label
 _atom_site_symmetry_multiplicity
 _atom_site_fract_x
 _atom_site_fract_y
 _atom_site_fract_z
 _atom_site_occupancy
  Li  Li0  1  0.00000000  0.00000000  0.50000000  1
  Li  Li1  1  0.50000000  0.50000000  0.50000000  1
  Mn  Mn0  1  0.50000000  0.00000000  0.00000000  1
  Mn  Mn1  1  0.50000000  0.50000000  0.00000000  1
  Mn  Mn2  1  0.00000000  0.50000000  0.00000000  1
  Cr  Cr0  1  0.00000000  0.00000000  0.00000000  1
  O  O0  1  0.72008500  0.55803500  0.19587000  1
  O  O1  1  0.23170600  0.54974500  0.20407100  1
  O  O2  1  0.24366500  0.93615300  0.77223400  1
  O  O3  1  0.76191000  0.93911600  0.79577400  1
  O  O4  1  0.23809000  0.06088400  0.20422600  1
  O  O5  1  0.75633500  0.06384700  0.22776600  1
  O  O6  1  0.76829400  0.45025500  0.79592900  1
  O  O7  1  0.27991500  0.44196500  0.80413000  1
loop_
_geom_bond_atom_site_label_1
_geom_bond_atom_site_label_2
_geom_bond_distance
_geom_bond_site_symmetry_2
Li0 O7 1.997597 1_555
Li0 O0 1.997597 1_445
Li0 O3 2.306933 1_445
Li0 O4 2.306933 1_555
Li0 O2 2.428015 1_545
Li0 O5 2.428015 1_455
Li1 O3 1.960829 1_555
Li1 O4 1.960829 1_555
Li1 O7 2.292395 1_555
Li1 O0 2.292395 1_555
Li1 O6 2.563996 1_555
Li1 O1 2.563996 1_555
Mn0 O2 1.772105 1_544
Mn0 O5 1.772105 1_555
Mn0 O3 2.010409 1_544
Mn0 O4 2.010409 1_555
Mn0 O0 2.461075 1_555
Mn0 O7 2.461075 1_544
Mn1 O7 1.511935 1_554
Mn1 O0 1.511935 1_555
Mn1 O1 2.025623 1_555
Mn1 O6 2.025623 1_554
Mn1 O2 2.440447 1_544
Mn1 O5 2.440447 1_565
Mn2 O1 1.622104 1_555
Mn2 O6 1.622104 1_454
Mn2 O0 2.070424 1_455
Mn2 O7 2.070424 1_554
Mn2 O4 2.454463 1_565
Mn2 O3 2.454463 1_444
Cr0 O3 1.612140 1_444
Cr0 O4 1.612140 1_555
Cr0 O5 2.005210 1_455
Cr0 O2 2.005210 1_544
Cr0 O6 2.402775 1_444
Cr0 O1 2.402775 1_555
