# generated using pymatgen
data_V3Sb(PO4)4
_symmetry_space_group_name_H-M   'P 1'
_cell_length_a   5.03280292
_cell_length_b   10.31696823
_cell_length_c   6.04056700
_cell_angle_alpha   90.00001506
_cell_angle_beta   90.00006262
_cell_angle_gamma   89.91228416
_symmetry_Int_Tables_number   1
_chemical_formula_structural   V3Sb(PO4)4
_chemical_formula_sum   'V3 Sb1 P4 O16'
_cell_volume   313.64561064
_cell_formula_units_Z   1
loop_
 _symmetry_equiv_pos_site_id
 _symmetry_equiv_pos_as_xyz
  1  'x, y, z'
loop_
 _atom_site_type_symbol
 _atom_site_label
 _atom_site_symmetry_multiplicity
 _atom_site_fract_x
 _atom_site_fract_y
 _atom_site_fract_z
 _atom_site_occupancy
  V  V0  1  0.47190600  0.22819500  0.75000200  1
  V  V1  1  0.53252400  0.77907900  0.24999900  1
  V  V2  1  0.97656300  0.26582800  0.24999300  1
  Sb  Sb0  1  0.02618100  0.72349600  0.74999900  1
  P  P0  1  0.11041800  0.59722300  0.25000100  1
  P  P1  1  0.41459000  0.10015000  0.25000100  1
  P  P2  1  0.57003000  0.91335700  0.74999800  1
  P  P3  1  0.90519400  0.38735800  0.75000200  1
  O  O0  1  0.12009100  0.45006300  0.25000000  1
  O  O1  1  0.27638900  0.66167500  0.05408900  1
  O  O2  1  0.27638800  0.66167500  0.44590600  1
  O  O3  1  0.20544700  0.36655200  0.75000000  1
  O  O4  1  0.26865300  0.89430600  0.75000000  1
  O  O5  1  0.26697300  0.17180200  0.05196200  1
  O  O6  1  0.26697300  0.17180100  0.44804200  1
  O  O7  1  0.36044800  0.95412400  0.24999900  1
  O  O8  1  0.63847800  0.05683000  0.74999900  1
  O  O9  1  0.70617300  0.84220100  0.54759200  1
  O  O10  1  0.70617300  0.84220100  0.95240800  1
  O  O11  1  0.71305400  0.12565600  0.25000200  1
  O  O12  1  0.82522400  0.64807900  0.24999800  1
  O  O13  1  0.76620700  0.31444700  0.54952400  1
  O  O14  1  0.76620900  0.31444800  0.95048200  1
  O  O15  1  0.82971500  0.52944800  0.75000100  1
loop_
_geom_bond_atom_site_label_1
_geom_bond_atom_site_label_2
_geom_bond_distance
_geom_bond_site_symmetry_2
O0 P0 1.518951 1_555
O0 V2 2.034411 1_455
O1 P0 1.594386 1_555
O1 V1 2.129339 1_555
O1 Sb0 2.316063 1_554
O2 P0 1.594351 1_555
O2 V1 2.129334 1_555
O2 Sb0 2.316077 1_555
O3 P3 1.525959 1_455
O3 V0 1.957053 1_555
O4 P2 1.529751 1_555
O4 Sb0 2.145051 1_555
O5 P1 1.589899 1_555
O5 V2 2.122223 1_455
O5 V0 2.175111 1_554
O6 P1 1.589904 1_555
O6 V2 2.122288 1_455
O6 V0 2.175112 1_555
O7 P1 1.531400 1_565
O7 V1 2.001651 1_555
O8 P2 1.520277 1_545
O8 V0 1.955494 1_555
O9 P2 1.581684 1_555
O9 V1 2.102638 1_555
O9 Sb0 2.362731 1_655
O10 P2 1.581702 1_555
O10 V1 2.102629 1_556
O10 Sb0 2.362739 1_655
O11 P1 1.525382 1_555
O11 V2 1.963670 1_555
O12 P0 1.527462 1_655
O12 V1 1.997635 1_555
O13 P3 1.588477 1_555
O13 V0 2.110982 1_555
O13 V2 2.155107 1_555
O14 P3 1.588478 1_555
O14 V0 2.110998 1_555
O14 V2 2.155001 1_556
O15 P3 1.513794 1_555
O15 Sb0 2.234209 1_655
