# generated using pymatgen
data_Mg3P4H28(NO12)2
_symmetry_space_group_name_H-M   'P 1'
_cell_length_a   6.67060186
_cell_length_b   7.56780158
_cell_length_c   10.68409222
_cell_angle_alpha   105.43957631
_cell_angle_beta   96.77820508
_cell_angle_gamma   98.00198417
_symmetry_Int_Tables_number   1
_chemical_formula_structural   Mg3P4H28(NO12)2
_chemical_formula_sum   'Mg3 P4 H28 N2 O24'
_cell_volume   507.98518461
_cell_formula_units_Z   1
loop_
 _symmetry_equiv_pos_site_id
 _symmetry_equiv_pos_as_xyz
  1  'x, y, z'
loop_
 _atom_site_type_symbol
 _atom_site_label
 _atom_site_symmetry_multiplicity
 _atom_site_fract_x
 _atom_site_fract_y
 _atom_site_fract_z
 _atom_site_occupancy
  Mg  Mg0  1  0.00000000  -0.00000000  -0.00000000  1
  Mg  Mg1  1  0.66054588  0.23559701  0.40050527  1
  Mg  Mg2  1  0.33945412  0.76440299  0.59949473  1
  P  P0  1  0.75089776  0.34069569  0.12901791  1
  P  P1  1  0.24910224  0.65930431  0.87098209  1
  P  P2  1  0.79895573  0.69665965  0.53219789  1
  P  P3  1  0.20104427  0.30334035  0.46780211  1
  H  H0  1  0.84402665  0.62162850  0.26974729  1
  H  H1  1  0.15597335  0.37837150  0.73025271  1
  H  H2  1  0.01551858  0.77349377  0.72289805  1
  H  H3  1  0.98448142  0.22650623  0.27710195  1
  H  H4  1  0.62214644  0.78402367  0.02300288  1
  H  H5  1  0.37785356  0.21597633  0.97699712  1
  H  H6  1  0.81601307  0.73043190  0.09179627  1
  H  H7  1  0.18398693  0.26956810  0.90820373  1
  H  H8  1  0.26709322  0.05128760  0.23412823  1
  H  H9  1  0.73290678  0.94871240  0.76587177  1
  H  H10  1  0.29031401  0.88046266  0.11453342  1
  H  H11  1  0.70968599  0.11953734  0.88546658  1
  H  H12  1  0.68005101  0.93305451  0.21350338  1
  H  H13  1  0.31994899  0.06694549  0.78649662  1
  H  H14  1  0.70210754  0.88188170  0.34498154  1
  H  H15  1  0.29789246  0.11811830  0.65501846  1
  H  H16  1  0.89885626  0.18220133  0.58596130  1
  H  H17  1  0.10114374  0.81779867  0.41403870  1
  H  H18  1  0.70195756  0.03725555  0.58386624  1
  H  H19  1  0.29804244  0.96274445  0.41613376  1
  H  H20  1  0.34149977  0.58663430  0.13234093  1
  H  H21  1  0.65850023  0.41336570  0.86765907  1
  H  H22  1  0.42603241  0.45715551  0.22925164  1
  H  H23  1  0.57396759  0.54284449  0.77074836  1
  H  H24  1  0.17495533  0.43641545  0.17744336  1
  H  H25  1  0.82504467  0.56358455  0.82255664  1
  H  H26  1  0.29968289  0.63393872  0.29004141  1
  H  H27  1  0.70031711  0.36606128  0.70995859  1
  N  N0  1  0.31161502  0.52935015  0.20778067  1
  N  N1  1  0.68838498  0.47064985  0.79221933  1
  O  O0  1  0.62671946  0.29718209  0.99244632  1
  O  O1  1  0.37328054  0.70281791  0.00755368  1
  O  O2  1  0.93485716  0.23839193  0.12783515  1
  O  O3  1  0.06514284  0.76160807  0.87216485  1
  O  O4  1  0.62081135  0.30613736  0.22994266  1
  O  O5  1  0.37918865  0.69386264  0.77005734  1
  O  O6  1  0.84535534  0.55768527  0.17271943  1
  O  O7  1  0.15464466  0.44231473  0.82728057  1
  O  O8  1  0.01515550  0.77404347  0.62888915  1
  O  O9  1  0.98484450  0.22595653  0.37111085  1
  O  O10  1  0.64806128  0.81340857  0.59626881  1
  O  O11  1  0.35193872  0.18659143  0.40373119  1
  O  O12  1  0.73760591  0.49393571  0.51788491  1
  O  O13  1  0.26239409  0.50606429  0.48211509  1
  O  O14  1  0.84414104  0.74405730  0.40661360  1
  O  O15  1  0.15585896  0.25594270  0.59338640  1
  O  O16  1  0.77100286  0.82909583  0.05742143  1
  O  O17  1  0.22899714  0.17090417  0.94257857  1
  O  O18  1  0.20015169  0.96837967  0.14799435  1
  O  O19  1  0.79984831  0.03162033  0.85200565  1
  O  O20  1  0.62567392  0.95263416  0.29633794  1
  O  O21  1  0.37432608  0.04736584  0.70366206  1
  O  O22  1  0.74714572  0.16175311  0.57345822  1
  O  O23  1  0.25285428  0.83824689  0.42654178  1
loop_
_geom_bond_atom_site_label_1
_geom_bond_atom_site_label_2
_geom_bond_distance
_geom_bond_site_symmetry_2
Mg0 O18 2.032750 1_545
Mg0 O19 2.032750 1_454
Mg0 O2 2.086966 1_455
Mg0 O3 2.086966 1_544
Mg0 O17 2.115709 1_554
Mg0 O16 2.115709 1_445
Mg1 O12 1.980354 1_555
Mg1 O4 2.029626 1_555
Mg1 O11 2.046348 1_555
Mg1 O20 2.099908 1_545
Mg1 O22 2.109091 1_555
Mg1 O9 2.230647 1_555
Mg2 O13 1.980354 1_555
Mg2 O5 2.029626 1_555
Mg2 O10 2.046348 1_555
Mg2 O21 2.099908 1_565
Mg2 O23 2.109091 1_555
Mg2 O8 2.230647 1_555
H0 O6 1.022333 1_555
H0 O14 1.508276 1_555
H1 O7 1.022333 1_555
H1 O15 1.508276 1_555
H2 O8 1.005234 1_555
H2 O3 1.618964 1_555
H3 O9 1.005234 1_555
H3 O2 1.618964 1_555
H4 O16 0.995123 1_555
H5 O17 0.995123 1_555
H6 O16 0.982314 1_555
H7 O17 0.982314 1_555
H8 O18 0.978525 1_545
H9 O19 0.978525 1_565
H10 O18 0.983731 1_555
H11 O19 0.983731 1_555
H12 O20 0.978617 1_555
H13 O21 0.978617 1_555
H14 O20 0.989129 1_555
H14 O14 1.706670 1_555
H15 O21 0.989129 1_555
H15 O15 1.706670 1_555
H16 O22 0.989655 1_555
H16 O15 1.713104 1_655
H17 O23 0.989655 1_555
H17 O14 1.713104 1_455
H18 O22 0.987696 1_555
H19 O23 0.987696 1_555
H20 N0 1.037897 1_555
H21 N1 1.037897 1_555
H22 N0 1.036896 1_555
H23 N1 1.036896 1_555
H24 N0 1.030095 1_555
H25 N1 1.030095 1_555
H26 N0 1.033882 1_555
H27 N1 1.033882 1_555
O0 P0 1.518749 1_556
O1 P1 1.518749 1_554
O2 P0 1.538945 1_555
O3 P1 1.538945 1_555
O4 P0 1.513917 1_555
O5 P1 1.513917 1_555
O6 P0 1.595576 1_555
O7 P1 1.595576 1_555
O8 P2 1.606583 1_455
O9 P3 1.606583 1_655
O10 P2 1.533167 1_555
O11 P3 1.533167 1_555
O12 P2 1.493340 1_555
O13 P3 1.493340 1_555
O14 P2 1.530175 1_555
O15 P3 1.530175 1_555
