# generated using pymatgen
data_Li3Mn2(SiO4)2
_symmetry_space_group_name_H-M   'P 1'
_cell_length_a   10.61572800
_cell_length_b   5.10222700
_cell_length_c   6.68814854
_cell_angle_alpha   89.83557790
_cell_angle_beta   90.00000000
_cell_angle_gamma   90.00000000
_symmetry_Int_Tables_number   1
_chemical_formula_structural   Li3Mn2(SiO4)2
_chemical_formula_sum   'Li6 Mn4 Si4 O16'
_cell_volume   362.25440955
_cell_formula_units_Z   2
loop_
 _symmetry_equiv_pos_site_id
 _symmetry_equiv_pos_as_xyz
  1  'x, y, z'
loop_
 _atom_site_type_symbol
 _atom_site_label
 _atom_site_symmetry_multiplicity
 _atom_site_fract_x
 _atom_site_fract_y
 _atom_site_fract_z
 _atom_site_occupancy
  Li  Li0  1  0.84090700  0.56496700  0.75603300  1
  Li  Li1  1  0.34090700  0.43503300  0.24396700  1
  Li  Li2  1  0.65878600  0.06572000  0.24773400  1
  Li  Li3  1  0.42322300  0.04476900  0.48401100  1
  Li  Li4  1  0.92322300  0.95523100  0.51598900  1
  Li  Li5  1  0.15878600  0.93428000  0.75226600  1
  Mn  Mn0  1  0.34053200  0.44770300  0.75316100  1
  Mn  Mn1  1  0.84053200  0.55229700  0.24683900  1
  Mn  Mn2  1  0.15739000  0.92939700  0.23778500  1
  Mn  Mn3  1  0.65739000  0.07060300  0.76221500  1
  Si  Si0  1  0.91078700  0.06712300  0.99532800  1
  Si  Si1  1  0.41078700  0.93287700  0.00467200  1
  Si  Si2  1  0.59134600  0.56106000  0.50146300  1
  Si  Si3  1  0.09134600  0.43894000  0.49853700  1
  O  O0  1  0.34611000  0.04815900  0.79417500  1
  O  O1  1  0.84186200  0.95273600  0.79090800  1
  O  O2  1  0.88883300  0.38662300  0.99642700  1
  O  O3  1  0.05990000  0.99524900  0.99001100  1
  O  O4  1  0.38883300  0.61337700  0.00357300  1
  O  O5  1  0.55990000  0.00475100  0.00998900  1
  O  O6  1  0.34186200  0.04726400  0.20909200  1
  O  O7  1  0.84611000  0.95184100  0.20582500  1
  O  O8  1  0.16587400  0.54658500  0.29923500  1
  O  O9  1  0.66580200  0.44631600  0.30534600  1
  O  O10  1  0.44393300  0.44845800  0.49878500  1
  O  O11  1  0.59145400  0.88592100  0.50377100  1
  O  O12  1  0.94393300  0.55154200  0.50121500  1
  O  O13  1  0.09145400  0.11407900  0.49622900  1
  O  O14  1  0.16580200  0.55368400  0.69465400  1
  O  O15  1  0.66587400  0.45341500  0.70076500  1
loop_
_geom_bond_atom_site_label_1
_geom_bond_atom_site_label_2
_geom_bond_distance
_geom_bond_site_symmetry_2
Li0 O2 1.914015 1_555
Li0 O15 1.978468 1_555
Li0 O1 1.992878 1_555
Li0 O12 2.026336 1_555
Li1 O4 1.914015 1_555
Li1 O8 1.978468 1_555
Li1 O6 1.992878 1_555
Li1 O10 2.026336 1_555
Li2 O5 1.931298 1_555
Li2 O9 1.982230 1_555
Li2 O11 2.067808 1_545
Li2 O7 2.090827 1_545
Li3 O11 1.965489 1_545
Li3 O6 2.031460 1_555
Li3 O10 2.074050 1_555
Li3 O0 2.230215 1_555
Li4 O13 1.965489 1_665
Li4 O1 2.031460 1_555
Li4 O12 2.074050 1_555
Li4 O7 2.230215 1_555
Li5 O3 1.931298 1_555
Li5 O14 1.982230 1_555
Li5 O13 2.067808 1_565
Li5 O0 2.090827 1_565
Mn0 O4 1.946924 1_556
Mn0 O14 1.971016 1_555
Mn0 O10 2.024675 1_555
Mn0 O0 2.057009 1_555
Mn1 O2 1.946924 1_554
Mn1 O9 1.971016 1_555
Mn1 O12 2.024675 1_555
Mn1 O7 2.057009 1_555
Mn2 O3 1.981644 1_554
Mn2 O8 1.996843 1_555
Mn2 O6 2.057373 1_565
Mn2 O13 2.091639 1_565
Mn3 O5 1.981644 1_556
Mn3 O15 1.996843 1_555
Mn3 O1 2.057373 1_545
Mn3 O11 2.091639 1_545
O0 Si1 1.671715 1_546
O1 Si0 1.658247 1_565
O2 Si0 1.646774 1_555
O3 Si0 1.625278 1_465
O4 Si1 1.646774 1_555
O5 Si1 1.625278 1_545
O6 Si1 1.658247 1_545
O7 Si0 1.671715 1_564
O8 Si3 1.643224 1_555
O9 Si2 1.640838 1_555
O10 Si2 1.667140 1_555
O11 Si2 1.657631 1_555
O12 Si3 1.667140 1_655
O13 Si3 1.657631 1_555
O14 Si3 1.640838 1_555
O15 Si2 1.643224 1_555
