# generated using pymatgen
data_Fe5O3F7
_symmetry_space_group_name_H-M   'P 1'
_cell_length_a   4.80851600
_cell_length_b   4.81453167
_cell_length_c   15.61526114
_cell_angle_alpha   89.87063899
_cell_angle_beta   89.78812793
_cell_angle_gamma   89.36609011
_symmetry_Int_Tables_number   1
_chemical_formula_structural   Fe5O3F7
_chemical_formula_sum   'Fe10 O6 F14'
_cell_volume   361.47956138
_cell_formula_units_Z   2
loop_
 _symmetry_equiv_pos_site_id
 _symmetry_equiv_pos_as_xyz
  1  'x, y, z'
loop_
 _atom_site_type_symbol
 _atom_site_label
 _atom_site_symmetry_multiplicity
 _atom_site_fract_x
 _atom_site_fract_y
 _atom_site_fract_z
 _atom_site_occupancy
  Fe  Fe0  1  0.99598400  0.00235300  0.99889300  1
  Fe  Fe1  1  0.03821900  0.97737100  0.19356000  1
  Fe  Fe2  1  0.96292200  0.03690500  0.39984900  1
  Fe  Fe3  1  0.02126500  0.95902900  0.60617700  1
  Fe  Fe4  1  0.97674000  0.98221500  0.80170400  1
  Fe  Fe5  1  0.46366200  0.47190800  0.10529000  1
  Fe  Fe6  1  0.49272000  0.50017000  0.50003300  1
  Fe  Fe7  1  0.49995500  0.50673900  0.29967800  1
  Fe  Fe8  1  0.51783500  0.52521600  0.69422900  1
  Fe  Fe9  1  0.52545700  0.52710400  0.90045800  1
  O  O0  1  0.82198200  0.81446600  0.70147400  1
  O  O1  1  0.81728600  0.82627400  0.90278700  1
  O  O2  1  0.30823100  0.69089600  0.20929600  1
  O  O3  1  0.30557500  0.68875800  0.59034500  1
  O  O4  1  0.66550700  0.33412300  0.39964900  1
  O  O5  1  0.17828300  0.16953200  0.09632600  1
  F  F0  1  0.79847900  0.78875400  0.10091300  1
  F  F1  1  0.80279500  0.80624500  0.29463500  1
  F  F2  1  0.79960000  0.80013500  0.50395800  1
  F  F3  1  0.29140000  0.70144200  0.00033500  1
  F  F4  1  0.28419900  0.71639400  0.39989300  1
  F  F5  1  0.29881700  0.71082600  0.79994800  1
  F  F6  1  0.69963800  0.29862900  0.00236900  1
  F  F7  1  0.71397100  0.28487500  0.20953400  1
  F  F8  1  0.71473500  0.28270500  0.59008600  1
  F  F9  1  0.70557400  0.30193700  0.79839700  1
  F  F10  1  0.19436500  0.19527600  0.50546200  1
  F  F11  1  0.19894600  0.19955400  0.29548300  1
  F  F12  1  0.20042800  0.20617700  0.89818400  1
  F  F13  1  0.20543300  0.19399000  0.70105600  1
loop_
_geom_bond_atom_site_label_1
_geom_bond_atom_site_label_2
_geom_bond_distance
_geom_bond_site_symmetry_2
Fe0 O1 1.934055 1_545
Fe0 O5 1.939598 1_656
Fe1 O2 1.899902 1_555
Fe1 O5 1.901251 1_565
Fe2 O4 2.011880 1_555
Fe3 O3 1.892853 1_555
Fe3 O0 1.901740 1_455
Fe4 O1 1.908261 1_555
Fe4 O0 1.919180 1_555
Fe5 O5 2.017066 1_555
Fe5 O2 2.071027 1_555
Fe6 O3 1.897711 1_555
Fe6 O4 1.941100 1_555
Fe7 O2 1.900997 1_555
Fe7 O4 1.936498 1_555
Fe8 O0 2.034217 1_555
Fe8 O3 2.069264 1_555
Fe9 O1 2.022488 1_555
F0 Fe1 2.070743 1_655
F0 Fe0 2.121414 1_564
F0 Fe5 2.230871 1_555
F1 Fe7 2.061835 1_555
F1 Fe1 2.110198 1_655
F1 Fe2 2.135859 1_565
F2 Fe3 2.074908 1_655
F2 Fe6 2.077300 1_555
F2 Fe2 2.135667 1_565
F3 Fe0 2.017865 1_464
F3 Fe9 2.091791 1_554
F3 Fe5 2.138917 1_555
F4 Fe6 2.124952 1_555
F4 Fe7 2.125093 1_555
F4 Fe2 2.171417 1_465
F5 Fe4 2.015333 1_455
F5 Fe9 2.102004 1_555
F5 Fe8 2.146139 1_555
F6 Fe0 2.005749 1_554
F6 Fe9 2.103689 1_554
F6 Fe5 2.130266 1_555
F7 Fe7 2.037937 1_555
F7 Fe1 2.152378 1_645
F7 Fe5 2.212049 1_555
F8 Fe6 2.047683 1_555
F8 Fe3 2.148086 1_645
F8 Fe8 2.208388 1_555
F9 Fe4 2.006999 1_545
F9 Fe9 2.107620 1_555
F9 Fe8 2.144270 1_555
F10 Fe6 2.065266 1_555
F10 Fe3 2.112601 1_545
F10 Fe2 2.139562 1_455
F11 Fe1 2.075983 1_545
F11 Fe7 2.082086 1_555
F11 Fe2 2.134812 1_455
F12 Fe0 2.098909 1_455
F12 Fe4 2.152745 1_445
F12 Fe9 2.210296 1_555
F13 Fe3 2.073253 1_545
F13 Fe4 2.173412 1_445
F13 Fe8 2.205007 1_555
