# generated using pymatgen
data_TiP
_symmetry_space_group_name_H-M   'P 1'
_cell_length_a   3.49914344
_cell_length_b   3.49914363
_cell_length_c   11.68184024
_cell_angle_alpha   90.00000000
_cell_angle_beta   90.00000000
_cell_angle_gamma   119.99998835
_symmetry_Int_Tables_number   1
_chemical_formula_structural   TiP
_chemical_formula_sum   'Ti4 P4'
_cell_volume   123.86980705
_cell_formula_units_Z   4
loop_
 _symmetry_equiv_pos_site_id
 _symmetry_equiv_pos_as_xyz
  1  'x, y, z'
loop_
 _atom_site_type_symbol
 _atom_site_label
 _atom_site_symmetry_multiplicity
 _atom_site_fract_x
 _atom_site_fract_y
 _atom_site_fract_z
 _atom_site_occupancy
  Ti  Ti0  1  0.33333300  0.66666700  0.38348482  1
  Ti  Ti1  1  0.66666700  0.33333300  0.88348482  1
  Ti  Ti2  1  0.66666700  0.33333300  0.61651518  1
  Ti  Ti3  1  0.33333300  0.66666700  0.11651518  1
  P  P0  1  0.66666700  0.33333300  0.25000000  1
  P  P1  1  0.33333300  0.66666700  0.75000000  1
  P  P2  1  0.00000000  0.00000000  0.50000000  1
  P  P3  1  0.00000000  0.00000000  -0.00000000  1
loop_
_geom_bond_atom_site_label_1
_geom_bond_atom_site_label_2
_geom_bond_distance
_geom_bond_site_symmetry_2
P0 Ti0 2.552037 1_655
P0 Ti3 2.552037 1_655
P0 Ti3 2.552038 1_545
P0 Ti0 2.552038 1_545
P0 Ti0 2.552042 1_555
P0 Ti3 2.552042 1_555
P1 Ti1 2.552037 1_455
P1 Ti2 2.552037 1_455
P1 Ti1 2.552038 1_565
P1 Ti2 2.552038 1_565
P1 Ti1 2.552042 1_555
P1 Ti2 2.552042 1_555
P2 Ti0 2.435970 1_545
P2 Ti2 2.435970 1_455
P2 Ti0 2.435973 1_445
P2 Ti2 2.435973 1_555
P2 Ti0 2.435973 1_555
P2 Ti2 2.435973 1_445
P3 Ti1 2.435970 1_454
P3 Ti3 2.435970 1_545
P3 Ti3 2.435973 1_445
P3 Ti1 2.435973 1_554
P3 Ti3 2.435973 1_555
P3 Ti1 2.435973 1_444
