# generated using pymatgen
data_Li2Cu2F5
_symmetry_space_group_name_H-M   'P 1'
_cell_length_a   2.92750100
_cell_length_b   7.74674000
_cell_length_c   17.83559300
_cell_angle_alpha   90.00000000
_cell_angle_beta   90.00000000
_cell_angle_gamma   90.00000000
_symmetry_Int_Tables_number   1
_chemical_formula_structural   Li2Cu2F5
_chemical_formula_sum   'Li8 Cu8 F20'
_cell_volume   404.48608494
_cell_formula_units_Z   4
loop_
 _symmetry_equiv_pos_site_id
 _symmetry_equiv_pos_as_xyz
  1  'x, y, z'
loop_
 _atom_site_type_symbol
 _atom_site_label
 _atom_site_symmetry_multiplicity
 _atom_site_fract_x
 _atom_site_fract_y
 _atom_site_fract_z
 _atom_site_occupancy
  Li  Li0  1  0.75000000  0.14702900  0.02585100  1
  Li  Li1  1  0.75000000  0.86251900  0.12695600  1
  Li  Li2  1  0.25000000  0.36251900  0.37304400  1
  Li  Li3  1  0.25000000  0.64702900  0.47414900  1
  Li  Li4  1  0.75000000  0.35297100  0.52585100  1
  Li  Li5  1  0.75000000  0.63748100  0.62695600  1
  Li  Li6  1  0.25000000  0.13748100  0.87304400  1
  Li  Li7  1  0.25000000  0.85297100  0.97414900  1
  Cu  Cu0  1  0.25000000  0.50553000  0.08606700  1
  Cu  Cu1  1  0.25000000  0.17624100  0.19786500  1
  Cu  Cu2  1  0.75000000  0.67624100  0.30213500  1
  Cu  Cu3  1  0.75000000  0.00553000  0.41393300  1
  Cu  Cu4  1  0.25000000  0.99447000  0.58606700  1
  Cu  Cu5  1  0.25000000  0.32375900  0.69786500  1
  Cu  Cu6  1  0.75000000  0.82375900  0.80213500  1
  Cu  Cu7  1  0.75000000  0.49447000  0.91393300  1
  F  F0  1  0.25000000  0.32380400  0.01380100  1
  F  F1  1  0.25000000  0.99297800  0.06775100  1
  F  F2  1  0.25000000  0.70185600  0.14601500  1
  F  F3  1  0.75000000  0.32580700  0.15822600  1
  F  F4  1  0.75000000  0.01219100  0.21494200  1
  F  F5  1  0.25000000  0.51219100  0.28505800  1
  F  F6  1  0.25000000  0.82580700  0.34177400  1
  F  F7  1  0.75000000  0.20185600  0.35398500  1
  F  F8  1  0.75000000  0.49297800  0.43224900  1
  F  F9  1  0.75000000  0.82380400  0.48619900  1
  F  F10  1  0.25000000  0.17619600  0.51380100  1
  F  F11  1  0.25000000  0.50702200  0.56775100  1
  F  F12  1  0.25000000  0.79814400  0.64601500  1
  F  F13  1  0.75000000  0.17419300  0.65822600  1
  F  F14  1  0.75000000  0.48780900  0.71494200  1
  F  F15  1  0.25000000  0.98780900  0.78505800  1
  F  F16  1  0.25000000  0.67419300  0.84177400  1
  F  F17  1  0.75000000  0.29814400  0.85398500  1
  F  F18  1  0.75000000  0.00702200  0.93224900  1
  F  F19  1  0.75000000  0.67619600  0.98619900  1
loop_
_geom_bond_atom_site_label_1
_geom_bond_atom_site_label_2
_geom_bond_distance
_geom_bond_site_symmetry_2
Cu0 F2 1.859113 1_555
Cu0 F0 1.908700 1_555
Cu0 F3 2.395274 1_455
Cu0 F3 2.395274 1_555
Cu1 F4 1.962244 1_555
Cu1 F4 1.962244 1_455
Cu1 F3 1.996212 1_455
Cu1 F3 1.996212 1_555
Cu2 F5 1.962244 1_655
Cu2 F5 1.962244 1_555
Cu2 F6 1.996212 1_555
Cu2 F6 1.996212 1_655
Cu3 F7 1.859113 1_555
Cu3 F9 1.908700 1_545
Cu3 F6 2.395274 1_545
Cu3 F6 2.395274 1_645
Cu4 F12 1.859113 1_555
Cu4 F10 1.908700 1_565
Cu4 F13 2.395274 1_465
Cu4 F13 2.395274 1_565
Cu5 F14 1.962244 1_555
Cu5 F14 1.962244 1_455
Cu5 F13 1.996212 1_455
Cu5 F13 1.996212 1_555
Cu6 F15 1.962244 1_555
Cu6 F15 1.962244 1_655
Cu6 F16 1.996212 1_655
Cu6 F16 1.996212 1_555
Cu7 F17 1.859113 1_555
Cu7 F19 1.908700 1_555
Cu7 F16 2.395274 1_555
Cu7 F16 2.395274 1_655
F0 Li0 2.015960 1_455
F0 Li0 2.015960 1_555
F1 Li7 1.990831 1_554
F1 Li0 2.031065 1_465
F1 Li0 2.031065 1_565
F1 Li1 2.068571 1_455
F1 Li1 2.068571 1_555
F2 Li1 1.951200 1_555
F2 Li1 1.951200 1_455
F4 Li1 1.951158 1_545
F5 Li2 1.951158 1_555
F7 Li2 1.951200 1_555
F7 Li2 1.951200 1_655
F8 Li4 1.990831 1_555
F8 Li3 2.031065 1_555
F8 Li3 2.031065 1_655
F8 Li2 2.068571 1_655
F8 Li2 2.068571 1_555
F9 Li3 2.015960 1_555
F9 Li3 2.015960 1_655
F10 Li4 2.015960 1_555
F10 Li4 2.015960 1_455
F11 Li3 1.990831 1_555
F11 Li4 2.031065 1_455
F11 Li4 2.031065 1_555
F11 Li5 2.068571 1_455
F11 Li5 2.068571 1_555
F12 Li5 1.951200 1_555
F12 Li5 1.951200 1_455
F14 Li5 1.951158 1_555
F15 Li6 1.951158 1_565
F17 Li6 1.951200 1_555
F17 Li6 1.951200 1_655
F18 Li0 1.990831 1_556
F18 Li7 2.031065 1_645
F18 Li7 2.031065 1_545
F18 Li6 2.068571 1_555
F18 Li6 2.068571 1_655
F19 Li7 2.015960 1_555
F19 Li7 2.015960 1_655
