# generated using pymatgen
data_HoTa3O9
_symmetry_space_group_name_H-M   'P 1'
_cell_length_a   7.43822089
_cell_length_b   5.23692014
_cell_length_c   8.22463621
_cell_angle_alpha   87.52642159
_cell_angle_beta   90.00000000
_cell_angle_gamma   90.00000000
_symmetry_Int_Tables_number   1
_chemical_formula_structural   HoTa3O9
_chemical_formula_sum   'Ho2 Ta6 O18'
_cell_volume   320.07876956
_cell_formula_units_Z   2
loop_
 _symmetry_equiv_pos_site_id
 _symmetry_equiv_pos_as_xyz
  1  'x, y, z'
loop_
 _atom_site_type_symbol
 _atom_site_label
 _atom_site_symmetry_multiplicity
 _atom_site_fract_x
 _atom_site_fract_y
 _atom_site_fract_z
 _atom_site_occupancy
  Ho  Ho0  1  0.25000000  0.96698051  0.43496717  1
  Ho  Ho1  1  0.75000000  0.03301949  0.56503283  1
  Ta  Ta0  1  0.00000000  0.00000000  0.00000000  1
  Ta  Ta1  1  0.50000000  0.00000000  0.00000000  1
  Ta  Ta2  1  0.49226706  0.52799252  0.69742528  1
  Ta  Ta3  1  0.00773294  0.52799252  0.69742528  1
  Ta  Ta4  1  0.99226706  0.47200748  0.30257472  1
  Ta  Ta5  1  0.50773294  0.47200748  0.30257472  1
  O  O0  1  0.25000000  0.89769522  0.97807531  1
  O  O1  1  0.93441963  0.85434443  0.78337460  1
  O  O2  1  0.56558037  0.85434443  0.78337460  1
  O  O3  1  0.95585663  0.74258262  0.46674772  1
  O  O4  1  0.54414337  0.74258262  0.46674772  1
  O  O5  1  0.25000000  0.66838518  0.65278606  1
  O  O6  1  0.94254275  0.67269956  0.11860802  1
  O  O7  1  0.55745725  0.67269956  0.11860802  1
  O  O8  1  0.25000000  0.57970261  0.31296288  1
  O  O9  1  0.75000000  0.42029739  0.68703712  1
  O  O10  1  0.05745725  0.32730044  0.88139198  1
  O  O11  1  0.44254275  0.32730044  0.88139198  1
  O  O12  1  0.75000000  0.33161482  0.34721394  1
  O  O13  1  0.04414337  0.25741738  0.53325228  1
  O  O14  1  0.45585663  0.25741738  0.53325228  1
  O  O15  1  0.06558037  0.14565557  0.21662540  1
  O  O16  1  0.43441963  0.14565557  0.21662540  1
  O  O17  1  0.75000000  0.10230478  0.02192469  1
loop_
_geom_bond_atom_site_label_1
_geom_bond_atom_site_label_2
_geom_bond_distance
_geom_bond_site_symmetry_2
Ho0 O8 2.301288 1_555
Ho0 O5 2.326546 1_555
Ho0 O14 2.327572 1_565
Ho0 O13 2.327572 1_565
Ho0 O15 2.415998 1_565
Ho0 O16 2.415998 1_565
Ho0 O4 2.491930 1_555
Ho0 O3 2.491930 1_455
Ho1 O9 2.301288 1_555
Ho1 O12 2.326546 1_555
Ho1 O3 2.327572 1_545
Ho1 O4 2.327572 1_545
Ho1 O1 2.415998 1_545
Ho1 O2 2.415998 1_545
Ho1 O14 2.491930 1_555
Ho1 O13 2.491930 1_655
O0 Ta0 1.945724 1_566
O0 Ta1 1.945724 1_566
O1 Ta3 1.955075 1_655
O1 Ta0 2.027667 1_666
O2 Ta2 1.955075 1_555
O2 Ta1 2.027667 1_566
O3 Ta4 2.017311 1_555
O3 Ta3 2.197107 1_655
O4 Ta5 2.017311 1_555
O4 Ta2 2.197107 1_555
O5 Ta2 1.974685 1_555
O5 Ta3 1.974685 1_555
O6 Ta4 1.842145 1_555
O6 Ta0 1.981892 1_665
O7 Ta5 1.842145 1_555
O7 Ta1 1.981892 1_565
O8 Ta5 2.001180 1_555
O8 Ta4 2.001180 1_455
O9 Ta3 2.001180 1_655
O9 Ta2 2.001180 1_555
O10 Ta3 1.842145 1_555
O10 Ta0 1.981892 1_556
O11 Ta2 1.842145 1_555
O11 Ta1 1.981892 1_556
O12 Ta5 1.974685 1_555
O12 Ta4 1.974685 1_555
O13 Ta3 2.017311 1_555
O13 Ta4 2.197107 1_455
O14 Ta2 2.017311 1_555
O14 Ta5 2.197107 1_555
O15 Ta4 1.955075 1_455
O15 Ta0 2.027667 1_555
O16 Ta5 1.955075 1_555
O16 Ta1 2.027667 1_555
O17 Ta0 1.945724 1_655
O17 Ta1 1.945724 1_555
