# generated using pymatgen
data_FeOF
_symmetry_space_group_name_H-M   'P 1'
_cell_length_a   3.11532300
_cell_length_b   14.16119400
_cell_length_c   14.25566617
_cell_angle_alpha   89.92511904
_cell_angle_beta   90.00000000
_cell_angle_gamma   90.00000000
_symmetry_Int_Tables_number   1
_chemical_formula_structural   FeOF
_chemical_formula_sum   'Fe18 O18 F18'
_cell_volume   628.91231639
_cell_formula_units_Z   18
loop_
 _symmetry_equiv_pos_site_id
 _symmetry_equiv_pos_as_xyz
  1  'x, y, z'
loop_
 _atom_site_type_symbol
 _atom_site_label
 _atom_site_symmetry_multiplicity
 _atom_site_fract_x
 _atom_site_fract_y
 _atom_site_fract_z
 _atom_site_occupancy
  Fe  Fe0  1  0.00000000  0.98661500  0.00123400  1
  Fe  Fe1  1  0.00000000  0.99095400  0.67236300  1
  Fe  Fe2  1  0.00000000  0.98626100  0.33681500  1
  Fe  Fe3  1  0.50000000  0.84710200  0.83448400  1
  Fe  Fe4  1  0.50000000  0.84867600  0.50541300  1
  Fe  Fe5  1  0.50000000  0.84697800  0.16891400  1
  Fe  Fe6  1  0.00000000  0.65432700  0.00217200  1
  Fe  Fe7  1  0.00000000  0.65501200  0.66841500  1
  Fe  Fe8  1  0.00000000  0.65661600  0.33816300  1
  Fe  Fe9  1  0.50000000  0.51300500  0.50284000  1
  Fe  Fe10  1  0.50000000  0.51421600  0.83439600  1
  Fe  Fe11  1  0.50000000  0.51572000  0.17150200  1
  Fe  Fe12  1  0.00000000  0.32340400  0.00510000  1
  Fe  Fe13  1  0.00000000  0.31959900  0.66968800  1
  Fe  Fe14  1  0.00000000  0.32031800  0.33635600  1
  Fe  Fe15  1  0.50000000  0.15881000  0.81536500  1
  Fe  Fe16  1  0.50000000  0.17909000  0.50285800  1
  Fe  Fe17  1  0.50000000  0.17805600  0.16988900  1
  O  O0  1  0.50000000  0.93217900  0.72998900  1
  O  O1  1  0.50000000  0.93585400  0.39874900  1
  O  O2  1  0.50000000  0.93530600  0.06420600  1
  O  O3  1  0.00000000  0.89914000  0.89734600  1
  O  O4  1  0.00000000  0.89976300  0.56601300  1
  O  O5  1  0.00000000  0.89847000  0.23120800  1
  O  O6  1  0.50000000  0.60240200  0.73069700  1
  O  O7  1  0.50000000  0.60242500  0.39838800  1
  O  O8  1  0.50000000  0.60162200  0.06465700  1
  O  O9  1  0.00000000  0.56367500  0.89876500  1
  O  O10  1  0.00000000  0.56512300  0.56462300  1
  O  O11  1  0.00000000  0.56676800  0.23283500  1
  O  O12  1  0.50000000  0.27024500  0.73430800  1
  O  O13  1  0.50000000  0.26824200  0.39761900  1
  O  O14  1  0.50000000  0.26689800  0.06152200  1
  O  O15  1  0.00000000  0.23226400  0.56475700  1
  O  O16  1  0.00000000  0.23282300  0.22979200  1
  O  O17  1  0.00000000  0.09858800  0.76439600  1
  F  F0  1  0.00000000  0.76715100  0.76667800  1
  F  F1  1  0.00000000  0.76879100  0.43493400  1
  F  F2  1  0.00000000  0.76772000  0.10038400  1
  F  F3  1  0.50000000  0.73201800  0.93372900  1
  F  F4  1  0.50000000  0.73303300  0.26760000  1
  F  F5  1  0.50000000  0.73228200  0.60088500  1
  F  F6  1  0.00000000  0.43493100  0.76720900  1
  F  F7  1  0.00000000  0.43444500  0.43334900  1
  F  F8  1  0.00000000  0.43368100  0.09969700  1
  F  F9  1  0.50000000  0.39528500  0.93312100  1
  F  F10  1  0.50000000  0.39901600  0.60069900  1
  F  F11  1  0.50000000  0.39938300  0.26656100  1
  F  F12  1  0.00000000  0.23059900  0.89697000  1
  F  F13  1  0.00000000  0.10201500  0.43246000  1
  F  F14  1  0.00000000  0.10172400  0.10097300  1
  F  F15  1  0.50000000  0.06927500  0.93647700  1
  F  F16  1  0.50000000  0.06611200  0.59586000  1
  F  F17  1  0.50000000  0.06599100  0.26657800  1
loop_
_geom_bond_atom_site_label_1
_geom_bond_atom_site_label_2
_geom_bond_distance
_geom_bond_site_symmetry_2
Fe0 O3 1.932003 1_554
Fe0 O2 1.938666 1_455
Fe0 O2 1.938666 1_555
Fe1 O0 1.947343 1_555
Fe1 O0 1.947343 1_455
Fe1 O4 1.992810 1_555
Fe1 O17 2.012415 1_565
Fe2 O1 1.927106 1_555
Fe2 O1 1.927106 1_455
Fe2 O5 1.953721 1_555
Fe3 O0 1.914648 1_555
Fe3 O3 1.942718 1_555
Fe3 O3 1.942718 1_655
Fe4 O4 1.922925 1_655
Fe4 O4 1.922925 1_555
Fe4 O1 1.957375 1_555
Fe5 O5 1.936062 1_655
Fe5 O5 1.936062 1_555
Fe5 O2 1.946226 1_555
Fe6 O8 1.942961 1_455
Fe6 O8 1.942961 1_555
Fe6 O9 1.956019 1_554
Fe7 O6 1.941121 1_455
Fe7 O6 1.941121 1_555
Fe7 O10 1.953094 1_555
Fe8 O7 1.936649 1_455
Fe8 O7 1.936649 1_555
Fe8 O11 1.969377 1_555
Fe9 O10 1.936095 1_655
Fe9 O10 1.936095 1_555
Fe9 O7 1.953405 1_555
Fe10 O6 1.933931 1_555
Fe10 O9 1.939221 1_555
Fe10 O9 1.939221 1_655
Fe11 O11 1.927439 1_655
Fe11 O11 1.927439 1_555
Fe11 O8 1.948062 1_555
Fe12 O14 1.926626 1_455
Fe12 O14 1.926626 1_555
Fe13 O12 1.939514 1_555
Fe13 O12 1.939514 1_455
Fe13 O15 1.942172 1_555
Fe14 O13 1.931632 1_455
Fe14 O13 1.931632 1_555
Fe14 O16 1.961610 1_555
Fe15 O17 1.919158 1_555
Fe15 O17 1.919158 1_655
Fe15 O12 1.954665 1_555
Fe16 O15 1.942606 1_655
Fe16 O15 1.942606 1_555
Fe16 O13 1.959517 1_555
Fe17 O16 1.938759 1_555
Fe17 O16 1.938759 1_655
Fe17 O14 1.991055 1_555
F0 Fe7 2.118934 1_555
F0 Fe3 2.155320 1_455
F0 Fe3 2.155320 1_555
F1 Fe8 2.105298 1_555
F1 Fe4 2.172215 1_555
F1 Fe4 2.172215 1_455
F2 Fe6 2.131812 1_555
F2 Fe5 2.154842 1_555
F2 Fe5 2.154842 1_455
F3 Fe6 2.141478 1_656
F3 Fe6 2.141478 1_556
F3 Fe3 2.156769 1_555
F4 Fe5 2.139380 1_555
F4 Fe8 2.146254 1_655
F4 Fe8 2.146254 1_555
F5 Fe7 2.132527 1_555
F5 Fe7 2.132527 1_655
F5 Fe4 2.136194 1_555
F6 Fe13 2.146191 1_555
F6 Fe10 2.146417 1_455
F6 Fe10 2.146417 1_555
F7 Fe14 2.128314 1_555
F7 Fe9 2.155974 1_555
F7 Fe9 2.155974 1_455
F8 Fe12 2.064664 1_555
F8 Fe11 2.197030 1_455
F8 Fe11 2.197030 1_555
F9 Fe12 2.124298 1_656
F9 Fe12 2.124298 1_556
F9 Fe10 2.193422 1_555
F10 Fe9 2.132129 1_555
F10 Fe13 2.157655 1_555
F10 Fe13 2.157655 1_655
F11 Fe11 2.131830 1_555
F11 Fe14 2.160324 1_655
F11 Fe14 2.160324 1_555
F12 Fe12 2.026971 1_556
F12 Fe15 2.194597 1_555
F12 Fe15 2.194597 1_455
F13 Fe2 2.133531 1_545
F13 Fe16 2.151195 1_555
F13 Fe16 2.151195 1_455
F14 Fe17 2.136057 1_455
F14 Fe17 2.136057 1_555
F14 Fe0 2.164455 1_545
F15 Fe15 2.140752 1_555
F15 Fe0 2.155439 1_546
F15 Fe0 2.155439 1_646
F16 Fe16 2.076513 1_555
F16 Fe1 2.178412 1_545
F16 Fe1 2.178412 1_645
F17 Fe17 2.100634 1_555
F17 Fe2 2.168112 1_645
F17 Fe2 2.168112 1_545
