# generated using pymatgen
data_Li9V12Cr7O48
_symmetry_space_group_name_H-M   'P 1'
_cell_length_a   5.04344100
_cell_length_b   10.25605112
_cell_length_c   17.17957276
_cell_angle_alpha   89.75273898
_cell_angle_beta   89.58181674
_cell_angle_gamma   89.91563772
_symmetry_Int_Tables_number   1
_chemical_formula_structural   Li9V12Cr7O48
_chemical_formula_sum   'Li9 V12 Cr7 O48'
_cell_volume   888.59408498
_cell_formula_units_Z   1
loop_
 _symmetry_equiv_pos_site_id
 _symmetry_equiv_pos_as_xyz
  1  'x, y, z'
loop_
 _atom_site_type_symbol
 _atom_site_label
 _atom_site_symmetry_multiplicity
 _atom_site_fract_x
 _atom_site_fract_y
 _atom_site_fract_z
 _atom_site_occupancy
  Li  Li0  1  0.75346200  0.57855500  0.96730000  1
  Li  Li1  1  0.74414100  0.25455500  0.30425500  1
  Li  Li2  1  0.74696400  0.74276700  0.79814600  1
  Li  Li3  1  0.74864700  0.41898900  0.46951700  1
  Li  Li4  1  0.60130400  0.25148400  0.74980100  1
  Li  Li5  1  0.40047900  0.75069300  0.25033100  1
  Li  Li6  1  0.25107300  0.91877500  0.53089400  1
  Li  Li7  1  0.25421400  0.25284800  0.20158600  1
  Li  Li8  1  0.25473500  0.75054600  0.69637600  1
  V  V0  1  0.79147600  0.25139500  0.94360600  1
  V  V1  1  0.78459500  0.97452700  0.65822600  1
  V  V2  1  0.78664100  0.52635400  0.65265700  1
  V  V3  1  0.72260200  0.47357100  0.15533700  1
  V  V4  1  0.71578000  0.02819000  0.15708500  1
  V  V5  1  0.72399800  0.74839300  0.44457300  1
  V  V6  1  0.27576800  0.24799300  0.55497100  1
  V  V7  1  0.28961000  0.97213800  0.84307300  1
  V  V8  1  0.27502800  0.52593300  0.84329100  1
  V  V9  1  0.21512700  0.47319200  0.34291700  1
  V  V10  1  0.21264400  0.02547400  0.34646400  1
  V  V11  1  0.21143700  0.75211600  0.05744400  1
  Cr  Cr0  1  0.90244200  0.74991200  0.25342200  1
  Cr  Cr1  1  0.75490800  0.92905200  0.97378900  1
  Cr  Cr2  1  0.74134800  0.06749000  0.47575000  1
  Cr  Cr3  1  0.25956600  0.56738400  0.52410400  1
  Cr  Cr4  1  0.25001100  0.43301300  0.02716300  1
  Cr  Cr5  1  0.25477700  0.07265400  0.02730700  1
  Cr  Cr6  1  0.10065100  0.25140100  0.74594300  1
  O  O0  1  0.93398300  0.76236100  0.99614400  1
  O  O1  1  0.94903100  0.38537300  0.37097900  1
  O  O2  1  0.91714200  0.10974700  0.38074200  1
  O  O3  1  0.90491800  0.37497200  0.20852900  1
  O  O4  1  0.90286300  0.12197800  0.21103500  1
  O  O5  1  0.89776700  0.89120700  0.46589700  1
  O  O6  1  0.94060000  0.62379800  0.46702800  1
  O  O7  1  0.92023000  0.99792200  0.07041300  1
  O  O8  1  0.92915600  0.50214300  0.07374500  1
  O  O9  1  0.86857100  0.25140700  0.84658900  1
  O  O10  1  0.86871600  0.38126200  0.70386500  1
  O  O11  1  0.87533100  0.12395900  0.70888800  1
  O  O12  1  0.66873100  0.87743300  0.20580300  1
  O  O13  1  0.67633200  0.62273700  0.20496700  1
  O  O14  1  0.66561300  0.74755200  0.34362500  1
  O  O15  1  0.59167500  0.01186000  0.57213900  1
  O  O16  1  0.57400300  0.49402400  0.57407200  1
  O  O17  1  0.59211200  0.11008700  0.96624400  1
  O  O18  1  0.57164200  0.37388500  0.96644500  1
  O  O19  1  0.58440700  0.88343700  0.71634600  1
  O  O20  1  0.60333100  0.62387300  0.70812900  1
  O  O21  1  0.58472200  0.88939600  0.87906500  1
  O  O22  1  0.55042600  0.61016900  0.87023900  1
  O  O23  1  0.56355600  0.23560800  0.49467200  1
  O  O24  1  0.43730600  0.73609800  0.50492400  1
  O  O25  1  0.42001300  0.39047600  0.11962800  1
  O  O26  1  0.43001800  0.11303300  0.12549300  1
  O  O27  1  0.41422000  0.38098400  0.28589100  1
  O  O28  1  0.39182900  0.12152100  0.28874800  1
  O  O29  1  0.42250400  0.89043300  0.03570700  1
  O  O30  1  0.39459700  0.61262900  0.03582600  1
  O  O31  1  0.42478400  0.99462100  0.42512800  1
  O  O32  1  0.40930300  0.51280900  0.42817500  1
  O  O33  1  0.33307900  0.24630800  0.65620600  1
  O  O34  1  0.32714600  0.37515700  0.79121000  1
  O  O35  1  0.33234300  0.12106600  0.79536100  1
  O  O36  1  0.12524800  0.88022200  0.29505600  1
  O  O37  1  0.12837700  0.62305700  0.29178800  1
  O  O38  1  0.12830800  0.75455100  0.15427600  1
  O  O39  1  0.09145000  0.48063500  0.93014800  1
  O  O40  1  0.08431500  0.00839300  0.92841700  1
  O  O41  1  0.10177100  0.39062900  0.53408700  1
  O  O42  1  0.05995100  0.12362000  0.53311900  1
  O  O43  1  0.09169900  0.87643900  0.79337400  1
  O  O44  1  0.08253100  0.62426300  0.78892800  1
  O  O45  1  0.04944000  0.88554000  0.63051600  1
  O  O46  1  0.08362000  0.61031300  0.61844200  1
  O  O47  1  0.07786300  0.25161400  0.00862500  1
loop_
_geom_bond_atom_site_label_1
_geom_bond_atom_site_label_2
_geom_bond_distance
_geom_bond_site_symmetry_2
Li0 O22 1.988323 1_555
Li0 O39 2.075158 1_655
Li0 O0 2.155888 1_555
Li0 O8 2.180057 1_556
Li0 O30 2.180462 1_556
Li0 O18 2.292047 1_555
Li1 O1 2.053421 1_555
Li1 O27 2.132447 1_555
Li1 O2 2.165571 1_555
Li1 O3 2.202993 1_555
Li1 O4 2.247499 1_555
Li1 O28 2.259868 1_555
Li2 O22 2.082644 1_555
Li2 O44 2.087627 1_655
Li2 O20 2.106752 1_555
Li2 O19 2.173536 1_555
Li2 O21 2.204860 1_555
Li2 O43 2.216549 1_655
Li3 O1 1.996240 1_555
Li3 O32 2.089595 1_555
Li3 O41 2.124020 1_655
Li3 O16 2.140387 1_555
Li3 O23 2.141895 1_555
Li3 O6 2.314281 1_555
Li4 O34 2.003753 1_555
Li4 O11 2.025610 1_555
Li4 O10 2.047920 1_555
Li4 O35 2.054896 1_555
Li4 O33 2.109724 1_555
Li4 O9 2.148135 1_555
Li5 O12 2.021549 1_555
Li5 O37 2.021659 1_555
Li5 O13 2.062220 1_555
Li5 O36 2.066357 1_555
Li5 O14 2.094906 1_555
Li5 O38 2.154358 1_555
Li6 O45 2.012463 1_555
Li6 O15 2.095898 1_565
Li6 O5 2.129583 1_455
Li6 O24 2.141807 1_555
Li6 O31 2.154243 1_555
Li6 O42 2.310533 1_565
Li7 O27 2.124268 1_555
Li7 O28 2.129102 1_555
Li7 O26 2.132318 1_555
Li7 O25 2.154814 1_555
Li7 O3 2.162905 1_455
Li7 O4 2.229092 1_455
Li8 O45 2.066017 1_555
Li8 O46 2.154769 1_555
Li8 O19 2.181477 1_555
Li8 O20 2.194490 1_555
Li8 O44 2.219288 1_555
Li8 O43 2.261747 1_555
Cr0 O37 1.850606 1_655
Cr0 O36 1.893372 1_655
Cr0 O13 1.929311 1_555
Cr0 O12 1.941495 1_555
Cr0 O14 1.949721 1_555
Cr0 O38 2.042603 1_655
Cr1 O21 1.891409 1_555
Cr1 O0 1.969958 1_555
Cr1 O7 1.995404 1_556
Cr1 O40 2.002347 1_665
Cr1 O29 2.017720 1_556
Cr1 O17 2.033043 1_565
Cr2 O2 1.900491 1_555
Cr2 O15 1.900602 1_555
Cr2 O23 1.969442 1_555
Cr2 O31 1.973139 1_545
Cr2 O42 1.978757 1_655
Cr2 O5 1.978949 1_545
Cr3 O32 1.894233 1_555
Cr3 O46 1.895236 1_555
Cr3 O16 1.956698 1_555
Cr3 O6 1.974710 1_455
Cr3 O24 1.975235 1_555
Cr3 O41 1.987110 1_555
Cr4 O25 1.860540 1_555
Cr4 O39 1.914979 1_554
Cr4 O8 1.935026 1_455
Cr4 O30 1.988800 1_555
Cr4 O18 2.016180 1_554
Cr4 O47 2.080953 1_555
Cr5 O26 1.956215 1_555
Cr5 O7 1.990829 1_445
Cr5 O40 2.022955 1_554
Cr5 O17 2.028493 1_554
Cr5 O29 2.055206 1_545
Cr5 O47 2.064504 1_555
Cr6 O11 1.851249 1_455
Cr6 O34 1.883187 1_555
Cr6 O10 1.914203 1_455
Cr6 O33 1.930717 1_555
Cr6 O35 1.968027 1_555
Cr6 O9 2.080894 1_455
O0 V11 1.760200 1_656
O1 V9 1.683766 1_655
O2 V10 1.817342 1_655
O3 V3 1.644594 1_555
O4 V4 1.642460 1_555
O5 V5 1.749496 1_555
O6 V5 1.724207 1_555
O7 V4 1.832299 1_565
O8 V3 1.764070 1_555
O9 V0 1.708697 1_555
O10 V2 1.775340 1_555
O11 V1 1.826234 1_545
O12 V4 1.770440 1_565
O13 V3 1.768948 1_555
O14 V5 1.761242 1_555
O15 V1 1.815371 1_545
O16 V2 1.763163 1_555
O17 V0 1.804528 1_555
O18 V0 1.719073 1_555
O19 V1 1.693844 1_555
O20 V2 1.660081 1_555
O21 V7 1.822888 1_555
O22 V8 1.704777 1_555
O23 V6 1.781734 1_555
O24 V5 1.777374 1_555
O25 V3 1.858383 1_555
O26 V4 1.769889 1_555
O27 V9 1.689139 1_555
O28 V10 1.658703 1_555
O29 V11 1.810823 1_555
O30 V11 1.741700 1_555
O31 V10 1.757153 1_565
O32 V9 1.815690 1_555
O33 V6 1.765116 1_555
O34 V8 1.807815 1_555
O35 V7 1.743240 1_545
O36 V10 1.792340 1_565
O37 V9 1.821368 1_555
O38 V11 1.712859 1_555
O39 V8 1.809623 1_555
O40 V7 1.827943 1_545
O41 V6 1.742158 1_555
O42 V6 1.722486 1_555
O43 V7 1.646567 1_555
O44 V8 1.683456 1_555
O45 V1 1.683631 1_455
O46 V2 1.821250 1_455
O47 V0 1.832347 1_454
