# generated using pymatgen
data_Rb4SnO3
_symmetry_space_group_name_H-M   'P 1'
_cell_length_a   10.52266306
_cell_length_b   10.52266306
_cell_length_c   6.89818789
_cell_angle_alpha   83.33569435
_cell_angle_beta   83.33569435
_cell_angle_gamma   142.20415358
_symmetry_Int_Tables_number   1
_chemical_formula_structural   Rb4SnO3
_chemical_formula_sum   'Rb8 Sn2 O6'
_cell_volume   437.02036648
_cell_formula_units_Z   2
loop_
 _symmetry_equiv_pos_site_id
 _symmetry_equiv_pos_as_xyz
  1  'x, y, z'
loop_
 _atom_site_type_symbol
 _atom_site_label
 _atom_site_symmetry_multiplicity
 _atom_site_fract_x
 _atom_site_fract_y
 _atom_site_fract_z
 _atom_site_occupancy
  Rb  Rb0  1  0.38289600  0.68703900  0.79510400  1
  Rb  Rb1  1  0.55036600  0.47433300  0.74474800  1
  Rb  Rb2  1  0.96077300  0.05211600  0.76219700  1
  Rb  Rb3  1  0.73886400  0.24595600  0.76553100  1
  Rb  Rb4  1  0.68703900  0.38289600  0.29510400  1
  Rb  Rb5  1  0.47433300  0.55036600  0.24474800  1
  Rb  Rb6  1  0.05211600  0.96077300  0.26219700  1
  Rb  Rb7  1  0.24595600  0.73886400  0.26553100  1
  Sn  Sn0  1  0.11194100  0.83677800  0.74530700  1
  Sn  Sn1  1  0.83677800  0.11194100  0.24530700  1
  O  O0  1  0.84904700  0.70458000  0.96423900  1
  O  O1  1  0.95172700  0.64381700  0.55669700  1
  O  O2  1  0.70458000  0.84904700  0.46423900  1
  O  O3  1  0.64381700  0.95172700  0.05669700  1
  O  O4  1  0.28608500  0.13530900  0.55886300  1
  O  O5  1  0.13530900  0.28608500  0.05886300  1
loop_
_geom_bond_atom_site_label_1
_geom_bond_atom_site_label_2
_geom_bond_distance
_geom_bond_site_symmetry_2
O0 Sn0 2.080763 1_655
O0 Rb4 2.785211 1_556
O0 Rb1 2.821720 1_555
O0 Rb2 2.887953 1_565
O0 Rb6 3.042963 1_656
O0 Rb5 3.051703 1_556
O1 Sn0 2.090485 1_655
O1 Rb3 2.766007 1_555
O1 Rb7 2.795846 1_655
O1 Rb6 2.954297 1_655
O1 Rb4 2.963625 1_555
O1 Rb1 2.998011 1_555
O2 Sn1 2.080763 1_565
O2 Rb0 2.785211 1_555
O2 Rb5 2.821720 1_555
O2 Rb6 2.887953 1_655
O2 Rb2 3.042963 1_565
O2 Rb1 3.051703 1_555
O3 Sn1 2.090485 1_565
O3 Rb7 2.766007 1_555
O3 Rb3 2.795846 1_564
O3 Rb2 2.954297 1_564
O3 Rb0 2.963625 1_554
O3 Rb5 2.998011 1_555
O4 Sn0 2.073143 1_545
O4 Rb4 2.764985 1_555
O4 Rb1 2.883571 1_555
O4 Rb2 2.883804 1_455
O4 Rb6 2.918589 1_545
O4 Rb5 3.290674 1_555
O5 Sn1 2.073143 1_455
O5 Rb0 2.764985 1_554
O5 Rb5 2.883571 1_555
O5 Rb6 2.883804 1_545
O5 Rb2 2.918589 1_454
O5 Rb1 3.290674 1_554
