# generated using pymatgen
data_LiFe2OF3
_symmetry_space_group_name_H-M   'P 1'
_cell_length_a   6.22435100
_cell_length_b   6.22937800
_cell_length_c   8.84264900
_cell_angle_alpha   90.00000000
_cell_angle_beta   90.00000000
_cell_angle_gamma   90.00000000
_symmetry_Int_Tables_number   1
_chemical_formula_structural   LiFe2OF3
_chemical_formula_sum   'Li4 Fe8 O4 F12'
_cell_volume   342.86341491
_cell_formula_units_Z   4
loop_
 _symmetry_equiv_pos_site_id
 _symmetry_equiv_pos_as_xyz
  1  'x, y, z'
loop_
 _atom_site_type_symbol
 _atom_site_label
 _atom_site_symmetry_multiplicity
 _atom_site_fract_x
 _atom_site_fract_y
 _atom_site_fract_z
 _atom_site_occupancy
  Li  Li0  1  0.75000000  0.46797200  0.60791700  1
  Li  Li1  1  0.25000000  0.53202800  0.39208300  1
  Li  Li2  1  0.25000000  0.03202800  0.10791700  1
  Li  Li3  1  0.75000000  0.96797200  0.89208300  1
  Fe  Fe0  1  0.00000000  0.00000000  0.50000000  1
  Fe  Fe1  1  0.50000000  0.00000000  0.50000000  1
  Fe  Fe2  1  0.75000000  0.74856800  0.23901600  1
  Fe  Fe3  1  0.75000000  0.24856800  0.26098400  1
  Fe  Fe4  1  0.00000000  0.50000000  0.00000000  1
  Fe  Fe5  1  0.50000000  0.50000000  0.00000000  1
  Fe  Fe6  1  0.25000000  0.25143200  0.76098400  1
  Fe  Fe7  1  0.25000000  0.75143200  0.73901600  1
  O  O0  1  0.75000000  0.19811100  0.48182500  1
  O  O1  1  0.25000000  0.80188900  0.51817500  1
  O  O2  1  0.25000000  0.30188900  0.98182500  1
  O  O3  1  0.75000000  0.69811100  0.01817500  1
  F  F0  1  0.75000000  0.73686700  0.47431300  1
  F  F1  1  0.25000000  0.26313300  0.52568700  1
  F  F2  1  0.50337400  0.49652500  0.25541200  1
  F  F3  1  0.99662600  0.49652500  0.25541200  1
  F  F4  1  0.99662600  0.99652500  0.24458800  1
  F  F5  1  0.50337400  0.99652500  0.24458800  1
  F  F6  1  0.25000000  0.76313300  0.97431300  1
  F  F7  1  0.75000000  0.23686700  0.02568700  1
  F  F8  1  0.00337400  0.00347500  0.75541200  1
  F  F9  1  0.49662600  0.00347500  0.75541200  1
  F  F10  1  0.00337400  0.50347500  0.74458800  1
  F  F11  1  0.49662600  0.50347500  0.74458800  1
loop_
_geom_bond_atom_site_label_1
_geom_bond_atom_site_label_2
_geom_bond_distance
_geom_bond_site_symmetry_2
Li0 O0 2.017221 1_555
Li1 O1 2.017221 1_555
Li2 O2 2.017221 1_554
Li3 O3 2.017221 1_556
Fe0 O0 1.992552 1_455
Fe0 O1 1.992552 1_545
Fe1 O0 1.992552 1_555
Fe1 O1 1.992552 1_545
Fe2 O3 1.977953 1_555
Fe3 O0 1.977953 1_555
Fe4 O3 1.992552 1_455
Fe4 O2 1.992552 1_554
Fe5 O3 1.992552 1_555
Fe5 O2 1.992552 1_554
Fe6 O2 1.977953 1_555
Fe7 O1 1.977953 1_555
F0 Li0 2.049762 1_555
F0 Fe2 2.081925 1_555
F0 Fe0 2.271526 1_665
F0 Fe1 2.271526 1_565
F1 Li1 2.049762 1_555
F1 Fe6 2.081925 1_555
F1 Fe1 2.271526 1_555
F1 Fe0 2.271526 1_555
F2 Li1 1.999169 1_555
F2 Fe3 2.178248 1_555
F2 Fe2 2.200599 1_555
F2 Fe5 2.258720 1_555
F3 Li1 1.999169 1_655
F3 Fe3 2.178248 1_555
F3 Fe2 2.200599 1_555
F3 Fe4 2.258720 1_655
F4 Li2 1.999169 1_665
F4 Fe2 2.178248 1_555
F4 Fe3 2.200599 1_565
F4 Fe0 2.258720 1_665
F5 Li2 1.999169 1_565
F5 Fe2 2.178248 1_555
F5 Fe3 2.200599 1_565
F5 Fe1 2.258720 1_565
F6 Li2 2.049762 1_566
F6 Fe7 2.081925 1_555
F6 Fe5 2.271526 1_556
F6 Fe4 2.271526 1_556
F7 Li3 2.049762 1_544
F7 Fe3 2.081925 1_555
F7 Fe5 2.271526 1_555
F7 Fe4 2.271526 1_655
F8 Li3 1.999169 1_445
F8 Fe6 2.178248 1_555
F8 Fe7 2.200599 1_545
F8 Fe0 2.258720 1_555
F9 Li3 1.999169 1_545
F9 Fe6 2.178248 1_555
F9 Fe7 2.200599 1_545
F9 Fe1 2.258720 1_555
F10 Li0 1.999169 1_455
F10 Fe7 2.178248 1_555
F10 Fe6 2.200599 1_555
F10 Fe4 2.258720 1_556
F11 Li0 1.999169 1_555
F11 Fe7 2.178248 1_555
F11 Fe6 2.200599 1_555
F11 Fe5 2.258720 1_556
