# generated using pymatgen
data_Li2AlCoO4
_symmetry_space_group_name_H-M   'P 1'
_cell_length_a   10.83177300
_cell_length_b   5.13440200
_cell_length_c   8.09250844
_cell_angle_alpha   51.76837156
_cell_angle_beta   90.00000000
_cell_angle_gamma   90.00000000
_symmetry_Int_Tables_number   1
_chemical_formula_structural   Li2AlCoO4
_chemical_formula_sum   'Li8 Al4 Co4 O16'
_cell_volume   353.53082232
_cell_formula_units_Z   4
loop_
 _symmetry_equiv_pos_site_id
 _symmetry_equiv_pos_as_xyz
  1  'x, y, z'
loop_
 _atom_site_type_symbol
 _atom_site_label
 _atom_site_symmetry_multiplicity
 _atom_site_fract_x
 _atom_site_fract_y
 _atom_site_fract_z
 _atom_site_occupancy
  Li  Li0  1  0.83276000  0.30494000  0.00690100  1
  Li  Li1  1  0.08079600  0.05131600  0.24007100  1
  Li  Li2  1  0.58079600  0.94868400  0.25992900  1
  Li  Li3  1  0.33276000  0.69506000  0.49309900  1
  Li  Li4  1  0.66724000  0.30494000  0.50690100  1
  Li  Li5  1  0.41920400  0.05131600  0.74007100  1
  Li  Li6  1  0.91920400  0.94868400  0.75992900  1
  Li  Li7  1  0.16724000  0.69506000  0.99309900  1
  Al  Al0  1  0.66444400  0.82088800  0.99958800  1
  Al  Al1  1  0.16444400  0.17911200  0.50041200  1
  Al  Al2  1  0.83555600  0.82088800  0.49958800  1
  Al  Al3  1  0.33555600  0.17911200  0.00041200  1
  Co  Co0  1  0.41365600  0.43862200  0.24623900  1
  Co  Co1  1  0.91365600  0.56137800  0.25376100  1
  Co  Co2  1  0.08634400  0.43862200  0.74623900  1
  Co  Co3  1  0.58634400  0.56137800  0.75376100  1
  O  O0  1  0.33418300  0.81727400  0.01547000  1
  O  O1  1  0.81977600  0.68865800  0.02092700  1
  O  O2  1  0.07842600  0.45921500  0.26393200  1
  O  O3  1  0.40789600  0.08803400  0.22824800  1
  O  O4  1  0.90789600  0.91196600  0.27175200  1
  O  O5  1  0.57842600  0.54078500  0.23606800  1
  O  O6  1  0.31977600  0.31134200  0.47907300  1
  O  O7  1  0.83418300  0.18272600  0.48453000  1
  O  O8  1  0.16581700  0.81727400  0.51547000  1
  O  O9  1  0.68022400  0.68865800  0.52092700  1
  O  O10  1  0.42157400  0.45921500  0.76393200  1
  O  O11  1  0.09210400  0.08803400  0.72824800  1
  O  O12  1  0.59210400  0.91196600  0.77175200  1
  O  O13  1  0.92157400  0.54078500  0.73606800  1
  O  O14  1  0.18022400  0.31134200  0.97907300  1
  O  O15  1  0.66581700  0.18272600  0.98453000  1
loop_
_geom_bond_atom_site_label_1
_geom_bond_atom_site_label_2
_geom_bond_distance
_geom_bond_site_symmetry_2
Li0 O15 1.958835 1_554
Li0 O13 1.977528 1_554
Li0 O4 1.993689 1_545
Li0 O1 2.047188 1_555
Li1 O4 1.964189 1_445
Li1 O14 1.978211 1_554
Li1 O8 1.986055 1_545
Li1 O2 2.219152 1_555
Li2 O3 1.964189 1_565
Li2 O9 1.978211 1_555
Li2 O15 1.986055 1_564
Li2 O5 2.219152 1_555
Li3 O8 1.958835 1_555
Li3 O10 1.977528 1_555
Li3 O3 1.993689 1_565
Li3 O6 2.047188 1_555
Li4 O7 1.958835 1_555
Li4 O5 1.977528 1_555
Li4 O12 1.993689 1_545
Li4 O9 2.047188 1_555
Li5 O12 1.964189 1_545
Li5 O6 1.978211 1_555
Li5 O0 1.986055 1_546
Li5 O10 2.219152 1_555
Li6 O11 1.964189 1_665
Li6 O1 1.978211 1_556
Li6 O7 1.986055 1_565
Li6 O13 2.219152 1_555
Li7 O0 1.958835 1_556
Li7 O2 1.977528 1_556
Li7 O11 1.993689 1_565
Li7 O14 2.047188 1_555
Al0 O12 1.779044 1_555
Al0 O1 1.782281 1_556
Al0 O15 1.785042 1_565
Al0 O5 1.786712 1_556
Al1 O11 1.779044 1_555
Al1 O6 1.782281 1_555
Al1 O8 1.785042 1_545
Al1 O2 1.786712 1_555
Al2 O4 1.779044 1_555
Al2 O9 1.782281 1_555
Al2 O7 1.785042 1_565
Al2 O13 1.786712 1_555
Al3 O3 1.779044 1_555
Al3 O14 1.782281 1_554
Al3 O0 1.785042 1_545
Al3 O10 1.786712 1_554
Co0 O5 1.847653 1_555
Co0 O6 1.867449 1_555
Co0 O0 1.874741 1_555
Co0 O3 1.894643 1_555
Co1 O2 1.847653 1_655
Co1 O1 1.867449 1_555
Co1 O7 1.874741 1_555
Co1 O4 1.894643 1_555
Co2 O13 1.847653 1_455
Co2 O14 1.867449 1_555
Co2 O8 1.874741 1_555
Co2 O11 1.894643 1_555
Co3 O10 1.847653 1_555
Co3 O9 1.867449 1_555
Co3 O15 1.874741 1_555
Co3 O12 1.894643 1_555
