# generated using pymatgen
data_LiMgCr7(SO4)12
_symmetry_space_group_name_H-M   'P 1'
_cell_length_a   8.26222600
_cell_length_b   8.84715163
_cell_length_c   14.32294449
_cell_angle_alpha   105.68065928
_cell_angle_beta   90.05639195
_cell_angle_gamma   117.77644059
_symmetry_Int_Tables_number   1
_chemical_formula_structural   LiMgCr7(SO4)12
_chemical_formula_sum   'Li1 Mg1 Cr7 S12 O48'
_cell_volume   881.89460601
_cell_formula_units_Z   1
loop_
 _symmetry_equiv_pos_site_id
 _symmetry_equiv_pos_as_xyz
  1  'x, y, z'
loop_
 _atom_site_type_symbol
 _atom_site_label
 _atom_site_symmetry_multiplicity
 _atom_site_fract_x
 _atom_site_fract_y
 _atom_site_fract_z
 _atom_site_occupancy
  Li  Li0  1  0.03807100  0.93905300  0.71610800  1
  Mg  Mg0  1  0.68039600  0.71790000  0.67536300  1
  Cr  Cr0  1  0.07275700  0.30092700  0.07752700  1
  Cr  Cr1  1  0.17792800  0.71062000  0.17788000  1
  Cr  Cr2  1  0.58778600  0.31309600  0.57309900  1
  Cr  Cr3  1  0.32129600  0.28781800  0.32271700  1
  Cr  Cr4  1  0.42808700  0.70011900  0.42287600  1
  Cr  Cr5  1  0.82172200  0.28795500  0.82224000  1
  Cr  Cr6  1  0.92181200  0.69246000  0.92717100  1
  S  S0  1  0.81013000  0.78915000  0.23078800  1
  S  S1  1  0.09065200  0.50449200  0.37366000  1
  S  S2  1  0.72830600  0.20900200  0.02084900  1
  S  S3  1  0.77671200  0.79460100  0.47683000  1
  S  S4  1  0.40973700  0.49519800  0.12692600  1
  S  S5  1  0.30677700  0.79119600  0.73187100  1
  S  S6  1  0.69057300  0.21158600  0.26888600  1
  S  S7  1  0.58030600  0.49575800  0.87753400  1
  S  S8  1  0.24138900  0.22011600  0.51744600  1
  S  S9  1  0.27233800  0.78850800  0.98011800  1
  S  S10  1  0.91765300  0.49944400  0.62525300  1
  S  S11  1  0.18536700  0.20613000  0.77208900  1
  O  O0  1  0.85509900  0.40873800  0.25630400  1
  O  O1  1  0.24433900  0.81111400  0.05528800  1
  O  O2  1  0.85481600  0.97120600  0.16229800  1
  O  O3  1  0.36517300  0.62447700  0.14871200  1
  O  O4  1  0.69944700  0.74333400  0.32653500  1
  O  O5  1  0.04890700  0.85223400  0.18892300  1
  O  O6  1  0.07217900  0.61674600  0.30725100  1
  O  O7  1  0.85195100  0.34488200  0.47685400  1
  O  O8  1  0.49569800  0.99198000  0.11920100  1
  O  O9  1  0.55944200  0.72271200  0.48739600  1
  O  O10  1  0.80212000  0.63355600  0.48474900  1
  O  O11  1  0.19887300  0.31840800  0.14399400  1
  O  O12  1  0.29999300  0.68128500  0.35710400  1
  O  O13  1  0.70352600  0.36924900  0.01342300  1
  O  O14  1  0.35655100  0.40501800  0.75393400  1
  O  O15  1  0.94515700  0.27767100  0.00958300  1
  O  O16  1  0.00968400  0.01035100  0.37705800  1
  O  O17  1  0.74238100  0.81222800  0.55234500  1
  O  O18  1  0.64749600  0.65276100  0.02386900  1
  O  O19  1  0.42930100  0.38354900  0.19298900  1
  O  O20  1  0.33473300  0.96910100  0.66746100  1
  O  O21  1  0.87127900  0.62531800  0.64690000  1
  O  O22  1  0.45135600  0.14752200  0.31101900  1
  O  O23  1  0.80194800  0.25935800  0.17252600  1
  O  O24  1  0.19377700  0.74017600  0.82907100  1
  O  O25  1  0.54715300  0.86429500  0.68645900  1
  O  O26  1  0.13614400  0.37578400  0.35173600  1
  O  O27  1  0.64706500  0.02988600  0.33662200  1
  O  O28  1  0.57413200  0.61737100  0.80962900  1
  O  O29  1  0.34894100  0.34027800  0.98111100  1
  O  O30  1  0.25934500  0.18887200  0.44541300  1
  O  O31  1  0.01465900  0.00592300  0.61794700  1
  O  O32  1  0.05338100  0.71890200  0.99289400  1
  O  O33  1  0.64444100  0.59120700  0.24406100  1
  O  O34  1  0.29447700  0.62653000  0.98864200  1
  O  O35  1  0.70937800  0.32310300  0.64008700  1
  O  O36  1  0.80025000  0.67765800  0.85812900  1
  O  O37  1  0.21256300  0.37773300  0.50919300  1
  O  O38  1  0.46404700  0.29526500  0.50264400  1
  O  O39  1  0.50382700  0.00464300  0.88114700  1
  O  O40  1  0.15765300  0.65617400  0.52234300  1
  O  O41  1  0.92972100  0.37886900  0.69299000  1
  O  O42  1  0.94531400  0.14080300  0.81248100  1
  O  O43  1  0.28757700  0.23932800  0.67718400  1
  O  O44  1  0.62751700  0.36797700  0.85571000  1
  O  O45  1  0.13727400  0.02160500  0.84100500  1
  O  O46  1  0.76124700  0.19079000  0.94420000  1
  O  O47  1  0.14087400  0.59389800  0.74435400  1
loop_
_geom_bond_atom_site_label_1
_geom_bond_atom_site_label_2
_geom_bond_distance
_geom_bond_site_symmetry_2
Li0 O31 1.708763 1_565
Li0 O45 1.771521 1_565
Li0 S11 2.000227 1_565
Li0 O21 2.351783 1_455
Li0 O42 2.371464 1_465
Li0 O20 2.461740 1_555
Mg0 O25 2.032909 1_555
Mg0 O21 2.085469 1_555
Mg0 O17 2.112243 1_555
Mg0 O28 2.336705 1_555
Cr0 O11 1.335758 1_555
Cr0 O15 1.337314 1_455
Cr0 O23 2.550007 1_455
Cr0 O29 2.600181 1_554
Cr1 O5 1.967006 1_555
Cr1 O3 2.019120 1_555
Cr1 O1 2.136757 1_555
Cr1 O6 2.246194 1_555
Cr2 O35 1.344233 1_555
Cr2 O38 1.360158 1_555
Cr2 O7 2.527149 1_555
Cr3 O22 1.963296 1_555
Cr3 O26 2.013617 1_555
Cr3 O30 2.128935 1_555
Cr3 O19 2.261774 1_555
Cr4 O9 1.329577 1_555
Cr4 O12 1.335713 1_555
Cr4 O4 2.563068 1_555
Cr4 O40 2.582499 1_555
Cr5 O42 1.974370 1_555
Cr5 O44 2.045117 1_555
Cr5 O46 2.110242 1_555
Cr5 O41 2.238181 1_555
Cr6 O32 1.328334 1_655
Cr6 O36 1.345087 1_555
Cr6 O24 2.577664 1_655
Cr6 O18 2.589520 1_556
O0 O23 1.407169 1_555
O0 S6 1.697985 1_555
O0 O6 1.825142 1_655
O0 S1 2.240057 1_655
O1 S9 1.086241 1_554
O1 O8 1.954129 1_555
O2 S0 1.998363 1_555
O3 S4 1.319439 1_555
O4 S0 1.684852 1_555
O4 S3 2.108760 1_555
O5 S0 1.928754 1_455
O6 S1 1.601857 1_555
O7 S10 2.101692 1_555
O8 S9 2.360633 1_554
O8 S6 2.406157 1_565
O9 S3 1.624297 1_555
O10 S3 1.566220 1_555
O11 S4 1.791410 1_555
O12 S1 1.781597 1_555
O13 S2 1.554090 1_555
O14 O43 1.425170 1_555
O14 S11 1.758600 1_555
O14 O28 1.853878 1_555
O14 S7 2.244613 1_555
O15 S2 1.626116 1_555
O16 O30 1.957457 1_555
O16 S0 2.388925 1_445
O17 S3 1.106926 1_555
O18 S7 2.082273 1_554
O19 S4 1.597152 1_555
O19 O33 1.815824 1_555
O20 S5 1.956587 1_555
O21 S10 1.301686 1_555
O22 S6 1.932605 1_555
O23 S6 1.698696 1_555
O23 S2 2.123641 1_555
O24 O47 1.400389 1_555
O24 S5 1.721356 1_555
O24 S9 2.126761 1_555
O25 S5 1.954089 1_555
O26 S1 1.319991 1_555
O27 S6 1.989910 1_555
O28 S7 1.650118 1_555
O29 S4 2.074035 1_556
O30 S8 1.023346 1_555
O32 S9 1.645804 1_555
O33 O4 1.408121 1_555
O33 S0 1.709686 1_555
O33 S4 2.232643 1_555
O34 S9 1.562314 1_555
O35 S10 1.765777 1_555
O36 S7 1.867202 1_555
O37 S8 1.553645 1_555
O39 O46 1.994727 1_555
O39 S2 2.371551 1_556
O39 S5 2.394399 1_545
O40 S1 2.098307 1_555
O41 S10 1.657574 1_555
O41 O47 1.830713 1_655
O42 S11 1.927976 1_655
O43 S11 1.622978 1_555
O43 S8 2.266431 1_555
O44 S7 1.322163 1_555
O45 S11 2.016076 1_555
O46 S2 1.118539 1_556
O47 S5 1.702014 1_555
O47 S10 2.190105 1_455
