# generated using pymatgen
data_Li3Co4NiO8
_symmetry_space_group_name_H-M   'P 1'
_cell_length_a   5.77141913
_cell_length_b   5.77141888
_cell_length_c   5.82014955
_cell_angle_alpha   88.88736876
_cell_angle_beta   59.48326674
_cell_angle_gamma   59.50226919
_symmetry_Int_Tables_number   1
_chemical_formula_structural   Li3Co4NiO8
_chemical_formula_sum   'Li3 Co4 Ni1 O8'
_cell_volume   136.28858221
_cell_formula_units_Z   1
loop_
 _symmetry_equiv_pos_site_id
 _symmetry_equiv_pos_as_xyz
  1  'x, y, z'
loop_
 _atom_site_type_symbol
 _atom_site_label
 _atom_site_symmetry_multiplicity
 _atom_site_fract_x
 _atom_site_fract_y
 _atom_site_fract_z
 _atom_site_occupancy
  Li  Li0  1  0.00000000  0.00000000  0.50000000  1
  Li  Li1  1  0.50000000  0.00000000  0.50000000  1
  Li  Li2  1  0.50000000  0.50000000  0.50000000  1
  Co  Co0  1  0.00000000  0.50000000  0.50000000  1
  Co  Co1  1  0.00000000  0.00000000  0.00000000  1
  Co  Co2  1  0.50000000  0.00000000  0.00000000  1
  Co  Co3  1  0.00000000  0.50000000  0.00000000  1
  Ni  Ni0  1  0.50000000  0.50000000  0.00000000  1
  O  O0  1  0.47921100  0.25354300  0.77433300  1
  O  O1  1  0.00312600  0.25596000  0.76973500  1
  O  O2  1  0.48622400  0.77286200  0.76973500  1
  O  O3  1  0.97703200  0.76176800  0.78473700  1
  O  O4  1  0.02296800  0.23823200  0.21526300  1
  O  O5  1  0.51377600  0.22713800  0.23026500  1
  O  O6  1  0.99687400  0.74404000  0.23026500  1
  O  O7  1  0.52078900  0.74645700  0.22566700  1
loop_
_geom_bond_atom_site_label_1
_geom_bond_atom_site_label_2
_geom_bond_distance
_geom_bond_site_symmetry_2
Li0 O0 2.115989 1_455
Li0 O7 2.115989 1_545
Li0 O3 2.127858 1_445
Li0 O4 2.127858 1_555
Li0 O6 2.189306 1_445
Li0 O1 2.189306 1_555
Li1 O2 2.022001 1_545
Li1 O5 2.022001 1_555
Li1 O1 2.022005 1_555
Li1 O6 2.022005 1_545
Li1 O7 2.103080 1_545
Li1 O0 2.103080 1_555
Li2 O0 2.115993 1_555
Li2 O7 2.115993 1_555
Li2 O3 2.127854 1_455
Li2 O4 2.127854 1_655
Li2 O2 2.189306 1_555
Li2 O5 2.189306 1_555
Co0 O1 2.089440 1_555
Co0 O6 2.089440 1_455
Co0 O2 2.089444 1_455
Co0 O5 2.089444 1_555
Co0 O4 2.171916 1_555
Co0 O3 2.171916 1_455
Co1 O3 1.974397 1_444
Co1 O4 1.974397 1_555
Co1 O5 1.975922 1_455
Co1 O2 1.975922 1_544
Co1 O6 1.975926 1_445
Co1 O1 1.975926 1_554
Co2 O4 1.939478 1_555
Co2 O3 1.939478 1_544
Co2 O7 1.946255 1_545
Co2 O0 1.946255 1_554
Co2 O5 1.950156 1_555
Co2 O2 1.950156 1_544
Co3 O3 1.939473 1_454
Co3 O4 1.939473 1_555
Co3 O0 1.946260 1_554
Co3 O7 1.946260 1_455
Co3 O1 1.950156 1_554
Co3 O6 1.950156 1_455
Ni0 O0 2.041694 1_554
Ni0 O7 2.041694 1_555
Ni0 O1 2.044882 1_654
Ni0 O6 2.044882 1_455
Ni0 O5 2.044885 1_555
Ni0 O2 2.044885 1_554
