# generated using pymatgen
data_RbHoS2O9
_symmetry_space_group_name_H-M   'P 1'
_cell_length_a   8.55629000
_cell_length_b   10.19259700
_cell_length_c   10.38168852
_cell_angle_alpha   62.27096346
_cell_angle_beta   90.00000000
_cell_angle_gamma   90.00000000
_symmetry_Int_Tables_number   1
_chemical_formula_structural   RbHoS2O9
_chemical_formula_sum   'Rb4 Ho4 S8 O36'
_cell_volume   801.41803574
_cell_formula_units_Z   4
loop_
 _symmetry_equiv_pos_site_id
 _symmetry_equiv_pos_as_xyz
  1  'x, y, z'
loop_
 _atom_site_type_symbol
 _atom_site_label
 _atom_site_symmetry_multiplicity
 _atom_site_fract_x
 _atom_site_fract_y
 _atom_site_fract_z
 _atom_site_occupancy
  Rb  Rb0  1  0.83529600  0.78166200  0.18168100  1
  Rb  Rb1  1  0.33529600  0.21833800  0.31831900  1
  Rb  Rb2  1  0.16470400  0.21833800  0.81831900  1
  Rb  Rb3  1  0.66470400  0.78166200  0.68168100  1
  Ho  Ho0  1  0.87084700  0.24820700  0.46997700  1
  Ho  Ho1  1  0.37084700  0.75179300  0.03002300  1
  Ho  Ho2  1  0.12915300  0.75179300  0.53002300  1
  Ho  Ho3  1  0.62915300  0.24820700  0.96997700  1
  S  S0  1  0.13636200  0.93960200  0.68409800  1
  S  S1  1  0.63636200  0.06039800  0.81590200  1
  S  S2  1  0.86363800  0.06039800  0.31590200  1
  S  S3  1  0.36363800  0.93960200  0.18409800  1
  S  S4  1  0.19642700  0.50749200  0.39099500  1
  S  S5  1  0.69642700  0.49250800  0.10900500  1
  S  S6  1  0.80357300  0.49250800  0.60900500  1
  S  S7  1  0.30357300  0.50749200  0.89099500  1
  O  O0  1  0.06649900  0.09120100  0.61854700  1
  O  O1  1  0.56649900  0.90879900  0.88145300  1
  O  O2  1  0.93350100  0.90879900  0.38145300  1
  O  O3  1  0.43350100  0.09120100  0.11854700  1
  O  O4  1  0.62005700  0.34612900  0.43416100  1
  O  O5  1  0.12005700  0.65387100  0.06583900  1
  O  O6  1  0.37994300  0.65387100  0.56583900  1
  O  O7  1  0.87994300  0.34612900  0.93416100  1
  O  O8  1  0.71072800  0.08804500  0.67684200  1
  O  O9  1  0.21072800  0.91195500  0.82315800  1
  O  O10  1  0.28927200  0.91195500  0.32315800  1
  O  O11  1  0.78927200  0.08804500  0.17684200  1
  O  O12  1  0.29505700  0.43973800  0.52256600  1
  O  O13  1  0.79505700  0.56026200  0.97743400  1
  O  O14  1  0.70494300  0.56026200  0.47743400  1
  O  O15  1  0.20494300  0.43973800  0.02256600  1
  O  O16  1  0.39408300  0.63476000  0.88541900  1
  O  O17  1  0.89408300  0.36524000  0.61458100  1
  O  O18  1  0.60591700  0.36524000  0.11458100  1
  O  O19  1  0.10591700  0.63476000  0.38541900  1
  O  O20  1  0.09102300  0.39447000  0.38598200  1
  O  O21  1  0.59102300  0.60553000  0.11401800  1
  O  O22  1  0.90897700  0.60553000  0.61401800  1
  O  O23  1  0.40897700  0.39447000  0.88598200  1
  O  O24  1  0.29747100  0.56267600  0.25675600  1
  O  O25  1  0.79747100  0.43732400  0.24324400  1
  O  O26  1  0.70252900  0.43732400  0.74324400  1
  O  O27  1  0.20252900  0.56267600  0.75675600  1
  O  O28  1  0.25546000  0.93104800  0.58104100  1
  O  O29  1  0.75546000  0.06895200  0.91895900  1
  O  O30  1  0.74454000  0.06895200  0.41895900  1
  O  O31  1  0.24454000  0.93104800  0.08104100  1
  O  O32  1  0.01547900  0.82783700  0.70063100  1
  O  O33  1  0.51547900  0.17216300  0.79936900  1
  O  O34  1  0.98452100  0.17216300  0.29936900  1
  O  O35  1  0.48452100  0.82783700  0.20063100  1
loop_
_geom_bond_atom_site_label_1
_geom_bond_atom_site_label_2
_geom_bond_distance
_geom_bond_site_symmetry_2
Ho0 O20 2.306984 1_655
Ho0 O17 2.320050 1_555
Ho0 O4 2.322426 1_555
Ho0 O25 2.329841 1_555
Ho0 O0 2.333554 1_655
Ho0 O30 2.384790 1_555
Ho0 O8 2.427264 1_555
Ho0 O34 2.441606 1_555
Ho1 O21 2.306984 1_555
Ho1 O16 2.320050 1_554
Ho1 O5 2.322426 1_555
Ho1 O24 2.329841 1_555
Ho1 O1 2.333554 1_554
Ho1 O31 2.384790 1_555
Ho1 O9 2.427264 1_554
Ho1 O35 2.441606 1_555
Ho2 O22 2.306984 1_455
Ho2 O19 2.320050 1_555
Ho2 O6 2.322426 1_555
Ho2 O27 2.329841 1_555
Ho2 O2 2.333554 1_455
Ho2 O28 2.384790 1_555
Ho2 O10 2.427264 1_555
Ho2 O32 2.441606 1_555
Ho3 O23 2.306984 1_555
Ho3 O18 2.320050 1_556
Ho3 O7 2.322426 1_555
Ho3 O26 2.329841 1_555
Ho3 O3 2.333554 1_556
Ho3 O29 2.384790 1_555
Ho3 O11 2.427264 1_556
Ho3 O33 2.441606 1_555
O0 S0 1.493152 1_545
O0 Rb2 3.031114 1_555
O1 S1 1.493152 1_565
O1 Rb3 3.031114 1_555
O2 S2 1.493152 1_565
O2 Rb0 3.031114 1_555
O3 S3 1.493152 1_545
O3 Rb1 3.031114 1_555
O4 Rb1 3.246095 1_555
O5 Rb0 3.246095 1_455
O6 Rb3 3.246095 1_555
O7 Rb2 3.246095 1_655
O8 S1 1.479834 1_555
O8 Rb3 3.124696 1_545
O9 S0 1.479834 1_555
O9 Rb2 3.124696 1_565
O10 S3 1.479834 1_555
O10 Rb1 3.124696 1_565
O11 S2 1.479834 1_555
O11 Rb0 3.124696 1_545
O12 S4 1.475480 1_555
O12 Rb2 3.052216 1_555
O13 S5 1.475480 1_556
O13 Rb3 3.052216 1_555
O14 S6 1.475480 1_555
O14 Rb0 3.052216 1_555
O15 S7 1.475480 1_554
O15 Rb1 3.052216 1_555
O16 S7 1.488596 1_555
O16 Rb3 3.021621 1_555
O17 S6 1.488596 1_555
O17 Rb2 3.021621 1_655
O18 S5 1.488596 1_555
O18 Rb1 3.021621 1_555
O19 S4 1.488596 1_555
O19 Rb0 3.021621 1_455
O20 S4 1.482882 1_555
O20 Rb1 3.042741 1_555
O21 S5 1.482882 1_555
O21 Rb0 3.042741 1_555
O22 S6 1.482882 1_555
O22 Rb3 3.042741 1_555
O23 S7 1.482882 1_555
O23 Rb2 3.042741 1_555
O24 S4 1.508834 1_555
O24 Rb1 3.277771 1_555
O25 S5 1.508834 1_555
O25 Rb0 3.277771 1_555
O26 S6 1.508834 1_555
O26 Rb3 3.277771 1_555
O27 S7 1.508834 1_555
O27 Rb2 3.277771 1_555
O28 S0 1.509153 1_555
O28 Rb1 3.008005 1_565
O29 S1 1.509153 1_555
O29 Rb0 3.008005 1_546
O30 S2 1.509153 1_555
O30 Rb3 3.008005 1_545
O31 S3 1.509153 1_555
O31 Rb2 3.008005 1_564
O32 S0 1.488295 1_555
O32 Rb3 3.058491 1_455
O33 S1 1.488295 1_555
O33 Rb2 3.058491 1_555
O34 S2 1.488295 1_555
O34 Rb1 3.058491 1_655
O35 S3 1.488295 1_555
O35 Rb0 3.058491 1_555
