# generated using pymatgen
data_KNb2O5
_symmetry_space_group_name_H-M   'P 1'
_cell_length_a   12.96229000
_cell_length_b   4.11891400
_cell_length_c   12.93460887
_cell_angle_alpha   88.67570048
_cell_angle_beta   90.00000000
_cell_angle_gamma   90.00000000
_symmetry_Int_Tables_number   1
_chemical_formula_structural   KNb2O5
_chemical_formula_sum   'K6 Nb12 O30'
_cell_volume   690.40152445
_cell_formula_units_Z   6
loop_
 _symmetry_equiv_pos_site_id
 _symmetry_equiv_pos_as_xyz
  1  'x, y, z'
loop_
 _atom_site_type_symbol
 _atom_site_label
 _atom_site_symmetry_multiplicity
 _atom_site_fract_x
 _atom_site_fract_y
 _atom_site_fract_z
 _atom_site_occupancy
  K  K0  1  0.24443400  0.52016800  0.00128100  1
  K  K1  1  0.41398100  0.51342700  0.32663000  1
  K  K2  1  0.58601900  0.51342700  0.82663000  1
  K  K3  1  0.75556600  0.52016800  0.50128100  1
  K  K4  1  0.92939700  0.50695900  0.17110100  1
  K  K5  1  0.07060300  0.50695900  0.67110100  1
  Nb  Nb0  1  0.23882700  0.00117600  0.48698600  1
  Nb  Nb1  1  0.32133400  0.03290900  0.79516600  1
  Nb  Nb2  1  0.37195200  0.39169200  0.63178800  1
  Nb  Nb3  1  0.44744600  0.01313500  0.07268500  1
  Nb  Nb4  1  0.55255400  0.01313500  0.57268500  1
  Nb  Nb5  1  0.62804800  0.39169200  0.13178800  1
  Nb  Nb6  1  0.67866600  0.03290900  0.29516600  1
  Nb  Nb7  1  0.76117300  0.00117600  0.98698600  1
  Nb  Nb8  1  0.83466400  0.98698900  0.70631600  1
  Nb  Nb9  1  0.95749000  0.98785000  0.42091400  1
  Nb  Nb10  1  0.04251000  0.98785000  0.92091400  1
  Nb  Nb11  1  0.16533600  0.98698900  0.20631600  1
  O  O0  1  0.26226000  0.53515900  0.50985100  1
  O  O1  1  0.25183300  0.05175100  0.64996300  1
  O  O2  1  0.31825800  0.03282000  0.14151000  1
  O  O3  1  0.32902300  0.54820000  0.78210300  1
  O  O4  1  0.39141400  0.02690900  0.93396900  1
  O  O5  1  0.40062900  0.06526500  0.50913700  1
  O  O6  1  0.46331400  0.03580000  0.71148200  1
  O  O7  1  0.47160300  0.53244500  0.07723000  1
  O  O8  1  0.52839700  0.53244500  0.57723000  1
  O  O9  1  0.53668600  0.03580000  0.21148200  1
  O  O10  1  0.59937100  0.06526500  0.00913700  1
  O  O11  1  0.60858600  0.02690900  0.43396900  1
  O  O12  1  0.67097700  0.54820000  0.28210300  1
  O  O13  1  0.68174200  0.03282000  0.64151000  1
  O  O14  1  0.74816700  0.05175100  0.14996300  1
  O  O15  1  0.73774000  0.53515900  0.00985100  1
  O  O16  1  0.74794600  0.03504800  0.84299400  1
  O  O17  1  0.81970900  0.03643200  0.35872900  1
  O  O18  1  0.82666700  0.53961200  0.70644100  1
  O  O19  1  0.89275100  0.03561700  0.56859500  1
  O  O20  1  0.90516200  0.03315100  0.00210200  1
  O  O21  1  0.96255500  0.03158700  0.78726600  1
  O  O22  1  0.95689800  0.53967700  0.42369200  1
  O  O23  1  0.04310200  0.53967700  0.92369200  1
  O  O24  1  0.03744500  0.03158700  0.28726600  1
  O  O25  1  0.09483800  0.03315100  0.50210200  1
  O  O26  1  0.10724900  0.03561700  0.06859500  1
  O  O27  1  0.17333300  0.53961200  0.20644100  1
  O  O28  1  0.18029100  0.03643200  0.85872900  1
  O  O29  1  0.25205400  0.03504800  0.34299400  1
loop_
_geom_bond_atom_site_label_1
_geom_bond_atom_site_label_2
_geom_bond_distance
_geom_bond_site_symmetry_2
K0 O23 2.796528 1_554
K0 O26 2.796995 1_555
K0 O27 2.812041 1_555
K0 O2 2.840202 1_555
K0 O28 2.868942 1_554
K0 O28 2.903728 1_564
K0 O26 2.917730 1_565
K0 O4 2.932124 1_554
K0 O4 2.942842 1_564
K0 O2 2.973443 1_565
K0 O3 3.039336 1_554
K0 O7 3.104956 1_555
K1 O29 2.883327 1_555
K1 O9 2.958687 1_555
K1 O5 2.967950 1_555
K1 O29 3.014547 1_565
K1 O9 3.037993 1_565
K1 O0 3.082519 1_555
K2 O16 2.883327 1_555
K2 O6 2.958687 1_555
K2 O10 2.967950 1_556
K2 O16 3.014547 1_565
K2 O6 3.037993 1_565
K2 O15 3.082519 1_556
K3 O22 2.796528 1_555
K3 O19 2.796995 1_555
K3 O18 2.812041 1_555
K3 O13 2.840202 1_555
K3 O17 2.868942 1_555
K3 O17 2.903728 1_565
K3 O19 2.917730 1_565
K3 O11 2.932124 1_555
K3 O11 2.942842 1_565
K3 O13 2.973443 1_565
K3 O12 3.039336 1_555
K3 O8 3.104956 1_555
K4 O24 2.813722 1_655
K4 O20 2.980408 1_555
K4 O24 3.006451 1_665
K4 O14 3.021997 1_555
K4 O20 3.058656 1_565
K5 O21 2.813722 1_455
K5 O25 2.980408 1_555
K5 O21 3.006451 1_465
K5 O1 3.021997 1_555
K5 O25 3.058656 1_565
Nb0 O29 1.872347 1_555
Nb0 O25 1.881572 1_555
Nb0 O0 1.959058 1_545
Nb0 O1 2.129780 1_555
Nb0 O5 2.134020 1_555
Nb0 O0 2.246617 1_555
Nb1 O28 2.004788 1_555
Nb1 O3 2.009972 1_545
Nb1 O4 2.011734 1_555
Nb1 O1 2.082863 1_555
Nb1 O3 2.127594 1_555
Nb1 O6 2.134994 1_555
Nb2 O1 2.103540 1_555
Nb2 O6 2.131673 1_555
Nb2 O5 2.135724 1_555
Nb2 O3 2.136191 1_555
Nb2 O0 2.194398 1_555
Nb2 O8 2.219800 1_555
Nb3 O2 1.899106 1_555
Nb3 O4 1.935282 1_554
Nb3 O7 2.004049 1_545
Nb3 O9 2.139531 1_555
Nb3 O10 2.142826 1_555
Nb3 O7 2.163934 1_555
Nb4 O13 1.899106 1_555
Nb4 O11 1.935282 1_555
Nb4 O8 2.004049 1_545
Nb4 O6 2.139531 1_555
Nb4 O5 2.142826 1_555
Nb4 O8 2.163934 1_555
Nb5 O14 2.103540 1_555
Nb5 O9 2.131673 1_555
Nb5 O10 2.135724 1_555
Nb5 O12 2.136191 1_555
Nb5 O15 2.194398 1_555
Nb5 O7 2.219800 1_555
Nb6 O17 2.004788 1_555
Nb6 O12 2.009972 1_545
Nb6 O11 2.011734 1_555
Nb6 O14 2.082863 1_555
Nb6 O12 2.127594 1_555
Nb6 O9 2.134994 1_555
Nb7 O16 1.872347 1_555
Nb7 O20 1.881572 1_556
Nb7 O15 1.959058 1_546
Nb7 O14 2.129780 1_556
Nb7 O10 2.134020 1_556
Nb7 O15 2.246617 1_556
Nb8 O18 1.845584 1_555
Nb8 O19 1.940055 1_565
Nb8 O21 1.971581 1_565
Nb8 O16 2.108143 1_565
Nb8 O13 2.158741 1_565
Nb8 O18 2.278604 1_565
Nb9 O22 1.845521 1_555
Nb9 O17 1.967030 1_565
Nb9 O24 2.020033 1_665
Nb9 O25 2.077567 1_665
Nb9 O19 2.099793 1_565
Nb9 O22 2.274055 1_565
Nb10 O23 1.845521 1_555
Nb10 O28 1.967030 1_565
Nb10 O21 2.020033 1_465
Nb10 O20 2.077567 1_466
Nb10 O26 2.099793 1_566
Nb10 O23 2.274055 1_565
Nb11 O27 1.845584 1_555
Nb11 O26 1.940055 1_565
Nb11 O24 1.971581 1_565
Nb11 O29 2.108143 1_565
Nb11 O2 2.158741 1_565
Nb11 O27 2.278604 1_565
