# generated using pymatgen
data_Ti3VCu2(PO4)6
_symmetry_space_group_name_H-M   'P 1'
_cell_length_a   8.60763119
_cell_length_b   8.60763119
_cell_length_c   8.60763068
_cell_angle_alpha   59.96833563
_cell_angle_beta   59.96833563
_cell_angle_gamma   59.96834188
_symmetry_Int_Tables_number   1
_chemical_formula_structural   Ti3VCu2(PO4)6
_chemical_formula_sum   'Ti3 V1 Cu2 P6 O24'
_cell_volume   450.63403502
_cell_formula_units_Z   1
loop_
 _symmetry_equiv_pos_site_id
 _symmetry_equiv_pos_as_xyz
  1  'x, y, z'
loop_
 _atom_site_type_symbol
 _atom_site_label
 _atom_site_symmetry_multiplicity
 _atom_site_fract_x
 _atom_site_fract_y
 _atom_site_fract_z
 _atom_site_occupancy
  Ti  Ti0  1  0.64193900  0.64193900  0.64193900  1
  Ti  Ti1  1  0.85810400  0.85810400  0.85810400  1
  Ti  Ti2  1  0.35808400  0.35808400  0.35808400  1
  V  V0  1  0.14239400  0.14239400  0.14239400  1
  Cu  Cu0  1  0.99922000  0.99922000  0.99922000  1
  Cu  Cu1  1  0.50003800  0.50003800  0.50003800  1
  P  P0  1  0.24974200  0.53809700  0.96113400  1
  P  P1  1  0.96113400  0.24974200  0.53809700  1
  P  P2  1  0.53809700  0.96113400  0.24974200  1
  P  P3  1  0.45912400  0.03976700  0.75193600  1
  P  P4  1  0.03976700  0.75193600  0.45912400  1
  P  P5  1  0.75193600  0.45912400  0.03976700  1
  O  O0  1  0.12596300  0.30287000  0.49972300  1
  O  O1  1  0.49972300  0.12596300  0.30287000  1
  O  O2  1  0.30287000  0.49972300  0.12596300  1
  O  O3  1  0.08334800  0.72922300  0.94261000  1
  O  O4  1  0.19694500  0.37614700  0.99606700  1
  O  O5  1  0.41701500  0.55775600  0.77077600  1
  O  O6  1  0.94261000  0.08334800  0.72922300  1
  O  O7  1  0.77077600  0.41701500  0.55775600  1
  O  O8  1  0.62542100  0.00043700  0.80332600  1
  O  O9  1  0.55775600  0.77077600  0.41701500  1
  O  O10  1  0.26898100  0.05827000  0.91835000  1
  O  O11  1  0.00043700  0.80332600  0.62542100  1
  O  O12  1  0.99606700  0.19694500  0.37614700  1
  O  O13  1  0.72922300  0.94261000  0.08334800  1
  O  O14  1  0.44119700  0.22965100  0.58448600  1
  O  O15  1  0.37614700  0.99606700  0.19694500  1
  O  O16  1  0.22965100  0.58448600  0.44119700  1
  O  O17  1  0.05827000  0.91835000  0.26898100  1
  O  O18  1  0.58448600  0.44119700  0.22965100  1
  O  O19  1  0.80332600  0.62542100  0.00043700  1
  O  O20  1  0.91835000  0.26898100  0.05827000  1
  O  O21  1  0.69892800  0.49852100  0.87438500  1
  O  O22  1  0.49852100  0.87438500  0.69892800  1
  O  O23  1  0.87438500  0.69892800  0.49852100  1
loop_
_geom_bond_atom_site_label_1
_geom_bond_atom_site_label_2
_geom_bond_distance
_geom_bond_site_symmetry_2
Cu0 O6 2.293197 1_565
Cu0 O13 2.293197 1_556
Cu0 O3 2.293197 1_655
Cu0 O17 2.311691 1_656
Cu0 O10 2.311691 1_665
Cu0 O20 2.311691 1_566
Cu1 O18 2.306438 1_555
Cu1 O14 2.306438 1_555
Cu1 O16 2.306438 1_555
Cu1 O5 2.307570 1_555
Cu1 O9 2.307570 1_555
Cu1 O7 2.307570 1_555
O0 P1 1.536342 1_455
O0 Ti2 1.906977 1_555
O1 P2 1.536342 1_545
O1 Ti2 1.906977 1_555
O2 P0 1.536342 1_554
O2 Ti2 1.906977 1_555
O3 P0 1.546215 1_555
O3 Ti1 1.992439 1_455
O4 P0 1.522489 1_555
O4 V0 1.916324 1_556
O5 P0 1.546416 1_555
O5 Ti0 1.988473 1_555
O6 P1 1.546215 1_555
O6 Ti1 1.992439 1_545
O7 P1 1.546416 1_555
O7 Ti0 1.988473 1_555
O8 P3 1.535608 1_555
O8 Ti1 1.909351 1_545
O9 P2 1.546416 1_555
O9 Ti0 1.988473 1_555
O10 P3 1.541658 1_555
O10 V0 1.983773 1_556
O11 P4 1.535608 1_555
O11 Ti1 1.909351 1_455
O12 P1 1.522489 1_555
O12 V0 1.916324 1_655
O13 P2 1.546215 1_555
O13 Ti1 1.992439 1_554
O14 P3 1.544290 1_555
O14 Ti2 1.994774 1_555
O15 P2 1.522489 1_555
O15 V0 1.916324 1_565
O16 P4 1.544290 1_555
O16 Ti2 1.994774 1_555
O17 P4 1.541658 1_555
O17 V0 1.983773 1_565
O18 P5 1.544290 1_555
O18 Ti2 1.994774 1_555
O19 P5 1.535608 1_555
O19 Ti1 1.909351 1_554
O20 P5 1.541658 1_555
O20 V0 1.983773 1_655
O21 P5 1.536793 1_556
O21 Ti0 1.916184 1_555
O22 P3 1.536793 1_565
O22 Ti0 1.916184 1_555
O23 P4 1.536793 1_655
O23 Ti0 1.916184 1_555
