# generated using pymatgen
data_Li2CoP2O7
_symmetry_space_group_name_H-M   'P 1'
_cell_length_a   5.17986588
_cell_length_b   6.26691600
_cell_length_c   16.61699877
_cell_angle_alpha   86.77307220
_cell_angle_beta   91.38607319
_cell_angle_gamma   83.51094980
_symmetry_Int_Tables_number   1
_chemical_formula_structural   Li2CoP2O7
_chemical_formula_sum   'Li8 Co4 P8 O28'
_cell_volume   534.85800853
_cell_formula_units_Z   4
loop_
 _symmetry_equiv_pos_site_id
 _symmetry_equiv_pos_as_xyz
  1  'x, y, z'
loop_
 _atom_site_type_symbol
 _atom_site_label
 _atom_site_symmetry_multiplicity
 _atom_site_fract_x
 _atom_site_fract_y
 _atom_site_fract_z
 _atom_site_occupancy
  Li  Li0  1  0.20010300  0.55792100  0.22937000  1
  Li  Li1  1  0.20012000  0.05785600  0.72933800  1
  Li  Li2  1  0.79992500  0.94212400  0.27063100  1
  Li  Li3  1  0.79985200  0.44214000  0.77066600  1
  Li  Li4  1  0.30211500  0.51770200  0.41963500  1
  Li  Li5  1  0.30172400  0.01754800  0.91960300  1
  Li  Li6  1  0.69792700  0.98225800  0.08035400  1
  Li  Li7  1  0.69821900  0.48246900  0.58040800  1
  Co  Co0  1  0.23461100  0.56590300  0.87333600  1
  Co  Co1  1  0.76532600  0.93413600  0.62666100  1
  Co  Co2  1  0.23479200  0.06613100  0.37321400  1
  Co  Co3  1  0.76525600  0.43382100  0.12678900  1
  P  P0  1  0.21408000  0.73284700  0.06511800  1
  P  P1  1  0.21431600  0.23292000  0.56507800  1
  P  P2  1  0.78593400  0.76712200  0.43488500  1
  P  P3  1  0.78565100  0.26708900  0.93492300  1
  P  P4  1  0.28440400  0.07639600  0.17635300  1
  P  P5  1  0.28434300  0.57633900  0.67636000  1
  P  P6  1  0.71567000  0.42360500  0.32364100  1
  P  P7  1  0.71559800  0.92366400  0.82363900  1
  O  O0  1  0.06936600  0.78892500  0.41338000  1
  O  O1  1  0.06909600  0.28898500  0.91344000  1
  O  O2  1  0.93066000  0.71107200  0.08663900  1
  O  O3  1  0.93086700  0.21102400  0.58655000  1
  O  O4  1  0.10484200  0.28631100  0.16915500  1
  O  O5  1  0.10488000  0.78628000  0.66914900  1
  O  O6  1  0.89522200  0.21368200  0.33083900  1
  O  O7  1  0.89507900  0.71372400  0.83084800  1
  O  O8  1  0.26603900  0.23839500  0.47502400  1
  O  O9  1  0.26560700  0.73840000  0.97504300  1
  O  O10  1  0.73398900  0.26158500  0.02497700  1
  O  O11  1  0.73435900  0.76160800  0.52495400  1
  O  O12  1  0.20040000  0.91350400  0.23992200  1
  O  O13  1  0.20016200  0.41347900  0.73989000  1
  O  O14  1  0.79969000  0.58650000  0.26008800  1
  O  O15  1  0.79977400  0.08653100  0.76010600  1
  O  O16  1  0.26261200  0.97891500  0.08527100  1
  O  O17  1  0.26259000  0.47893300  0.58526400  1
  O  O18  1  0.73742800  0.52106400  0.41473100  1
  O  O19  1  0.73738200  0.02106400  0.91473200  1
  O  O20  1  0.42458700  0.39370900  0.31847700  1
  O  O21  1  0.42451100  0.89386200  0.81846900  1
  O  O22  1  0.57549200  0.10629900  0.18150600  1
  O  O23  1  0.57541500  0.60616300  0.68154000  1
  O  O24  1  0.40677400  0.58717400  0.11967900  1
  O  O25  1  0.40673300  0.08719500  0.61971300  1
  O  O26  1  0.59327600  0.91281000  0.38031700  1
  O  O27  1  0.59320100  0.41281400  0.88029300  1
loop_
_geom_bond_atom_site_label_1
_geom_bond_atom_site_label_2
_geom_bond_distance
_geom_bond_site_symmetry_2
Li0 O20 2.019475 1_555
Li0 O4 2.121251 1_555
Li0 O14 2.138225 1_455
Li0 O24 2.145493 1_555
Li0 O12 2.245285 1_555
Li1 O21 2.018959 1_545
Li1 O5 2.120814 1_545
Li1 O15 2.138104 1_455
Li1 O25 2.144446 1_555
Li1 O13 2.245389 1_555
Li2 O22 2.019456 1_565
Li2 O6 2.120971 1_565
Li2 O12 2.138492 1_655
Li2 O26 2.145398 1_555
Li2 O14 2.245485 1_555
Li3 O23 2.019094 1_555
Li3 O7 2.120777 1_555
Li3 O13 2.137961 1_655
Li3 O27 2.144571 1_555
Li3 O15 2.245340 1_555
Li4 O8 1.961328 1_555
Li4 O0 1.965771 1_555
Li4 O20 1.979659 1_555
Li4 O18 2.260736 1_555
Li5 O9 1.960856 1_545
Li5 O1 1.966529 1_555
Li5 O21 1.979017 1_545
Li5 O19 2.262605 1_555
Li6 O10 1.961339 1_565
Li6 O2 1.965539 1_555
Li6 O22 1.979636 1_565
Li6 O16 2.260745 1_555
Li7 O11 1.960930 1_555
Li7 O3 1.966626 1_555
Li7 O23 1.979034 1_555
Li7 O17 2.262455 1_555
Co0 O7 1.986913 1_455
Co0 O27 1.989537 1_555
Co0 O9 2.069420 1_555
Co0 O1 2.103465 1_555
Co0 O13 2.473730 1_555
Co0 O21 2.512455 1_555
Co1 O5 1.987083 1_655
Co1 O25 1.989479 1_565
Co1 O11 2.069515 1_555
Co1 O3 2.103406 1_565
Co1 O15 2.473633 1_565
Co1 O23 2.512622 1_555
Co2 O6 1.985913 1_455
Co2 O26 1.989620 1_545
Co2 O8 2.070176 1_555
Co2 O0 2.105060 1_545
Co2 O12 2.471923 1_545
Co2 O20 2.509472 1_555
Co3 O4 1.985847 1_655
Co3 O24 1.989688 1_555
Co3 O10 2.070115 1_555
Co3 O2 2.105168 1_555
Co3 O14 2.472196 1_555
Co3 O22 2.508989 1_555
O0 P2 1.538515 1_455
O1 P3 1.538596 1_455
O2 P0 1.538489 1_655
O3 P1 1.538570 1_655
O4 P4 1.519980 1_555
O5 P5 1.519850 1_555
O6 P6 1.519994 1_555
O7 P7 1.519892 1_555
O8 P1 1.525760 1_555
O9 P0 1.525893 1_556
O10 P3 1.525694 1_554
O11 P2 1.525848 1_555
O12 P4 1.532479 1_565
O13 P5 1.532265 1_555
O14 P6 1.532348 1_555
O15 P7 1.532317 1_545
O16 P0 1.641665 1_555
O16 P4 1.669752 1_565
O17 P1 1.641131 1_555
O17 P5 1.669751 1_555
O18 P2 1.641575 1_555
O18 P6 1.669802 1_555
O19 P3 1.641219 1_555
O19 P7 1.669703 1_545
O20 P6 1.541181 1_555
O21 P7 1.541067 1_555
O22 P4 1.541210 1_555
O23 P5 1.541029 1_555
O24 P0 1.519461 1_555
O25 P1 1.519471 1_555
O26 P2 1.519464 1_555
O27 P3 1.519523 1_555
