# generated using pymatgen
data_Co2OF3
_symmetry_space_group_name_H-M   'P 1'
_cell_length_a   4.69482187
_cell_length_b   4.69482187
_cell_length_c   9.52522800
_cell_angle_alpha   90.00000000
_cell_angle_beta   90.00000000
_cell_angle_gamma   92.74565280
_symmetry_Int_Tables_number   1
_chemical_formula_structural   Co2OF3
_chemical_formula_sum   'Co6 O3 F9'
_cell_volume   209.70789083
_cell_formula_units_Z   3
loop_
 _symmetry_equiv_pos_site_id
 _symmetry_equiv_pos_as_xyz
  1  'x, y, z'
loop_
 _atom_site_type_symbol
 _atom_site_label
 _atom_site_symmetry_multiplicity
 _atom_site_fract_x
 _atom_site_fract_y
 _atom_site_fract_z
 _atom_site_occupancy
  Co  Co0  1  0.96433200  0.96433200  0.00000000  1
  Co  Co1  1  0.02696300  0.02696300  0.33139500  1
  Co  Co2  1  0.02696300  0.02696300  0.66860500  1
  Co  Co3  1  0.49763300  0.49763300  0.16521200  1
  Co  Co4  1  0.49763300  0.49763300  0.83478800  1
  Co  Co5  1  0.48598100  0.48598100  0.50000000  1
  O  O0  1  0.30389700  0.30389700  0.33131200  1
  O  O1  1  0.30389700  0.30389700  0.66868800  1
  O  O2  1  0.68893500  0.68893500  0.00000000  1
  F  F0  1  0.80219700  0.18956100  0.16599500  1
  F  F1  1  0.80219700  0.18956100  0.83400500  1
  F  F2  1  0.81081700  0.20195900  0.50000000  1
  F  F3  1  0.27603500  0.27603500  0.00000000  1
  F  F4  1  0.71571800  0.71571800  0.66443100  1
  F  F5  1  0.71571800  0.71571800  0.33556900  1
  F  F6  1  0.18956100  0.80219700  0.16599500  1
  F  F7  1  0.18956100  0.80219700  0.83400500  1
  F  F8  1  0.20195900  0.81081700  0.50000000  1
loop_
_geom_bond_atom_site_label_1
_geom_bond_atom_site_label_2
_geom_bond_distance
_geom_bond_site_symmetry_2
Co0 O2 1.784161 1_555
Co0 F3 2.019370 1_665
Co0 F7 2.067523 1_654
Co0 F0 2.067523 1_565
Co0 F6 2.067523 1_655
Co0 F1 2.067523 1_564
Co1 O0 1.794119 1_555
Co1 F5 2.016795 1_445
Co1 F6 2.062897 1_545
Co1 F0 2.062897 1_455
Co1 F2 2.088983 1_455
Co1 F8 2.088983 1_545
Co2 O1 1.794119 1_555
Co2 F4 2.016795 1_445
Co2 F7 2.062897 1_545
Co2 F1 2.062897 1_455
Co2 F2 2.088983 1_455
Co2 F8 2.088983 1_545
Co3 O2 2.003114 1_555
Co3 O0 2.019528 1_555
Co3 F6 2.081979 1_555
Co3 F0 2.081979 1_555
Co3 F3 2.130139 1_555
Co3 F5 2.151583 1_555
Co4 O2 2.003114 1_556
Co4 O1 2.019528 1_555
Co4 F1 2.081979 1_555
Co4 F7 2.081979 1_555
Co4 F3 2.130139 1_556
Co4 F4 2.151583 1_555
Co5 O1 1.993317 1_555
Co5 O0 1.993317 1_555
Co5 F8 2.073315 1_555
Co5 F2 2.073315 1_555
Co5 F5 2.160627 1_555
Co5 F4 2.160627 1_555
