# generated using pymatgen
data_NaNi4H9(CO5)3
_symmetry_space_group_name_H-M   'P 1'
_cell_length_a   10.44682179
_cell_length_b   10.44682179
_cell_length_c   6.09409700
_cell_angle_alpha   90.00000000
_cell_angle_beta   90.00000000
_cell_angle_gamma   119.99999868
_symmetry_Int_Tables_number   1
_chemical_formula_structural   NaNi4H9(CO5)3
_chemical_formula_sum   'Na2 Ni8 H18 C6 O30'
_cell_volume   575.98128540
_cell_formula_units_Z   2
loop_
 _symmetry_equiv_pos_site_id
 _symmetry_equiv_pos_as_xyz
  1  'x, y, z'
loop_
 _atom_site_type_symbol
 _atom_site_label
 _atom_site_symmetry_multiplicity
 _atom_site_fract_x
 _atom_site_fract_y
 _atom_site_fract_z
 _atom_site_occupancy
  Na  Na0  1  0.00000000  0.00000000  0.36847900  1
  Na  Na1  1  0.00000000  0.00000000  0.86847900  1
  Ni  Ni0  1  0.00245000  0.51564600  0.25303000  1
  Ni  Ni1  1  0.33333300  0.66666700  0.13742400  1
  Ni  Ni2  1  0.51319600  0.99755000  0.25303000  1
  Ni  Ni3  1  0.48435400  0.48680400  0.25303000  1
  Ni  Ni4  1  0.51564600  0.51319600  0.75303000  1
  Ni  Ni5  1  0.48680400  0.00245000  0.75303000  1
  Ni  Ni6  1  0.66666700  0.33333300  0.63742400  1
  Ni  Ni7  1  0.99755000  0.48435400  0.75303000  1
  H  H0  1  0.04945200  0.79557100  0.16670300  1
  H  H1  1  0.20120800  0.93787700  0.10812100  1
  H  H2  1  0.16249300  0.71629600  0.93505500  1
  H  H3  1  0.06212300  0.26333100  0.10812100  1
  H  H4  1  0.20442900  0.25388100  0.16670300  1
  H  H5  1  0.28370400  0.44619600  0.93505500  1
  H  H6  1  0.55380400  0.83750700  0.93505500  1
  H  H7  1  0.26333100  0.20120800  0.60812100  1
  H  H8  1  0.25388100  0.04945200  0.66670300  1
  H  H9  1  0.74611900  0.95054800  0.16670300  1
  H  H10  1  0.73666900  0.79879200  0.10812100  1
  H  H11  1  0.44619600  0.16249300  0.43505500  1
  H  H12  1  0.71629600  0.55380400  0.43505500  1
  H  H13  1  0.79557100  0.74611900  0.66670300  1
  H  H14  1  0.93787700  0.73666900  0.60812100  1
  H  H15  1  0.83750700  0.28370400  0.43505500  1
  H  H16  1  0.79879200  0.06212300  0.60812100  1
  H  H17  1  0.95054800  0.20442900  0.66670300  1
  C  C0  1  0.22078000  0.78313300  0.50883700  1
  C  C1  1  0.21686700  0.43764600  0.50883700  1
  C  C2  1  0.56235400  0.77922000  0.50883700  1
  C  C3  1  0.43764600  0.22078000  0.00883700  1
  C  C4  1  0.78313300  0.56235400  0.00883700  1
  C  C5  1  0.77922000  0.21686700  0.00883700  1
  O  O0  1  0.09458200  0.89906100  0.12149700  1
  O  O1  1  0.08584500  0.66998700  0.50681100  1
  O  O2  1  0.13724600  0.61838600  0.98987600  1
  O  O3  1  0.26860400  0.85977600  0.68517300  1
  O  O4  1  0.30078700  0.81649500  0.33192900  1
  O  O5  1  0.14022400  0.40882700  0.68517300  1
  O  O6  1  0.18350500  0.48429200  0.33192900  1
  O  O7  1  0.10093900  0.19552100  0.12149700  1
  O  O8  1  0.48114000  0.86275400  0.98987600  1
  O  O9  1  0.38161400  0.51886000  0.98987600  1
  O  O10  1  0.58414200  0.91415500  0.50681100  1
  O  O11  1  0.33001300  0.41585800  0.50681100  1
  O  O12  1  0.19552100  0.09458200  0.62149700  1
  O  O13  1  0.51570800  0.69921300  0.33192900  1
  O  O14  1  0.59117300  0.73139600  0.68517300  1
  O  O15  1  0.40882700  0.26860400  0.18517300  1
  O  O16  1  0.48429200  0.30078700  0.83192900  1
  O  O17  1  0.80447900  0.90541800  0.12149700  1
  O  O18  1  0.66998700  0.58414200  0.00681100  1
  O  O19  1  0.41585800  0.08584500  0.00681100  1
  O  O20  1  0.61838600  0.48114000  0.48987600  1
  O  O21  1  0.51886000  0.13724600  0.48987600  1
  O  O22  1  0.89906100  0.80447900  0.62149700  1
  O  O23  1  0.81649500  0.51570800  0.83192900  1
  O  O24  1  0.85977600  0.59117300  0.18517300  1
  O  O25  1  0.69921300  0.18350500  0.83192900  1
  O  O26  1  0.73139600  0.14022400  0.18517300  1
  O  O27  1  0.86275400  0.38161400  0.48987600  1
  O  O28  1  0.91415500  0.33001300  0.00681100  1
  O  O29  1  0.90541800  0.10093900  0.62149700  1
loop_
_geom_bond_atom_site_label_1
_geom_bond_atom_site_label_2
_geom_bond_distance
_geom_bond_site_symmetry_2
Na0 O0 2.322844 1_545
Na0 O17 2.322844 1_445
Na0 O7 2.322844 1_555
Na0 O29 2.346846 1_455
Na0 O12 2.346846 1_555
Na0 O22 2.346846 1_445
Na1 O29 2.322844 1_455
Na1 O12 2.322844 1_555
Na1 O22 2.322844 1_445
Na1 O0 2.346846 1_546
Na1 O17 2.346846 1_446
Na1 O7 2.346846 1_556
Ni0 O27 2.032297 1_455
Ni0 O24 2.047226 1_455
Ni0 O2 2.048261 1_554
Ni0 O1 2.084683 1_555
Ni0 O6 2.129695 1_555
Ni0 O28 2.252614 1_455
Ni1 O2 2.055720 1_554
Ni1 O8 2.055723 1_554
Ni1 O9 2.055729 1_554
Ni1 O4 2.121963 1_555
Ni1 O6 2.121969 1_555
Ni1 O13 2.121972 1_555
Ni2 O21 2.032297 1_565
Ni2 O26 2.047218 1_565
Ni2 O8 2.048261 1_554
Ni2 O10 2.084683 1_555
Ni2 O4 2.129695 1_555
Ni2 O19 2.252614 1_565
Ni3 O20 2.032297 1_555
Ni3 O15 2.047216 1_555
Ni3 O9 2.048261 1_554
Ni3 O11 2.084683 1_555
Ni3 O13 2.129695 1_555
Ni3 O18 2.252614 1_555
Ni4 O9 2.032297 1_555
Ni4 O14 2.047216 1_555
Ni4 O20 2.048261 1_555
Ni4 O18 2.084683 1_556
Ni4 O16 2.129695 1_555
Ni4 O11 2.252614 1_555
Ni5 O8 2.032297 1_545
Ni5 O3 2.047218 1_545
Ni5 O21 2.048261 1_555
Ni5 O19 2.084683 1_556
Ni5 O25 2.129695 1_555
Ni5 O10 2.252614 1_545
Ni6 O27 2.055720 1_555
Ni6 O21 2.055723 1_555
Ni6 O20 2.055729 1_555
Ni6 O25 2.121963 1_555
Ni6 O23 2.121969 1_555
Ni6 O16 2.121972 1_555
Ni7 O2 2.032297 1_655
Ni7 O5 2.047226 1_655
Ni7 O27 2.048261 1_555
Ni7 O28 2.084683 1_556
Ni7 O23 2.129695 1_555
Ni7 O1 2.252614 1_655
H0 O0 0.978428 1_555
H1 O0 0.979880 1_555
H2 O2 0.978580 1_555
H3 O7 0.979880 1_555
H4 O7 0.978428 1_555
H5 O9 0.978583 1_555
H6 O8 0.978589 1_555
H7 O12 0.979880 1_555
H8 O12 0.978428 1_555
H9 O17 0.978428 1_555
H10 O17 0.979880 1_555
H11 O21 0.978589 1_555
H12 O20 0.978583 1_555
H13 O22 0.978428 1_555
H14 O22 0.979880 1_555
H15 O27 0.978580 1_555
H16 O29 0.979880 1_555
H17 O29 0.978428 1_555
C0 O3 1.282751 1_555
C0 O4 1.300402 1_555
C0 O1 1.310796 1_555
C1 O5 1.282751 1_555
C1 O6 1.300408 1_555
C1 O11 1.310789 1_555
C2 O14 1.282751 1_555
C2 O13 1.300403 1_555
C2 O10 1.310800 1_555
C3 O15 1.282751 1_555
C3 O16 1.300403 1_554
C3 O19 1.310800 1_555
C4 O24 1.282751 1_555
C4 O23 1.300408 1_554
C4 O18 1.310789 1_555
C5 O26 1.282751 1_555
C5 O25 1.300402 1_554
C5 O28 1.310796 1_555
