# generated using pymatgen
data_LiMn(CO3)2
_symmetry_space_group_name_H-M   'P 1'
_cell_length_a   9.79309900
_cell_length_b   7.32034700
_cell_length_c   9.00128023
_cell_angle_alpha   60.00557201
_cell_angle_beta   90.00000000
_cell_angle_gamma   90.00000000
_symmetry_Int_Tables_number   1
_chemical_formula_structural   LiMn(CO3)2
_chemical_formula_sum   'Li4 Mn4 C8 O24'
_cell_volume   558.87040098
_cell_formula_units_Z   4
loop_
 _symmetry_equiv_pos_site_id
 _symmetry_equiv_pos_as_xyz
  1  'x, y, z'
loop_
 _atom_site_type_symbol
 _atom_site_label
 _atom_site_symmetry_multiplicity
 _atom_site_fract_x
 _atom_site_fract_y
 _atom_site_fract_z
 _atom_site_occupancy
  Li  Li0  1  0.40225900  0.33341500  0.15781500  1
  Li  Li1  1  0.09774100  0.33341500  0.65781500  1
  Li  Li2  1  0.90225900  0.66658500  0.34218500  1
  Li  Li3  1  0.59774100  0.66658500  0.84218500  1
  Mn  Mn0  1  0.13616100  0.52194600  0.93262700  1
  Mn  Mn1  1  0.63616100  0.47805400  0.56737300  1
  Mn  Mn2  1  0.36383900  0.52194600  0.43262700  1
  Mn  Mn3  1  0.86383900  0.47805400  0.06737300  1
  C  C0  1  0.39188500  0.47748800  0.77211300  1
  C  C1  1  0.89188500  0.52251200  0.72788700  1
  C  C2  1  0.01373000  0.09819100  0.14098800  1
  C  C3  1  0.51373000  0.90180900  0.35901200  1
  C  C4  1  0.48627000  0.09819100  0.64098800  1
  C  C5  1  0.98627000  0.90180900  0.85901200  1
  C  C6  1  0.10811500  0.47748800  0.27211300  1
  C  C7  1  0.60811500  0.52251200  0.22788700  1
  O  O0  1  0.34732700  0.47578100  0.90676500  1
  O  O1  1  0.02360700  0.53043400  0.74387400  1
  O  O2  1  0.80610600  0.51122200  0.84173300  1
  O  O3  1  0.30610600  0.48877800  0.65826700  1
  O  O4  1  0.52360700  0.46956600  0.75612600  1
  O  O5  1  0.84732700  0.52421900  0.59323500  1
  O  O6  1  0.52323900  0.09813900  0.28612800  1
  O  O7  1  0.11789500  0.21627300  0.05351900  1
  O  O8  1  0.89841300  0.18315800  0.15379900  1
  O  O9  1  0.39841300  0.81684200  0.34620100  1
  O  O10  1  0.61789500  0.78372700  0.44648100  1
  O  O11  1  0.97676100  0.09813900  0.78612800  1
  O  O12  1  0.02323900  0.90186100  0.21387200  1
  O  O13  1  0.38210500  0.21627300  0.55351900  1
  O  O14  1  0.60158700  0.18315800  0.65379900  1
  O  O15  1  0.10158700  0.81684200  0.84620100  1
  O  O16  1  0.88210500  0.78372700  0.94648100  1
  O  O17  1  0.47676100  0.90186100  0.71387200  1
  O  O18  1  0.15267300  0.47578100  0.40676500  1
  O  O19  1  0.47639300  0.53043400  0.24387400  1
  O  O20  1  0.69389400  0.51122200  0.34173300  1
  O  O21  1  0.19389400  0.48877800  0.15826700  1
  O  O22  1  0.97639300  0.46956600  0.25612600  1
  O  O23  1  0.65267300  0.52421900  0.09323500  1
loop_
_geom_bond_atom_site_label_1
_geom_bond_atom_site_label_2
_geom_bond_distance
_geom_bond_site_symmetry_2
Li0 O6 1.927457 1_555
Li0 O0 2.031603 1_554
Li0 O19 2.079486 1_555
Li0 O21 2.337075 1_555
Li1 O11 1.927457 1_455
Li1 O18 2.031603 1_555
Li1 O1 2.079486 1_555
Li1 O3 2.337075 1_555
Li2 O12 1.927457 1_655
Li2 O5 2.031603 1_555
Li2 O22 2.079486 1_555
Li2 O20 2.337075 1_555
Li3 O17 1.927457 1_555
Li3 O23 2.031603 1_556
Li3 O4 2.079486 1_555
Li3 O2 2.337075 1_555
Mn0 O15 1.923773 1_555
Mn0 O7 1.946432 1_556
Mn0 O1 1.999984 1_555
Mn0 O21 2.002677 1_556
Mn0 O0 2.126865 1_555
Mn1 O14 1.923773 1_555
Mn1 O10 1.946432 1_555
Mn1 O4 1.999984 1_555
Mn1 O20 2.002677 1_555
Mn1 O5 2.126865 1_555
Mn2 O9 1.923773 1_555
Mn2 O13 1.946432 1_555
Mn2 O19 1.999984 1_555
Mn2 O3 2.002677 1_555
Mn2 O18 2.126865 1_555
Mn3 O8 1.923773 1_555
Mn3 O16 1.946432 1_554
Mn3 O22 1.999984 1_555
Mn3 O2 2.002677 1_554
Mn3 O23 2.126865 1_555
C0 O0 1.282367 1_555
C0 O3 1.295359 1_555
C0 O4 1.302470 1_555
C1 O5 1.282367 1_555
C1 O2 1.295359 1_555
C1 O1 1.302470 1_655
C2 O12 1.249764 1_545
C2 O7 1.314240 1_555
C2 O8 1.321825 1_455
C3 O6 1.249764 1_565
C3 O10 1.314240 1_555
C3 O9 1.321825 1_555
C4 O17 1.249764 1_545
C4 O13 1.314240 1_555
C4 O14 1.321825 1_555
C5 O11 1.249764 1_565
C5 O16 1.314240 1_555
C5 O15 1.321825 1_655
C6 O18 1.282367 1_555
C6 O21 1.295359 1_555
C6 O22 1.302470 1_455
C7 O23 1.282367 1_555
C7 O20 1.295359 1_555
C7 O19 1.302470 1_555
