# generated using pymatgen
data_Fe3P6WO24
_symmetry_space_group_name_H-M   'P 1'
_cell_length_a   8.95292215
_cell_length_b   8.95292241
_cell_length_c   8.95292232
_cell_angle_alpha   58.36571571
_cell_angle_beta   58.36571970
_cell_angle_gamma   58.36571677
_symmetry_Int_Tables_number   1
_chemical_formula_structural   Fe3P6WO24
_chemical_formula_sum   'Fe3 P6 W1 O24'
_cell_volume   488.44891092
_cell_formula_units_Z   1
loop_
 _symmetry_equiv_pos_site_id
 _symmetry_equiv_pos_as_xyz
  1  'x, y, z'
loop_
 _atom_site_type_symbol
 _atom_site_label
 _atom_site_symmetry_multiplicity
 _atom_site_fract_x
 _atom_site_fract_y
 _atom_site_fract_z
 _atom_site_occupancy
  Fe  Fe0  1  0.14392800  0.14392800  0.14392800  1
  Fe  Fe1  1  0.35825100  0.35825100  0.35825100  1
  Fe  Fe2  1  0.64168100  0.64168100  0.64168100  1
  P  P0  1  0.03414300  0.75276300  0.46034100  1
  P  P1  1  0.46034100  0.03414300  0.75276300  1
  P  P2  1  0.75276300  0.46034100  0.03414300  1
  P  P3  1  0.25417800  0.52934500  0.96774200  1
  P  P4  1  0.52934500  0.96774200  0.25417800  1
  P  P5  1  0.96774200  0.25417800  0.52934500  1
  W  W0  1  0.85799300  0.85799300  0.85799300  1
  O  O0  1  0.13851400  0.26895200  0.51160300  1
  O  O1  1  0.26895200  0.51160300  0.13851400  1
  O  O2  1  0.06032300  0.92275900  0.28638500  1
  O  O3  1  0.51160300  0.13851400  0.26895200  1
  O  O4  1  0.20782700  0.57812300  0.44778400  1
  O  O5  1  0.99391300  0.78957600  0.63559200  1
  O  O6  1  0.28638500  0.06032300  0.92275900  1
  O  O7  1  0.44778400  0.20782700  0.57812300  1
  O  O8  1  0.57812300  0.44778400  0.20782700  1
  O  O9  1  0.22365600  0.36528600  0.99149100  1
  O  O10  1  0.07618600  0.71234400  0.93047700  1
  O  O11  1  0.36528600  0.99149100  0.22365600  1
  O  O12  1  0.63559200  0.99391300  0.78957600  1
  O  O13  1  0.92275900  0.28638500  0.06032300  1
  O  O14  1  0.78957600  0.63559200  0.99391300  1
  O  O15  1  0.42262800  0.56215500  0.79317400  1
  O  O16  1  0.56215500  0.79317400  0.42262800  1
  O  O17  1  0.71234400  0.93047700  0.07618600  1
  O  O18  1  0.99149100  0.22365600  0.36528600  1
  O  O19  1  0.79317400  0.42262800  0.56215500  1
  O  O20  1  0.49368700  0.86467500  0.72252500  1
  O  O21  1  0.93047700  0.07618600  0.71234400  1
  O  O22  1  0.72252500  0.49368700  0.86467500  1
  O  O23  1  0.86467500  0.72252500  0.49368700  1
loop_
_geom_bond_atom_site_label_1
_geom_bond_atom_site_label_2
_geom_bond_distance
_geom_bond_site_symmetry_2
Fe0 O11 1.981022 1_545
Fe0 O9 1.981022 1_554
Fe0 O18 1.981022 1_455
Fe0 O13 2.002975 1_455
Fe0 O2 2.002975 1_545
Fe0 O6 2.002975 1_554
Fe1 O1 2.014827 1_555
Fe1 O0 2.014827 1_555
Fe1 O3 2.014827 1_555
Fe1 O7 2.018192 1_555
Fe1 O8 2.018192 1_555
Fe1 O4 2.018192 1_555
Fe2 O16 1.963202 1_555
Fe2 O15 1.963202 1_555
Fe2 O19 1.963202 1_555
Fe2 O22 2.000053 1_555
Fe2 O23 2.000053 1_555
Fe2 O20 2.000053 1_555
O0 P5 1.521720 1_455
O1 P3 1.521720 1_554
O2 P0 1.517128 1_555
O3 P4 1.521720 1_545
O4 P0 1.525084 1_555
O5 P0 1.589108 1_655
O5 W0 1.943306 1_555
O6 P1 1.517128 1_555
O7 P1 1.525084 1_555
O8 P2 1.525084 1_555
O9 P3 1.519788 1_555
O10 P3 1.606411 1_555
O10 W0 1.925505 1_455
O11 P4 1.519788 1_555
O12 P1 1.589108 1_565
O12 W0 1.943306 1_555
O13 P2 1.517128 1_555
O14 P2 1.589108 1_556
O14 W0 1.943306 1_555
O15 P3 1.521173 1_555
O16 P4 1.521173 1_555
O17 P4 1.606411 1_555
O17 W0 1.925506 1_554
O18 P5 1.519788 1_555
O19 P5 1.521173 1_555
O20 P1 1.528185 1_565
O21 P5 1.606411 1_555
O21 W0 1.925506 1_545
O22 P2 1.528185 1_556
O23 P0 1.528185 1_655
