# generated using pymatgen
data_Ba3SiO5
_symmetry_space_group_name_H-M   'P 1'
_cell_length_a   7.67921352
_cell_length_b   7.67921469
_cell_length_c   7.67921115
_cell_angle_alpha   122.90062372
_cell_angle_beta   122.90062408
_cell_angle_gamma   85.04537220
_symmetry_Int_Tables_number   1
_chemical_formula_structural   Ba3SiO5
_chemical_formula_sum   'Ba6 Si2 O10'
_cell_volume   304.92645375
_cell_formula_units_Z   2
loop_
 _symmetry_equiv_pos_site_id
 _symmetry_equiv_pos_as_xyz
  1  'x, y, z'
loop_
 _atom_site_type_symbol
 _atom_site_label
 _atom_site_symmetry_multiplicity
 _atom_site_fract_x
 _atom_site_fract_y
 _atom_site_fract_z
 _atom_site_occupancy
  Ba  Ba0  1  0.81823627  0.31823692  0.13647361  1
  Ba  Ba1  1  0.31823744  0.18176302  0.50000056  1
  Ba  Ba2  1  0.68176243  0.81823691  0.49999941  1
  Ba  Ba3  1  0.18176369  0.68176319  0.86352640  1
  Ba  Ba4  1  0.25000029  0.25000028  0.00000002  1
  Ba  Ba5  1  0.74999985  0.74999972  0.00000004  1
  Si  Si0  1  0.75000012  0.25000064  0.50000154  1
  Si  Si1  1  0.24999955  0.75000018  0.49999812  1
  O  O0  1  0.21048028  0.71048035  0.24679220  1
  O  O1  1  0.53631000  0.03631017  0.24678934  1
  O  O2  1  0.78951987  0.28951967  0.75320837  1
  O  O3  1  0.28952024  0.53631008  0.49999954  1
  O  O4  1  0.03631076  0.78952027  0.49999990  1
  O  O5  1  0.71047993  0.46368919  0.50000038  1
  O  O6  1  0.96368943  0.21047971  0.50000013  1
  O  O7  1  0.46368985  0.96368967  0.75321041  1
  O  O8  1  0.49999998  0.50000002  -0.00000001  1
  O  O9  1  0.00000002  0.00000001  0.00000003  1
loop_
_geom_bond_atom_site_label_1
_geom_bond_atom_site_label_2
_geom_bond_distance
_geom_bond_site_symmetry_2
Ba0 O8 2.690051 1_555
Ba0 O9 2.690057 1_655
Ba0 O7 2.712506 1_544
Ba0 O2 2.712518 1_554
Ba0 O5 2.947509 1_555
Ba0 O4 2.947511 1_655
Ba0 O6 2.947511 1_555
Ba0 O3 2.947512 1_655
Ba1 O8 2.690050 1_556
Ba1 O9 2.690056 1_555
Ba1 O3 2.712513 1_555
Ba1 O6 2.712514 1_455
Ba1 O2 2.947506 1_555
Ba1 O0 2.947507 1_545
Ba1 O7 2.947509 1_545
Ba1 O1 2.947511 1_555
Ba2 O8 2.690050 1_555
Ba2 O9 2.690056 1_666
Ba2 O4 2.712516 1_655
Ba2 O5 2.712518 1_555
Ba2 O0 2.947504 1_555
Ba2 O2 2.947507 1_565
Ba2 O1 2.947509 1_565
Ba2 O7 2.947510 1_555
Ba3 O8 2.690051 1_556
Ba3 O9 2.690056 1_566
Ba3 O1 2.712505 1_566
Ba3 O0 2.712522 1_556
Ba3 O3 2.947510 1_555
Ba3 O4 2.947511 1_555
Ba3 O6 2.947511 1_455
Ba3 O5 2.947512 1_455
Ba4 O8 2.829825 1_555
Ba4 O9 2.829831 1_555
Ba4 O3 3.057290 1_555
Ba4 O6 3.057290 1_454
Ba4 O7 3.057291 1_544
Ba4 O1 3.057291 1_555
Ba4 O5 3.057292 1_555
Ba4 O4 3.057293 1_544
Ba4 O2 3.057295 1_454
Ba4 O0 3.057295 1_555
Ba5 O8 2.829825 1_555
Ba5 O9 2.829831 1_665
Ba5 O4 3.057290 1_655
Ba5 O5 3.057291 1_554
Ba5 O1 3.057291 1_565
Ba5 O7 3.057292 1_554
Ba5 O3 3.057292 1_554
Ba5 O6 3.057293 1_565
Ba5 O2 3.057295 1_554
Ba5 O0 3.057296 1_655
O0 Si1 1.642794 1_555
O1 Si0 1.642825 1_555
O2 Si0 1.642802 1_555
O3 Si1 1.642829 1_555
O4 Si1 1.642819 1_555
O5 Si0 1.642816 1_555
O6 Si0 1.642823 1_555
O7 Si1 1.642823 1_555
