# generated using pymatgen
data_Li32Mn13Cr3O48
_symmetry_space_group_name_H-M   'P 1'
_cell_length_a   5.00938900
_cell_length_b   8.67195755
_cell_length_c   19.46779367
_cell_angle_alpha   98.25280184
_cell_angle_beta   94.84679338
_cell_angle_gamma   89.79676770
_symmetry_Int_Tables_number   1
_chemical_formula_structural   Li32Mn13Cr3O48
_chemical_formula_sum   'Li32 Mn13 Cr3 O48'
_cell_volume   833.92234581
_cell_formula_units_Z   1
loop_
 _symmetry_equiv_pos_site_id
 _symmetry_equiv_pos_as_xyz
  1  'x, y, z'
loop_
 _atom_site_type_symbol
 _atom_site_label
 _atom_site_symmetry_multiplicity
 _atom_site_fract_x
 _atom_site_fract_y
 _atom_site_fract_z
 _atom_site_occupancy
  Li  Li0  1  0.99433800  0.16931100  0.25010300  1
  Li  Li1  1  0.87846100  0.37421800  0.37471200  1
  Li  Li2  1  0.74945700  0.24970200  0.00020000  1
  Li  Li3  1  0.74215800  0.92024800  0.00056000  1
  Li  Li4  1  0.99231300  0.16884300  0.74912600  1
  Li  Li5  1  0.75730600  0.58196800  0.49965300  1
  Li  Li6  1  0.87591500  0.37579000  0.87530700  1
  Li  Li7  1  0.74663200  0.24866100  0.49996700  1
  Li  Li8  1  0.74422900  0.91889800  0.49992200  1
  Li  Li9  1  0.62489000  0.12508500  0.12503700  1
  Li  Li10  1  0.75616600  0.58049700  0.99989100  1
  Li  Li11  1  0.50568200  0.33078800  0.24997500  1
  Li  Li12  1  0.62463000  0.12541600  0.62499500  1
  Li  Li13  1  0.50035800  0.99992200  0.24993300  1
  Li  Li14  1  0.49160800  0.66887700  0.24924700  1
  Li  Li15  1  0.50896600  0.33082900  0.75046800  1
  Li  Li16  1  0.37597500  0.87507600  0.37530400  1
  Li  Li17  1  0.49821700  0.99965000  0.74977900  1
  Li  Li18  1  0.24927700  0.74953300  0.00016900  1
  Li  Li19  1  0.49517700  0.66949600  0.75030600  1
  Li  Li20  1  0.24353400  0.41904300  0.00012600  1
  Li  Li21  1  0.37803200  0.87462800  0.87475200  1
  Li  Li22  1  0.25645800  0.08063600  0.49975600  1
  Li  Li23  1  0.25038400  0.74985800  0.49981200  1
  Li  Li24  1  0.12474000  0.62500900  0.12498800  1
  Li  Li25  1  0.24366700  0.41962800  0.50034000  1
  Li  Li26  1  0.00687600  0.83123700  0.25039000  1
  Li  Li27  1  0.25862300  0.08139800  0.00013400  1
  Li  Li28  1  0.12497800  0.62689500  0.62500300  1
  Li  Li29  1  0.00005400  0.49969100  0.25001000  1
  Li  Li30  1  0.00587300  0.83125700  0.75016500  1
  Li  Li31  1  0.99838400  0.49964400  0.75028500  1
  Mn  Mn0  1  0.87667200  0.70996700  0.37572900  1
  Mn  Mn1  1  0.87481400  0.04138000  0.37501100  1
  Mn  Mn2  1  0.87205400  0.70763700  0.87431100  1
  Mn  Mn3  1  0.62601300  0.79134900  0.12506100  1
  Mn  Mn4  1  0.62433000  0.45856900  0.12513200  1
  Mn  Mn5  1  0.62608400  0.79143400  0.62496000  1
  Mn  Mn6  1  0.62372000  0.45896500  0.62481300  1
  Mn  Mn7  1  0.37225500  0.20732500  0.37423400  1
  Mn  Mn8  1  0.37491200  0.54155300  0.87518000  1
  Mn  Mn9  1  0.37652600  0.21013000  0.87592300  1
  Mn  Mn10  1  0.12423300  0.95850400  0.12505600  1
  Mn  Mn11  1  0.12586000  0.29150200  0.12510300  1
  Mn  Mn12  1  0.12396200  0.95801500  0.62500500  1
  Cr  Cr0  1  0.88202900  0.04144900  0.87492700  1
  Cr  Cr1  1  0.38250000  0.54100300  0.37471300  1
  Cr  Cr2  1  0.12491300  0.29452900  0.62503100  1
  O  O0  1  0.96369700  0.10678300  0.06885500  1
  O  O1  1  0.92804200  0.78511700  0.06896300  1
  O  O2  1  0.92722900  0.42769700  0.06805300  1
  O  O3  1  0.96685700  0.10629900  0.56882100  1
  O  O4  1  0.82195100  0.96480900  0.18101000  1
  O  O5  1  0.82252600  0.32229900  0.18201300  1
  O  O6  1  0.92811200  0.78451100  0.56907000  1
  O  O7  1  0.92715200  0.42586800  0.56785400  1
  O  O8  1  0.78651400  0.64319300  0.18109400  1
  O  O9  1  0.71316500  0.85732600  0.31898200  1
  O  O10  1  0.82167500  0.96481500  0.68099700  1
  O  O11  1  0.81761200  0.32367400  0.68276800  1
  O  O12  1  0.67778200  0.53698800  0.31879400  1
  O  O13  1  0.67695700  0.17800600  0.31795500  1
  O  O14  1  0.78805200  0.64309300  0.68090800  1
  O  O15  1  0.71166200  0.85338300  0.81806500  1
  O  O16  1  0.46344600  0.60682600  0.06892700  1
  O  O17  1  0.57638800  0.71776300  0.43169500  1
  O  O18  1  0.57261500  0.07204600  0.43189000  1
  O  O19  1  0.67767700  0.53391100  0.81899300  1
  O  O20  1  0.67643500  0.17520900  0.81808000  1
  O  O21  1  0.42714800  0.92752300  0.06789700  1
  O  O22  1  0.42829000  0.28532700  0.06915600  1
  O  O23  1  0.53050500  0.39346100  0.43092200  1
  O  O24  1  0.46255000  0.60697900  0.56882100  1
  O  O25  1  0.57079200  0.71494000  0.93093500  1
  O  O26  1  0.56975900  0.07313800  0.93250800  1
  O  O27  1  0.32281200  0.82222600  0.18207600  1
  O  O28  1  0.32199000  0.46496300  0.18114800  1
  O  O29  1  0.42742900  0.92765200  0.56809800  1
  O  O30  1  0.43421200  0.28617100  0.56827200  1
  O  O31  1  0.53841400  0.39411700  0.93124600  1
  O  O32  1  0.28669700  0.14284000  0.18094700  1
  O  O33  1  0.21091900  0.35259700  0.31782600  1
  O  O34  1  0.32257400  0.82147800  0.68195200  1
  O  O35  1  0.32204000  0.46265400  0.68096600  1
  O  O36  1  0.17587600  0.67602600  0.31788900  1
  O  O37  1  0.17763900  0.03378700  0.31888800  1
  O  O38  1  0.28425400  0.14221500  0.68109900  1
  O  O39  1  0.21332000  0.35722500  0.81897000  1
  O  O40  1  0.07030700  0.57312300  0.43244600  1
  O  O41  1  0.07082600  0.21502100  0.43094200  1
  O  O42  1  0.17701600  0.67785600  0.81798000  1
  O  O43  1  0.17869800  0.03689700  0.81900200  1
  O  O44  1  0.03861200  0.89407800  0.43112600  1
  O  O45  1  0.07268100  0.57226800  0.93202400  1
  O  O46  1  0.07551800  0.21695500  0.93150000  1
  O  O47  1  0.02933800  0.89382300  0.93097300  1
loop_
_geom_bond_atom_site_label_1
_geom_bond_atom_site_label_2
_geom_bond_distance
_geom_bond_site_symmetry_2
Li0 O32 2.062091 1_655
Li0 O37 2.062500 1_655
Li0 O5 2.135884 1_555
Li0 O13 2.145627 1_555
Li0 O33 2.147227 1_655
Li0 O4 2.197685 1_545
Li1 O41 2.068568 1_655
Li1 O33 2.070030 1_655
Li1 O13 2.102144 1_555
Li1 O12 2.105755 1_555
Li1 O40 2.105892 1_655
Li1 O23 2.128696 1_555
Li2 O26 2.030133 1_554
Li2 O2 2.036211 1_555
Li2 O0 2.167485 1_555
Li2 O31 2.172897 1_554
Li2 O22 2.174469 1_555
Li2 O46 2.189541 1_654
Li3 O47 2.048210 1_654
Li3 O1 2.060175 1_555
Li3 O21 2.130180 1_555
Li3 O26 2.135809 1_564
Li3 O0 2.182197 1_565
Li3 O25 2.205780 1_554
Li4 O38 2.045245 1_655
Li4 O43 2.063046 1_655
Li4 O11 2.129818 1_555
Li4 O20 2.155443 1_555
Li4 O10 2.183061 1_545
Li4 O39 2.205458 1_655
Li5 O17 2.048294 1_555
Li5 O24 2.071302 1_555
Li5 O40 2.119709 1_655
Li5 O7 2.153172 1_555
Li5 O6 2.185706 1_555
Li5 O23 2.209485 1_555
Li6 O19 2.075143 1_555
Li6 O31 2.080651 1_555
Li6 O46 2.081284 1_655
Li6 O39 2.084748 1_655
Li6 O45 2.093258 1_655
Li6 O20 2.129137 1_555
Li7 O18 2.023276 1_555
Li7 O7 2.037350 1_555
Li7 O30 2.132429 1_555
Li7 O3 2.180243 1_555
Li7 O41 2.186572 1_655
Li7 O23 2.187392 1_555
Li8 O6 2.062043 1_555
Li8 O44 2.064822 1_655
Li8 O18 2.135760 1_565
Li8 O29 2.147546 1_555
Li8 O17 2.161031 1_555
Li8 O3 2.195042 1_565
Li9 O22 2.080303 1_555
Li9 O4 2.082544 1_545
Li9 O32 2.083307 1_555
Li9 O0 2.089004 1_555
Li9 O5 2.101722 1_555
Li9 O21 2.105368 1_545
Li10 O16 2.061829 1_556
Li10 O25 2.062687 1_555
Li10 O2 2.134373 1_556
Li10 O45 2.142615 1_655
Li10 O31 2.175819 1_555
Li10 O1 2.197354 1_556
Li11 O33 2.053474 1_555
Li11 O28 2.056114 1_555
Li11 O13 2.132235 1_555
Li11 O5 2.145039 1_555
Li11 O32 2.191008 1_555
Li11 O12 2.205377 1_555
Li12 O30 2.080196 1_555
Li12 O10 2.084926 1_545
Li12 O38 2.094925 1_555
Li12 O3 2.103602 1_555
Li12 O29 2.103749 1_545
Li12 O11 2.104376 1_555
Li13 O27 2.034087 1_555
Li13 O13 2.036129 1_565
Li13 O9 2.167541 1_555
Li13 O32 2.170443 1_565
Li13 O4 2.175514 1_555
Li13 O37 2.179895 1_565
Li14 O12 2.057824 1_555
Li14 O8 2.058260 1_555
Li14 O27 2.120815 1_555
Li14 O36 2.150296 1_555
Li14 O28 2.180328 1_555
Li14 O9 2.206095 1_555
Li15 O35 2.058346 1_555
Li15 O39 2.065896 1_555
Li15 O11 2.109880 1_555
Li15 O20 2.138427 1_555
Li15 O19 2.177386 1_555
Li15 O38 2.210946 1_555
Li16 O17 2.075609 1_555
Li16 O44 2.078736 1_555
Li16 O37 2.080274 1_565
Li16 O9 2.083677 1_555
Li16 O18 2.095204 1_565
Li16 O36 2.121971 1_555
Li17 O20 2.027502 1_565
Li17 O34 2.032897 1_555
Li17 O38 2.165172 1_565
Li17 O43 2.172137 1_565
Li17 O15 2.180287 1_555
Li17 O10 2.181001 1_555
Li18 O45 2.032609 1_554
Li18 O21 2.035151 1_555
Li18 O16 2.167436 1_555
Li18 O1 2.172642 1_455
Li18 O25 2.178987 1_554
Li18 O47 2.194892 1_554
Li19 O19 2.059972 1_555
Li19 O14 2.067343 1_555
Li19 O34 2.134577 1_555
Li19 O42 2.146561 1_555
Li19 O15 2.150745 1_555
Li19 O35 2.215845 1_555
Li20 O22 2.058335 1_555
Li20 O31 2.067878 1_554
Li20 O45 2.135832 1_554
Li20 O2 2.142360 1_455
Li20 O46 2.170903 1_554
Li20 O16 2.190122 1_555
Li21 O25 2.072022 1_555
Li21 O15 2.072707 1_555
Li21 O43 2.097750 1_565
Li21 O26 2.103260 1_565
Li21 O42 2.104757 1_555
Li21 O47 2.132006 1_555
Li22 O3 2.050206 1_455
Li22 O41 2.060949 1_555
Li22 O29 2.137717 1_545
Li22 O18 2.141003 1_555
Li22 O44 2.176909 1_545
Li22 O30 2.208393 1_555
Li23 O40 2.028676 1_555
Li23 O29 2.037910 1_555
Li23 O24 2.167240 1_555
Li23 O44 2.169923 1_555
Li23 O17 2.181673 1_555
Li23 O6 2.182321 1_455
Li24 O1 2.081275 1_455
Li24 O28 2.083583 1_555
Li24 O8 2.085654 1_455
Li24 O16 2.087204 1_555
Li24 O2 2.101786 1_455
Li24 O27 2.103489 1_555
Li25 O23 2.044562 1_555
Li25 O30 2.053712 1_555
Li25 O7 2.139048 1_455
Li25 O40 2.139143 1_555
Li25 O24 2.182441 1_555
Li25 O41 2.201877 1_555
Li26 O9 2.059606 1_455
Li26 O4 2.062596 1_455
Li26 O36 2.137011 1_555
Li26 O27 2.145818 1_555
Li26 O37 2.177326 1_565
Li26 O8 2.197100 1_455
Li27 O46 2.060271 1_554
Li27 O0 2.065949 1_455
Li27 O26 2.118135 1_554
Li27 O21 2.131374 1_545
Li27 O22 2.188806 1_555
Li27 O47 2.213866 1_544
Li28 O6 2.064639 1_455
Li28 O14 2.077911 1_455
Li28 O24 2.083727 1_555
Li28 O34 2.084618 1_555
Li28 O35 2.108034 1_555
Li28 O7 2.127929 1_455
Li29 O36 2.023142 1_555
Li29 O5 2.033674 1_455
Li29 O8 2.172616 1_455
Li29 O33 2.173515 1_555
Li29 O28 2.175932 1_555
Li29 O12 2.177437 1_455
Li30 O15 2.051991 1_455
Li30 O10 2.058213 1_455
Li30 O42 2.133647 1_555
Li30 O34 2.147161 1_555
Li30 O14 2.191691 1_455
Li30 O43 2.203268 1_565
Li31 O11 2.027124 1_555
Li31 O42 2.037586 1_655
Li31 O39 2.166557 1_655
Li31 O19 2.168890 1_555
Li31 O14 2.171262 1_555
Li31 O35 2.189624 1_655
Mn0 O17 1.926000 1_555
Mn0 O44 1.933216 1_655
Mn0 O40 1.937867 1_655
Mn0 O9 1.941464 1_555
Mn0 O36 1.946267 1_655
Mn0 O12 1.953987 1_555
Mn1 O44 1.933942 1_645
Mn1 O9 1.937304 1_545
Mn1 O37 1.938556 1_655
Mn1 O41 1.943272 1_655
Mn1 O18 1.945356 1_555
Mn1 O13 1.950223 1_555
Mn2 O15 1.919228 1_555
Mn2 O19 1.935196 1_555
Mn2 O25 1.938317 1_555
Mn2 O47 1.948167 1_655
Mn2 O42 1.949897 1_655
Mn2 O45 1.957026 1_655
Mn3 O8 1.932329 1_555
Mn3 O1 1.935566 1_555
Mn3 O4 1.942151 1_555
Mn3 O16 1.942888 1_555
Mn3 O21 1.951141 1_555
Mn3 O27 1.951227 1_555
Mn4 O16 1.935777 1_555
Mn4 O28 1.935782 1_555
Mn4 O22 1.941286 1_555
Mn4 O8 1.941456 1_555
Mn4 O5 1.946791 1_555
Mn4 O2 1.950742 1_555
Mn5 O6 1.932705 1_555
Mn5 O14 1.935193 1_555
Mn5 O10 1.941573 1_555
Mn5 O24 1.944309 1_555
Mn5 O29 1.947313 1_555
Mn5 O34 1.951862 1_555
Mn6 O30 1.928263 1_555
Mn6 O24 1.932144 1_555
Mn6 O35 1.936147 1_555
Mn6 O14 1.943363 1_555
Mn6 O11 1.944115 1_555
Mn6 O7 1.952625 1_555
Mn7 O33 1.919929 1_555
Mn7 O37 1.934824 1_555
Mn7 O41 1.939865 1_555
Mn7 O13 1.948005 1_555
Mn7 O23 1.949796 1_555
Mn7 O18 1.955192 1_555
Mn8 O31 1.933653 1_555
Mn8 O19 1.939064 1_555
Mn8 O25 1.940042 1_555
Mn8 O39 1.940411 1_555
Mn8 O45 1.945092 1_555
Mn8 O42 1.950111 1_555
Mn9 O46 1.924701 1_555
Mn9 O31 1.931733 1_555
Mn9 O26 1.936270 1_555
Mn9 O39 1.941737 1_555
Mn9 O20 1.949769 1_555
Mn9 O43 1.952926 1_555
Mn10 O4 1.934828 1_455
Mn10 O0 1.935232 1_465
Mn10 O32 1.939557 1_565
Mn10 O1 1.943438 1_455
Mn10 O27 1.949380 1_555
Mn10 O21 1.951817 1_555
Mn11 O32 1.933921 1_555
Mn11 O22 1.935421 1_555
Mn11 O28 1.943362 1_555
Mn11 O0 1.944305 1_455
Mn11 O2 1.949365 1_455
Mn11 O5 1.950484 1_455
Mn12 O3 1.928842 1_465
Mn12 O10 1.935079 1_455
Mn12 O38 1.936240 1_565
Mn12 O6 1.942103 1_455
Mn12 O34 1.950127 1_555
Mn12 O29 1.950805 1_555
Cr0 O47 1.905831 1_645
Cr0 O43 1.912106 1_655
Cr0 O20 1.948951 1_555
Cr0 O46 1.953900 1_655
Cr0 O15 1.986335 1_545
Cr0 O26 1.995974 1_555
Cr1 O12 1.906606 1_555
Cr1 O23 1.908478 1_555
Cr1 O36 1.958551 1_555
Cr1 O17 1.965681 1_555
Cr1 O33 1.991071 1_555
Cr1 O40 1.997660 1_555
Cr2 O35 1.912932 1_555
Cr2 O7 1.920230 1_455
Cr2 O38 1.957653 1_555
Cr2 O3 1.959283 1_455
Cr2 O30 1.972910 1_555
Cr2 O11 1.976127 1_455
