# generated using pymatgen
data_Li3CuF6
_symmetry_space_group_name_H-M   'P 1'
_cell_length_a   5.20453800
_cell_length_b   5.03640800
_cell_length_c   9.04445746
_cell_angle_alpha   56.66271300
_cell_angle_beta   90.00000000
_cell_angle_gamma   90.00000000
_symmetry_Int_Tables_number   1
_chemical_formula_structural   Li3CuF6
_chemical_formula_sum   'Li6 Cu2 F12'
_cell_volume   198.06421457
_cell_formula_units_Z   2
loop_
 _symmetry_equiv_pos_site_id
 _symmetry_equiv_pos_as_xyz
  1  'x, y, z'
loop_
 _atom_site_type_symbol
 _atom_site_label
 _atom_site_symmetry_multiplicity
 _atom_site_fract_x
 _atom_site_fract_y
 _atom_site_fract_z
 _atom_site_occupancy
  Li  Li0  1  0.95357900  0.26583500  0.24259800  1
  Li  Li1  1  0.50000000  0.50000000  0.00000000  1
  Li  Li2  1  0.04642100  0.73416500  0.75740200  1
  Li  Li3  1  0.54642100  0.26583500  0.74259800  1
  Li  Li4  1  0.00000000  0.50000000  0.50000000  1
  Li  Li5  1  0.45357900  0.73416500  0.25740200  1
  Cu  Cu0  1  0.50000000  0.00000000  0.50000000  1
  Cu  Cu1  1  0.00000000  0.00000000  0.00000000  1
  F  F0  1  0.17900700  0.61895100  0.06264200  1
  F  F1  1  0.19054100  0.24987300  0.42085200  1
  F  F2  1  0.42645000  0.90196200  0.73583100  1
  F  F3  1  0.57355000  0.09803800  0.26416900  1
  F  F4  1  0.80945900  0.75012700  0.57914800  1
  F  F5  1  0.82099300  0.38104900  0.93735800  1
  F  F6  1  0.32099300  0.61895100  0.56264200  1
  F  F7  1  0.30945900  0.24987300  0.92085200  1
  F  F8  1  0.07355000  0.90196200  0.23583100  1
  F  F9  1  0.92645000  0.09803800  0.76416900  1
  F  F10  1  0.69054100  0.75012700  0.07914800  1
  F  F11  1  0.67900700  0.38104900  0.43735800  1
loop_
_geom_bond_atom_site_label_1
_geom_bond_atom_site_label_2
_geom_bond_distance
_geom_bond_site_symmetry_2
Cu0 F11 1.917522 1_555
Cu0 F6 1.917522 1_545
Cu0 F4 1.923537 1_545
Cu0 F1 1.923537 1_555
Cu0 F2 1.944810 1_545
Cu0 F3 1.944810 1_555
Cu1 F5 1.917522 1_454
Cu1 F0 1.917522 1_545
Cu1 F7 1.923537 1_554
Cu1 F10 1.923537 1_445
Cu1 F8 1.944810 1_545
Cu1 F9 1.944810 1_454
F0 Li1 1.960596 1_555
F0 Li0 2.001725 1_455
F1 Li0 1.996047 1_455
F1 Li4 2.018415 1_555
F1 Li5 2.458765 1_555
F2 Li3 1.968595 1_565
F2 Li2 2.117314 1_555
F2 Li1 2.153383 1_556
F3 Li5 1.968595 1_545
F3 Li0 2.117314 1_555
F3 Li1 2.153383 1_555
F4 Li2 1.996047 1_655
F4 Li4 2.018415 1_655
F4 Li3 2.458765 1_555
F5 Li1 1.960596 1_556
F5 Li2 2.001725 1_655
F6 Li4 1.960596 1_555
F6 Li3 2.001725 1_555
F7 Li3 1.996047 1_555
F7 Li1 2.018415 1_556
F7 Li2 2.458765 1_555
F8 Li0 1.968595 1_465
F8 Li5 2.117314 1_555
F8 Li4 2.153383 1_555
F9 Li2 1.968595 1_645
F9 Li3 2.117314 1_555
F9 Li4 2.153383 1_655
F10 Li5 1.996047 1_555
F10 Li1 2.018415 1_555
F10 Li0 2.458765 1_555
F11 Li4 1.960596 1_655
F11 Li5 2.001725 1_555
