# generated using pymatgen
data_Li3NiO2F
_symmetry_space_group_name_H-M   'P 1'
_cell_length_a   3.61602300
_cell_length_b   8.56910800
_cell_length_c   9.52206600
_cell_angle_alpha   90.00000000
_cell_angle_beta   90.00000000
_cell_angle_gamma   90.00000000
_symmetry_Int_Tables_number   1
_chemical_formula_structural   Li3NiO2F
_chemical_formula_sum   'Li12 Ni4 O8 F4'
_cell_volume   295.05160946
_cell_formula_units_Z   4
loop_
 _symmetry_equiv_pos_site_id
 _symmetry_equiv_pos_as_xyz
  1  'x, y, z'
loop_
 _atom_site_type_symbol
 _atom_site_label
 _atom_site_symmetry_multiplicity
 _atom_site_fract_x
 _atom_site_fract_y
 _atom_site_fract_z
 _atom_site_occupancy
  Li  Li0  1  0.00000000  0.09937900  0.83844900  1
  Li  Li1  1  0.50000000  0.14487300  0.07828600  1
  Li  Li2  1  0.50000000  0.15683900  0.67068800  1
  Li  Li3  1  0.00000000  0.34316100  0.17068800  1
  Li  Li4  1  0.00000000  0.35512700  0.57828600  1
  Li  Li5  1  0.50000000  0.40062100  0.33844900  1
  Li  Li6  1  0.50000000  0.59937900  0.66155100  1
  Li  Li7  1  0.00000000  0.64487300  0.42171400  1
  Li  Li8  1  0.00000000  0.65683900  0.82931200  1
  Li  Li9  1  0.50000000  0.84316100  0.32931200  1
  Li  Li10  1  0.50000000  0.85512700  0.92171400  1
  Li  Li11  1  0.00000000  0.90062100  0.16155100  1
  Ni  Ni0  1  0.00000000  0.11926600  0.39785200  1
  Ni  Ni1  1  0.50000000  0.38073400  0.89785200  1
  Ni  Ni2  1  0.50000000  0.61926600  0.10214800  1
  Ni  Ni3  1  0.00000000  0.88073400  0.60214800  1
  O  O0  1  0.00000000  0.10224600  0.61213400  1
  O  O1  1  0.50000000  0.16332500  0.87841400  1
  O  O2  1  0.00000000  0.33667500  0.37841400  1
  O  O3  1  0.50000000  0.39775400  0.11213400  1
  O  O4  1  0.50000000  0.60224600  0.88786600  1
  O  O5  1  0.00000000  0.66332500  0.62158600  1
  O  O6  1  0.50000000  0.83667500  0.12158600  1
  O  O7  1  0.00000000  0.89775400  0.38786600  1
  F  F0  1  0.00000000  0.11933000  0.15331000  1
  F  F1  1  0.50000000  0.38067000  0.65331000  1
  F  F2  1  0.50000000  0.61933000  0.34669000  1
  F  F3  1  0.00000000  0.88067000  0.84669000  1
loop_
_geom_bond_atom_site_label_1
_geom_bond_atom_site_label_2
_geom_bond_distance
_geom_bond_site_symmetry_2
Li0 O1 1.927170 1_455
Li0 O1 1.927170 1_555
Li0 O0 2.155126 1_555
Li1 O1 1.909751 1_554
Li1 O3 2.190802 1_555
Li2 O0 1.949006 1_655
Li2 O0 1.949006 1_555
Li2 O1 1.978761 1_555
Li3 O3 1.949006 1_455
Li3 O3 1.949006 1_555
Li3 O2 1.978761 1_555
Li4 O2 1.909751 1_555
Li4 O0 2.190802 1_555
Li5 O2 1.927170 1_555
Li5 O2 1.927170 1_655
Li5 O3 2.155126 1_555
Li6 O5 1.927170 1_655
Li6 O5 1.927170 1_555
Li6 O4 2.155126 1_555
Li7 O5 1.909751 1_555
Li7 O7 2.190802 1_555
Li8 O4 1.949006 1_555
Li8 O4 1.949006 1_455
Li8 O5 1.978761 1_555
Li9 O7 1.949006 1_555
Li9 O7 1.949006 1_655
Li9 O6 1.978761 1_555
Li10 O6 1.909751 1_556
Li10 O4 2.190802 1_555
Li11 O6 1.927170 1_455
Li11 O6 1.927170 1_555
Li11 O7 2.155126 1_555
Ni0 O2 1.872173 1_555
Ni0 O7 1.900540 1_545
Ni0 O0 2.045613 1_555
Ni1 O1 1.872173 1_555
Ni1 O4 1.900540 1_555
Ni1 O3 2.045613 1_556
Ni2 O6 1.872173 1_555
Ni2 O3 1.900540 1_555
Ni2 O4 2.045613 1_554
Ni3 O5 1.872173 1_555
Ni3 O0 1.900540 1_565
Ni3 O7 2.045613 1_555
F0 Li11 1.875783 1_545
F0 Li3 1.925157 1_555
F0 Li1 1.956312 1_455
F0 Li1 1.956312 1_555
F0 Ni0 2.328545 1_555
F1 Li6 1.875783 1_555
F1 Li2 1.925157 1_555
F1 Li4 1.956312 1_555
F1 Li4 1.956312 1_655
F1 Ni1 2.328545 1_555
F2 Li5 1.875783 1_555
F2 Li9 1.925157 1_555
F2 Li7 1.956312 1_555
F2 Li7 1.956312 1_655
F2 Ni2 2.328545 1_555
F3 Li0 1.875783 1_565
F3 Li8 1.925157 1_555
F3 Li10 1.956312 1_455
F3 Li10 1.956312 1_555
F3 Ni3 2.328545 1_555
