# generated using pymatgen
data_Co3(OF2)2
_symmetry_space_group_name_H-M   'P 1'
_cell_length_a   4.69998400
_cell_length_b   5.65732100
_cell_length_c   7.80701948
_cell_angle_alpha   87.17919901
_cell_angle_beta   90.00000000
_cell_angle_gamma   90.00000000
_symmetry_Int_Tables_number   1
_chemical_formula_structural   Co3(OF2)2
_chemical_formula_sum   'Co6 O4 F8'
_cell_volume   207.33180389
_cell_formula_units_Z   2
loop_
 _symmetry_equiv_pos_site_id
 _symmetry_equiv_pos_as_xyz
  1  'x, y, z'
loop_
 _atom_site_type_symbol
 _atom_site_label
 _atom_site_symmetry_multiplicity
 _atom_site_fract_x
 _atom_site_fract_y
 _atom_site_fract_z
 _atom_site_occupancy
  Co  Co0  1  0.45750800  0.84665900  0.67587800  1
  Co  Co1  1  0.54249200  0.15334100  0.32412200  1
  Co  Co2  1  0.50000000  0.50000000  0.00000000  1
  Co  Co3  1  0.00000000  0.00000000  0.00000000  1
  Co  Co4  1  0.95750800  0.65334100  0.32412200  1
  Co  Co5  1  0.04249200  0.34665900  0.67587800  1
  O  O0  1  0.79860100  0.96383200  0.23274200  1
  O  O1  1  0.70139900  0.46383200  0.23274200  1
  O  O2  1  0.29860100  0.53616800  0.76725800  1
  O  O3  1  0.20139900  0.03616800  0.76725800  1
  F  F0  1  0.80445200  0.30048900  0.89269900  1
  F  F1  1  0.79672500  0.63639800  0.56831300  1
  F  F2  1  0.69554800  0.80048900  0.89269900  1
  F  F3  1  0.70327500  0.13639800  0.56831300  1
  F  F4  1  0.30445200  0.19951100  0.10730100  1
  F  F5  1  0.29672500  0.86360200  0.43168700  1
  F  F6  1  0.20327500  0.36360200  0.43168700  1
  F  F7  1  0.19554800  0.69951100  0.10730100  1
loop_
_geom_bond_atom_site_label_1
_geom_bond_atom_site_label_2
_geom_bond_distance
_geom_bond_site_symmetry_2
Co0 O3 1.783975 1_565
Co0 O2 2.007204 1_555
Co0 F2 2.035118 1_555
Co0 F5 2.048567 1_555
Co0 F3 2.142610 1_565
Co0 F1 2.181811 1_555
Co1 O0 1.783975 1_545
Co1 O1 2.007204 1_555
Co1 F4 2.035118 1_555
Co1 F3 2.048567 1_555
Co1 F5 2.142610 1_545
Co1 F6 2.181811 1_555
Co2 F7 2.028865 1_555
Co2 F0 2.028865 1_554
Co2 O1 2.050083 1_555
Co2 O2 2.050083 1_554
Co2 F4 2.072715 1_555
Co2 F2 2.072715 1_554
Co3 F4 2.028865 1_555
Co3 F2 2.028865 1_444
Co3 O0 2.050083 1_445
Co3 O3 2.050083 1_554
Co3 F7 2.072715 1_545
Co3 F0 2.072715 1_454
Co4 O1 1.783975 1_555
Co4 O0 2.007204 1_555
Co4 F7 2.035118 1_655
Co4 F1 2.048567 1_555
Co4 F6 2.142610 1_655
Co4 F5 2.181811 1_655
Co5 O2 1.783975 1_555
Co5 O3 2.007204 1_555
Co5 F0 2.035118 1_455
Co5 F6 2.048567 1_555
Co5 F1 2.142610 1_455
Co5 F3 2.181811 1_455
