# generated using pymatgen
data_Li4V3Co3(TeO8)2
_symmetry_space_group_name_H-M   'P 1'
_cell_length_a   5.93426904
_cell_length_b   5.93426904
_cell_length_c   10.37017027
_cell_angle_alpha   89.52627455
_cell_angle_beta   89.52627455
_cell_angle_gamma   57.97779660
_symmetry_Int_Tables_number   1
_chemical_formula_structural   Li4V3Co3(TeO8)2
_chemical_formula_sum   'Li4 V3 Co3 Te2 O16'
_cell_volume   309.61088609
_cell_formula_units_Z   1
loop_
 _symmetry_equiv_pos_site_id
 _symmetry_equiv_pos_as_xyz
  1  'x, y, z'
loop_
 _atom_site_type_symbol
 _atom_site_label
 _atom_site_symmetry_multiplicity
 _atom_site_fract_x
 _atom_site_fract_y
 _atom_site_fract_z
 _atom_site_occupancy
  Li  Li0  1  0.33759600  0.33759600  0.90465500  1
  Li  Li1  1  0.00295400  0.00295400  0.99290800  1
  Li  Li2  1  0.00690600  0.00690600  0.48665000  1
  Li  Li3  1  0.66045400  0.66045400  0.40318600  1
  V  V0  1  0.18061200  0.18061200  0.23423100  1
  V  V1  1  0.83874600  0.36147800  0.72156100  1
  V  V2  1  0.36147800  0.83874600  0.72156100  1
  Co  Co0  1  0.63644100  0.18707200  0.21546100  1
  Co  Co1  1  0.18707200  0.63644100  0.21546100  1
  Co  Co2  1  0.82400000  0.82400000  0.70768000  1
  Te  Te0  1  0.34844000  0.34844000  0.49955300  1
  Te  Te1  1  0.67228600  0.67228600  0.01601300  1
  O  O0  1  0.68047400  0.17058100  0.59696600  1
  O  O1  1  0.48136900  0.48136900  0.35209600  1
  O  O2  1  0.31173700  0.31173700  0.10250200  1
  O  O3  1  0.01402800  0.01402800  0.29757300  1
  O  O4  1  0.00575400  0.00575400  0.80204500  1
  O  O5  1  0.17058100  0.68047400  0.59696600  1
  O  O6  1  0.47257800  0.01580000  0.32937900  1
  O  O7  1  0.01580000  0.47257800  0.32937900  1
  O  O8  1  0.83872800  0.83872800  0.10389400  1
  O  O9  1  0.15071800  0.15071800  0.60987100  1
  O  O10  1  0.98814000  0.48685300  0.81863900  1
  O  O11  1  0.48685300  0.98814000  0.81863900  1
  O  O12  1  0.65339300  0.65339300  0.60041700  1
  O  O13  1  0.83301300  0.33197800  0.10435400  1
  O  O14  1  0.51343500  0.51343500  0.82115600  1
  O  O15  1  0.33197800  0.83301300  0.10435400  1
loop_
_geom_bond_atom_site_label_1
_geom_bond_atom_site_label_2
_geom_bond_distance
_geom_bond_site_symmetry_2
Li0 O10 1.987535 1_455
Li0 O11 1.987535 1_545
Li0 O14 2.013031 1_555
Li0 O2 2.066678 1_556
Li1 O4 1.979221 1_555
Li1 O15 2.023580 1_546
Li1 O13 2.023580 1_456
Li1 O8 2.048009 1_446
Li2 O3 1.961456 1_555
Li2 O9 1.974317 1_555
Li2 O0 1.997751 1_455
Li2 O5 1.997751 1_545
Li3 O1 1.938011 1_555
Li3 O6 1.941573 1_565
Li3 O7 1.941573 1_655
Li3 O12 2.045940 1_555
Co0 O2 2.035587 1_555
Co0 O1 2.054157 1_555
Co0 O3 2.092192 1_655
Co0 O6 2.093668 1_555
Co0 O8 2.106599 1_545
Co0 O13 2.110196 1_555
Co1 O2 2.035587 1_555
Co1 O1 2.054157 1_555
Co1 O3 2.092192 1_565
Co1 O7 2.093668 1_555
Co1 O8 2.106599 1_455
Co1 O15 2.110196 1_555
Co2 O10 2.046815 1_555
Co2 O11 2.046815 1_555
Co2 O0 2.095963 1_565
Co2 O5 2.095963 1_655
Co2 O12 2.100375 1_555
Co2 O4 2.133750 1_665
O0 Te0 1.956192 1_555
O0 V1 2.237753 1_555
O1 Te0 2.050086 1_555
O2 V0 1.919385 1_555
O3 V0 1.844136 1_555
O4 V2 1.975060 1_545
O4 V1 1.975060 1_455
O5 Te0 1.956192 1_555
O5 V2 2.237753 1_555
O6 V0 1.774064 1_555
O6 Te0 2.459169 1_555
O7 V0 1.774064 1_555
O7 Te0 2.459169 1_555
O8 Te1 1.961135 1_555
O9 V2 1.966255 1_545
O9 V1 1.966255 1_455
O9 Te0 2.340473 1_555
O10 V1 1.754887 1_555
O10 Te1 2.588435 1_556
O11 V2 1.754887 1_555
O11 Te1 2.588435 1_556
O12 V2 1.937821 1_555
O12 V1 1.937821 1_555
O13 Te1 1.941248 1_555
O13 V0 2.221881 1_655
O14 V1 1.934666 1_555
O14 V2 1.934666 1_555
O14 Te1 2.620274 1_556
O15 Te1 1.941248 1_555
O15 V0 2.221881 1_565
