# generated using pymatgen
data_GdErO3
_symmetry_space_group_name_H-M   'P 1'
_cell_length_a   9.20397404
_cell_length_b   9.20519626
_cell_length_c   10.62369703
_cell_angle_alpha   54.72360345
_cell_angle_beta   54.73550363
_cell_angle_gamma   70.51267689
_symmetry_Int_Tables_number   1
_chemical_formula_structural   GdErO3
_chemical_formula_sum   'Gd8 Er8 O24'
_cell_volume   599.96774346
_cell_formula_units_Z   8
loop_
 _symmetry_equiv_pos_site_id
 _symmetry_equiv_pos_as_xyz
  1  'x, y, z'
loop_
 _atom_site_type_symbol
 _atom_site_label
 _atom_site_symmetry_multiplicity
 _atom_site_fract_x
 _atom_site_fract_y
 _atom_site_fract_z
 _atom_site_occupancy
  Gd  Gd0  1  0.50148885  0.50142895  0.74917606  1
  Gd  Gd1  1  0.52993538  0.03095390  0.97008666  1
  Gd  Gd2  1  0.96923566  0.47019865  0.02977395  1
  Gd  Gd3  1  0.27996870  0.72005301  0.49997759  1
  Gd  Gd4  1  0.78127275  0.21817059  0.50012166  1
  Gd  Gd5  1  0.99624763  0.99813983  0.24980083  1
  Gd  Gd6  1  0.49851446  0.49835609  0.25097773  1
  Gd  Gd7  1  0.00196318  0.00379352  0.75011862  1
  Er  Er0  1  0.24819888  0.24876617  0.78166077  1
  Er  Er1  1  0.25092791  0.25176853  0.28192406  1
  Er  Er2  1  0.75135718  0.75182204  0.21826721  1
  Er  Er3  1  0.21884940  0.78113167  -0.00001602  1
  Er  Er4  1  0.71722271  0.28274055  0.00000569  1
  Er  Er5  1  0.03065877  0.53144320  0.46850373  1
  Er  Er6  1  0.46830660  0.96931506  0.53163355  1
  Er  Er7  1  0.74824509  0.74878544  0.71817236  1
  O  O0  1  0.73022601  0.47557324  0.29090042  1
  O  O1  1  0.52428727  0.27005650  0.70932881  1
  O  O2  1  0.77453968  0.48633489  0.71960407  1
  O  O3  1  0.26836085  0.98599933  0.01979016  1
  O  O4  1  0.99137409  0.27499259  0.51896431  1
  O  O5  1  0.49142101  0.76873629  0.22076421  1
  O  O6  1  0.77017633  0.03040513  0.99617008  1
  O  O7  1  0.96956483  0.23006400  0.00361405  1
  O  O8  1  0.04777587  0.23825200  0.23755841  1
  O  O9  1  0.25248906  0.45296324  0.52556102  1
  O  O10  1  0.54712411  0.74770595  0.47432350  1
  O  O11  1  0.76221199  0.95279620  0.76171354  1
  O  O12  1  0.95814007  0.75300411  0.26284202  1
  O  O13  1  0.45811705  0.26203000  0.02414793  1
  O  O14  1  0.24677613  0.04189252  0.73719135  1
  O  O15  1  0.73779113  0.54202687  0.97593381  1
  O  O16  1  0.23169763  0.97564414  0.50618060  1
  O  O17  1  0.02434831  0.76801490  0.49403938  1
  O  O18  1  0.01391793  0.73190486  0.98000073  1
  O  O19  1  0.51376717  0.22537748  0.28041601  1
  O  O20  1  0.72466868  0.00852028  0.48143618  1
  O  O21  1  0.23119770  0.50864460  0.77919009  1
  O  O22  1  0.26840503  0.53065223  0.20703103  1
  O  O23  1  0.46925191  0.73151943  0.79311184  1
loop_
_geom_bond_atom_site_label_1
_geom_bond_atom_site_label_2
_geom_bond_distance
_geom_bond_site_symmetry_2
Gd0 O21 2.300706 1_555
Gd0 O2 2.310778 1_555
Gd0 O13 2.313873 1_556
Gd0 O23 2.314006 1_555
Gd0 O1 2.323801 1_555
Gd0 O10 2.327045 1_555
Gd1 O5 2.258351 1_546
Gd1 O3 2.278297 1_546
Gd1 O13 2.307800 1_556
Gd1 O11 2.310232 1_545
Gd1 O1 2.359776 1_555
Gd1 O6 2.380028 1_555
Gd2 O21 2.257215 1_654
Gd2 O18 2.278344 1_654
Gd2 O8 2.307161 1_655
Gd2 O15 2.309223 1_554
Gd2 O0 2.361505 1_555
Gd2 O7 2.380679 1_555
Gd3 O21 2.272707 1_555
Gd3 O5 2.273272 1_555
Gd3 O17 2.276047 1_555
Gd3 O16 2.277081 1_555
Gd3 O9 2.397144 1_555
Gd3 O10 2.397681 1_555
Gd4 O0 2.270551 1_555
Gd4 O1 2.272571 1_555
Gd4 O20 2.295205 1_555
Gd4 O4 2.301280 1_555
Gd4 O11 2.367073 1_545
Gd4 O8 2.374433 1_655
Gd5 O3 2.306093 1_655
Gd5 O20 2.307026 1_565
Gd5 O12 2.311915 1_555
Gd5 O17 2.312466 1_655
Gd5 O7 2.324011 1_565
Gd5 O8 2.328800 1_665
Gd6 O5 2.301078 1_555
Gd6 O19 2.310717 1_555
Gd6 O15 2.313661 1_554
Gd6 O22 2.313723 1_555
Gd6 O9 2.325422 1_555
Gd6 O0 2.327109 1_555
Gd7 O4 2.303310 1_455
Gd7 O18 2.303686 1_545
Gd7 O14 2.309391 1_555
Gd7 O16 2.310144 1_545
Gd7 O6 2.322881 1_455
Gd7 O11 2.327101 1_445
Er0 O14 2.216458 1_555
Er0 O9 2.226112 1_555
Er0 O1 2.233765 1_555
Er0 O7 2.238212 1_456
Er0 O21 2.330324 1_555
Er0 O3 2.336621 1_546
Er1 O13 2.221759 1_555
Er1 O8 2.230334 1_555
Er1 O16 2.233093 1_545
Er1 O22 2.240051 1_555
Er1 O4 2.329962 1_455
Er1 O19 2.340784 1_555
Er2 O12 2.215197 1_555
Er2 O10 2.226820 1_555
Er2 O0 2.233823 1_555
Er2 O6 2.238086 1_564
Er2 O5 2.330600 1_555
Er2 O18 2.336222 1_654
Er3 O3 2.225037 1_555
Er3 O18 2.225275 1_554
Er3 O23 2.226794 1_554
Er3 O22 2.227427 1_555
Er3 O14 2.337676 1_564
Er3 O12 2.337741 1_455
Er4 O7 2.227280 1_555
Er4 O6 2.228375 1_554
Er4 O2 2.249693 1_554
Er4 O19 2.249713 1_555
Er4 O13 2.308677 1_555
Er4 O15 2.310523 1_554
Er5 O4 2.207912 1_455
Er5 O2 2.226640 1_455
Er5 O9 2.235422 1_555
Er5 O12 2.237753 1_455
Er5 O17 2.323592 1_555
Er5 O22 2.344884 1_555
Er6 O20 2.207938 1_565
Er6 O19 2.226269 1_565
Er6 O10 2.235081 1_555
Er6 O14 2.237729 1_565
Er6 O16 2.322972 1_555
Er6 O23 2.345200 1_555
Er7 O15 2.220001 1_555
Er7 O17 2.232749 1_655
Er7 O11 2.233904 1_555
Er7 O23 2.240190 1_555
Er7 O20 2.329675 1_565
Er7 O2 2.338188 1_555
