# generated using pymatgen
data_Li9Co9O17
_symmetry_space_group_name_H-M   'P 1'
_cell_length_a   6.62518100
_cell_length_b   7.73918310
_cell_length_c   7.80666739
_cell_angle_alpha   115.02251420
_cell_angle_beta   85.68003913
_cell_angle_gamma   114.79027525
_symmetry_Int_Tables_number   1
_chemical_formula_structural   Li9Co9O17
_chemical_formula_sum   'Li9 Co9 O17'
_cell_volume   326.73980695
_cell_formula_units_Z   1
loop_
 _symmetry_equiv_pos_site_id
 _symmetry_equiv_pos_as_xyz
  1  'x, y, z'
loop_
 _atom_site_type_symbol
 _atom_site_label
 _atom_site_symmetry_multiplicity
 _atom_site_fract_x
 _atom_site_fract_y
 _atom_site_fract_z
 _atom_site_occupancy
  Li  Li0  1  0.55600800  0.72104500  0.05578500  1
  Li  Li1  1  0.08025200  0.93389200  0.59892300  1
  Li  Li2  1  0.66739400  0.16932100  0.16660600  1
  Li  Li3  1  0.22852500  0.38947400  0.72469100  1
  Li  Li4  1  0.77835900  0.61370500  0.27671600  1
  Li  Li5  1  0.32699200  0.81201800  0.84351700  1
  Li  Li6  1  0.88436100  0.05430600  0.38609800  1
  Li  Li7  1  0.45261600  0.29946800  0.96386600  1
  Li  Li8  1  0.00186100  0.50243600  0.49877600  1
  Co  Co0  1  0.99957900  0.00096300  0.99940500  1
  Co  Co1  1  0.56064200  0.22905400  0.54959400  1
  Co  Co2  1  0.11178000  0.44349800  0.11233500  1
  Co  Co3  1  0.66272900  0.66486400  0.66329300  1
  Co  Co4  1  0.21978500  0.88935400  0.22127700  1
  Co  Co5  1  0.79630400  0.11230900  0.77912600  1
  Co  Co6  1  0.33342500  0.34116600  0.33770500  1
  Co  Co7  1  0.88828200  0.55384300  0.88716900  1
  Co  Co8  1  0.44655100  0.77174600  0.43779600  1
  O  O0  1  0.56243000  0.45094200  0.78608800  1
  O  O1  1  0.12326500  0.70554500  0.35313000  1
  O  O2  1  0.67007000  0.90541900  0.90423900  1
  O  O3  1  0.99110400  0.74440800  0.75831100  1
  O  O4  1  0.25091200  0.14974400  0.47367700  1
  O  O5  1  0.54448100  0.98886400  0.33164700  1
  O  O6  1  0.79301600  0.36577400  0.01945600  1
  O  O7  1  0.11754400  0.19078100  0.87232300  1
  O  O8  1  0.34027400  0.59014700  0.58154400  1
  O  O9  1  0.66021800  0.43443000  0.42421200  1
  O  O10  1  0.89756200  0.80735000  0.12780800  1
  O  O11  1  0.21123600  0.63494700  0.98012100  1
  O  O12  1  0.76381400  0.86452100  0.53582400  1
  O  O13  1  0.00933000  0.24869600  0.24353100  1
  O  O14  1  0.32522200  0.07725700  0.09122100  1
  O  O15  1  0.85401200  0.29308700  0.63879900  1
  O  O16  1  0.42712800  0.51669200  0.19366200  1
loop_
_geom_bond_atom_site_label_1
_geom_bond_atom_site_label_2
_geom_bond_distance
_geom_bond_site_symmetry_2
Li0 O2 2.096640 1_554
Li0 O10 2.118794 1_555
Li0 O16 2.134947 1_555
Li0 O11 2.145768 1_554
Li0 O0 2.267660 1_554
Li0 O5 2.296010 1_555
Li1 O12 1.978386 1_455
Li1 O1 2.087463 1_555
Li1 O7 2.155679 1_565
Li1 O4 2.157841 1_565
Li1 O3 2.180396 1_455
Li2 O14 2.117743 1_555
Li2 O13 2.143793 1_655
Li2 O6 2.143873 1_555
Li2 O5 2.164262 1_545
Li2 O9 2.198422 1_555
Li2 O2 2.202933 1_544
Li3 O4 2.101324 1_555
Li3 O0 2.105737 1_555
Li3 O11 2.131173 1_555
Li3 O8 2.142006 1_555
Li3 O7 2.157988 1_555
Li3 O15 2.331924 1_455
Li4 O9 2.041684 1_555
Li4 O10 2.136339 1_555
Li4 O1 2.137110 1_655
Li4 O6 2.142789 1_555
Li4 O12 2.162115 1_555
Li4 O16 2.179280 1_555
Li5 O11 1.958340 1_555
Li5 O8 2.065825 1_555
Li5 O2 2.099566 1_555
Li5 O14 2.147562 1_566
Li5 O3 2.149512 1_455
Li6 O13 2.102513 1_655
Li6 O12 2.118815 1_545
Li6 O5 2.124467 1_545
Li6 O15 2.124860 1_555
Li6 O10 2.140043 1_545
Li6 O4 2.286744 1_655
Li7 O16 1.927205 1_556
Li7 O7 2.076260 1_555
Li7 O0 2.082952 1_555
Li7 O6 2.127489 1_556
Li7 O14 2.181989 1_556
Li8 O8 2.115653 1_555
Li8 O3 2.120732 1_455
Li8 O13 2.141422 1_555
Li8 O9 2.163181 1_455
Li8 O1 2.173591 1_555
Li8 O15 2.187562 1_455
Co0 O7 1.976460 1_655
Co0 O10 2.006516 1_546
Co0 O13 2.033665 1_656
Co0 O3 2.061312 1_545
Co0 O2 2.071323 1_545
Co0 O14 2.079339 1_656
Co1 O5 1.883290 1_545
Co1 O15 1.900653 1_555
Co1 O0 1.913590 1_555
Co1 O4 1.938562 1_555
Co1 O9 2.063763 1_555
Co2 O16 1.998003 1_555
Co2 O11 2.016768 1_554
Co2 O13 2.031243 1_555
Co2 O6 2.035679 1_455
Co2 O7 2.071041 1_554
Co2 O1 2.078340 1_555
Co3 O9 1.956596 1_555
Co3 O2 1.995465 1_555
Co3 O12 2.039336 1_555
Co3 O8 2.040295 1_555
Co3 O3 2.096640 1_555
Co3 O0 2.103690 1_555
Co4 O1 1.966907 1_555
Co4 O14 1.980870 1_565
Co4 O10 2.049216 1_455
Co4 O11 2.052054 1_554
Co4 O5 2.071627 1_555
Co4 O4 2.083199 1_565
Co5 O12 1.991384 1_545
Co5 O15 2.022020 1_555
Co5 O7 2.050195 1_655
Co5 O6 2.069961 1_556
Co5 O2 2.072214 1_545
Co6 O16 1.993758 1_555
Co6 O9 2.040093 1_555
Co6 O13 2.041370 1_555
Co6 O8 2.043370 1_555
Co6 O4 2.045488 1_555
Co6 O14 2.115452 1_555
Co7 O3 1.990069 1_555
Co7 O6 1.996584 1_556
Co7 O10 2.044610 1_556
Co7 O0 2.049568 1_555
Co7 O11 2.054487 1_655
Co7 O15 2.062895 1_555
Co8 O12 2.007777 1_555
Co8 O5 2.028249 1_555
Co8 O8 2.028699 1_555
Co8 O16 2.046141 1_555
Co8 O1 2.072043 1_555
