# generated using pymatgen
data_Li3Ti2(PO4)3
_symmetry_space_group_name_H-M   'P 1'
_cell_length_a   8.46860827
_cell_length_b   8.46860827
_cell_length_c   8.69363824
_cell_angle_alpha   62.52043623
_cell_angle_beta   62.52043623
_cell_angle_gamma   63.65983835
_symmetry_Int_Tables_number   1
_chemical_formula_structural   Li3Ti2(PO4)3
_chemical_formula_sum   'Li6 Ti4 P6 O24'
_cell_volume   469.16373568
_cell_formula_units_Z   2
loop_
 _symmetry_equiv_pos_site_id
 _symmetry_equiv_pos_as_xyz
  1  'x, y, z'
loop_
 _atom_site_type_symbol
 _atom_site_label
 _atom_site_symmetry_multiplicity
 _atom_site_fract_x
 _atom_site_fract_y
 _atom_site_fract_z
 _atom_site_occupancy
  Li  Li0  1  0.86887000  0.74193600  0.66087500  1
  Li  Li1  1  0.74193600  0.86887000  0.16087500  1
  Li  Li2  1  0.50000000  0.00000000  0.50000000  1
  Li  Li3  1  0.25806400  0.13113000  0.83912500  1
  Li  Li4  1  0.00000000  0.50000000  0.00000000  1
  Li  Li5  1  0.13113000  0.25806400  0.33912500  1
  Ti  Ti0  1  0.85475100  0.35984000  0.85408500  1
  Ti  Ti1  1  0.35984000  0.85475100  0.35408500  1
  Ti  Ti2  1  0.64016000  0.14524900  0.64591500  1
  Ti  Ti3  1  0.14524900  0.64016000  0.14591500  1
  P  P0  1  0.55251200  0.74910100  0.96101000  1
  P  P1  1  0.94900500  0.05099500  0.25000000  1
  P  P2  1  0.74910100  0.55251200  0.46101000  1
  P  P3  1  0.25089900  0.44748800  0.53899000  1
  P  P4  1  0.05099500  0.94900500  0.75000000  1
  P  P5  1  0.44748800  0.25089900  0.03899000  1
  O  O0  1  0.97982800  0.88638700  0.19491000  1
  O  O1  1  0.88638700  0.97982800  0.69491000  1
  O  O2  1  0.54743500  0.91094000  0.77414500  1
  O  O3  1  0.74791100  0.60503300  0.91933900  1
  O  O4  1  0.53625600  0.81301600  0.10840600  1
  O  O5  1  0.38960500  0.67698500  0.02139300  1
  O  O6  1  0.94130700  0.23518900  0.08517400  1
  O  O7  1  0.91094000  0.54743500  0.27414500  1
  O  O8  1  0.60503300  0.74791100  0.41933900  1
  O  O9  1  0.81301600  0.53625600  0.60840600  1
  O  O10  1  0.76481100  0.05869300  0.41482600  1
  O  O11  1  0.67698500  0.38960500  0.52139300  1
  O  O12  1  0.32301500  0.61039500  0.47860700  1
  O  O13  1  0.23518900  0.94130700  0.58517400  1
  O  O14  1  0.18698400  0.46374400  0.39159400  1
  O  O15  1  0.39496700  0.25208900  0.58066100  1
  O  O16  1  0.08906000  0.45256500  0.72585500  1
  O  O17  1  0.05869300  0.76481100  0.91482600  1
  O  O18  1  0.61039500  0.32301500  0.97860700  1
  O  O19  1  0.46374400  0.18698400  0.89159400  1
  O  O20  1  0.25208900  0.39496700  0.08066100  1
  O  O21  1  0.45256500  0.08906000  0.22585500  1
  O  O22  1  0.11361300  0.02017200  0.30509000  1
  O  O23  1  0.02017200  0.11361300  0.80509000  1
loop_
_geom_bond_atom_site_label_1
_geom_bond_atom_site_label_2
_geom_bond_distance
_geom_bond_site_symmetry_2
Li0 O3 1.991980 1_555
Li0 O1 2.241441 1_555
Li0 O9 2.264781 1_555
Li0 O16 2.332607 1_655
Li0 O2 2.407819 1_555
Li0 O10 2.625718 1_565
Li1 O8 1.991980 1_555
Li1 O0 2.241441 1_555
Li1 O4 2.264781 1_555
Li1 O21 2.332607 1_565
Li1 O7 2.407819 1_555
Li1 O17 2.625718 1_654
Li2 O10 2.222958 1_555
Li2 O13 2.222958 1_545
Li2 O8 2.227400 1_545
Li2 O15 2.227400 1_555
Li2 O2 2.316511 1_545
Li2 O21 2.316511 1_555
Li3 O15 1.991980 1_555
Li3 O23 2.241441 1_555
Li3 O19 2.264781 1_555
Li3 O2 2.332607 1_545
Li3 O16 2.407819 1_555
Li3 O6 2.625718 1_456
Li4 O6 2.222958 1_455
Li4 O17 2.222958 1_554
Li4 O3 2.227400 1_454
Li4 O20 2.227400 1_555
Li4 O16 2.316511 1_554
Li4 O7 2.316511 1_455
Li5 O20 1.991980 1_555
Li5 O22 2.241441 1_555
Li5 O14 2.264781 1_555
Li5 O7 2.332607 1_455
Li5 O21 2.407819 1_555
Li5 O13 2.625718 1_545
O0 P1 1.555189 1_565
O0 Ti3 2.041754 1_655
O1 P4 1.555189 1_655
O1 Ti2 2.041754 1_565
O2 P0 1.573778 1_555
O2 Ti2 2.080896 1_565
O3 P0 1.555988 1_555
O3 Ti0 2.097211 1_555
O4 P0 1.537887 1_554
O4 Ti1 2.049890 1_555
O5 P0 1.528166 1_554
O5 Ti3 1.935235 1_555
O6 P1 1.556899 1_555
O6 Ti0 2.098321 1_554
O7 P2 1.573778 1_555
O7 Ti3 2.080896 1_655
O8 P2 1.555988 1_555
O8 Ti1 2.097211 1_555
O9 P2 1.537887 1_555
O9 Ti0 2.049890 1_555
O10 P1 1.556899 1_555
O10 Ti2 2.098321 1_555
O11 P2 1.528166 1_555
O11 Ti2 1.935235 1_555
O12 P3 1.528166 1_555
O12 Ti1 1.935235 1_555
O13 P4 1.556899 1_555
O13 Ti1 2.098321 1_555
O14 P3 1.537887 1_555
O14 Ti3 2.049890 1_555
O15 P3 1.555988 1_555
O15 Ti2 2.097211 1_555
O16 P3 1.573778 1_555
O16 Ti0 2.080896 1_455
O17 P4 1.556899 1_555
O17 Ti3 2.098321 1_556
O18 P5 1.528166 1_556
O18 Ti0 1.935235 1_555
O19 P5 1.537887 1_556
O19 Ti2 2.049890 1_555
O20 P5 1.555988 1_555
O20 Ti3 2.097211 1_555
O21 P5 1.573778 1_555
O21 Ti1 2.080896 1_545
O22 P1 1.555189 1_455
O22 Ti1 2.041754 1_545
O23 P4 1.555189 1_545
O23 Ti0 2.041754 1_455
