# generated using pymatgen
data_NbFeO4
_symmetry_space_group_name_H-M   'P 1'
_cell_length_a   5.53963700
_cell_length_b   5.53937417
_cell_length_c   5.74781684
_cell_angle_alpha   61.19337639
_cell_angle_beta   89.99999942
_cell_angle_gamma   90.00000877
_symmetry_Int_Tables_number   1
_chemical_formula_structural   NbFeO4
_chemical_formula_sum   'Nb2 Fe2 O8'
_cell_volume   154.55157887
_cell_formula_units_Z   2
loop_
 _symmetry_equiv_pos_site_id
 _symmetry_equiv_pos_as_xyz
  1  'x, y, z'
loop_
 _atom_site_type_symbol
 _atom_site_label
 _atom_site_symmetry_multiplicity
 _atom_site_fract_x
 _atom_site_fract_y
 _atom_site_fract_z
 _atom_site_occupancy
  Nb  Nb0  1  0.00000500  0.00000000  0.00000000  1
  Nb  Nb1  1  0.50000200  0.50000000  0.00000000  1
  Fe  Fe0  1  0.75000200  0.50000000  0.49999900  1
  Fe  Fe1  1  0.25000100  0.00000000  0.50000000  1
  O  O0  1  0.25000100  0.20995900  0.08007000  1
  O  O1  1  0.75000100  0.70995300  0.08008100  1
  O  O2  1  0.25000100  0.79004100  0.91993000  1
  O  O3  1  0.75000100  0.29004700  0.91991900  1
  O  O4  1  0.50000100  0.29938300  0.40125700  1
  O  O5  1  0.99999200  0.79937400  0.40125700  1
  O  O6  1  0.99999200  0.20062500  0.59874300  1
  O  O7  1  0.50000100  0.70061700  0.59874200  1
loop_
_geom_bond_atom_site_label_1
_geom_bond_atom_site_label_2
_geom_bond_distance
_geom_bond_site_symmetry_2
Nb0 O0 1.999556 1_555
Nb0 O2 1.999557 1_544
Nb0 O1 1.999654 1_445
Nb0 O3 1.999655 1_454
Nb0 O6 2.020943 1_454
Nb0 O5 2.020943 1_445
Nb1 O1 1.999577 1_555
Nb1 O3 1.999577 1_554
Nb1 O0 1.999630 1_555
Nb1 O2 1.999630 1_554
Nb1 O4 2.020943 1_555
Nb1 O7 2.020948 1_554
Fe0 O4 2.020619 1_555
Fe0 O7 2.020622 1_555
Fe0 O5 2.020644 1_555
Fe0 O6 2.020647 1_555
Fe0 O1 2.114930 1_555
Fe0 O3 2.114940 1_555
Fe1 O6 2.020683 1_455
Fe1 O5 2.020686 1_445
Fe1 O4 2.020715 1_555
Fe1 O7 2.020716 1_545
Fe1 O0 2.114990 1_555
Fe1 O2 2.114990 1_545
