# generated using pymatgen
data_Li3Mn4(P2O7)4
_symmetry_space_group_name_H-M   'P 1'
_cell_length_a   9.65331825
_cell_length_b   9.61094750
_cell_length_c   11.16879723
_cell_angle_alpha   90.09918411
_cell_angle_beta   101.55915566
_cell_angle_gamma   88.63118385
_symmetry_Int_Tables_number   1
_chemical_formula_structural   Li3Mn4(P2O7)4
_chemical_formula_sum   'Li6 Mn8 P16 O56'
_cell_volume   1014.90271231
_cell_formula_units_Z   2
loop_
 _symmetry_equiv_pos_site_id
 _symmetry_equiv_pos_as_xyz
  1  'x, y, z'
loop_
 _atom_site_type_symbol
 _atom_site_label
 _atom_site_symmetry_multiplicity
 _atom_site_fract_x
 _atom_site_fract_y
 _atom_site_fract_z
 _atom_site_occupancy
  Li  Li0  1  0.15287800  0.43961900  0.53130500  1
  Li  Li1  1  0.39612600  0.95877300  0.50083000  1
  Li  Li2  1  0.58079600  0.40524300  0.02189800  1
  Li  Li3  1  0.91248700  0.90413300  0.98087300  1
  Li  Li4  1  0.82171300  0.58882400  0.45072700  1
  Li  Li5  1  0.87877500  0.28353700  0.54540300  1
  Mn  Mn0  1  0.19616500  0.92925600  0.67222400  1
  Mn  Mn1  1  0.27938700  0.22851000  0.84097300  1
  Mn  Mn2  1  0.22279600  0.72823100  0.16008500  1
  Mn  Mn3  1  0.30484800  0.42988100  0.32722500  1
  Mn  Mn4  1  0.69806000  0.57432300  0.67853700  1
  Mn  Mn5  1  0.77340400  0.27434000  0.83954800  1
  Mn  Mn6  1  0.72056800  0.77187800  0.16094200  1
  Mn  Mn7  1  0.80487200  0.06796600  0.32928200  1
  P  P0  1  0.02018400  0.44487700  0.75686400  1
  P  P1  1  0.11554100  0.71922000  0.87527500  1
  P  P2  1  0.07454400  0.92628000  0.24757800  1
  P  P3  1  0.13083100  0.15038800  0.42676700  1
  P  P4  1  0.37651100  0.65061900  0.58168500  1
  P  P5  1  0.42622400  0.42069400  0.75342300  1
  P  P6  1  0.52016400  0.05290900  0.74525400  1
  P  P7  1  0.38301800  0.21559100  0.12344200  1
  P  P8  1  0.60870200  0.78485200  0.88368000  1
  P  P9  1  0.47336100  0.93584400  0.24332600  1
  P  P10  1  0.57019700  0.57301900  0.24040200  1
  P  P11  1  0.62585100  0.34753300  0.41712000  1
  P  P12  1  0.87324000  0.85579900  0.57143300  1
  P  P13  1  0.92727900  0.07136500  0.75651200  1
  P  P14  1  0.88659400  0.27807200  0.11904400  1
  P  P15  1  0.98060900  0.55052800  0.25181700  1
  O  O0  1  0.01050600  0.42079000  0.62177400  1
  O  O1  1  0.03535900  0.84620400  0.57768800  1
  O  O2  1  0.08043300  0.07240300  0.73203700  1
  O  O3  1  0.10261800  0.33506900  0.84307500  1
  O  O4  1  0.10158900  0.58684300  0.78473700  1
  O  O5  1  0.20246000  0.82169100  0.81144400  1
  O  O6  1  0.20807900  0.66639000  0.99717600  1
  O  O7  1  0.02385300  0.23678200  0.09106500  1
  O  O8  1  0.13875400  0.07125600  0.30083000  1
  O  O9  1  0.07850800  0.90818900  0.11274500  1
  O  O10  1  0.13572400  0.54515500  0.22348200  1
  O  O11  1  0.18987700  0.29544500  0.41271400  1
  O  O12  1  0.17711100  0.80837500  0.30936100  1
  O  O13  1  0.21516000  0.05786500  0.52956900  1
  O  O14  1  0.29445900  0.56231500  0.47734500  1
  O  O15  1  0.31726500  0.31364200  0.68813800  1
  O  O16  1  0.31909300  0.79950300  0.59475900  1
  O  O17  1  0.36626100  0.04890600  0.77985000  1
  O  O18  1  0.36064300  0.57114100  0.70532100  1
  O  O19  1  0.41844100  0.39965800  0.88738000  1
  O  O20  1  0.46954400  0.75380000  0.90948900  1
  O  O21  1  0.28759500  0.16721100  0.00197900  1
  O  O22  1  0.29658500  0.32309200  0.18755200  1
  O  O23  1  0.39803100  0.08621700  0.21527200  1
  O  O24  1  0.41786600  0.57760100  0.26572700  1
  O  O25  1  0.38675500  0.83501400  0.15128900  1
  O  O26  1  0.51208700  0.06615800  0.61173900  1
  O  O27  1  0.46830000  0.33952400  0.42015000  1
  O  O28  1  0.53476400  0.65767000  0.57849800  1
  O  O29  1  0.48016100  0.90867500  0.37494700  1
  O  O30  1  0.60501000  0.16051500  0.83044200  1
  O  O31  1  0.57626300  0.41343400  0.72774300  1
  O  O32  1  0.60157800  0.90786600  0.78579500  1
  O  O33  1  0.68593600  0.66658800  0.82266300  1
  O  O34  1  0.72258700  0.83406800  0.99861200  1
  O  O35  1  0.52491400  0.26135800  0.11123500  1
  O  O36  1  0.58629600  0.58218800  0.10891400  1
  O  O37  1  0.64022500  0.42821200  0.29485800  1
  O  O38  1  0.62402300  0.94280300  0.20697200  1
  O  O39  1  0.69470500  0.20506000  0.40694600  1
  O  O40  1  0.67091500  0.68512900  0.30844200  1
  O  O41  1  0.71393700  0.43265900  0.52201700  1
  O  O42  1  0.79445800  0.93677600  0.46007600  1
  O  O43  1  0.84050000  0.20056000  0.69543800  1
  O  O44  1  0.81723700  0.71118000  0.58623000  1
  O  O45  1  0.86544800  0.45872400  0.78606400  1
  O  O46  1  0.90846500  0.07620300  0.88724300  1
  O  O47  1  0.85155800  0.93936800  0.69087200  1
  O  O48  1  0.97138800  0.76966600  0.88267000  1
  O  O49  1  0.77178100  0.33127800  0.00378100  1
  O  O50  1  0.81009500  0.17175000  0.18795800  1
  O  O51  1  0.90064000  0.40971400  0.21073000  1
  O  O52  1  0.89707400  0.66370600  0.16800000  1
  O  O53  1  0.92358800  0.92387200  0.27398500  1
  O  O54  1  0.97506300  0.16749800  0.43625300  1
  O  O55  1  0.98505100  0.56098800  0.38676500  1
loop_
_geom_bond_atom_site_label_1
_geom_bond_atom_site_label_2
_geom_bond_distance
_geom_bond_site_symmetry_2
Li0 O0 1.873936 1_555
Li0 O11 1.990358 1_555
Li0 O14 2.007805 1_555
Li0 O55 2.336563 1_455
Li0 O15 2.419491 1_555
Li1 O29 1.817336 1_555
Li1 O26 1.829683 1_565
Li1 O13 2.050840 1_565
Li1 O16 2.090279 1_555
Li2 O35 1.858774 1_555
Li2 O19 1.943323 1_554
Li2 O36 1.953797 1_555
Li2 O49 2.007904 1_555
Li3 O48 1.845638 1_555
Li3 O9 1.948362 1_656
Li3 O46 1.953618 1_565
Li3 O34 2.014496 1_555
Li4 O55 1.870471 1_555
Li4 O44 1.921654 1_555
Li4 O41 2.092798 1_555
Li4 O40 2.124807 1_555
Li5 O0 1.930361 1_655
Li5 O43 1.961464 1_555
Li5 O54 1.998439 1_555
Li5 O41 2.092868 1_555
Li5 O39 2.253074 1_555
Mn0 O5 1.858739 1_555
Mn0 O1 1.887078 1_555
Mn0 O2 1.951835 1_565
Mn0 O16 2.012182 1_555
Mn0 O13 2.057848 1_565
Mn0 O17 2.181255 1_565
Mn1 O21 1.879197 1_556
Mn1 O3 1.973247 1_555
Mn1 O15 1.996548 1_555
Mn1 O17 2.074889 1_555
Mn1 O19 2.144736 1_555
Mn1 O2 2.571923 1_555
Mn2 O6 1.892275 1_554
Mn2 O25 1.925688 1_555
Mn2 O12 1.959962 1_555
Mn2 O10 2.148791 1_555
Mn2 O9 2.191790 1_555
Mn2 O24 2.453404 1_555
Mn3 O22 1.855203 1_555
Mn3 O27 1.897973 1_555
Mn3 O24 2.013796 1_555
Mn3 O11 2.076128 1_555
Mn3 O10 2.096498 1_555
Mn3 O14 2.120190 1_555
Mn4 O33 1.859250 1_555
Mn4 O28 1.900490 1_555
Mn4 O31 2.103376 1_555
Mn4 O45 2.104461 1_555
Mn4 O44 2.160745 1_555
Mn4 O41 2.241071 1_555
Mn5 O49 1.916230 1_556
Mn5 O30 1.966691 1_555
Mn5 O43 1.976064 1_555
Mn5 O45 2.139690 1_555
Mn5 O46 2.283962 1_555
Mn5 O31 2.428980 1_555
Mn6 O34 1.913944 1_554
Mn6 O52 1.962664 1_555
Mn6 O38 1.986822 1_555
Mn6 O40 1.994764 1_555
Mn6 O36 2.269097 1_555
Mn6 O53 2.589912 1_555
Mn7 O50 1.878464 1_555
Mn7 O42 1.950675 1_545
Mn7 O53 1.953844 1_545
Mn7 O39 1.979458 1_555
Mn7 O54 2.079933 1_555
Mn7 O38 2.345175 1_545
O0 P0 1.510665 1_555
O1 P12 1.553022 1_455
O2 P13 1.556695 1_455
O3 P0 1.526588 1_555
O4 P0 1.589911 1_555
O4 P1 1.615081 1_555
O5 P1 1.569655 1_555
O6 P1 1.550081 1_555
O7 P14 1.466681 1_455
O8 P2 1.603133 1_545
O8 P3 1.612239 1_555
O9 P2 1.523603 1_555
O10 P15 1.590945 1_455
O11 P3 1.538737 1_555
O12 P2 1.554307 1_555
O13 P3 1.538212 1_555
O14 P4 1.537682 1_555
O15 P5 1.561508 1_555
O16 P4 1.539443 1_555
O17 P6 1.609612 1_555
O18 P5 1.613320 1_555
O18 P4 1.614851 1_555
O19 P5 1.527014 1_555
O20 P8 1.466746 1_555
O21 P7 1.556455 1_555
O22 P7 1.572266 1_555
O23 P7 1.598505 1_555
O23 P9 1.604898 1_545
O24 P10 1.551729 1_555
O25 P9 1.544529 1_555
O26 P6 1.483093 1_555
O27 P11 1.531798 1_555
O28 P4 1.538301 1_555
O29 P9 1.481679 1_555
O30 P6 1.539613 1_555
O31 P5 1.531830 1_555
O32 P8 1.602557 1_555
O32 P6 1.604105 1_565
O33 P8 1.572472 1_555
O34 P8 1.592891 1_555
O35 P7 1.480597 1_555
O36 P10 1.510351 1_555
O37 P10 1.599070 1_555
O37 P11 1.603086 1_555
O38 P9 1.589333 1_555
O39 P11 1.521818 1_555
O40 P10 1.560406 1_555
O41 P11 1.547793 1_555
O42 P12 1.525428 1_555
O43 P13 1.559828 1_555
O44 P12 1.524457 1_555
O45 P0 1.594001 1_655
O46 P13 1.507547 1_555
O47 P13 1.583501 1_565
O47 P12 1.602681 1_555
O48 P1 1.480540 1_655
O49 P14 1.597042 1_555
O50 P14 1.564770 1_555
O51 P15 1.594955 1_555
O51 P14 1.617348 1_555
O52 P15 1.539123 1_555
O53 P2 1.544314 1_655
O54 P3 1.533390 1_655
O55 P15 1.502464 1_555
