# generated using pymatgen
data_RbCoO2
_symmetry_space_group_name_H-M   'P 1'
_cell_length_a   5.85490600
_cell_length_b   11.54196500
_cell_length_c   16.51157700
_cell_angle_alpha   90.00000000
_cell_angle_beta   90.00000000
_cell_angle_gamma   90.00000000
_symmetry_Int_Tables_number   1
_chemical_formula_structural   RbCoO2
_chemical_formula_sum   'Rb16 Co16 O32'
_cell_volume   1115.80482247
_cell_formula_units_Z   16
loop_
 _symmetry_equiv_pos_site_id
 _symmetry_equiv_pos_as_xyz
  1  'x, y, z'
loop_
 _atom_site_type_symbol
 _atom_site_label
 _atom_site_symmetry_multiplicity
 _atom_site_fract_x
 _atom_site_fract_y
 _atom_site_fract_z
 _atom_site_occupancy
  Rb  Rb0  1  0.70650800  0.74103600  0.68494000  1
  Rb  Rb1  1  0.73257000  0.99021400  0.56467300  1
  Rb  Rb2  1  0.23257000  0.99021400  0.93532700  1
  Rb  Rb3  1  0.26743000  0.00978600  0.43532700  1
  Rb  Rb4  1  0.29349200  0.24103600  0.81506000  1
  Rb  Rb5  1  0.73257000  0.50978600  0.06467300  1
  Rb  Rb6  1  0.23257000  0.50978600  0.43532700  1
  Rb  Rb7  1  0.29349200  0.25896400  0.31506000  1
  Rb  Rb8  1  0.20650800  0.74103600  0.81506000  1
  Rb  Rb9  1  0.76743000  0.49021400  0.56467300  1
  Rb  Rb10  1  0.20650800  0.75896400  0.31506000  1
  Rb  Rb11  1  0.70650800  0.75896400  0.18494000  1
  Rb  Rb12  1  0.26743000  0.49021400  0.93532700  1
  Rb  Rb13  1  0.76743000  0.00978600  0.06467300  1
  Rb  Rb14  1  0.79349200  0.25896400  0.18494000  1
  Rb  Rb15  1  0.79349200  0.24103600  0.68494000  1
  Co  Co0  1  0.79309100  0.23957900  0.93647400  1
  Co  Co1  1  0.71429500  0.99430200  0.81567700  1
  Co  Co2  1  0.28570500  0.49430200  0.68432300  1
  Co  Co3  1  0.21429500  0.50569800  0.18432300  1
  Co  Co4  1  0.28570500  0.00569800  0.18432300  1
  Co  Co5  1  0.71429500  0.50569800  0.31567700  1
  Co  Co6  1  0.29309100  0.23957900  0.56352600  1
  Co  Co7  1  0.21429500  0.99430200  0.68432300  1
  Co  Co8  1  0.20690900  0.76042100  0.06352600  1
  Co  Co9  1  0.79309100  0.26042100  0.43647400  1
  Co  Co10  1  0.70690900  0.76042100  0.43647400  1
  Co  Co11  1  0.78570500  0.00569800  0.31567700  1
  Co  Co12  1  0.29309100  0.26042100  0.06352600  1
  Co  Co13  1  0.78570500  0.49430200  0.81567700  1
  Co  Co14  1  0.70690900  0.73957900  0.93647400  1
  Co  Co15  1  0.20690900  0.73957900  0.56352600  1
  O  O0  1  0.81529400  0.91457100  0.40505200  1
  O  O1  1  0.21742400  0.66739900  0.15164400  1
  O  O2  1  0.41387500  0.48966300  0.26580900  1
  O  O3  1  0.78257600  0.33260100  0.84835600  1
  O  O4  1  0.28257600  0.16739900  0.15164400  1
  O  O5  1  0.06779800  0.28899600  0.48515000  1
  O  O6  1  0.43220200  0.78899600  0.48515000  1
  O  O7  1  0.31529400  0.58542900  0.59494800  1
  O  O8  1  0.78257600  0.16739900  0.34835600  1
  O  O9  1  0.56779800  0.28899600  0.01485000  1
  O  O10  1  0.43220200  0.71100400  0.98515000  1
  O  O11  1  0.81529400  0.58542900  0.90505200  1
  O  O12  1  0.21742400  0.83260100  0.65164400  1
  O  O13  1  0.68470600  0.41457100  0.40505200  1
  O  O14  1  0.56779800  0.21100400  0.51485000  1
  O  O15  1  0.18470600  0.41457100  0.09494800  1
  O  O16  1  0.58612500  0.98966300  0.23419100  1
  O  O17  1  0.06779800  0.21100400  0.98515000  1
  O  O18  1  0.58612500  0.51033700  0.73419100  1
  O  O19  1  0.93220200  0.71100400  0.51485000  1
  O  O20  1  0.91387500  0.01033700  0.73419100  1
  O  O21  1  0.18470600  0.08542900  0.59494800  1
  O  O22  1  0.31529400  0.91457100  0.09494800  1
  O  O23  1  0.08612500  0.98966300  0.26580900  1
  O  O24  1  0.28257600  0.33260100  0.65164400  1
  O  O25  1  0.41387500  0.01033700  0.76580900  1
  O  O26  1  0.93220200  0.78899600  0.01485000  1
  O  O27  1  0.91387500  0.48966300  0.23419100  1
  O  O28  1  0.71742400  0.83260100  0.84835600  1
  O  O29  1  0.08612500  0.51033700  0.76580900  1
  O  O30  1  0.68470600  0.08542900  0.90505200  1
  O  O31  1  0.71742400  0.66739900  0.34835600  1
loop_
_geom_bond_atom_site_label_1
_geom_bond_atom_site_label_2
_geom_bond_distance
_geom_bond_site_symmetry_2
Co0 O3 1.809270 1_555
Co0 O17 1.828014 1_655
Co0 O9 1.933905 1_556
Co0 O30 1.958931 1_555
Co1 O20 1.791638 1_565
Co1 O30 1.820445 1_565
Co1 O28 1.942868 1_555
Co1 O25 1.950917 1_565
Co2 O29 1.791638 1_555
Co2 O7 1.820445 1_555
Co2 O24 1.942868 1_555
Co2 O18 1.950917 1_555
Co3 O2 1.791638 1_555
Co3 O15 1.820445 1_555
Co3 O1 1.942868 1_555
Co3 O27 1.950917 1_455
Co4 O23 1.791638 1_545
Co4 O22 1.820445 1_545
Co4 O4 1.942868 1_555
Co4 O16 1.950917 1_545
Co5 O27 1.791638 1_555
Co5 O13 1.820445 1_555
Co5 O31 1.942868 1_555
Co5 O2 1.950917 1_555
Co6 O24 1.809270 1_555
Co6 O14 1.828014 1_555
Co6 O5 1.933905 1_555
Co6 O21 1.958931 1_555
Co7 O25 1.791638 1_565
Co7 O21 1.820445 1_565
Co7 O12 1.942868 1_555
Co7 O20 1.950917 1_465
Co8 O1 1.809270 1_555
Co8 O26 1.828014 1_455
Co8 O10 1.933905 1_554
Co8 O22 1.958931 1_555
Co9 O8 1.809270 1_555
Co9 O5 1.828014 1_655
Co9 O14 1.933905 1_555
Co9 O13 1.958931 1_555
Co10 O31 1.809270 1_555
Co10 O6 1.828014 1_555
Co10 O19 1.933905 1_555
Co10 O0 1.958931 1_555
Co11 O16 1.791638 1_545
Co11 O0 1.820445 1_545
Co11 O8 1.942868 1_555
Co11 O23 1.950917 1_645
Co12 O4 1.809270 1_555
Co12 O9 1.828014 1_555
Co12 O17 1.933905 1_554
Co12 O15 1.958931 1_555
Co13 O18 1.791638 1_555
Co13 O11 1.820445 1_555
Co13 O3 1.942868 1_555
Co13 O29 1.950917 1_655
Co14 O28 1.809270 1_555
Co14 O10 1.828014 1_555
Co14 O26 1.933905 1_556
Co14 O11 1.958931 1_555
Co15 O12 1.809270 1_555
Co15 O19 1.828014 1_455
Co15 O6 1.933905 1_555
Co15 O7 1.958931 1_555
O0 Rb1 2.818367 1_555
O0 Rb3 2.909529 1_665
O0 Rb10 3.268038 1_655
O1 Rb10 2.898548 1_555
O1 Rb11 3.101455 1_555
O1 Rb11 3.219848 1_455
O2 Rb7 2.871964 1_555
O2 Rb6 3.002537 1_555
O2 Rb10 3.434630 1_555
O3 Rb15 2.898548 1_555
O3 Rb4 3.101455 1_555
O3 Rb4 3.219848 1_655
O4 Rb7 2.898548 1_555
O4 Rb14 3.101455 1_455
O4 Rb14 3.219848 1_555
O5 Rb6 2.846322 1_555
O5 Rb7 3.123093 1_555
O5 Rb9 3.195410 1_455
O6 Rb3 2.846322 1_565
O6 Rb10 3.123093 1_555
O6 Rb1 3.195410 1_555
O7 Rb6 2.818367 1_555
O7 Rb9 2.909529 1_555
O7 Rb0 3.268038 1_555
O8 Rb14 2.898548 1_555
O8 Rb7 3.101455 1_555
O8 Rb7 3.219848 1_655
O9 Rb5 2.846322 1_555
O9 Rb14 3.123093 1_555
O9 Rb12 3.195410 1_554
O10 Rb12 2.846322 1_555
O10 Rb8 3.123093 1_555
O10 Rb5 3.195410 1_556
O11 Rb5 2.818367 1_556
O11 Rb12 2.909529 1_655
O11 Rb8 3.268038 1_655
O12 Rb8 2.898548 1_555
O12 Rb0 3.101455 1_555
O12 Rb0 3.219848 1_455
O13 Rb9 2.818367 1_555
O13 Rb6 2.909529 1_555
O13 Rb7 3.268038 1_555
O14 Rb1 2.846322 1_545
O14 Rb15 3.123093 1_555
O14 Rb3 3.195410 1_555
O15 Rb12 2.818367 1_554
O15 Rb5 2.909529 1_455
O15 Rb14 3.268038 1_455
O16 Rb11 2.871964 1_555
O16 Rb13 3.002537 1_565
O16 Rb14 3.434630 1_565
O17 Rb2 2.846322 1_545
O17 Rb4 3.123093 1_555
O17 Rb13 3.195410 1_456
O18 Rb0 2.871964 1_555
O18 Rb9 3.002537 1_555
O18 Rb15 3.434630 1_555
O19 Rb9 2.846322 1_555
O19 Rb0 3.123093 1_555
O19 Rb6 3.195410 1_655
O20 Rb15 2.871964 1_555
O20 Rb1 3.002537 1_545
O20 Rb0 3.434630 1_545
O21 Rb3 2.818367 1_555
O21 Rb1 2.909529 1_445
O21 Rb15 3.268038 1_455
O22 Rb2 2.818367 1_554
O22 Rb13 2.909529 1_565
O22 Rb11 3.268038 1_555
O23 Rb10 2.871964 1_555
O23 Rb3 3.002537 1_565
O23 Rb7 3.434630 1_565
O24 Rb4 2.898548 1_555
O24 Rb15 3.101455 1_455
O24 Rb15 3.219848 1_555
O25 Rb4 2.871964 1_555
O25 Rb2 3.002537 1_545
O25 Rb8 3.434630 1_545
O26 Rb13 2.846322 1_565
O26 Rb11 3.123093 1_555
O26 Rb2 3.195410 1_654
O27 Rb14 2.871964 1_555
O27 Rb5 3.002537 1_555
O27 Rb11 3.434630 1_555
O28 Rb0 2.898548 1_555
O28 Rb8 3.101455 1_655
O28 Rb8 3.219848 1_555
O29 Rb8 2.871964 1_555
O29 Rb12 3.002537 1_555
O29 Rb4 3.434630 1_555
O30 Rb13 2.818367 1_556
O30 Rb2 2.909529 1_545
O30 Rb4 3.268038 1_555
O31 Rb11 2.898548 1_555
O31 Rb10 3.101455 1_655
O31 Rb10 3.219848 1_555
