# generated using pymatgen
data_Li8Ti15O32
_symmetry_space_group_name_H-M   'P 1'
_cell_length_a   19.81960309
_cell_length_b   19.81960309
_cell_length_c   19.81960277
_cell_angle_alpha   17.34903214
_cell_angle_beta   17.34903214
_cell_angle_gamma   17.34903085
_symmetry_Int_Tables_number   1
_chemical_formula_structural   Li8Ti15O32
_chemical_formula_sum   'Li8 Ti15 O32'
_cell_volume   604.10445928
_cell_formula_units_Z   1
loop_
 _symmetry_equiv_pos_site_id
 _symmetry_equiv_pos_as_xyz
  1  'x, y, z'
loop_
 _atom_site_type_symbol
 _atom_site_label
 _atom_site_symmetry_multiplicity
 _atom_site_fract_x
 _atom_site_fract_y
 _atom_site_fract_z
 _atom_site_occupancy
  Li  Li0  1  0.43785800  0.43785800  0.43785800  1
  Li  Li1  1  0.68719800  0.68719800  0.68719800  1
  Li  Li2  1  0.74998800  0.74998800  0.74998800  1
  Li  Li3  1  0.18803900  0.18803900  0.18803900  1
  Li  Li4  1  0.84380800  0.84380800  0.84380800  1
  Li  Li5  1  0.24952400  0.24952400  0.24952400  1
  Li  Li6  1  0.49952800  0.49952800  0.49952800  1
  Li  Li7  1  0.93797800  0.93797800  0.93797800  1
  Ti  Ti0  1  0.71995100  0.21787600  0.21787600  1
  Ti  Ti1  1  0.34309900  0.34309900  0.34309900  1
  Ti  Ti2  1  0.21787600  0.71995100  0.21787600  1
  Ti  Ti3  1  0.21787600  0.21787600  0.71995100  1
  Ti  Ti4  1  0.09439100  0.09439100  0.09439100  1
  Ti  Ti5  1  0.96643000  0.96643000  0.47671100  1
  Ti  Ti6  1  0.96643000  0.47671100  0.96643000  1
  Ti  Ti7  1  0.72105800  0.21100200  0.72105800  1
  Ti  Ti8  1  0.21100200  0.72105800  0.72105800  1
  Ti  Ti9  1  0.47671100  0.96643000  0.96643000  1
  Ti  Ti10  1  0.72105800  0.72105800  0.21100200  1
  Ti  Ti11  1  0.46791000  0.46791000  0.97115300  1
  Ti  Ti12  1  0.97115300  0.46791000  0.46791000  1
  Ti  Ti13  1  0.59334800  0.59334800  0.59334800  1
  Ti  Ti14  1  0.46791000  0.97115300  0.46791000  1
  O  O0  1  0.51558500  0.06616900  0.51558500  1
  O  O1  1  0.06616900  0.51558500  0.51558500  1
  O  O2  1  0.40315500  0.40315500  0.40315500  1
  O  O3  1  0.03541900  0.03541900  0.03541900  1
  O  O4  1  0.92210600  0.92210600  0.37208000  1
  O  O5  1  0.66489700  0.13009600  0.66489700  1
  O  O6  1  0.92210600  0.37208000  0.92210600  1
  O  O7  1  0.26338600  0.26338600  0.81985500  1
  O  O8  1  0.51558500  0.51558500  0.06616900  1
  O  O9  1  0.55755700  0.02258400  0.02258400  1
  O  O10  1  0.15343600  0.15343600  0.15343600  1
  O  O11  1  0.81985500  0.26338600  0.26338600  1
  O  O12  1  0.78432600  0.78432600  0.78432600  1
  O  O13  1  0.37208000  0.92210600  0.92210600  1
  O  O14  1  0.13009600  0.66489700  0.66489700  1
  O  O15  1  0.42420900  0.42420900  0.86741200  1
  O  O16  1  0.66489700  0.66489700  0.13009600  1
  O  O17  1  0.02258400  0.02258400  0.55755700  1
  O  O18  1  0.26338600  0.81985500  0.26338600  1
  O  O19  1  0.02258400  0.55755700  0.02258400  1
  O  O20  1  0.90322200  0.90322200  0.90322200  1
  O  O21  1  0.86741200  0.42420900  0.42420900  1
  O  O22  1  0.53407200  0.53407200  0.53407200  1
  O  O23  1  0.28399000  0.28399000  0.28399000  1
  O  O24  1  0.61420900  0.17503500  0.17503500  1
  O  O25  1  0.17503500  0.61420900  0.17503500  1
  O  O26  1  0.42420900  0.86741200  0.42420900  1
  O  O27  1  0.17503500  0.17503500  0.61420900  1
  O  O28  1  0.76455500  0.31723100  0.76455500  1
  O  O29  1  0.76455500  0.76455500  0.31723100  1
  O  O30  1  0.31723100  0.76455500  0.76455500  1
  O  O31  1  0.65297100  0.65297100  0.65297100  1
loop_
_geom_bond_atom_site_label_1
_geom_bond_atom_site_label_2
_geom_bond_distance
_geom_bond_site_symmetry_2
Li0 O11 2.026169 1_555
Li0 O18 2.026169 1_555
Li0 O7 2.026169 1_555
Li0 O2 2.031867 1_555
Li1 O31 2.003997 1_555
Li1 O1 2.024422 1_655
Li1 O0 2.024422 1_565
Li1 O8 2.024423 1_556
Li2 O6 2.009019 1_555
Li2 O13 2.009019 1_555
Li2 O4 2.009019 1_555
Li2 O12 2.010497 1_555
Li3 O9 1.994360 1_555
Li3 O19 1.994360 1_555
Li3 O17 1.994360 1_555
Li3 O10 2.026012 1_555
Li4 O9 2.124341 1_566
Li4 O19 2.124341 1_656
Li4 O17 2.124341 1_665
Li4 O14 2.127770 1_655
Li4 O5 2.127770 1_565
Li4 O16 2.127770 1_556
Li5 O23 2.017991 1_555
Li5 O21 2.025319 1_455
Li5 O26 2.025319 1_545
Li5 O15 2.025319 1_554
Li6 O14 1.994445 1_555
Li6 O5 1.994445 1_555
Li6 O16 1.994445 1_555
Li6 O22 2.022558 1_555
Li7 O30 2.009759 1_655
Li7 O28 2.009759 1_565
Li7 O29 2.009759 1_556
Li7 O20 2.034971 1_555
O0 Ti3 2.004690 1_555
O0 Ti0 2.004690 1_555
O0 Ti1 2.042002 1_555
O1 Ti3 2.004690 1_555
O1 Ti2 2.004690 1_555
O1 Ti1 2.042002 1_555
O2 Ti0 2.025879 1_555
O2 Ti2 2.025879 1_555
O2 Ti3 2.025879 1_555
O3 Ti0 1.971058 1_455
O3 Ti2 1.971058 1_545
O3 Ti3 1.971058 1_554
O4 Ti0 2.023621 1_565
O4 Ti2 2.023621 1_655
O4 Ti4 2.028814 1_665
O5 Ti5 1.919841 1_545
O5 Ti9 1.919841 1_545
O6 Ti3 2.023621 1_655
O6 Ti0 2.023621 1_556
O6 Ti4 2.028814 1_656
O7 Ti4 1.969103 1_556
O7 Ti9 2.063641 1_545
O7 Ti6 2.063641 1_455
O8 Ti0 2.004690 1_555
O8 Ti2 2.004690 1_555
O8 Ti1 2.042002 1_555
O9 Ti10 1.920705 1_545
O9 Ti7 1.920705 1_554
O10 Ti6 2.020582 1_454
O10 Ti9 2.020582 1_544
O10 Ti5 2.020582 1_445
O11 Ti4 1.969103 1_655
O11 Ti5 2.063641 1_545
O11 Ti6 2.063641 1_554
O12 Ti6 2.019204 1_555
O12 Ti9 2.019204 1_555
O12 Ti5 2.019204 1_555
O13 Ti3 2.023621 1_565
O13 Ti2 2.023621 1_556
O13 Ti4 2.028814 1_566
O14 Ti5 1.919841 1_455
O14 Ti6 1.919841 1_455
O15 Ti13 1.977589 1_555
O15 Ti7 2.060216 1_555
O15 Ti8 2.060216 1_555
O16 Ti6 1.919841 1_554
O16 Ti9 1.919841 1_554
O17 Ti8 1.920705 1_545
O17 Ti7 1.920705 1_455
O18 Ti4 1.969103 1_565
O18 Ti5 2.063641 1_455
O18 Ti9 2.063641 1_554
O19 Ti10 1.920705 1_455
O19 Ti8 1.920705 1_554
O20 Ti7 2.019374 1_565
O20 Ti8 2.019374 1_655
O20 Ti10 2.019374 1_556
O21 Ti13 1.977589 1_555
O21 Ti10 2.060216 1_555
O21 Ti7 2.060216 1_555
O22 Ti7 2.021486 1_555
O22 Ti8 2.021486 1_555
O22 Ti10 2.021486 1_555
O23 Ti14 2.022947 1_545
O23 Ti12 2.022947 1_455
O23 Ti11 2.022947 1_554
O24 Ti11 1.972193 1_554
O24 Ti14 1.972193 1_545
O24 Ti1 1.976886 1_555
O25 Ti11 1.972193 1_554
O25 Ti12 1.972193 1_455
O25 Ti1 1.976886 1_555
O26 Ti13 1.977589 1_555
O26 Ti10 2.060216 1_555
O26 Ti8 2.060216 1_555
O27 Ti12 1.972193 1_455
O27 Ti14 1.972193 1_545
O27 Ti1 1.976887 1_555
O28 Ti13 2.014480 1_555
O28 Ti11 2.029657 1_555
O28 Ti12 2.029657 1_555
O29 Ti13 2.014480 1_555
O29 Ti12 2.029657 1_555
O29 Ti14 2.029657 1_555
O30 Ti13 2.014480 1_555
O30 Ti11 2.029657 1_555
O30 Ti14 2.029657 1_555
O31 Ti12 2.011173 1_555
O31 Ti14 2.011173 1_555
O31 Ti11 2.011173 1_555
