# generated using pymatgen
data_Li4Mn3F10
_symmetry_space_group_name_H-M   'P 1'
_cell_length_a   9.99235159
_cell_length_b   9.99235159
_cell_length_c   5.21498177
_cell_angle_alpha   84.17869399
_cell_angle_beta   84.17869399
_cell_angle_gamma   111.36070107
_symmetry_Int_Tables_number   1
_chemical_formula_structural   Li4Mn3F10
_chemical_formula_sum   'Li8 Mn6 F20'
_cell_volume   477.02044037
_cell_formula_units_Z   2
loop_
 _symmetry_equiv_pos_site_id
 _symmetry_equiv_pos_as_xyz
  1  'x, y, z'
loop_
 _atom_site_type_symbol
 _atom_site_label
 _atom_site_symmetry_multiplicity
 _atom_site_fract_x
 _atom_site_fract_y
 _atom_site_fract_z
 _atom_site_occupancy
  Li  Li0  1  0.88027700  0.39809500  0.67557300  1
  Li  Li1  1  0.39809500  0.88027700  0.17557300  1
  Li  Li2  1  0.29039300  0.70960700  0.75000000  1
  Li  Li3  1  0.57705300  0.42294700  0.75000000  1
  Li  Li4  1  0.42294700  0.57705300  0.25000000  1
  Li  Li5  1  0.70960700  0.29039300  0.25000000  1
  Li  Li6  1  0.60190500  0.11972300  0.82442700  1
  Li  Li7  1  0.11972300  0.60190500  0.32442700  1
  Mn  Mn0  1  0.62403800  0.77913700  0.65629700  1
  Mn  Mn1  1  0.77913700  0.62403800  0.15629700  1
  Mn  Mn2  1  0.11498700  0.88501300  0.75000000  1
  Mn  Mn3  1  0.88501300  0.11498700  0.25000000  1
  Mn  Mn4  1  0.22086300  0.37596200  0.84370300  1
  Mn  Mn5  1  0.37596200  0.22086300  0.34370300  1
  F  F0  1  0.54150000  0.91191300  0.84299300  1
  F  F1  1  0.91191300  0.54150000  0.34299300  1
  F  F2  1  0.19826900  0.09833700  0.61719000  1
  F  F3  1  0.09833700  0.19826900  0.11719000  1
  F  F4  1  0.73514700  0.43923300  0.95190000  1
  F  F5  1  0.43923300  0.73514700  0.45190000  1
  F  F6  1  0.59618800  0.64933400  0.01082500  1
  F  F7  1  0.64933400  0.59618800  0.51082500  1
  F  F8  1  0.22914500  0.81574000  0.99533900  1
  F  F9  1  0.81574000  0.22914500  0.49533900  1
  F  F10  1  0.18426000  0.77085500  0.50466100  1
  F  F11  1  0.77085500  0.18426000  0.00466100  1
  F  F12  1  0.35066600  0.40381200  0.48917500  1
  F  F13  1  0.40381200  0.35066600  0.98917500  1
  F  F14  1  0.56076700  0.26485300  0.54810000  1
  F  F15  1  0.26485300  0.56076700  0.04810000  1
  F  F16  1  0.90166300  0.80173100  0.88281000  1
  F  F17  1  0.80173100  0.90166300  0.38281000  1
  F  F18  1  0.08808700  0.45850000  0.65700700  1
  F  F19  1  0.45850000  0.08808700  0.15700700  1
loop_
_geom_bond_atom_site_label_1
_geom_bond_atom_site_label_2
_geom_bond_distance
_geom_bond_site_symmetry_2
F0 Li6 1.928707 1_565
F0 Li1 2.053306 1_556
F0 Mn0 2.069941 1_555
F1 Li7 1.928707 1_655
F1 Li0 2.053306 1_555
F1 Mn1 2.069941 1_555
F2 Mn2 2.001835 1_545
F2 Mn5 2.057723 1_555
F3 Mn3 2.001835 1_455
F3 Mn4 2.057723 1_554
F4 Li3 1.953338 1_555
F4 Li5 1.966679 1_556
F4 Li0 2.116395 1_555
F4 Mn1 2.154647 1_556
F5 Li4 1.953338 1_555
F5 Li2 1.966679 1_555
F5 Li1 2.116395 1_555
F5 Mn0 2.154647 1_555
F6 Li4 1.882156 1_555
F6 Mn0 2.079486 1_554
F6 Mn1 2.135503 1_555
F7 Li3 1.882156 1_555
F7 Mn1 2.079486 1_555
F7 Mn0 2.135503 1_555
F8 Li2 1.930140 1_555
F8 Li1 1.949644 1_556
F8 Mn2 2.027048 1_555
F8 Li7 2.424857 1_556
F9 Li5 1.930140 1_555
F9 Li0 1.949644 1_555
F9 Mn3 2.027048 1_555
F9 Li6 2.424857 1_555
F10 Li2 1.930140 1_555
F10 Li7 1.949644 1_555
F10 Mn2 2.027048 1_555
F10 Li1 2.424857 1_555
F11 Li5 1.930140 1_555
F11 Li6 1.949644 1_554
F11 Mn3 2.027048 1_555
F11 Li0 2.424857 1_554
F12 Li4 1.882156 1_555
F12 Mn4 2.079486 1_555
F12 Mn5 2.135503 1_555
F13 Li3 1.882156 1_555
F13 Mn5 2.079486 1_556
F13 Mn4 2.135503 1_555
F14 Li3 1.953338 1_555
F14 Li5 1.966679 1_555
F14 Li6 2.116395 1_555
F14 Mn5 2.154647 1_555
F15 Li4 1.953338 1_555
F15 Li2 1.966679 1_554
F15 Li7 2.116395 1_555
F15 Mn4 2.154647 1_554
F16 Mn2 2.001835 1_655
F16 Mn1 2.057723 1_556
F17 Mn3 2.001835 1_565
F17 Mn0 2.057723 1_555
F18 Li0 1.928707 1_455
F18 Li7 2.053306 1_555
F18 Mn4 2.069941 1_555
F19 Li1 1.928707 1_545
F19 Li6 2.053306 1_554
F19 Mn5 2.069941 1_555
