# generated using pymatgen
data_LiNb10O18
_symmetry_space_group_name_H-M   'P 1'
_cell_length_a   9.45812100
_cell_length_b   7.93633500
_cell_length_c   10.42199760
_cell_angle_alpha   69.54929679
_cell_angle_beta   90.00000000
_cell_angle_gamma   90.00000000
_symmetry_Int_Tables_number   1
_chemical_formula_structural   LiNb10O18
_chemical_formula_sum   'Li2 Nb20 O36'
_cell_volume   732.99831363
_cell_formula_units_Z   2
loop_
 _symmetry_equiv_pos_site_id
 _symmetry_equiv_pos_as_xyz
  1  'x, y, z'
loop_
 _atom_site_type_symbol
 _atom_site_label
 _atom_site_symmetry_multiplicity
 _atom_site_fract_x
 _atom_site_fract_y
 _atom_site_fract_z
 _atom_site_occupancy
  Li  Li0  1  0.50000000  0.00000000  0.50000000  1
  Li  Li1  1  0.00000000  0.00000000  0.00000000  1
  Nb  Nb0  1  0.88421200  0.99603700  0.66865300  1
  Nb  Nb1  1  0.62621900  0.80282000  0.98141200  1
  Nb  Nb2  1  0.13010700  0.82040100  0.62305700  1
  Nb  Nb3  1  0.61578800  0.99603700  0.16865300  1
  Nb  Nb4  1  0.12949300  0.60284400  0.93948100  1
  Nb  Nb5  1  0.87378100  0.80282000  0.48141200  1
  Nb  Nb6  1  0.61341400  0.60403400  0.77026800  1
  Nb  Nb7  1  0.36989300  0.82040100  0.12305700  1
  Nb  Nb8  1  0.37050700  0.60284400  0.43948100  1
  Nb  Nb9  1  0.11341400  0.39596600  0.72973200  1
  Nb  Nb10  1  0.88658600  0.60403400  0.27026800  1
  Nb  Nb11  1  0.62949300  0.39715600  0.56051900  1
  Nb  Nb12  1  0.63010700  0.17959900  0.87694300  1
  Nb  Nb13  1  0.38658600  0.39596600  0.22973200  1
  Nb  Nb14  1  0.12621900  0.19718000  0.51858800  1
  Nb  Nb15  1  0.87050700  0.39715600  0.06051900  1
  Nb  Nb16  1  0.38421200  0.00396300  0.83134700  1
  Nb  Nb17  1  0.86989300  0.17959900  0.37694300  1
  Nb  Nb18  1  0.37378100  0.19718000  0.01858800  1
  Nb  Nb19  1  0.11578800  0.00396300  0.33134700  1
  O  O0  1  0.76239500  0.98929900  0.85031600  1
  O  O1  1  0.24695400  0.80466100  0.96113300  1
  O  O2  1  0.01276200  0.80041100  0.80379100  1
  O  O3  1  0.50516700  0.80035500  0.80274300  1
  O  O4  1  0.73760500  0.98929900  0.35031600  1
  O  O5  1  0.74706800  0.79785700  0.64561400  1
  O  O6  1  0.25304600  0.80466100  0.46113300  1
  O  O7  1  0.74329500  0.58235000  0.93166300  1
  O  O8  1  0.23600600  0.58867800  0.77433700  1
  O  O9  1  0.48723800  0.80041100  0.30379100  1
  O  O10  1  0.99483300  0.80035500  0.30274300  1
  O  O11  1  0.00306500  0.60095300  0.60859200  1
  O  O12  1  0.50775000  0.60526800  0.59807700  1
  O  O13  1  0.75293200  0.79785700  0.14561400  1
  O  O14  1  0.00775000  0.39473200  0.90192300  1
  O  O15  1  0.50306500  0.39904700  0.89140800  1
  O  O16  1  0.75670500  0.58235000  0.43166300  1
  O  O17  1  0.73600600  0.41132200  0.72566300  1
  O  O18  1  0.26399400  0.58867800  0.27433700  1
  O  O19  1  0.24329500  0.41765000  0.56833700  1
  O  O20  1  0.49693500  0.60095300  0.10859200  1
  O  O21  1  0.99225000  0.60526800  0.09807700  1
  O  O22  1  0.24706800  0.20214300  0.85438600  1
  O  O23  1  0.49225000  0.39473200  0.40192300  1
  O  O24  1  0.99693500  0.39904700  0.39140800  1
  O  O25  1  0.00516700  0.19964500  0.69725700  1
  O  O26  1  0.51276200  0.19958900  0.69620900  1
  O  O27  1  0.76399400  0.41132200  0.22566300  1
  O  O28  1  0.25670500  0.41765000  0.06833700  1
  O  O29  1  0.74695400  0.19533900  0.53886700  1
  O  O30  1  0.25293200  0.20214300  0.35438600  1
  O  O31  1  0.26239500  0.01070100  0.64968400  1
  O  O32  1  0.49483300  0.19964500  0.19725700  1
  O  O33  1  0.98723800  0.19958900  0.19620900  1
  O  O34  1  0.75304600  0.19533900  0.03886700  1
  O  O35  1  0.23760500  0.01070100  0.14968400  1
loop_
_geom_bond_atom_site_label_1
_geom_bond_atom_site_label_2
_geom_bond_distance
_geom_bond_site_symmetry_2
Nb0 O2 2.084295 1_655
Nb0 O25 2.084559 1_665
Nb0 O5 2.116096 1_555
Nb0 O29 2.126433 1_565
Nb0 O0 2.200940 1_555
Nb1 O0 2.074334 1_555
Nb1 O13 2.078308 1_556
Nb1 O20 2.082025 1_556
Nb1 O3 2.191817 1_555
Nb1 O7 2.278260 1_555
Nb2 O31 2.053372 1_565
Nb2 O6 2.088745 1_555
Nb2 O2 2.143858 1_555
Nb2 O11 2.164072 1_555
Nb2 O8 2.201107 1_555
Nb3 O9 2.084295 1_555
Nb3 O32 2.084559 1_565
Nb3 O13 2.116096 1_555
Nb3 O34 2.126433 1_565
Nb3 O4 2.200940 1_555
Nb4 O28 2.007994 1_556
Nb4 O1 2.025617 1_555
Nb4 O8 2.031017 1_555
Nb4 O2 2.031698 1_555
Nb4 O21 2.107033 1_456
Nb4 O14 2.158423 1_555
Nb5 O4 2.074334 1_555
Nb5 O5 2.078308 1_555
Nb5 O11 2.082025 1_655
Nb5 O10 2.191817 1_555
Nb5 O16 2.278260 1_555
Nb6 O15 1.973472 1_555
Nb6 O3 1.989680 1_555
Nb6 O7 2.041004 1_555
Nb6 O12 2.051116 1_555
Nb6 O5 2.062879 1_555
Nb6 O17 2.096786 1_555
Nb7 O35 2.053372 1_565
Nb7 O1 2.088745 1_554
Nb7 O9 2.143858 1_555
Nb7 O20 2.164072 1_555
Nb7 O18 2.201107 1_555
Nb8 O19 2.007994 1_555
Nb8 O6 2.025617 1_555
Nb8 O18 2.031017 1_555
Nb8 O9 2.031698 1_555
Nb8 O12 2.107033 1_555
Nb8 O23 2.158423 1_555
Nb9 O11 1.973472 1_555
Nb9 O25 1.989680 1_555
Nb9 O19 2.041004 1_555
Nb9 O14 2.051116 1_555
Nb9 O22 2.062879 1_555
Nb9 O8 2.096786 1_555
Nb10 O24 1.973472 1_555
Nb10 O10 1.989680 1_555
Nb10 O16 2.041004 1_555
Nb10 O21 2.051116 1_555
Nb10 O13 2.062879 1_555
Nb10 O27 2.096786 1_555
Nb11 O16 2.007994 1_555
Nb11 O29 2.025617 1_555
Nb11 O17 2.031017 1_555
Nb11 O26 2.031698 1_555
Nb11 O23 2.107033 1_555
Nb11 O12 2.158423 1_555
Nb12 O0 2.053372 1_545
Nb12 O34 2.088745 1_556
Nb12 O26 2.143858 1_555
Nb12 O15 2.164072 1_555
Nb12 O17 2.201107 1_555
Nb13 O20 1.973472 1_555
Nb13 O32 1.989680 1_555
Nb13 O28 2.041004 1_555
Nb13 O23 2.051116 1_555
Nb13 O30 2.062879 1_555
Nb13 O18 2.096786 1_555
Nb14 O31 2.074334 1_555
Nb14 O30 2.078308 1_555
Nb14 O24 2.082025 1_455
Nb14 O25 2.191817 1_555
Nb14 O19 2.278260 1_555
Nb15 O7 2.007994 1_554
Nb15 O34 2.025617 1_555
Nb15 O27 2.031017 1_555
Nb15 O33 2.031698 1_555
Nb15 O14 2.107033 1_654
Nb15 O21 2.158423 1_555
Nb16 O26 2.084295 1_555
Nb16 O3 2.084559 1_545
Nb16 O22 2.116096 1_555
Nb16 O1 2.126433 1_545
Nb16 O31 2.200940 1_555
Nb17 O4 2.053372 1_545
Nb17 O29 2.088745 1_555
Nb17 O33 2.143858 1_555
Nb17 O24 2.164072 1_555
Nb17 O27 2.201107 1_555
Nb18 O35 2.074334 1_555
Nb18 O22 2.078308 1_554
Nb18 O15 2.082025 1_554
Nb18 O32 2.191817 1_555
Nb18 O28 2.278260 1_555
Nb19 O33 2.084295 1_455
Nb19 O10 2.084559 1_445
Nb19 O30 2.116096 1_555
Nb19 O6 2.126433 1_545
Nb19 O35 2.200940 1_555
