# generated using pymatgen
data_LiV2P4(HO8)2
_symmetry_space_group_name_H-M   'P 1'
_cell_length_a   4.88946073
_cell_length_b   7.93609828
_cell_length_c   14.33169805
_cell_angle_alpha   89.53890274
_cell_angle_beta   85.06040126
_cell_angle_gamma   89.87340058
_symmetry_Int_Tables_number   1
_chemical_formula_structural   LiV2P4(HO8)2
_chemical_formula_sum   'Li2 V4 P8 H4 O32'
_cell_volume   554.03234615
_cell_formula_units_Z   2
loop_
 _symmetry_equiv_pos_site_id
 _symmetry_equiv_pos_as_xyz
  1  'x, y, z'
loop_
 _atom_site_type_symbol
 _atom_site_label
 _atom_site_symmetry_multiplicity
 _atom_site_fract_x
 _atom_site_fract_y
 _atom_site_fract_z
 _atom_site_occupancy
  Li  Li0  1  0.97282700  0.86600300  0.42581300  1
  Li  Li1  1  0.47285900  0.86600800  0.92582600  1
  V  V0  1  0.99508700  0.49433800  0.50213000  1
  V  V1  1  0.74524600  0.00599300  0.24333400  1
  V  V2  1  0.49507000  0.49443700  0.00213200  1
  V  V3  1  0.24517600  0.00594900  0.74341700  1
  P  P0  1  0.99183500  0.35687300  0.13587500  1
  P  P1  1  0.49168500  0.35673400  0.63581900  1
  P  P2  1  0.25427300  0.84825000  0.11606700  1
  P  P3  1  0.75441700  0.84815500  0.61602000  1
  P  P4  1  0.24148300  0.15447700  0.38011800  1
  P  P5  1  0.74147700  0.15448400  0.88013500  1
  P  P6  1  0.51172000  0.65333600  0.36613700  1
  P  P7  1  0.01178800  0.65325700  0.86610100  1
  H  H0  1  0.28135700  0.50938800  0.25664700  1
  H  H1  1  0.78139100  0.50940400  0.75665900  1
  H  H2  1  0.46797800  0.01037300  0.49258000  1
  H  H3  1  0.96787100  0.01036200  0.99257800  1
  O  O0  1  0.72579900  0.56026800  0.42200300  1
  O  O1  1  0.22585400  0.56015700  0.92196600  1
  O  O2  1  0.87437100  0.17226100  0.16377200  1
  O  O3  1  0.37420900  0.17219100  0.66366700  1
  O  O4  1  0.98807100  0.84278900  0.18428900  1
  O  O5  1  0.48804400  0.84275700  0.68419700  1
  O  O6  1  0.04223000  0.44398500  0.22468900  1
  O  O7  1  0.54210700  0.44393000  0.72465400  1
  O  O8  1  0.02312500  0.05603600  0.32970100  1
  O  O9  1  0.52310000  0.05608900  0.82971200  1
  O  O10  1  0.14860600  0.32982000  0.40909200  1
  O  O11  1  0.64868100  0.32983700  0.90911600  1
  O  O12  1  0.21568600  0.95028300  0.02839000  1
  O  O13  1  0.71579000  0.95029900  0.52836000  1
  O  O14  1  0.24375600  0.32924700  0.06463200  1
  O  O15  1  0.74313700  0.32922300  0.56446300  1
  O  O16  1  0.24217800  0.67563000  0.43046100  1
  O  O17  1  0.74225000  0.67556000  0.93045100  1
  O  O18  1  0.27803900  0.04108400  0.46754600  1
  O  O19  1  0.77804900  0.04110800  0.96757800  1
  O  O20  1  0.35897300  0.67159600  0.09286700  1
  O  O21  1  0.85902400  0.67141900  0.59281800  1
  O  O22  1  0.47201100  0.93987100  0.17433400  1
  O  O23  1  0.97198400  0.93979000  0.67430100  1
  O  O24  1  0.47060900  0.55882200  0.27598400  1
  O  O25  1  0.97057200  0.55881000  0.77593100  1
  O  O26  1  0.51117300  0.16140200  0.31440000  1
  O  O27  1  0.01117200  0.16136500  0.81440500  1
  O  O28  1  0.64178000  0.82972600  0.34023100  1
  O  O29  1  0.14181800  0.82972100  0.84023100  1
  O  O30  1  0.76438900  0.44134300  0.08157600  1
  O  O31  1  0.26405500  0.44122300  0.58149300  1
loop_
_geom_bond_atom_site_label_1
_geom_bond_atom_site_label_2
_geom_bond_distance
_geom_bond_site_symmetry_2
Li0 O13 1.970020 1_555
Li0 O16 2.006526 1_655
Li0 O8 2.035225 1_665
Li0 O28 2.134692 1_555
Li0 O18 2.166011 1_665
Li1 O12 1.970513 1_556
Li1 O17 2.007074 1_555
Li1 O9 2.035506 1_565
Li1 O29 2.134799 1_555
Li1 O19 2.166124 1_565
H0 O24 1.065121 1_555
H0 O6 1.394613 1_555
H1 O25 1.064414 1_555
H1 O7 1.395763 1_555
H2 O18 1.051466 1_555
H2 O13 1.434885 1_545
H3 O19 1.050805 1_555
H3 O12 1.435107 1_646
O0 P6 1.553579 1_555
O0 V0 1.890446 1_555
O1 P7 1.553645 1_555
O1 V2 1.890104 1_556
O2 P0 1.609650 1_555
O2 V1 1.815328 1_555
O3 P1 1.609024 1_555
O3 V3 1.816643 1_555
O4 P2 1.559609 1_655
O4 V1 1.908166 1_565
O5 P3 1.559892 1_555
O5 V3 1.909217 1_565
O6 P0 1.492562 1_455
O7 P1 1.493169 1_555
O8 P4 1.554970 1_555
O8 V1 1.958509 1_455
O9 P5 1.554898 1_555
O9 V3 1.958120 1_555
O10 P4 1.512967 1_555
O10 V0 1.974177 1_455
O11 P5 1.512957 1_555
O11 V2 1.974550 1_556
O12 P2 1.514596 1_555
O13 P3 1.514895 1_555
O14 P0 1.547136 1_455
O14 V2 1.956926 1_555
O15 P1 1.546271 1_555
O15 V0 1.957414 1_555
O16 P6 1.552552 1_555
O16 V0 2.086820 1_455
O17 P7 1.552739 1_655
O17 V2 2.086209 1_556
O18 P4 1.559314 1_555
O19 P5 1.559426 1_555
O20 P2 1.520883 1_555
O20 V2 1.996694 1_555
O21 P3 1.521346 1_555
O21 V0 1.995787 1_555
O22 P2 1.589258 1_555
O22 V1 1.810261 1_565
O23 P3 1.588828 1_555
O23 V3 1.811201 1_665
O24 P6 1.527542 1_555
O25 P7 1.527593 1_655
O26 P4 1.553872 1_555
O26 V1 1.918740 1_555
O27 P5 1.553972 1_455
O27 V3 1.918049 1_555
O28 P6 1.567396 1_555
O28 V1 1.998032 1_565
O29 P7 1.567763 1_555
O29 V3 1.996920 1_565
O30 P0 1.558544 1_555
O30 V2 1.859013 1_555
O31 P1 1.559504 1_555
O31 V0 1.856964 1_455
