# generated using pymatgen
data_Li3MnP2H2O9
_symmetry_space_group_name_H-M   'P 1'
_cell_length_a   8.05346158
_cell_length_b   8.05346158
_cell_length_c   6.82303412
_cell_angle_alpha   88.22192807
_cell_angle_beta   88.22192807
_cell_angle_gamma   51.83080804
_symmetry_Int_Tables_number   1
_chemical_formula_structural   Li3MnP2H2O9
_chemical_formula_sum   'Li6 Mn2 P4 H4 O18'
_cell_volume   347.70527697
_cell_formula_units_Z   2
loop_
 _symmetry_equiv_pos_site_id
 _symmetry_equiv_pos_as_xyz
  1  'x, y, z'
loop_
 _atom_site_type_symbol
 _atom_site_label
 _atom_site_symmetry_multiplicity
 _atom_site_fract_x
 _atom_site_fract_y
 _atom_site_fract_z
 _atom_site_occupancy
  Li  Li0  1  0.37637000  0.37637000  0.69879900  1
  Li  Li1  1  0.00000000  0.50000000  0.50000000  1
  Li  Li2  1  0.50000000  0.00000000  0.50000000  1
  Li  Li3  1  0.62363000  0.62363000  0.30120100  1
  Li  Li4  1  0.76586200  0.23413800  0.00000000  1
  Li  Li5  1  0.23413800  0.76586200  0.00000000  1
  Mn  Mn0  1  0.00000000  0.50000000  0.00000000  1
  Mn  Mn1  1  0.50000000  0.00000000  0.00000000  1
  P  P0  1  0.88068600  0.88068600  0.67794800  1
  P  P1  1  0.39317600  0.39317600  0.23579400  1
  P  P2  1  0.60682400  0.60682400  0.76420600  1
  P  P3  1  0.11931400  0.11931400  0.32205200  1
  H  H0  1  0.94999800  0.94999800  0.35451800  1
  H  H1  1  0.81304800  0.81304800  0.21611300  1
  H  H2  1  0.18695200  0.18695200  0.78388700  1
  H  H3  1  0.05000200  0.05000200  0.64548200  1
  O  O0  1  0.97557000  0.97557000  0.77652100  1
  O  O1  1  0.49794300  0.49794300  0.24164100  1
  O  O2  1  0.88749900  0.88749900  0.44489800  1
  O  O3  1  0.64406200  0.00988500  0.73075500  1
  O  O4  1  0.00988500  0.64406200  0.73075500  1
  O  O5  1  0.33803600  0.33803600  0.43160600  1
  O  O6  1  0.18613100  0.54910300  0.11102700  1
  O  O7  1  0.54910300  0.18613100  0.11102700  1
  O  O8  1  0.24046500  0.24046500  0.86932900  1
  O  O9  1  0.75953500  0.75953500  0.13067100  1
  O  O10  1  0.81386900  0.45089700  0.88897300  1
  O  O11  1  0.45089700  0.81386900  0.88897300  1
  O  O12  1  0.66196400  0.66196400  0.56839400  1
  O  O13  1  0.35593800  0.99011500  0.26924500  1
  O  O14  1  0.99011500  0.35593800  0.26924500  1
  O  O15  1  0.11250100  0.11250100  0.55510200  1
  O  O16  1  0.50205700  0.50205700  0.75835900  1
  O  O17  1  0.02443000  0.02443000  0.22347900  1
loop_
_geom_bond_atom_site_label_1
_geom_bond_atom_site_label_2
_geom_bond_distance
_geom_bond_site_symmetry_2
Li0 O16 1.879284 1_555
Li0 O5 1.924017 1_555
Li0 O8 2.252167 1_555
Li0 O3 2.351861 1_555
Li0 O4 2.351861 1_555
Li1 O14 2.016576 1_455
Li1 O4 2.016576 1_555
Li1 O12 2.213693 1_455
Li1 O5 2.213693 1_555
Li2 O13 2.016576 1_545
Li2 O3 2.016576 1_555
Li2 O12 2.213693 1_545
Li2 O5 2.213693 1_555
Li3 O1 1.879284 1_555
Li3 O12 1.924017 1_555
Li3 O9 2.252167 1_555
Li3 O13 2.351861 1_555
Li3 O14 2.351861 1_555
Li4 O10 2.122406 1_554
Li4 O7 2.122406 1_555
Li4 O17 2.281245 1_655
Li4 O0 2.281245 1_544
Li4 O16 2.493665 1_554
Li4 O1 2.493665 1_555
Li5 O11 2.122406 1_554
Li5 O6 2.122406 1_555
Li5 O0 2.281245 1_454
Li5 O17 2.281245 1_565
Li5 O16 2.493665 1_554
Li5 O1 2.493665 1_555
Mn0 O6 1.949092 1_555
Mn0 O10 1.949092 1_454
Mn0 O8 1.979792 1_554
Mn0 O9 1.979792 1_455
Mn0 O4 2.167955 1_554
Mn0 O14 2.167955 1_455
Mn1 O7 1.949092 1_555
Mn1 O11 1.949092 1_544
Mn1 O8 1.979792 1_554
Mn1 O9 1.979792 1_545
Mn1 O3 2.167955 1_554
Mn1 O13 2.167955 1_545
H0 O2 1.077761 1_555
H0 O17 1.376817 1_665
H1 O9 0.985931 1_555
H2 O8 0.985931 1_555
H3 O15 1.077761 1_555
H3 O0 1.376817 1_445
O0 P0 1.551023 1_555
O1 P1 1.519682 1_555
O2 P0 1.589766 1_555
O3 P0 1.540739 1_545
O4 P0 1.540739 1_455
O5 P1 1.532797 1_555
O6 P1 1.586096 1_555
O7 P1 1.586096 1_555
O10 P2 1.586096 1_555
O11 P2 1.586096 1_555
O12 P2 1.532797 1_555
O13 P3 1.540739 1_565
O14 P3 1.540739 1_655
O15 P3 1.589766 1_555
O16 P2 1.519682 1_555
O17 P3 1.551023 1_555
