# generated using pymatgen
data_Li2VCrP2(HO5)2
_symmetry_space_group_name_H-M   'P 1'
_cell_length_a   5.41996070
_cell_length_b   7.37403791
_cell_length_c   14.30883014
_cell_angle_alpha   86.61053516
_cell_angle_beta   84.80737692
_cell_angle_gamma   106.28750543
_symmetry_Int_Tables_number   1
_chemical_formula_structural   Li2VCrP2(HO5)2
_chemical_formula_sum   'Li6 V3 Cr3 P6 H6 O30'
_cell_volume   544.53629782
_cell_formula_units_Z   3
loop_
 _symmetry_equiv_pos_site_id
 _symmetry_equiv_pos_as_xyz
  1  'x, y, z'
loop_
 _atom_site_type_symbol
 _atom_site_label
 _atom_site_symmetry_multiplicity
 _atom_site_fract_x
 _atom_site_fract_y
 _atom_site_fract_z
 _atom_site_occupancy
  Li  Li0  1  0.14890943  0.57430326  0.24901967  1
  Li  Li1  1  0.18400855  0.75906219  0.41750701  1
  Li  Li2  1  0.48219780  0.90658122  0.91562453  1
  Li  Li3  1  0.51780220  0.09341878  0.08437547  1
  Li  Li4  1  0.81599145  0.24093781  0.58249299  1
  Li  Li5  1  0.85109057  0.42569674  0.75098033  1
  V  V0  1  0.00000000  0.00000000  0.00000000  1
  V  V1  1  0.33282841  0.83301348  0.66646228  1
  V  V2  1  0.66717159  0.16698652  0.33353772  1
  Cr  Cr0  1  0.00000000  0.50000000  0.00000000  1
  Cr  Cr1  1  0.33376117  0.33336482  0.66666201  1
  Cr  Cr2  1  0.66623883  0.66663518  0.33333799  1
  P  P0  1  0.19969064  0.32742822  0.44169089  1
  P  P1  1  0.13469794  0.00614065  0.22590299  1
  P  P2  1  0.53076511  0.65875948  0.10779060  1
  P  P3  1  0.46923489  0.34124052  0.89220940  1
  P  P4  1  0.86530206  0.99385935  0.77409701  1
  P  P5  1  0.80030936  0.67257178  0.55830911  1
  H  H0  1  0.06124431  0.77880218  0.87996312  1
  H  H1  1  0.27222058  0.55057795  0.78644508  1
  H  H2  1  0.60602876  0.88426490  0.45290786  1
  H  H3  1  0.39397124  0.11573510  0.54709214  1
  H  H4  1  0.72777942  0.44942205  0.21355492  1
  H  H5  1  0.93875569  0.22119782  0.12003688  1
  O  O0  1  0.12931334  0.94918727  0.12364068  1
  O  O1  1  0.04271653  0.82417767  0.29616532  1
  O  O2  1  0.03976820  0.86159780  0.75784060  1
  O  O3  1  0.08800319  0.77627802  0.56429509  1
  O  O4  1  0.10107431  0.77622096  0.94620206  1
  O  O5  1  0.24147146  0.55700017  0.10191343  1
  O  O6  1  0.29042919  0.50928379  0.37123091  1
  O  O7  1  0.20663169  0.38512034  0.54395953  1
  O  O8  1  0.22842556  0.55253462  0.72069609  1
  O  O9  1  0.62201683  0.84242322  0.03792142  1
  O  O10  1  0.53747005  0.71689770  0.21017876  1
  O  O11  1  0.56171998  0.88612008  0.38727378  1
  O  O12  1  0.29503394  0.47247470  0.90918452  1
  O  O13  1  0.37355706  0.19514759  0.42470719  1
  O  O14  1  0.57767143  0.88980377  0.76830041  1
  O  O15  1  0.42232857  0.11019623  0.23169959  1
  O  O16  1  0.62644294  0.80485241  0.57529281  1
  O  O17  1  0.70496606  0.52752530  0.09081548  1
  O  O18  1  0.43828002  0.11387992  0.61272622  1
  O  O19  1  0.46252995  0.28310230  0.78982124  1
  O  O20  1  0.37798317  0.15757678  0.96207858  1
  O  O21  1  0.77157444  0.44746538  0.27930391  1
  O  O22  1  0.79336831  0.61487966  0.45604047  1
  O  O23  1  0.70957081  0.49071621  0.62876909  1
  O  O24  1  0.75852754  0.44299983  0.89808657  1
  O  O25  1  0.89892569  0.22377904  0.05379794  1
  O  O26  1  0.91199681  0.22372198  0.43570491  1
  O  O27  1  0.96023180  0.13840220  0.24215940  1
  O  O28  1  0.95728347  0.17582233  0.70383468  1
  O  O29  1  0.87068666  0.05081273  0.87635932  1
loop_
_geom_bond_atom_site_label_1
_geom_bond_atom_site_label_2
_geom_bond_distance
_geom_bond_site_symmetry_2
Li0 O21 1.990955 1_455
Li0 O6 2.055747 1_555
Li0 O10 2.080053 1_555
Li0 O5 2.138963 1_555
Li0 O1 2.202959 1_555
Li1 O11 1.992945 1_555
Li1 O1 2.044490 1_555
Li1 O22 2.091386 1_455
Li1 O3 2.137561 1_555
Li1 O6 2.198781 1_555
Li2 O4 2.013795 1_555
Li2 O9 2.050267 1_556
Li2 O29 2.083132 1_565
Li2 O14 2.143872 1_555
Li2 O20 2.202370 1_565
Li3 O25 2.013795 1_555
Li3 O20 2.050267 1_554
Li3 O0 2.083132 1_545
Li3 O15 2.143872 1_555
Li3 O9 2.202370 1_545
Li4 O18 1.992945 1_555
Li4 O28 2.044490 1_555
Li4 O7 2.091386 1_655
Li4 O26 2.137561 1_555
Li4 O23 2.198781 1_555
Li5 O8 1.990955 1_655
Li5 O23 2.055747 1_555
Li5 O19 2.080053 1_555
Li5 O24 2.138964 1_555
Li5 O28 2.202959 1_555
Cr0 O12 2.030752 1_554
Cr0 O17 2.030752 1_455
Cr0 O5 2.031118 1_555
Cr0 O24 2.031122 1_454
Cr0 O25 2.038104 1_455
Cr0 O4 2.038104 1_554
Cr1 O7 1.997563 1_555
Cr1 O19 2.005126 1_555
Cr1 O18 2.029500 1_555
Cr1 O8 2.030057 1_555
Cr1 O23 2.046753 1_555
Cr1 O28 2.048651 1_455
Cr2 O22 1.997563 1_555
Cr2 O10 2.005126 1_555
Cr2 O11 2.029500 1_555
Cr2 O21 2.030057 1_555
Cr2 O6 2.046753 1_555
Cr2 O1 2.048651 1_655
H0 O4 0.991212 1_555
H1 O8 0.991149 1_555
H2 O11 0.990457 1_555
H3 O18 0.990457 1_555
H4 O21 0.991149 1_555
H5 O25 0.991212 1_555
O0 P1 1.546565 1_565
O0 V0 2.013675 1_565
O1 P1 1.560220 1_565
O2 P4 1.550417 1_455
O2 V1 2.030129 1_555
O3 P5 1.544862 1_455
O3 V1 2.045727 1_555
O4 V0 2.048565 1_566
O5 P2 1.549198 1_555
O6 P0 1.561120 1_555
O7 P0 1.548670 1_555
O8 V1 2.067457 1_555
O9 P2 1.566213 1_555
O9 V0 2.056838 1_665
O10 P2 1.551344 1_555
O11 V2 2.067748 1_565
O12 P3 1.544577 1_555
O13 P0 1.549433 1_555
O13 V2 2.029539 1_555
O14 P4 1.544644 1_555
O14 V1 2.042121 1_555
O15 P1 1.544644 1_555
O15 V2 2.042121 1_555
O16 P5 1.549433 1_555
O16 V1 2.029539 1_555
O17 P2 1.544577 1_555
O18 V1 2.067748 1_545
O19 P3 1.551344 1_555
O20 P3 1.566213 1_555
O20 V0 2.056838 1_556
O21 V2 2.067457 1_555
O22 P5 1.548670 1_555
O23 P5 1.561120 1_555
O24 P3 1.549194 1_555
O25 V0 2.048565 1_655
O26 P0 1.544862 1_655
O26 V2 2.045727 1_555
O27 P1 1.550417 1_655
O27 V2 2.030129 1_555
O28 P4 1.560220 1_545
O29 P4 1.546565 1_545
O29 V0 2.013675 1_656
