# generated using pymatgen
data_FeOF
_symmetry_space_group_name_H-M   'P 1'
_cell_length_a   14.23565694
_cell_length_b   9.46607814
_cell_length_c   3.08564700
_cell_angle_alpha   90.00000000
_cell_angle_beta   90.00000000
_cell_angle_gamma   90.05805150
_symmetry_Int_Tables_number   1
_chemical_formula_structural   FeOF
_chemical_formula_sum   'Fe12 O12 F12'
_cell_volume   415.80874307
_cell_formula_units_Z   12
loop_
 _symmetry_equiv_pos_site_id
 _symmetry_equiv_pos_as_xyz
  1  'x, y, z'
loop_
 _atom_site_type_symbol
 _atom_site_label
 _atom_site_symmetry_multiplicity
 _atom_site_fract_x
 _atom_site_fract_y
 _atom_site_fract_z
 _atom_site_occupancy
  Fe  Fe0  1  0.00482600  0.00724300  0.00000000  1
  Fe  Fe1  1  0.00711900  0.49571500  0.00000000  1
  Fe  Fe2  1  0.15392100  0.25003100  0.50000000  1
  Fe  Fe3  1  0.16698100  0.71809800  0.50000000  1
  Fe  Fe4  1  0.34797200  0.99217300  0.00000000  1
  Fe  Fe5  1  0.33758500  0.51657900  0.00000000  1
  Fe  Fe6  1  0.48783200  0.74644000  0.50000000  1
  Fe  Fe7  1  0.50269700  0.22309400  0.50000000  1
  Fe  Fe8  1  0.66908000  0.00323300  0.00000000  1
  Fe  Fe9  1  0.67590900  0.50233400  0.00000000  1
  Fe  Fe10  1  0.83587900  0.28600600  0.50000000  1
  Fe  Fe11  1  0.81593100  0.75359700  0.50000000  1
  O  O0  1  0.06857000  0.40472500  0.50000000  1
  O  O1  1  0.09855500  0.14603100  0.00000000  1
  O  O2  1  0.09750400  0.65628900  0.00000000  1
  O  O3  1  0.26993500  0.58875500  0.50000000  1
  O  O4  1  0.39765400  0.89217300  0.50000000  1
  O  O5  1  0.43414200  0.15137700  0.00000000  1
  O  O6  1  0.43644600  0.65365500  0.00000000  1
  O  O7  1  0.60681200  0.09786000  0.50000000  1
  O  O8  1  0.72695800  0.40641300  0.50000000  1
  O  O9  1  0.73369700  0.91017200  0.50000000  1
  O  O10  1  0.76651100  0.65703700  0.00000000  1
  O  O11  1  0.90279000  0.35485400  0.00000000  1
  F  F0  1  0.06259500  0.90174000  0.50000000  1
  F  F1  1  0.23334400  0.33605000  0.00000000  1
  F  F2  1  0.22705700  0.84889700  0.00000000  1
  F  F3  1  0.26715400  0.09183200  0.50000000  1
  F  F4  1  0.39927400  0.39886900  0.50000000  1
  F  F5  1  0.56340500  0.35183200  0.00000000  1
  F  F6  1  0.55904900  0.84020100  0.00000000  1
  F  F7  1  0.59590000  0.60170200  0.50000000  1
  F  F8  1  0.77704400  0.15955500  0.00000000  1
  F  F9  1  0.90317600  0.85581700  0.00000000  1
  F  F10  1  0.93290800  0.09345600  0.50000000  1
  F  F11  1  0.93379000  0.60616400  0.50000000  1
loop_
_geom_bond_atom_site_label_1
_geom_bond_atom_site_label_2
_geom_bond_distance
_geom_bond_site_symmetry_2
Fe0 O1 1.871577 1_555
Fe1 O0 1.972047 1_555
Fe1 O0 1.972047 1_554
Fe1 O2 1.990484 1_555
Fe1 O11 1.994929 1_455
Fe2 O0 1.903735 1_555
Fe2 O1 1.992268 1_556
Fe2 O1 1.992268 1_555
Fe3 O3 1.910695 1_555
Fe3 O2 1.923456 1_556
Fe3 O2 1.923456 1_555
Fe4 O5 1.942209 1_565
Fe4 O4 1.943692 1_555
Fe4 O4 1.943692 1_554
Fe5 O6 1.913277 1_555
Fe5 O3 1.943163 1_555
Fe5 O3 1.943163 1_554
Fe6 O4 1.885381 1_555
Fe6 O6 1.919777 1_556
Fe6 O6 1.919777 1_555
Fe7 O7 1.898859 1_555
Fe7 O5 1.947375 1_555
Fe7 O5 1.947375 1_556
Fe8 O7 1.992492 1_554
Fe8 O7 1.992492 1_555
Fe8 O9 2.001031 1_545
Fe8 O9 2.001031 1_544
Fe9 O8 1.932411 1_554
Fe9 O8 1.932411 1_555
Fe9 O10 1.950451 1_555
Fe10 O8 1.925338 1_555
Fe10 O11 1.926417 1_555
Fe10 O11 1.926417 1_556
Fe11 O9 1.889635 1_555
Fe11 O10 1.925987 1_556
Fe11 O10 1.925987 1_555
F0 Fe0 2.013871 1_565
F0 Fe0 2.013871 1_566
F0 Fe3 2.288093 1_555
F1 Fe2 2.078414 1_555
F1 Fe2 2.078414 1_554
F1 Fe5 2.262141 1_555
F2 Fe3 2.154666 1_554
F2 Fe3 2.154666 1_555
F2 Fe4 2.190343 1_555
F3 Fe4 2.143855 1_545
F3 Fe4 2.143855 1_546
F3 Fe2 2.201327 1_555
F4 Fe5 2.096438 1_556
F4 Fe5 2.096438 1_555
F4 Fe7 2.222876 1_555
F5 Fe9 2.142444 1_555
F5 Fe7 2.147123 1_555
F5 Fe7 2.147123 1_554
F6 Fe6 2.047940 1_555
F6 Fe6 2.047940 1_554
F6 Fe8 2.197792 1_565
F7 Fe6 2.061112 1_555
F7 Fe9 2.136476 1_556
F7 Fe9 2.136476 1_555
F8 Fe10 2.124281 1_555
F8 Fe10 2.124281 1_554
F8 Fe8 2.132428 1_555
F9 Fe0 2.035787 1_665
F9 Fe11 2.203792 1_555
F9 Fe11 2.203792 1_554
F10 Fe0 2.023903 1_655
F10 Fe0 2.023903 1_656
F10 Fe10 2.288061 1_555
F11 Fe1 2.136662 1_656
F11 Fe1 2.136662 1_655
F11 Fe11 2.183459 1_555
