# generated using pymatgen
data_LiSbO3
_symmetry_space_group_name_H-M   'P 1'
_cell_length_a   6.62214802
_cell_length_b   5.23438365
_cell_length_c   9.70236377
_cell_angle_alpha   86.94645891
_cell_angle_beta   42.98349199
_cell_angle_gamma   51.17114272
_symmetry_Int_Tables_number   1
_chemical_formula_structural   LiSbO3
_chemical_formula_sum   'Li2 Sb2 O6'
_cell_volume   115.39919355
_cell_formula_units_Z   2
loop_
 _symmetry_equiv_pos_site_id
 _symmetry_equiv_pos_as_xyz
  1  'x, y, z'
loop_
 _atom_site_type_symbol
 _atom_site_label
 _atom_site_symmetry_multiplicity
 _atom_site_fract_x
 _atom_site_fract_y
 _atom_site_fract_z
 _atom_site_occupancy
  Li  Li0  1  0.04301408  0.45666429  0.15557633  1
  Li  Li1  1  0.95511736  0.54341457  0.84523534  1
  Sb  Sb0  1  0.33755852  0.49982200  0.33126193  1
  Sb  Sb1  1  0.66078495  0.50005948  0.66948618  1
  O  O0  1  0.20724578  0.29151581  0.27926871  1
  O  O1  1  0.79102962  0.70834665  0.72151906  1
  O  O2  1  0.67580777  0.17936264  0.55282124  1
  O  O3  1  0.03573988  0.82023912  0.09138268  1
  O  O4  1  0.32243631  0.82050897  0.44797948  1
  O  O5  1  0.96248673  0.17967748  0.90944306  1
loop_
_geom_bond_atom_site_label_1
_geom_bond_atom_site_label_2
_geom_bond_distance
_geom_bond_site_symmetry_2
Li0 O3 1.953112 1_555
Li0 O4 1.954046 1_455
Li0 O0 1.997625 1_555
Li0 O1 2.126110 1_544
Li1 O5 1.953729 1_555
Li1 O2 1.954070 1_655
Li1 O1 1.997105 1_555
Li1 O0 2.125733 1_566
O0 Sb1 2.015497 1_455
O0 Sb0 2.015803 1_555
O1 Sb1 2.015520 1_555
O1 Sb0 2.015811 1_655
O2 Sb1 1.984259 1_555
O2 Sb0 1.990536 1_645
O3 Sb1 1.984848 1_554
O3 Sb0 1.990253 1_465
O4 Sb0 1.983920 1_555
O4 Sb1 1.990591 1_465
O5 Sb0 1.984438 1_556
O5 Sb1 1.990266 1_645
