# generated using pymatgen
data_Li4FeNi5O12
_symmetry_space_group_name_H-M   'P 1'
_cell_length_a   5.02196404
_cell_length_b   4.93583460
_cell_length_c   9.95904849
_cell_angle_alpha   88.99441183
_cell_angle_beta   88.71123666
_cell_angle_gamma   59.54782829
_symmetry_Int_Tables_number   1
_chemical_formula_structural   Li4FeNi5O12
_chemical_formula_sum   'Li4 Fe1 Ni5 O12'
_cell_volume   212.74768401
_cell_formula_units_Z   1
loop_
 _symmetry_equiv_pos_site_id
 _symmetry_equiv_pos_as_xyz
  1  'x, y, z'
loop_
 _atom_site_type_symbol
 _atom_site_label
 _atom_site_symmetry_multiplicity
 _atom_site_fract_x
 _atom_site_fract_y
 _atom_site_fract_z
 _atom_site_occupancy
  Li  Li0  1  0.14986900  0.49781200  0.75217600  1
  Li  Li1  1  0.34656000  0.50352000  0.24900000  1
  Li  Li2  1  0.64788400  0.49364600  0.75082400  1
  Li  Li3  1  0.85296700  0.49330600  0.25055400  1
  Fe  Fe0  1  0.99965000  0.99951500  0.00041900  1
  Ni  Ni0  1  0.16325100  0.66578500  0.50058400  1
  Ni  Ni1  1  0.66414000  0.66895400  0.00048800  1
  Ni  Ni2  1  0.33535000  0.32933400  0.00097600  1
  Ni  Ni3  1  0.83339800  0.32544300  0.50092100  1
  Ni  Ni4  1  0.49518600  0.00169900  0.50064900  1
  O  O0  1  0.02542000  0.64723200  0.10918500  1
  O  O1  1  0.32603300  0.64761300  0.89103800  1
  O  O2  1  0.17024900  0.35919000  0.39290000  1
  O  O3  1  0.49951300  0.64935700  0.39947000  1
  O  O4  1  0.46427300  0.35593100  0.60830400  1
  O  O5  1  0.16711500  0.99307100  0.59470400  1
  O  O6  1  0.84555600  0.64604000  0.60208200  1
  O  O7  1  0.67449800  0.35053200  0.11094000  1
  O  O8  1  0.32917000  0.99705300  0.09787400  1
  O  O9  1  0.97222500  0.35074100  0.89117400  1
  O  O10  1  0.67015400  0.00072000  0.90360900  1
  O  O11  1  0.83035300  0.99658500  0.40671700  1
loop_
_geom_bond_atom_site_label_1
_geom_bond_atom_site_label_2
_geom_bond_distance
_geom_bond_site_symmetry_2
Li0 O9 1.950566 1_455
Li0 O4 1.961906 1_555
Li0 O1 1.998965 1_555
Li0 O6 2.009041 1_455
Li1 O7 1.961367 1_555
Li1 O2 1.972748 1_555
Li1 O0 1.987395 1_555
Li1 O3 2.000970 1_555
Li2 O1 1.957191 1_555
Li2 O9 2.001888 1_555
Li2 O4 2.013690 1_555
Li2 O6 2.096953 1_555
Li3 O0 1.970793 1_655
Li3 O7 1.990942 1_555
Li3 O2 1.996560 1_655
Li3 O3 2.116440 1_555
Fe0 O10 1.931131 1_564
Fe0 O8 1.931856 1_655
Fe0 O9 1.976493 1_564
Fe0 O0 1.981323 1_655
Fe0 O1 1.997613 1_654
Fe0 O7 1.999511 1_565
Ni0 O2 1.855474 1_555
Ni0 O4 1.856617 1_555
Ni0 O5 1.890595 1_555
Ni0 O11 1.893303 1_455
Ni0 O6 1.912679 1_455
Ni0 O3 1.913084 1_555
Ni1 O7 1.881992 1_555
Ni1 O9 1.888634 1_554
Ni1 O10 1.899133 1_564
Ni1 O8 1.900899 1_555
Ni1 O1 2.085878 1_554
Ni1 O0 2.088600 1_655
Ni2 O1 1.880512 1_554
Ni2 O0 1.885292 1_555
Ni2 O10 1.901485 1_554
Ni2 O8 1.901784 1_545
Ni2 O7 2.092769 1_555
Ni2 O9 2.103048 1_454
Ni3 O11 1.895895 1_545
Ni3 O5 1.897924 1_645
Ni3 O6 1.918179 1_555
Ni3 O3 1.921099 1_555
Ni3 O4 2.058244 1_555
Ni3 O2 2.060151 1_655
Ni4 O5 1.895778 1_545
Ni4 O11 1.896268 1_545
Ni4 O4 2.003440 1_555
Ni4 O2 2.005372 1_555
Ni4 O3 2.015569 1_545
Ni4 O6 2.021112 1_545
