# generated using pymatgen
data_Li7Fe3Ni(PO4)6
_symmetry_space_group_name_H-M   'P 1'
_cell_length_a   8.66528190
_cell_length_b   8.66528190
_cell_length_c   8.66528166
_cell_angle_alpha   61.15372303
_cell_angle_beta   61.15372303
_cell_angle_gamma   61.15372428
_symmetry_Int_Tables_number   1
_chemical_formula_structural   Li7Fe3Ni(PO4)6
_chemical_formula_sum   'Li7 Fe3 Ni1 P6 O24'
_cell_volume   472.02351640
_cell_formula_units_Z   1
loop_
 _symmetry_equiv_pos_site_id
 _symmetry_equiv_pos_as_xyz
  1  'x, y, z'
loop_
 _atom_site_type_symbol
 _atom_site_label
 _atom_site_symmetry_multiplicity
 _atom_site_fract_x
 _atom_site_fract_y
 _atom_site_fract_z
 _atom_site_occupancy
  Li  Li0  1  0.56161200  0.29888200  0.75757200  1
  Li  Li1  1  0.29888200  0.75757200  0.56161200  1
  Li  Li2  1  0.15466300  0.33917700  0.79577300  1
  Li  Li3  1  0.75757200  0.56161200  0.29888200  1
  Li  Li4  1  0.79577300  0.15466300  0.33917700  1
  Li  Li5  1  0.33917700  0.79577300  0.15466300  1
  Li  Li6  1  0.00981100  0.00981100  0.00981100  1
  Fe  Fe0  1  0.64628000  0.64628000  0.64628000  1
  Fe  Fe1  1  0.86053300  0.86053300  0.86053300  1
  Fe  Fe2  1  0.35485500  0.35485500  0.35485500  1
  Ni  Ni0  1  0.14860200  0.14860200  0.14860200  1
  P  P0  1  0.25291900  0.54413900  0.95300100  1
  P  P1  1  0.95300100  0.25291900  0.54413900  1
  P  P2  1  0.54413900  0.95300100  0.25291900  1
  P  P3  1  0.45295500  0.04064400  0.75350400  1
  P  P4  1  0.04064400  0.75350400  0.45295500  1
  P  P5  1  0.75350400  0.45295500  0.04064400  1
  O  O0  1  0.08736000  0.72884700  0.94347600  1
  O  O1  1  0.41081400  0.57254300  0.75897400  1
  O  O2  1  0.21529200  0.37972900  0.96801000  1
  O  O3  1  0.11067200  0.31765800  0.49792900  1
  O  O4  1  0.94347600  0.08736000  0.72884700  1
  O  O5  1  0.75897400  0.41081400  0.57254300  1
  O  O6  1  0.49792900  0.11067200  0.31765800  1
  O  O7  1  0.57254300  0.75897400  0.41081400  1
  O  O8  1  0.61959200  0.02749700  0.78934900  1
  O  O9  1  0.27797500  0.03027000  0.93167800  1
  O  O10  1  0.31765800  0.49792900  0.11067200  1
  O  O11  1  0.02749700  0.78934900  0.61959200  1
  O  O12  1  0.96801000  0.21529200  0.37972900  1
  O  O13  1  0.68597300  0.50323200  0.88498900  1
  O  O14  1  0.72884700  0.94347600  0.08736000  1
  O  O15  1  0.37972900  0.96801000  0.21529200  1
  O  O16  1  0.39853900  0.24032900  0.61256300  1
  O  O17  1  0.50323200  0.88498900  0.68597300  1
  O  O18  1  0.24032900  0.61256300  0.39853900  1
  O  O19  1  0.88498900  0.68597300  0.50323200  1
  O  O20  1  0.03027000  0.93167800  0.27797500  1
  O  O21  1  0.78934900  0.61959200  0.02749700  1
  O  O22  1  0.61256300  0.39853900  0.24032900  1
  O  O23  1  0.93167800  0.27797500  0.03027000  1
loop_
_geom_bond_atom_site_label_1
_geom_bond_atom_site_label_2
_geom_bond_distance
_geom_bond_site_symmetry_2
Li0 O5 1.972404 1_555
Li0 O8 2.055971 1_555
Li0 O1 2.086491 1_555
Li1 O1 1.972404 1_555
Li1 O11 2.055971 1_555
Li1 O7 2.086491 1_555
Li2 O16 2.012002 1_555
Li2 O2 2.016873 1_555
Li2 O23 2.074640 1_456
Li2 O9 2.259716 1_555
Li3 O7 1.972405 1_555
Li3 O21 2.055971 1_555
Li3 O5 2.086491 1_555
Li4 O22 2.012002 1_555
Li4 O12 2.016873 1_555
Li4 O20 2.074640 1_645
Li4 O23 2.259716 1_555
Li5 O18 2.012002 1_555
Li5 O15 2.016873 1_555
Li5 O9 2.074640 1_564
Li5 O20 2.259716 1_555
Li6 O20 2.157102 1_545
Li6 O9 2.157102 1_554
Li6 O23 2.157102 1_455
Li6 O4 2.471520 1_454
Li6 O14 2.471520 1_445
Li6 O0 2.471520 1_544
Fe0 O13 1.932476 1_555
Fe0 O19 1.932476 1_555
Fe0 O17 1.932476 1_555
Fe0 O7 2.063571 1_555
Fe0 O1 2.063571 1_555
Fe0 O5 2.063571 1_555
Fe1 O14 2.022253 1_556
Fe1 O4 2.022253 1_565
Fe1 O0 2.022253 1_655
Fe1 O11 2.073532 1_655
Fe1 O21 2.073532 1_556
Fe1 O8 2.073532 1_565
Fe2 O10 1.964505 1_555
Fe2 O3 1.964505 1_555
Fe2 O6 1.964505 1_555
Fe2 O16 2.104688 1_555
Fe2 O22 2.104688 1_555
Fe2 O18 2.104688 1_555
Ni0 O12 2.003482 1_455
Ni0 O2 2.003482 1_554
Ni0 O15 2.003482 1_545
Ni0 O9 2.135123 1_554
Ni0 O20 2.135123 1_545
Ni0 O23 2.135123 1_455
O0 P0 1.548497 1_555
O1 P0 1.570127 1_555
O2 P0 1.543174 1_555
O3 P1 1.528606 1_455
O4 P1 1.548497 1_555
O5 P1 1.570127 1_555
O6 P2 1.528606 1_545
O7 P2 1.570127 1_555
O8 P3 1.560245 1_555
O9 P3 1.558699 1_555
O10 P0 1.528606 1_554
O11 P4 1.560245 1_555
O12 P1 1.543174 1_555
O13 P5 1.516598 1_556
O14 P2 1.548497 1_555
O15 P2 1.543174 1_555
O16 P3 1.561158 1_555
O17 P3 1.516598 1_565
O18 P4 1.561158 1_555
O19 P4 1.516598 1_655
O20 P4 1.558699 1_555
O21 P5 1.560245 1_555
O22 P5 1.561158 1_555
O23 P5 1.558700 1_555
