# generated using pymatgen
data_VOF2
_symmetry_space_group_name_H-M   'P 1'
_cell_length_a   5.07421570
_cell_length_b   5.07421570
_cell_length_c   13.17094398
_cell_angle_alpha   89.43384002
_cell_angle_beta   89.43384002
_cell_angle_gamma   59.72145717
_symmetry_Int_Tables_number   1
_chemical_formula_structural   VOF2
_chemical_formula_sum   'V6 O6 F12'
_cell_volume   292.84065242
_cell_formula_units_Z   6
loop_
 _symmetry_equiv_pos_site_id
 _symmetry_equiv_pos_as_xyz
  1  'x, y, z'
loop_
 _atom_site_type_symbol
 _atom_site_label
 _atom_site_symmetry_multiplicity
 _atom_site_fract_x
 _atom_site_fract_y
 _atom_site_fract_z
 _atom_site_occupancy
  V  V0  1  0.00395329  0.02115259  0.49253123  1
  V  V1  1  0.02115259  0.00395329  -0.00746877  1
  V  V2  1  0.64740940  0.71145684  0.82787156  1
  V  V3  1  0.30402573  0.36806375  0.65823763  1
  V  V4  1  0.71145684  0.64740940  0.32787156  1
  V  V5  1  0.36806375  0.30402573  0.15823763  1
  O  O0  1  0.32396145  0.92560181  0.91925361  1
  O  O1  1  -0.00548002  0.58716808  0.25306248  1
  O  O2  1  0.08654610  0.65356055  0.58213156  1
  O  O3  1  0.58716808  -0.00548002  0.75306248  1
  O  O4  1  0.92560181  0.32396145  0.41925361  1
  O  O5  1  0.65356055  0.08654610  0.08213156  1
  F  F0  1  0.99354599  0.39284349  0.75051062  1
  F  F1  1  0.38556657  0.59867134  0.75578665  1
  F  F2  1  0.33734368  0.72633006  0.41445648  1
  F  F3  1  0.04944741  0.28923408  0.08290713  1
  F  F4  1  0.28923408  0.04944741  0.58290713  1
  F  F5  1  0.59867134  0.38556657  0.25578665  1
  F  F6  1  0.72633006  0.33734368  0.91445648  1
  F  F7  1  0.39284349  0.99354599  0.25051062  1
  F  F8  1  0.25516200  0.68859633  0.09308136  1
  F  F9  1  0.72192112  0.93390736  0.42016971  1
  F  F10  1  0.93390736  0.72192112  0.92016971  1
  F  F11  1  0.68859633  0.25516200  0.59308136  1
loop_
_geom_bond_atom_site_label_1
_geom_bond_atom_site_label_2
_geom_bond_distance
_geom_bond_site_symmetry_2
O0 V1 1.677110 1_566
O0 V2 1.873887 1_555
O1 V4 1.631727 1_455
O1 V5 2.111697 1_555
O2 V3 1.643863 1_555
O2 V0 2.055587 1_565
O3 V2 1.631727 1_545
O3 V3 2.111697 1_555
O4 V0 1.677110 1_655
O4 V4 1.873887 1_555
O5 V5 1.643863 1_555
O5 V1 2.055587 1_655
F0 V3 1.933974 1_655
F0 V2 1.967373 1_555
F1 V3 1.928637 1_555
F1 V2 1.948507 1_555
F2 V0 1.897694 1_565
F2 V4 2.064993 1_555
F3 V5 1.938914 1_555
F3 V1 1.944223 1_555
F4 V3 1.938914 1_555
F4 V0 1.944223 1_555
F5 V5 1.928637 1_555
F5 V4 1.948507 1_555
F6 V1 1.897694 1_656
F6 V2 2.064993 1_555
F7 V5 1.933974 1_565
F7 V4 1.967373 1_555
F8 V5 1.929219 1_555
F8 V1 1.948735 1_565
F9 V4 1.925635 1_555
F9 V0 1.956148 1_665
F10 V2 1.925635 1_555
F10 V1 1.956148 1_666
F11 V3 1.929219 1_555
F11 V0 1.948735 1_655
