# generated using pymatgen
data_Li2MnF4
_symmetry_space_group_name_H-M   'P 1'
_cell_length_a   5.92858327
_cell_length_b   5.92858327
_cell_length_c   5.43434910
_cell_angle_alpha   86.92958237
_cell_angle_beta   86.92958237
_cell_angle_gamma   58.38871624
_symmetry_Int_Tables_number   1
_chemical_formula_structural   Li2MnF4
_chemical_formula_sum   'Li4 Mn2 F8'
_cell_volume   162.35964299
_cell_formula_units_Z   2
loop_
 _symmetry_equiv_pos_site_id
 _symmetry_equiv_pos_as_xyz
  1  'x, y, z'
loop_
 _atom_site_type_symbol
 _atom_site_label
 _atom_site_symmetry_multiplicity
 _atom_site_fract_x
 _atom_site_fract_y
 _atom_site_fract_z
 _atom_site_occupancy
  Li  Li0  1  0.64859400  0.94704100  0.28296400  1
  Li  Li1  1  0.94704100  0.64859400  0.78296400  1
  Li  Li2  1  0.05295900  0.35140600  0.21703600  1
  Li  Li3  1  0.35140600  0.05295900  0.71703600  1
  Mn  Mn0  1  0.33930600  0.66069400  0.25000000  1
  Mn  Mn1  1  0.66069400  0.33930600  0.75000000  1
  F  F0  1  0.28116700  0.01740700  0.38185000  1
  F  F1  1  0.01740700  0.28116700  0.88185000  1
  F  F2  1  0.73002200  0.49868800  0.41153600  1
  F  F3  1  0.49868800  0.73002200  0.91153600  1
  F  F4  1  0.50131200  0.26997800  0.08846400  1
  F  F5  1  0.26997800  0.50131200  0.58846400  1
  F  F6  1  0.98259300  0.71883300  0.11815000  1
  F  F7  1  0.71883300  0.98259300  0.61815000  1
loop_
_geom_bond_atom_site_label_1
_geom_bond_atom_site_label_2
_geom_bond_distance
_geom_bond_site_symmetry_2
F0 Li2 1.919637 1_555
F0 Li3 1.936531 1_555
F0 Li0 2.038107 1_545
F0 Mn0 2.115731 1_545
F1 Li3 1.919637 1_555
F1 Li2 1.936531 1_556
F1 Li1 2.038107 1_455
F1 Mn1 2.115731 1_455
F2 Li2 1.916966 1_655
F2 Mn1 2.141236 1_555
F2 Mn0 2.203179 1_555
F2 Li0 2.505735 1_555
F3 Li3 1.916966 1_565
F3 Mn0 2.141236 1_556
F3 Mn1 2.203179 1_555
F3 Li1 2.505735 1_555
F4 Li0 1.916966 1_545
F4 Mn1 2.141236 1_554
F4 Mn0 2.203179 1_555
F4 Li2 2.505735 1_555
F5 Li1 1.916966 1_455
F5 Mn0 2.141236 1_555
F5 Mn1 2.203179 1_555
F5 Li3 2.505735 1_555
F6 Li0 1.919637 1_555
F6 Li1 1.936531 1_554
F6 Li2 2.038107 1_655
F6 Mn0 2.115731 1_655
F7 Li1 1.919637 1_555
F7 Li0 1.936531 1_555
F7 Li3 2.038107 1_565
F7 Mn1 2.115731 1_565
