# generated using pymatgen
data_Li3Mn(PO4)2
_symmetry_space_group_name_H-M   'P 1'
_cell_length_a   6.05966000
_cell_length_b   9.48100986
_cell_length_c   10.09973215
_cell_angle_alpha   92.23856262
_cell_angle_beta   89.99975156
_cell_angle_gamma   90.00008250
_symmetry_Int_Tables_number   1
_chemical_formula_structural   Li3Mn(PO4)2
_chemical_formula_sum   'Li12 Mn4 P8 O32'
_cell_volume   579.80392998
_cell_formula_units_Z   4
loop_
 _symmetry_equiv_pos_site_id
 _symmetry_equiv_pos_as_xyz
  1  'x, y, z'
loop_
 _atom_site_type_symbol
 _atom_site_label
 _atom_site_symmetry_multiplicity
 _atom_site_fract_x
 _atom_site_fract_y
 _atom_site_fract_z
 _atom_site_occupancy
  Li  Li0  1  0.00000400  0.99999900  0.00000300  1
  Li  Li1  1  0.00000300  0.50000300  0.99999900  1
  Li  Li2  1  0.49999700  0.99999800  0.00000300  1
  Li  Li3  1  0.49999700  0.50000200  0.00000000  1
  Li  Li4  1  0.74999900  0.23785100  0.21532100  1
  Li  Li5  1  0.74999900  0.73783800  0.21533000  1
  Li  Li6  1  0.25000200  0.26216000  0.78466100  1
  Li  Li7  1  0.25000000  0.76214700  0.78467100  1
  Li  Li8  1  0.00000700  0.24999700  0.50000200  1
  Li  Li9  1  0.99998900  0.75000200  0.49999600  1
  Li  Li10  1  0.49999200  0.24999800  0.50000200  1
  Li  Li11  1  0.50001300  0.75000200  0.49999500  1
  Mn  Mn0  1  0.24999800  0.98490000  0.28328700  1
  Mn  Mn1  1  0.75000300  0.01510400  0.71674500  1
  Mn  Mn2  1  0.24999500  0.48487100  0.28325500  1
  Mn  Mn3  1  0.74999900  0.51510300  0.71673700  1
  P  P0  1  0.25000100  0.20253000  0.10369800  1
  P  P1  1  0.24999500  0.70253800  0.10371200  1
  P  P2  1  0.75000200  0.29746700  0.89628800  1
  P  P3  1  0.75000000  0.79746500  0.89630100  1
  P  P4  1  0.74999900  0.46647800  0.40881700  1
  P  P5  1  0.75000400  0.96648200  0.40882200  1
  P  P6  1  0.25000000  0.03352200  0.59119100  1
  P  P7  1  0.24999800  0.53352200  0.59117900  1
  O  O0  1  0.74999700  0.34735100  0.04254400  1
  O  O1  1  0.74999900  0.84734400  0.04255400  1
  O  O2  1  0.25001100  0.15265400  0.95744200  1
  O  O3  1  0.25000300  0.65265800  0.95745200  1
  O  O4  1  0.24999800  0.36912900  0.11675800  1
  O  O5  1  0.25000200  0.86912300  0.11679800  1
  O  O6  1  0.75000600  0.13088100  0.88321900  1
  O  O7  1  0.74999600  0.63086600  0.88323800  1
  O  O8  1  0.75000100  0.12629900  0.41634700  1
  O  O9  1  0.75000300  0.62629400  0.41635000  1
  O  O10  1  0.25000000  0.37370600  0.58364500  1
  O  O11  1  0.25000200  0.87370500  0.58364700  1
  O  O12  1  0.24999800  0.09859500  0.44686700  1
  O  O13  1  0.24999600  0.59858200  0.44685400  1
  O  O14  1  0.75000200  0.40141200  0.55314000  1
  O  O15  1  0.75000400  0.90141900  0.55314900  1
  O  O16  1  0.04700000  0.13675600  0.17384700  1
  O  O17  1  0.04698900  0.63674300  0.17384900  1
  O  O18  1  0.45299500  0.13675400  0.17385300  1
  O  O19  1  0.45299100  0.63673800  0.17385700  1
  O  O20  1  0.54700300  0.36325700  0.82613600  1
  O  O21  1  0.54700500  0.86324700  0.82614900  1
  O  O22  1  0.95300300  0.36326000  0.82614000  1
  O  O23  1  0.95299800  0.86324400  0.82615000  1
  O  O24  1  0.54457400  0.39690000  0.33992100  1
  O  O25  1  0.54457600  0.89690000  0.33993400  1
  O  O26  1  0.95542400  0.39689800  0.33991800  1
  O  O27  1  0.95543700  0.89690200  0.33993400  1
  O  O28  1  0.04456200  0.10310100  0.66007400  1
  O  O29  1  0.04457000  0.60309900  0.66007400  1
  O  O30  1  0.45543300  0.10310200  0.66007200  1
  O  O31  1  0.45542600  0.60310000  0.66007200  1
loop_
_geom_bond_atom_site_label_1
_geom_bond_atom_site_label_2
_geom_bond_distance
_geom_bond_site_symmetry_2
Li0 O1 2.150133 1_455
Li0 O2 2.150164 1_564
Li0 O16 2.160364 1_565
Li0 O23 2.160433 1_454
Li0 O6 2.310908 1_464
Li0 O5 2.310936 1_555
Li1 O3 2.150102 1_555
Li1 O0 2.150104 1_456
Li1 O17 2.160312 1_556
Li1 O22 2.160411 1_455
Li1 O4 2.310720 1_556
Li1 O7 2.310720 1_455
Li2 O2 2.150087 1_564
Li2 O1 2.150119 1_555
Li2 O18 2.160409 1_565
Li2 O21 2.160419 1_554
Li2 O5 2.310909 1_555
Li2 O6 2.310948 1_564
Li3 O0 2.150075 1_555
Li3 O3 2.150091 1_554
Li3 O19 2.160361 1_555
Li3 O20 2.160465 1_554
Li3 O7 2.310690 1_554
Li3 O4 2.310716 1_555
Li4 O0 2.065031 1_555
Li4 O16 2.074076 1_655
Li4 O18 2.074090 1_555
Li4 O26 2.293188 1_555
Li4 O24 2.293213 1_555
Li4 O8 2.325613 1_555
Li5 O1 2.065053 1_555
Li5 O17 2.074031 1_655
Li5 O19 2.074133 1_555
Li5 O25 2.293306 1_555
Li5 O27 2.293371 1_555
Li5 O9 2.325522 1_555
Li6 O2 2.065096 1_555
Li6 O20 2.074087 1_555
Li6 O22 2.074096 1_455
Li6 O30 2.293229 1_555
Li6 O28 2.293257 1_555
Li6 O10 2.325495 1_555
Li7 O3 2.065010 1_555
Li7 O23 2.074099 1_455
Li7 O21 2.074127 1_555
Li7 O31 2.293199 1_555
Li7 O29 2.293211 1_555
Li7 O11 2.325623 1_555
Li8 O10 2.075269 1_555
Li8 O8 2.075316 1_455
Li8 O12 2.140821 1_555
Li8 O14 2.140969 1_455
Li8 O28 2.191378 1_555
Li8 O26 2.191523 1_455
Li9 O9 2.075245 1_555
Li9 O11 2.075358 1_655
Li9 O15 2.140930 1_555
Li9 O13 2.141018 1_655
Li9 O27 2.191324 1_555
Li9 O29 2.191488 1_655
Li10 O10 2.075257 1_555
Li10 O8 2.075332 1_555
Li10 O12 2.140840 1_555
Li10 O14 2.140985 1_555
Li10 O30 2.191364 1_555
Li10 O24 2.191503 1_555
Li11 O9 2.075256 1_555
Li11 O11 2.075350 1_555
Li11 O15 2.140958 1_555
Li11 O13 2.141059 1_555
Li11 O25 2.191310 1_555
Li11 O31 2.191476 1_555
Mn0 O12 1.937090 1_565
Mn0 O5 1.971837 1_555
Mn0 O27 2.060747 1_455
Mn0 O25 2.060851 1_555
Mn0 O18 2.220772 1_565
Mn0 O16 2.220828 1_565
Mn1 O15 1.937175 1_545
Mn1 O6 1.971711 1_555
Mn1 O28 2.060804 1_655
Mn1 O30 2.060878 1_555
Mn1 O21 2.220636 1_545
Mn1 O23 2.220658 1_545
Mn2 O13 1.937329 1_555
Mn2 O4 1.971730 1_555
Mn2 O26 2.060749 1_455
Mn2 O24 2.060798 1_555
Mn2 O19 2.220661 1_555
Mn2 O17 2.220776 1_555
Mn3 O14 1.937213 1_555
Mn3 O7 1.971868 1_555
Mn3 O29 2.060839 1_655
Mn3 O31 2.060866 1_555
Mn3 O20 2.220533 1_555
Mn3 O22 2.220570 1_555
O0 P2 1.533319 1_554
O1 P3 1.533277 1_554
O2 P0 1.533299 1_556
O3 P1 1.533347 1_556
O4 P0 1.579882 1_555
O5 P1 1.579761 1_555
O6 P2 1.579763 1_555
O7 P3 1.579883 1_555
O8 P5 1.514164 1_545
O9 P4 1.514155 1_555
O10 P7 1.514155 1_555
O11 P6 1.514166 1_565
O12 P6 1.604863 1_555
O13 P7 1.604821 1_555
O14 P4 1.604826 1_555
O15 P5 1.604852 1_555
O16 P0 1.561579 1_555
O17 P1 1.561629 1_555
O18 P0 1.561588 1_555
O19 P1 1.561645 1_555
O20 P2 1.561653 1_555
O21 P3 1.561602 1_555
O22 P2 1.561649 1_555
O23 P3 1.561593 1_555
O24 P4 1.559818 1_555
O25 P5 1.559813 1_555
O26 P4 1.559836 1_555
O27 P5 1.559826 1_555
O28 P6 1.559825 1_555
O29 P7 1.559821 1_555
O30 P6 1.559799 1_555
O31 P7 1.559820 1_555
