# generated using pymatgen
data_Li3CoPCO7
_symmetry_space_group_name_H-M   'P 1'
_cell_length_a   5.07676833
_cell_length_b   10.68091953
_cell_length_c   10.68009145
_cell_angle_alpha   104.66150111
_cell_angle_beta   88.42001045
_cell_angle_gamma   91.57086464
_symmetry_Int_Tables_number   1
_chemical_formula_structural   Li3CoPCO7
_chemical_formula_sum   'Li12 Co4 P4 C4 O28'
_cell_volume   559.92775795
_cell_formula_units_Z   4
loop_
 _symmetry_equiv_pos_site_id
 _symmetry_equiv_pos_as_xyz
  1  'x, y, z'
loop_
 _atom_site_type_symbol
 _atom_site_label
 _atom_site_symmetry_multiplicity
 _atom_site_fract_x
 _atom_site_fract_y
 _atom_site_fract_z
 _atom_site_occupancy
  Li  Li0  1  0.04282600  0.76546000  0.75877000  1
  Li  Li1  1  0.04278000  0.26544900  0.25875100  1
  Li  Li2  1  0.95721700  0.00874800  0.01544700  1
  Li  Li3  1  0.95716000  0.50871600  0.51543500  1
  Li  Li4  1  0.42036400  0.00814000  0.19837900  1
  Li  Li5  1  0.42031800  0.50815300  0.69834100  1
  Li  Li6  1  0.57954600  0.94820600  0.75797300  1
  Li  Li7  1  0.57949500  0.44830300  0.25809000  1
  Li  Li8  1  0.44065300  0.93108700  0.46341400  1
  Li  Li9  1  0.44063400  0.43102900  0.96335500  1
  Li  Li10  1  0.55927100  0.21331400  0.68100300  1
  Li  Li11  1  0.55922000  0.71334600  0.18103800  1
  Co  Co0  1  0.04713200  0.72993900  0.00927300  1
  Co  Co1  1  0.95290600  0.25928200  0.97996700  1
  Co  Co2  1  0.04707600  0.22994100  0.50926800  1
  Co  Co3  1  0.95289200  0.75927200  0.47997100  1
  P  P0  1  0.95485700  0.95508600  0.29406700  1
  P  P1  1  0.95475100  0.45511000  0.79405400  1
  P  P2  1  0.04529300  0.04406400  0.70510400  1
  P  P3  1  0.04514800  0.54405900  0.20510200  1
  C  C0  1  0.53808200  0.30822900  0.43130700  1
  C  C1  1  0.53818600  0.80825100  0.93128400  1
  C  C2  1  0.46185900  0.68133400  0.55827000  1
  C  C3  1  0.46186900  0.18131300  0.05826400  1
  O  O0  1  0.37681700  0.34459300  0.35690900  1
  O  O1  1  0.37697300  0.84452600  0.85682000  1
  O  O2  1  0.62309200  0.60688900  0.59456300  1
  O  O3  1  0.62309400  0.10687700  0.09457300  1
  O  O4  1  0.78982900  0.33502300  0.42376600  1
  O  O5  1  0.78991800  0.83508300  0.92378100  1
  O  O6  1  0.21011000  0.67381000  0.58508400  1
  O  O7  1  0.21012400  0.17382000  0.08511600  1
  O  O8  1  0.07259500  0.91113100  0.15347500  1
  O  O9  1  0.07253200  0.41116000  0.65346800  1
  O  O10  1  0.92741200  0.90352800  0.66117400  1
  O  O11  1  0.92731800  0.40351200  0.16116000  1
  O  O12  1  0.03226600  0.10182500  0.33589500  1
  O  O13  1  0.03202500  0.60185900  0.83590000  1
  O  O14  1  0.96833700  0.08593500  0.85190100  1
  O  O15  1  0.96800900  0.58592100  0.35188200  1
  O  O16  1  0.45260700  0.24668400  0.51531000  1
  O  O17  1  0.45268000  0.74673800  0.01532600  1
  O  O18  1  0.54736300  0.76536300  0.49675100  1
  O  O19  1  0.54734900  0.26530900  0.99670100  1
  O  O20  1  0.65387200  0.92671000  0.29735000  1
  O  O21  1  0.65379000  0.42668100  0.79730000  1
  O  O22  1  0.34622600  0.04722200  0.67653000  1
  O  O23  1  0.34610100  0.54725200  0.17659200  1
  O  O24  1  0.09558600  0.88715400  0.38574200  1
  O  O25  1  0.09548600  0.38719800  0.88574600  1
  O  O26  1  0.90453200  0.13579700  0.63725000  1
  O  O27  1  0.90442000  0.63577100  0.13721100  1
loop_
_geom_bond_atom_site_label_1
_geom_bond_atom_site_label_2
_geom_bond_distance
_geom_bond_site_symmetry_2
Li0 O6 2.039597 1_555
Li0 O1 2.063794 1_555
Li0 O13 2.110910 1_555
Li0 O10 2.112738 1_455
Li0 O5 2.138109 1_455
Li1 O7 2.039239 1_555
Li1 O0 2.064041 1_555
Li1 O12 2.111238 1_555
Li1 O11 2.112734 1_455
Li1 O4 2.138186 1_455
Li2 O5 2.039778 1_544
Li2 O3 2.063989 1_555
Li2 O14 2.110628 1_554
Li2 O8 2.112458 1_645
Li2 O7 2.138980 1_655
Li3 O4 2.040084 1_555
Li3 O2 2.063965 1_555
Li3 O15 2.110823 1_555
Li3 O9 2.112051 1_655
Li3 O6 2.139244 1_655
Li4 O3 1.967236 1_555
Li4 O20 1.967255 1_545
Li4 O8 2.028690 1_545
Li4 O12 2.498981 1_555
Li5 O2 1.967134 1_555
Li5 O21 1.967322 1_555
Li5 O9 2.028648 1_555
Li5 O13 2.500031 1_555
Li6 O1 1.966712 1_555
Li6 O22 1.967054 1_565
Li6 O10 2.027604 1_555
Li6 O14 2.503845 1_565
Li7 O0 1.966995 1_555
Li7 O23 1.967163 1_555
Li7 O11 2.028169 1_555
Li7 O15 2.501795 1_555
Li8 O24 1.953265 1_555
Li8 O18 1.983858 1_555
Li8 O20 2.043141 1_555
Li8 O22 2.343568 1_565
Li9 O25 1.953257 1_555
Li9 O19 1.983865 1_555
Li9 O21 2.042954 1_555
Li9 O23 2.345018 1_556
Li10 O26 1.953140 1_555
Li10 O16 1.983563 1_555
Li10 O22 2.043032 1_555
Li10 O21 2.346621 1_555
Li11 O27 1.953186 1_555
Li11 O17 1.983661 1_555
Li11 O23 2.043292 1_555
Li11 O20 2.346770 1_555
Co0 O27 2.001183 1_455
Co0 O13 2.006417 1_554
Co0 O17 2.063140 1_555
Co0 O5 2.113119 1_454
Co0 O8 2.149985 1_555
Co1 O25 2.001205 1_655
Co1 O14 2.006257 1_555
Co1 O19 2.063100 1_555
Co1 O7 2.112984 1_656
Co1 O11 2.150092 1_556
Co2 O26 2.001108 1_455
Co2 O12 2.006522 1_555
Co2 O16 2.063019 1_555
Co2 O4 2.112853 1_455
Co2 O9 2.150179 1_555
Co3 O24 2.001162 1_655
Co3 O15 2.006327 1_555
Co3 O18 2.063009 1_555
Co3 O6 2.112732 1_655
Co3 O10 2.150274 1_555
C0 O0 1.289193 1_555
C0 O16 1.298750 1_555
C0 O4 1.306815 1_555
C1 O1 1.289069 1_555
C1 O17 1.298905 1_556
C1 O5 1.306789 1_555
C2 O2 1.289071 1_555
C2 O18 1.298867 1_555
C2 O6 1.306817 1_555
C3 O3 1.289057 1_555
C3 O19 1.298861 1_554
C3 O7 1.306852 1_555
O8 P0 1.562479 1_455
O9 P1 1.562499 1_455
O10 P2 1.562422 1_665
O11 P3 1.562439 1_655
O12 P0 1.559467 1_445
O13 P1 1.559414 1_455
O14 P2 1.559334 1_655
O15 P3 1.559377 1_655
O20 P0 1.550807 1_555
O21 P1 1.550768 1_555
O22 P2 1.550811 1_555
O23 P3 1.550808 1_555
O24 P0 1.556325 1_455
O25 P1 1.556341 1_455
O26 P2 1.556347 1_655
O27 P3 1.556346 1_655
