# generated using pymatgen
data_K3CaPCO7
_symmetry_space_group_name_H-M   'P 1'
_cell_length_a   7.28391300
_cell_length_b   5.75699200
_cell_length_c   9.90971527
_cell_angle_alpha   88.63908998
_cell_angle_beta   90.00000000
_cell_angle_gamma   90.00000000
_symmetry_Int_Tables_number   1
_chemical_formula_structural   K3CaPCO7
_chemical_formula_sum   'K6 Ca2 P2 C2 O14'
_cell_volume   415.43112514
_cell_formula_units_Z   2
loop_
 _symmetry_equiv_pos_site_id
 _symmetry_equiv_pos_as_xyz
  1  'x, y, z'
loop_
 _atom_site_type_symbol
 _atom_site_label
 _atom_site_symmetry_multiplicity
 _atom_site_fract_x
 _atom_site_fract_y
 _atom_site_fract_z
 _atom_site_occupancy
  K  K0  1  0.25000000  0.76196300  0.91690200  1
  K  K1  1  0.00617600  0.25618600  0.73916100  1
  K  K2  1  0.49382400  0.25618600  0.73916100  1
  K  K3  1  0.50617600  0.74381400  0.26083900  1
  K  K4  1  0.99382400  0.74381400  0.26083900  1
  K  K5  1  0.75000000  0.23803700  0.08309800  1
  Ca  Ca0  1  0.75000000  0.77858600  0.63357900  1
  Ca  Ca1  1  0.25000000  0.22141400  0.36642100  1
  P  P0  1  0.25000000  0.70620500  0.58221100  1
  P  P1  1  0.75000000  0.29379500  0.41778900  1
  C  C0  1  0.75000000  0.73952200  0.92567700  1
  C  C1  1  0.25000000  0.26047800  0.07432300  1
  O  O0  1  0.25000000  0.27274700  0.94318900  1
  O  O1  1  0.75000000  0.94142400  0.86247300  1
  O  O2  1  0.75000000  0.55075100  0.85480400  1
  O  O3  1  0.07529400  0.76665700  0.66601300  1
  O  O4  1  0.42470600  0.76665700  0.66601300  1
  O  O5  1  0.25000000  0.43959900  0.55551500  1
  O  O6  1  0.75000000  0.15708700  0.55536800  1
  O  O7  1  0.25000000  0.84291300  0.44463200  1
  O  O8  1  0.75000000  0.56040100  0.44448500  1
  O  O9  1  0.57529400  0.23334300  0.33398700  1
  O  O10  1  0.92470600  0.23334300  0.33398700  1
  O  O11  1  0.25000000  0.44924900  0.14519600  1
  O  O12  1  0.25000000  0.05857600  0.13752700  1
  O  O13  1  0.75000000  0.72725300  0.05681100  1
loop_
_geom_bond_atom_site_label_1
_geom_bond_atom_site_label_2
_geom_bond_distance
_geom_bond_site_symmetry_2
K0 O4 2.792541 1_555
K0 O3 2.792541 1_555
K0 O12 2.805935 1_566
K0 O0 2.822267 1_555
K0 O11 2.857572 1_556
K0 O0 2.958251 1_565
K1 O6 2.678419 1_455
K1 O0 2.694497 1_555
K1 O5 2.736745 1_555
K1 O2 2.786250 1_455
K1 O1 2.855439 1_445
K1 O3 2.969558 1_545
K1 O3 3.051906 1_555
K2 O6 2.678419 1_555
K2 O0 2.694497 1_555
K2 O5 2.736745 1_555
K2 O2 2.786250 1_555
K2 O1 2.855439 1_545
K2 O4 2.969558 1_545
K2 O4 3.051906 1_555
K3 O7 2.678419 1_555
K3 O13 2.694497 1_555
K3 O8 2.736745 1_555
K3 O11 2.786250 1_555
K3 O12 2.855439 1_565
K3 O9 2.969558 1_565
K3 O9 3.051906 1_555
K4 O7 2.678419 1_655
K4 O13 2.694497 1_555
K4 O8 2.736745 1_555
K4 O11 2.786250 1_655
K4 O12 2.855439 1_665
K4 O10 2.969558 1_565
K4 O10 3.051906 1_555
K5 O10 2.792541 1_555
K5 O9 2.792541 1_555
K5 O1 2.805935 1_544
K5 O13 2.822267 1_555
K5 O2 2.857572 1_554
K5 O13 2.958251 1_545
Ca0 O8 2.280558 1_555
Ca0 O6 2.295352 1_565
Ca0 O3 2.391880 1_655
Ca0 O4 2.391880 1_555
Ca0 O1 2.474853 1_555
Ca0 O2 2.527825 1_555
Ca1 O5 2.280558 1_555
Ca1 O7 2.295352 1_545
Ca1 O9 2.391880 1_555
Ca1 O10 2.391880 1_455
Ca1 O12 2.474853 1_555
Ca1 O11 2.527825 1_555
C0 O13 1.299743 1_556
C0 O1 1.307198 1_555
C0 O2 1.307883 1_555
C1 O0 1.299743 1_554
C1 O12 1.307198 1_555
C1 O11 1.307883 1_555
O3 P0 1.563287 1_555
O4 P0 1.563287 1_555
O5 P0 1.563660 1_555
O6 P1 1.557953 1_555
O7 P0 1.557953 1_555
O8 P1 1.563660 1_555
O9 P1 1.563287 1_555
O10 P1 1.563287 1_555
