# generated using pymatgen
data_Li4V3Sn3(SbO8)2
_symmetry_space_group_name_H-M   'P 1'
_cell_length_a   6.24541040
_cell_length_b   6.13406107
_cell_length_c   10.28018817
_cell_angle_alpha   90.00817645
_cell_angle_beta   89.43896640
_cell_angle_gamma   119.40854007
_symmetry_Int_Tables_number   1
_chemical_formula_structural   Li4V3Sn3(SbO8)2
_chemical_formula_sum   'Li4 V3 Sn3 Sb2 O16'
_cell_volume   343.06101041
_cell_formula_units_Z   1
loop_
 _symmetry_equiv_pos_site_id
 _symmetry_equiv_pos_as_xyz
  1  'x, y, z'
loop_
 _atom_site_type_symbol
 _atom_site_label
 _atom_site_symmetry_multiplicity
 _atom_site_fract_x
 _atom_site_fract_y
 _atom_site_fract_z
 _atom_site_occupancy
  Li  Li0  1  0.34253300  0.67130600  0.89200200  1
  Li  Li1  1  0.97985700  0.98991700  0.99152400  1
  Li  Li2  1  0.98643500  0.99321500  0.50008100  1
  Li  Li3  1  0.66749300  0.33372400  0.39888500  1
  V  V0  1  0.65972800  0.82983500  0.21754600  1
  V  V1  1  0.82883500  0.65198600  0.71501400  1
  V  V2  1  0.82885600  0.17694900  0.71499700  1
  Sn  Sn0  1  0.16814200  0.83303000  0.21542200  1
  Sn  Sn1  1  0.16816200  0.33511200  0.21538700  1
  Sn  Sn2  1  0.32973800  0.16492200  0.71488100  1
  Sb  Sb0  1  0.33662800  0.66837100  0.49976200  1
  Sb  Sb1  1  0.67357200  0.33677000  0.99045100  1
  O  O0  1  0.14363200  0.83124200  0.60116700  1
  O  O1  1  0.03475400  0.51731300  0.34250100  1
  O  O2  1  0.33569900  0.66789300  0.10475900  1
  O  O3  1  0.99382100  0.99690700  0.31866200  1
  O  O4  1  0.99718300  0.99861400  0.81230600  1
  O  O5  1  0.14360900  0.31233300  0.60119600  1
  O  O6  1  0.49346500  0.97513300  0.32298400  1
  O  O7  1  0.49360000  0.51836300  0.32287700  1
  O  O8  1  0.30567200  0.15282100  0.09319100  1
  O  O9  1  0.71263800  0.85636200  0.62258900  1
  O  O10  1  0.52967100  0.49404800  0.82875300  1
  O  O11  1  0.52955600  0.03567800  0.82879800  1
  O  O12  1  0.65922500  0.32958300  0.60511000  1
  O  O13  1  0.84192200  0.69467400  0.10758800  1
  O  O14  1  0.97377800  0.48692500  0.82182800  1
  O  O15  1  0.84179500  0.14727600  0.10758000  1
loop_
_geom_bond_atom_site_label_1
_geom_bond_atom_site_label_2
_geom_bond_distance
_geom_bond_site_symmetry_2
Li0 O11 2.050312 1_565
Li0 O10 2.050349 1_555
Li0 O14 2.139580 1_455
Li0 O2 2.187083 1_556
Li1 O4 1.843754 1_555
Li1 O13 1.973305 1_556
Li1 O15 1.973705 1_566
Li1 O8 2.067837 1_666
Li2 O3 1.865006 1_555
Li2 O9 1.939903 1_555
Li2 O5 2.002052 1_665
Li2 O0 2.002277 1_655
Li3 O6 2.072856 1_545
Li3 O7 2.073068 1_555
Li3 O1 2.074285 1_655
Li3 O12 2.120007 1_555
O0 V1 2.067944 1_455
O0 Sn2 2.143952 1_565
O0 Sb0 2.166887 1_555
O1 Sn1 2.131589 1_555
O1 Sn0 2.132182 1_555
O1 Sb0 2.317395 1_555
O2 Sn0 2.105412 1_555
O2 Sn1 2.105919 1_555
O2 V0 2.120823 1_555
O3 Sn0 2.091418 1_655
O3 Sn1 2.091940 1_665
O3 V0 2.103964 1_555
O4 Sn2 2.058215 1_665
O4 V1 2.109796 1_555
O4 V2 2.110172 1_565
O5 V2 2.067503 1_455
O5 Sn2 2.143355 1_555
O5 Sb0 2.168118 1_555
O6 V0 1.983441 1_555
O6 Sn0 2.101206 1_555
O6 Sb0 2.441080 1_555
O7 V0 1.982717 1_555
O7 Sn1 2.101324 1_555
O7 Sb0 2.442319 1_555
O8 Sn1 2.118365 1_555
O8 Sn0 2.118851 1_545
O8 Sb1 2.252727 1_554
O9 V2 1.976770 1_565
O9 V1 1.976960 1_555
O9 Sb0 2.415997 1_555
O10 V1 1.994131 1_555
O10 Sn2 2.134866 1_555
O10 Sb1 2.320097 1_555
O11 V2 1.995088 1_555
O11 Sn2 2.134909 1_555
O11 Sb1 2.319212 1_555
O12 V2 2.067107 1_555
O12 V1 2.067644 1_555
O12 Sn2 2.107549 1_555
O13 V0 2.039840 1_555
O13 Sn0 2.108541 1_655
O13 Sb1 2.265503 1_554
O14 V2 1.992354 1_555
O14 V1 1.992542 1_555
O14 Sb1 2.368427 1_555
O15 V0 2.040478 1_545
O15 Sn1 2.109018 1_655
O15 Sb1 2.264788 1_554
