# generated using pymatgen
data_Li8FeO5F
_symmetry_space_group_name_H-M   'P 1'
_cell_length_a   5.39511700
_cell_length_b   5.44681271
_cell_length_c   5.92697717
_cell_angle_alpha   90.95134912
_cell_angle_beta   115.29018141
_cell_angle_gamma   116.91136988
_symmetry_Int_Tables_number   1
_chemical_formula_structural   Li8FeO5F
_chemical_formula_sum   'Li8 Fe1 O5 F1'
_cell_volume   135.57910706
_cell_formula_units_Z   1
loop_
 _symmetry_equiv_pos_site_id
 _symmetry_equiv_pos_as_xyz
  1  'x, y, z'
loop_
 _atom_site_type_symbol
 _atom_site_label
 _atom_site_symmetry_multiplicity
 _atom_site_fract_x
 _atom_site_fract_y
 _atom_site_fract_z
 _atom_site_occupancy
  Li  Li0  1  0.24497900  0.47411300  0.35569400  1
  Li  Li1  1  0.12679900  0.23300000  0.65841600  1
  Li  Li2  1  0.40337500  0.89487000  0.63608400  1
  Li  Li3  1  0.72123900  0.34561700  0.01605800  1
  Li  Li4  1  0.29762300  0.67536400  0.96898000  1
  Li  Li5  1  0.57977800  0.09559800  0.34605000  1
  Li  Li6  1  0.90129200  0.79509300  0.36949800  1
  Li  Li7  1  0.75681100  0.51564700  0.64835900  1
  Fe  Fe0  1  0.93253100  0.94809100  0.96834600  1
  O  O0  1  0.51002200  0.60091800  0.76211800  1
  O  O1  1  0.86953600  0.10203900  0.24075300  1
  O  O2  1  0.16004600  0.76845900  0.23286800  1
  O  O3  1  0.83087700  0.22224200  0.76184200  1
  O  O4  1  0.12785600  0.89970100  0.75810900  1
  F  F0  1  0.53723400  0.42924800  0.27682600  1
loop_
_geom_bond_atom_site_label_1
_geom_bond_atom_site_label_2
_geom_bond_distance
_geom_bond_site_symmetry_2
Li0 O2 1.931087 1_555
Li0 O1 1.932186 1_455
Li0 O0 2.105255 1_555
Li1 O3 1.918548 1_455
Li1 O4 1.920162 1_545
Li1 O0 1.947083 1_555
Li1 O1 2.161659 1_455
Li2 O4 1.920062 1_555
Li2 O3 1.954195 1_565
Li2 O0 1.989723 1_555
Li2 O2 2.086966 1_555
Li3 O3 2.039460 1_554
Li3 O1 2.069561 1_555
Li3 O2 2.219716 1_655
Li3 O0 2.352892 1_554
Li4 O4 1.994945 1_555
Li4 O2 2.135551 1_556
Li4 O0 2.141336 1_555
Li4 O3 2.360449 1_455
Li4 O1 2.579573 1_566
Li5 O1 1.902427 1_555
Li5 O2 1.939794 1_545
Li5 O3 2.151617 1_555
Li6 O1 1.896511 1_565
Li6 O2 1.941903 1_655
Li6 O4 2.011062 1_655
Li7 O3 1.884199 1_555
Li7 O0 1.938948 1_555
Li7 O4 1.964162 1_655
Fe0 O0 1.976525 1_555
Fe0 O4 2.023637 1_655
Fe0 O1 2.026638 1_566
Fe0 O3 2.063278 1_565
Fe0 O2 2.101399 1_656
F0 Li6 1.905062 1_555
F0 Li7 1.925103 1_555
F0 Li0 1.933677 1_555
F0 Li5 1.961020 1_555
F0 Li3 2.297541 1_555
F0 Li4 2.536142 1_554
