# generated using pymatgen
data_Ce3Th3O11
_symmetry_space_group_name_H-M   'P 1'
_cell_length_a   3.93259416
_cell_length_b   6.87375209
_cell_length_c   9.67567413
_cell_angle_alpha   90.04352857
_cell_angle_beta   90.00000000
_cell_angle_gamma   90.00000000
_symmetry_Int_Tables_number   1
_chemical_formula_structural   Ce3Th3O11
_chemical_formula_sum   'Ce3 Th3 O11'
_cell_volume   261.54962560
_cell_formula_units_Z   1
loop_
 _symmetry_equiv_pos_site_id
 _symmetry_equiv_pos_as_xyz
  1  'x, y, z'
loop_
 _atom_site_type_symbol
 _atom_site_label
 _atom_site_symmetry_multiplicity
 _atom_site_fract_x
 _atom_site_fract_y
 _atom_site_fract_z
 _atom_site_occupancy
  Ce  Ce0  1  0.50000000  0.83025200  0.65586500  1
  Ce  Ce1  1  0.50000000  0.48452700  0.00021100  1
  Ce  Ce2  1  0.00000000  0.01283100  0.00628800  1
  Th  Th0  1  0.00000000  0.33819200  0.67268000  1
  Th  Th1  1  0.00000000  0.66786900  0.32855600  1
  Th  Th2  1  0.50000000  0.16686800  0.33559500  1
  O  O0  1  0.50000000  0.83307200  0.41311100  1
  O  O1  1  0.00000000  0.33154500  0.91795900  1
  O  O2  1  0.50000000  0.51641300  0.75854600  1
  O  O3  1  0.00000000  0.66208500  0.57603800  1
  O  O4  1  0.00000000  0.98032300  0.76778700  1
  O  O5  1  0.50000000  0.17130900  0.58907200  1
  O  O6  1  0.00000000  0.33396000  0.41759900  1
  O  O7  1  0.50000000  0.49712500  0.24531600  1
  O  O8  1  0.00000000  0.68603400  0.06569300  1
  O  O9  1  0.00000000  0.00308200  0.25483300  1
  O  O10  1  0.50000000  0.15118100  0.07818500  1
loop_
_geom_bond_atom_site_label_1
_geom_bond_atom_site_label_2
_geom_bond_distance
_geom_bond_site_symmetry_2
Ce0 O0 2.348903 1_555
Ce0 O2 2.375721 1_555
Ce0 O3 2.407848 1_555
Ce0 O3 2.407848 1_655
Ce0 O5 2.432262 1_565
Ce0 O4 2.470110 1_555
Ce0 O4 2.470110 1_655
Ce1 O2 2.348687 1_554
Ce1 O1 2.367319 1_654
Ce1 O1 2.367319 1_554
Ce1 O7 2.373071 1_555
Ce1 O10 2.412893 1_555
Ce1 O8 2.486955 1_555
Ce1 O8 2.486955 1_655
Ce2 O10 2.292078 1_455
Ce2 O10 2.292078 1_555
Ce2 O4 2.318282 1_544
Ce2 O8 2.319116 1_545
Ce2 O1 2.352168 1_554
Ce2 O9 2.405825 1_555
O0 Th1 2.413245 1_555
O0 Th1 2.413245 1_655
O0 Th2 2.414448 1_565
O1 Th0 2.373714 1_555
O2 Th0 2.460846 1_655
O2 Th0 2.460846 1_555
O3 Th1 2.394915 1_555
O3 Th0 2.415411 1_555
O4 Th0 2.627047 1_565
O5 Th0 2.415617 1_655
O5 Th0 2.415617 1_555
O5 Th2 2.452728 1_555
O6 Th2 2.411153 1_555
O6 Th2 2.411153 1_455
O6 Th1 2.452194 1_555
O6 Th0 2.468230 1_555
O7 Th1 2.427143 1_555
O7 Th1 2.427143 1_655
O7 Th2 2.432983 1_555
O8 Th1 2.546535 1_555
O9 Th2 2.396476 1_455
O9 Th2 2.396476 1_555
O9 Th1 2.412577 1_545
O10 Th2 2.492867 1_555
