# generated using pymatgen
data_Li7CrFe3(PO4)6
_symmetry_space_group_name_H-M   'P 1'
_cell_length_a   8.78494065
_cell_length_b   8.78494065
_cell_length_c   8.78494041
_cell_angle_alpha   60.34894014
_cell_angle_beta   60.34894014
_cell_angle_gamma   60.34894294
_symmetry_Int_Tables_number   1
_chemical_formula_structural   Li7CrFe3(PO4)6
_chemical_formula_sum   'Li7 Cr1 Fe3 P6 O24'
_cell_volume   483.18811950
_cell_formula_units_Z   1
loop_
 _symmetry_equiv_pos_site_id
 _symmetry_equiv_pos_as_xyz
  1  'x, y, z'
loop_
 _atom_site_type_symbol
 _atom_site_label
 _atom_site_symmetry_multiplicity
 _atom_site_fract_x
 _atom_site_fract_y
 _atom_site_fract_z
 _atom_site_occupancy
  Li  Li0  1  0.70639600  0.34572700  0.16382300  1
  Li  Li1  1  0.16382300  0.70639600  0.34572700  1
  Li  Li2  1  0.34572700  0.16382300  0.70639600  1
  Li  Li3  1  0.52050200  0.52050200  0.52050200  1
  Li  Li4  1  0.75547500  0.93951600  0.19744600  1
  Li  Li5  1  0.93951600  0.19744600  0.75547500  1
  Li  Li6  1  0.19744600  0.75547500  0.93951600  1
  Cr  Cr0  1  0.85532200  0.85532200  0.85532200  1
  Fe  Fe0  1  0.34828700  0.34828700  0.34828700  1
  Fe  Fe1  1  0.14603700  0.14603700  0.14603700  1
  Fe  Fe2  1  0.64674400  0.64674400  0.64674400  1
  P  P0  1  0.46187300  0.74943900  0.04270500  1
  P  P1  1  0.74943900  0.04270500  0.46187300  1
  P  P2  1  0.04270500  0.46187300  0.74943900  1
  P  P3  1  0.95380700  0.54656200  0.24785300  1
  P  P4  1  0.24785300  0.95380700  0.54656200  1
  P  P5  1  0.54656200  0.24785300  0.95380700  1
  O  O0  1  0.26465100  0.89645800  0.09274900  1
  O  O1  1  0.62183800  0.80290400  0.99900300  1
  O  O2  1  0.46186000  0.57060800  0.21452300  1
  O  O3  1  0.72383400  0.87283200  0.47118900  1
  O  O4  1  0.89645800  0.09274900  0.26465100  1
  O  O5  1  0.57060800  0.21452300  0.46186000  1
  O  O6  1  0.87283200  0.47118900  0.72383400  1
  O  O7  1  0.21452300  0.46186000  0.57060800  1
  O  O8  1  0.99450800  0.38594000  0.19363300  1
  O  O9  1  0.92996300  0.73755000  0.08418800  1
  O  O10  1  0.47118900  0.72383400  0.87283200  1
  O  O11  1  0.19363300  0.99450800  0.38594000  1
  O  O12  1  0.80290400  0.99900300  0.62183800  1
  O  O13  1  0.53540400  0.28091600  0.11551600  1
  O  O14  1  0.09274900  0.26465100  0.89645800  1
  O  O15  1  0.99900300  0.62183800  0.80290400  1
  O  O16  1  0.77116800  0.56289900  0.41570700  1
  O  O17  1  0.11551600  0.53540400  0.28091600  1
  O  O18  1  0.41570700  0.77116800  0.56289900  1
  O  O19  1  0.08418800  0.92996300  0.73755000  1
  O  O20  1  0.28091600  0.11551600  0.53540400  1
  O  O21  1  0.38594000  0.19363300  0.99450800  1
  O  O22  1  0.56289900  0.41570700  0.77116800  1
  O  O23  1  0.73755000  0.08418800  0.92996300  1
loop_
_geom_bond_atom_site_label_1
_geom_bond_atom_site_label_2
_geom_bond_distance
_geom_bond_site_symmetry_2
Li0 O4 2.087004 1_555
Li0 O2 2.107350 1_555
Li0 O13 2.115838 1_555
Li0 O5 2.211537 1_555
Li1 O0 2.087004 1_555
Li1 O7 2.107350 1_555
Li1 O17 2.115838 1_555
Li1 O2 2.211537 1_555
Li2 O14 2.087004 1_555
Li2 O5 2.107350 1_555
Li2 O20 2.115838 1_555
Li2 O7 2.211537 1_555
Li3 O22 2.074086 1_555
Li3 O16 2.074086 1_555
Li3 O18 2.074086 1_555
Li4 O9 2.008558 1_555
Li4 O3 2.075914 1_555
Li4 O23 2.091631 1_564
Li5 O23 2.008558 1_555
Li5 O6 2.075914 1_555
Li5 O19 2.091631 1_645
Li6 O19 2.008558 1_555
Li6 O10 2.075914 1_555
Li6 O9 2.091631 1_456
Cr0 O12 1.951987 1_555
Cr0 O1 1.951987 1_555
Cr0 O15 1.951987 1_555
Cr0 O9 2.029236 1_556
Cr0 O19 2.029236 1_655
Cr0 O23 2.029236 1_565
Fe0 O20 2.035417 1_555
Fe0 O13 2.035417 1_555
Fe0 O17 2.035417 1_555
Fe0 O2 2.165187 1_555
Fe0 O7 2.165187 1_555
Fe0 O5 2.165187 1_555
Fe1 O11 1.983404 1_545
Fe1 O21 1.983404 1_554
Fe1 O8 1.983404 1_455
Fe1 O14 2.093931 1_554
Fe1 O4 2.093931 1_455
Fe1 O0 2.093932 1_545
Fe2 O3 2.012138 1_555
Fe2 O10 2.012138 1_555
Fe2 O6 2.012138 1_555
Fe2 O16 2.084293 1_555
Fe2 O22 2.084293 1_555
Fe2 O18 2.084293 1_555
O0 P0 1.567582 1_555
O1 P0 1.511178 1_556
O2 P0 1.549250 1_555
O3 P1 1.573977 1_565
O4 P1 1.567582 1_555
O5 P1 1.549250 1_555
O6 P2 1.573977 1_655
O7 P2 1.549250 1_555
O8 P3 1.530719 1_555
O9 P3 1.577841 1_555
O10 P0 1.573977 1_556
O11 P4 1.530719 1_555
O12 P1 1.511178 1_565
O13 P5 1.534406 1_554
O14 P2 1.567582 1_555
O15 P2 1.511178 1_655
O16 P3 1.552405 1_555
O17 P3 1.534406 1_455
O18 P4 1.552405 1_555
O19 P4 1.577841 1_555
O20 P4 1.534406 1_545
O21 P5 1.530719 1_555
O22 P5 1.552405 1_555
O23 P5 1.577841 1_555
