# generated using pymatgen
data_LiMnOF2
_symmetry_space_group_name_H-M   'P 1'
_cell_length_a   5.21870935
_cell_length_b   9.85364434
_cell_length_c   5.21111332
_cell_angle_alpha   105.03955979
_cell_angle_beta   120.51037826
_cell_angle_gamma   75.59145648
_symmetry_Int_Tables_number   1
_chemical_formula_structural   LiMnOF2
_chemical_formula_sum   'Li4 Mn4 O4 F8'
_cell_volume   220.74143256
_cell_formula_units_Z   4
loop_
 _symmetry_equiv_pos_site_id
 _symmetry_equiv_pos_as_xyz
  1  'x, y, z'
loop_
 _atom_site_type_symbol
 _atom_site_label
 _atom_site_symmetry_multiplicity
 _atom_site_fract_x
 _atom_site_fract_y
 _atom_site_fract_z
 _atom_site_occupancy
  Li  Li0  1  0.57090500  0.29877200  0.45170500  1
  Li  Li1  1  0.92909500  0.20122800  0.04829500  1
  Li  Li2  1  0.45585300  0.70115500  0.57841700  1
  Li  Li3  1  0.04414700  0.79884500  0.92158300  1
  Mn  Mn0  1  0.35920100  0.01379600  0.68313000  1
  Mn  Mn1  1  0.14079900  0.48620400  0.81687000  1
  Mn  Mn2  1  0.83656800  0.51368700  0.17842800  1
  Mn  Mn3  1  0.66343200  0.98631300  0.32157200  1
  O  O0  1  0.62400800  0.10177000  0.65577100  1
  O  O1  1  0.83420600  0.60562300  0.54669400  1
  O  O2  1  0.66579400  0.89437700  0.95330600  1
  O  O3  1  0.87599200  0.39823000  0.84422900  1
  F  F0  1  0.11807500  0.63428600  0.20525800  1
  F  F1  1  0.31864200  0.13075100  0.07007900  1
  F  F2  1  0.18135800  0.36924900  0.42992100  1
  F  F3  1  0.53169300  0.37965600  0.10282900  1
  F  F4  1  0.06869400  0.88556400  0.61778600  1
  F  F5  1  0.38192500  0.86571400  0.29474200  1
  F  F6  1  0.96830700  0.12034400  0.39717100  1
  F  F7  1  0.43130600  0.61443600  0.88221400  1
loop_
_geom_bond_atom_site_label_1
_geom_bond_atom_site_label_2
_geom_bond_distance
_geom_bond_site_symmetry_2
Li0 O3 2.027011 1_555
Li0 O0 2.340981 1_555
Li1 O0 2.027011 1_554
Li1 O3 2.340981 1_554
Li2 O1 2.034163 1_555
Li2 O2 2.361433 1_555
Li3 O2 2.034163 1_455
Li3 O1 2.361433 1_455
Mn0 O0 1.882008 1_555
Mn0 O2 1.887427 1_545
Mn1 O3 1.882008 1_455
Mn1 O1 1.887427 1_455
Mn2 O3 1.894390 1_554
Mn2 O1 1.902603 1_555
Mn3 O0 1.894390 1_565
Mn3 O2 1.902603 1_554
F0 Li2 1.937878 1_555
F0 Mn2 2.040589 1_455
F0 Mn1 2.205548 1_554
F0 Li3 2.305847 1_554
F1 Li1 1.931827 1_455
F1 Mn3 2.068800 1_545
F1 Mn0 2.131879 1_554
F1 Li0 2.268642 1_555
F2 Li0 1.931827 1_555
F2 Mn2 2.068800 1_455
F2 Mn1 2.131879 1_555
F2 Li1 2.268642 1_455
F3 Mn1 2.035608 1_554
F3 Li0 2.067699 1_555
F3 Mn2 2.137795 1_555
F3 Li1 2.448993 1_555
F4 Li3 2.053120 1_555
F4 Mn0 2.053499 1_565
F4 Mn3 2.068028 1_455
F4 Li2 2.413820 1_555
F5 Li3 1.937878 1_554
F5 Mn3 2.040589 1_555
F5 Mn0 2.205548 1_565
F5 Li2 2.305847 1_555
F6 Mn0 2.035608 1_655
F6 Li1 2.067699 1_555
F6 Mn3 2.137795 1_545
F6 Li0 2.448993 1_555
F7 Li2 2.053120 1_555
F7 Mn1 2.053499 1_555
F7 Mn2 2.068028 1_556
F7 Li3 2.413820 1_555
