# generated using pymatgen
data_Li4TiMn4(Fe2O9)2
_symmetry_space_group_name_H-M   'P 1'
_cell_length_a   2.90670800
_cell_length_b   9.03578200
_cell_length_c   24.55745400
_cell_angle_alpha   90.00000000
_cell_angle_beta   90.00000000
_cell_angle_gamma   90.00000000
_symmetry_Int_Tables_number   1
_chemical_formula_structural   Li4TiMn4(Fe2O9)2
_chemical_formula_sum   'Li8 Ti2 Mn8 Fe8 O36'
_cell_volume   644.98629941
_cell_formula_units_Z   2
loop_
 _symmetry_equiv_pos_site_id
 _symmetry_equiv_pos_as_xyz
  1  'x, y, z'
loop_
 _atom_site_type_symbol
 _atom_site_label
 _atom_site_symmetry_multiplicity
 _atom_site_fract_x
 _atom_site_fract_y
 _atom_site_fract_z
 _atom_site_occupancy
  Li  Li0  1  0.00000000  0.92469700  0.99504300  1
  Li  Li1  1  0.00000000  0.95046300  0.20655400  1
  Li  Li2  1  0.00000000  0.04953700  0.70655400  1
  Li  Li3  1  0.00000000  0.07530300  0.49504300  1
  Li  Li4  1  0.00000000  0.43982500  0.51981100  1
  Li  Li5  1  0.00000000  0.44108900  0.29788100  1
  Li  Li6  1  0.00000000  0.55891100  0.79788100  1
  Li  Li7  1  0.00000000  0.56017500  0.01981100  1
  Ti  Ti0  1  0.00000000  0.25785100  0.39806800  1
  Ti  Ti1  1  0.00000000  0.74214900  0.89806800  1
  Mn  Mn0  1  0.00000000  0.75031800  0.50075200  1
  Mn  Mn1  1  0.00000000  0.76104300  0.10574900  1
  Mn  Mn2  1  0.50000000  0.90158900  0.80647900  1
  Mn  Mn3  1  0.50000000  0.09841100  0.30647900  1
  Mn  Mn4  1  0.00000000  0.23895700  0.60574900  1
  Mn  Mn5  1  0.00000000  0.24968200  0.00075200  1
  Mn  Mn6  1  0.50000000  0.40391500  0.69100800  1
  Mn  Mn7  1  0.50000000  0.59608500  0.19100800  1
  Fe  Fe0  1  0.00000000  0.76088300  0.30730800  1
  Fe  Fe1  1  0.50000000  0.90089500  0.58544900  1
  Fe  Fe2  1  0.50000000  0.09910500  0.08544900  1
  Fe  Fe3  1  0.00000000  0.23911700  0.80730800  1
  Fe  Fe4  1  0.00000000  0.25493700  0.18847300  1
  Fe  Fe5  1  0.50000000  0.39450600  0.91445700  1
  Fe  Fe6  1  0.50000000  0.60549400  0.41445700  1
  Fe  Fe7  1  0.00000000  0.74506300  0.68847300  1
  O  O0  1  0.00000000  0.74418100  0.42285900  1
  O  O1  1  0.00000000  0.75842900  0.57946000  1
  O  O2  1  0.50000000  0.80487500  0.94293200  1
  O  O3  1  0.50000000  0.79844300  0.15941700  1
  O  O4  1  0.50000000  0.87801600  0.66359000  1
  O  O5  1  0.00000000  0.85455300  0.75782700  1
  O  O6  1  0.50000000  0.89334400  0.50442000  1
  O  O7  1  0.50000000  0.89603600  0.27960400  1
  O  O8  1  0.00000000  0.94213000  0.85519300  1
  O  O9  1  0.00000000  0.95636700  0.07963000  1
  O  O10  1  0.00000000  0.04363300  0.57963000  1
  O  O11  1  0.00000000  0.05787000  0.35519300  1
  O  O12  1  0.50000000  0.10396400  0.77960400  1
  O  O13  1  0.50000000  0.10665600  0.00442000  1
  O  O14  1  0.00000000  0.14544700  0.25782700  1
  O  O15  1  0.50000000  0.12198400  0.16359000  1
  O  O16  1  0.50000000  0.20155700  0.65941700  1
  O  O17  1  0.50000000  0.19512500  0.44293200  1
  O  O18  1  0.00000000  0.24157100  0.07946000  1
  O  O19  1  0.00000000  0.25581900  0.92285900  1
  O  O20  1  0.50000000  0.29580200  0.55862500  1
  O  O21  1  0.50000000  0.29542700  0.33902200  1
  O  O22  1  0.50000000  0.36510800  0.83641300  1
  O  O23  1  0.00000000  0.36172500  0.74030900  1
  O  O24  1  0.50000000  0.39586900  0.99630800  1
  O  O25  1  0.50000000  0.39295000  0.21254500  1
  O  O26  1  0.00000000  0.43600100  0.64056700  1
  O  O27  1  0.00000000  0.45925700  0.41441800  1
  O  O28  1  0.00000000  0.54074300  0.91441800  1
  O  O29  1  0.00000000  0.56399900  0.14056700  1
  O  O30  1  0.50000000  0.60705000  0.71254500  1
  O  O31  1  0.50000000  0.60413100  0.49630800  1
  O  O32  1  0.00000000  0.63827500  0.24030900  1
  O  O33  1  0.50000000  0.63489200  0.33641300  1
  O  O34  1  0.50000000  0.70457300  0.83902200  1
  O  O35  1  0.50000000  0.70419800  0.05862500  1
loop_
_geom_bond_atom_site_label_1
_geom_bond_atom_site_label_2
_geom_bond_distance
_geom_bond_site_symmetry_2
Li0 O9 2.096860 1_556
Li0 O13 2.206460 1_466
Li0 O13 2.206460 1_566
Li0 O2 2.218583 1_455
Li0 O2 2.218583 1_555
Li1 O14 2.165519 1_565
Li1 O3 2.310633 1_455
Li1 O3 2.310633 1_555
Li1 O7 2.360562 1_455
Li1 O7 2.360562 1_555
Li1 O15 2.372216 1_565
Li1 O15 2.372216 1_465
Li2 O5 2.165519 1_545
Li2 O16 2.310633 1_455
Li2 O16 2.310633 1_555
Li2 O12 2.360562 1_455
Li2 O12 2.360562 1_555
Li2 O4 2.372216 1_445
Li2 O4 2.372216 1_545
Li3 O10 2.096860 1_555
Li3 O6 2.206460 1_545
Li3 O6 2.206460 1_445
Li3 O17 2.218583 1_555
Li3 O17 2.218583 1_455
Li4 O31 2.156271 1_455
Li4 O31 2.156271 1_555
Li4 O20 2.171247 1_555
Li4 O20 2.171247 1_455
Li4 O27 2.594133 1_555
Li5 O21 2.205739 1_555
Li5 O21 2.205739 1_455
Li5 O32 2.274523 1_555
Li5 O33 2.464587 1_455
Li5 O33 2.464587 1_555
Li5 O25 2.587108 1_455
Li5 O25 2.587108 1_555
Li6 O34 2.205739 1_455
Li6 O34 2.205739 1_555
Li6 O23 2.274523 1_555
Li6 O22 2.464587 1_555
Li6 O22 2.464587 1_455
Li6 O30 2.587108 1_455
Li6 O30 2.587108 1_555
Li7 O24 2.156271 1_454
Li7 O24 2.156271 1_554
Li7 O35 2.171247 1_455
Li7 O35 2.171247 1_555
Li7 O28 2.594133 1_554
Mn0 O0 1.913657 1_555
Mn0 O1 1.934257 1_555
Mn0 O6 1.946927 1_555
Mn0 O6 1.946927 1_455
Mn0 O31 1.966968 1_455
Mn0 O31 1.966968 1_555
Mn1 O9 1.877846 1_555
Mn1 O35 1.927506 1_455
Mn1 O35 1.927506 1_555
Mn1 O29 1.975117 1_555
Mn1 O3 1.990837 1_555
Mn1 O3 1.990837 1_455
Mn2 O8 1.917692 1_655
Mn2 O8 1.917692 1_555
Mn2 O5 1.928819 1_555
Mn2 O5 1.928819 1_655
Mn2 O12 1.944071 1_565
Mn2 O34 1.951350 1_555
Mn3 O11 1.917692 1_655
Mn3 O11 1.917692 1_555
Mn3 O14 1.928819 1_555
Mn3 O14 1.928819 1_655
Mn3 O7 1.944071 1_545
Mn3 O21 1.951350 1_555
Mn4 O10 1.877846 1_555
Mn4 O20 1.927506 1_555
Mn4 O20 1.927506 1_455
Mn4 O26 1.975117 1_555
Mn4 O16 1.990837 1_555
Mn4 O16 1.990837 1_455
Mn5 O19 1.913657 1_554
Mn5 O18 1.934257 1_555
Mn5 O13 1.946927 1_455
Mn5 O13 1.946927 1_555
Mn5 O24 1.966968 1_554
Mn5 O24 1.966968 1_454
Mn6 O30 1.910165 1_555
Mn6 O23 1.929606 1_555
Mn6 O23 1.929606 1_655
Mn6 O26 1.931496 1_555
Mn6 O26 1.931496 1_655
Mn6 O16 1.986236 1_555
Mn7 O25 1.910165 1_555
Mn7 O32 1.929606 1_655
Mn7 O32 1.929606 1_555
Mn7 O29 1.931496 1_555
Mn7 O29 1.931496 1_655
Mn7 O3 1.986236 1_555
Fe0 O33 1.979675 1_555
Fe0 O33 1.979675 1_455
Fe0 O32 1.983544 1_555
Fe0 O7 2.016547 1_455
Fe0 O7 2.016547 1_555
Fe1 O4 1.930047 1_555
Fe1 O1 1.947046 1_555
Fe1 O1 1.947046 1_655
Fe1 O10 1.948361 1_665
Fe1 O10 1.948361 1_565
Fe1 O6 1.991035 1_555
Fe2 O15 1.930047 1_555
Fe2 O18 1.947046 1_555
Fe2 O18 1.947046 1_655
Fe2 O9 1.948361 1_545
Fe2 O9 1.948361 1_645
Fe2 O13 1.991035 1_555
Fe3 O22 1.979675 1_455
Fe3 O22 1.979675 1_555
Fe3 O23 1.983544 1_555
Fe3 O12 2.016547 1_555
Fe3 O12 2.016547 1_455
Fe4 O14 1.969649 1_555
Fe4 O15 1.982130 1_455
Fe4 O15 1.982130 1_555
Fe4 O25 2.004206 1_555
Fe4 O25 2.004206 1_455
Fe5 O19 1.930074 1_555
Fe5 O19 1.930074 1_655
Fe5 O22 1.934883 1_555
Fe5 O28 1.964242 1_655
Fe5 O28 1.964242 1_555
Fe5 O24 2.010090 1_555
Fe6 O0 1.930074 1_555
Fe6 O0 1.930074 1_655
Fe6 O33 1.934883 1_555
Fe6 O27 1.964242 1_555
Fe6 O27 1.964242 1_655
Fe6 O31 2.010090 1_555
Fe7 O5 1.969649 1_555
Fe7 O4 1.982130 1_455
Fe7 O4 1.982130 1_555
Fe7 O30 2.004206 1_455
Fe7 O30 2.004206 1_555
O2 Ti1 1.909796 1_655
O2 Ti1 1.909796 1_555
O8 Ti1 2.091362 1_555
O11 Ti0 2.091362 1_555
O17 Ti0 1.909796 1_655
O17 Ti0 1.909796 1_555
O21 Ti0 2.080883 1_655
O21 Ti0 2.080883 1_555
O27 Ti0 1.863627 1_555
O28 Ti1 1.863627 1_555
O34 Ti1 2.080883 1_555
O34 Ti1 2.080883 1_655
