# generated using pymatgen
data_Li3Fe3O8
_symmetry_space_group_name_H-M   'P 1'
_cell_length_a   5.86132941
_cell_length_b   5.86132941
_cell_length_c   9.90665100
_cell_angle_alpha   90.00000000
_cell_angle_beta   90.00000000
_cell_angle_gamma   119.99999335
_symmetry_Int_Tables_number   1
_chemical_formula_structural   Li3Fe3O8
_chemical_formula_sum   'Li6 Fe6 O16'
_cell_volume   294.74726495
_cell_formula_units_Z   2
loop_
 _symmetry_equiv_pos_site_id
 _symmetry_equiv_pos_as_xyz
  1  'x, y, z'
loop_
 _atom_site_type_symbol
 _atom_site_label
 _atom_site_symmetry_multiplicity
 _atom_site_fract_x
 _atom_site_fract_y
 _atom_site_fract_z
 _atom_site_occupancy
  Li  Li0  1  0.33333300  0.66666700  0.49956500  1
  Li  Li1  1  0.33333300  0.66666700  0.88811200  1
  Li  Li2  1  0.00000000  0.00000000  0.00070700  1
  Li  Li3  1  0.00000000  0.00000000  0.50070700  1
  Li  Li4  1  0.66666700  0.33333300  0.99956500  1
  Li  Li5  1  0.66666700  0.33333300  0.38811200  1
  Fe  Fe0  1  0.16856400  0.83143600  0.21521800  1
  Fe  Fe1  1  0.16856400  0.33712700  0.21521800  1
  Fe  Fe2  1  0.66287300  0.83143600  0.21521800  1
  Fe  Fe3  1  0.33712700  0.16856400  0.71521800  1
  Fe  Fe4  1  0.83143600  0.66287300  0.71521800  1
  Fe  Fe5  1  0.83143600  0.16856400  0.71521800  1
  O  O0  1  0.15410500  0.84589500  0.61275800  1
  O  O1  1  0.03423600  0.51711800  0.32063900  1
  O  O2  1  0.33333300  0.66666700  0.10008000  1
  O  O3  1  0.00000000  0.00000000  0.31991400  1
  O  O4  1  0.00000000  0.00000000  0.81991400  1
  O  O5  1  0.15410500  0.30821100  0.61275800  1
  O  O6  1  0.48288200  0.96576400  0.32063900  1
  O  O7  1  0.48288200  0.51711800  0.32063900  1
  O  O8  1  0.30821100  0.15410500  0.11275800  1
  O  O9  1  0.69178900  0.84589500  0.61275800  1
  O  O10  1  0.51711800  0.48288200  0.82063900  1
  O  O11  1  0.51711800  0.03423600  0.82063900  1
  O  O12  1  0.66666700  0.33333300  0.60008000  1
  O  O13  1  0.84589500  0.69178900  0.11275800  1
  O  O14  1  0.96576400  0.48288200  0.82063900  1
  O  O15  1  0.84589500  0.15410500  0.11275800  1
loop_
_geom_bond_atom_site_label_1
_geom_bond_atom_site_label_2
_geom_bond_distance
_geom_bond_site_symmetry_2
Li0 O0 2.137334 1_555
Li0 O9 2.137334 1_555
Li0 O5 2.137334 1_555
Li0 O6 2.333880 1_555
Li0 O1 2.333880 1_555
Li0 O7 2.333883 1_555
Li1 O11 1.981923 1_565
Li1 O14 1.981923 1_455
Li1 O10 1.981928 1_555
Li1 O2 2.099893 1_556
Li2 O4 1.791053 1_554
Li2 O15 1.918293 1_455
Li2 O8 1.918297 1_555
Li2 O13 1.918297 1_445
Li3 O3 1.791053 1_555
Li3 O0 1.918293 1_545
Li3 O5 1.918297 1_555
Li3 O9 1.918297 1_445
Li4 O15 2.137334 1_556
Li4 O13 2.137334 1_556
Li4 O8 2.137334 1_556
Li4 O14 2.333880 1_555
Li4 O11 2.333880 1_555
Li4 O10 2.333883 1_555
Li5 O1 1.981923 1_655
Li5 O6 1.981923 1_545
Li5 O7 1.981928 1_555
Li5 O12 2.099893 1_555
Fe0 O6 1.911603 1_555
Fe0 O1 1.911603 1_555
Fe0 O8 1.931096 1_565
Fe0 O13 1.931096 1_455
Fe0 O3 2.001060 1_565
Fe0 O2 2.024636 1_555
Fe1 O7 1.911603 1_555
Fe1 O1 1.911607 1_555
Fe1 O8 1.931096 1_555
Fe1 O15 1.931096 1_455
Fe1 O3 2.001056 1_555
Fe1 O2 2.024644 1_555
Fe2 O7 1.911603 1_555
Fe2 O6 1.911607 1_555
Fe2 O13 1.931096 1_555
Fe2 O15 1.931096 1_565
Fe2 O3 2.001056 1_665
Fe2 O2 2.024644 1_555
Fe3 O10 1.911603 1_555
Fe3 O11 1.911607 1_555
Fe3 O5 1.931096 1_555
Fe3 O0 1.931096 1_545
Fe3 O4 2.001056 1_555
Fe3 O12 2.024644 1_555
Fe4 O10 1.911603 1_555
Fe4 O14 1.911607 1_555
Fe4 O9 1.931096 1_555
Fe4 O0 1.931096 1_655
Fe4 O4 2.001056 1_665
Fe4 O12 2.024644 1_555
Fe5 O11 1.911603 1_555
Fe5 O14 1.911603 1_555
Fe5 O5 1.931096 1_655
Fe5 O9 1.931096 1_545
Fe5 O4 2.001060 1_655
Fe5 O12 2.024636 1_555
