# generated using pymatgen
data_Li4Co3(NiO4)3
_symmetry_space_group_name_H-M   'P 1'
_cell_length_a   5.66809800
_cell_length_b   5.85347234
_cell_length_c   6.55807428
_cell_angle_alpha   103.61200502
_cell_angle_beta   102.73300656
_cell_angle_gamma   91.52282414
_symmetry_Int_Tables_number   1
_chemical_formula_structural   Li4Co3(NiO4)3
_chemical_formula_sum   'Li4 Co3 Ni3 O12'
_cell_volume   205.56455859
_cell_formula_units_Z   1
loop_
 _symmetry_equiv_pos_site_id
 _symmetry_equiv_pos_as_xyz
  1  'x, y, z'
loop_
 _atom_site_type_symbol
 _atom_site_label
 _atom_site_symmetry_multiplicity
 _atom_site_fract_x
 _atom_site_fract_y
 _atom_site_fract_z
 _atom_site_occupancy
  Li  Li0  1  0.31526400  0.34442500  0.84205200  1
  Li  Li1  1  0.68473600  0.65557500  0.15794800  1
  Li  Li2  1  0.00000000  0.00000000  0.50000000  1
  Li  Li3  1  0.50000000  0.00000000  0.50000000  1
  Co  Co0  1  0.33239100  0.83199300  0.83493500  1
  Co  Co1  1  0.00000000  0.50000000  0.50000000  1
  Co  Co2  1  0.66760900  0.16800700  0.16506500  1
  Ni  Ni0  1  0.83386500  0.83144800  0.83437600  1
  Ni  Ni1  1  0.16613500  0.16855200  0.16562400  1
  Ni  Ni2  1  0.50000000  0.50000000  0.50000000  1
  O  O0  1  0.91679900  0.39702600  0.19562700  1
  O  O1  1  0.25321900  0.74307500  0.53019800  1
  O  O2  1  0.09325500  0.04815600  0.83850200  1
  O  O3  1  0.42946400  0.38417400  0.17135800  1
  O  O4  1  0.75076100  0.71968100  0.50155000  1
  O  O5  1  0.08320100  0.60297400  0.80437300  1
  O  O6  1  0.57764700  0.06142200  0.85224400  1
  O  O7  1  0.90674500  0.95184400  0.16149800  1
  O  O8  1  0.24923900  0.28031900  0.49845000  1
  O  O9  1  0.57053600  0.61582600  0.82864200  1
  O  O10  1  0.42235300  0.93857800  0.14775600  1
  O  O11  1  0.74678100  0.25692500  0.46980200  1
loop_
_geom_bond_atom_site_label_1
_geom_bond_atom_site_label_2
_geom_bond_distance
_geom_bond_site_symmetry_2
Li0 O5 2.054307 1_555
Li0 O3 2.067926 1_556
Li0 O2 2.107981 1_555
Li0 O8 2.140403 1_555
Li0 O9 2.150518 1_555
Li0 O6 2.258244 1_555
Li1 O0 2.054307 1_555
Li1 O9 2.067926 1_554
Li1 O7 2.107981 1_555
Li1 O4 2.140403 1_555
Li1 O3 2.150518 1_555
Li1 O10 2.258244 1_555
Li2 O7 2.113573 1_445
Li2 O2 2.113573 1_555
Li2 O1 2.119094 1_545
Li2 O11 2.119094 1_455
Li2 O8 2.139904 1_555
Li2 O4 2.139904 1_445
Li3 O11 2.099529 1_555
Li3 O1 2.099529 1_545
Li3 O10 2.193571 1_545
Li3 O6 2.193571 1_555
Li3 O8 2.199568 1_555
Li3 O4 2.199568 1_545
Co0 O5 1.865565 1_555
Co0 O6 1.873060 1_565
Co0 O9 1.874981 1_555
Co0 O2 1.878823 1_565
Co0 O1 1.889148 1_555
Co0 O10 1.943561 1_556
Co1 O5 1.890435 1_555
Co1 O0 1.890435 1_455
Co1 O8 1.935489 1_555
Co1 O4 1.935489 1_455
Co1 O1 1.938351 1_555
Co1 O11 1.938351 1_455
Co2 O0 1.865565 1_555
Co2 O10 1.873060 1_545
Co2 O3 1.874981 1_555
Co2 O7 1.878823 1_545
Co2 O11 1.889148 1_555
Co2 O6 1.943561 1_554
Ni0 O2 1.907517 1_665
Ni0 O9 1.917023 1_555
Ni0 O5 1.980845 1_655
Ni0 O6 2.009876 1_565
Ni0 O7 2.037602 1_556
Ni0 O4 2.066960 1_555
Ni1 O7 1.907517 1_445
Ni1 O3 1.917023 1_555
Ni1 O0 1.980845 1_455
Ni1 O10 2.009876 1_545
Ni1 O2 2.037602 1_554
Ni1 O8 2.066960 1_555
Ni2 O4 1.887901 1_555
Ni2 O8 1.887901 1_555
Ni2 O11 2.028674 1_555
Ni2 O1 2.028674 1_555
Ni2 O9 2.045142 1_555
Ni2 O3 2.045142 1_555
