# generated using pymatgen
data_Li2CrFe3O8
_symmetry_space_group_name_H-M   'P 1'
_cell_length_a   8.45085208
_cell_length_b   8.45085208
_cell_length_c   8.38566500
_cell_angle_alpha   90.00000000
_cell_angle_beta   90.00000000
_cell_angle_gamma   90.15282638
_symmetry_Int_Tables_number   1
_chemical_formula_structural   Li2CrFe3O8
_chemical_formula_sum   'Li8 Cr4 Fe12 O32'
_cell_volume   598.87607606
_cell_formula_units_Z   4
loop_
 _symmetry_equiv_pos_site_id
 _symmetry_equiv_pos_as_xyz
  1  'x, y, z'
loop_
 _atom_site_type_symbol
 _atom_site_label
 _atom_site_symmetry_multiplicity
 _atom_site_fract_x
 _atom_site_fract_y
 _atom_site_fract_z
 _atom_site_occupancy
  Li  Li0  1  0.99942800  0.75181900  0.37876400  1
  Li  Li1  1  0.75181900  0.99942800  0.62123600  1
  Li  Li2  1  0.24818100  0.00057200  0.12123600  1
  Li  Li3  1  0.00057200  0.24818100  0.87876400  1
  Li  Li4  1  0.50087200  0.25059200  0.37732500  1
  Li  Li5  1  0.74940800  0.49912800  0.12267500  1
  Li  Li6  1  0.25059200  0.50087200  0.62267500  1
  Li  Li7  1  0.49912800  0.74940800  0.87732500  1
  Cr  Cr0  1  0.12373200  0.87626800  0.75000000  1
  Cr  Cr1  1  0.87626800  0.12373200  0.25000000  1
  Cr  Cr2  1  0.37319400  0.37319400  0.00000000  1
  Cr  Cr3  1  0.62680600  0.62680600  0.50000000  1
  Fe  Fe0  1  0.87669400  0.87669400  0.00000000  1
  Fe  Fe1  1  0.62517600  0.87490800  0.25253500  1
  Fe  Fe2  1  0.37477700  0.87368200  0.49953600  1
  Fe  Fe3  1  0.62522300  0.12631800  0.99953600  1
  Fe  Fe4  1  0.37482400  0.12509200  0.75253500  1
  Fe  Fe5  1  0.12330600  0.12330600  0.50000000  1
  Fe  Fe6  1  0.62569700  0.37430300  0.75000000  1
  Fe  Fe7  1  0.87368200  0.37477700  0.50046400  1
  Fe  Fe8  1  0.12509200  0.37482400  0.24746500  1
  Fe  Fe9  1  0.87490800  0.62517600  0.74746500  1
  Fe  Fe10  1  0.12631800  0.62522300  0.00046400  1
  Fe  Fe11  1  0.37430300  0.62569700  0.25000000  1
  O  O0  1  0.88816000  0.86513000  0.76007200  1
  O  O1  1  0.10995700  0.86389000  0.98550900  1
  O  O2  1  0.38646600  0.86636300  0.26056100  1
  O  O3  1  0.86513000  0.88816000  0.23992800  1
  O  O4  1  0.61619100  0.86705100  0.48139900  1
  O  O5  1  0.63642800  0.88559700  0.01943300  1
  O  O6  1  0.36007000  0.88881500  0.74067100  1
  O  O7  1  0.13611000  0.89004300  0.51449100  1
  O  O8  1  0.86389000  0.10995700  0.01449100  1
  O  O9  1  0.63993000  0.11118500  0.24067100  1
  O  O10  1  0.36357200  0.11440300  0.51943300  1
  O  O11  1  0.38380900  0.13294900  0.98139900  1
  O  O12  1  0.13487000  0.11184000  0.73992800  1
  O  O13  1  0.61353400  0.13363700  0.76056100  1
  O  O14  1  0.89004300  0.13611000  0.48550900  1
  O  O15  1  0.11184000  0.13487000  0.26007200  1
  O  O16  1  0.61022100  0.35897000  0.99016700  1
  O  O17  1  0.38528100  0.35876800  0.76116200  1
  O  O18  1  0.11440300  0.36357200  0.48056700  1
  O  O19  1  0.64103000  0.38977900  0.50983300  1
  O  O20  1  0.88881500  0.36007000  0.25932900  1
  O  O21  1  0.86636300  0.38646600  0.73943900  1
  O  O22  1  0.13294900  0.38380900  0.01860100  1
  O  O23  1  0.35876800  0.38528100  0.23883800  1
  O  O24  1  0.64123200  0.61471900  0.73883800  1
  O  O25  1  0.86705100  0.61619100  0.51860100  1
  O  O26  1  0.13363700  0.61353400  0.23943900  1
  O  O27  1  0.11118500  0.63993000  0.75932900  1
  O  O28  1  0.35897000  0.61022100  0.00983300  1
  O  O29  1  0.88559700  0.63642800  0.98056700  1
  O  O30  1  0.61471900  0.64123200  0.26116200  1
  O  O31  1  0.38977900  0.64103000  0.49016700  1
loop_
_geom_bond_atom_site_label_1
_geom_bond_atom_site_label_2
_geom_bond_distance
_geom_bond_site_symmetry_2
Li0 O25 1.983282 1_555
Li0 O3 1.994503 1_555
Li0 O7 1.996723 1_655
Li0 O26 2.006022 1_655
Li1 O4 1.983282 1_555
Li1 O0 1.994503 1_555
Li1 O14 1.996723 1_565
Li1 O13 2.006022 1_565
Li2 O11 1.983282 1_554
Li2 O15 1.994503 1_555
Li2 O1 1.996723 1_544
Li2 O2 2.006022 1_545
Li3 O22 1.983282 1_556
Li3 O12 1.994503 1_555
Li3 O8 1.996723 1_456
Li3 O21 2.006022 1_455
Li4 O19 2.003436 1_555
Li4 O10 2.020855 1_555
Li4 O9 2.022248 1_555
Li4 O23 2.023281 1_555
Li5 O16 2.003436 1_554
Li5 O29 2.020855 1_554
Li5 O20 2.022248 1_555
Li5 O30 2.023281 1_555
Li6 O31 2.003436 1_555
Li6 O18 2.020855 1_555
Li6 O27 2.022248 1_555
Li6 O17 2.023281 1_555
Li7 O28 2.003436 1_556
Li7 O5 2.020855 1_556
Li7 O6 2.022248 1_555
Li7 O24 2.023281 1_555
Cr0 O1 1.981075 1_555
Cr0 O7 1.981075 1_555
Cr0 O0 1.994546 1_455
Cr0 O12 1.994546 1_565
Cr0 O27 2.001317 1_555
Cr0 O6 2.001317 1_555
Cr1 O14 1.981075 1_555
Cr1 O8 1.981075 1_555
Cr1 O3 1.994546 1_545
Cr1 O15 1.994546 1_655
Cr1 O9 2.001317 1_555
Cr1 O20 2.001317 1_555
Cr2 O28 2.008697 1_555
Cr2 O16 2.008697 1_554
Cr2 O17 2.009137 1_554
Cr2 O23 2.009137 1_555
Cr2 O22 2.038471 1_555
Cr2 O11 2.038471 1_554
Cr3 O19 2.008697 1_555
Cr3 O31 2.008697 1_555
Cr3 O24 2.009137 1_555
Cr3 O30 2.009137 1_555
Cr3 O25 2.038471 1_555
Cr3 O4 2.038471 1_555
Fe0 O8 1.978262 1_565
Fe0 O1 1.978262 1_654
Fe0 O3 2.016670 1_555
Fe0 O0 2.016670 1_554
Fe0 O29 2.038570 1_554
Fe0 O5 2.038570 1_555
Fe1 O4 1.921819 1_555
Fe1 O5 1.959099 1_555
Fe1 O30 1.977826 1_555
Fe1 O9 2.002772 1_565
Fe1 O2 2.019524 1_555
Fe1 O3 2.033358 1_555
Fe2 O31 1.972094 1_555
Fe2 O2 2.007359 1_555
Fe2 O7 2.025926 1_555
Fe2 O6 2.029947 1_555
Fe2 O10 2.043575 1_565
Fe2 O4 2.046732 1_555
Fe3 O16 1.972094 1_555
Fe3 O13 2.007359 1_555
Fe3 O8 2.025926 1_556
Fe3 O9 2.029947 1_556
Fe3 O5 2.043575 1_546
Fe3 O11 2.046732 1_555
Fe4 O11 1.921819 1_555
Fe4 O10 1.959099 1_555
Fe4 O17 1.977826 1_555
Fe4 O6 2.002772 1_545
Fe4 O13 2.019524 1_555
Fe4 O12 2.033358 1_555
Fe5 O7 1.978262 1_545
Fe5 O14 1.978262 1_455
Fe5 O12 2.016670 1_555
Fe5 O15 2.016670 1_555
Fe5 O10 2.038570 1_555
Fe5 O18 2.038570 1_555
Fe6 O16 2.022335 1_555
Fe6 O19 2.022335 1_555
Fe6 O17 2.037759 1_555
Fe6 O24 2.037759 1_555
Fe6 O13 2.038080 1_555
Fe6 O21 2.038080 1_555
Fe7 O19 1.972094 1_555
Fe7 O21 2.007359 1_555
Fe7 O14 2.025926 1_555
Fe7 O20 2.029947 1_555
Fe7 O18 2.043575 1_655
Fe7 O25 2.046732 1_555
Fe8 O22 1.921819 1_555
Fe8 O18 1.959099 1_555
Fe8 O23 1.977826 1_555
Fe8 O20 2.002772 1_455
Fe8 O26 2.019524 1_555
Fe8 O15 2.033358 1_555
Fe9 O25 1.921819 1_555
Fe9 O29 1.959099 1_555
Fe9 O24 1.977826 1_555
Fe9 O27 2.002772 1_655
Fe9 O21 2.019524 1_555
Fe9 O0 2.033358 1_555
Fe10 O28 1.972094 1_555
Fe10 O26 2.007359 1_555
Fe10 O1 2.025926 1_554
Fe10 O27 2.029947 1_554
Fe10 O29 2.043575 1_454
Fe10 O22 2.046732 1_555
Fe11 O31 2.022335 1_555
Fe11 O28 2.022335 1_555
Fe11 O23 2.037759 1_555
Fe11 O30 2.037759 1_555
Fe11 O26 2.038080 1_555
Fe11 O2 2.038080 1_555
