# generated using pymatgen
data_Ni3OF5
_symmetry_space_group_name_H-M   'P 1'
_cell_length_a   5.62918342
_cell_length_b   5.62918342
_cell_length_c   7.27774729
_cell_angle_alpha   72.86956415
_cell_angle_beta   72.86956415
_cell_angle_gamma   73.10410136
_symmetry_Int_Tables_number   1
_chemical_formula_structural   Ni3OF5
_chemical_formula_sum   'Ni6 O2 F10'
_cell_volume   205.29213331
_cell_formula_units_Z   2
loop_
 _symmetry_equiv_pos_site_id
 _symmetry_equiv_pos_as_xyz
  1  'x, y, z'
loop_
 _atom_site_type_symbol
 _atom_site_label
 _atom_site_symmetry_multiplicity
 _atom_site_fract_x
 _atom_site_fract_y
 _atom_site_fract_z
 _atom_site_occupancy
  Ni  Ni0  1  0.32949800  0.32949800  0.16100000  1
  Ni  Ni1  1  0.33817200  0.33817200  0.67421200  1
  Ni  Ni2  1  0.66385300  0.66385300  0.33928300  1
  Ni  Ni3  1  0.66393300  0.66393300  0.82782300  1
  Ni  Ni4  1  0.00073700  0.00073700  0.49944500  1
  Ni  Ni5  1  0.00464300  0.00464300  0.00081300  1
  O  O0  1  0.23216000  0.23216000  0.96445900  1
  O  O1  1  0.56581500  0.56581500  0.63049400  1
  F  F0  1  0.96877400  0.36351200  0.33350400  1
  F  F1  1  0.63676000  0.03016000  0.66668100  1
  F  F2  1  0.10412900  0.10412900  0.70050600  1
  F  F3  1  0.43000800  0.43000800  0.36764900  1
  F  F4  1  0.76801500  0.76801500  0.03551200  1
  F  F5  1  0.89847100  0.89847100  0.29770200  1
  F  F6  1  0.69764800  0.30371000  0.00036600  1
  F  F7  1  0.03016000  0.63676000  0.66668100  1
  F  F8  1  0.36351200  0.96877400  0.33350400  1
  F  F9  1  0.30371000  0.69764800  0.00036600  1
loop_
_geom_bond_atom_site_label_1
_geom_bond_atom_site_label_2
_geom_bond_distance
_geom_bond_site_symmetry_2
Ni0 O0 1.935035 1_554
Ni1 O1 1.964577 1_555
Ni1 O0 1.973844 1_555
Ni2 O1 1.974795 1_555
Ni3 O1 1.945354 1_555
Ni5 O0 1.976050 1_554
F0 Ni2 2.029510 1_555
F0 Ni4 2.030449 1_655
F0 Ni0 2.037130 1_655
F1 Ni1 2.035218 1_555
F1 Ni3 2.036392 1_545
F1 Ni4 2.039410 1_655
F2 Ni4 2.004728 1_555
F2 Ni5 2.035720 1_556
F2 Ni1 2.054255 1_555
F3 Ni0 2.022543 1_555
F3 Ni2 2.048231 1_555
F3 Ni1 2.075737 1_555
F4 Ni3 2.052835 1_554
F4 Ni5 2.060912 1_665
F4 Ni2 2.060990 1_555
F5 Ni4 2.001745 1_665
F5 Ni5 2.017204 1_665
F5 Ni2 2.030546 1_555
F6 Ni5 2.032148 1_655
F6 Ni3 2.035032 1_554
F6 Ni0 2.044608 1_555
F7 Ni1 2.035218 1_555
F7 Ni3 2.036392 1_455
F7 Ni4 2.039410 1_565
F8 Ni2 2.029510 1_555
F8 Ni4 2.030449 1_565
F8 Ni0 2.037130 1_565
F9 Ni5 2.032148 1_565
F9 Ni3 2.035032 1_554
F9 Ni0 2.044608 1_555
