# generated using pymatgen
data_SrPSe3
_symmetry_space_group_name_H-M   'P 1'
_cell_length_a   7.06898753
_cell_length_b   7.86156988
_cell_length_c   9.87071049
_cell_angle_alpha   90.00000000
_cell_angle_beta   91.60285197
_cell_angle_gamma   90.00000000
_symmetry_Int_Tables_number   1
_chemical_formula_structural   SrPSe3
_chemical_formula_sum   'Sr4 P4 Se12'
_cell_volume   548.33371088
_cell_formula_units_Z   4
loop_
 _symmetry_equiv_pos_site_id
 _symmetry_equiv_pos_as_xyz
  1  'x, y, z'
loop_
 _atom_site_type_symbol
 _atom_site_label
 _atom_site_symmetry_multiplicity
 _atom_site_fract_x
 _atom_site_fract_y
 _atom_site_fract_z
 _atom_site_occupancy
  Sr  Sr0  1  0.53583780  0.89126733  0.25139904  1
  Sr  Sr1  1  0.96416220  0.39126733  0.24860096  1
  Sr  Sr2  1  0.46416220  0.10873267  0.74860096  1
  Sr  Sr3  1  0.03583780  0.60873267  0.75139904  1
  P  P0  1  0.05792753  0.89445353  0.43657548  1
  P  P1  1  0.44207247  0.39445353  0.06342452  1
  P  P2  1  0.94207247  0.10554647  0.56342452  1
  P  P3  1  0.55792753  0.60554647  0.93657548  1
  Se  Se0  1  0.60161148  0.49903670  0.73609175  1
  Se  Se1  1  0.89838852  0.99903670  0.76390825  1
  Se  Se2  1  0.39838852  0.50096330  0.26390825  1
  Se  Se3  1  0.10161148  0.00096330  0.23609175  1
  Se  Se4  1  0.81612743  0.69812366  0.04065493  1
  Se  Se5  1  0.68387257  0.19812366  0.45934507  1
  Se  Se6  1  0.18387257  0.30187634  0.95934507  1
  Se  Se7  1  0.31612743  0.80187634  0.54065493  1
  Se  Se8  1  0.33873632  0.80125016  0.94483004  1
  Se  Se9  1  0.16126368  0.30125016  0.55516996  1
  Se  Se10  1  0.66126368  0.19874984  0.05516996  1
  Se  Se11  1  0.83873632  0.69874984  0.44483004  1
loop_
_geom_bond_atom_site_label_1
_geom_bond_atom_site_label_2
_geom_bond_distance
_geom_bond_site_symmetry_2
P0 Se3 2.178712 1_565
P0 Se11 2.186693 1_455
P0 Se7 2.193540 1_555
P0 P2 2.247183 1_465
P1 Se2 2.178712 1_555
P1 Se10 2.186693 1_555
P1 Se6 2.193540 1_554
P1 P3 2.247183 1_554
P2 Se1 2.178712 1_545
P2 Se9 2.186693 1_655
P2 Se5 2.193540 1_555
P3 Se0 2.178712 1_555
P3 Se8 2.186693 1_555
P3 Se4 2.193540 1_556
Se0 Sr3 3.187894 1_655
Se0 Sr2 3.221973 1_555
Se1 Sr2 3.187894 1_565
Se1 Sr3 3.221973 1_655
Se2 Sr1 3.187894 1_455
Se2 Sr0 3.221973 1_555
Se3 Sr0 3.187894 1_545
Se3 Sr1 3.221973 1_455
Se4 Sr0 3.284686 1_555
Se4 Sr1 3.317757 1_555
Se4 Sr3 3.362454 1_654
Se5 Sr1 3.284686 1_555
Se5 Sr0 3.317757 1_545
Se5 Sr2 3.362454 1_555
Se6 Sr2 3.284686 1_555
Se6 Sr3 3.317757 1_555
Se6 Sr1 3.362454 1_456
Se7 Sr3 3.284686 1_555
Se7 Sr2 3.317757 1_565
Se7 Sr0 3.362454 1_555
Se8 Sr3 3.208123 1_555
Se8 Sr2 3.236846 1_565
Se8 Sr0 3.370942 1_556
Se9 Sr2 3.208123 1_555
Se9 Sr3 3.236846 1_555
Se9 Sr1 3.370942 1_455
Se10 Sr1 3.208123 1_555
Se10 Sr0 3.236846 1_545
Se10 Sr2 3.370942 1_554
Se11 Sr0 3.208123 1_555
Se11 Sr1 3.236846 1_555
Se11 Sr3 3.370942 1_655
