# generated using pymatgen
data_BaY3Cl11
_symmetry_space_group_name_H-M   'P 1'
_cell_length_a   5.33905100
_cell_length_b   10.30999800
_cell_length_c   19.27919000
_cell_angle_alpha   90.00000000
_cell_angle_beta   90.00000000
_cell_angle_gamma   90.00000000
_symmetry_Int_Tables_number   1
_chemical_formula_structural   BaY3Cl11
_chemical_formula_sum   'Ba2 Y6 Cl22'
_cell_volume   1061.23468000
_cell_formula_units_Z   2
loop_
 _symmetry_equiv_pos_site_id
 _symmetry_equiv_pos_as_xyz
  1  'x, y, z'
loop_
 _atom_site_type_symbol
 _atom_site_label
 _atom_site_symmetry_multiplicity
 _atom_site_fract_x
 _atom_site_fract_y
 _atom_site_fract_z
 _atom_site_occupancy
  Ba  Ba0  1  0.00000000  0.25000000  0.01421200  1
  Ba  Ba1  1  0.00000000  0.75000000  0.98578800  1
  Y  Y0  1  0.00000000  0.50063400  0.23575800  1
  Y  Y1  1  0.00000000  0.99936600  0.23575800  1
  Y  Y2  1  0.00000000  0.50000000  0.50000000  1
  Y  Y3  1  0.00000000  0.00000000  0.50000000  1
  Y  Y4  1  0.00000000  0.49936600  0.76424200  1
  Y  Y5  1  0.00000000  0.00063400  0.76424200  1
  Cl  Cl0  1  0.50000000  0.25000000  0.06904900  1
  Cl  Cl1  1  0.00000000  0.53716700  0.10080600  1
  Cl  Cl2  1  0.00000000  0.96283300  0.10080600  1
  Cl  Cl3  1  0.00000000  0.25000000  0.20326900  1
  Cl  Cl4  1  0.50000000  0.50378000  0.23923400  1
  Cl  Cl5  1  0.50000000  0.99622000  0.23923400  1
  Cl  Cl6  1  0.00000000  0.75000000  0.26775600  1
  Cl  Cl7  1  0.00000000  0.43084800  0.36821300  1
  Cl  Cl8  1  0.00000000  0.06915200  0.36821300  1
  Cl  Cl9  1  0.00000000  0.75000000  0.46420200  1
  Cl  Cl10  1  0.50000000  0.50000000  0.50000000  1
  Cl  Cl11  1  0.50000000  0.00000000  0.50000000  1
  Cl  Cl12  1  0.00000000  0.25000000  0.53579800  1
  Cl  Cl13  1  0.00000000  0.56915200  0.63178700  1
  Cl  Cl14  1  0.00000000  0.93084800  0.63178700  1
  Cl  Cl15  1  0.00000000  0.25000000  0.73224400  1
  Cl  Cl16  1  0.50000000  0.49622000  0.76076600  1
  Cl  Cl17  1  0.50000000  0.00378000  0.76076600  1
  Cl  Cl18  1  0.00000000  0.75000000  0.79673100  1
  Cl  Cl19  1  0.00000000  0.46283300  0.89919400  1
  Cl  Cl20  1  0.00000000  0.03716700  0.89919400  1
  Cl  Cl21  1  0.50000000  0.75000000  0.93095100  1
loop_
_geom_bond_atom_site_label_1
_geom_bond_atom_site_label_2
_geom_bond_distance
_geom_bond_site_symmetry_2
Ba0 Cl0 2.871248 1_555
Ba0 Cl0 2.871248 1_455
Ba0 Cl20 3.119630 1_554
Ba0 Cl19 3.119630 1_554
Ba0 Cl1 3.398940 1_555
Ba0 Cl2 3.398940 1_545
Ba0 Cl3 3.644866 1_555
Ba1 Cl21 2.871248 1_455
Ba1 Cl21 2.871248 1_555
Ba1 Cl1 3.119630 1_556
Ba1 Cl2 3.119630 1_556
Ba1 Cl20 3.398940 1_565
Ba1 Cl19 3.398940 1_555
Ba1 Cl18 3.644866 1_555
Cl1 Y0 2.628888 1_555
Cl2 Y1 2.628888 1_555
Cl3 Y0 2.658867 1_555
Cl3 Y1 2.658867 1_545
Cl4 Y0 2.670563 1_555
Cl4 Y0 2.670563 1_655
Cl5 Y1 2.670563 1_555
Cl5 Y1 2.670563 1_655
Cl6 Y1 2.643938 1_555
Cl6 Y0 2.643938 1_555
Cl7 Y2 2.638883 1_555
Cl7 Y0 2.653050 1_555
Cl8 Y3 2.638883 1_555
Cl8 Y1 2.653050 1_545
Cl9 Y3 2.668299 1_565
Cl9 Y2 2.668299 1_555
Cl10 Y2 2.669526 1_555
Cl10 Y2 2.669526 1_655
Cl11 Y3 2.669526 1_555
Cl11 Y3 2.669526 1_655
Cl12 Y3 2.668299 1_555
Cl12 Y2 2.668299 1_555
Cl13 Y2 2.638883 1_555
Cl13 Y4 2.653050 1_555
Cl14 Y3 2.638883 1_565
Cl14 Y5 2.653050 1_565
Cl15 Y5 2.643938 1_555
Cl15 Y4 2.643938 1_555
Cl16 Y4 2.670563 1_655
Cl16 Y4 2.670563 1_555
Cl17 Y5 2.670563 1_655
Cl17 Y5 2.670563 1_555
Cl18 Y5 2.658867 1_565
Cl18 Y4 2.658867 1_555
Cl19 Y4 2.628888 1_555
Cl20 Y5 2.628888 1_555
