# generated using pymatgen
data_LaSCl
_symmetry_space_group_name_H-M   'P 1'
_cell_length_a   6.98150600
_cell_length_b   7.07965700
_cell_length_c   42.19815000
_cell_angle_alpha   90.00000000
_cell_angle_beta   90.00000000
_cell_angle_gamma   90.00000000
_symmetry_Int_Tables_number   1
_chemical_formula_structural   LaSCl
_chemical_formula_sum   'La24 S24 Cl24'
_cell_volume   2085.71394281
_cell_formula_units_Z   24
loop_
 _symmetry_equiv_pos_site_id
 _symmetry_equiv_pos_as_xyz
  1  'x, y, z'
loop_
 _atom_site_type_symbol
 _atom_site_label
 _atom_site_symmetry_multiplicity
 _atom_site_fract_x
 _atom_site_fract_y
 _atom_site_fract_z
 _atom_site_occupancy
  La  La0  1  0.28605400  0.25000000  0.00000000  1
  La  La1  1  0.28605400  0.25000000  0.50000000  1
  La  La2  1  0.31493300  0.79443900  0.25000000  1
  La  La3  1  0.31493300  0.70556100  0.75000000  1
  La  La4  1  0.30145100  0.23010600  0.16545900  1
  La  La5  1  0.30145100  0.23010600  0.33454100  1
  La  La6  1  0.30145100  0.26989400  0.66545900  1
  La  La7  1  0.30145100  0.26989400  0.83454100  1
  La  La8  1  0.30333900  0.80595200  0.08287500  1
  La  La9  1  0.30333900  0.80595200  0.41712500  1
  La  La10  1  0.30333900  0.69404800  0.58287500  1
  La  La11  1  0.30333900  0.69404800  0.91712500  1
  La  La12  1  0.69666100  0.30595200  0.08287500  1
  La  La13  1  0.69666100  0.30595200  0.41712500  1
  La  La14  1  0.69666100  0.19404800  0.58287500  1
  La  La15  1  0.69666100  0.19404800  0.91712500  1
  La  La16  1  0.69854900  0.73010600  0.16545900  1
  La  La17  1  0.69854900  0.73010600  0.33454100  1
  La  La18  1  0.69854900  0.76989400  0.83454100  1
  La  La19  1  0.69854900  0.76989400  0.66545900  1
  La  La20  1  0.68506700  0.29443900  0.25000000  1
  La  La21  1  0.68506700  0.20556100  0.75000000  1
  La  La22  1  0.71394600  0.75000000  0.00000000  1
  La  La23  1  0.71394600  0.75000000  0.50000000  1
  S  S0  1  0.45364100  0.51473700  0.37409500  1
  S  S1  1  0.45364100  0.51473700  0.12590500  1
  S  S2  1  0.45364100  0.98526300  0.62590500  1
  S  S3  1  0.45364100  0.98526300  0.87409500  1
  S  S4  1  0.45686000  0.51471100  0.20883800  1
  S  S5  1  0.45686000  0.51471100  0.29116200  1
  S  S6  1  0.45686000  0.98528900  0.70883800  1
  S  S7  1  0.45686000  0.98528900  0.79116200  1
  S  S8  1  0.46687600  0.53648900  0.04130400  1
  S  S9  1  0.46687600  0.96351100  0.54130400  1
  S  S10  1  0.46687600  0.53648900  0.45869600  1
  S  S11  1  0.46687600  0.96351100  0.95869600  1
  S  S12  1  0.53312400  0.03648900  0.04130400  1
  S  S13  1  0.53312400  0.03648900  0.45869600  1
  S  S14  1  0.53312400  0.46351100  0.54130400  1
  S  S15  1  0.53312400  0.46351100  0.95869600  1
  S  S16  1  0.54314000  0.01471100  0.20883800  1
  S  S17  1  0.54314000  0.01471100  0.29116200  1
  S  S18  1  0.54314000  0.48528900  0.70883800  1
  S  S19  1  0.54314000  0.48528900  0.79116200  1
  S  S20  1  0.54635900  0.01473700  0.12590500  1
  S  S21  1  0.54635900  0.01473700  0.37409500  1
  S  S22  1  0.54635900  0.48526300  0.62590500  1
  S  S23  1  0.54635900  0.48526300  0.87409500  1
  Cl  Cl0  1  0.04420800  0.91870500  0.03488700  1
  Cl  Cl1  1  0.04420800  0.91870500  0.46511300  1
  Cl  Cl2  1  0.04420800  0.58129500  0.53488700  1
  Cl  Cl3  1  0.04420800  0.58129500  0.96511300  1
  Cl  Cl4  1  0.06647600  0.14042700  0.11055300  1
  Cl  Cl5  1  0.06647600  0.14042700  0.38944700  1
  Cl  Cl6  1  0.06647600  0.35957300  0.61055300  1
  Cl  Cl7  1  0.06647600  0.35957300  0.88944700  1
  Cl  Cl8  1  0.06922600  0.88531900  0.19344900  1
  Cl  Cl9  1  0.06922600  0.88531900  0.30655100  1
  Cl  Cl10  1  0.06922600  0.61468100  0.69344900  1
  Cl  Cl11  1  0.06922600  0.61468100  0.80655100  1
  Cl  Cl12  1  0.93077400  0.11468100  0.80655100  1
  Cl  Cl13  1  0.93077400  0.38531900  0.19344900  1
  Cl  Cl14  1  0.93077400  0.38531900  0.30655100  1
  Cl  Cl15  1  0.93077400  0.11468100  0.69344900  1
  Cl  Cl16  1  0.93352400  0.64042700  0.11055300  1
  Cl  Cl17  1  0.93352400  0.64042700  0.38944700  1
  Cl  Cl18  1  0.93352400  0.85957300  0.61055300  1
  Cl  Cl19  1  0.93352400  0.85957300  0.88944700  1
  Cl  Cl20  1  0.95579200  0.41870500  0.03488700  1
  Cl  Cl21  1  0.95579200  0.41870500  0.46511300  1
  Cl  Cl22  1  0.95579200  0.08129500  0.53488700  1
  Cl  Cl23  1  0.95579200  0.08129500  0.96511300  1
loop_
_geom_bond_atom_site_label_1
_geom_bond_atom_site_label_2
_geom_bond_distance
_geom_bond_site_symmetry_2
La0 S15 2.880646 1_554
La0 S12 2.880646 1_555
La0 S11 2.957251 1_544
La0 S8 2.957251 1_555
La1 S14 2.880646 1_555
La1 S13 2.880646 1_555
La1 S10 2.957251 1_555
La1 S9 2.957251 1_545
La2 S5 2.814381 1_555
La2 S4 2.814381 1_555
La2 S17 2.826180 1_565
La2 S16 2.826180 1_565
La3 S6 2.814381 1_555
La3 S7 2.814381 1_555
La3 S19 2.826180 1_555
La3 S18 2.826180 1_555
La4 S1 2.824082 1_555
La4 S20 2.834475 1_555
La4 S16 2.919474 1_555
La4 S4 2.930499 1_555
La5 S0 2.824082 1_555
La5 S21 2.834475 1_555
La5 S17 2.919474 1_555
La5 S5 2.930499 1_555
La6 S2 2.824082 1_545
La6 S22 2.834475 1_555
La6 S18 2.919474 1_555
La6 S6 2.930499 1_545
La7 S3 2.824082 1_545
La7 S23 2.834475 1_555
La7 S19 2.919474 1_555
La7 S7 2.930499 1_545
La8 S8 2.831993 1_555
La8 S12 2.883525 1_565
La8 S20 2.891460 1_565
La8 S1 2.940884 1_555
La9 S10 2.831993 1_555
La9 S13 2.883525 1_565
La9 S21 2.891460 1_565
La9 S0 2.940884 1_555
La10 S9 2.831993 1_555
La10 S14 2.883525 1_555
La10 S22 2.891460 1_555
La10 S2 2.940884 1_555
La11 S11 2.831993 1_555
La11 S15 2.883525 1_555
La11 S23 2.891460 1_555
La11 S3 2.940884 1_555
La12 S12 2.831993 1_555
La12 S8 2.883525 1_555
La12 S1 2.891460 1_555
La12 S20 2.940884 1_555
La13 S13 2.831993 1_555
La13 S10 2.883525 1_555
La13 S0 2.891460 1_555
La13 S21 2.940884 1_555
La14 S14 2.831993 1_555
La14 S9 2.883525 1_545
La14 S2 2.891460 1_545
La14 S22 2.940884 1_555
La15 S15 2.831993 1_555
La15 S11 2.883525 1_545
La15 S3 2.891460 1_545
La15 S23 2.940884 1_555
La16 S20 2.824082 1_565
La16 S1 2.834475 1_555
La16 S4 2.919474 1_555
La16 S16 2.930499 1_565
La17 S21 2.824082 1_565
La17 S0 2.834475 1_555
La17 S5 2.919474 1_555
La17 S17 2.930499 1_565
La18 S23 2.824082 1_555
La18 S3 2.834475 1_555
La18 S7 2.919474 1_555
La18 S19 2.930499 1_555
La19 S22 2.824082 1_555
La19 S2 2.834475 1_555
La19 S6 2.919474 1_555
La19 S18 2.930499 1_555
La20 S17 2.814381 1_555
La20 S16 2.814381 1_555
La20 S5 2.826180 1_555
La20 S4 2.826180 1_555
La21 S18 2.814381 1_555
La21 S19 2.814381 1_555
La21 S6 2.826180 1_545
La21 S7 2.826180 1_545
La22 S8 2.880646 1_555
La22 S11 2.880646 1_554
La22 S12 2.957251 1_565
La22 S15 2.957251 1_554
La23 S10 2.880646 1_555
La23 S9 2.880646 1_555
La23 S13 2.957251 1_565
La23 S14 2.957251 1_555
Cl0 La8 2.830333 1_555
Cl0 La22 2.984992 1_455
Cl0 La0 3.243346 1_565
Cl1 La9 2.830333 1_555
Cl1 La23 2.984992 1_455
Cl1 La1 3.243346 1_565
Cl2 La10 2.830333 1_555
Cl2 La23 2.984992 1_455
Cl2 La1 3.243346 1_555
Cl3 La11 2.830333 1_555
Cl3 La22 2.984992 1_456
Cl3 La0 3.243346 1_556
Cl4 La4 2.909027 1_555
Cl4 La12 3.066499 1_455
Cl4 La8 3.115445 1_545
Cl5 La5 2.909027 1_555
Cl5 La13 3.066499 1_455
Cl5 La9 3.115445 1_545
Cl6 La6 2.909027 1_555
Cl6 La14 3.066499 1_455
Cl6 La10 3.115445 1_555
Cl7 La7 2.909027 1_555
Cl7 La15 3.066499 1_455
Cl7 La11 3.115445 1_555
Cl8 La2 3.008526 1_555
Cl8 La16 3.049538 1_455
Cl8 La4 3.159424 1_565
Cl9 La2 3.008526 1_555
Cl9 La17 3.049538 1_455
Cl9 La5 3.159424 1_565
Cl10 La3 3.008526 1_555
Cl10 La19 3.049538 1_455
Cl10 La6 3.159424 1_555
Cl11 La3 3.008526 1_555
Cl11 La18 3.049538 1_455
Cl11 La7 3.159424 1_555
Cl12 La21 3.008526 1_555
Cl12 La7 3.049538 1_655
Cl12 La18 3.159424 1_545
Cl13 La20 3.008526 1_555
Cl13 La4 3.049538 1_655
Cl13 La16 3.159424 1_555
Cl14 La20 3.008526 1_555
Cl14 La5 3.049538 1_655
Cl14 La17 3.159424 1_555
Cl15 La21 3.008526 1_555
Cl15 La6 3.049538 1_655
Cl15 La19 3.159424 1_545
Cl16 La16 2.909027 1_555
Cl16 La8 3.066499 1_655
Cl16 La12 3.115445 1_555
Cl17 La17 2.909027 1_555
Cl17 La9 3.066499 1_655
Cl17 La13 3.115445 1_555
Cl18 La19 2.909027 1_555
Cl18 La10 3.066499 1_655
Cl18 La14 3.115445 1_565
Cl19 La18 2.909027 1_555
Cl19 La11 3.066499 1_655
Cl19 La15 3.115445 1_565
Cl20 La12 2.830333 1_555
Cl20 La0 2.984992 1_655
Cl20 La22 3.243346 1_555
Cl21 La13 2.830333 1_555
Cl21 La1 2.984992 1_655
Cl21 La23 3.243346 1_555
Cl22 La14 2.830333 1_555
Cl22 La1 2.984992 1_655
Cl22 La23 3.243346 1_545
Cl23 La15 2.830333 1_555
Cl23 La0 2.984992 1_656
Cl23 La22 3.243346 1_546
