# generated using pymatgen
data_Ti3CrSn2(PO4)6
_symmetry_space_group_name_H-M   'P 1'
_cell_length_a   9.01241058
_cell_length_b   9.01241058
_cell_length_c   9.01241045
_cell_angle_alpha   57.24201194
_cell_angle_beta   57.24201194
_cell_angle_gamma   57.24200800
_symmetry_Int_Tables_number   1
_chemical_formula_structural   Ti3CrSn2(PO4)6
_chemical_formula_sum   'Ti3 Cr1 Sn2 P6 O24'
_cell_volume   484.73934559
_cell_formula_units_Z   1
loop_
 _symmetry_equiv_pos_site_id
 _symmetry_equiv_pos_as_xyz
  1  'x, y, z'
loop_
 _atom_site_type_symbol
 _atom_site_label
 _atom_site_symmetry_multiplicity
 _atom_site_fract_x
 _atom_site_fract_y
 _atom_site_fract_z
 _atom_site_occupancy
  Ti  Ti0  1  0.85296000  0.85296000  0.85296000  1
  Ti  Ti1  1  0.64881300  0.64881300  0.64881300  1
  Ti  Ti2  1  0.35111300  0.35111300  0.35111300  1
  Cr  Cr0  1  0.14690200  0.14690200  0.14690200  1
  Sn  Sn0  1  0.00286200  0.00286200  0.00286200  1
  Sn  Sn1  1  0.50141100  0.50141100  0.50141100  1
  P  P0  1  0.24962500  0.53481900  0.96229100  1
  P  P1  1  0.96229100  0.24962500  0.53481900  1
  P  P2  1  0.46195500  0.03864200  0.75065800  1
  P  P3  1  0.03864200  0.75065800  0.46195500  1
  P  P4  1  0.75065800  0.46195500  0.03864200  1
  P  P5  1  0.53481900  0.96229100  0.24962500  1
  O  O0  1  0.71042200  0.49601400  0.87456600  1
  O  O1  1  0.49601400  0.87456600  0.71042200  1
  O  O2  1  0.07770000  0.72027300  0.93859200  1
  O  O3  1  0.87456600  0.71042200  0.49601400  1
  O  O4  1  0.21588500  0.37227100  0.98940600  1
  O  O5  1  0.42313300  0.56354400  0.77871200  1
  O  O6  1  0.93859200  0.07770000  0.72027300  1
  O  O7  1  0.77871200  0.42313300  0.56354400  1
  O  O8  1  0.62629700  0.00560100  0.78914000  1
  O  O9  1  0.56354400  0.77871200  0.42313300  1
  O  O10  1  0.27755200  0.06037000  0.92298100  1
  O  O11  1  0.00560100  0.78914000  0.62629700  1
  O  O12  1  0.98940600  0.21588500  0.37227100  1
  O  O13  1  0.72027300  0.93859200  0.07770000  1
  O  O14  1  0.43884800  0.22152500  0.57611100  1
  O  O15  1  0.37227100  0.98940600  0.21588500  1
  O  O16  1  0.22152500  0.57611100  0.43884800  1
  O  O17  1  0.06037000  0.92298100  0.27755200  1
  O  O18  1  0.57611100  0.43884800  0.22152500  1
  O  O19  1  0.78914000  0.62629700  0.00560100  1
  O  O20  1  0.12773700  0.28835500  0.50291300  1
  O  O21  1  0.92298100  0.27755200  0.06037000  1
  O  O22  1  0.50291300  0.12773700  0.28835500  1
  O  O23  1  0.28835500  0.50291300  0.12773700  1
loop_
_geom_bond_atom_site_label_1
_geom_bond_atom_site_label_2
_geom_bond_distance
_geom_bond_site_symmetry_2
Cr0 O15 1.954050 1_545
Cr0 O12 1.954050 1_455
Cr0 O4 1.954050 1_554
Cr0 O21 2.050645 1_455
Cr0 O10 2.050645 1_554
Cr0 O17 2.050645 1_545
O0 P4 1.543036 1_556
O0 Ti1 1.925408 1_555
O1 P2 1.543036 1_565
O1 Ti1 1.925408 1_555
O2 P0 1.552164 1_555
O2 Ti0 2.049337 1_455
O2 Sn0 2.567366 1_566
O3 P3 1.543036 1_655
O3 Ti1 1.925408 1_555
O4 P0 1.520690 1_555
O5 P0 1.557040 1_555
O5 Ti1 2.058887 1_555
O5 Sn1 2.497194 1_555
O6 P1 1.552164 1_555
O6 Ti0 2.049337 1_545
O6 Sn0 2.567366 1_656
O7 P1 1.557040 1_555
O7 Ti1 2.058887 1_555
O7 Sn1 2.497194 1_555
O8 P2 1.539318 1_555
O8 Ti0 1.941735 1_545
O9 P5 1.557040 1_555
O9 Ti1 2.058887 1_555
O9 Sn1 2.497194 1_555
O10 P2 1.547915 1_555
O10 Sn0 2.443688 1_556
O11 P3 1.539318 1_555
O11 Ti0 1.941735 1_455
O12 P1 1.520690 1_555
O13 P5 1.552164 1_555
O13 Ti0 2.049337 1_554
O13 Sn0 2.567366 1_665
O14 P2 1.552993 1_555
O14 Ti2 2.067362 1_555
O14 Sn1 2.534663 1_555
O15 P5 1.520690 1_555
O16 P3 1.552993 1_555
O16 Ti2 2.067362 1_555
O16 Sn1 2.534663 1_555
O17 P3 1.547915 1_555
O17 Sn0 2.443688 1_565
O18 P4 1.552993 1_555
O18 Ti2 2.067362 1_555
O18 Sn1 2.534663 1_555
O19 P4 1.539318 1_555
O19 Ti0 1.941735 1_554
O20 P1 1.555128 1_455
O20 Ti2 1.912768 1_555
O21 P4 1.547915 1_555
O21 Sn0 2.443688 1_655
O22 P5 1.555128 1_545
O22 Ti2 1.912768 1_555
O23 P0 1.555128 1_554
O23 Ti2 1.912768 1_555
