# generated using pymatgen
data_Sb9PO25
_symmetry_space_group_name_H-M   'P 1'
_cell_length_a   11.11361929
_cell_length_b   11.11361929
_cell_length_c   11.11361929
_cell_angle_alpha   91.81985386
_cell_angle_beta   91.81985386
_cell_angle_gamma   159.46952696
_symmetry_Int_Tables_number   1
_chemical_formula_structural   Sb9PO25
_chemical_formula_sum   'Sb9 P1 O25'
_cell_volume   473.69771554
_cell_formula_units_Z   1
loop_
 _symmetry_equiv_pos_site_id
 _symmetry_equiv_pos_as_xyz
  1  'x, y, z'
loop_
 _atom_site_type_symbol
 _atom_site_label
 _atom_site_symmetry_multiplicity
 _atom_site_fract_x
 _atom_site_fract_y
 _atom_site_fract_z
 _atom_site_occupancy
  Sb  Sb0  1  0.00000000  0.00000000  0.00000000  1
  Sb  Sb1  1  0.91321800  0.23891900  0.11833100  1
  Sb  Sb2  1  0.10043100  0.30705600  0.44780100  1
  Sb  Sb3  1  0.34737000  0.89956900  0.20662500  1
  Sb  Sb4  1  0.76108100  0.87941200  0.67429900  1
  Sb  Sb5  1  0.20511300  0.08678200  0.32570100  1
  Sb  Sb6  1  0.69294400  0.14074500  0.79337500  1
  Sb  Sb7  1  0.85925500  0.65263000  0.55219900  1
  Sb  Sb8  1  0.12058800  0.79488700  0.88166900  1
  P  P0  1  0.75000000  0.25000000  0.50000000  1
  O  O0  1  0.50000000  0.50000000  0.00000000  1
  O  O1  1  0.91951700  0.09945100  0.02688200  1
  O  O2  1  0.16381900  0.19800900  0.41521800  1
  O  O3  1  0.40883200  0.77838400  0.15106600  1
  O  O4  1  0.03847400  0.28980200  0.28114000  1
  O  O5  1  0.25139900  0.83618100  0.03419000  1
  O  O6  1  0.87150000  0.37539400  0.20394000  1
  O  O7  1  0.62460600  0.82854600  0.49610700  1
  O  O8  1  0.22161600  0.37268100  0.63044700  1
  O  O9  1  0.47478400  0.96196100  0.38367100  1
  O  O10  1  0.90054900  0.92743200  0.82006600  1
  O  O11  1  0.03803900  0.42171000  0.51282300  1
  O  O12  1  0.24266700  0.96152600  0.25132800  1
  O  O13  1  0.71019800  0.99133800  0.74867200  1
  O  O14  1  0.90888700  0.52521600  0.48717700  1
  O  O15  1  0.10736600  0.08048300  0.17993400  1
  O  O16  1  0.57829000  0.09111300  0.61632900  1
  O  O17  1  0.74223400  0.59116800  0.36955300  1
  O  O18  1  0.33244000  0.12850000  0.50389300  1
  O  O19  1  0.17145400  0.66756000  0.79606000  1
  O  O20  1  0.80199100  0.21720900  0.96581000  1
  O  O21  1  0.00866200  0.75733300  0.71886000  1
  O  O22  1  0.62731900  0.25776600  0.84893400  1
  O  O23  1  0.78279100  0.74860100  0.58478200  1
  O  O24  1  0.07256800  0.89263400  0.97311800  1
loop_
_geom_bond_atom_site_label_1
_geom_bond_atom_site_label_2
_geom_bond_distance
_geom_bond_site_symmetry_2
O0 Sb0 1.980505 1_665
O0 Sb0 1.980505 1_555
O1 Sb1 1.883614 1_555
O1 Sb0 1.989609 1_655
O2 Sb2 1.919246 1_555
O2 Sb5 1.934373 1_555
O3 Sb1 2.064496 1_565
O3 Sb1 2.073384 1_455
O3 Sb3 2.087759 1_555
O4 Sb2 1.894915 1_555
O4 Sb1 1.957585 1_455
O5 Sb3 1.919246 1_555
O5 Sb8 1.934373 1_554
O6 Sb3 2.044903 1_655
O6 Sb3 2.055006 1_545
O6 Sb1 2.161968 1_555
O7 Sb2 2.044904 1_555
O7 Sb2 2.055010 1_665
O7 Sb4 2.161959 1_555
O8 Sb4 2.064497 1_445
O8 Sb4 2.073385 1_555
O8 Sb2 2.087752 1_555
O9 P0 1.556111 1_565
O9 Sb3 2.062725 1_555
O10 Sb4 1.883609 1_555
O10 Sb0 1.989611 1_666
O11 P0 1.556111 1_455
O11 Sb2 2.062725 1_555
O12 Sb3 1.894904 1_555
O12 Sb5 1.957595 1_565
O13 Sb6 1.894915 1_565
O13 Sb4 1.957585 1_555
O14 P0 1.556111 1_555
O14 Sb7 2.062725 1_555
O15 Sb5 1.883609 1_555
O15 Sb0 1.989611 1_555
O16 P0 1.556111 1_555
O16 Sb6 2.062725 1_555
O17 Sb5 2.064497 1_555
O17 Sb5 2.073388 1_665
O17 Sb7 2.087748 1_555
O18 Sb7 2.044908 1_445
O18 Sb7 2.055007 1_555
O18 Sb5 2.161959 1_555
O19 Sb6 2.044903 1_565
O19 Sb6 2.055006 1_455
O19 Sb8 2.161968 1_555
O20 Sb6 1.919246 1_555
O20 Sb1 1.934373 1_556
O21 Sb7 1.894918 1_455
O21 Sb8 1.957580 1_555
O22 Sb8 2.064497 1_655
O22 Sb8 2.073388 1_545
O22 Sb6 2.087748 1_555
O23 Sb7 1.919246 1_555
O23 Sb4 1.934373 1_555
O24 Sb8 1.883615 1_555
O24 Sb0 1.989610 1_566
