# generated using pymatgen
data_Dy(BiO2)3
_symmetry_space_group_name_H-M   'P 1'
_cell_length_a   7.00729643
_cell_length_b   7.00729643
_cell_length_c   7.00729630
_cell_angle_alpha   92.75440379
_cell_angle_beta   92.75440379
_cell_angle_gamma   92.75441124
_symmetry_Int_Tables_number   1
_chemical_formula_structural   Dy(BiO2)3
_chemical_formula_sum   'Dy2 Bi6 O12'
_cell_volume   342.84145526
_cell_formula_units_Z   2
loop_
 _symmetry_equiv_pos_site_id
 _symmetry_equiv_pos_as_xyz
  1  'x, y, z'
loop_
 _atom_site_type_symbol
 _atom_site_label
 _atom_site_symmetry_multiplicity
 _atom_site_fract_x
 _atom_site_fract_y
 _atom_site_fract_z
 _atom_site_occupancy
  Dy  Dy0  1  0.00000000  0.00000000  0.00000000  1
  Dy  Dy1  1  0.50000000  0.50000000  0.50000000  1
  Bi  Bi0  1  0.55337900  0.06814500  0.25057300  1
  Bi  Bi1  1  0.06814500  0.25057300  0.55337900  1
  Bi  Bi2  1  0.74942700  0.44662100  0.93185500  1
  Bi  Bi3  1  0.25057300  0.55337900  0.06814500  1
  Bi  Bi4  1  0.93185500  0.74942700  0.44662100  1
  Bi  Bi5  1  0.44662100  0.93185500  0.74942700  1
  O  O0  1  0.69154800  0.07257500  0.92503300  1
  O  O1  1  0.92742500  0.07496700  0.30845200  1
  O  O2  1  0.40023700  0.18787200  0.52619300  1
  O  O3  1  0.07496700  0.30845200  0.92742500  1
  O  O4  1  0.52619300  0.40023700  0.18787200  1
  O  O5  1  0.81212800  0.47380700  0.59976300  1
  O  O6  1  0.18787200  0.52619300  0.40023700  1
  O  O7  1  0.47380700  0.59976300  0.81212800  1
  O  O8  1  0.92503300  0.69154800  0.07257500  1
  O  O9  1  0.59976300  0.81212800  0.47380700  1
  O  O10  1  0.07257500  0.92503300  0.69154800  1
  O  O11  1  0.30845200  0.92742500  0.07496700  1
loop_
_geom_bond_atom_site_label_1
_geom_bond_atom_site_label_2
_geom_bond_distance
_geom_bond_site_symmetry_2
Dy0 O8 2.286589 1_445
Dy0 O3 2.286589 1_554
Dy0 O10 2.286590 1_544
Dy0 O1 2.286590 1_455
Dy0 O0 2.286590 1_454
Dy0 O11 2.286590 1_545
Dy1 O2 2.282559 1_555
Dy1 O9 2.282559 1_555
Dy1 O7 2.282559 1_555
Dy1 O4 2.282559 1_555
Dy1 O5 2.282559 1_555
Dy1 O6 2.282559 1_555
Bi0 O11 2.224831 1_545
Bi0 O2 2.390718 1_555
Bi0 O4 2.403622 1_555
Bi0 O9 2.459237 1_545
Bi0 O0 2.521549 1_554
Bi0 O1 2.630706 1_555
Bi1 O1 2.224831 1_455
Bi1 O6 2.390718 1_555
Bi1 O2 2.403622 1_555
Bi1 O5 2.459238 1_455
Bi1 O10 2.521549 1_545
Bi1 O3 2.630706 1_555
Bi2 O8 2.224831 1_556
Bi2 O7 2.390718 1_555
Bi2 O5 2.403622 1_555
Bi2 O4 2.459237 1_556
Bi2 O3 2.521550 1_655
Bi2 O0 2.630706 1_555
Bi3 O3 2.224831 1_554
Bi3 O4 2.390718 1_555
Bi3 O6 2.403622 1_555
Bi3 O7 2.459237 1_554
Bi3 O8 2.521550 1_455
Bi3 O11 2.630706 1_555
Bi4 O10 2.224831 1_655
Bi4 O5 2.390718 1_555
Bi4 O9 2.403622 1_555
Bi4 O6 2.459238 1_655
Bi4 O1 2.521549 1_565
Bi4 O8 2.630706 1_555
Bi5 O0 2.224831 1_565
Bi5 O9 2.390718 1_555
Bi5 O7 2.403622 1_555
Bi5 O2 2.459237 1_565
Bi5 O11 2.521549 1_556
Bi5 O10 2.630706 1_555
