# generated using pymatgen
data_Li2Fe(Si2O5)3
_symmetry_space_group_name_H-M   'P 1'
_cell_length_a   7.30277029
_cell_length_b   7.97215027
_cell_length_c   11.95027730
_cell_angle_alpha   95.43740591
_cell_angle_beta   98.62820644
_cell_angle_gamma   116.91656470
_symmetry_Int_Tables_number   1
_chemical_formula_structural   Li2Fe(Si2O5)3
_chemical_formula_sum   'Li4 Fe2 Si12 O30'
_cell_volume   602.80666824
_cell_formula_units_Z   2
loop_
 _symmetry_equiv_pos_site_id
 _symmetry_equiv_pos_as_xyz
  1  'x, y, z'
loop_
 _atom_site_type_symbol
 _atom_site_label
 _atom_site_symmetry_multiplicity
 _atom_site_fract_x
 _atom_site_fract_y
 _atom_site_fract_z
 _atom_site_occupancy
  Li  Li0  1  0.17278500  0.42791300  0.28470700  1
  Li  Li1  1  0.17284300  0.92791300  0.78481700  1
  Li  Li2  1  0.82724600  0.57209600  0.71528900  1
  Li  Li3  1  0.82718700  0.07210800  0.21520900  1
  Fe  Fe0  1  0.00001600  0.49997500  0.50000100  1
  Fe  Fe1  1  0.99979200  0.99998700  0.00003100  1
  Si  Si0  1  0.17279300  0.74129000  0.13023800  1
  Si  Si1  1  0.17290900  0.24134800  0.63040800  1
  Si  Si2  1  0.82717800  0.25874000  0.86972800  1
  Si  Si3  1  0.82713100  0.75864600  0.36959700  1
  Si  Si4  1  0.19762500  0.56870200  0.78518600  1
  Si  Si5  1  0.19761400  0.06863200  0.28509700  1
  Si  Si6  1  0.80240900  0.43130300  0.21480700  1
  Si  Si7  1  0.80241200  0.93136900  0.71489600  1
  Si  Si8  1  0.50929700  0.70808900  0.01011300  1
  Si  Si9  1  0.50930200  0.20810600  0.51012000  1
  Si  Si10  1  0.49060300  0.29182900  0.98987500  1
  Si  Si11  1  0.49073100  0.79189700  0.48987600  1
  O  O0  1  0.50003000  0.50000000  0.00000000  1
  O  O1  1  0.50001800  0.99999900  0.49999800  1
  O  O2  1  0.04779200  0.79401400  0.02738000  1
  O  O3  1  0.04798500  0.29407500  0.52750100  1
  O  O4  1  0.95216100  0.20608500  0.97262100  1
  O  O5  1  0.95205200  0.70590100  0.47250000  1
  O  O6  1  0.98221200  0.46680200  0.83870400  1
  O  O7  1  0.98212300  0.96670900  0.33856400  1
  O  O8  1  0.01783700  0.53321100  0.16129600  1
  O  O9  1  0.01790100  0.03328900  0.66143000  1
  O  O10  1  0.13272200  0.66646500  0.68490800  1
  O  O11  1  0.13280200  0.16651100  0.18486700  1
  O  O12  1  0.86731300  0.33353400  0.31509100  1
  O  O13  1  0.86717000  0.83348400  0.81513500  1
  O  O14  1  0.37534700  0.72125500  0.10534300  1
  O  O15  1  0.37536600  0.22130500  0.60537100  1
  O  O16  1  0.62463400  0.27875000  0.89466000  1
  O  O17  1  0.62466900  0.77869800  0.39462200  1
  O  O18  1  0.39443100  0.72834600  0.88642200  1
  O  O19  1  0.39434000  0.22819100  0.38640300  1
  O  O20  1  0.60560800  0.27166400  0.11356900  1
  O  O21  1  0.60568800  0.77181200  0.61359300  1
  O  O22  1  0.26298400  0.40517800  0.74616100  1
  O  O23  1  0.26293500  0.90510200  0.24601700  1
  O  O24  1  0.73705100  0.59482900  0.25383700  1
  O  O25  1  0.73709500  0.09489300  0.75397800  1
  O  O26  1  0.25707000  0.11006600  0.94261000  1
  O  O27  1  0.25721400  0.61013500  0.44261000  1
  O  O28  1  0.74276300  0.88989400  0.05742700  1
  O  O29  1  0.74281600  0.38986100  0.55738900  1
loop_
_geom_bond_atom_site_label_1
_geom_bond_atom_site_label_2
_geom_bond_distance
_geom_bond_site_symmetry_2
Li0 O27 2.090854 1_555
Li0 O12 2.109394 1_455
Li0 O11 2.173689 1_555
Li0 O8 2.180372 1_555
Li1 O26 2.089780 1_565
Li1 O13 2.110418 1_455
Li1 O10 2.173975 1_555
Li1 O9 2.180590 1_565
Li2 O29 2.090874 1_555
Li2 O10 2.109416 1_655
Li2 O13 2.173791 1_555
Li2 O6 2.180459 1_555
Li3 O28 2.089684 1_545
Li3 O11 2.110154 1_655
Li3 O12 2.173672 1_555
Li3 O7 2.180447 1_545
Fe0 O3 1.874413 1_555
Fe0 O5 1.874598 1_455
Fe0 O29 1.943349 1_455
Fe0 O27 1.943374 1_555
Fe0 O12 2.284788 1_455
Fe0 O10 2.284874 1_555
Fe1 O4 1.874334 1_564
Fe1 O2 1.874694 1_655
Fe1 O28 1.942375 1_555
Fe1 O26 1.944013 1_664
Fe1 O11 2.284272 1_665
Fe1 O13 2.284784 1_554
O0 Si8 1.621449 1_555
O0 Si10 1.621591 1_554
O1 Si11 1.621486 1_555
O1 Si9 1.621535 1_565
O2 Si0 1.621573 1_555
O3 Si1 1.621677 1_555
O4 Si2 1.621468 1_555
O5 Si3 1.621715 1_555
O6 Si2 1.647056 1_555
O6 Si4 1.669417 1_655
O7 Si3 1.647026 1_555
O7 Si5 1.669531 1_665
O8 Si0 1.647174 1_555
O8 Si6 1.669461 1_455
O9 Si1 1.646978 1_555
O9 Si7 1.669511 1_445
O10 Si4 1.615290 1_555
O11 Si5 1.615232 1_555
O12 Si6 1.615379 1_555
O13 Si7 1.615187 1_555
O14 Si0 1.624503 1_555
O14 Si8 1.633200 1_555
O15 Si1 1.624366 1_555
O15 Si9 1.633392 1_555
O16 Si2 1.624470 1_555
O16 Si10 1.633307 1_555
O17 Si3 1.624392 1_555
O17 Si11 1.633431 1_555
O18 Si4 1.636891 1_555
O18 Si8 1.646357 1_556
O19 Si5 1.636885 1_555
O19 Si9 1.646342 1_555
O20 Si6 1.636876 1_555
O20 Si10 1.646509 1_554
O21 Si7 1.636855 1_555
O21 Si11 1.646327 1_555
O22 Si1 1.630565 1_555
O22 Si4 1.630860 1_555
O23 Si0 1.630667 1_555
O23 Si5 1.630877 1_565
O24 Si3 1.630566 1_555
O24 Si6 1.630885 1_555
O25 Si2 1.630608 1_555
O25 Si7 1.630820 1_545
O26 Si10 1.626561 1_555
O27 Si11 1.626490 1_555
O28 Si8 1.626461 1_555
O29 Si9 1.626459 1_555
