# generated using pymatgen
data_Li2FeO2
_symmetry_space_group_name_H-M   'P 1'
_cell_length_a   2.96304744
_cell_length_b   9.69803424
_cell_length_c   7.46528750
_cell_angle_alpha   89.99987153
_cell_angle_beta   89.99899882
_cell_angle_gamma   90.00004806
_symmetry_Int_Tables_number   1
_chemical_formula_structural   Li2FeO2
_chemical_formula_sum   'Li8 Fe4 O8'
_cell_volume   214.52052688
_cell_formula_units_Z   4
loop_
 _symmetry_equiv_pos_site_id
 _symmetry_equiv_pos_as_xyz
  1  'x, y, z'
loop_
 _atom_site_type_symbol
 _atom_site_label
 _atom_site_symmetry_multiplicity
 _atom_site_fract_x
 _atom_site_fract_y
 _atom_site_fract_z
 _atom_site_occupancy
  Li  Li0  1  0.50000000  0.21289200  0.49999400  1
  Li  Li1  1  0.00000000  0.71289700  0.24999700  1
  Li  Li2  1  0.50000000  0.21289700  0.00000200  1
  Li  Li3  1  0.99999900  0.71289300  0.75000500  1
  Li  Li4  1  0.99999900  0.28710800  0.75000400  1
  Li  Li5  1  0.50000000  0.78710900  0.49999400  1
  Li  Li6  1  0.99999900  0.28710400  0.24999600  1
  Li  Li7  1  0.49999900  0.78710400  0.00000200  1
  Fe  Fe0  1  0.99998700  0.00000100  0.25000600  1
  Fe  Fe1  1  0.49997900  0.49999600  0.00000000  1
  Fe  Fe2  1  0.50000400  0.49999700  0.50001100  1
  Fe  Fe3  1  0.00003500  0.99999800  0.75000100  1
  O  O0  1  0.00000000  0.64507600  0.49998500  1
  O  O1  1  0.49999900  0.14507900  0.25000600  1
  O  O2  1  0.00000100  0.64507800  0.99999000  1
  O  O3  1  0.49999900  0.14507800  0.75001500  1
  O  O4  1  0.50000100  0.85492300  0.75001800  1
  O  O5  1  0.99999900  0.35492500  0.49998300  1
  O  O6  1  0.49999800  0.85492000  0.25000800  1
  O  O7  1  0.00000200  0.35492300  0.99998600  1
loop_
_geom_bond_atom_site_label_1
_geom_bond_atom_site_label_2
_geom_bond_distance
_geom_bond_site_symmetry_2
Li0 O1 1.978721 1_555
Li0 O3 1.978954 1_555
Li0 O5 2.022929 1_555
Li0 O5 2.022936 1_455
Li1 O0 1.978744 1_555
Li1 O2 1.978874 1_554
Li1 O6 2.022861 1_555
Li1 O6 2.022872 1_455
Li2 O3 1.978733 1_554
Li2 O1 1.978847 1_555
Li2 O7 2.022883 1_554
Li2 O7 2.022890 1_654
Li3 O2 1.978703 1_655
Li3 O0 1.978959 1_655
Li3 O4 2.022909 1_555
Li3 O4 2.022916 1_655
Li4 O7 1.978685 1_655
Li4 O5 1.978963 1_555
Li4 O3 2.022912 1_555
Li4 O3 2.022914 1_655
Li5 O6 1.978697 1_555
Li5 O4 1.978977 1_555
Li5 O0 2.022932 1_555
Li5 O0 2.022933 1_655
Li6 O5 1.978739 1_555
Li6 O7 1.978892 1_654
Li6 O1 2.022879 1_555
Li6 O1 2.022881 1_655
Li7 O4 1.978709 1_554
Li7 O6 1.978857 1_555
Li7 O2 2.022881 1_554
Li7 O2 2.022891 1_654
Fe0 O1 2.043130 1_555
Fe0 O6 2.043150 1_545
Fe0 O1 2.043180 1_655
Fe0 O6 2.043199 1_645
Fe1 O7 2.043071 1_554
Fe1 O2 2.043135 1_554
Fe1 O7 2.043172 1_654
Fe1 O2 2.043228 1_654
Fe2 O5 2.043105 1_555
Fe2 O5 2.043125 1_455
Fe2 O0 2.043152 1_655
Fe2 O0 2.043171 1_555
Fe3 O4 2.043062 1_555
Fe3 O3 2.043090 1_565
Fe3 O4 2.043207 1_455
Fe3 O3 2.043246 1_465
