# generated using pymatgen
data_Li8Mn7Co(PO4)12
_symmetry_space_group_name_H-M   'P 1'
_cell_length_a   8.54058100
_cell_length_b   8.77337404
_cell_length_c   11.92066354
_cell_angle_alpha   89.81051036
_cell_angle_beta   89.86069524
_cell_angle_gamma   89.46250708
_symmetry_Int_Tables_number   1
_chemical_formula_structural   Li8Mn7Co(PO4)12
_chemical_formula_sum   'Li8 Mn7 Co1 P12 O48'
_cell_volume   893.16512084
_cell_formula_units_Z   1
loop_
 _symmetry_equiv_pos_site_id
 _symmetry_equiv_pos_as_xyz
  1  'x, y, z'
loop_
 _atom_site_type_symbol
 _atom_site_label
 _atom_site_symmetry_multiplicity
 _atom_site_fract_x
 _atom_site_fract_y
 _atom_site_fract_z
 _atom_site_occupancy
  Li  Li0  1  0.21556100  0.72165800  0.18139400  1
  Li  Li1  1  0.21486000  0.77633600  0.81890300  1
  Li  Li2  1  0.28601300  0.22305000  0.31861300  1
  Li  Li3  1  0.28487100  0.27970400  0.68120000  1
  Li  Li4  1  0.71623700  0.72070400  0.32036100  1
  Li  Li5  1  0.71528800  0.77511700  0.68135300  1
  Li  Li6  1  0.78450900  0.22346600  0.18149500  1
  Li  Li7  1  0.78415300  0.27922500  0.81662200  1
  Mn  Mn0  1  0.24625100  0.96231500  0.61289800  1
  Mn  Mn1  1  0.24974100  0.53431600  0.38555600  1
  Mn  Mn2  1  0.25160700  0.03637600  0.11343000  1
  Mn  Mn3  1  0.24995100  0.46509800  0.88538200  1
  Mn  Mn4  1  0.74842300  0.53568600  0.11490800  1
  Mn  Mn5  1  0.74780400  0.96403500  0.88679400  1
  Mn  Mn6  1  0.75209800  0.03656400  0.38576600  1
  Co  Co0  1  0.75234500  0.46499700  0.61552700  1
  P  P0  1  0.03346700  0.24896600  0.50158700  1
  P  P1  1  0.10530300  0.39437600  0.14674600  1
  P  P2  1  0.10536000  0.10510200  0.85158800  1
  P  P3  1  0.39628900  0.60606800  0.64489500  1
  P  P4  1  0.39415400  0.89343600  0.35243200  1
  P  P5  1  0.46488400  0.75197800  0.99951600  1
  P  P6  1  0.53540100  0.24870100  0.99975900  1
  P  P7  1  0.60711700  0.39581900  0.35590700  1
  P  P8  1  0.60596600  0.10836600  0.64584500  1
  P  P9  1  0.89312300  0.60578100  0.85336400  1
  P  P10  1  0.89412300  0.89430100  0.14768400  1
  P  P11  1  0.96429100  0.74638800  0.50141400  1
  O  O0  1  0.05930400  0.64207900  0.42457800  1
  O  O1  1  0.05768900  0.85600800  0.57671300  1
  O  O2  1  0.07535400  0.89717200  0.15798700  1
  O  O3  1  0.07421300  0.60569100  0.84276500  1
  O  O4  1  0.14336500  0.15815600  0.58471900  1
  O  O5  1  0.14370900  0.33215800  0.41975200  1
  O  O6  1  0.15503400  0.43850800  0.02860900  1
  O  O7  1  0.15469400  0.05973600  0.97102800  1
  O  O8  1  0.15975000  0.23102500  0.17991000  1
  O  O9  1  0.15717200  0.26409400  0.81762200  1
  O  O10  1  0.17779800  0.51440700  0.22658400  1
  O  O11  1  0.17874800  0.98122200  0.77292600  1
  O  O12  1  0.32077500  0.01703800  0.27375300  1
  O  O13  1  0.32102800  0.48799300  0.72564600  1
  O  O14  1  0.34069800  0.77025200  0.67740900  1
  O  O15  1  0.34152000  0.73426000  0.31930500  1
  O  O16  1  0.34504700  0.56233600  0.52734800  1
  O  O17  1  0.34552600  0.93900500  0.47226000  1
  O  O18  1  0.35717300  0.83981800  0.08467100  1
  O  O19  1  0.35860800  0.66928400  0.91708300  1
  O  O20  1  0.42399400  0.10346400  0.65694600  1
  O  O21  1  0.42580100  0.39633800  0.34232600  1
  O  O22  1  0.44174700  0.14066300  0.07614500  1
  O  O23  1  0.44186200  0.35647000  0.92423600  1
  O  O24  1  0.55742700  0.64397100  0.07545800  1
  O  O25  1  0.55924200  0.86026200  0.92351200  1
  O  O26  1  0.57681700  0.60421700  0.65672700  1
  O  O27  1  0.57493100  0.89587300  0.34211200  1
  O  O28  1  0.64290600  0.33257500  0.08119800  1
  O  O29  1  0.64460700  0.15992400  0.91568200  1
  O  O30  1  0.65474100  0.06034700  0.52734400  1
  O  O31  1  0.65635000  0.44144200  0.47263100  1
  O  O32  1  0.65918200  0.23239100  0.32085500  1
  O  O33  1  0.65802900  0.27035400  0.67752400  1
  O  O34  1  0.67765500  0.51509500  0.27316900  1
  O  O35  1  0.67873800  0.98582300  0.72615800  1
  O  O36  1  0.82122100  0.01742500  0.22682300  1
  O  O37  1  0.82099900  0.48611000  0.77335300  1
  O  O38  1  0.84256200  0.73505100  0.18154900  1
  O  O39  1  0.83931800  0.77028500  0.82098600  1
  O  O40  1  0.84506800  0.56278100  0.97228500  1
  O  O41  1  0.84526200  0.93979200  0.02817300  1
  O  O42  1  0.85539300  0.65934300  0.58304300  1
  O  O43  1  0.85648400  0.83711700  0.41876400  1
  O  O44  1  0.92402100  0.10223900  0.84117200  1
  O  O45  1  0.92496800  0.39523000  0.15889900  1
  O  O46  1  0.94345100  0.14068900  0.42408800  1
  O  O47  1  0.94083200  0.35655200  0.57723600  1
loop_
_geom_bond_atom_site_label_1
_geom_bond_atom_site_label_2
_geom_bond_distance
_geom_bond_site_symmetry_2
Li0 O10 1.924596 1_555
Li0 O2 1.961394 1_555
Li0 O18 1.968676 1_555
Li0 O15 1.970845 1_555
Li1 O11 1.900150 1_555
Li1 O19 1.933181 1_555
Li1 O3 1.947942 1_555
Li1 O14 1.998390 1_555
Li2 O12 1.906943 1_555
Li2 O5 1.955933 1_555
Li2 O21 1.963452 1_555
Li2 O8 1.976887 1_555
Li3 O13 1.932160 1_555
Li3 O9 1.961015 1_555
Li3 O20 1.962907 1_555
Li3 O4 1.989869 1_555
Li4 O34 1.922971 1_555
Li4 O27 1.962606 1_555
Li4 O43 1.972697 1_555
Li4 O38 1.977491 1_555
Li5 O26 1.941842 1_555
Li5 O35 1.948060 1_555
Li5 O42 1.953242 1_555
Li5 O39 1.975291 1_555
Li6 O36 1.908322 1_555
Li6 O28 1.945799 1_555
Li6 O45 1.952474 1_555
Li6 O32 1.975412 1_555
Li7 O37 1.913980 1_555
Li7 O44 1.971694 1_555
Li7 O29 1.979580 1_555
Li7 O33 1.981640 1_555
Mn0 O17 1.887710 1_555
Mn0 O1 1.919281 1_555
Mn0 O4 1.951004 1_565
Mn0 O11 1.998481 1_555
Mn0 O14 2.012547 1_555
Mn0 O20 2.038893 1_565
Mn1 O16 1.895556 1_555
Mn1 O0 1.930270 1_555
Mn1 O21 1.989507 1_555
Mn1 O10 2.002280 1_555
Mn1 O5 2.038499 1_555
Mn1 O15 2.080604 1_555
Mn2 O7 1.900006 1_554
Mn2 O22 1.921829 1_555
Mn2 O18 1.969127 1_545
Mn2 O12 2.007918 1_555
Mn2 O2 2.016412 1_545
Mn2 O8 2.034852 1_555
Mn3 O6 1.902849 1_556
Mn3 O23 1.944398 1_555
Mn3 O3 1.999273 1_555
Mn3 O13 2.007188 1_555
Mn3 O19 2.061666 1_555
Mn3 O9 2.104507 1_555
Mn4 O40 1.903295 1_554
Mn4 O24 1.938110 1_555
Mn4 O34 1.987801 1_555
Mn4 O45 2.007899 1_555
Mn4 O28 2.045883 1_555
Mn4 O38 2.091780 1_555
Mn5 O41 1.891960 1_556
Mn5 O25 1.906675 1_555
Mn5 O29 1.955254 1_565
Mn5 O35 2.013015 1_555
Mn5 O44 2.014167 1_565
Mn5 O39 2.024017 1_555
Mn6 O30 1.890899 1_555
Mn6 O46 1.936090 1_555
Mn6 O36 1.990333 1_555
Mn6 O43 1.994818 1_545
Mn6 O27 2.031502 1_545
Mn6 O32 2.036867 1_555
Co0 O31 1.904938 1_555
Co0 O47 1.917172 1_555
Co0 O42 1.963135 1_555
Co0 O37 1.981779 1_555
Co0 O26 1.986572 1_555
Co0 O33 2.031197 1_555
O0 P11 1.524106 1_455
O1 P11 1.546130 1_455
O2 P10 1.553427 1_455
O3 P9 1.551453 1_455
O4 P0 1.575764 1_555
O5 P0 1.540963 1_555
O6 P1 1.519904 1_555
O7 P2 1.535963 1_555
O8 P1 1.552758 1_555
O9 P2 1.520678 1_555
O10 P1 1.555577 1_555
O11 P2 1.563481 1_565
O12 P4 1.559403 1_545
O13 P3 1.554277 1_555
O14 P3 1.562209 1_555
O15 P4 1.524646 1_555
O16 P3 1.520490 1_555
O17 P4 1.539645 1_555
O18 P5 1.567775 1_554
O19 P5 1.528798 1_555
O20 P8 1.560432 1_555
O21 P7 1.557338 1_555
O22 P6 1.540235 1_554
O23 P6 1.525247 1_555
O24 P5 1.525087 1_554
O25 P5 1.542060 1_555
O26 P3 1.548522 1_555
O27 P4 1.548878 1_555
O28 P6 1.532546 1_554
O29 P6 1.571000 1_555
O30 P8 1.531099 1_555
O31 P7 1.510885 1_555
O32 P7 1.555392 1_555
O33 P8 1.541525 1_555
O34 P7 1.559768 1_555
O35 P8 1.562782 1_565
O36 P10 1.560696 1_545
O37 P9 1.553409 1_555
O38 P10 1.521805 1_555
O39 P9 1.558158 1_555
O40 P9 1.522150 1_555
O41 P10 1.535924 1_555
O42 P11 1.548896 1_555
O43 P11 1.561263 1_555
O44 P2 1.554455 1_655
O45 P1 1.546564 1_655
O46 P0 1.539445 1_655
O47 P0 1.522574 1_655
