# generated using pymatgen
data_LiCoPO4
_symmetry_space_group_name_H-M   'P 1'
_cell_length_a   5.29421280
_cell_length_b   5.28867188
_cell_length_c   25.24807112
_cell_angle_alpha   89.99943472
_cell_angle_beta   90.00926941
_cell_angle_gamma   60.02794663
_symmetry_Int_Tables_number   1
_chemical_formula_structural   LiCoPO4
_chemical_formula_sum   'Li6 Co6 P6 O24'
_cell_volume   612.39139292
_cell_formula_units_Z   6
loop_
 _symmetry_equiv_pos_site_id
 _symmetry_equiv_pos_as_xyz
  1  'x, y, z'
loop_
 _atom_site_type_symbol
 _atom_site_label
 _atom_site_symmetry_multiplicity
 _atom_site_fract_x
 _atom_site_fract_y
 _atom_site_fract_z
 _atom_site_occupancy
  Li  Li0  1  0.00002200  0.99980000  0.08321000  1
  Li  Li1  1  0.99987900  0.00001900  0.58329100  1
  Li  Li2  1  0.00009400  0.00006700  0.25010200  1
  Li  Li3  1  0.00009300  0.99983200  0.75004200  1
  Li  Li4  1  0.00001200  0.00001900  0.41667200  1
  Li  Li5  1  0.00004400  0.99997000  0.91666200  1
  Co  Co0  1  0.50004500  0.49982900  0.83336100  1
  Co  Co1  1  0.99981100  0.50008700  0.16665500  1
  Co  Co2  1  0.49998400  0.99997800  0.49998100  1
  Co  Co3  1  0.50001500  0.50004500  0.33344200  1
  Co  Co4  1  0.99991600  0.50010400  0.66666000  1
  Co  Co5  1  0.50009400  0.99995700  0.99989900  1
  P  P0  1  0.49999400  0.49986000  0.08321600  1
  P  P1  1  0.49995400  0.49995800  0.58335200  1
  P  P2  1  0.99997200  0.50015300  0.41670700  1
  P  P3  1  0.00002000  0.50007600  0.91663800  1
  P  P4  1  0.50003500  0.00014000  0.25012100  1
  P  P5  1  0.49999700  0.99995000  0.74997800  1
  O  O0  1  0.40263400  0.81997700  0.28422100  1
  O  O1  1  0.40275900  0.81967900  0.78414000  1
  O  O2  1  0.40246600  0.77756500  0.04910500  1
  O  O3  1  0.40260900  0.77756700  0.54919400  1
  O  O4  1  0.77668600  0.40353400  0.11746500  1
  O  O5  1  0.77716300  0.40320400  0.61749900  1
  O  O6  1  0.81978300  0.40282300  0.38256400  1
  O  O7  1  0.81974700  0.40275900  0.88250000  1
  O  O8  1  0.81973700  0.77748300  0.45084100  1
  O  O9  1  0.81983700  0.77739600  0.95076800  1
  O  O10  1  0.77671300  0.81977900  0.21585900  1
  O  O11  1  0.77700300  0.81971700  0.71582300  1
  O  O12  1  0.22270400  0.18164400  0.21608900  1
  O  O13  1  0.22272300  0.18043300  0.71583500  1
  O  O14  1  0.18024200  0.22255700  0.45084900  1
  O  O15  1  0.18019800  0.22255600  0.95079600  1
  O  O16  1  0.22271600  0.59575600  0.11723400  1
  O  O17  1  0.22287300  0.59686400  0.61750900  1
  O  O18  1  0.18012400  0.59727800  0.38255800  1
  O  O19  1  0.18024000  0.59714100  0.88249400  1
  O  O20  1  0.59826100  0.22226100  0.04899800  1
  O  O21  1  0.59714400  0.22253800  0.54921000  1
  O  O22  1  0.59834600  0.17950400  0.28433300  1
  O  O23  1  0.59730800  0.18014300  0.78413100  1
loop_
_geom_bond_atom_site_label_1
_geom_bond_atom_site_label_2
_geom_bond_distance
_geom_bond_site_symmetry_2
Li0 O20 2.038020 1_465
Li0 O2 2.039846 1_555
Li0 O16 2.043662 1_555
Li0 O4 2.045249 1_465
Li1 O21 2.040537 1_555
Li1 O3 2.040969 1_645
Li1 O17 2.042259 1_645
Li1 O5 2.042369 1_555
Li2 O22 2.038451 1_455
Li2 O0 2.040165 1_545
Li2 O12 2.044439 1_555
Li2 O10 2.044888 1_445
Li3 O1 2.040464 1_555
Li3 O23 2.041133 1_465
Li3 O13 2.042684 1_565
Li3 O11 2.042691 1_455
Li4 O18 2.039328 1_545
Li4 O6 2.039352 1_455
Li4 O14 2.040104 1_555
Li4 O8 2.040310 1_445
Li5 O9 2.039529 1_455
Li5 O15 2.039546 1_565
Li5 O7 2.039845 1_465
Li5 O19 2.040257 1_555
Co0 O7 1.949030 1_555
Co0 O23 1.949104 1_555
Co0 O1 1.949449 1_555
Co0 O19 1.949473 1_555
Co1 O12 1.949467 1_655
Co1 O4 1.949571 1_555
Co1 O10 1.949930 1_555
Co1 O16 1.950042 1_655
Co2 O14 1.948928 1_565
Co2 O3 1.949178 1_555
Co2 O21 1.949280 1_565
Co2 O8 1.949377 1_555
Co3 O6 1.948878 1_555
Co3 O22 1.949535 1_555
Co3 O18 1.949606 1_555
Co3 O0 1.949683 1_555
Co4 O5 1.948691 1_555
Co4 O11 1.948865 1_555
Co4 O13 1.948871 1_655
Co4 O17 1.949144 1_655
Co5 O15 1.948942 1_565
Co5 O20 1.949214 1_566
Co5 O9 1.949262 1_555
Co5 O2 1.949750 1_556
O0 P4 1.551153 1_565
O1 P5 1.551917 1_555
O2 P0 1.551618 1_555
O3 P1 1.552017 1_555
O4 P0 1.551469 1_555
O5 P1 1.551849 1_555
O6 P2 1.551934 1_555
O7 P3 1.552167 1_655
O8 P2 1.551258 1_555
O9 P3 1.551128 1_655
O10 P4 1.551831 1_565
O11 P5 1.551338 1_555
O12 P4 1.551407 1_555
O13 P5 1.551989 1_545
O14 P2 1.552107 1_455
O15 P3 1.552005 1_555
O16 P0 1.551252 1_555
O17 P1 1.551615 1_555
O18 P2 1.551338 1_455
O19 P3 1.551347 1_555
O20 P0 1.552249 1_555
O21 P1 1.551237 1_555
O22 P4 1.552431 1_555
O23 P5 1.551633 1_545
