# generated using pymatgen
data_LiCr2O3
_symmetry_space_group_name_H-M   'P 1'
_cell_length_a   5.21283921
_cell_length_b   5.21283921
_cell_length_c   5.27678822
_cell_angle_alpha   79.59325059
_cell_angle_beta   79.59325059
_cell_angle_gamma   119.07348543
_symmetry_Int_Tables_number   1
_chemical_formula_structural   LiCr2O3
_chemical_formula_sum   'Li2 Cr4 O6'
_cell_volume   117.09797752
_cell_formula_units_Z   2
loop_
 _symmetry_equiv_pos_site_id
 _symmetry_equiv_pos_as_xyz
  1  'x, y, z'
loop_
 _atom_site_type_symbol
 _atom_site_label
 _atom_site_symmetry_multiplicity
 _atom_site_fract_x
 _atom_site_fract_y
 _atom_site_fract_z
 _atom_site_occupancy
  Li  Li0  1  0.08528800  0.91471200  0.75000000  1
  Li  Li1  1  0.91471200  0.08528800  0.25000000  1
  Cr  Cr0  1  0.75398000  0.24602000  0.75000000  1
  Cr  Cr1  1  0.41401900  0.58598100  0.75000000  1
  Cr  Cr2  1  0.58598100  0.41401900  0.25000000  1
  Cr  Cr3  1  0.24602000  0.75398000  0.25000000  1
  O  O0  1  0.82262200  0.64178400  0.49068700  1
  O  O1  1  0.64178400  0.82262200  0.99068700  1
  O  O2  1  0.00000000  0.50000000  0.00000000  1
  O  O3  1  0.35821600  0.17737800  0.00931300  1
  O  O4  1  0.50000000  0.00000000  0.50000000  1
  O  O5  1  0.17737800  0.35821600  0.50931300  1
loop_
_geom_bond_atom_site_label_1
_geom_bond_atom_site_label_2
_geom_bond_distance
_geom_bond_site_symmetry_2
Li0 O4 2.105984 1_565
Li0 O2 2.105984 1_556
Li0 O1 2.197450 1_455
Li0 O5 2.197450 1_565
Li0 O3 2.293090 1_566
Li0 O0 2.293090 1_455
Li1 O4 2.105984 1_555
Li1 O2 2.105984 1_655
Li1 O0 2.197450 1_545
Li1 O3 2.197450 1_655
Li1 O1 2.293090 1_544
Li1 O5 2.293090 1_655
Cr0 O5 2.071435 1_655
Cr0 O1 2.071435 1_545
Cr0 O3 2.083846 1_556
Cr0 O0 2.083846 1_555
Cr0 O4 2.174831 1_555
Cr0 O2 2.174831 1_656
Cr1 O1 2.057131 1_555
Cr1 O5 2.057131 1_555
Cr1 O2 2.101611 1_556
Cr1 O4 2.101611 1_565
Cr1 O3 2.166771 1_556
Cr1 O0 2.166771 1_555
Cr2 O3 2.057131 1_555
Cr2 O0 2.057131 1_555
Cr2 O2 2.101611 1_655
Cr2 O4 2.101611 1_555
Cr2 O1 2.166771 1_554
Cr2 O5 2.166771 1_555
Cr3 O0 2.071435 1_455
Cr3 O3 2.071435 1_565
Cr3 O5 2.083846 1_555
Cr3 O1 2.083846 1_554
Cr3 O2 2.174831 1_555
Cr3 O4 2.174831 1_565
