# generated using pymatgen
data_Na2MnPCO7
_symmetry_space_group_name_H-M   'P 1'
_cell_length_a   8.48874700
_cell_length_b   8.54694975
_cell_length_c   10.23528978
_cell_angle_alpha   107.73681010
_cell_angle_beta   107.40331939
_cell_angle_gamma   104.30704851
_symmetry_Int_Tables_number   1
_chemical_formula_structural   Na2MnPCO7
_chemical_formula_sum   'Na8 Mn4 P4 C4 O28'
_cell_volume   626.44435751
_cell_formula_units_Z   4
loop_
 _symmetry_equiv_pos_site_id
 _symmetry_equiv_pos_as_xyz
  1  'x, y, z'
loop_
 _atom_site_type_symbol
 _atom_site_label
 _atom_site_symmetry_multiplicity
 _atom_site_fract_x
 _atom_site_fract_y
 _atom_site_fract_z
 _atom_site_occupancy
  Na  Na0  1  0.24749700  0.24200400  0.24088500  1
  Na  Na1  1  0.49219300  0.00611300  0.25454200  1
  Na  Na2  1  0.98160500  0.50657400  0.24821700  1
  Na  Na3  1  0.51554700  0.01005700  0.75534400  1
  Na  Na4  1  0.99497800  0.49111700  0.75063300  1
  Na  Na5  1  0.24068200  0.24528900  0.75320300  1
  Na  Na6  1  0.76028400  0.76402800  0.75414100  1
  Na  Na7  1  0.46994800  0.70119000  0.93034600  1
  Mn  Mn0  1  0.93584300  0.18146600  0.35139000  1
  Mn  Mn1  1  0.45116400  0.69094900  0.34991100  1
  Mn  Mn2  1  0.55714400  0.30749900  0.64942100  1
  Mn  Mn3  1  0.05967900  0.80835400  0.64487600  1
  P  P0  1  0.19144300  0.94422000  0.42106600  1
  P  P1  1  0.68851200  0.43363600  0.42049700  1
  P  P2  1  0.31262200  0.56490100  0.57657100  1
  P  P3  1  0.80941600  0.05728700  0.57995400  1
  C  C0  1  0.76778900  0.02095200  0.07027800  1
  C  C1  1  0.27717000  0.53057300  0.07427000  1
  C  C2  1  0.72159000  0.47283400  0.92441600  1
  C  C3  1  0.22431700  0.97199900  0.92472200  1
  O  O0  1  0.29592300  0.04051500  0.06516800  1
  O  O1  1  0.79957700  0.54862300  0.06191300  1
  O  O2  1  0.42235600  0.67526900  0.14587100  1
  O  O3  1  0.91750200  0.16169600  0.14619300  1
  O  O4  1  0.69872400  0.96353200  0.15077400  1
  O  O5  1  0.22172800  0.47398400  0.16264100  1
  O  O6  1  0.27154200  0.84113900  0.32617100  1
  O  O7  1  0.08747900  0.03216000  0.33492300  1
  O  O8  1  0.77428700  0.32712300  0.33134600  1
  O  O9  1  0.57360300  0.50304700  0.32499400  1
  O  O10  1  0.16736300  0.42034300  0.42596800  1
  O  O11  1  0.55984800  0.30092300  0.45762900  1
  O  O12  1  0.06723500  0.81195100  0.45948100  1
  O  O13  1  0.66046800  0.91694400  0.42872900  1
  O  O14  1  0.33900900  0.09034500  0.57499200  1
  O  O15  1  0.44767100  0.69663900  0.54386500  1
  O  O16  1  0.94315600  0.19034100  0.54613300  1
  O  O17  1  0.83407700  0.58226200  0.57170600  1
  O  O18  1  0.23673800  0.67422500  0.67527000  1
  O  O19  1  0.41817700  0.49060200  0.67709500  1
  O  O20  1  0.73655300  0.16717000  0.67811600  1
  O  O21  1  0.91744500  0.97490900  0.66948100  1
  O  O22  1  0.76967900  0.52399700  0.82755300  1
  O  O23  1  0.28271000  0.03012900  0.83769300  1
  O  O24  1  0.57268300  0.32849000  0.85256600  1
  O  O25  1  0.07795400  0.82556600  0.84837900  1
  O  O26  1  0.69802000  0.94693200  0.92701300  1
  O  O27  1  0.20723500  0.46036700  0.93209300  1
loop_
_geom_bond_atom_site_label_1
_geom_bond_atom_site_label_2
_geom_bond_distance
_geom_bond_site_symmetry_2
Na0 O0 2.296593 1_555
Na0 O5 2.386928 1_555
Na0 O10 2.428725 1_555
Na0 O3 2.505545 1_455
Na0 O7 2.572565 1_555
Na0 O11 2.710372 1_555
Na0 O9 2.780962 1_555
Na1 O0 2.297146 1_555
Na1 O4 2.351143 1_545
Na1 O13 2.375365 1_545
Na1 O6 2.485958 1_545
Na1 O11 2.525686 1_555
Na1 O2 2.538749 1_545
Na1 O8 2.862256 1_555
Na2 O1 2.254418 1_555
Na2 O10 2.452525 1_655
Na2 O5 2.489896 1_655
Na2 O8 2.555445 1_555
Na2 O12 2.588399 1_655
Na2 O3 2.658407 1_555
Na2 O6 2.971153 1_655
Na3 O26 2.267220 1_545
Na3 O23 2.392155 1_555
Na3 O14 2.397805 1_555
Na3 O24 2.457943 1_555
Na3 O20 2.497268 1_555
Na3 O15 2.674193 1_545
Na3 O18 2.925888 1_545
Na4 O27 2.301025 1_655
Na4 O22 2.321212 1_555
Na4 O17 2.392726 1_555
Na4 O25 2.551286 1_655
Na4 O16 2.606732 1_555
Na4 O18 2.711283 1_655
Na4 O20 2.793069 1_555
Na5 O27 2.308788 1_555
Na5 O23 2.316368 1_555
Na5 O14 2.400589 1_555
Na5 O24 2.517331 1_555
Na5 O16 2.587769 1_455
Na5 O19 2.721942 1_555
Na5 O21 2.802956 1_445
Na6 O26 2.266364 1_555
Na6 O17 2.388678 1_555
Na6 O22 2.400829 1_555
Na6 O25 2.431615 1_655
Na6 O21 2.496794 1_555
Na6 O15 2.660591 1_555
Na7 O2 2.421818 1_556
Na7 O4 2.456388 1_556
Na7 O26 2.496859 1_555
Na7 O19 2.497336 1_555
Na7 O27 2.643466 1_555
Na7 O18 2.665426 1_555
Mn0 O16 1.952995 1_555
Mn0 O3 2.009729 1_555
Mn0 O7 2.030842 1_655
Mn0 O8 2.074561 1_555
Mn0 O10 2.187112 1_655
Mn0 O4 2.254239 1_545
Mn1 O15 1.980219 1_555
Mn1 O2 1.986702 1_555
Mn1 O13 2.008865 1_555
Mn1 O9 2.111512 1_555
Mn1 O5 2.173053 1_555
Mn1 O6 2.228796 1_555
Mn2 O11 1.953869 1_555
Mn2 O24 1.992439 1_555
Mn2 O14 2.012459 1_555
Mn2 O22 2.080843 1_555
Mn2 O20 2.166570 1_555
Mn2 O19 2.182470 1_555
Mn3 O12 1.926970 1_555
Mn3 O25 1.998240 1_555
Mn3 O21 2.088205 1_455
Mn3 O17 2.096146 1_455
Mn3 O18 2.111686 1_555
Mn3 O23 2.187278 1_565
C0 O26 1.277222 1_544
C0 O4 1.287045 1_545
C0 O3 1.322927 1_555
C1 O27 1.266999 1_554
C1 O5 1.297013 1_555
C1 O2 1.318954 1_555
C2 O1 1.230333 1_556
C2 O22 1.326196 1_555
C2 O24 1.334553 1_555
C3 O0 1.251922 1_566
C3 O23 1.303100 1_565
C3 O25 1.332474 1_555
O6 P0 1.533509 1_555
O7 P0 1.545096 1_545
O8 P1 1.552567 1_555
O9 P1 1.525743 1_555
O10 P2 1.540366 1_555
O11 P1 1.588278 1_555
O12 P0 1.572903 1_555
O13 P3 1.543296 1_565
O14 P0 1.567941 1_545
O15 P2 1.585979 1_555
O16 P3 1.593361 1_555
O17 P1 1.555047 1_555
O18 P2 1.555689 1_555
O19 P2 1.546799 1_555
O20 P3 1.535564 1_555
O21 P3 1.544632 1_565
