# generated using pymatgen
data_LiMn2(BO3)2
_symmetry_space_group_name_H-M   'P 1'
_cell_length_a   5.81729100
_cell_length_b   9.23166418
_cell_length_c   12.43610811
_cell_angle_alpha   104.21312769
_cell_angle_beta   87.93422712
_cell_angle_gamma   104.29974420
_symmetry_Int_Tables_number   1
_chemical_formula_structural   LiMn2(BO3)2
_chemical_formula_sum   'Li5 Mn10 B10 O30'
_cell_volume   627.14186105
_cell_formula_units_Z   5
loop_
 _symmetry_equiv_pos_site_id
 _symmetry_equiv_pos_as_xyz
  1  'x, y, z'
loop_
 _atom_site_type_symbol
 _atom_site_label
 _atom_site_symmetry_multiplicity
 _atom_site_fract_x
 _atom_site_fract_y
 _atom_site_fract_z
 _atom_site_occupancy
  Li  Li0  1  0.03996100  0.66392700  0.71143200  1
  Li  Li1  1  0.76760600  0.73819200  0.09283600  1
  Li  Li2  1  0.55713600  0.14354100  0.89700500  1
  Li  Li3  1  0.81844100  0.06313600  0.50886000  1
  Li  Li4  1  0.97385600  0.33898600  0.29583400  1
  Mn  Mn0  1  0.16793000  0.55444300  0.90786100  1
  Mn  Mn1  1  0.25080400  0.65778400  0.50198300  1
  Mn  Mn2  1  0.03828600  0.01658200  0.29652000  1
  Mn  Mn3  1  0.55275500  0.75451200  0.30507700  1
  Mn  Mn4  1  0.35569400  0.15550300  0.11096300  1
  Mn  Mn5  1  0.63382900  0.81983100  0.88585600  1
  Mn  Mn6  1  0.43803600  0.25454600  0.68744700  1
  Mn  Mn7  1  0.98065800  0.99341000  0.71986700  1
  Mn  Mn8  1  0.75299900  0.39666000  0.50318600  1
  Mn  Mn9  1  0.83446300  0.41863200  0.09020100  1
  B  B0  1  0.02932000  0.67450800  0.28531300  1
  B  B1  1  0.16651600  0.90039300  0.90385400  1
  B  B2  1  0.44341600  0.90687000  0.70034400  1
  B  B3  1  0.22135100  0.30203300  0.48546200  1
  B  B4  1  0.36765700  0.49807100  0.10483200  1
  B  B5  1  0.64143700  0.48129300  0.89161900  1
  B  B6  1  0.77185200  0.73499600  0.52226600  1
  B  B7  1  0.57052100  0.10195300  0.31398700  1
  B  B8  1  0.83512300  0.07759300  0.08750300  1
  B  B9  1  0.95859200  0.32535100  0.70249500  1
  O  O0  1  0.01132200  0.47754200  0.74933300  1
  O  O1  1  0.20455900  0.73416900  0.36886700  1
  O  O2  1  0.00198800  0.14200300  0.17689200  1
  O  O3  1  0.34057100  0.01397400  0.67589000  1
  O  O4  1  0.12650100  0.41012800  0.45429100  1
  O  O5  1  0.29233900  0.79433200  0.91638300  1
  O  O6  1  0.09737500  0.22900000  0.72079000  1
  O  O7  1  0.15916500  0.43598000  0.03854900  1
  O  O8  1  0.36010800  0.74984200  0.65631600  1
  O  O9  1  0.12900600  0.14610700  0.44574900  1
  O  O10  1  0.45192500  0.65214000  0.14467100  1
  O  O11  1  0.24139100  0.05308300  0.94728400  1
  O  O12  1  0.62380100  0.95995600  0.78397500  1
  O  O13  1  0.40629900  0.35266800  0.56495100  1
  O  O14  1  0.53114400  0.58394600  0.86383400  1
  O  O15  1  0.49344500  0.39284400  0.11971900  1
  O  O16  1  0.57506800  0.66043800  0.44945100  1
  O  O17  1  0.36616200  0.04070100  0.24493200  1
  O  O18  1  0.77451200  0.92126900  0.04287100  1
  O  O19  1  0.57436500  0.32552200  0.84335400  1
  O  O20  1  0.83078300  0.88890000  0.56260000  1
  O  O21  1  0.65870200  0.25583100  0.35034600  1
  O  O22  1  0.81541600  0.54195900  0.97734800  1
  O  O23  1  0.92658600  0.77757700  0.24929700  1
  O  O24  1  0.72607100  0.17646300  0.05089500  1
  O  O25  1  0.90777700  0.63845500  0.54829800  1
  O  O26  1  0.69146000  0.99719800  0.33913200  1
  O  O27  1  0.96530000  0.83585300  0.82952600  1
  O  O28  1  0.76191300  0.25384200  0.62713200  1
  O  O29  1  0.95452800  0.51818400  0.24402900  1
loop_
_geom_bond_atom_site_label_1
_geom_bond_atom_site_label_2
_geom_bond_distance
_geom_bond_site_symmetry_2
Li0 O0 1.860515 1_555
Li0 O8 2.003151 1_555
Li0 O27 2.003623 1_455
Li0 O25 2.133377 1_455
Li1 O18 1.929904 1_555
Li1 O10 1.965829 1_555
Li1 O22 2.089086 1_554
Li1 O23 2.095170 1_555
Li2 O19 1.933909 1_555
Li2 O11 1.969261 1_555
Li2 O12 2.028329 1_545
Li2 O24 2.103136 1_556
Li3 O20 1.904579 1_545
Li3 O9 1.994005 1_655
Li3 O28 2.085792 1_555
Li3 O26 2.151936 1_545
Li4 O29 1.945473 1_555
Li4 O21 1.969958 1_555
Li4 O4 2.074992 1_655
Li4 O2 2.080937 1_655
Mn0 O0 2.084078 1_555
Mn0 O5 2.130232 1_555
Mn0 O14 2.131654 1_555
Mn0 O7 2.163170 1_556
Mn0 O22 2.183966 1_455
Mn1 O8 1.957125 1_555
Mn1 O16 1.970241 1_555
Mn1 O1 2.002294 1_555
Mn1 O25 2.034029 1_455
Mn1 O4 2.156406 1_555
Mn2 O9 1.954884 1_555
Mn2 O17 1.967559 1_555
Mn2 O26 2.043194 1_445
Mn2 O23 2.078066 1_445
Mn2 O2 2.141903 1_555
Mn3 O10 2.025163 1_555
Mn3 O26 2.124970 1_555
Mn3 O1 2.129994 1_555
Mn3 O16 2.198385 1_555
Mn3 O23 2.234015 1_555
Mn4 O11 2.078801 1_554
Mn4 O15 2.115776 1_555
Mn4 O2 2.173340 1_555
Mn4 O17 2.192922 1_555
Mn4 O24 2.233098 1_555
Mn5 O5 1.975959 1_555
Mn5 O27 2.010826 1_555
Mn5 O12 2.032119 1_555
Mn5 O18 2.048965 1_556
Mn5 O14 2.061596 1_555
Mn6 O6 1.978054 1_555
Mn6 O13 1.988917 1_555
Mn6 O28 2.003552 1_555
Mn6 O19 2.011923 1_555
Mn6 O3 2.121682 1_555
Mn7 O20 2.072897 1_555
Mn7 O6 2.109528 1_665
Mn7 O3 2.119171 1_665
Mn7 O12 2.173800 1_555
Mn7 O27 2.210073 1_555
Mn8 O21 2.028136 1_555
Mn8 O13 2.111757 1_555
Mn8 O25 2.129945 1_555
Mn8 O4 2.216880 1_655
Mn8 O28 2.270335 1_555
Mn9 O7 1.954421 1_655
Mn9 O15 1.970789 1_555
Mn9 O29 1.976866 1_555
Mn9 O22 2.033798 1_554
Mn9 O24 2.103276 1_555
B0 O29 1.370262 1_455
B0 O1 1.392923 1_555
B0 O23 1.404496 1_455
B1 O11 1.344681 1_565
B1 O5 1.398522 1_555
B1 O27 1.429197 1_455
B2 O3 1.371509 1_565
B2 O8 1.385066 1_555
B2 O12 1.413278 1_555
B3 O9 1.375706 1_555
B3 O4 1.388485 1_555
B3 O13 1.398064 1_555
B4 O10 1.354914 1_555
B4 O15 1.400932 1_555
B4 O7 1.405592 1_555
B5 O19 1.377058 1_555
B5 O14 1.380670 1_555
B5 O22 1.406841 1_555
B6 O20 1.345213 1_555
B6 O16 1.408416 1_555
B6 O25 1.425690 1_555
B7 O21 1.351625 1_555
B7 O17 1.404846 1_555
B7 O26 1.424224 1_545
B8 O18 1.372747 1_545
B8 O24 1.397748 1_555
B8 O2 1.414098 1_655
B9 O0 1.343672 1_655
B9 O6 1.400750 1_655
B9 O28 1.422536 1_555
