# generated using pymatgen
data_TmH16C4N11O13
_symmetry_space_group_name_H-M   'P 1'
_cell_length_a   7.64320800
_cell_length_b   11.35105873
_cell_length_c   12.04964178
_cell_angle_alpha   112.42390361
_cell_angle_beta   96.09144501
_cell_angle_gamma   94.31143012
_symmetry_Int_Tables_number   1
_chemical_formula_structural   TmH16C4N11O13
_chemical_formula_sum   'Tm2 H32 C8 N22 O26'
_cell_volume   953.26898629
_cell_formula_units_Z   2
loop_
 _symmetry_equiv_pos_site_id
 _symmetry_equiv_pos_as_xyz
  1  'x, y, z'
loop_
 _atom_site_type_symbol
 _atom_site_label
 _atom_site_symmetry_multiplicity
 _atom_site_fract_x
 _atom_site_fract_y
 _atom_site_fract_z
 _atom_site_occupancy
  Tm  Tm0  1  0.69065700  0.84639200  0.68532500  1
  Tm  Tm1  1  0.30934300  0.15360800  0.31467500  1
  H  H0  1  0.11743600  0.96541200  0.84992000  1
  H  H1  1  0.88256400  0.03458800  0.15008000  1
  H  H2  1  0.25813600  0.91721600  0.94451900  1
  H  H3  1  0.74186400  0.08278400  0.05548100  1
  H  H4  1  0.92634900  0.68720400  0.95509700  1
  H  H5  1  0.07365100  0.31279600  0.04490300  1
  H  H6  1  0.14005000  0.76824400  0.01767100  1
  H  H7  1  0.85995000  0.23175600  0.98232900  1
  H  H8  1  0.65886900  0.77626700  0.28406500  1
  H  H9  1  0.34113100  0.22373300  0.71593500  1
  H  H10  1  0.46601600  0.67232400  0.20390200  1
  H  H11  1  0.53398400  0.32767600  0.79609800  1
  H  H12  1  0.36436800  0.62742700  0.47010500  1
  H  H13  1  0.63563200  0.37257300  0.52989500  1
  H  H14  1  0.31083600  0.57167200  0.31147200  1
  H  H15  1  0.68916400  0.42832800  0.68852800  1
  H  H16  1  0.19417700  0.54246100  0.63596600  1
  H  H17  1  0.80582300  0.45753900  0.36403400  1
  H  H18  1  0.20443700  0.54632400  0.78291200  1
  H  H19  1  0.79556300  0.45367600  0.21708800  1
  H  H20  1  0.58915900  0.76916200  0.90331300  1
  H  H21  1  0.41084100  0.23083800  0.09668700  1
  H  H22  1  0.42753200  0.67303300  0.93451600  1
  H  H23  1  0.57246800  0.32696700  0.06548400  1
  H  H24  1  0.72132100  0.98601800  0.49873200  1
  H  H25  1  0.27867900  0.01398200  0.50126800  1
  H  H26  1  0.84409900  0.11723800  0.48838200  1
  H  H27  1  0.15590100  0.88276200  0.51161800  1
  H  H28  1  0.02807700  0.25298900  0.79894100  1
  H  H29  1  0.97192300  0.74701100  0.20105900  1
  H  H30  1  0.99053900  0.27928200  0.66632600  1
  H  H31  1  0.00946100  0.72071800  0.33367400  1
  C  C0  1  0.99813200  0.83060200  0.90001200  1
  C  C1  1  0.00186800  0.16939800  0.09998800  1
  C  C2  1  0.51588100  0.71859100  0.39018200  1
  C  C3  1  0.48411900  0.28140900  0.60981800  1
  C  C4  1  0.39817700  0.66784800  0.76020600  1
  C  C5  1  0.60182300  0.33215200  0.23979400  1
  C  C6  1  0.87294300  0.10660800  0.65653100  1
  C  C7  1  0.12705700  0.89339200  0.34346900  1
  N  N0  1  0.13652400  0.90902000  0.89692800  1
  N  N1  1  0.86347600  0.09098000  0.10307200  1
  N  N2  1  0.01949000  0.76408300  0.97102200  1
  N  N3  1  0.98051000  0.23591700  0.02897800  1
  N  N4  1  0.54589000  0.72404900  0.28469500  1
  N  N5  1  0.45411000  0.27595100  0.71530500  1
  N  N6  1  0.38266100  0.63452500  0.39043800  1
  N  N7  1  0.61733900  0.36547500  0.60956200  1
  N  N8  1  0.25049600  0.58210700  0.72433600  1
  N  N9  1  0.74950400  0.41789300  0.27566400  1
  N  N10  1  0.47051300  0.71273200  0.87739600  1
  N  N11  1  0.52948700  0.28726800  0.12260400  1
  N  N12  1  0.80228700  0.07045900  0.53969600  1
  N  N13  1  0.19771300  0.92954100  0.46030400  1
  N  N14  1  0.98809400  0.21626300  0.70781400  1
  N  N15  1  0.01190600  0.78373700  0.29218600  1
  N  N16  1  0.45846300  0.02937600  0.80538000  1
  N  N17  1  0.54153700  0.97062400  0.19462000  1
  N  N18  1  0.92718100  0.68749900  0.54519600  1
  N  N19  1  0.07281900  0.31250100  0.45480400  1
  N  N20  1  0.24287100  0.51264900  0.02203800  1
  N  N21  1  0.75712900  0.48735100  0.97796200  1
  O  O0  1  0.84693100  0.82035400  0.83796100  1
  O  O1  1  0.15306900  0.17964600  0.16203900  1
  O  O2  1  0.61321000  0.79477400  0.48868900  1
  O  O3  1  0.38679000  0.20522600  0.51131100  1
  O  O4  1  0.46380800  0.70766500  0.68528300  1
  O  O5  1  0.53619200  0.29233500  0.31471700  1
  O  O6  1  0.83516500  0.04019400  0.71736200  1
  O  O7  1  0.16483500  0.95980600  0.28263800  1
  O  O8  1  0.57923200  0.99394200  0.86479900  1
  O  O9  1  0.42076800  0.00605800  0.13520100  1
  O  O10  1  0.44357400  0.97489300  0.68943800  1
  O  O11  1  0.55642600  0.02510700  0.31056200  1
  O  O12  1  0.36233600  0.11037600  0.85706300  1
  O  O13  1  0.63766400  0.88962400  0.14293700  1
  O  O14  1  0.96656700  0.80990800  0.60045900  1
  O  O15  1  0.03343300  0.19009200  0.39954100  1
  O  O16  1  0.79476600  0.63654400  0.57436900  1
  O  O17  1  0.20523400  0.36345600  0.42563100  1
  O  O18  1  0.01214300  0.62348400  0.46517200  1
  O  O19  1  0.98785700  0.37651600  0.53482800  1
  O  O20  1  0.32517200  0.62515800  0.05178900  1
  O  O21  1  0.67482800  0.37484200  0.94821100  1
  O  O22  1  0.17354600  0.44856000  0.91351900  1
  O  O23  1  0.82645400  0.55144000  0.08648100  1
  O  O24  1  0.23303500  0.46779400  0.10293600  1
  O  O25  1  0.76696500  0.53220600  0.89706400  1
loop_
_geom_bond_atom_site_label_1
_geom_bond_atom_site_label_2
_geom_bond_distance
_geom_bond_site_symmetry_2
H0 N0 1.012415 1_555
H1 N1 1.012415 1_555
H2 N0 1.017181 1_555
H3 N1 1.017181 1_555
H4 N2 1.027131 1_655
H5 N3 1.027131 1_455
H6 N2 1.015167 1_554
H7 N3 1.015167 1_556
H8 N4 1.012385 1_555
H9 N5 1.012385 1_555
H10 N4 1.024246 1_555
H11 N5 1.024246 1_555
H12 N6 1.016543 1_555
H13 N7 1.016543 1_555
H14 N6 1.013953 1_555
H15 N7 1.013953 1_555
H16 N8 1.014732 1_555
H17 N9 1.014732 1_555
H18 N8 1.018353 1_555
H19 N9 1.018353 1_555
H20 N10 1.014949 1_555
H21 N11 1.014949 1_555
H22 N10 1.023258 1_555
H23 N11 1.023258 1_555
H24 N12 1.015067 1_565
H25 N13 1.015067 1_545
H26 N12 1.016512 1_555
H27 N13 1.016512 1_555
H28 N14 1.016509 1_455
H29 N15 1.016509 1_655
H30 N14 1.017231 1_555
H31 N15 1.017231 1_555
C0 O0 1.279912 1_555
C0 N0 1.343344 1_655
C0 N2 1.345612 1_655
C1 O1 1.279912 1_555
C1 N1 1.343344 1_455
C1 N3 1.345612 1_455
C2 O2 1.281756 1_555
C2 N4 1.338622 1_555
C2 N6 1.343202 1_555
C3 O3 1.281756 1_555
C3 N5 1.338622 1_555
C3 N7 1.343202 1_555
C4 O4 1.282288 1_555
C4 N10 1.342517 1_555
C4 N8 1.348511 1_555
C5 O5 1.282288 1_555
C5 N11 1.342517 1_555
C5 N9 1.348511 1_555
C6 O6 1.273864 1_555
C6 N12 1.344093 1_555
C6 N14 1.356029 1_555
C7 O7 1.273864 1_555
C7 N13 1.344093 1_555
C7 N15 1.356029 1_555
N16 O12 1.238889 1_555
N16 O10 1.282075 1_545
N16 O8 1.289071 1_545
N17 O13 1.238889 1_555
N17 O11 1.282075 1_565
N17 O9 1.289071 1_565
N18 O18 1.244504 1_655
N18 O16 1.274759 1_555
N18 O14 1.285830 1_555
N19 O19 1.244504 1_455
N19 O17 1.274759 1_555
N19 O15 1.285830 1_555
N20 O22 1.260598 1_554
N20 O24 1.266314 1_555
N20 O20 1.279554 1_555
N21 O23 1.260598 1_556
N21 O25 1.266314 1_555
N21 O21 1.279554 1_555
O0 Tm0 2.213206 1_555
O1 Tm1 2.213206 1_555
O2 Tm0 2.213319 1_555
O3 Tm1 2.213319 1_555
O4 Tm0 2.252691 1_555
O5 Tm1 2.252691 1_555
O6 Tm0 2.259343 1_545
O7 Tm1 2.259343 1_565
O8 Tm0 2.459533 1_555
O9 Tm1 2.459533 1_555
O10 Tm0 2.464828 1_555
O11 Tm1 2.464828 1_555
O14 Tm0 2.435225 1_555
O15 Tm1 2.435225 1_555
O16 Tm0 2.485105 1_555
O17 Tm1 2.485105 1_555
