# generated using pymatgen
data_Dy5(ReO6)2
_symmetry_space_group_name_H-M   'P 1'
_cell_length_a   5.62595534
_cell_length_b   7.50620885
_cell_length_c   12.34568520
_cell_angle_alpha   107.41642267
_cell_angle_beta   90.00000000
_cell_angle_gamma   90.00000000
_symmetry_Int_Tables_number   1
_chemical_formula_structural   Dy5(ReO6)2
_chemical_formula_sum   'Dy10 Re4 O24'
_cell_volume   497.45163194
_cell_formula_units_Z   2
loop_
 _symmetry_equiv_pos_site_id
 _symmetry_equiv_pos_as_xyz
  1  'x, y, z'
loop_
 _atom_site_type_symbol
 _atom_site_label
 _atom_site_symmetry_multiplicity
 _atom_site_fract_x
 _atom_site_fract_y
 _atom_site_fract_z
 _atom_site_occupancy
  Dy  Dy0  1  0.25000000  0.61133657  0.43582832  1
  Dy  Dy1  1  0.75000000  0.38866343  0.56417168  1
  Dy  Dy2  1  0.25000000  0.08779789  0.44642150  1
  Dy  Dy3  1  0.75000000  0.91220211  0.55357850  1
  Dy  Dy4  1  0.25000000  0.88893844  0.06425332  1
  Dy  Dy5  1  0.75000000  0.11106156  0.93574668  1
  Dy  Dy6  1  0.25000000  0.41244319  0.05350494  1
  Dy  Dy7  1  0.75000000  0.58755681  0.94649506  1
  Dy  Dy8  1  0.25000000  0.24955366  0.74998680  1
  Dy  Dy9  1  0.75000000  0.75044634  0.25001320  1
  Re  Re0  1  0.46361859  0.74956210  0.75002903  1
  Re  Re1  1  0.96361859  0.25043790  0.24997097  1
  Re  Re2  1  0.53638141  0.25043790  0.24997097  1
  Re  Re3  1  0.03638141  0.74956210  0.75002903  1
  O  O0  1  0.25000000  0.95754276  0.75133735  1
  O  O1  1  0.75000000  0.04245724  0.24866265  1
  O  O2  1  0.50205643  0.33014399  0.90414487  1
  O  O3  1  0.00205643  0.66985601  0.09585513  1
  O  O4  1  0.49794357  0.66985601  0.09585513  1
  O  O5  1  0.99794357  0.33014399  0.90414487  1
  O  O6  1  0.25000000  0.54162809  0.74877997  1
  O  O7  1  0.75000000  0.45837191  0.25122003  1
  O  O8  1  0.25000000  0.07403299  0.25088922  1
  O  O9  1  0.75000000  0.92596701  0.74911078  1
  O  O10  1  0.50293941  0.83034926  0.91512730  1
  O  O11  1  0.00293941  0.16965074  0.08487270  1
  O  O12  1  0.49706059  0.16965074  0.08487270  1
  O  O13  1  0.99706059  0.83034926  0.91512730  1
  O  O14  1  0.50203876  0.16955611  0.59579922  1
  O  O15  1  0.00203876  0.83044389  0.40420078  1
  O  O16  1  0.49796124  0.83044389  0.40420078  1
  O  O17  1  0.99796124  0.16955611  0.59579922  1
  O  O18  1  0.50293965  0.66919825  0.58494334  1
  O  O19  1  0.00293965  0.33080175  0.41505666  1
  O  O20  1  0.49706035  0.33080175  0.41505666  1
  O  O21  1  0.99706035  0.66919825  0.58494334  1
  O  O22  1  0.25000000  0.42678174  0.24907128  1
  O  O23  1  0.75000000  0.57321826  0.75092872  1
loop_
_geom_bond_atom_site_label_1
_geom_bond_atom_site_label_2
_geom_bond_distance
_geom_bond_site_symmetry_2
Dy0 O18 2.263629 1_555
Dy0 O21 2.263629 1_455
Dy0 O15 2.277694 1_555
Dy0 O16 2.277694 1_555
Dy0 O22 2.307170 1_555
Dy0 O19 2.471570 1_555
Dy0 O20 2.471570 1_555
Dy1 O20 2.263629 1_555
Dy1 O19 2.263629 1_655
Dy1 O17 2.277694 1_555
Dy1 O14 2.277694 1_555
Dy1 O23 2.307170 1_555
Dy1 O21 2.471570 1_555
Dy1 O18 2.471570 1_555
Dy2 O14 2.260684 1_555
Dy2 O17 2.260684 1_455
Dy2 O15 2.312288 1_545
Dy2 O16 2.312288 1_545
Dy2 O8 2.385092 1_555
Dy2 O19 2.414918 1_555
Dy2 O20 2.414918 1_555
Dy3 O16 2.260684 1_555
Dy3 O15 2.260684 1_655
Dy3 O17 2.312288 1_565
Dy3 O14 2.312288 1_565
Dy3 O9 2.385092 1_555
Dy3 O21 2.414918 1_555
Dy3 O18 2.414918 1_555
Dy4 O13 2.263456 1_454
Dy4 O10 2.263456 1_554
Dy4 O4 2.277366 1_555
Dy4 O3 2.277366 1_555
Dy4 O8 2.307170 1_565
Dy4 O12 2.472950 1_565
Dy4 O11 2.472950 1_565
Dy5 O12 2.263456 1_556
Dy5 O11 2.263456 1_656
Dy5 O2 2.277366 1_555
Dy5 O5 2.277366 1_555
Dy5 O9 2.307170 1_545
Dy5 O13 2.472950 1_545
Dy5 O10 2.472950 1_545
Dy6 O5 2.260700 1_454
Dy6 O2 2.260700 1_554
Dy6 O4 2.312528 1_555
Dy6 O3 2.312528 1_555
Dy6 O22 2.384398 1_555
Dy6 O11 2.413658 1_555
Dy6 O12 2.413658 1_555
Dy7 O4 2.260700 1_556
Dy7 O3 2.260700 1_656
Dy7 O2 2.312528 1_555
Dy7 O5 2.312528 1_555
Dy7 O23 2.384398 1_555
Dy7 O10 2.413658 1_555
Dy7 O13 2.413658 1_555
Dy8 O6 2.196877 1_555
Dy8 O0 2.196943 1_545
Dy8 O5 2.304290 1_455
Dy8 O2 2.304290 1_555
Dy8 O14 2.304437 1_555
Dy8 O17 2.304437 1_455
Dy9 O7 2.196877 1_555
Dy9 O1 2.196943 1_565
Dy9 O4 2.304290 1_555
Dy9 O3 2.304290 1_655
Dy9 O16 2.304437 1_555
Dy9 O15 2.304437 1_655
O0 Re3 1.966390 1_555
O0 Re0 1.966390 1_555
O1 Re2 1.966390 1_555
O1 Re1 1.966390 1_555
O6 Re3 1.966280 1_555
O6 Re0 1.966280 1_555
O7 Re2 1.966280 1_555
O7 Re1 1.966280 1_555
O8 Re1 2.087656 1_455
O8 Re2 2.087656 1_555
O9 Re3 2.087656 1_655
O9 Re0 2.087656 1_555
O10 Re0 1.957351 1_555
O11 Re1 1.957351 1_455
O12 Re2 1.957351 1_555
O13 Re3 1.957351 1_655
O18 Re0 1.957213 1_555
O19 Re1 1.957213 1_455
O20 Re2 1.957213 1_555
O21 Re3 1.957213 1_655
O22 Re1 2.087319 1_455
O22 Re2 2.087319 1_555
O23 Re0 2.087319 1_555
O23 Re3 2.087319 1_655
