# generated using pymatgen
data_Li10Mn(SiO5)2
_symmetry_space_group_name_H-M   'P 1'
_cell_length_a   15.37493025
_cell_length_b   15.37493025
_cell_length_c   5.17502085
_cell_angle_alpha   80.37302322
_cell_angle_beta   80.37302322
_cell_angle_gamma   22.95603175
_symmetry_Int_Tables_number   1
_chemical_formula_structural   Li10Mn(SiO5)2
_chemical_formula_sum   'Li20 Mn2 Si4 O20'
_cell_volume   470.12487382
_cell_formula_units_Z   2
loop_
 _symmetry_equiv_pos_site_id
 _symmetry_equiv_pos_as_xyz
  1  'x, y, z'
loop_
 _atom_site_type_symbol
 _atom_site_label
 _atom_site_symmetry_multiplicity
 _atom_site_fract_x
 _atom_site_fract_y
 _atom_site_fract_z
 _atom_site_occupancy
  Li  Li0  1  0.49122600  0.49122600  0.75616500  1
  Li  Li1  1  0.22456800  0.64373600  0.40044000  1
  Li  Li2  1  0.64373600  0.22456800  0.40044000  1
  Li  Li3  1  0.86746300  0.86746300  0.28194600  1
  Li  Li4  1  0.08403500  0.65215200  0.73438400  1
  Li  Li5  1  0.65215200  0.08403500  0.73438400  1
  Li  Li6  1  0.32451600  0.32451600  0.42854400  1
  Li  Li7  1  0.04705500  0.56226200  0.09957700  1
  Li  Li8  1  0.56226200  0.04705500  0.09957700  1
  Li  Li9  1  0.26911000  0.26911000  0.82335000  1
  Li  Li10  1  0.73089000  0.73089000  0.17665000  1
  Li  Li11  1  0.43773800  0.95294500  0.90042300  1
  Li  Li12  1  0.95294500  0.43773800  0.90042300  1
  Li  Li13  1  0.67548400  0.67548400  0.57145600  1
  Li  Li14  1  0.34784800  0.91596500  0.26561600  1
  Li  Li15  1  0.91596500  0.34784800  0.26561600  1
  Li  Li16  1  0.13253700  0.13253700  0.71805400  1
  Li  Li17  1  0.77543200  0.35626400  0.59956000  1
  Li  Li18  1  0.35626400  0.77543200  0.59956000  1
  Li  Li19  1  0.50877400  0.50877400  0.24383500  1
  Mn  Mn0  1  0.96225000  0.96225000  0.70384800  1
  Mn  Mn1  1  0.03775000  0.03775000  0.29615200  1
  Si  Si0  1  0.39958500  0.39958500  0.00586900  1
  Si  Si1  1  0.78043500  0.78043500  0.62833500  1
  Si  Si2  1  0.21956500  0.21956500  0.37166500  1
  Si  Si3  1  0.60041500  0.60041500  0.99413100  1
  O  O0  1  0.44950400  0.44950400  0.09864700  1
  O  O1  1  0.90720800  0.90720800  0.54653000  1
  O  O2  1  0.40435200  0.40435200  0.68131300  1
  O  O3  1  0.15303200  0.58800500  0.12013100  1
  O  O4  1  0.58800500  0.15303200  0.12013100  1
  O  O5  1  0.03096300  0.58058700  0.71535200  1
  O  O6  1  0.58058700  0.03096300  0.71535200  1
  O  O7  1  0.78583400  0.78583400  0.30708700  1
  O  O8  1  0.27156500  0.27156500  0.21911400  1
  O  O9  1  0.72843500  0.72843500  0.78088600  1
  O  O10  1  0.21416600  0.21416600  0.69291300  1
  O  O11  1  0.96903700  0.41941300  0.28464800  1
  O  O12  1  0.41941300  0.96903700  0.28464800  1
  O  O13  1  0.41199500  0.84696800  0.87986900  1
  O  O14  1  0.84696800  0.41199500  0.87986900  1
  O  O15  1  0.59564800  0.59564800  0.31868700  1
  O  O16  1  0.09279200  0.09279200  0.45347000  1
  O  O17  1  0.55049600  0.55049600  0.90135300  1
  O  O18  1  0.24643900  0.75356100  0.50000000  1
  O  O19  1  0.75356100  0.24643900  0.50000000  1
loop_
_geom_bond_atom_site_label_1
_geom_bond_atom_site_label_2
_geom_bond_distance
_geom_bond_site_symmetry_2
Li0 O0 1.990348 1_556
Li0 O19 2.028524 1_555
Li0 O18 2.028524 1_555
Li0 O17 2.052480 1_555
Li1 O0 2.012773 1_555
Li1 O2 2.029368 1_555
Li1 O1 2.044317 1_455
Li1 O18 2.150426 1_555
Li1 O3 2.594821 1_555
Li2 O0 2.012773 1_555
Li2 O2 2.029368 1_555
Li2 O1 2.044317 1_545
Li2 O19 2.150426 1_555
Li2 O4 2.594821 1_555
Li3 O4 1.916187 1_565
Li3 O3 1.916187 1_655
Li3 O1 1.966976 1_555
Li3 O7 2.441048 1_555
Li4 O5 1.898096 1_555
Li4 O1 1.920753 1_455
Li4 O2 2.046470 1_555
Li4 O3 2.050871 1_556
Li5 O6 1.898096 1_555
Li5 O1 1.920753 1_545
Li5 O2 2.046470 1_555
Li5 O4 2.050871 1_556
Li6 O8 2.076303 1_555
Li6 O6 2.250222 1_555
Li6 O5 2.250222 1_555
Li6 O4 2.342011 1_555
Li6 O3 2.342011 1_555
Li7 O7 1.861994 1_455
Li7 O8 1.910836 1_555
Li7 O5 1.985702 1_554
Li7 O3 2.020543 1_555
Li8 O7 1.861994 1_545
Li8 O8 1.910836 1_555
Li8 O6 1.985702 1_554
Li8 O4 2.020543 1_555
Li9 O10 1.891701 1_555
Li9 O6 2.037172 1_555
Li9 O5 2.037172 1_555
Li9 O8 2.062000 1_556
Li10 O7 1.891701 1_555
Li10 O11 2.037172 1_555
Li10 O12 2.037172 1_555
Li10 O9 2.062000 1_554
Li11 O10 1.861994 1_565
Li11 O9 1.910836 1_555
Li11 O12 1.985702 1_556
Li11 O13 2.020543 1_555
Li12 O10 1.861994 1_655
Li12 O9 1.910836 1_555
Li12 O11 1.985702 1_556
Li12 O14 2.020543 1_555
Li13 O9 2.076303 1_555
Li13 O11 2.250222 1_555
Li13 O12 2.250222 1_555
Li13 O14 2.342011 1_555
Li13 O13 2.342011 1_555
Li14 O12 1.898096 1_555
Li14 O16 1.920753 1_565
Li14 O15 2.046470 1_555
Li14 O13 2.050871 1_554
Li15 O11 1.898096 1_555
Li15 O16 1.920753 1_655
Li15 O15 2.046470 1_555
Li15 O14 2.050871 1_554
Li16 O13 1.916187 1_545
Li16 O14 1.916187 1_455
Li16 O16 1.966976 1_555
Li16 O10 2.441048 1_555
Li17 O17 2.012773 1_555
Li17 O15 2.029368 1_555
Li17 O16 2.044317 1_655
Li17 O19 2.150426 1_555
Li17 O14 2.594821 1_555
Li18 O17 2.012773 1_555
Li18 O15 2.029368 1_555
Li18 O16 2.044317 1_565
Li18 O18 2.150426 1_555
Li18 O13 2.594821 1_555
Li19 O17 1.990348 1_554
Li19 O19 2.028524 1_555
Li19 O18 2.028524 1_555
Li19 O0 2.052480 1_555
Mn0 O1 1.968478 1_555
Mn0 O18 2.066717 1_655
Mn0 O19 2.066717 1_565
Mn1 O16 1.968478 1_555
Mn1 O19 2.066717 1_455
Mn1 O18 2.066717 1_545
O0 Si0 1.655281 1_555
O2 Si0 1.661112 1_556
O3 Si0 1.646548 1_555
O4 Si0 1.646548 1_555
O5 Si1 1.673893 1_455
O6 Si1 1.673893 1_545
O7 Si1 1.642543 1_555
O8 Si2 1.629898 1_555
O9 Si1 1.629898 1_555
O10 Si2 1.642543 1_555
O11 Si2 1.673893 1_655
O12 Si2 1.673893 1_565
O13 Si3 1.646548 1_555
O14 Si3 1.646548 1_555
O15 Si3 1.661112 1_554
O17 Si3 1.655281 1_555
