# generated using pymatgen
data_HfO2
_symmetry_space_group_name_H-M   'P 1'
_cell_length_a   4.80995142
_cell_length_b   5.78402975
_cell_length_c   15.91755414
_cell_angle_alpha   90.00000000
_cell_angle_beta   90.00000000
_cell_angle_gamma   90.00000000
_symmetry_Int_Tables_number   1
_chemical_formula_structural   HfO2
_chemical_formula_sum   'Hf12 O24'
_cell_volume   442.84071555
_cell_formula_units_Z   12
loop_
 _symmetry_equiv_pos_site_id
 _symmetry_equiv_pos_as_xyz
  1  'x, y, z'
loop_
 _atom_site_type_symbol
 _atom_site_label
 _atom_site_symmetry_multiplicity
 _atom_site_fract_x
 _atom_site_fract_y
 _atom_site_fract_z
 _atom_site_occupancy
  Hf  Hf0  1  0.00256217  0.34847794  0.08419518  1
  Hf  Hf1  1  0.00000000  0.02330779  0.25000000  1
  Hf  Hf2  1  0.99743783  0.34847794  0.41580482  1
  Hf  Hf3  1  0.00000000  0.97669221  0.75000000  1
  Hf  Hf4  1  0.00256217  0.65152206  0.58419518  1
  Hf  Hf5  1  0.99743783  0.65152206  0.91580482  1
  Hf  Hf6  1  0.49743783  0.15152206  0.58419518  1
  Hf  Hf7  1  0.50000000  0.52330779  0.25000000  1
  Hf  Hf8  1  0.50256217  0.15152206  0.91580482  1
  Hf  Hf9  1  0.50000000  0.47669221  0.75000000  1
  Hf  Hf10  1  0.50256217  0.84847794  0.41580482  1
  Hf  Hf11  1  0.49743783  0.84847794  0.08419518  1
  O  O0  1  0.20437678  0.62984081  0.03011582  1
  O  O1  1  0.20437678  0.37015919  0.53011582  1
  O  O2  1  0.27861833  0.19095097  0.69574258  1
  O  O3  1  0.27861833  0.80904903  0.19574258  1
  O  O4  1  0.21233200  0.07256380  0.36229749  1
  O  O5  1  0.21233200  0.92743620  0.86229749  1
  O  O6  1  0.28766800  0.57256380  0.36229749  1
  O  O7  1  0.28766800  0.42743620  0.86229749  1
  O  O8  1  0.22138167  0.30904903  0.19574258  1
  O  O9  1  0.22138167  0.69095097  0.69574258  1
  O  O10  1  0.29562422  0.12984081  0.03011582  1
  O  O11  1  0.29562422  0.87015919  0.53011582  1
  O  O12  1  0.70437578  0.87015919  0.96988418  1
  O  O13  1  0.70437578  0.12984081  0.46988418  1
  O  O14  1  0.77861833  0.30904903  0.30425742  1
  O  O15  1  0.77861833  0.69095097  0.80425742  1
  O  O16  1  0.71233200  0.42743620  0.63770251  1
  O  O17  1  0.71233200  0.57256380  0.13770251  1
  O  O18  1  0.78766800  0.92743620  0.63770251  1
  O  O19  1  0.78766800  0.07256380  0.13770251  1
  O  O20  1  0.72138167  0.19095097  0.80425742  1
  O  O21  1  0.72138167  0.80904903  0.30425742  1
  O  O22  1  0.79562422  0.37015919  0.96988418  1
  O  O23  1  0.79562422  0.62984081  0.46988418  1
loop_
_geom_bond_atom_site_label_1
_geom_bond_atom_site_label_2
_geom_bond_distance
_geom_bond_site_symmetry_2
Hf0 O8 2.076634 1_555
Hf0 O22 2.077797 1_454
Hf0 O10 2.080200 1_555
Hf0 O0 2.081287 1_555
Hf0 O19 2.083429 1_455
Hf0 O17 2.086654 1_455
Hf1 O3 2.019325 1_545
Hf1 O21 2.019325 1_445
Hf1 O4 2.078316 1_555
Hf1 O19 2.078316 1_455
Hf1 O14 2.147392 1_455
Hf1 O8 2.147392 1_555
Hf2 O14 2.076634 1_555
Hf2 O1 2.077799 1_655
Hf2 O13 2.080200 1_555
Hf2 O23 2.081285 1_555
Hf2 O4 2.083429 1_655
Hf2 O6 2.086654 1_655
Hf3 O20 2.019325 1_465
Hf3 O2 2.019325 1_565
Hf3 O5 2.078316 1_555
Hf3 O18 2.078316 1_455
Hf3 O9 2.147392 1_555
Hf3 O15 2.147392 1_455
Hf4 O9 2.076634 1_555
Hf4 O23 2.077797 1_455
Hf4 O11 2.080200 1_555
Hf4 O1 2.081287 1_555
Hf4 O18 2.083429 1_455
Hf4 O16 2.086654 1_455
Hf5 O15 2.076634 1_555
Hf5 O0 2.077799 1_656
Hf5 O12 2.080200 1_555
Hf5 O22 2.081285 1_555
Hf5 O5 2.083429 1_655
Hf5 O7 2.086654 1_655
Hf6 O2 2.076634 1_555
Hf6 O13 2.077797 1_555
Hf6 O1 2.080196 1_555
Hf6 O11 2.081285 1_545
Hf6 O16 2.083429 1_555
Hf6 O18 2.086654 1_545
Hf7 O14 2.019325 1_555
Hf7 O8 2.019325 1_555
Hf7 O17 2.078316 1_555
Hf7 O6 2.078316 1_555
Hf7 O3 2.147392 1_555
Hf7 O21 2.147392 1_555
Hf8 O20 2.076634 1_555
Hf8 O10 2.077797 1_556
Hf8 O22 2.080200 1_555
Hf8 O12 2.081285 1_545
Hf8 O7 2.083429 1_555
Hf8 O5 2.086654 1_545
Hf9 O9 2.019325 1_555
Hf9 O15 2.019325 1_555
Hf9 O16 2.078316 1_555
Hf9 O7 2.078316 1_555
Hf9 O20 2.147392 1_555
Hf9 O2 2.147392 1_555
Hf10 O21 2.076634 1_555
Hf10 O11 2.077797 1_555
Hf10 O23 2.080200 1_555
Hf10 O13 2.081285 1_565
Hf10 O6 2.083429 1_555
Hf10 O4 2.086654 1_565
Hf11 O3 2.076634 1_555
Hf11 O12 2.077797 1_554
Hf11 O0 2.080196 1_555
Hf11 O10 2.081285 1_565
Hf11 O17 2.083429 1_555
Hf11 O19 2.086654 1_565
