# generated using pymatgen
data_LiNiF3
_symmetry_space_group_name_H-M   'P 1'
_cell_length_a   5.44814959
_cell_length_b   5.44814901
_cell_length_c   5.44814936
_cell_angle_alpha   55.21225851
_cell_angle_beta   55.21226070
_cell_angle_gamma   55.21225945
_symmetry_Int_Tables_number   1
_chemical_formula_structural   LiNiF3
_chemical_formula_sum   'Li2 Ni2 F6'
_cell_volume   101.62203984
_cell_formula_units_Z   2
loop_
 _symmetry_equiv_pos_site_id
 _symmetry_equiv_pos_as_xyz
  1  'x, y, z'
loop_
 _atom_site_type_symbol
 _atom_site_label
 _atom_site_symmetry_multiplicity
 _atom_site_fract_x
 _atom_site_fract_y
 _atom_site_fract_z
 _atom_site_occupancy
  Li  Li0  1  0.70222854  0.70222854  0.70222854  1
  Li  Li1  1  0.29777146  0.29777146  0.29777146  1
  Ni  Ni0  1  -0.00000000  0.00000000  0.00000000  1
  Ni  Ni1  1  0.50000000  0.50000000  0.50000000  1
  F  F0  1  0.72860910  0.10602516  0.39712372  1
  F  F1  1  0.10602516  0.39712372  0.72860910  1
  F  F2  1  0.39712372  0.72860910  0.10602516  1
  F  F3  1  0.60287628  0.27139090  0.89397484  1
  F  F4  1  0.89397484  0.60287628  0.27139090  1
  F  F5  1  0.27139090  0.89397484  0.60287628  1
loop_
_geom_bond_atom_site_label_1
_geom_bond_atom_site_label_2
_geom_bond_distance
_geom_bond_site_symmetry_2
F0 Li0 1.881202 1_545
F0 Ni1 1.999565 1_555
F0 Ni0 2.000538 1_655
F0 Li1 2.213706 1_555
F1 Li0 1.881202 1_455
F1 Ni1 1.999565 1_555
F1 Ni0 2.000538 1_556
F1 Li1 2.213706 1_555
F2 Li0 1.881202 1_554
F2 Ni1 1.999565 1_555
F2 Ni0 2.000538 1_565
F2 Li1 2.213706 1_555
F3 Li1 1.881202 1_556
F3 Ni1 1.999565 1_555
F3 Ni0 2.000538 1_656
F3 Li0 2.213706 1_555
F4 Li1 1.881202 1_655
F4 Ni1 1.999565 1_555
F4 Ni0 2.000538 1_665
F4 Li0 2.213706 1_555
F5 Li1 1.881202 1_565
F5 Ni1 1.999565 1_555
F5 Ni0 2.000538 1_566
F5 Li0 2.213706 1_555
