# generated using pymatgen
data_Ca2Mn3P3H6O17
_symmetry_space_group_name_H-M   'P 1'
_cell_length_a   9.20839270
_cell_length_b   13.43873500
_cell_length_c   11.85580243
_cell_angle_alpha   89.99816957
_cell_angle_beta   104.96367182
_cell_angle_gamma   90.00203673
_symmetry_Int_Tables_number   1
_chemical_formula_structural   Ca2Mn3P3H6O17
_chemical_formula_sum   'Ca8 Mn12 P12 H24 O68'
_cell_volume   1417.39417206
_cell_formula_units_Z   4
loop_
 _symmetry_equiv_pos_site_id
 _symmetry_equiv_pos_as_xyz
  1  'x, y, z'
loop_
 _atom_site_type_symbol
 _atom_site_label
 _atom_site_symmetry_multiplicity
 _atom_site_fract_x
 _atom_site_fract_y
 _atom_site_fract_z
 _atom_site_occupancy
  Ca  Ca0  1  0.34219600  0.12532900  0.05223500  1
  Ca  Ca1  1  0.65782400  0.62533500  0.44777200  1
  Ca  Ca2  1  0.65780400  0.87467100  0.94776500  1
  Ca  Ca3  1  0.34217600  0.37466500  0.55222800  1
  Ca  Ca4  1  0.65390000  0.37989500  0.90791200  1
  Ca  Ca5  1  0.34612700  0.87991200  0.59207200  1
  Ca  Ca6  1  0.34609900  0.62010500  0.09208800  1
  Ca  Ca7  1  0.65387200  0.12008800  0.40792800  1
  Mn  Mn0  1  0.00000000  0.50000000  0.50000000  1
  Mn  Mn1  1  0.00000000  0.00000000  0.00000000  1
  Mn  Mn2  1  0.00000000  0.50000000  0.00000000  1
  Mn  Mn3  1  0.00000000  0.00000000  0.50000000  1
  Mn  Mn4  1  0.00014800  0.37557700  0.73778100  1
  Mn  Mn5  1  0.99983600  0.87556200  0.76226400  1
  Mn  Mn6  1  0.99985200  0.62442300  0.26221900  1
  Mn  Mn7  1  0.00016400  0.12443800  0.23773600  1
  Mn  Mn8  1  0.00138100  0.25977800  0.98492800  1
  Mn  Mn9  1  0.99867600  0.75979100  0.51505300  1
  Mn  Mn10  1  0.99861900  0.74022200  0.01507200  1
  Mn  Mn11  1  0.00132400  0.24020900  0.48494700  1
  P  P0  1  0.27618400  0.37886100  0.95152100  1
  P  P1  1  0.72387800  0.87885100  0.54849500  1
  P  P2  1  0.72381600  0.62113900  0.04847900  1
  P  P3  1  0.27612200  0.12114900  0.45150500  1
  P  P4  1  0.05169700  0.37577700  0.26114200  1
  P  P5  1  0.94828900  0.87580400  0.23885400  1
  P  P6  1  0.94830300  0.62422300  0.73885800  1
  P  P7  1  0.05171100  0.12419600  0.76114600  1
  P  P8  1  0.72583200  0.36941600  0.51752100  1
  P  P9  1  0.27414600  0.86942100  0.98249600  1
  P  P10  1  0.27416800  0.63058400  0.48247900  1
  P  P11  1  0.72585400  0.13057900  0.01750400  1
  H  H0  1  0.38572000  0.54143300  0.76138900  1
  H  H1  1  0.61421400  0.04143700  0.73858400  1
  H  H2  1  0.61428000  0.45856700  0.23861100  1
  H  H3  1  0.38578600  0.95856300  0.26141600  1
  H  H4  1  0.64992700  0.45981700  0.69047600  1
  H  H5  1  0.35010600  0.95980400  0.80952800  1
  H  H6  1  0.35007300  0.54018300  0.30952400  1
  H  H7  1  0.64989400  0.04019600  0.19047200  1
  H  H8  1  0.69415800  0.19825400  0.73096300  1
  H  H9  1  0.30583600  0.69825300  0.76903900  1
  H  H10  1  0.30584200  0.80174600  0.26903700  1
  H  H11  1  0.69416400  0.30174700  0.23096100  1
  H  H12  1  0.28833000  0.17310800  0.78821200  1
  H  H13  1  0.71167600  0.67309800  0.71177900  1
  H  H14  1  0.71167000  0.82689200  0.21178800  1
  H  H15  1  0.28832400  0.32690200  0.28822100  1
  H  H16  1  0.69014800  0.25398400  0.72876200  1
  H  H17  1  0.30987700  0.75398300  0.77123700  1
  H  H18  1  0.30985200  0.74601600  0.27123800  1
  H  H19  1  0.69012300  0.24601700  0.22876300  1
  H  H20  1  0.55673000  0.08497800  0.61421100  1
  H  H21  1  0.44321400  0.58496600  0.88577700  1
  H  H22  1  0.44327000  0.91502200  0.38578900  1
  H  H23  1  0.55678600  0.41503400  0.11422300  1
  O  O0  1  0.44614700  0.37359500  0.98108800  1
  O  O1  1  0.55388500  0.87356600  0.51892400  1
  O  O2  1  0.55385300  0.62640500  0.01891200  1
  O  O3  1  0.44611500  0.12643400  0.48107600  1
  O  O4  1  0.22075400  0.28453500  0.00989600  1
  O  O5  1  0.77931500  0.78453600  0.49011700  1
  O  O6  1  0.77924600  0.71546500  0.99010400  1
  O  O7  1  0.22068500  0.21546400  0.50988300  1
  O  O8  1  0.21911800  0.47368200  0.00395700  1
  O  O9  1  0.78089900  0.97367800  0.49605400  1
  O  O10  1  0.78088200  0.52631800  0.99604300  1
  O  O11  1  0.21910100  0.02632200  0.50394600  1
  O  O12  1  0.20788300  0.37076800  0.81694000  1
  O  O13  1  0.79212300  0.87076300  0.68307000  1
  O  O14  1  0.79211700  0.62923200  0.18306000  1
  O  O15  1  0.20787700  0.12923700  0.31693000  1
  O  O16  1  0.23459300  0.37849500  0.31945600  1
  O  O17  1  0.76538700  0.87848600  0.18055700  1
  O  O18  1  0.76540700  0.62150500  0.68054400  1
  O  O19  1  0.23461300  0.12151400  0.81944300  1
  O  O20  1  0.99314500  0.27947000  0.30184100  1
  O  O21  1  0.00683900  0.77946400  0.19814900  1
  O  O22  1  0.00685500  0.72053000  0.69815900  1
  O  O23  1  0.99316100  0.22053600  0.80185100  1
  O  O24  1  0.02094800  0.37873000  0.12848300  1
  O  O25  1  0.97906400  0.87872900  0.37151700  1
  O  O26  1  0.97905200  0.62127000  0.87151700  1
  O  O27  1  0.02093600  0.12127100  0.62848300  1
  O  O28  1  0.00009200  0.46821800  0.31481600  1
  O  O29  1  0.99988600  0.96821300  0.18518500  1
  O  O30  1  0.99990800  0.53178200  0.68518400  1
  O  O31  1  0.00011400  0.03178700  0.81481500  1
  O  O32  1  0.55637200  0.36814100  0.48491700  1
  O  O33  1  0.44360900  0.86812600  0.01511200  1
  O  O34  1  0.44362800  0.63185900  0.51508300  1
  O  O35  1  0.55639100  0.13187400  0.98488800  1
  O  O36  1  0.78788700  0.27085200  0.47561100  1
  O  O37  1  0.21204900  0.77086500  0.02440800  1
  O  O38  1  0.21211300  0.72914800  0.52438900  1
  O  O39  1  0.78795100  0.22913500  0.97559200  1
  O  O40  1  0.79044000  0.37929300  0.65287600  1
  O  O41  1  0.20955000  0.87929000  0.84714600  1
  O  O42  1  0.20956000  0.62070700  0.34712400  1
  O  O43  1  0.79045000  0.12071000  0.15285400  1
  O  O44  1  0.78242800  0.46382900  0.46163000  1
  O  O45  1  0.21757100  0.96383400  0.03838400  1
  O  O46  1  0.21757200  0.53617100  0.53837000  1
  O  O47  1  0.78242900  0.03616600  0.96161600  1
  O  O48  1  0.93900200  0.38743400  0.89579000  1
  O  O49  1  0.06103700  0.88744000  0.60421600  1
  O  O50  1  0.06099800  0.61256600  0.10421000  1
  O  O51  1  0.93896300  0.11256000  0.39578400  1
  O  O52  1  0.05831400  0.36578000  0.57070900  1
  O  O53  1  0.94163200  0.86579000  0.92930900  1
  O  O54  1  0.94168600  0.63422000  0.42929100  1
  O  O55  1  0.05836800  0.13421000  0.07069100  1
  O  O56  1  0.56480800  0.47262900  0.72577100  1
  O  O57  1  0.43522900  0.97260500  0.77425200  1
  O  O58  1  0.43519200  0.52737100  0.27422900  1
  O  O59  1  0.56477100  0.02739500  0.22574800  1
  O  O60  1  0.50136700  0.37080300  0.72893600  1
  O  O61  1  0.49862000  0.87076600  0.77105700  1
  O  O62  1  0.49863300  0.62919700  0.27106400  1
  O  O63  1  0.50138000  0.12923400  0.22894300  1
  O  O64  1  0.64724800  0.05852400  0.66942300  1
  O  O65  1  0.35267400  0.55851900  0.83055900  1
  O  O66  1  0.35275200  0.94147600  0.33057700  1
  O  O67  1  0.64732600  0.44148100  0.16944100  1
loop_
_geom_bond_atom_site_label_1
_geom_bond_atom_site_label_2
_geom_bond_distance
_geom_bond_site_symmetry_2
Ca0 O63 2.225899 1_555
Ca0 O35 2.312759 1_554
Ca0 O4 2.406310 1_555
Ca0 O45 2.440619 1_545
Ca0 O55 2.681115 1_555
Ca0 O19 2.681294 1_554
Ca1 O62 2.225912 1_555
Ca1 O34 2.312523 1_555
Ca1 O5 2.406399 1_555
Ca1 O44 2.440722 1_555
Ca1 O18 2.681074 1_555
Ca1 O54 2.681519 1_555
Ca2 O61 2.225899 1_555
Ca2 O33 2.312759 1_556
Ca2 O6 2.406310 1_555
Ca2 O47 2.440619 1_565
Ca2 O53 2.681115 1_555
Ca2 O17 2.681294 1_556
Ca3 O60 2.225912 1_555
Ca3 O32 2.312523 1_555
Ca3 O7 2.406399 1_555
Ca3 O46 2.440722 1_555
Ca3 O16 2.681074 1_555
Ca3 O52 2.681519 1_555
Ca4 O60 2.225119 1_555
Ca4 O0 2.297117 1_555
Ca4 O10 2.387475 1_555
Ca4 O39 2.400193 1_555
Ca4 O56 2.444236 1_555
Ca4 O48 2.667978 1_555
Ca5 O61 2.225099 1_555
Ca5 O1 2.296993 1_555
Ca5 O11 2.387479 1_565
Ca5 O38 2.400069 1_555
Ca5 O57 2.444374 1_555
Ca5 O49 2.667950 1_555
Ca6 O62 2.225122 1_555
Ca6 O2 2.297126 1_555
Ca6 O8 2.387472 1_555
Ca6 O37 2.400189 1_555
Ca6 O58 2.444237 1_555
Ca6 O50 2.667969 1_555
Ca7 O63 2.225096 1_555
Ca7 O3 2.296985 1_555
Ca7 O9 2.387483 1_545
Ca7 O36 2.400073 1_555
Ca7 O59 2.444373 1_555
Ca7 O51 2.667959 1_555
Mn0 O46 1.996617 1_555
Mn0 O44 1.996617 1_455
Mn0 O52 2.003028 1_555
Mn0 O54 2.003028 1_455
Mn0 O30 2.236892 1_455
Mn0 O28 2.236892 1_555
Mn1 O45 1.996614 1_545
Mn1 O47 1.996614 1_454
Mn1 O55 2.002926 1_555
Mn1 O53 2.002926 1_444
Mn1 O31 2.236941 1_554
Mn1 O29 2.236941 1_445
Mn2 O50 1.942170 1_555
Mn2 O48 1.942170 1_454
Mn2 O8 2.037074 1_555
Mn2 O10 2.037074 1_454
Mn2 O24 2.204916 1_555
Mn2 O26 2.204916 1_454
Mn3 O49 1.942162 1_545
Mn3 O51 1.942162 1_455
Mn3 O11 2.036935 1_555
Mn3 O9 2.036935 1_445
Mn3 O27 2.204998 1_555
Mn3 O25 2.204998 1_445
Mn4 O12 1.901859 1_555
Mn4 O40 1.934164 1_455
Mn4 O48 2.096782 1_455
Mn4 O52 2.185310 1_555
Mn4 O30 2.189679 1_455
Mn4 O23 2.224289 1_455
Mn5 O13 1.901771 1_555
Mn5 O41 1.934142 1_655
Mn5 O49 2.097489 1_655
Mn5 O53 2.185137 1_555
Mn5 O31 2.189794 1_665
Mn5 O22 2.224405 1_655
Mn6 O14 1.901859 1_555
Mn6 O42 1.934164 1_655
Mn6 O50 2.096782 1_655
Mn6 O54 2.185310 1_555
Mn6 O28 2.189679 1_655
Mn6 O21 2.224289 1_655
Mn7 O15 1.901771 1_555
Mn7 O43 1.934142 1_455
Mn7 O51 2.097489 1_455
Mn7 O55 2.185137 1_555
Mn7 O29 2.189794 1_445
Mn7 O20 2.224405 1_455
Mn8 O55 1.970080 1_556
Mn8 O39 1.982935 1_455
Mn8 O4 1.992528 1_556
Mn8 O48 2.018988 1_455
Mn8 O23 2.215907 1_455
Mn8 O24 2.307884 1_556
Mn9 O54 1.970137 1_555
Mn9 O38 1.983025 1_655
Mn9 O5 1.992457 1_555
Mn9 O49 2.019039 1_655
Mn9 O22 2.216353 1_655
Mn9 O25 2.307479 1_555
Mn10 O53 1.970080 1_554
Mn10 O37 1.982935 1_655
Mn10 O6 1.992528 1_554
Mn10 O50 2.018988 1_655
Mn10 O21 2.215907 1_655
Mn10 O26 2.307884 1_554
Mn11 O52 1.970137 1_555
Mn11 O36 1.983025 1_455
Mn11 O7 1.992457 1_555
Mn11 O51 2.019039 1_455
Mn11 O20 2.216353 1_455
Mn11 O27 2.307479 1_555
H0 O65 0.972993 1_555
H1 O64 0.972822 1_555
H2 O67 0.972993 1_555
H3 O66 0.972822 1_555
H4 O56 0.994230 1_555
H5 O57 0.994082 1_555
H6 O58 0.994230 1_555
H7 O59 0.994082 1_555
H10 H18 0.749973 1_555
H11 H19 0.749983 1_555
H12 O19 0.978295 1_555
H13 O18 0.978429 1_555
H14 O17 0.978295 1_555
H15 O16 0.978429 1_555
H16 H8 0.749973 1_555
H17 H9 0.749983 1_555
H20 O64 0.983806 1_555
H20 O3 1.734655 1_555
H21 O65 0.983934 1_555
H21 O2 1.734669 1_556
H22 O66 0.983806 1_555
H22 O1 1.734655 1_555
H23 O67 0.983934 1_555
H23 O0 1.734669 1_554
O0 P0 1.514619 1_555
O1 P1 1.514894 1_555
O2 P2 1.514619 1_555
O3 P3 1.514894 1_555
O4 P0 1.590188 1_554
O5 P1 1.590180 1_555
O6 P2 1.590188 1_556
O7 P3 1.590180 1_555
O8 P0 1.566903 1_554
O9 P1 1.566753 1_555
O10 P2 1.566903 1_556
O11 P3 1.566753 1_555
O12 P0 1.560450 1_555
O13 P1 1.560304 1_555
O14 P2 1.560450 1_555
O15 P3 1.560304 1_555
O16 P4 1.647564 1_555
O17 P5 1.647574 1_555
O18 P6 1.647564 1_555
O19 P7 1.647574 1_555
O20 P4 1.527369 1_655
O21 P5 1.527825 1_455
O22 P6 1.527369 1_455
O23 P7 1.527825 1_655
O24 P4 1.524927 1_555
O25 P5 1.524947 1_555
O26 P6 1.524927 1_555
O27 P7 1.524947 1_555
O28 P4 1.526529 1_555
O29 P5 1.526058 1_555
O30 P6 1.526529 1_555
O31 P7 1.526058 1_555
O32 P8 1.507725 1_555
O33 P9 1.507754 1_554
O34 P10 1.507725 1_555
O35 P11 1.507754 1_556
O36 P8 1.573097 1_555
O37 P9 1.573128 1_554
O38 P10 1.573097 1_555
O39 P11 1.573128 1_556
O40 P8 1.566443 1_555
O41 P9 1.566361 1_555
O42 P10 1.566443 1_555
O43 P11 1.566361 1_555
O44 P8 1.580745 1_555
O45 P9 1.580706 1_554
O46 P10 1.580745 1_555
O47 P11 1.580706 1_556
O56 O60 1.492146 1_555
O57 O61 1.492208 1_555
O58 O62 1.492146 1_555
O59 O63 1.492208 1_555
