# generated using pymatgen
data_NaTiPCO7
_symmetry_space_group_name_H-M   'P 1'
_cell_length_a   6.41872600
_cell_length_b   5.49613800
_cell_length_c   9.13377982
_cell_angle_alpha   86.62902139
_cell_angle_beta   90.00000000
_cell_angle_gamma   90.00000000
_symmetry_Int_Tables_number   1
_chemical_formula_structural   NaTiPCO7
_chemical_formula_sum   'Na2 Ti2 P2 C2 O14'
_cell_volume   321.66581630
_cell_formula_units_Z   2
loop_
 _symmetry_equiv_pos_site_id
 _symmetry_equiv_pos_as_xyz
  1  'x, y, z'
loop_
 _atom_site_type_symbol
 _atom_site_label
 _atom_site_symmetry_multiplicity
 _atom_site_fract_x
 _atom_site_fract_y
 _atom_site_fract_z
 _atom_site_occupancy
  Na  Na0  1  0.50551400  0.77031300  0.78685900  1
  Na  Na1  1  0.00551400  0.22968700  0.21314100  1
  Ti  Ti0  1  0.23362200  0.21151300  0.65837800  1
  Ti  Ti1  1  0.73362200  0.78848700  0.34162200  1
  P  P0  1  0.74168800  0.26700100  0.55513400  1
  P  P1  1  0.24168800  0.73299900  0.44486600  1
  C  C0  1  0.26166400  0.27933100  0.92006500  1
  C  C1  1  0.76166400  0.72066900  0.07993500  1
  O  O0  1  0.75397600  0.68530900  0.94883900  1
  O  O1  1  0.25611000  0.06153800  0.86107000  1
  O  O2  1  0.27003100  0.45332100  0.81114700  1
  O  O3  1  0.93634600  0.21399100  0.65252000  1
  O  O4  1  0.55045600  0.19712700  0.64843400  1
  O  O5  1  0.25501900  0.88398300  0.58258500  1
  O  O6  1  0.73772600  0.54190600  0.50362000  1
  O  O7  1  0.23772600  0.45809400  0.49638000  1
  O  O8  1  0.75501900  0.11601700  0.41741500  1
  O  O9  1  0.05045600  0.80287300  0.35156600  1
  O  O10  1  0.43634600  0.78600900  0.34748000  1
  O  O11  1  0.77003100  0.54667900  0.18885300  1
  O  O12  1  0.75611000  0.93846200  0.13893000  1
  O  O13  1  0.25397600  0.31469100  0.05116100  1
loop_
_geom_bond_atom_site_label_1
_geom_bond_atom_site_label_2
_geom_bond_distance
_geom_bond_site_symmetry_2
Na0 O0 2.206647 1_555
Na0 O2 2.307329 1_555
Na0 O1 2.389925 1_565
Na0 O5 2.513886 1_555
Na0 O4 2.614554 1_565
Na1 O13 2.206647 1_555
Na1 O11 2.307329 1_455
Na1 O12 2.389925 1_445
Na1 O8 2.513886 1_455
Na1 O9 2.614554 1_545
C0 O13 1.225293 1_556
C0 O2 1.339835 1_555
C0 O1 1.341767 1_555
C1 O0 1.225293 1_554
C1 O11 1.339835 1_555
C1 O12 1.341767 1_555
O1 Ti0 1.987030 1_555
O2 Ti0 1.996495 1_555
O3 P0 1.551375 1_555
O3 Ti0 1.908909 1_655
O4 P0 1.530321 1_555
O4 Ti0 2.037440 1_555
O5 P1 1.549514 1_555
O5 Ti0 1.971092 1_565
O6 P0 1.556051 1_555
O6 Ti1 1.947031 1_555
O7 P1 1.556051 1_555
O7 Ti0 1.947031 1_555
O8 P0 1.549514 1_555
O8 Ti1 1.971092 1_545
O9 P1 1.530321 1_555
O9 Ti1 2.037440 1_455
O10 P1 1.551375 1_555
O10 Ti1 1.908909 1_555
O11 Ti1 1.996495 1_555
O12 Ti1 1.987030 1_555
