# generated using pymatgen
data_NaLaO2
_symmetry_space_group_name_H-M   'P 1'
_cell_length_a   4.79115407
_cell_length_b   4.79115407
_cell_length_c   6.62473791
_cell_angle_alpha   68.80084379
_cell_angle_beta   68.80084379
_cell_angle_gamma   90.00000000
_symmetry_Int_Tables_number   1
_chemical_formula_structural   NaLaO2
_chemical_formula_sum   'Na2 La2 O4'
_cell_volume   130.68234917
_cell_formula_units_Z   2
loop_
 _symmetry_equiv_pos_site_id
 _symmetry_equiv_pos_as_xyz
  1  'x, y, z'
loop_
 _atom_site_type_symbol
 _atom_site_label
 _atom_site_symmetry_multiplicity
 _atom_site_fract_x
 _atom_site_fract_y
 _atom_site_fract_z
 _atom_site_occupancy
  Na  Na0  1  0.50000000  0.50000000  -0.00000000  1
  Na  Na1  1  0.25000000  0.75000000  0.50000000  1
  La  La0  1  0.00000000  0.00000000  -0.00000000  1
  La  La1  1  0.75000000  0.25000000  0.50000000  1
  O  O0  1  0.21654266  0.21654266  0.56691467  1
  O  O1  1  0.53345734  0.03345734  0.93308533  1
  O  O2  1  0.96654266  0.46654266  0.06691467  1
  O  O3  1  0.78345734  0.78345734  0.43308533  1
loop_
_geom_bond_atom_site_label_1
_geom_bond_atom_site_label_2
_geom_bond_distance
_geom_bond_site_symmetry_2
Na0 O2 2.425676 1_555
Na0 O1 2.425676 1_554
Na0 O2 2.425676 1_455
Na0 O1 2.425676 1_564
Na1 O3 2.425676 1_455
Na1 O0 2.425676 1_565
Na1 O0 2.425676 1_555
Na1 O3 2.425676 1_555
La0 O2 2.425676 1_455
La0 O1 2.425676 1_454
La0 O1 2.425676 1_554
La0 O2 2.425676 1_445
La0 O3 2.465529 1_445
La0 O0 2.465529 1_554
La1 O3 2.425676 1_545
La1 O0 2.425676 1_655
La1 O3 2.425676 1_555
La1 O0 2.425676 1_555
La1 O2 2.465529 1_555
La1 O1 2.465529 1_555
