# generated using pymatgen
data_Li4CuF7
_symmetry_space_group_name_H-M   'P 1'
_cell_length_a   7.58730220
_cell_length_b   7.58730220
_cell_length_c   5.33190542
_cell_angle_alpha   80.99453695
_cell_angle_beta   80.99453695
_cell_angle_gamma   72.19929310
_symmetry_Int_Tables_number   1
_chemical_formula_structural   Li4CuF7
_chemical_formula_sum   'Li8 Cu2 F14'
_cell_volume   286.71154751
_cell_formula_units_Z   2
loop_
 _symmetry_equiv_pos_site_id
 _symmetry_equiv_pos_as_xyz
  1  'x, y, z'
loop_
 _atom_site_type_symbol
 _atom_site_label
 _atom_site_symmetry_multiplicity
 _atom_site_fract_x
 _atom_site_fract_y
 _atom_site_fract_z
 _atom_site_occupancy
  Li  Li0  1  0.94303700  0.76115800  0.80759000  1
  Li  Li1  1  0.76115800  0.94303700  0.30759000  1
  Li  Li2  1  0.69703000  0.57224800  0.25836800  1
  Li  Li3  1  0.57224800  0.69703000  0.75836800  1
  Li  Li4  1  0.42775200  0.30297000  0.24163200  1
  Li  Li5  1  0.30297000  0.42775200  0.74163200  1
  Li  Li6  1  0.23884200  0.05696300  0.69241000  1
  Li  Li7  1  0.05696300  0.23884200  0.19241000  1
  Cu  Cu0  1  0.76202500  0.23797500  0.75000000  1
  Cu  Cu1  1  0.23797500  0.76202500  0.25000000  1
  F  F0  1  0.99937100  0.18604300  0.86702700  1
  F  F1  1  0.84575900  0.34061400  0.41933300  1
  F  F2  1  0.78172900  0.62632900  0.92428800  1
  F  F3  1  0.62632900  0.78172900  0.42428800  1
  F  F4  1  0.81395700  0.00062900  0.63297300  1
  F  F5  1  0.65938600  0.15424100  0.08066700  1
  F  F6  1  0.55272500  0.44727500  0.75000000  1
  F  F7  1  0.44727500  0.55272500  0.25000000  1
  F  F8  1  0.34061400  0.84575900  0.91933300  1
  F  F9  1  0.18604300  0.99937100  0.36702700  1
  F  F10  1  0.37367100  0.21827100  0.57571200  1
  F  F11  1  0.21827100  0.37367100  0.07571200  1
  F  F12  1  0.15424100  0.65938600  0.58066700  1
  F  F13  1  0.00062900  0.81395700  0.13297300  1
loop_
_geom_bond_atom_site_label_1
_geom_bond_atom_site_label_2
_geom_bond_distance
_geom_bond_site_symmetry_2
Cu0 F6 1.871298 1_555
Cu0 F0 1.904864 1_555
Cu0 F4 1.904864 1_555
Cu0 F1 1.908025 1_555
Cu0 F5 1.908025 1_556
Cu1 F7 1.871298 1_555
Cu1 F9 1.904864 1_555
Cu1 F13 1.904864 1_555
Cu1 F8 1.908025 1_554
Cu1 F12 1.908025 1_555
F0 Li6 1.948117 1_655
F0 Li7 1.980726 1_656
F1 Li7 1.886012 1_655
F1 Li2 1.927989 1_555
F2 Li0 1.805385 1_555
F2 Li2 1.824381 1_556
F2 Li3 1.834913 1_555
F3 Li1 1.805385 1_555
F3 Li3 1.824381 1_555
F3 Li2 1.834913 1_555
F4 Li0 1.948117 1_545
F4 Li1 1.980726 1_545
F5 Li1 1.886012 1_545
F5 Li4 1.927989 1_555
F6 Li3 1.953200 1_555
F6 Li5 1.953200 1_555
F7 Li2 1.953200 1_555
F7 Li4 1.953200 1_555
F8 Li6 1.886012 1_565
F8 Li3 1.927989 1_555
F9 Li7 1.948117 1_565
F9 Li6 1.980726 1_565
F10 Li6 1.805385 1_555
F10 Li4 1.824381 1_555
F10 Li5 1.834913 1_555
F11 Li7 1.805385 1_555
F11 Li5 1.824381 1_554
F11 Li4 1.834913 1_555
F12 Li0 1.886012 1_455
F12 Li5 1.927989 1_555
F13 Li1 1.948117 1_455
F13 Li0 1.980726 1_454
