# generated using pymatgen
data_Zn3P2(H2O3)4
_symmetry_space_group_name_H-M   'P 1'
_cell_length_a   5.09388700
_cell_length_b   10.76003700
_cell_length_c   19.05636000
_cell_angle_alpha   90.00000000
_cell_angle_beta   90.00000000
_cell_angle_gamma   90.00000000
_symmetry_Int_Tables_number   1
_chemical_formula_structural   Zn3P2(H2O3)4
_chemical_formula_sum   'Zn12 P8 H32 O48'
_cell_volume   1044.48695414
_cell_formula_units_Z   4
loop_
 _symmetry_equiv_pos_site_id
 _symmetry_equiv_pos_as_xyz
  1  'x, y, z'
loop_
 _atom_site_type_symbol
 _atom_site_label
 _atom_site_symmetry_multiplicity
 _atom_site_fract_x
 _atom_site_fract_y
 _atom_site_fract_z
 _atom_site_occupancy
  Zn  Zn0  1  0.93786700  0.73852300  0.25000000  1
  Zn  Zn1  1  0.56213300  0.23852300  0.25000000  1
  Zn  Zn2  1  0.06213300  0.26147700  0.75000000  1
  Zn  Zn3  1  0.43786700  0.76147700  0.75000000  1
  Zn  Zn4  1  0.28501200  0.64214300  0.99852200  1
  Zn  Zn5  1  0.21498800  0.14214300  0.50147800  1
  Zn  Zn6  1  0.71498800  0.35785700  0.49852200  1
  Zn  Zn7  1  0.78501200  0.85785700  0.00147800  1
  Zn  Zn8  1  0.71498800  0.35785700  0.00147800  1
  Zn  Zn9  1  0.78501200  0.85785700  0.49852200  1
  Zn  Zn10  1  0.28501200  0.64214300  0.50147800  1
  Zn  Zn11  1  0.21498800  0.14214300  0.99852200  1
  P  P0  1  0.77345000  0.60290500  0.09343900  1
  P  P1  1  0.72655000  0.10290500  0.40656100  1
  P  P2  1  0.22655000  0.39709500  0.59343900  1
  P  P3  1  0.27345000  0.89709500  0.90656100  1
  P  P4  1  0.22655000  0.39709500  0.90656100  1
  P  P5  1  0.27345000  0.89709500  0.59343900  1
  P  P6  1  0.77345000  0.60290500  0.40656100  1
  P  P7  1  0.72655000  0.10290500  0.09343900  1
  H  H0  1  0.37628900  0.61630400  0.20997800  1
  H  H1  1  0.12371100  0.11630400  0.29002200  1
  H  H2  1  0.62371100  0.38369600  0.70997800  1
  H  H3  1  0.87628900  0.88369600  0.79002200  1
  H  H4  1  0.62371100  0.38369600  0.79002200  1
  H  H5  1  0.87628900  0.88369600  0.70997800  1
  H  H6  1  0.37628900  0.61630400  0.29002200  1
  H  H7  1  0.12371100  0.11630400  0.20997800  1
  H  H8  1  0.68944000  0.94960600  0.20988100  1
  H  H9  1  0.81056000  0.44960600  0.29011900  1
  H  H10  1  0.31056000  0.05039400  0.70988100  1
  H  H11  1  0.18944000  0.55039400  0.79011900  1
  H  H12  1  0.31056000  0.05039400  0.79011900  1
  H  H13  1  0.18944000  0.55039400  0.70988100  1
  H  H14  1  0.68944000  0.94960600  0.29011900  1
  H  H15  1  0.81056000  0.44960600  0.20988100  1
  H  H16  1  0.21174500  0.76091500  0.13489400  1
  H  H17  1  0.28825500  0.26091500  0.36510600  1
  H  H18  1  0.78825500  0.23908500  0.63489400  1
  H  H19  1  0.71174500  0.73908500  0.86510600  1
  H  H20  1  0.78825500  0.23908500  0.86510600  1
  H  H21  1  0.71174500  0.73908500  0.63489400  1
  H  H22  1  0.21174500  0.76091500  0.36510600  1
  H  H23  1  0.28825500  0.26091500  0.13489400  1
  H  H24  1  0.05494900  0.88597300  0.13528700  1
  H  H25  1  0.44505100  0.38597300  0.36471300  1
  H  H26  1  0.94505100  0.11402700  0.63528700  1
  H  H27  1  0.55494900  0.61402700  0.86471300  1
  H  H28  1  0.94505100  0.11402700  0.86471300  1
  H  H29  1  0.55494900  0.61402700  0.63528700  1
  H  H30  1  0.05494900  0.88597300  0.36471300  1
  H  H31  1  0.44505100  0.38597300  0.13528700  1
  O  O0  1  0.25350600  0.60994500  0.25000000  1
  O  O1  1  0.24649400  0.10994500  0.25000000  1
  O  O2  1  0.74649400  0.39005500  0.75000000  1
  O  O3  1  0.75350600  0.89005500  0.75000000  1
  O  O4  1  0.69313200  0.89346200  0.25000000  1
  O  O5  1  0.80686800  0.39346200  0.25000000  1
  O  O6  1  0.30686800  0.10653800  0.75000000  1
  O  O7  1  0.19313200  0.60653800  0.75000000  1
  O  O8  1  0.15449600  0.82807800  0.16580900  1
  O  O9  1  0.34550400  0.32807800  0.33419100  1
  O  O10  1  0.84550400  0.17192200  0.66580900  1
  O  O11  1  0.65449600  0.67192200  0.83419100  1
  O  O12  1  0.84550400  0.17192200  0.83419100  1
  O  O13  1  0.65449600  0.67192200  0.66580900  1
  O  O14  1  0.15449600  0.82807800  0.33419100  1
  O  O15  1  0.34550400  0.32807800  0.16580900  1
  O  O16  1  0.71506200  0.63681900  0.16990300  1
  O  O17  1  0.78493800  0.13681900  0.33009700  1
  O  O18  1  0.28493800  0.36318100  0.66990300  1
  O  O19  1  0.21506200  0.86318100  0.83009700  1
  O  O20  1  0.28493800  0.36318100  0.83009700  1
  O  O21  1  0.21506200  0.86318100  0.66990300  1
  O  O22  1  0.71506200  0.63681900  0.33009700  1
  O  O23  1  0.78493800  0.13681900  0.16990300  1
  O  O24  1  0.07177100  0.60596600  0.07929700  1
  O  O25  1  0.42822900  0.10596600  0.42070300  1
  O  O26  1  0.92822900  0.39403400  0.57929700  1
  O  O27  1  0.57177100  0.89403400  0.92070300  1
  O  O28  1  0.92822900  0.39403400  0.92070300  1
  O  O29  1  0.57177100  0.89403400  0.57929700  1
  O  O30  1  0.07177100  0.60596600  0.42070300  1
  O  O31  1  0.42822900  0.10596600  0.07929700  1
  O  O32  1  0.84671400  0.97203200  0.07832100  1
  O  O33  1  0.65328600  0.47203200  0.42167900  1
  O  O34  1  0.15328600  0.02796800  0.57832100  1
  O  O35  1  0.34671400  0.52796800  0.92167900  1
  O  O36  1  0.15328600  0.02796800  0.92167900  1
  O  O37  1  0.34671400  0.52796800  0.57832100  1
  O  O38  1  0.84671400  0.97203200  0.42167900  1
  O  O39  1  0.65328600  0.47203200  0.07832100  1
  O  O40  1  0.63535100  0.69568200  0.03952300  1
  O  O41  1  0.86464900  0.19568200  0.46047700  1
  O  O42  1  0.36464900  0.30431800  0.53952300  1
  O  O43  1  0.13535100  0.80431800  0.96047700  1
  O  O44  1  0.36464900  0.30431800  0.96047700  1
  O  O45  1  0.13535100  0.80431800  0.53952300  1
  O  O46  1  0.63535100  0.69568200  0.46047700  1
  O  O47  1  0.86464900  0.19568200  0.03952300  1
loop_
_geom_bond_atom_site_label_1
_geom_bond_atom_site_label_2
_geom_bond_distance
_geom_bond_site_symmetry_2
H0 O0 0.988702 1_555
H1 O1 0.988702 1_555
H2 O2 0.988702 1_555
H3 O3 0.988702 1_555
H4 O2 0.988702 1_555
H5 O3 0.988702 1_555
H6 O0 0.988702 1_555
H7 O1 0.988702 1_555
H8 O4 0.974576 1_555
H9 O5 0.974576 1_555
H10 O6 0.974576 1_555
H11 O7 0.974576 1_555
H12 O6 0.974576 1_555
H13 O7 0.974576 1_555
H14 O4 0.974576 1_555
H15 O5 0.974576 1_555
H16 O8 0.976921 1_555
H17 O9 0.976921 1_555
H18 O10 0.976921 1_555
H19 O11 0.976921 1_555
H20 O12 0.976921 1_555
H21 O13 0.976921 1_555
H22 O14 0.976921 1_555
H23 O15 0.976921 1_555
H24 O8 0.991718 1_555
H25 O9 0.991718 1_555
H26 O10 0.991718 1_555
H27 O11 0.991718 1_555
H28 O12 0.991718 1_555
H29 O13 0.991718 1_555
H30 O14 0.991718 1_555
H31 O15 0.991718 1_555
O0 Zn0 2.121131 1_455
O1 Zn1 2.121131 1_555
O2 Zn2 2.121131 1_655
O3 Zn3 2.121131 1_555
O4 Zn0 2.081713 1_555
O5 Zn1 2.081713 1_555
O6 Zn2 2.081713 1_555
O7 Zn3 2.081713 1_555
O8 Zn0 2.172613 1_455
O9 Zn1 2.172613 1_555
O10 Zn2 2.172613 1_655
O11 Zn3 2.172613 1_555
O12 Zn2 2.172613 1_655
O13 Zn3 2.172613 1_555
O14 Zn0 2.172613 1_455
O15 Zn1 2.172613 1_555
O16 P0 1.531286 1_555
O16 Zn0 2.194411 1_555
O17 P1 1.531286 1_555
O17 Zn1 2.194411 1_555
O18 P2 1.531286 1_555
O18 Zn2 2.194411 1_555
O19 P3 1.531286 1_555
O19 Zn3 2.194411 1_555
O20 P4 1.531286 1_555
O20 Zn2 2.194411 1_555
O21 P5 1.531286 1_555
O21 Zn3 2.194411 1_555
O22 P6 1.531286 1_555
O22 Zn0 2.194411 1_555
O23 P7 1.531286 1_555
O23 Zn1 2.194411 1_555
O24 P0 1.543677 1_455
O24 Zn4 1.923743 1_554
O25 P1 1.543677 1_555
O25 Zn5 1.923743 1_555
O26 P2 1.543677 1_655
O26 Zn6 1.923743 1_555
O27 P3 1.543677 1_555
O27 Zn7 1.923743 1_556
O28 P4 1.543677 1_655
O28 Zn8 1.923743 1_556
O29 P5 1.543677 1_555
O29 Zn9 1.923743 1_555
O30 P6 1.543677 1_455
O30 Zn10 1.923743 1_555
O31 P7 1.543677 1_555
O31 Zn11 1.923743 1_554
O32 P7 1.562271 1_565
O32 Zn7 1.937106 1_555
O33 P6 1.562271 1_555
O33 Zn6 1.937106 1_555
O34 P5 1.562271 1_545
O34 Zn5 1.937106 1_555
O35 P4 1.562271 1_555
O35 Zn4 1.937106 1_555
O36 P3 1.562271 1_545
O36 Zn11 1.937106 1_555
O37 P2 1.562271 1_555
O37 Zn10 1.937106 1_555
O38 P1 1.562271 1_565
O38 Zn9 1.937106 1_555
O39 P0 1.562271 1_555
O39 Zn8 1.937106 1_555
O40 P0 1.595953 1_555
O40 Zn4 2.031526 1_554
O40 Zn7 2.037613 1_555
O41 P1 1.595953 1_555
O41 Zn5 2.031526 1_655
O41 Zn6 2.037613 1_555
O42 P2 1.595953 1_555
O42 Zn6 2.031526 1_555
O42 Zn5 2.037613 1_555
O43 P3 1.595953 1_555
O43 Zn7 2.031526 1_456
O43 Zn4 2.037613 1_555
O44 P4 1.595953 1_555
O44 Zn8 2.031526 1_556
O44 Zn11 2.037613 1_555
O45 P5 1.595953 1_555
O45 Zn9 2.031526 1_455
O45 Zn10 2.037613 1_555
O46 P6 1.595953 1_555
O46 Zn10 2.031526 1_555
O46 Zn9 2.037613 1_555
O47 P7 1.595953 1_555
O47 Zn11 2.031526 1_654
O47 Zn8 2.037613 1_555
