# generated using pymatgen
data_VOF3
_symmetry_space_group_name_H-M   'P 1'
_cell_length_a   5.83082500
_cell_length_b   5.83082500
_cell_length_c   8.17585000
_cell_angle_alpha   90.00000000
_cell_angle_beta   90.00000000
_cell_angle_gamma   90.00000000
_symmetry_Int_Tables_number   1
_chemical_formula_structural   VOF3
_chemical_formula_sum   'V4 O4 F12'
_cell_volume   277.96680122
_cell_formula_units_Z   4
loop_
 _symmetry_equiv_pos_site_id
 _symmetry_equiv_pos_as_xyz
  1  'x, y, z'
loop_
 _atom_site_type_symbol
 _atom_site_label
 _atom_site_symmetry_multiplicity
 _atom_site_fract_x
 _atom_site_fract_y
 _atom_site_fract_z
 _atom_site_occupancy
  V  V0  1  0.00109500  0.27403500  0.02040600  1
  V  V1  1  0.27403500  0.99890500  0.77040600  1
  V  V2  1  0.72596500  0.00109500  0.27040600  1
  V  V3  1  0.99890500  0.72596500  0.52040600  1
  O  O0  1  0.02221500  0.76924100  0.72378900  1
  O  O1  1  0.23075900  0.02221500  0.97378900  1
  O  O2  1  0.76924100  0.97778500  0.47378900  1
  O  O3  1  0.97778500  0.23075900  0.22378900  1
  F  F0  1  0.01565400  0.21940100  0.76904300  1
  F  F1  1  0.22442400  0.53424400  0.48012300  1
  F  F2  1  0.22550700  0.47292700  0.00896500  1
  F  F3  1  0.21940100  0.98434600  0.51904300  1
  F  F4  1  0.46575600  0.22442400  0.73012300  1
  F  F5  1  0.47292700  0.77449300  0.75896500  1
  F  F6  1  0.52707300  0.22550700  0.25896500  1
  F  F7  1  0.53424400  0.77557600  0.23012300  1
  F  F8  1  0.78059900  0.01565400  0.01904300  1
  F  F9  1  0.77449300  0.52707300  0.50896500  1
  F  F10  1  0.77557600  0.46575600  0.98012300  1
  F  F11  1  0.98434600  0.78059900  0.26904300  1
loop_
_geom_bond_atom_site_label_1
_geom_bond_atom_site_label_2
_geom_bond_distance
_geom_bond_site_symmetry_2
O0 V3 1.687349 1_455
O0 V1 2.023485 1_555
O1 V1 1.687349 1_545
O1 V0 2.023485 1_556
O2 V2 1.687349 1_565
O2 V3 2.023485 1_555
O3 V0 1.687349 1_655
O3 V2 2.023485 1_555
F0 V1 1.980618 1_545
F0 V0 2.081382 1_556
F1 V3 1.757065 1_455
F2 V0 1.750958 1_555
F3 V3 1.980618 1_455
F3 V1 2.081382 1_555
F4 V1 1.757065 1_545
F5 V1 1.750958 1_555
F6 V2 1.750958 1_555
F7 V2 1.757065 1_565
F8 V0 1.980618 1_655
F8 V2 2.081382 1_555
F9 V3 1.750958 1_555
F10 V0 1.757065 1_656
F11 V2 1.980618 1_565
F11 V3 2.081382 1_555
