# generated using pymatgen
data_LiVP2HO8
_symmetry_space_group_name_H-M   'P 1'
_cell_length_a   4.87479184
_cell_length_b   8.01240200
_cell_length_c   7.48100160
_cell_angle_alpha   89.99948333
_cell_angle_beta   105.04035083
_cell_angle_gamma   90.00277365
_symmetry_Int_Tables_number   1
_chemical_formula_structural   LiVP2HO8
_chemical_formula_sum   'Li2 V2 P4 H2 O16'
_cell_volume   282.18911872
_cell_formula_units_Z   2
loop_
 _symmetry_equiv_pos_site_id
 _symmetry_equiv_pos_as_xyz
  1  'x, y, z'
loop_
 _atom_site_type_symbol
 _atom_site_label
 _atom_site_symmetry_multiplicity
 _atom_site_fract_x
 _atom_site_fract_y
 _atom_site_fract_z
 _atom_site_occupancy
  Li  Li0  1  0.09956400  0.37299900  0.64614600  1
  Li  Li1  1  0.40042300  0.87298400  0.85383000  1
  V  V0  1  0.50898900  0.49843000  0.01469000  1
  V  V1  1  0.99110500  0.99843800  0.48538800  1
  P  P0  1  0.13331000  0.34778800  0.26886000  1
  P  P1  1  0.36675700  0.84784500  0.23117100  1
  P  P2  1  0.62435400  0.15650500  0.76037100  1
  P  P3  1  0.87563900  0.65648900  0.73963900  1
  H  H0  1  0.53898200  0.51145000  0.51374900  1
  H  H1  1  0.96100700  0.01144700  0.98622900  1
  O  O0  1  0.13952300  0.55330700  0.84612000  1
  O  O1  1  0.03888000  0.17308800  0.31453100  1
  O  O2  1  0.17382900  0.83337000  0.36495700  1
  O  O3  1  0.26209600  0.44263300  0.44629100  1
  O  O4  1  0.36051400  0.05332400  0.65389400  1
  O  O5  1  0.52132700  0.32608100  0.81356100  1
  O  O6  1  0.23788100  0.94260500  0.05369800  1
  O  O7  1  0.32614400  0.33337200  0.13498600  1
  O  O8  1  0.66263700  0.67640400  0.85969900  1
  O  O9  1  0.74677200  0.04932600  0.93660500  1
  O  O10  1  0.46103600  0.67311800  0.18547400  1
  O  O11  1  0.64067100  0.94338700  0.34705400  1
  O  O12  1  0.75321900  0.54933300  0.56338700  1
  O  O13  1  0.83733000  0.17640600  0.64027500  1
  O  O14  1  0.97861500  0.82606200  0.68643400  1
  O  O15  1  0.85939400  0.44337700  0.15296100  1
loop_
_geom_bond_atom_site_label_1
_geom_bond_atom_site_label_2
_geom_bond_distance
_geom_bond_site_symmetry_2
Li0 O3 1.946577 1_555
Li0 O13 2.021865 1_455
Li0 O0 2.052293 1_555
Li0 O5 2.144927 1_555
Li0 O12 2.165120 1_455
Li1 O6 1.946691 1_556
Li1 O8 2.021821 1_555
Li1 O4 2.052291 1_565
Li1 O14 2.145031 1_455
Li1 O9 2.165087 1_565
H0 O12 1.058023 1_555
H0 O3 1.423718 1_555
H1 O9 1.058022 1_555
H1 O6 1.423802 1_646
O0 P3 1.562395 1_455
O0 V0 1.961827 1_556
O1 P0 1.539330 1_555
O1 V1 1.949524 1_445
O2 P1 1.545374 1_555
O2 V1 1.941908 1_455
O3 P0 1.516908 1_555
O4 P2 1.562176 1_555
O4 V1 1.961407 1_445
O5 P2 1.536381 1_555
O5 V0 2.054643 1_556
O6 P1 1.516908 1_555
O7 P0 1.545522 1_555
O7 V0 1.941536 1_555
O8 P3 1.547372 1_555
O8 V0 2.095110 1_556
O9 P2 1.556755 1_555
O10 P1 1.539369 1_555
O10 V0 1.949652 1_555
O11 P1 1.587344 1_555
O11 V1 1.807265 1_555
O12 P3 1.556737 1_555
O13 P2 1.547447 1_555
O13 V1 2.094948 1_545
O14 P3 1.536251 1_555
O14 V1 2.054469 1_555
O15 P0 1.587627 1_655
O15 V0 1.807038 1_555
