# generated using pymatgen
data_Li6MnFe5(BO3)6
_symmetry_space_group_name_H-M   'P 1'
_cell_length_a   8.24364400
_cell_length_b   8.24476530
_cell_length_c   12.55723042
_cell_angle_alpha   89.78503549
_cell_angle_beta   89.82981292
_cell_angle_gamma   60.01455242
_symmetry_Int_Tables_number   1
_chemical_formula_structural   Li6MnFe5(BO3)6
_chemical_formula_sum   'Li12 Mn2 Fe10 B12 O36'
_cell_volume   739.23459542
_cell_formula_units_Z   2
loop_
 _symmetry_equiv_pos_site_id
 _symmetry_equiv_pos_as_xyz
  1  'x, y, z'
loop_
 _atom_site_type_symbol
 _atom_site_label
 _atom_site_symmetry_multiplicity
 _atom_site_fract_x
 _atom_site_fract_y
 _atom_site_fract_z
 _atom_site_occupancy
  Li  Li0  1  0.98425600  0.30171700  0.87476100  1
  Li  Li1  1  0.98507400  0.30178800  0.12571900  1
  Li  Li2  1  0.98468400  0.30090500  0.37516500  1
  Li  Li3  1  0.98446100  0.30055600  0.62441900  1
  Li  Li4  1  0.30150600  0.71451100  0.87439100  1
  Li  Li5  1  0.30197500  0.71393400  0.62448700  1
  Li  Li6  1  0.30105600  0.71345900  0.37505700  1
  Li  Li7  1  0.30098800  0.71410300  0.12531100  1
  Li  Li8  1  0.71318400  0.98608600  0.62419300  1
  Li  Li9  1  0.71385100  0.98488500  0.37488700  1
  Li  Li10  1  0.71263200  0.98521900  0.87595600  1
  Li  Li11  1  0.71419900  0.98473700  0.12527000  1
  Mn  Mn0  1  0.36106900  0.01217100  0.75024500  1
  Mn  Mn1  1  0.01229600  0.62659700  0.99964900  1
  Fe  Fe0  1  0.35901600  0.00730100  0.00187900  1
  Fe  Fe1  1  0.36136700  0.00743800  0.49940600  1
  Fe  Fe2  1  0.35970100  0.00694200  0.25090700  1
  Fe  Fe3  1  0.00755800  0.63187600  0.49918100  1
  Fe  Fe4  1  0.00648300  0.63406100  0.74792600  1
  Fe  Fe5  1  0.00760300  0.63065600  0.25084100  1
  Fe  Fe6  1  0.63272900  0.36004600  0.49944300  1
  Fe  Fe7  1  0.63387300  0.35931500  0.99991500  1
  Fe  Fe8  1  0.63371200  0.35894600  0.74987000  1
  Fe  Fe9  1  0.63295600  0.35989000  0.24968000  1
  B  B0  1  0.99836000  0.00213100  0.00023800  1
  B  B1  1  0.99966300  0.99811500  0.74976300  1
  B  B2  1  0.00021400  0.99983900  0.49974900  1
  B  B3  1  0.99990900  0.99990500  0.25024600  1
  B  B4  1  0.66601900  0.66672700  0.12692600  1
  B  B5  1  0.66657500  0.66570400  0.87503500  1
  B  B6  1  0.66808100  0.66544200  0.62317900  1
  B  B7  1  0.66674700  0.66598600  0.37513900  1
  B  B8  1  0.33362600  0.33429000  0.87496700  1
  B  B9  1  0.33290800  0.33524600  0.62356400  1
  B  B10  1  0.33310900  0.33333500  0.37503800  1
  B  B11  1  0.33476500  0.33259700  0.12651500  1
  O  O0  1  0.91633700  0.19294500  0.75032500  1
  O  O1  1  0.91646400  0.19678200  0.00079700  1
  O  O2  1  0.91463600  0.19444600  0.50025800  1
  O  O3  1  0.91531100  0.19429800  0.25054600  1
  O  O4  1  0.57948300  0.55897400  0.12505400  1
  O  O5  1  0.58001800  0.55774700  0.87489400  1
  O  O6  1  0.58063900  0.55836800  0.62492300  1
  O  O7  1  0.57937900  0.55884700  0.37482000  1
  O  O8  1  0.19289500  0.89126700  0.00018500  1
  O  O9  1  0.19425800  0.89125200  0.49861100  1
  O  O10  1  0.19433500  0.89042500  0.24941800  1
  O  O11  1  0.19289700  0.88693300  0.74944200  1
  O  O12  1  0.86034300  0.57970900  0.12873300  1
  O  O13  1  0.86090600  0.57878300  0.37672300  1
  O  O14  1  0.86022900  0.57963100  0.87242500  1
  O  O15  1  0.86189400  0.57879000  0.62430400  1
  O  O16  1  0.55866000  0.86083100  0.12567000  1
  O  O17  1  0.55878600  0.85974900  0.87783400  1
  O  O18  1  0.55952900  0.86027400  0.37367600  1
  O  O19  1  0.56059400  0.85990700  0.62157900  1
  O  O20  1  0.25283300  0.22075800  0.87726800  1
  O  O21  1  0.25427800  0.21797700  0.37495700  1
  O  O22  1  0.25338400  0.22034400  0.62367500  1
  O  O23  1  0.25474100  0.21852100  0.12660700  1
  O  O24  1  0.88686600  0.92019200  0.99978600  1
  O  O25  1  0.88682300  0.91640200  0.74972800  1
  O  O26  1  0.89077400  0.91492400  0.50039600  1
  O  O27  1  0.89074400  0.91501100  0.25095800  1
  O  O28  1  0.52754000  0.25446900  0.87529200  1
  O  O29  1  0.52714900  0.25502100  0.62471300  1
  O  O30  1  0.52714800  0.25460700  0.37490800  1
  O  O31  1  0.52857500  0.25416000  0.12500700  1
  O  O32  1  0.21813900  0.52882500  0.62335600  1
  O  O33  1  0.21950000  0.52822300  0.87237900  1
  O  O34  1  0.21774100  0.52730600  0.37512700  1
  O  O35  1  0.21996500  0.52684000  0.12670900  1
loop_
_geom_bond_atom_site_label_1
_geom_bond_atom_site_label_2
_geom_bond_distance
_geom_bond_site_symmetry_2
Li0 O20 1.967642 1_655
Li0 O14 1.988571 1_555
Li0 O1 2.008334 1_556
Li0 O0 2.019153 1_555
Li1 O23 1.971786 1_655
Li1 O12 1.988605 1_555
Li1 O1 2.008749 1_555
Li1 O3 2.016634 1_555
Li2 O21 1.971757 1_655
Li2 O13 1.988450 1_555
Li2 O2 2.015497 1_555
Li2 O3 2.016556 1_555
Li3 O22 1.971440 1_655
Li3 O15 1.991582 1_555
Li3 O2 2.011583 1_555
Li3 O0 2.021003 1_555
Li4 O33 1.963388 1_555
Li4 O5 1.993942 1_555
Li4 O11 2.000923 1_555
Li4 O8 2.031074 1_556
Li5 O32 1.965092 1_555
Li5 O6 1.994285 1_555
Li5 O11 2.007847 1_555
Li5 O9 2.029200 1_555
Li6 O34 1.970010 1_555
Li6 O7 1.991416 1_555
Li6 O9 2.012454 1_555
Li6 O10 2.024793 1_555
Li7 O35 1.964864 1_555
Li7 O4 1.992874 1_555
Li7 O10 2.011560 1_555
Li7 O8 2.021502 1_555
Li8 O29 1.967106 1_565
Li8 O19 1.993534 1_555
Li8 O26 2.009695 1_555
Li8 O25 2.012106 1_555
Li9 O30 1.973061 1_565
Li9 O18 1.995210 1_555
Li9 O27 2.008398 1_555
Li9 O26 2.027253 1_555
Li10 O28 1.967341 1_565
Li10 O17 1.997543 1_555
Li10 O24 2.001415 1_555
Li10 O25 2.018720 1_555
Li11 O31 1.969323 1_565
Li11 O16 1.999230 1_555
Li11 O24 2.006995 1_554
Li11 O27 2.027351 1_555
Mn0 O11 2.102204 1_545
Mn0 O22 2.173686 1_555
Mn0 O17 2.180783 1_545
Mn0 O20 2.185456 1_555
Mn0 O19 2.197115 1_545
Mn1 O24 2.103989 1_455
Mn1 O33 2.176769 1_555
Mn1 O35 2.179883 1_556
Mn1 O14 2.185276 1_455
Mn1 O12 2.193918 1_456
Fe0 O8 2.025069 1_545
Fe0 O16 2.144261 1_545
Fe0 O17 2.148198 1_544
Fe0 O23 2.177352 1_555
Fe0 O20 2.181655 1_554
Fe1 O9 2.033388 1_545
Fe1 O19 2.129470 1_545
Fe1 O18 2.156682 1_545
Fe1 O21 2.165812 1_555
Fe1 O22 2.181557 1_555
Fe2 O10 2.022589 1_545
Fe2 O18 2.136007 1_545
Fe2 O16 2.153692 1_545
Fe2 O23 2.169527 1_555
Fe2 O21 2.170252 1_555
Fe3 O26 2.031638 1_455
Fe3 O13 2.136085 1_455
Fe3 O15 2.147353 1_455
Fe3 O34 2.161712 1_555
Fe3 O32 2.167643 1_555
Fe4 O25 2.024203 1_455
Fe4 O15 2.144154 1_455
Fe4 O14 2.150228 1_455
Fe4 O32 2.173669 1_555
Fe4 O33 2.182159 1_555
Fe5 O27 2.041309 1_455
Fe5 O12 2.127639 1_455
Fe5 O13 2.155136 1_455
Fe5 O34 2.166410 1_555
Fe5 O35 2.173269 1_555
Fe6 O2 2.023220 1_555
Fe6 O7 2.143184 1_555
Fe6 O6 2.157374 1_555
Fe6 O29 2.171811 1_555
Fe6 O30 2.175630 1_555
Fe7 O1 2.025453 1_556
Fe7 O5 2.144103 1_555
Fe7 O4 2.158143 1_556
Fe7 O31 2.169448 1_556
Fe7 O28 2.177221 1_555
Fe8 O0 2.028334 1_555
Fe8 O6 2.149925 1_555
Fe8 O5 2.153420 1_555
Fe8 O28 2.173418 1_555
Fe8 O29 2.178660 1_555
Fe9 O3 2.026215 1_555
Fe9 O4 2.144574 1_555
Fe9 O7 2.155507 1_555
Fe9 O31 2.172388 1_555
Fe9 O30 2.173825 1_555
B0 O24 1.386330 1_544
B0 O8 1.393582 1_645
B0 O1 1.395869 1_555
B1 O11 1.384997 1_655
B1 O25 1.394845 1_555
B1 O0 1.396182 1_565
B2 O9 1.388891 1_555
B2 O26 1.391189 1_455
B2 O2 1.393105 1_465
B3 O27 1.389008 1_555
B3 O10 1.391992 1_655
B3 O3 1.392081 1_565
B4 O16 1.388808 1_555
B4 O4 1.390122 1_555
B4 O12 1.390232 1_555
B5 O14 1.385887 1_555
B5 O17 1.389104 1_555
B5 O5 1.391490 1_555
B6 O15 1.386519 1_555
B6 O6 1.391138 1_555
B6 O19 1.391399 1_555
B7 O13 1.388878 1_555
B7 O18 1.390028 1_555
B7 O7 1.391043 1_555
B8 O28 1.391750 1_555
B8 O33 1.392454 1_555
B8 O20 1.394077 1_555
B9 O32 1.390336 1_555
B9 O29 1.393960 1_555
B9 O22 1.395701 1_555
B10 O34 1.393484 1_555
B10 O30 1.393619 1_555
B10 O21 1.394532 1_555
B11 O31 1.392251 1_555
B11 O23 1.392824 1_555
B11 O35 1.394800 1_555
