# generated using pymatgen
data_Li4Sb2H6O3F10
_symmetry_space_group_name_H-M   'P 1'
_cell_length_a   16.67607400
_cell_length_b   5.67524700
_cell_length_c   5.68459708
_cell_angle_alpha   89.96463234
_cell_angle_beta   90.00000000
_cell_angle_gamma   90.00000000
_symmetry_Int_Tables_number   1
_chemical_formula_structural   Li4Sb2H6O3F10
_chemical_formula_sum   'Li8 Sb4 H12 O6 F20'
_cell_volume   537.99493448
_cell_formula_units_Z   2
loop_
 _symmetry_equiv_pos_site_id
 _symmetry_equiv_pos_as_xyz
  1  'x, y, z'
loop_
 _atom_site_type_symbol
 _atom_site_label
 _atom_site_symmetry_multiplicity
 _atom_site_fract_x
 _atom_site_fract_y
 _atom_site_fract_z
 _atom_site_occupancy
  Li  Li0  1  0.00031800  0.75156700  0.24773200  1
  Li  Li1  1  0.49968200  0.75156700  0.24773200  1
  Li  Li2  1  0.38874300  0.74503300  0.74893600  1
  Li  Li3  1  0.11125700  0.74503300  0.74893600  1
  Li  Li4  1  0.61125700  0.25496700  0.25106400  1
  Li  Li5  1  0.88874300  0.25496700  0.25106400  1
  Li  Li6  1  0.99968200  0.24843300  0.75226800  1
  Li  Li7  1  0.50031800  0.24843300  0.75226800  1
  Sb  Sb0  1  0.62889200  0.74074900  0.74031600  1
  Sb  Sb1  1  0.87110800  0.74074900  0.74031600  1
  Sb  Sb2  1  0.37110800  0.25925100  0.25968400  1
  Sb  Sb3  1  0.12889200  0.25925100  0.25968400  1
  H  H0  1  0.79624500  0.86666000  0.22090700  1
  H  H1  1  0.70375500  0.86666000  0.22090700  1
  H  H2  1  0.29636500  0.79115100  0.14494700  1
  H  H3  1  0.20363500  0.79115100  0.14494700  1
  H  H4  1  0.25000000  0.73234000  0.54329600  1
  H  H5  1  0.25000000  0.53411700  0.73839200  1
  H  H6  1  0.75000000  0.46588300  0.26160800  1
  H  H7  1  0.75000000  0.26766000  0.45670400  1
  H  H8  1  0.79636500  0.20884900  0.85505300  1
  H  H9  1  0.70363500  0.20884900  0.85505300  1
  H  H10  1  0.29624500  0.13334000  0.77909300  1
  H  H11  1  0.20375500  0.13334000  0.77909300  1
  O  O0  1  0.75000000  0.77053800  0.26870000  1
  O  O1  1  0.25000000  0.74702100  0.24286000  1
  O  O2  1  0.25000000  0.70864700  0.71577200  1
  O  O3  1  0.75000000  0.29135300  0.28422800  1
  O  O4  1  0.75000000  0.25297900  0.75714000  1
  O  O5  1  0.25000000  0.22946200  0.73130000  1
  F  F0  1  0.86715600  0.01331100  0.00390400  1
  F  F1  1  0.63284400  0.01331100  0.00390400  1
  F  F2  1  0.90160300  0.99370800  0.48506800  1
  F  F3  1  0.59839700  0.99370800  0.48506800  1
  F  F4  1  0.51282100  0.81870700  0.80653100  1
  F  F5  1  0.98717900  0.81870700  0.80653100  1
  F  F6  1  0.92167200  0.49955800  0.50227500  1
  F  F7  1  0.57832800  0.49955800  0.50227500  1
  F  F8  1  0.90660100  0.49252400  0.99752100  1
  F  F9  1  0.59339900  0.49252400  0.99752100  1
  F  F10  1  0.40660100  0.50747600  0.00247900  1
  F  F11  1  0.09339900  0.50747600  0.00247900  1
  F  F12  1  0.42167200  0.50044200  0.49772500  1
  F  F13  1  0.07832800  0.50044200  0.49772500  1
  F  F14  1  0.01282100  0.18129300  0.19346900  1
  F  F15  1  0.48717900  0.18129300  0.19346900  1
  F  F16  1  0.40160300  0.00629200  0.51493200  1
  F  F17  1  0.09839700  0.00629200  0.51493200  1
  F  F18  1  0.36715600  0.98668900  0.99609600  1
  F  F19  1  0.13284400  0.98668900  0.99609600  1
loop_
_geom_bond_atom_site_label_1
_geom_bond_atom_site_label_2
_geom_bond_distance
_geom_bond_site_symmetry_2
Li2 O2 2.330533 1_555
Li3 O2 2.330533 1_555
Li4 O3 2.330533 1_555
Li5 O3 2.330533 1_555
H0 O0 0.982824 1_555
H1 O0 0.982824 1_555
H2 O1 0.984971 1_555
H3 O1 0.984971 1_555
H4 O2 0.989552 1_555
H5 O2 0.998734 1_555
H6 O3 0.998734 1_555
H7 O3 0.989552 1_555
H8 O4 0.984971 1_555
H9 O4 0.984971 1_555
H10 O5 0.982824 1_555
H11 O5 0.982824 1_555
F0 Li5 1.996723 1_555
F0 Sb1 2.155260 1_544
F1 Li4 1.996723 1_555
F1 Sb0 2.155260 1_544
F2 Li5 2.002864 1_565
F2 Sb1 2.102938 1_555
F2 Li0 2.533945 1_655
F3 Li4 2.002864 1_565
F3 Sb0 2.102938 1_555
F3 Li1 2.533945 1_555
F4 Sb0 2.020943 1_555
F4 Li2 2.136235 1_555
F4 Li7 2.466869 1_565
F4 Li1 2.546042 1_556
F5 Sb1 2.020943 1_555
F5 Li3 2.136235 1_655
F5 Li6 2.466869 1_565
F5 Li0 2.546042 1_656
F6 Li5 2.066429 1_555
F6 Sb1 2.101907 1_555
F6 Li6 2.395950 1_555
F6 Li0 2.420070 1_655
F7 Li4 2.066429 1_555
F7 Sb0 2.101907 1_555
F7 Li7 2.395950 1_555
F7 Li1 2.420070 1_555
F8 Li5 1.995302 1_556
F8 Sb1 2.114257 1_555
F8 Li6 2.504890 1_555
F8 Li0 2.574760 1_656
F9 Li4 1.995302 1_556
F9 Sb0 2.114257 1_555
F9 Li7 2.504890 1_555
F9 Li1 2.574760 1_556
F10 Li2 1.995302 1_554
F10 Sb2 2.114257 1_555
F10 Li1 2.504890 1_555
F10 Li7 2.574760 1_554
F11 Li3 1.995302 1_554
F11 Sb3 2.114257 1_555
F11 Li0 2.504890 1_555
F11 Li6 2.574760 1_454
F12 Li2 2.066429 1_555
F12 Sb2 2.101907 1_555
F12 Li1 2.395950 1_555
F12 Li7 2.420070 1_555
F13 Li3 2.066429 1_555
F13 Sb3 2.101907 1_555
F13 Li0 2.395950 1_555
F13 Li6 2.420070 1_455
F14 Sb3 2.020943 1_555
F14 Li5 2.136235 1_455
F14 Li0 2.466869 1_545
F14 Li6 2.546042 1_454
F15 Sb2 2.020943 1_555
F15 Li4 2.136235 1_555
F15 Li1 2.466869 1_545
F15 Li7 2.546042 1_554
F16 Li2 2.002864 1_545
F16 Sb2 2.102938 1_555
F16 Li7 2.533945 1_555
F17 Li3 2.002864 1_545
F17 Sb3 2.102938 1_555
F17 Li6 2.533945 1_455
F18 Li2 1.996723 1_555
F18 Sb2 2.155260 1_566
F19 Li3 1.996723 1_555
F19 Sb3 2.155260 1_566
