# generated using pymatgen
data_Li2Co3NiO8
_symmetry_space_group_name_H-M   'P 1'
_cell_length_a   5.63730413
_cell_length_b   5.63919610
_cell_length_c   9.45501017
_cell_angle_alpha   89.97850059
_cell_angle_beta   90.01075328
_cell_angle_gamma   120.01109914
_symmetry_Int_Tables_number   1
_chemical_formula_structural   Li2Co3NiO8
_chemical_formula_sum   'Li4 Co6 Ni2 O16'
_cell_volume   260.27513536
_cell_formula_units_Z   2
loop_
 _symmetry_equiv_pos_site_id
 _symmetry_equiv_pos_as_xyz
  1  'x, y, z'
loop_
 _atom_site_type_symbol
 _atom_site_label
 _atom_site_symmetry_multiplicity
 _atom_site_fract_x
 _atom_site_fract_y
 _atom_site_fract_z
 _atom_site_occupancy
  Li  Li0  1  0.33328100  0.66663200  0.89332900  1
  Li  Li1  1  0.00003400  0.00007700  0.99801800  1
  Li  Li2  1  0.99996600  0.00004300  0.49801800  1
  Li  Li3  1  0.66671900  0.33335100  0.39332900  1
  Co  Co0  1  0.16849900  0.83155900  0.21431100  1
  Co  Co1  1  0.16850900  0.33696600  0.21432300  1
  Co  Co2  1  0.66309900  0.83155400  0.21430400  1
  Co  Co3  1  0.33690100  0.16845400  0.71430400  1
  Co  Co4  1  0.83150100  0.66306000  0.71431100  1
  Co  Co5  1  0.83149100  0.16845700  0.71432300  1
  Ni  Ni0  1  0.33331700  0.66667600  0.49040800  1
  Ni  Ni1  1  0.66668300  0.33335900  0.99040800  1
  O  O0  1  0.15811600  0.84186100  0.60968400  1
  O  O1  1  0.03609700  0.51803500  0.32635400  1
  O  O2  1  0.33338900  0.66672300  0.10838700  1
  O  O3  1  0.00000900  0.99998100  0.31268800  1
  O  O4  1  0.99999100  0.99997200  0.81268800  1
  O  O5  1  0.15810900  0.31630100  0.60969600  1
  O  O6  1  0.48201800  0.96396300  0.32635600  1
  O  O7  1  0.48200700  0.51803800  0.32636000  1
  O  O8  1  0.31630800  0.15818300  0.10970200  1
  O  O9  1  0.68369300  0.84187600  0.60970200  1
  O  O10  1  0.51798200  0.48194500  0.82635600  1
  O  O11  1  0.51799300  0.03603000  0.82636000  1
  O  O12  1  0.66661100  0.33333400  0.60838700  1
  O  O13  1  0.84188400  0.68374500  0.10968400  1
  O  O14  1  0.96390300  0.48193800  0.82635400  1
  O  O15  1  0.84189100  0.15819200  0.10969600  1
loop_
_geom_bond_atom_site_label_1
_geom_bond_atom_site_label_2
_geom_bond_distance
_geom_bond_site_symmetry_2
Li0 O14 1.911085 1_455
Li0 O11 1.911535 1_565
Li0 O10 1.911890 1_555
Li0 O2 2.033376 1_556
Li1 O4 1.752297 1_445
Li1 O8 1.870477 1_556
Li1 O13 1.870759 1_446
Li1 O15 1.871091 1_456
Li2 O3 1.752297 1_645
Li2 O9 1.870473 1_545
Li2 O0 1.870759 1_645
Li2 O5 1.871091 1_655
Li3 O1 1.911085 1_655
Li3 O7 1.911540 1_555
Li3 O6 1.911890 1_545
Li3 O12 2.033376 1_555
Co0 O6 1.866363 1_555
Co0 O1 1.866568 1_555
Co0 O13 1.878352 1_455
Co0 O8 1.878519 1_565
Co0 O3 1.890193 1_555
Co0 O2 1.896442 1_555
Co1 O7 1.866282 1_555
Co1 O1 1.866913 1_555
Co1 O15 1.878391 1_455
Co1 O8 1.878965 1_555
Co1 O3 1.889921 1_545
Co1 O2 1.896078 1_555
Co2 O7 1.866537 1_555
Co2 O6 1.866948 1_555
Co2 O15 1.878524 1_565
Co2 O13 1.878934 1_555
Co2 O3 1.889474 1_655
Co2 O2 1.895606 1_555
Co3 O11 1.866537 1_555
Co3 O10 1.866952 1_555
Co3 O5 1.878528 1_555
Co3 O0 1.878930 1_545
Co3 O4 1.889474 1_445
Co3 O12 1.895606 1_555
Co4 O10 1.866364 1_555
Co4 O14 1.866568 1_555
Co4 O0 1.878352 1_655
Co4 O9 1.878519 1_555
Co4 O4 1.890193 1_555
Co4 O12 1.896442 1_555
Co5 O11 1.866281 1_555
Co5 O14 1.866913 1_555
Co5 O5 1.878391 1_655
Co5 O9 1.878961 1_545
Co5 O4 1.889921 1_545
Co5 O12 1.896078 1_555
Ni0 O9 2.048793 1_555
Ni0 O5 2.048931 1_555
Ni0 O0 2.049525 1_555
Ni0 O1 2.123927 1_555
Ni0 O6 2.124125 1_555
Ni0 O7 2.124923 1_555
Ni1 O8 2.048789 1_556
Ni1 O15 2.048931 1_556
Ni1 O13 2.049525 1_556
Ni1 O14 2.123927 1_555
Ni1 O10 2.124125 1_555
Ni1 O11 2.124926 1_555
