# generated using pymatgen
data_In2HgO4
_symmetry_space_group_name_H-M   'P 1'
_cell_length_a   6.57642610
_cell_length_b   6.57642610
_cell_length_c   6.57642610
_cell_angle_alpha   60.00000000
_cell_angle_beta   60.00000000
_cell_angle_gamma   60.00000000
_symmetry_Int_Tables_number   1
_chemical_formula_structural   In2HgO4
_chemical_formula_sum   'In4 Hg2 O8'
_cell_volume   201.11980284
_cell_formula_units_Z   2
loop_
 _symmetry_equiv_pos_site_id
 _symmetry_equiv_pos_as_xyz
  1  'x, y, z'
loop_
 _atom_site_type_symbol
 _atom_site_label
 _atom_site_symmetry_multiplicity
 _atom_site_fract_x
 _atom_site_fract_y
 _atom_site_fract_z
 _atom_site_occupancy
  In  In0  1  0.50000000  0.50000000  0.00000000  1
  In  In1  1  0.50000000  -0.00000000  0.50000000  1
  In  In2  1  0.00000000  0.50000000  0.50000000  1
  In  In3  1  0.50000000  0.50000000  0.50000000  1
  Hg  Hg0  1  0.12500000  0.12500000  0.12500000  1
  Hg  Hg1  1  0.87500000  0.87500000  0.87500000  1
  O  O0  1  0.26556001  0.26556001  0.26556001  1
  O  O1  1  0.70331696  0.26556001  0.26556001  1
  O  O2  1  0.73443999  0.73443999  0.29668304  1
  O  O3  1  0.73443999  0.29668304  0.73443999  1
  O  O4  1  0.26556001  0.70331696  0.26556001  1
  O  O5  1  0.26556001  0.26556001  0.70331696  1
  O  O6  1  0.29668304  0.73443999  0.73443999  1
  O  O7  1  0.73443999  0.73443999  0.73443999  1
loop_
_geom_bond_atom_site_label_1
_geom_bond_atom_site_label_2
_geom_bond_distance
_geom_bond_site_symmetry_2
In0 O3 2.189973 1_554
In0 O6 2.189973 1_554
In0 O1 2.189973 1_555
In0 O4 2.189973 1_555
In0 O0 2.189986 1_555
In0 O7 2.189986 1_554
In1 O2 2.189973 1_545
In1 O1 2.189973 1_555
In1 O6 2.189973 1_545
In1 O5 2.189973 1_555
In1 O0 2.189986 1_555
In1 O7 2.189986 1_545
In2 O2 2.189973 1_455
In2 O3 2.189973 1_455
In2 O4 2.189973 1_555
In2 O5 2.189973 1_555
In2 O0 2.189986 1_555
In2 O7 2.189986 1_455
In3 O4 2.189988 1_555
In3 O5 2.189988 1_555
In3 O1 2.189988 1_555
In3 O2 2.189988 1_555
In3 O6 2.189988 1_555
In3 O3 2.189988 1_555
Hg0 O0 2.264265 1_555
Hg0 O1 2.264282 1_455
Hg0 O5 2.264282 1_554
Hg0 O4 2.264282 1_545
Hg1 O7 2.264265 1_555
Hg1 O3 2.264282 1_565
Hg1 O2 2.264282 1_556
Hg1 O6 2.264282 1_655
