# generated using pymatgen
data_Li9Mn3(WO4)7
_symmetry_space_group_name_H-M   'P 1'
_cell_length_a   8.59095056
_cell_length_b   8.59095056
_cell_length_c   8.59095050
_cell_angle_alpha   89.95853206
_cell_angle_beta   89.95853206
_cell_angle_gamma   89.95853763
_symmetry_Int_Tables_number   1
_chemical_formula_structural   Li9Mn3(WO4)7
_chemical_formula_sum   'Li9 Mn3 W7 O28'
_cell_volume   634.04971973
_cell_formula_units_Z   1
loop_
 _symmetry_equiv_pos_site_id
 _symmetry_equiv_pos_as_xyz
  1  'x, y, z'
loop_
 _atom_site_type_symbol
 _atom_site_label
 _atom_site_symmetry_multiplicity
 _atom_site_fract_x
 _atom_site_fract_y
 _atom_site_fract_z
 _atom_site_occupancy
  Li  Li0  1  0.90387800  0.35977200  0.64362100  1
  Li  Li1  1  0.90387800  0.64362100  0.35977200  1
  Li  Li2  1  0.64362100  0.35977200  0.90387800  1
  Li  Li3  1  0.64362100  0.90387800  0.35977200  1
  Li  Li4  1  0.35407400  0.09314500  0.35407400  1
  Li  Li5  1  0.35407400  0.35407400  0.09314500  1
  Li  Li6  1  0.35977200  0.64362100  0.90387800  1
  Li  Li7  1  0.35977200  0.90387800  0.64362100  1
  Li  Li8  1  0.09314500  0.35407400  0.35407400  1
  Mn  Mn0  1  0.64045600  0.09463700  0.64045600  1
  Mn  Mn1  1  0.64045600  0.64045600  0.09463700  1
  Mn  Mn2  1  0.09463700  0.64045600  0.64045600  1
  W  W0  1  0.64114300  0.35852100  0.35852100  1
  W  W1  1  0.64196100  0.64196100  0.64196100  1
  W  W2  1  0.35852100  0.35852100  0.64114300  1
  W  W3  1  0.35852100  0.64114300  0.35852100  1
  W  W4  1  0.00328900  0.00328900  0.49656800  1
  W  W5  1  0.00328900  0.49656800  0.00328900  1
  W  W6  1  0.49656800  0.00328900  0.00328900  1
  O  O0  1  0.84980900  0.38235200  0.38235200  1
  O  O1  1  0.85843300  0.61202600  0.61202600  1
  O  O2  1  0.88117700  0.12764000  0.61947600  1
  O  O3  1  0.88117700  0.61947600  0.12764000  1
  O  O4  1  0.87988200  0.37967100  0.87988200  1
  O  O5  1  0.87988200  0.87988200  0.37967100  1
  O  O6  1  0.61947600  0.12764000  0.88117700  1
  O  O7  1  0.61947600  0.88117700  0.12764000  1
  O  O8  1  0.60822300  0.38561500  0.60822300  1
  O  O9  1  0.60822300  0.60822300  0.38561500  1
  O  O10  1  0.61534500  0.14675600  0.38523100  1
  O  O11  1  0.61534500  0.38523100  0.14675600  1
  O  O12  1  0.61202600  0.61202600  0.85843300  1
  O  O13  1  0.61202600  0.85843300  0.61202600  1
  O  O14  1  0.38523100  0.14675600  0.61534500  1
  O  O15  1  0.38523100  0.61534500  0.14675600  1
  O  O16  1  0.38235200  0.38235200  0.84980900  1
  O  O17  1  0.38235200  0.84980900  0.38235200  1
  O  O18  1  0.39245900  0.39245900  0.39245900  1
  O  O19  1  0.38561500  0.60822300  0.60822300  1
  O  O20  1  0.37533900  0.12389200  0.12389200  1
  O  O21  1  0.37967100  0.87988200  0.87988200  1
  O  O22  1  0.12389200  0.12389200  0.37533900  1
  O  O23  1  0.12389200  0.37533900  0.12389200  1
  O  O24  1  0.12764000  0.61947600  0.88117700  1
  O  O25  1  0.12764000  0.88117700  0.61947600  1
  O  O26  1  0.14675600  0.38523100  0.61534500  1
  O  O27  1  0.14675600  0.61534500  0.38523100  1
loop_
_geom_bond_atom_site_label_1
_geom_bond_atom_site_label_2
_geom_bond_distance
_geom_bond_site_symmetry_2
Li0 O2 2.014759 1_555
Li0 O4 2.047261 1_555
Li0 O26 2.111966 1_655
Li0 O1 2.218221 1_555
Li0 O0 2.300466 1_555
Li0 O8 2.567753 1_555
Li1 O3 2.014759 1_555
Li1 O5 2.047261 1_555
Li1 O27 2.111966 1_655
Li1 O1 2.218221 1_555
Li1 O0 2.300466 1_555
Li1 O9 2.567753 1_555
Li2 O6 2.014759 1_555
Li2 O4 2.047261 1_555
Li2 O11 2.111966 1_556
Li2 O12 2.218221 1_555
Li2 O16 2.300466 1_555
Li2 O8 2.567753 1_555
Li3 O7 2.014759 1_555
Li3 O5 2.047261 1_555
Li3 O10 2.111966 1_565
Li3 O13 2.218221 1_555
Li3 O17 2.300466 1_555
Li3 O9 2.567753 1_555
Li4 O20 2.003091 1_555
Li4 O22 2.003091 1_555
Li4 O17 2.118204 1_545
Li4 O10 2.307465 1_555
Li4 O14 2.307465 1_555
Li4 O18 2.613839 1_555
Li5 O23 2.003091 1_555
Li5 O20 2.003091 1_555
Li5 O16 2.118204 1_554
Li5 O11 2.307465 1_555
Li5 O15 2.307465 1_555
Li5 O18 2.613839 1_555
Li6 O24 2.014759 1_555
Li6 O21 2.047261 1_555
Li6 O15 2.111966 1_556
Li6 O12 2.218221 1_555
Li6 O16 2.300466 1_555
Li6 O19 2.567753 1_555
Li7 O25 2.014759 1_555
Li7 O21 2.047261 1_555
Li7 O14 2.111966 1_565
Li7 O13 2.218221 1_555
Li7 O17 2.300466 1_555
Li7 O19 2.567753 1_555
Li8 O23 2.003091 1_555
Li8 O22 2.003091 1_555
Li8 O0 2.118204 1_455
Li8 O27 2.307465 1_555
Li8 O26 2.307465 1_555
Li8 O18 2.613839 1_555
Mn0 O13 2.058774 1_545
Mn0 O2 2.095191 1_555
Mn0 O6 2.095191 1_555
Mn0 O10 2.248055 1_555
Mn0 O14 2.248055 1_555
Mn0 O8 2.529892 1_555
Mn1 O12 2.058774 1_554
Mn1 O3 2.095191 1_555
Mn1 O7 2.095191 1_555
Mn1 O11 2.248055 1_555
Mn1 O15 2.248055 1_555
Mn1 O9 2.529892 1_555
Mn2 O1 2.058774 1_455
Mn2 O25 2.095191 1_555
Mn2 O24 2.095191 1_555
Mn2 O27 2.248055 1_555
Mn2 O26 2.248055 1_555
Mn2 O19 2.529892 1_555
O0 W0 1.816180 1_555
O1 W1 1.894589 1_555
O2 W4 1.831693 1_655
O3 W5 1.831693 1_655
O4 W5 1.805884 1_656
O5 W4 1.805884 1_665
O6 W6 1.831693 1_556
O7 W6 1.831693 1_565
O8 W2 2.176166 1_555
O8 W0 2.176166 1_555
O8 W1 2.240517 1_555
O9 W0 2.176166 1_555
O9 W3 2.176166 1_555
O9 W1 2.240517 1_555
O10 W0 1.846996 1_555
O11 W0 1.846996 1_555
O12 W1 1.894589 1_555
O13 W1 1.894589 1_555
O14 W2 1.846996 1_555
O15 W3 1.846996 1_555
O16 W2 1.816180 1_555
O17 W3 1.816180 1_555
O18 W2 2.175471 1_555
O18 W0 2.175471 1_555
O18 W3 2.175471 1_555
O19 W2 2.176166 1_555
O19 W3 2.176166 1_555
O19 W1 2.240517 1_555
O20 W6 1.797242 1_555
O21 W6 1.805884 1_566
O22 W4 1.797242 1_555
O23 W5 1.797242 1_555
O24 W5 1.831693 1_556
O25 W4 1.831693 1_565
O26 W2 1.846996 1_555
O27 W3 1.846996 1_555
