# generated using pymatgen
data_Co2OF3
_symmetry_space_group_name_H-M   'P 1'
_cell_length_a   4.70590322
_cell_length_b   4.70590322
_cell_length_c   15.75133100
_cell_angle_alpha   90.00000000
_cell_angle_beta   90.00000000
_cell_angle_gamma   93.55156873
_symmetry_Int_Tables_number   1
_chemical_formula_structural   Co2OF3
_chemical_formula_sum   'Co10 O5 F15'
_cell_volume   348.15156662
_cell_formula_units_Z   5
loop_
 _symmetry_equiv_pos_site_id
 _symmetry_equiv_pos_as_xyz
  1  'x, y, z'
loop_
 _atom_site_type_symbol
 _atom_site_label
 _atom_site_symmetry_multiplicity
 _atom_site_fract_x
 _atom_site_fract_y
 _atom_site_fract_z
 _atom_site_occupancy
  Co  Co0  1  0.96338200  0.96338200  0.80079700  1
  Co  Co1  1  0.03598800  0.03598800  0.00000000  1
  Co  Co2  1  0.96338200  0.96338200  0.19920300  1
  Co  Co3  1  0.02808300  0.02808300  0.39914600  1
  Co  Co4  1  0.02808300  0.02808300  0.60085400  1
  Co  Co5  1  0.50080300  0.50080300  0.90021000  1
  Co  Co6  1  0.49475300  0.49475300  0.29941000  1
  Co  Co7  1  0.50080300  0.50080300  0.09979000  1
  Co  Co8  1  0.49475300  0.49475300  0.70059000  1
  Co  Co9  1  0.49038300  0.49038300  0.50000000  1
  O  O0  1  0.31130000  0.31130000  0.00000000  1
  O  O1  1  0.30384700  0.30384700  0.39891000  1
  O  O2  1  0.30384700  0.30384700  0.60109000  1
  O  O3  1  0.68792900  0.68792900  0.79960500  1
  O  O4  1  0.68792900  0.68792900  0.20039500  1
  F  F0  1  0.80628000  0.19431500  0.90020500  1
  F  F1  1  0.80128600  0.18902100  0.29960200  1
  F  F2  1  0.80628000  0.19431500  0.09979500  1
  F  F3  1  0.81288900  0.20254500  0.50000000  1
  F  F4  1  0.80128600  0.18902100  0.70039800  1
  F  F5  1  0.27756400  0.27756400  0.80066000  1
  F  F6  1  0.27756400  0.27756400  0.19934000  1
  F  F7  1  0.72164300  0.72164300  0.00000000  1
  F  F8  1  0.71536100  0.71536100  0.40114900  1
  F  F9  1  0.71536100  0.71536100  0.59885100  1
  F  F10  1  0.19431500  0.80628000  0.90020500  1
  F  F11  1  0.18902100  0.80128600  0.29960200  1
  F  F12  1  0.19431500  0.80628000  0.09979500  1
  F  F13  1  0.18902100  0.80128600  0.70039800  1
  F  F14  1  0.20254500  0.81288900  0.50000000  1
loop_
_geom_bond_atom_site_label_1
_geom_bond_atom_site_label_2
_geom_bond_distance
_geom_bond_site_symmetry_2
Co0 O3 1.775593 1_555
Co0 F5 2.025132 1_665
Co0 F0 2.068549 1_565
Co0 F10 2.068549 1_655
Co0 F13 2.076199 1_655
Co0 F4 2.076199 1_565
Co1 O0 1.774585 1_555
Co1 F7 2.026181 1_445
Co1 F2 2.072275 1_455
Co1 F12 2.072275 1_545
Co1 F0 2.072275 1_454
Co1 F10 2.072275 1_544
Co2 O4 1.775593 1_555
Co2 F6 2.025132 1_665
Co2 F2 2.068549 1_565
Co2 F12 2.068549 1_655
Co2 F11 2.076199 1_655
Co2 F1 2.076199 1_565
Co3 O1 1.777503 1_555
Co3 F8 2.015967 1_445
Co3 F1 2.066713 1_455
Co3 F11 2.066713 1_545
Co3 F3 2.079946 1_455
Co3 F14 2.079946 1_545
Co4 O2 1.777503 1_555
Co4 F9 2.015967 1_445
Co4 F4 2.066713 1_455
Co4 F13 2.066713 1_545
Co4 F3 2.079946 1_455
Co4 F14 2.079946 1_545
Co5 O0 1.990643 1_556
Co5 O3 1.991478 1_555
Co5 F10 2.098488 1_555
Co5 F0 2.098488 1_555
Co5 F7 2.120592 1_556
Co5 F5 2.128216 1_555
Co6 O1 1.992610 1_555
Co6 O4 1.995703 1_555
Co6 F1 2.099518 1_555
Co6 F11 2.099518 1_555
Co6 F6 2.108163 1_555
Co6 F8 2.142454 1_555
Co7 O0 1.990643 1_555
Co7 O4 1.991478 1_555
Co7 F12 2.098488 1_555
Co7 F2 2.098488 1_555
Co7 F7 2.120592 1_555
Co7 F6 2.128216 1_555
Co8 O2 1.992610 1_555
Co8 O3 1.995703 1_555
Co8 F4 2.099518 1_555
Co8 F13 2.099518 1_555
Co8 F5 2.108163 1_555
Co8 F9 2.142454 1_555
Co9 O1 1.995268 1_555
Co9 O2 1.995268 1_555
Co9 F14 2.095907 1_555
Co9 F3 2.095907 1_555
Co9 F9 2.127741 1_555
Co9 F8 2.127741 1_555
