# generated using pymatgen
data_LiCr(PO3)5
_symmetry_space_group_name_H-M   'P 1'
_cell_length_a   9.69934100
_cell_length_b   5.26269000
_cell_length_c   13.12706683
_cell_angle_alpha   70.71150339
_cell_angle_beta   90.00000000
_cell_angle_gamma   90.00000000
_symmetry_Int_Tables_number   1
_chemical_formula_structural   LiCr(PO3)5
_chemical_formula_sum   'Li2 Cr2 P10 O30'
_cell_volume   632.45357068
_cell_formula_units_Z   2
loop_
 _symmetry_equiv_pos_site_id
 _symmetry_equiv_pos_as_xyz
  1  'x, y, z'
loop_
 _atom_site_type_symbol
 _atom_site_label
 _atom_site_symmetry_multiplicity
 _atom_site_fract_x
 _atom_site_fract_y
 _atom_site_fract_z
 _atom_site_occupancy
  Li  Li0  1  0.60754600  0.05070800  0.56732200  1
  Li  Li1  1  0.39245400  0.05070800  0.06732200  1
  Cr  Cr0  1  0.00346300  0.01127100  0.49561300  1
  Cr  Cr1  1  0.99653700  0.01127100  0.99561300  1
  P  P0  1  0.82407100  0.59551600  0.41157400  1
  P  P1  1  0.17797700  0.42839100  0.58074300  1
  P  P2  1  0.52782800  0.46675200  0.14348000  1
  P  P3  1  0.82202300  0.42839100  0.08074300  1
  P  P4  1  0.47217200  0.46675200  0.64348000  1
  P  P5  1  0.98320400  0.01156600  0.24576700  1
  P  P6  1  0.53038900  0.52511400  0.35990100  1
  P  P7  1  0.46961100  0.52511400  0.85990100  1
  P  P8  1  0.17592900  0.59551600  0.91157400  1
  P  P9  1  0.01679600  0.01156600  0.74576700  1
  O  O0  1  0.59342200  0.48906100  0.25274800  1
  O  O1  1  0.94079300  0.97264000  0.65149900  1
  O  O2  1  0.88112900  0.75517100  0.29220500  1
  O  O3  1  0.86930200  0.29956700  0.99974200  1
  O  O4  1  0.84773300  0.72484000  0.05674300  1
  O  O5  1  0.93973900  0.04800300  0.83970600  1
  O  O6  1  0.06026100  0.04800300  0.33970600  1
  O  O7  1  0.84814800  0.29628200  0.43812500  1
  O  O8  1  0.41084800  0.71569900  0.33979000  1
  O  O9  1  0.11842100  0.26620700  0.70008000  1
  O  O10  1  0.58247200  0.25594300  0.66251500  1
  O  O11  1  0.33701900  0.35856500  0.59946300  1
  O  O12  1  0.05920700  0.97264000  0.15149900  1
  O  O13  1  0.51032600  0.74304600  0.57278100  1
  O  O14  1  0.66389700  0.66005200  0.39605600  1
  O  O15  1  0.33610300  0.66005200  0.89605600  1
  O  O16  1  0.15185200  0.29628200  0.93812500  1
  O  O17  1  0.88157900  0.26620700  0.20008000  1
  O  O18  1  0.15226700  0.72484000  0.55674300  1
  O  O19  1  0.11887100  0.75517100  0.79220500  1
  O  O20  1  0.49487300  0.25035400  0.93894800  1
  O  O21  1  0.66298100  0.35856500  0.09946300  1
  O  O22  1  0.87168600  0.72498600  0.49249100  1
  O  O23  1  0.13069800  0.29956700  0.49974200  1
  O  O24  1  0.48967400  0.74304600  0.07278100  1
  O  O25  1  0.40657800  0.48906100  0.75274800  1
  O  O26  1  0.41752800  0.25594300  0.16251500  1
  O  O27  1  0.50512700  0.25035400  0.43894800  1
  O  O28  1  0.58915200  0.71569900  0.83979000  1
  O  O29  1  0.12831400  0.72498600  0.99249100  1
loop_
_geom_bond_atom_site_label_1
_geom_bond_atom_site_label_2
_geom_bond_distance
_geom_bond_site_symmetry_2
Li0 O13 1.854523 1_545
Li0 O10 1.918051 1_555
Li0 O27 1.939289 1_555
Li1 O24 1.854523 1_545
Li1 O26 1.918051 1_555
Li1 O20 1.939289 1_554
Cr0 O23 1.970328 1_555
Cr0 O22 1.986472 1_445
Cr0 O18 2.049431 1_545
Cr0 O6 2.065931 1_555
Cr0 O1 2.079285 1_445
Cr0 O7 2.083475 1_455
Cr1 O3 1.970328 1_555
Cr1 O29 1.986472 1_645
Cr1 O4 2.049431 1_546
Cr1 O5 2.065931 1_555
Cr1 O12 2.079285 1_646
Cr1 O16 2.083475 1_655
O0 P6 1.601448 1_555
O0 P2 1.608486 1_555
O1 P9 1.511353 1_665
O2 P0 1.611774 1_555
O2 P5 1.621449 1_565
O3 P3 1.508903 1_556
O4 P3 1.506882 1_555
O5 P9 1.507396 1_655
O6 P5 1.507396 1_455
O7 P0 1.514373 1_555
O8 P6 1.498372 1_555
O9 P9 1.611264 1_555
O9 P1 1.622623 1_555
O10 P4 1.501554 1_555
O11 P1 1.585998 1_555
O11 P4 1.610534 1_555
O12 P5 1.511353 1_465
O13 P4 1.490304 1_555
O14 P0 1.588948 1_555
O14 P6 1.621444 1_555
O15 P8 1.588948 1_555
O15 P7 1.621444 1_555
O16 P8 1.514373 1_555
O17 P5 1.611264 1_555
O17 P3 1.622623 1_555
O18 P1 1.506882 1_555
O19 P8 1.611774 1_555
O19 P9 1.621449 1_565
O20 P7 1.495446 1_555
O21 P3 1.585998 1_555
O21 P2 1.610534 1_555
O22 P0 1.511277 1_555
O23 P1 1.508903 1_555
O24 P2 1.490304 1_555
O25 P7 1.601448 1_555
O25 P4 1.608486 1_555
O26 P2 1.501554 1_555
O27 P6 1.495446 1_555
O28 P7 1.498372 1_555
O29 P8 1.511277 1_555
