# generated using pymatgen
data_Li2VO3F
_symmetry_space_group_name_H-M   'P 1'
_cell_length_a   7.22921076
_cell_length_b   7.14606255
_cell_length_c   7.14970392
_cell_angle_alpha   109.33441184
_cell_angle_beta   108.79008361
_cell_angle_gamma   110.49551489
_symmetry_Int_Tables_number   1
_chemical_formula_structural   Li2VO3F
_chemical_formula_sum   'Li8 V4 O12 F4'
_cell_volume   283.55513833
_cell_formula_units_Z   4
loop_
 _symmetry_equiv_pos_site_id
 _symmetry_equiv_pos_as_xyz
  1  'x, y, z'
loop_
 _atom_site_type_symbol
 _atom_site_label
 _atom_site_symmetry_multiplicity
 _atom_site_fract_x
 _atom_site_fract_y
 _atom_site_fract_z
 _atom_site_occupancy
  Li  Li0  1  0.25513700  0.74726600  0.75533100  1
  Li  Li1  1  0.48252700  0.48041400  0.75094200  1
  Li  Li2  1  0.47688400  0.76228100  0.47350200  1
  Li  Li3  1  0.73120700  0.73727600  0.24566200  1
  Li  Li4  1  0.71019000  0.23489800  0.70273200  1
  Li  Li5  1  0.51060100  0.24470900  0.00433800  1
  Li  Li6  1  0.00869600  0.54045100  0.27392800  1
  Li  Li7  1  0.99052400  0.25520900  0.50305000  1
  V  V0  1  0.01948400  0.02696000  0.74699900  1
  V  V1  1  0.27442700  0.27944100  0.26735700  1
  V  V2  1  0.75507100  0.02707100  0.01863700  1
  V  V3  1  0.97094300  0.70973100  0.96440800  1
  O  O0  1  0.99991400  0.52362300  0.77036200  1
  O  O1  1  0.23748500  0.23348600  0.76176100  1
  O  O2  1  0.24592600  0.47207200  0.46982800  1
  O  O3  1  0.54085200  0.98894100  0.77864300  1
  O  O4  1  0.21919700  0.00050700  0.99912700  1
  O  O5  1  0.47400700  0.46675900  0.24414000  1
  O  O6  1  0.78086100  0.76602500  0.77890200  1
  O  O7  1  0.78456700  0.99421000  0.53751300  1
  O  O8  1  0.00853600  0.22675200  0.00331000  1
  O  O9  1  0.76428100  0.51671600  0.99590900  1
  O  O10  1  0.77000500  0.24076100  0.22950600  1
  O  O11  1  0.98420600  0.99720600  0.21599900  1
  F  F0  1  0.01013900  0.76543500  0.52942600  1
  F  F1  1  0.21634800  0.75498000  0.23783400  1
  F  F2  1  0.46798800  0.24543300  0.49040400  1
  F  F3  1  0.52461900  0.75402400  0.99242000  1
loop_
_geom_bond_atom_site_label_1
_geom_bond_atom_site_label_2
_geom_bond_distance
_geom_bond_site_symmetry_2
Li0 O0 2.036297 1_455
Li0 O3 2.089572 1_555
Li0 O4 2.216531 1_565
Li0 O2 2.280607 1_555
Li1 O1 2.060936 1_555
Li1 O9 2.077164 1_555
Li1 O2 2.145556 1_555
Li1 O6 2.286192 1_555
Li2 O3 2.020571 1_555
Li2 O7 2.040661 1_555
Li2 O2 2.144806 1_555
Li2 O5 2.191693 1_555
Li2 O6 2.535073 1_555
Li3 O7 2.079096 1_555
Li3 O9 2.098875 1_554
Li3 O5 2.156460 1_555
Li3 O11 2.229819 1_555
Li4 O7 2.086680 1_545
Li4 O3 2.106033 1_545
Li4 O0 2.130362 1_555
Li4 O9 2.174325 1_555
Li4 O8 2.541341 1_656
Li5 O10 2.057061 1_555
Li5 O5 2.076563 1_555
Li5 O1 2.122208 1_554
Li5 O3 2.132279 1_544
Li5 O9 2.190350 1_554
Li5 O4 2.194674 1_554
Li6 O10 2.067272 1_455
Li6 O9 2.099112 1_454
Li6 O2 2.152744 1_555
Li6 O8 2.427671 1_555
Li7 O10 2.029673 1_555
Li7 O7 2.086198 1_545
Li7 O2 2.095146 1_655
Li7 O0 2.175834 1_555
Li7 O1 2.211279 1_655
Li7 O11 2.233492 1_545
O0 V3 1.702313 1_555
O1 V0 1.683423 1_555
O2 V1 1.761868 1_555
O3 V2 1.760644 1_566
O4 V0 2.027281 1_555
O4 V1 2.056359 1_556
O4 V3 2.088116 1_445
O5 V1 1.688203 1_555
O6 V3 1.837257 1_555
O6 V2 2.187412 1_566
O6 V0 2.188013 1_665
O7 V0 1.741593 1_665
O8 V2 1.951308 1_455
O8 V0 1.960356 1_554
O8 V1 2.021233 1_555
O9 V3 1.778952 1_555
O10 V2 1.694627 1_555
O11 V2 1.929190 1_565
O11 V1 2.157452 1_665
O11 V3 2.183840 1_554
F0 V0 1.958558 1_565
F0 Li6 1.988261 1_555
F0 Li0 2.054158 1_555
F0 Li3 2.243390 1_455
F1 Li6 1.889511 1_555
F1 V3 2.004776 1_454
F1 Li2 2.053731 1_555
F2 V1 1.901958 1_555
F2 Li4 1.957460 1_555
F2 Li1 1.994921 1_555
F3 V2 1.974376 1_566
F3 Li1 1.976357 1_555
F3 Li3 2.012396 1_556
F3 Li0 2.103223 1_555
