# generated using pymatgen
data_LiMnV(P2O7)2
_symmetry_space_group_name_H-M   'P 1'
_cell_length_a   4.85724078
_cell_length_b   8.14903667
_cell_length_c   13.37884535
_cell_angle_alpha   91.43471332
_cell_angle_beta   87.97883140
_cell_angle_gamma   88.60074663
_symmetry_Int_Tables_number   1
_chemical_formula_structural   LiMnV(P2O7)2
_chemical_formula_sum   'Li2 Mn2 V2 P8 O28'
_cell_volume   528.89415884
_cell_formula_units_Z   2
loop_
 _symmetry_equiv_pos_site_id
 _symmetry_equiv_pos_as_xyz
  1  'x, y, z'
loop_
 _atom_site_type_symbol
 _atom_site_label
 _atom_site_symmetry_multiplicity
 _atom_site_fract_x
 _atom_site_fract_y
 _atom_site_fract_z
 _atom_site_occupancy
  Li  Li0  1  0.82429300  0.86688700  0.33740800  1
  Li  Li1  1  0.32415100  0.86691100  0.83749400  1
  Mn  Mn0  1  0.15123600  0.00650700  0.63343100  1
  Mn  Mn1  1  0.65140200  0.00645600  0.13336800  1
  V  V0  1  0.34440700  0.49460300  0.86007600  1
  V  V1  1  0.84453200  0.49451200  0.35998500  1
  P  P0  1  0.14357300  0.17767700  0.25919900  1
  P  P1  1  0.64339000  0.17772700  0.75928400  1
  P  P2  1  0.17855300  0.78031800  0.04712200  1
  P  P3  1  0.67835000  0.78019200  0.54716800  1
  P  P4  1  0.32891500  0.28530300  0.45537900  1
  P  P5  1  0.82902900  0.28547100  0.95544100  1
  P  P6  1  0.35785600  0.68009700  0.24323600  1
  P  P7  1  0.85774800  0.68002000  0.74328700  1
  O  O0  1  0.62319700  0.33537200  0.42183900  1
  O  O1  1  0.12344200  0.33555500  0.92199100  1
  O  O2  1  0.69637900  0.68564800  0.44606400  1
  O  O3  1  0.19613600  0.68569100  0.94604600  1
  O  O4  1  0.93540900  0.04208000  0.24262800  1
  O  O5  1  0.43522700  0.04207900  0.74272800  1
  O  O6  1  0.00794000  0.35038900  0.25795100  1
  O  O7  1  0.50782900  0.35046300  0.75809000  1
  O  O8  1  0.07846800  0.67418100  0.30283600  1
  O  O9  1  0.57833200  0.67419800  0.80288300  1
  O  O10  1  0.13405700  0.43747200  0.44974700  1
  O  O11  1  0.63422400  0.43762900  0.94981500  1
  O  O12  1  0.23628900  0.14968700  0.37262000  1
  O  O13  1  0.73671700  0.14980300  0.87264100  1
  O  O14  1  0.28808500  0.65112600  0.12696600  1
  O  O15  1  0.78799100  0.65101500  0.62701000  1
  O  O16  1  0.36411400  0.92922800  0.04186000  1
  O  O17  1  0.86384000  0.92910200  0.54192700  1
  O  O18  1  0.39914300  0.17222500  0.19011600  1
  O  O19  1  0.89891700  0.17232800  0.69019200  1
  O  O20  1  0.49106600  0.84583700  0.25461700  1
  O  O21  1  0.99098300  0.84574500  0.75468700  1
  O  O22  1  0.55092300  0.53645900  0.26714600  1
  O  O23  1  0.05067700  0.53639600  0.76723400  1
  O  O24  1  0.82733400  0.19800100  0.05201100  1
  O  O25  1  0.32724700  0.19788100  0.55197900  1
  O  O26  1  0.87854400  0.82655500  0.07535200  1
  O  O27  1  0.37839700  0.82655300  0.57546700  1
loop_
_geom_bond_atom_site_label_1
_geom_bond_atom_site_label_2
_geom_bond_distance
_geom_bond_site_symmetry_2
Li0 O20 2.001640 1_555
Li0 O4 2.004356 1_565
Li0 O8 2.008200 1_655
Li0 O2 2.183842 1_555
Li1 O21 2.001613 1_455
Li1 O5 2.004035 1_565
Li1 O9 2.008359 1_555
Li1 O3 2.182934 1_555
Mn0 O19 1.925295 1_455
Mn0 O27 1.942416 1_545
Mn0 O17 1.992523 1_445
Mn0 O5 2.065337 1_555
Mn0 O25 2.105945 1_555
Mn0 O21 2.240766 1_445
Mn1 O18 1.924770 1_555
Mn1 O26 1.942302 1_545
Mn1 O16 1.991715 1_545
Mn1 O4 2.065090 1_555
Mn1 O24 2.106191 1_555
Mn1 O20 2.240121 1_545
O0 P4 1.550296 1_555
O0 V1 1.892477 1_555
O1 P5 1.550600 1_455
O1 V0 1.891277 1_555
O2 P3 1.538535 1_555
O2 V1 2.016713 1_555
O3 P2 1.538506 1_556
O3 V0 2.015816 1_555
O4 P0 1.533160 1_655
O5 P1 1.533432 1_555
O6 P0 1.540080 1_555
O6 V1 1.915880 1_455
O7 P1 1.540079 1_555
O7 V0 1.915548 1_555
O8 P6 1.551943 1_555
O8 V1 2.023718 1_455
O9 P7 1.551984 1_555
O9 V0 2.023459 1_555
O10 P4 1.546465 1_555
O10 V1 1.936766 1_455
O11 P5 1.546234 1_555
O11 V0 1.937490 1_555
O12 P0 1.618019 1_555
O12 P4 1.627216 1_555
O13 P1 1.618036 1_555
O13 P5 1.627386 1_555
O14 P2 1.612935 1_555
O14 P6 1.616493 1_555
O15 P3 1.613015 1_555
O15 P7 1.616602 1_555
O16 P2 1.530705 1_555
O17 P3 1.530483 1_555
O18 P0 1.520369 1_555
O19 P1 1.520275 1_555
O20 P6 1.518336 1_555
O21 P7 1.518305 1_555
O22 P6 1.529099 1_555
O22 V1 1.953420 1_555
O23 P7 1.528734 1_455
O23 V0 1.953670 1_555
O24 P5 1.490990 1_554
O25 P4 1.491148 1_555
O26 P2 1.528179 1_655
O27 P3 1.528335 1_555
