# generated using pymatgen
data_Al3P2H14(O5F)3
_symmetry_space_group_name_H-M   'P 1'
_cell_length_a   9.37195400
_cell_length_b   10.16570786
_cell_length_c   7.13976112
_cell_angle_alpha   97.62566830
_cell_angle_beta   100.06827272
_cell_angle_gamma   95.73271977
_symmetry_Int_Tables_number   1
_chemical_formula_structural   Al3P2H14(O5F)3
_chemical_formula_sum   'Al6 P4 H28 O30 F6'
_cell_volume   658.52347919
_cell_formula_units_Z   2
loop_
 _symmetry_equiv_pos_site_id
 _symmetry_equiv_pos_as_xyz
  1  'x, y, z'
loop_
 _atom_site_type_symbol
 _atom_site_label
 _atom_site_symmetry_multiplicity
 _atom_site_fract_x
 _atom_site_fract_y
 _atom_site_fract_z
 _atom_site_occupancy
  Al  Al0  1  0.15178500  0.38281300  0.31772800  1
  Al  Al1  1  0.84821500  0.61718700  0.68227200  1
  Al  Al2  1  0.29344500  0.82397500  0.55419500  1
  Al  Al3  1  0.70655500  0.17602500  0.44580500  1
  Al  Al4  1  0.37597600  0.29311200  0.77086300  1
  Al  Al5  1  0.62402400  0.70688800  0.22913700  1
  P  P0  1  0.12886700  0.47119000  0.66550000  1
  P  P1  1  0.87113300  0.52881000  0.33450000  1
  P  P2  1  0.39835500  0.19391200  0.42956200  1
  P  P3  1  0.60164500  0.80608800  0.57043800  1
  H  H0  1  0.93531200  0.13893800  0.25265700  1
  H  H1  1  0.06468800  0.86106200  0.74734300  1
  H  H2  1  0.04146200  0.00841100  0.18377400  1
  H  H3  1  0.95853800  0.99158900  0.81622600  1
  H  H4  1  0.09172200  0.34269300  0.04060000  1
  H  H5  1  0.90827800  0.65730700  0.95940000  1
  H  H6  1  0.24765800  0.34188900  0.06507100  1
  H  H7  1  0.75234200  0.65811100  0.93492900  1
  H  H8  1  0.03131400  0.80573100  0.48785700  1
  H  H9  1  0.96868600  0.19426900  0.51214300  1
  H  H10  1  0.10854500  0.96922300  0.41515500  1
  H  H11  1  0.89145500  0.03077700  0.58484500  1
  H  H12  1  0.52220100  0.61451300  0.91034200  1
  H  H13  1  0.47779900  0.38548700  0.08965800  1
  H  H14  1  0.45704300  0.63379200  0.75017700  1
  H  H15  1  0.54295700  0.36620800  0.24982300  1
  H  H16  1  0.59658900  0.19806700  0.89936400  1
  H  H17  1  0.40341100  0.80193300  0.10063600  1
  H  H18  1  0.59436600  0.16181000  0.72485300  1
  H  H19  1  0.40563400  0.83819000  0.27514700  1
  H  H20  1  0.05410300  0.69449300  0.16137800  1
  H  H21  1  0.94589700  0.30550700  0.83862200  1
  H  H22  1  0.14069600  0.79879100  0.05551300  1
  H  H23  1  0.85930400  0.20120900  0.94448700  1
  H  H24  1  0.28081300  0.79521200  0.87636200  1
  H  H25  1  0.71918700  0.20478800  0.12363800  1
  H  H26  1  0.31206500  0.00391900  0.97006300  1
  H  H27  1  0.68793500  0.99608100  0.02993700  1
  O  O0  1  0.10171900  0.35992500  0.50442900  1
  O  O1  1  0.89828100  0.64007500  0.49557100  1
  O  O2  1  0.00613700  0.51063700  0.27334400  1
  O  O3  1  0.99386300  0.48936300  0.72665600  1
  O  O4  1  0.29563900  0.25234700  0.32026800  1
  O  O5  1  0.70436100  0.74765300  0.67973200  1
  O  O6  1  0.03097200  0.12970700  0.25227500  1
  O  O7  1  0.96902800  0.87029300  0.74772500  1
  O  O8  1  0.17266700  0.39017700  0.11228000  1
  O  O9  1  0.82733300  0.60982300  0.88772000  1
  O  O10  1  0.20467100  0.67838100  0.67390300  1
  O  O11  1  0.79532900  0.32161900  0.32609700  1
  O  O12  1  0.36005300  0.97373200  0.42566800  1
  O  O13  1  0.63994700  0.02626800  0.57433200  1
  O  O14  1  0.46222500  0.77122400  0.62525800  1
  O  O15  1  0.53777500  0.22877600  0.37474200  1
  O  O16  1  0.11785100  0.89246900  0.49050200  1
  O  O17  1  0.88214900  0.10753100  0.50949800  1
  O  O18  1  0.20438300  0.35746600  0.76022500  1
  O  O19  1  0.79561700  0.64253400  0.23977500  1
  O  O20  1  0.40324800  0.30989800  0.58355400  1
  O  O21  1  0.59675200  0.69010200  0.41644600  1
  O  O22  1  0.44672000  0.56092800  0.83232900  1
  O  O23  1  0.55328000  0.43907200  0.16767100  1
  O  O24  1  0.55350200  0.22924800  0.80812300  1
  O  O25  1  0.44649800  0.77075200  0.19187700  1
  O  O26  1  0.05272400  0.78790200  0.09449800  1
  O  O27  1  0.94727600  0.21209800  0.90550200  1
  O  O28  1  0.28796200  0.86786400  0.97678300  1
  O  O29  1  0.71203800  0.13213600  0.02321700  1
  F  F0  1  0.25991100  0.61528200  0.39641700  1
  F  F1  1  0.74008900  0.38471800  0.60358300  1
  F  F2  1  0.30734600  0.03195300  0.70890300  1
  F  F3  1  0.69265400  0.96804700  0.29109700  1
  F  F4  1  0.36152400  0.26147100  0.96107100  1
  F  F5  1  0.63847600  0.73852900  0.03892900  1
loop_
_geom_bond_atom_site_label_1
_geom_bond_atom_site_label_2
_geom_bond_distance
_geom_bond_site_symmetry_2
Al0 O8 1.523857 1_555
Al0 O0 1.526560 1_555
Al0 O4 1.982932 1_555
Al0 O2 1.991118 1_555
Al0 F0 2.428466 1_555
Al1 O9 1.523857 1_555
Al1 O1 1.526560 1_555
Al1 O5 1.982932 1_555
Al1 O3 1.991118 1_555
Al1 F1 2.428466 1_555
Al2 O14 1.734398 1_555
Al2 O16 1.857714 1_555
Al2 O12 1.982582 1_555
Al2 O10 1.987873 1_555
Al2 F0 2.230991 1_555
Al2 F2 2.232027 1_565
Al3 O15 1.734398 1_555
Al3 O17 1.857714 1_555
Al3 O13 1.982582 1_555
Al3 O11 1.987873 1_555
Al3 F1 2.230991 1_555
Al3 F3 2.232027 1_545
Al4 O20 1.433281 1_555
Al4 F4 1.462060 1_555
Al4 O18 1.789020 1_555
Al4 O24 1.835006 1_555
Al5 O21 1.433281 1_555
Al5 F5 1.462060 1_555
Al5 O19 1.789020 1_555
Al5 O25 1.835006 1_555
H0 O6 0.911130 1_655
H1 O7 0.911130 1_455
H2 O6 1.284631 1_555
H3 O7 1.284631 1_555
H4 O8 0.892161 1_555
H5 O9 0.892161 1_555
H6 O8 0.977935 1_555
H7 O9 0.977935 1_555
H8 O16 1.132679 1_555
H9 O17 1.132679 1_555
H10 O16 1.007175 1_555
H11 O17 1.007175 1_555
H12 O22 0.901177 1_555
H13 O23 0.901177 1_555
H14 O22 1.011378 1_555
H15 O23 1.011378 1_555
H16 O24 0.822379 1_555
H16 O29 1.539316 1_556
H17 O25 0.822379 1_555
H17 O28 1.539316 1_554
H18 O24 0.997000 1_555
H18 O13 1.766661 1_555
H19 O25 0.997000 1_555
H19 O12 1.766661 1_555
H20 O26 1.118255 1_555
H21 O27 1.118255 1_555
H22 O26 0.916330 1_555
H23 O27 0.916330 1_555
H24 O28 0.946996 1_555
H24 O10 1.738869 1_555
H25 O29 0.946996 1_555
H25 O11 1.738869 1_555
H26 O28 1.387540 1_545
H27 O29 1.387540 1_565
O0 P0 1.470236 1_555
O1 P1 1.470236 1_555
O2 P1 1.429719 1_455
O3 P0 1.429719 1_655
O4 P2 1.364957 1_555
O5 P3 1.364957 1_555
O10 P0 2.144108 1_555
O11 P1 2.144108 1_555
O12 P2 2.226889 1_565
O13 P3 2.226889 1_545
O14 P3 1.452317 1_555
O15 P2 1.452317 1_555
O18 P0 1.580642 1_555
O19 P1 1.580642 1_555
O20 P2 1.492874 1_555
O21 P3 1.492874 1_555
