# generated using pymatgen
data_La3Ti2N3O4
_symmetry_space_group_name_H-M   'P 1'
_cell_length_a   10.75219623
_cell_length_b   10.75219623
_cell_length_c   10.75219623
_cell_angle_alpha   158.80460827
_cell_angle_beta   158.80460827
_cell_angle_gamma   30.15087535
_symmetry_Int_Tables_number   1
_chemical_formula_structural   La3Ti2N3O4
_chemical_formula_sum   'La3 Ti2 N3 O4'
_cell_volume   162.39063877
_cell_formula_units_Z   1
loop_
 _symmetry_equiv_pos_site_id
 _symmetry_equiv_pos_as_xyz
  1  'x, y, z'
loop_
 _atom_site_type_symbol
 _atom_site_label
 _atom_site_symmetry_multiplicity
 _atom_site_fract_x
 _atom_site_fract_y
 _atom_site_fract_z
 _atom_site_occupancy
  La  La0  1  0.00000000  0.00000000  0.00000000  1
  La  La1  1  0.18207200  0.18207200  0.00000000  1
  La  La2  1  0.81792800  0.81792800  0.00000000  1
  Ti  Ti0  1  0.40680200  0.40680200  0.00000000  1
  Ti  Ti1  1  0.59319800  0.59319800  0.00000000  1
  N  N0  1  0.50000000  0.50000000  0.00000000  1
  N  N1  1  0.09995800  0.59995800  0.50000000  1
  N  N2  1  0.40004200  0.90004200  0.50000000  1
  O  O0  1  0.29491100  0.29491100  0.00000000  1
  O  O1  1  0.70508900  0.70508900  0.00000000  1
  O  O2  1  0.60480000  0.10480000  0.50000000  1
  O  O3  1  0.89520000  0.39520000  0.50000000  1
loop_
_geom_bond_atom_site_label_1
_geom_bond_atom_site_label_2
_geom_bond_distance
_geom_bond_site_symmetry_2
La0 N0 2.796545 1_556
La0 N0 2.796545 1_545
La0 N0 2.796545 1_444
La0 N0 2.796545 1_455
La0 N1 2.866753 1_544
La0 N2 2.866753 1_545
La0 N2 2.866753 1_444
La0 N1 2.866753 1_555
La0 O3 2.940364 1_444
La0 O2 2.940364 1_454
La0 O3 2.940364 1_455
La0 O2 2.940364 1_555
La1 O0 2.343023 1_555
La1 O2 2.546517 1_454
La1 O2 2.546517 1_555
La1 N1 2.611033 1_544
La1 N1 2.611033 1_555
La1 O1 2.837091 1_444
La1 O1 2.837091 1_545
La1 O1 2.837091 1_455
La1 O1 2.837091 1_556
La2 O1 2.343023 1_555
La2 O3 2.546517 1_554
La2 O3 2.546517 1_565
La2 N2 2.611033 1_655
La2 N2 2.611033 1_554
La2 O0 2.837091 1_666
La2 O0 2.837091 1_565
La2 O0 2.837091 1_554
La2 O0 2.837091 1_655
N0 Ti0 1.935191 1_555
N0 Ti1 1.935191 1_555
N1 Ti1 1.982432 1_455
N1 Ti1 1.982432 1_556
N2 Ti0 1.982432 1_566
N2 Ti0 1.982432 1_555
O0 Ti0 2.323339 1_555
O1 Ti1 2.323339 1_555
O2 Ti1 1.992076 1_556
O2 Ti1 1.992076 1_545
O3 Ti0 1.992076 1_656
O3 Ti0 1.992076 1_555
