# generated using pymatgen
data_Li3Sb(PO4)2
_symmetry_space_group_name_H-M   'P 1'
_cell_length_a   18.94308800
_cell_length_b   5.08730900
_cell_length_c   8.18721896
_cell_angle_alpha   52.43070607
_cell_angle_beta   90.00000000
_cell_angle_gamma   90.00000000
_symmetry_Int_Tables_number   1
_chemical_formula_structural   Li3Sb(PO4)2
_chemical_formula_sum   'Li12 Sb4 P8 O32'
_cell_volume   625.37198073
_cell_formula_units_Z   4
loop_
 _symmetry_equiv_pos_site_id
 _symmetry_equiv_pos_as_xyz
  1  'x, y, z'
loop_
 _atom_site_type_symbol
 _atom_site_label
 _atom_site_symmetry_multiplicity
 _atom_site_fract_x
 _atom_site_fract_y
 _atom_site_fract_z
 _atom_site_occupancy
  Li  Li0  1  0.70096100  0.37905800  0.82226000  1
  Li  Li1  1  0.88387400  0.73616700  0.49683700  1
  Li  Li2  1  0.04571800  0.96548100  0.30338100  1
  Li  Li3  1  0.38387400  0.26383300  0.00316300  1
  Li  Li4  1  0.54571800  0.03451900  0.19661900  1
  Li  Li5  1  0.20096100  0.62094200  0.67774000  1
  Li  Li6  1  0.79903900  0.37905800  0.32226000  1
  Li  Li7  1  0.45428200  0.96548100  0.80338100  1
  Li  Li8  1  0.61612600  0.73616700  0.99683700  1
  Li  Li9  1  0.95428200  0.03451900  0.69661900  1
  Li  Li10  1  0.11612600  0.26383300  0.50316300  1
  Li  Li11  1  0.29903900  0.62094200  0.17774000  1
  Sb  Sb0  1  0.87590300  0.18046000  0.01627800  1
  Sb  Sb1  1  0.37590300  0.81954000  0.48372200  1
  Sb  Sb2  1  0.62409700  0.18046000  0.51627800  1
  Sb  Sb3  1  0.12409700  0.81954000  0.98372200  1
  P  P0  1  0.71549600  0.89202200  0.29304700  1
  P  P1  1  0.53467500  0.46633100  0.74337000  1
  P  P2  1  0.03467500  0.53366900  0.75663000  1
  P  P3  1  0.21549600  0.10797800  0.20695300  1
  P  P4  1  0.78450400  0.89202200  0.79304700  1
  P  P5  1  0.96532500  0.46633100  0.24337000  1
  P  P6  1  0.46532500  0.53366900  0.25663000  1
  P  P7  1  0.28450400  0.10797800  0.70695300  1
  O  O0  1  0.20390600  0.81792000  0.19134000  1
  O  O1  1  0.68929900  0.55955000  0.49873600  1
  O  O2  1  0.44403700  0.86093900  0.22630400  1
  O  O3  1  0.67667000  0.96076300  0.10731100  1
  O  O4  1  0.05592000  0.22586600  0.97565000  1
  O  O5  1  0.07024700  0.53680800  0.58746700  1
  O  O6  1  0.79720800  0.83854600  0.28372800  1
  O  O7  1  0.45175500  0.45046400  0.76496100  1
  O  O8  1  0.95175500  0.54953600  0.73503900  1
  O  O9  1  0.29720800  0.16145400  0.21627200  1
  O  O10  1  0.57024700  0.46319200  0.91253300  1
  O  O11  1  0.55592000  0.77413400  0.52435000  1
  O  O12  1  0.17667000  0.03923700  0.39268900  1
  O  O13  1  0.94403700  0.13906100  0.27369600  1
  O  O14  1  0.18929900  0.44045000  0.00126400  1
  O  O15  1  0.70390600  0.18208000  0.30866000  1
  O  O16  1  0.29609400  0.81792000  0.69134000  1
  O  O17  1  0.81070100  0.55955000  0.99873600  1
  O  O18  1  0.05596300  0.86093900  0.72630400  1
  O  O19  1  0.82333000  0.96076300  0.60731100  1
  O  O20  1  0.44408000  0.22586600  0.47565000  1
  O  O21  1  0.42975300  0.53680800  0.08746700  1
  O  O22  1  0.70279200  0.83854600  0.78372800  1
  O  O23  1  0.04824500  0.45046400  0.26496100  1
  O  O24  1  0.54824500  0.54953600  0.23503900  1
  O  O25  1  0.20279200  0.16145400  0.71627200  1
  O  O26  1  0.92975300  0.46319200  0.41253300  1
  O  O27  1  0.94408000  0.77413400  0.02435000  1
  O  O28  1  0.32333000  0.03923700  0.89268900  1
  O  O29  1  0.55596300  0.13906100  0.77369600  1
  O  O30  1  0.31070100  0.44045000  0.50126400  1
  O  O31  1  0.79609400  0.18208000  0.80866000  1
loop_
_geom_bond_atom_site_label_1
_geom_bond_atom_site_label_2
_geom_bond_distance
_geom_bond_site_symmetry_2
Li0 O3 2.032373 1_546
Li0 O31 2.097678 1_555
Li0 O22 2.160011 1_555
Li0 O1 2.223064 1_555
Li1 O8 2.024921 1_555
Li1 O13 2.066707 1_565
Li1 O26 2.080641 1_555
Li1 O19 2.167756 1_555
Li1 O6 2.214180 1_555
Li2 O5 2.048449 1_555
Li2 O13 2.070557 1_465
Li2 O4 2.158092 1_564
Li2 O23 2.289588 1_565
Li3 O7 2.024921 1_554
Li3 O2 2.066707 1_545
Li3 O21 2.080641 1_555
Li3 O28 2.167756 1_554
Li3 O9 2.214180 1_555
Li4 O10 2.048449 1_554
Li4 O2 2.070557 1_545
Li4 O11 2.158092 1_545
Li4 O24 2.289588 1_545
Li5 O12 2.032373 1_565
Li5 O16 2.097678 1_555
Li5 O25 2.160011 1_555
Li5 O14 2.223064 1_556
Li6 O19 2.032373 1_545
Li6 O15 2.097678 1_555
Li6 O6 2.160011 1_555
Li6 O17 2.223064 1_554
Li7 O21 2.048449 1_556
Li7 O29 2.070557 1_565
Li7 O20 2.158092 1_565
Li7 O7 2.289588 1_565
Li8 O24 2.024921 1_556
Li8 O29 2.066707 1_565
Li8 O10 2.080641 1_555
Li8 O3 2.167756 1_556
Li8 O22 2.214180 1_555
Li9 O26 2.048449 1_555
Li9 O18 2.070557 1_645
Li9 O27 2.158092 1_546
Li9 O8 2.289588 1_545
Li10 O23 2.024921 1_555
Li10 O18 2.066707 1_545
Li10 O5 2.080641 1_555
Li10 O12 2.167756 1_555
Li10 O25 2.214180 1_555
Li11 O28 2.032373 1_564
Li11 O0 2.097678 1_555
Li11 O9 2.160011 1_555
Li11 O30 2.223064 1_555
O0 P3 1.572258 1_565
O0 Sb3 2.271119 1_554
O1 P0 1.571500 1_555
O1 Sb2 2.219843 1_555
O2 P6 1.578654 1_555
O2 Sb1 2.368676 1_555
O3 P0 1.525504 1_555
O4 P2 1.550918 1_555
O4 Sb3 2.403879 1_545
O5 P2 1.531504 1_555
O6 P0 1.581477 1_555
O6 Sb0 2.323350 1_565
O7 P1 1.577230 1_555
O7 Sb1 2.370609 1_555
O8 P2 1.577230 1_655
O8 Sb0 2.370609 1_556
O9 P3 1.581477 1_555
O9 Sb1 2.323350 1_545
O10 P1 1.531504 1_555
O11 P1 1.550918 1_555
O11 Sb2 2.403879 1_565
O12 P3 1.525504 1_555
O13 P5 1.578654 1_555
O13 Sb0 2.368676 1_555
O14 P3 1.571500 1_555
O14 Sb3 2.219843 1_554
O15 P0 1.572258 1_545
O15 Sb2 2.271119 1_555
O16 P7 1.572258 1_565
O16 Sb1 2.271119 1_555
O17 P4 1.571500 1_555
O17 Sb0 2.219843 1_556
O18 P2 1.578654 1_555
O18 Sb3 2.368676 1_555
O19 P4 1.525504 1_555
O20 P6 1.550918 1_555
O20 Sb1 2.403879 1_545
O21 P6 1.531504 1_555
O22 P4 1.581477 1_555
O22 Sb2 2.323350 1_565
O23 P5 1.577230 1_455
O23 Sb3 2.370609 1_554
O24 P6 1.577230 1_555
O24 Sb2 2.370609 1_555
O25 P7 1.581477 1_555
O25 Sb3 2.323350 1_545
O26 P5 1.531504 1_555
O27 P5 1.550918 1_555
O27 Sb0 2.403879 1_565
O28 P7 1.525504 1_555
O29 P1 1.578654 1_555
O29 Sb2 2.368676 1_555
O30 P7 1.571500 1_555
O30 Sb1 2.219843 1_555
O31 P4 1.572258 1_545
O31 Sb0 2.271119 1_556
