# generated using pymatgen
data_Ba6Li2Ti16O39
_symmetry_space_group_name_H-M   'P 1'
_cell_length_a   9.67507879
_cell_length_b   9.67507879
_cell_length_c   9.19835019
_cell_angle_alpha   83.09519824
_cell_angle_beta   83.09519824
_cell_angle_gamma   75.25268186
_symmetry_Int_Tables_number   1
_chemical_formula_structural   Ba6Li2Ti16O39
_chemical_formula_sum   'Ba6 Li2 Ti16 O39'
_cell_volume   823.01865548
_cell_formula_units_Z   1
loop_
 _symmetry_equiv_pos_site_id
 _symmetry_equiv_pos_as_xyz
  1  'x, y, z'
loop_
 _atom_site_type_symbol
 _atom_site_label
 _atom_site_symmetry_multiplicity
 _atom_site_fract_x
 _atom_site_fract_y
 _atom_site_fract_z
 _atom_site_occupancy
  Ba  Ba0  1  0.94911100  0.94911100  0.77152200  1
  Ba  Ba1  1  0.71374100  0.39255100  0.23213800  1
  Ba  Ba2  1  0.39255100  0.71374100  0.23213800  1
  Ba  Ba3  1  0.60744900  0.28625900  0.76786200  1
  Ba  Ba4  1  0.28625900  0.60744900  0.76786200  1
  Ba  Ba5  1  0.05088900  0.05088900  0.22847800  1
  Li  Li0  1  0.73856800  0.73856800  0.23068800  1
  Li  Li1  1  0.26143200  0.26143200  0.76931200  1
  Ti  Ti0  1  0.98978700  0.66726300  0.43659700  1
  Ti  Ti1  1  0.66726300  0.98978700  0.43659700  1
  Ti  Ti2  1  0.92579500  0.58867500  0.76965900  1
  Ti  Ti3  1  0.58867500  0.92579500  0.76965900  1
  Ti  Ti4  1  0.66564900  0.66564900  0.55580900  1
  Ti  Ti5  1  0.95969900  0.28269600  0.90322500  1
  Ti  Ti6  1  0.28269600  0.95969900  0.90322500  1
  Ti  Ti7  1  0.62189800  0.62189800  0.91371700  1
  Ti  Ti8  1  0.37810200  0.37810200  0.08628300  1
  Ti  Ti9  1  0.71730400  0.04030100  0.09677500  1
  Ti  Ti10  1  0.04030100  0.71730400  0.09677500  1
  Ti  Ti11  1  0.33435100  0.33435100  0.44419100  1
  Ti  Ti12  1  0.41132500  0.07420500  0.23034100  1
  Ti  Ti13  1  0.07420500  0.41132500  0.23034100  1
  Ti  Ti14  1  0.01021300  0.33273700  0.56340300  1
  Ti  Ti15  1  0.33273700  0.01021300  0.56340300  1
  O  O0  1  0.87708100  0.87708100  0.10157200  1
  O  O1  1  0.80161900  0.80161900  0.43748600  1
  O  O2  1  0.73942400  0.73942400  0.76229500  1
  O  O3  1  0.93630100  0.59267100  0.24152100  1
  O  O4  1  0.59267100  0.93630100  0.24152100  1
  O  O5  1  0.86831500  0.53482100  0.57008400  1
  O  O6  1  0.53482100  0.86831500  0.57008400  1
  O  O7  1  0.80465100  0.46891300  0.88465500  1
  O  O8  1  0.46891300  0.80465100  0.88465500  1
  O  O9  1  0.00205500  0.33522200  0.08638900  1
  O  O10  1  0.33522200  0.00205500  0.08638900  1
  O  O11  1  0.66182800  0.66182800  0.08208800  1
  O  O12  1  0.96492200  0.30010700  0.38179500  1
  O  O13  1  0.30010700  0.96492200  0.38179500  1
  O  O14  1  0.61989600  0.61989600  0.39203700  1
  O  O15  1  0.57153400  0.57153400  0.70138500  1
  O  O16  1  0.90678700  0.23752200  0.70301700  1
  O  O17  1  0.23752200  0.90678700  0.70301700  1
  O  O18  1  0.17213200  0.82786800  0.00000000  1
  O  O19  1  0.50000000  0.50000000  0.00000000  1
  O  O20  1  0.82786800  0.17213200  0.00000000  1
  O  O21  1  0.76247800  0.09321300  0.29698300  1
  O  O22  1  0.42846600  0.42846600  0.29861500  1
  O  O23  1  0.09321300  0.76247800  0.29698300  1
  O  O24  1  0.03507800  0.69989300  0.61820500  1
  O  O25  1  0.69989300  0.03507800  0.61820500  1
  O  O26  1  0.38010400  0.38010400  0.60796300  1
  O  O27  1  0.66477800  0.99794500  0.91361100  1
  O  O28  1  0.33817200  0.33817200  0.91791200  1
  O  O29  1  0.99794500  0.66477800  0.91361100  1
  O  O30  1  0.19534900  0.53108700  0.11534500  1
  O  O31  1  0.53108700  0.19534900  0.11534500  1
  O  O32  1  0.13168500  0.46517900  0.42991600  1
  O  O33  1  0.46517900  0.13168500  0.42991600  1
  O  O34  1  0.06369900  0.40732900  0.75847900  1
  O  O35  1  0.40732900  0.06369900  0.75847900  1
  O  O36  1  0.26057600  0.26057600  0.23770500  1
  O  O37  1  0.19838100  0.19838100  0.56251400  1
  O  O38  1  0.12291900  0.12291900  0.89842800  1
loop_
_geom_bond_atom_site_label_1
_geom_bond_atom_site_label_2
_geom_bond_distance
_geom_bond_site_symmetry_2
Ba0 O16 2.721877 1_565
Ba0 O17 2.721877 1_655
Ba0 O24 2.830033 1_655
Ba0 O25 2.830033 1_565
Ba0 O29 2.849807 1_555
Ba0 O27 2.849807 1_555
Ba0 O38 3.066248 1_665
Ba0 O0 3.068870 1_556
Ba0 O20 3.107676 1_566
Ba0 O18 3.107676 1_656
Ba0 O2 3.227532 1_555
Ba1 O14 2.695519 1_555
Ba1 O22 2.696218 1_555
Ba1 O11 2.753293 1_555
Ba1 O21 2.814719 1_555
Ba1 O12 2.828880 1_555
Ba1 O9 2.894478 1_655
Ba1 O19 3.057796 1_555
Ba1 O20 3.107359 1_555
Ba1 O31 3.253188 1_555
Ba1 O3 3.255810 1_555
Ba1 O7 3.259250 1_554
Ba2 O14 2.695519 1_555
Ba2 O22 2.696218 1_555
Ba2 O11 2.753293 1_555
Ba2 O23 2.814719 1_555
Ba2 O13 2.828880 1_555
Ba2 O10 2.894478 1_565
Ba2 O19 3.057796 1_555
Ba2 O18 3.107359 1_555
Ba2 O30 3.253188 1_555
Ba2 O4 3.255810 1_555
Ba2 O8 3.259250 1_554
Ba3 O26 2.695519 1_555
Ba3 O15 2.696218 1_555
Ba3 O28 2.753293 1_555
Ba3 O16 2.814719 1_555
Ba3 O25 2.828880 1_555
Ba3 O27 2.894478 1_545
Ba3 O19 3.057796 1_556
Ba3 O20 3.107359 1_556
Ba3 O7 3.253188 1_555
Ba3 O35 3.255810 1_555
Ba3 O31 3.259250 1_556
Ba4 O26 2.695519 1_555
Ba4 O15 2.696218 1_555
Ba4 O28 2.753293 1_555
Ba4 O17 2.814719 1_555
Ba4 O24 2.828880 1_555
Ba4 O29 2.894478 1_455
Ba4 O19 3.057796 1_556
Ba4 O18 3.107359 1_556
Ba4 O8 3.253188 1_555
Ba4 O34 3.255810 1_555
Ba4 O30 3.259250 1_556
Ba5 O23 2.721877 1_545
Ba5 O21 2.721877 1_455
Ba5 O13 2.830033 1_545
Ba5 O12 2.830033 1_455
Ba5 O10 2.849807 1_555
Ba5 O9 2.849807 1_555
Ba5 O0 3.066248 1_445
Ba5 O38 3.068870 1_554
Ba5 O20 3.107676 1_455
Ba5 O18 3.107676 1_545
Ba5 O36 3.227532 1_555
Li0 O11 1.933787 1_555
Li0 O4 2.073527 1_555
Li0 O3 2.073527 1_555
Li0 O14 2.165859 1_555
Li0 O1 2.260550 1_555
Li0 O0 2.269659 1_555
Li1 O28 1.933787 1_555
Li1 O35 2.073527 1_555
Li1 O34 2.073527 1_555
Li1 O26 2.165859 1_555
Li1 O37 2.260550 1_555
Li1 O38 2.269659 1_555
O0 Ti9 1.908455 1_565
O0 Ti10 1.908455 1_655
O1 Ti1 1.948931 1_555
O1 Ti0 1.948931 1_555
O1 Ti4 2.199615 1_555
O2 Ti2 2.012433 1_555
O2 Ti3 2.012433 1_555
O2 Ti7 2.102976 1_555
O2 Ti4 2.353238 1_555
O3 Ti13 1.920346 1_655
O3 Ti10 2.036851 1_655
O3 Ti0 2.175583 1_555
O4 Ti12 1.920346 1_565
O4 Ti9 2.036851 1_565
O4 Ti1 2.175583 1_555
O5 Ti4 2.054884 1_555
O5 Ti14 2.086461 1_655
O5 Ti0 2.138280 1_555
O5 Ti2 2.138632 1_555
O6 Ti4 2.054884 1_555
O6 Ti15 2.086461 1_565
O6 Ti1 2.138280 1_555
O6 Ti3 2.138632 1_555
O7 Ti2 1.983402 1_555
O7 Ti7 2.009407 1_555
O7 Ti5 2.033991 1_555
O8 Ti3 1.983402 1_555
O8 Ti7 2.009407 1_555
O8 Ti6 2.033991 1_555
O9 Ti13 1.871111 1_555
O9 Ti5 1.934597 1_454
O10 Ti12 1.871111 1_555
O10 Ti6 1.934597 1_544
O11 Ti7 1.749508 1_554
O12 Ti14 1.858887 1_655
O12 Ti13 2.020206 1_655
O13 Ti15 1.858887 1_565
O13 Ti12 2.020206 1_565
O14 Ti4 1.755470 1_555
O15 Ti4 1.813047 1_555
O15 Ti7 2.206361 1_555
O16 Ti14 1.837128 1_655
O16 Ti5 2.092519 1_555
O17 Ti15 1.837128 1_565
O17 Ti6 2.092519 1_555
O18 Ti6 1.938096 1_554
O18 Ti10 1.938096 1_555
O19 Ti7 1.915662 1_554
O19 Ti8 1.915662 1_555
O20 Ti5 1.938096 1_554
O20 Ti9 1.938096 1_555
O21 Ti1 1.837128 1_545
O21 Ti9 2.092519 1_555
O22 Ti11 1.813047 1_555
O22 Ti8 2.206361 1_555
O23 Ti0 1.837128 1_455
O23 Ti10 2.092519 1_555
O24 Ti0 1.858887 1_455
O24 Ti2 2.020206 1_455
O25 Ti1 1.858887 1_545
O25 Ti3 2.020206 1_545
O26 Ti11 1.755470 1_555
O27 Ti3 1.871111 1_555
O27 Ti9 1.934597 1_566
O28 Ti8 1.749508 1_556
O29 Ti2 1.871111 1_555
O29 Ti10 1.934597 1_656
O30 Ti13 1.983402 1_555
O30 Ti8 2.009407 1_555
O30 Ti10 2.033991 1_555
O31 Ti12 1.983402 1_555
O31 Ti8 2.009407 1_555
O31 Ti9 2.033991 1_555
O32 Ti11 2.054884 1_555
O32 Ti0 2.086461 1_455
O32 Ti14 2.138280 1_555
O32 Ti13 2.138632 1_555
O33 Ti11 2.054884 1_555
O33 Ti1 2.086461 1_545
O33 Ti15 2.138280 1_555
O33 Ti12 2.138632 1_555
O34 Ti2 1.920346 1_455
O34 Ti5 2.036851 1_455
O34 Ti14 2.175583 1_555
O35 Ti3 1.920346 1_545
O35 Ti6 2.036851 1_545
O35 Ti15 2.175583 1_555
O36 Ti12 2.012433 1_555
O36 Ti13 2.012433 1_555
O36 Ti8 2.102976 1_555
O36 Ti11 2.353238 1_555
O37 Ti15 1.948931 1_555
O37 Ti14 1.948931 1_555
O37 Ti11 2.199615 1_555
O38 Ti6 1.908455 1_545
O38 Ti5 1.908455 1_455
