# generated using pymatgen
data_Yb4Br6O
_symmetry_space_group_name_H-M   'P 1'
_cell_length_a   9.16346100
_cell_length_b   9.16346100
_cell_length_c   6.98078600
_cell_angle_alpha   90.00000000
_cell_angle_beta   90.00000000
_cell_angle_gamma   90.00000000
_symmetry_Int_Tables_number   1
_chemical_formula_structural   Yb4Br6O
_chemical_formula_sum   'Yb8 Br12 O2'
_cell_volume   586.16974179
_cell_formula_units_Z   2
loop_
 _symmetry_equiv_pos_site_id
 _symmetry_equiv_pos_as_xyz
  1  'x, y, z'
loop_
 _atom_site_type_symbol
 _atom_site_label
 _atom_site_symmetry_multiplicity
 _atom_site_fract_x
 _atom_site_fract_y
 _atom_site_fract_z
 _atom_site_occupancy
  Yb  Yb0  1  0.00000000  0.22900800  0.35348400  1
  Yb  Yb1  1  0.72900800  0.50000000  0.85348400  1
  Yb  Yb2  1  0.27099200  0.50000000  0.85348400  1
  Yb  Yb3  1  0.00000000  0.77099200  0.35348400  1
  Yb  Yb4  1  0.50000000  0.72900800  0.14651600  1
  Yb  Yb5  1  0.22900800  0.00000000  0.64651600  1
  Yb  Yb6  1  0.77099200  0.00000000  0.64651600  1
  Yb  Yb7  1  0.50000000  0.27099200  0.14651600  1
  Br  Br0  1  0.70414700  0.29585300  0.50000000  1
  Br  Br1  1  0.29585300  0.29585300  0.50000000  1
  Br  Br2  1  0.00000000  0.50000000  0.64758400  1
  Br  Br3  1  0.00000000  0.50000000  0.14758400  1
  Br  Br4  1  0.29585300  0.70414700  0.50000000  1
  Br  Br5  1  0.70414700  0.70414700  0.50000000  1
  Br  Br6  1  0.79585300  0.79585300  0.00000000  1
  Br  Br7  1  0.20414700  0.79585300  0.00000000  1
  Br  Br8  1  0.50000000  0.00000000  0.85241600  1
  Br  Br9  1  0.50000000  0.00000000  0.35241600  1
  Br  Br10  1  0.79585300  0.20414700  0.00000000  1
  Br  Br11  1  0.20414700  0.20414700  0.00000000  1
  O  O0  1  0.50000000  0.50000000  0.00000000  1
  O  O1  1  0.00000000  0.00000000  0.50000000  1
loop_
_geom_bond_atom_site_label_1
_geom_bond_atom_site_label_2
_geom_bond_distance
_geom_bond_site_symmetry_2
Br0 Yb6 2.961593 1_555
Br0 Yb0 2.961593 1_655
Br0 Yb1 3.104903 1_555
Br0 Yb7 3.104903 1_555
Br1 Yb5 2.961593 1_555
Br1 Yb0 2.961593 1_555
Br1 Yb2 3.104903 1_555
Br1 Yb7 3.104903 1_555
Br2 Yb1 2.869209 1_455
Br2 Yb2 2.869209 1_555
Br2 Yb0 3.222020 1_555
Br2 Yb3 3.222020 1_555
Br3 Yb3 2.869209 1_555
Br3 Yb0 2.869209 1_555
Br3 Yb1 3.222020 1_454
Br3 Yb2 3.222020 1_554
Br4 Yb3 2.961593 1_555
Br4 Yb5 2.961593 1_565
Br4 Yb2 3.104903 1_555
Br4 Yb4 3.104903 1_555
Br5 Yb3 2.961593 1_655
Br5 Yb6 2.961593 1_565
Br5 Yb4 3.104903 1_555
Br5 Yb1 3.104903 1_555
Br6 Yb1 2.961593 1_554
Br6 Yb4 2.961593 1_555
Br6 Yb6 3.104903 1_564
Br6 Yb3 3.104903 1_655
Br7 Yb2 2.961593 1_554
Br7 Yb4 2.961593 1_555
Br7 Yb3 3.104903 1_555
Br7 Yb5 3.104903 1_564
Br8 Yb6 2.869209 1_555
Br8 Yb5 2.869209 1_555
Br8 Yb4 3.222020 1_546
Br8 Yb7 3.222020 1_556
Br9 Yb7 2.869209 1_555
Br9 Yb4 2.869209 1_545
Br9 Yb6 3.222020 1_555
Br9 Yb5 3.222020 1_555
Br10 Yb7 2.961593 1_555
Br10 Yb1 2.961593 1_554
Br10 Yb0 3.104903 1_655
Br10 Yb6 3.104903 1_554
Br11 Yb2 2.961593 1_554
Br11 Yb7 2.961593 1_555
Br11 Yb5 3.104903 1_554
Br11 Yb0 3.104903 1_555
O0 Yb7 2.334489 1_555
O0 Yb1 2.334489 1_554
O0 Yb4 2.334489 1_555
O0 Yb2 2.334489 1_554
O1 Yb3 2.334489 1_545
O1 Yb6 2.334489 1_455
O1 Yb5 2.334489 1_555
O1 Yb0 2.334489 1_555
