# generated using pymatgen
data_Rb3HoO3
_symmetry_space_group_name_H-M   'P 1'
_cell_length_a   7.30021769
_cell_length_b   7.80596990
_cell_length_c   11.63271465
_cell_angle_alpha   86.37061065
_cell_angle_beta   90.00000000
_cell_angle_gamma   90.00000000
_symmetry_Int_Tables_number   1
_chemical_formula_structural   Rb3HoO3
_chemical_formula_sum   'Rb12 Ho4 O12'
_cell_volume   661.56398996
_cell_formula_units_Z   4
loop_
 _symmetry_equiv_pos_site_id
 _symmetry_equiv_pos_as_xyz
  1  'x, y, z'
loop_
 _atom_site_type_symbol
 _atom_site_label
 _atom_site_symmetry_multiplicity
 _atom_site_fract_x
 _atom_site_fract_y
 _atom_site_fract_z
 _atom_site_occupancy
  Rb  Rb0  1  0.33541011  0.36047906  0.07936150  1
  Rb  Rb1  1  0.62549795  0.92556875  0.15723711  1
  Rb  Rb2  1  0.80124512  0.37390056  0.18991357  1
  Rb  Rb3  1  0.30124512  0.62609944  0.31008643  1
  Rb  Rb4  1  0.12549795  0.07443125  0.34276289  1
  Rb  Rb5  1  0.83541011  0.63952094  0.42063850  1
  Rb  Rb6  1  0.16458989  0.36047906  0.57936150  1
  Rb  Rb7  1  0.87450205  0.92556875  0.65723711  1
  Rb  Rb8  1  0.69875488  0.37390056  0.68991357  1
  Rb  Rb9  1  0.19875488  0.62609944  0.81008643  1
  Rb  Rb10  1  0.37450205  0.07443125  0.84276289  1
  Rb  Rb11  1  0.66458989  0.63952094  0.92063850  1
  Ho  Ho0  1  0.08981596  0.83830089  0.06852966  1
  Ho  Ho1  1  0.58981596  0.16169911  0.43147034  1
  Ho  Ho2  1  0.41018404  0.83830089  0.56852966  1
  Ho  Ho3  1  0.91018404  0.16169911  0.93147034  1
  O  O0  1  0.35565023  0.74240102  0.04708864  1
  O  O1  1  0.04981443  0.11109841  0.09504432  1
  O  O2  1  0.94231656  0.69166399  0.19202002  1
  O  O3  1  0.44231656  0.30833601  0.30797998  1
  O  O4  1  0.54981443  0.88890159  0.40495568  1
  O  O5  1  0.85565023  0.25759898  0.45291136  1
  O  O6  1  0.14434977  0.74240102  0.54708864  1
  O  O7  1  0.45018557  0.11109841  0.59504432  1
  O  O8  1  0.55768344  0.69166399  0.69202002  1
  O  O9  1  0.05768344  0.30833601  0.80797998  1
  O  O10  1  0.95018557  0.88890159  0.90495568  1
  O  O11  1  0.64434977  0.25759898  0.95291136  1
loop_
_geom_bond_atom_site_label_1
_geom_bond_atom_site_label_2
_geom_bond_distance
_geom_bond_site_symmetry_2
Ho0 O2 2.079686 1_455
Ho0 O0 2.100560 1_555
Ho0 O10 2.172690 1_454
Ho0 O1 2.190461 1_565
Ho1 O3 2.079686 1_555
Ho1 O5 2.100560 1_555
Ho1 O7 2.172690 1_555
Ho1 O4 2.190461 1_545
Ho2 O8 2.079686 1_555
Ho2 O6 2.100560 1_555
Ho2 O4 2.172690 1_555
Ho2 O7 2.190461 1_565
Ho3 O9 2.079686 1_655
Ho3 O11 2.100560 1_555
Ho3 O1 2.172690 1_656
Ho3 O10 2.190461 1_545
O0 Rb1 2.792627 1_555
O0 Rb11 2.836320 1_554
O0 Rb0 2.984803 1_555
O0 Rb3 3.160710 1_555
O0 Rb9 3.170784 1_554
O0 Rb10 3.406758 1_564
O1 Rb0 2.850377 1_555
O1 Rb4 2.930292 1_555
O1 Rb2 3.000947 1_455
O2 Rb2 2.687291 1_555
O2 Rb5 2.776762 1_555
O2 Rb1 2.958577 1_555
O2 Rb3 2.987475 1_655
O3 Rb3 2.687291 1_555
O3 Rb0 2.776762 1_555
O3 Rb4 2.958577 1_555
O3 Rb2 2.987475 1_555
O4 Rb5 2.850377 1_555
O4 Rb1 2.930292 1_555
O4 Rb3 3.000947 1_555
O5 Rb4 2.792627 1_655
O5 Rb6 2.836320 1_655
O5 Rb5 2.984803 1_555
O5 Rb2 3.160710 1_555
O5 Rb8 3.170784 1_555
O5 Rb7 3.406758 1_545
O6 Rb7 2.792627 1_455
O6 Rb5 2.836320 1_455
O6 Rb6 2.984803 1_555
O6 Rb9 3.160710 1_555
O6 Rb3 3.170784 1_555
O6 Rb4 3.406758 1_565
O7 Rb6 2.850377 1_555
O7 Rb10 2.930292 1_555
O7 Rb8 3.000947 1_555
O8 Rb8 2.687291 1_555
O8 Rb11 2.776762 1_555
O8 Rb7 2.958577 1_555
O8 Rb9 2.987475 1_555
O9 Rb9 2.687291 1_555
O9 Rb6 2.776762 1_555
O9 Rb10 2.958577 1_555
O9 Rb8 2.987475 1_455
O10 Rb11 2.850377 1_555
O10 Rb7 2.930292 1_555
O10 Rb9 3.000947 1_655
O11 Rb10 2.792627 1_555
O11 Rb0 2.836320 1_556
O11 Rb11 2.984803 1_555
O11 Rb8 3.160710 1_555
O11 Rb2 3.170784 1_556
O11 Rb1 3.406758 1_546
