# generated using pymatgen
data_Ba4In2O7
_symmetry_space_group_name_H-M   'P 1'
_cell_length_a   14.85759477
_cell_length_b   14.85759477
_cell_length_c   6.04465500
_cell_angle_alpha   90.00000000
_cell_angle_beta   90.00000000
_cell_angle_gamma   156.58677914
_symmetry_Int_Tables_number   1
_chemical_formula_structural   Ba4In2O7
_chemical_formula_sum   'Ba8 In4 O14'
_cell_volume   530.21535512
_cell_formula_units_Z   2
loop_
 _symmetry_equiv_pos_site_id
 _symmetry_equiv_pos_as_xyz
  1  'x, y, z'
loop_
 _atom_site_type_symbol
 _atom_site_label
 _atom_site_symmetry_multiplicity
 _atom_site_fract_x
 _atom_site_fract_y
 _atom_site_fract_z
 _atom_site_occupancy
  Ba  Ba0  1  0.82039600  0.17960400  0.75000000  1
  Ba  Ba1  1  0.94948300  0.05051700  0.75000000  1
  Ba  Ba2  1  0.17960400  0.82039600  0.25000000  1
  Ba  Ba3  1  0.05051700  0.94948300  0.25000000  1
  Ba  Ba4  1  0.68067800  0.31932200  0.75000000  1
  Ba  Ba5  1  0.54757000  0.45243000  0.75000000  1
  Ba  Ba6  1  0.45243000  0.54757000  0.25000000  1
  Ba  Ba7  1  0.31932200  0.68067800  0.25000000  1
  In  In0  1  0.10794300  0.89205700  0.75000000  1
  In  In1  1  0.37988300  0.62011700  0.75000000  1
  In  In2  1  0.89205700  0.10794300  0.25000000  1
  In  In3  1  0.62011700  0.37988300  0.25000000  1
  O  O0  1  0.88413100  0.63259900  0.50799600  1
  O  O1  1  0.03608200  0.96391800  0.75000000  1
  O  O2  1  0.88413100  0.63259900  0.99200400  1
  O  O3  1  0.96391800  0.03608200  0.25000000  1
  O  O4  1  0.36740100  0.11586900  0.50799600  1
  O  O5  1  0.45673100  0.54326900  0.75000000  1
  O  O6  1  0.11586900  0.36740100  0.49200400  1
  O  O7  1  0.30278200  0.69721800  0.75000000  1
  O  O8  1  0.36740100  0.11586900  0.99200400  1
  O  O9  1  0.11586900  0.36740100  0.00799600  1
  O  O10  1  0.63259900  0.88413100  0.49200400  1
  O  O11  1  0.54326900  0.45673100  0.25000000  1
  O  O12  1  0.69721800  0.30278200  0.25000000  1
  O  O13  1  0.63259900  0.88413100  0.00799600  1
loop_
_geom_bond_atom_site_label_1
_geom_bond_atom_site_label_2
_geom_bond_distance
_geom_bond_site_symmetry_2
Ba0 O9 2.647360 1_656
Ba0 O13 2.647360 1_546
Ba0 O6 2.647360 1_655
Ba0 O10 2.647360 1_545
Ba0 O7 3.057866 1_545
Ba0 O7 3.057866 1_655
Ba1 O1 2.519779 1_645
Ba1 O5 3.021978 1_545
Ba1 O5 3.021978 1_655
Ba1 O3 3.051373 1_555
Ba1 O3 3.051373 1_556
Ba1 O13 3.057537 1_546
Ba1 O10 3.057537 1_545
Ba1 O9 3.057537 1_656
Ba1 O6 3.057537 1_655
Ba2 O0 2.647360 1_455
Ba2 O2 2.647360 1_454
Ba2 O8 2.647360 1_564
Ba2 O4 2.647360 1_565
Ba2 O12 3.057866 1_455
Ba2 O12 3.057866 1_565
Ba3 O3 2.519779 1_465
Ba3 O11 3.021978 1_565
Ba3 O11 3.021978 1_455
Ba3 O1 3.051373 1_554
Ba3 O1 3.051373 1_555
Ba3 O2 3.057537 1_454
Ba3 O0 3.057537 1_455
Ba3 O8 3.057537 1_564
Ba3 O4 3.057537 1_565
Ba4 O4 2.668206 1_555
Ba4 O8 2.668206 1_555
Ba4 O2 2.668206 1_555
Ba4 O0 2.668206 1_555
Ba4 O12 3.060405 1_555
Ba4 O12 3.060405 1_556
Ba5 O5 2.643151 1_555
Ba5 O11 3.024917 1_556
Ba5 O11 3.024917 1_555
Ba5 O1 3.033086 1_545
Ba5 O1 3.033086 1_655
Ba5 O8 3.121427 1_555
Ba5 O4 3.121427 1_555
Ba5 O2 3.121427 1_555
Ba5 O0 3.121427 1_555
Ba6 O11 2.643151 1_555
Ba6 O5 3.024917 1_555
Ba6 O5 3.024917 1_554
Ba6 O3 3.033086 1_455
Ba6 O3 3.033086 1_565
Ba6 O10 3.121427 1_555
Ba6 O13 3.121427 1_555
Ba6 O9 3.121427 1_555
Ba6 O6 3.121427 1_555
Ba7 O10 2.668206 1_555
Ba7 O13 2.668206 1_555
Ba7 O6 2.668206 1_555
Ba7 O9 2.668206 1_555
Ba7 O7 3.060405 1_554
Ba7 O7 3.060405 1_555
In0 O1 2.090946 1_555
In0 O8 2.128682 1_565
In0 O0 2.128682 1_455
In0 O4 2.128682 1_565
In0 O2 2.128682 1_455
In1 O9 2.210339 1_556
In1 O13 2.210339 1_556
In1 O10 2.210339 1_555
In1 O6 2.210339 1_555
In1 O5 2.236054 1_555
In1 O7 2.243415 1_555
In2 O3 2.090946 1_555
In2 O10 2.128682 1_545
In2 O6 2.128682 1_655
In2 O9 2.128682 1_655
In2 O13 2.128682 1_545
In3 O2 2.210339 1_554
In3 O0 2.210339 1_555
In3 O4 2.210339 1_555
In3 O8 2.210339 1_554
In3 O11 2.236054 1_555
In3 O12 2.243415 1_555
