# generated using pymatgen
data_VO2F
_symmetry_space_group_name_H-M   'P 1'
_cell_length_a   5.27332207
_cell_length_b   5.27332207
_cell_length_c   13.08492725
_cell_angle_alpha   88.45360676
_cell_angle_beta   88.45360676
_cell_angle_gamma   58.62673191
_symmetry_Int_Tables_number   1
_chemical_formula_structural   VO2F
_chemical_formula_sum   'V6 O12 F6'
_cell_volume   310.51658464
_cell_formula_units_Z   6
loop_
 _symmetry_equiv_pos_site_id
 _symmetry_equiv_pos_as_xyz
  1  'x, y, z'
loop_
 _atom_site_type_symbol
 _atom_site_label
 _atom_site_symmetry_multiplicity
 _atom_site_fract_x
 _atom_site_fract_y
 _atom_site_fract_z
 _atom_site_occupancy
  V  V0  1  0.06971600  0.98608800  0.50506500  1
  V  V1  1  0.98608800  0.06971600  0.00506500  1
  V  V2  1  0.34125900  0.37091000  0.16995000  1
  V  V3  1  0.72785000  0.64746400  0.33848000  1
  V  V4  1  0.37091000  0.34125900  0.66995000  1
  V  V5  1  0.64746400  0.72785000  0.83848000  1
  O  O0  1  0.99048800  0.42442600  0.24855500  1
  O  O1  1  0.88962200  0.34255900  0.91606800  1
  O  O2  1  0.64211300  0.24757600  0.08263700  1
  O  O3  1  0.42442600  0.99048800  0.74855500  1
  O  O4  1  0.21680500  0.09742200  0.08129200  1
  O  O5  1  0.91393500  0.73803000  0.41269700  1
  O  O6  1  0.57203400  0.40650400  0.74643300  1
  O  O7  1  0.40650400  0.57203400  0.24643300  1
  O  O8  1  0.09742200  0.21680500  0.58129200  1
  O  O9  1  0.73803000  0.91393500  0.91269700  1
  O  O10  1  0.24757600  0.64211300  0.58263700  1
  O  O11  1  0.34255900  0.88962200  0.41606800  1
  F  F0  1  0.56671400  0.99619900  0.24886000  1
  F  F1  1  0.67439000  0.06492900  0.58278400  1
  F  F2  1  0.75393800  0.31903000  0.41717900  1
  F  F3  1  0.99619900  0.56671400  0.74886000  1
  F  F4  1  0.31903000  0.75393800  0.91717900  1
  F  F5  1  0.06492900  0.67439000  0.08278400  1
loop_
_geom_bond_atom_site_label_1
_geom_bond_atom_site_label_2
_geom_bond_distance
_geom_bond_site_symmetry_2
O0 V3 1.725303 1_555
O0 V2 1.982042 1_655
O1 V1 1.692470 1_556
O1 V5 2.011618 1_555
O2 V2 1.764415 1_555
O2 V1 1.838685 1_555
O3 V5 1.725303 1_555
O3 V4 1.982042 1_565
O4 V1 1.659781 1_455
O4 V2 2.230093 1_555
O5 V3 1.642718 1_555
O5 V0 2.259315 1_655
O6 V4 1.643350 1_555
O6 V5 2.306132 1_555
O7 V2 1.643350 1_555
O7 V3 2.306132 1_555
O8 V0 1.659781 1_545
O8 V4 2.230093 1_555
O9 V5 1.642718 1_555
O9 V1 2.259315 1_566
O10 V4 1.764415 1_555
O10 V0 1.838685 1_555
O11 V0 1.692470 1_555
O11 V3 2.011618 1_555
F0 V3 1.946642 1_555
F0 V2 1.973355 1_565
F1 V4 1.883726 1_555
F1 V0 2.135154 1_645
F2 V3 1.934493 1_555
F2 V0 2.031778 1_645
F3 V5 1.946642 1_555
F3 V4 1.973355 1_655
F4 V5 1.934493 1_555
F4 V1 2.031778 1_466
F5 V2 1.883726 1_555
F5 V1 2.135154 1_465
