# generated using pymatgen
data_Li2Ti3FeO8
_symmetry_space_group_name_H-M   'P 1'
_cell_length_a   8.51397200
_cell_length_b   8.51464959
_cell_length_c   8.51715627
_cell_angle_alpha   89.78794101
_cell_angle_beta   89.80555274
_cell_angle_gamma   89.94048125
_symmetry_Int_Tables_number   1
_chemical_formula_structural   Li2Ti3FeO8
_chemical_formula_sum   'Li8 Ti12 Fe4 O32'
_cell_volume   617.43025833
_cell_formula_units_Z   4
loop_
 _symmetry_equiv_pos_site_id
 _symmetry_equiv_pos_as_xyz
  1  'x, y, z'
loop_
 _atom_site_type_symbol
 _atom_site_label
 _atom_site_symmetry_multiplicity
 _atom_site_fract_x
 _atom_site_fract_y
 _atom_site_fract_z
 _atom_site_occupancy
  Li  Li0  1  0.99922200  0.99993700  0.00023700  1
  Li  Li1  1  0.24983300  0.25078800  0.75021900  1
  Li  Li2  1  0.75094100  0.74882500  0.75129500  1
  Li  Li3  1  0.49902000  0.00049300  0.50052100  1
  Li  Li4  1  0.00180200  0.50178000  0.50096700  1
  Li  Li5  1  0.74767700  0.24783700  0.24865900  1
  Li  Li6  1  0.24987300  0.75106600  0.24964700  1
  Li  Li7  1  0.50156300  0.49943900  0.99848600  1
  Ti  Ti0  1  0.62723200  0.11864100  0.87125800  1
  Ti  Ti1  1  0.87263800  0.37709300  0.87602300  1
  Ti  Ti2  1  0.13051100  0.62364700  0.87817300  1
  Ti  Ti3  1  0.62913900  0.37705200  0.62431400  1
  Ti  Ti4  1  0.37544000  0.62954000  0.62096700  1
  Ti  Ti5  1  0.11864100  0.87589300  0.62818300  1
  Ti  Ti6  1  0.37634800  0.37067900  0.38128700  1
  Ti  Ti7  1  0.12213800  0.12787000  0.37464300  1
  Ti  Ti8  1  0.87849900  0.87462200  0.36903500  1
  Ti  Ti9  1  0.37478900  0.13275600  0.12090000  1
  Ti  Ti10  1  0.61911300  0.87349700  0.12927000  1
  Ti  Ti11  1  0.87407500  0.62193800  0.12614300  1
  Fe  Fe0  1  0.37424100  0.87568800  0.87490700  1
  Fe  Fe1  1  0.87496500  0.12428800  0.62534800  1
  Fe  Fe2  1  0.62443900  0.62540200  0.37500400  1
  Fe  Fe3  1  0.12593800  0.37509600  0.12483100  1
  O  O0  1  0.39180800  0.12825000  0.89797500  1
  O  O1  1  0.62950600  0.89723200  0.89261700  1
  O  O2  1  0.88678000  0.61095300  0.88864100  1
  O  O3  1  0.85839500  0.14794300  0.87506800  1
  O  O4  1  0.10203300  0.39163700  0.87597300  1
  O  O5  1  0.63914700  0.36335300  0.86125000  1
  O  O6  1  0.35252900  0.62079700  0.85733000  1
  O  O7  1  0.12112000  0.85788000  0.85167300  1
  O  O8  1  0.62077400  0.14350400  0.64767400  1
  O  O9  1  0.85434700  0.37558200  0.64138000  1
  O  O10  1  0.13827000  0.63825100  0.63786700  1
  O  O11  1  0.60213800  0.60651600  0.62897900  1
  O  O12  1  0.35926200  0.85248300  0.62652000  1
  O  O13  1  0.38700600  0.38651200  0.61087200  1
  O  O14  1  0.12927400  0.10150800  0.60611700  1
  O  O15  1  0.89126900  0.87477700  0.60213600  1
  O  O16  1  0.60794300  0.37393300  0.39667700  1
  O  O17  1  0.37513000  0.60266600  0.39197500  1
  O  O18  1  0.11119400  0.88716100  0.38706400  1
  O  O19  1  0.14190700  0.35372200  0.37516700  1
  O  O20  1  0.89629800  0.10796600  0.37378400  1
  O  O21  1  0.36284700  0.13899300  0.36300000  1
  O  O22  1  0.64731900  0.87573400  0.35802900  1
  O  O23  1  0.87505000  0.64184600  0.35361800  1
  O  O24  1  0.37621300  0.35893600  0.14776000  1
  O  O25  1  0.14855800  0.12072600  0.14395100  1
  O  O26  1  0.86370600  0.86248100  0.13928400  1
  O  O27  1  0.39716900  0.89051900  0.12334900  1
  O  O28  1  0.64358800  0.64769400  0.12110700  1
  O  O29  1  0.61128900  0.11157900  0.11191600  1
  O  O30  1  0.87347500  0.39587800  0.10857000  1
  O  O31  1  0.10673000  0.62926600  0.10236100  1
loop_
_geom_bond_atom_site_label_1
_geom_bond_atom_site_label_2
_geom_bond_distance
_geom_bond_site_symmetry_2
Li0 O26 2.021589 1_555
Li0 O7 2.034958 1_654
Li0 O3 2.039086 1_564
Li0 O25 2.048216 1_665
Li1 O13 2.022697 1_555
Li1 O0 2.032598 1_555
Li1 O4 2.041118 1_555
Li1 O14 2.048988 1_555
Li2 O2 2.019975 1_555
Li2 O1 2.028449 1_555
Li2 O15 2.042979 1_555
Li2 O11 2.044529 1_555
Li3 O21 2.025565 1_555
Li3 O12 2.034744 1_545
Li3 O8 2.037373 1_555
Li3 O22 2.047407 1_545
Li4 O10 2.020349 1_555
Li4 O9 2.035692 1_455
Li4 O23 2.038963 1_455
Li4 O19 2.039211 1_555
Li5 O29 2.018130 1_555
Li5 O30 2.035353 1_555
Li5 O20 2.037610 1_555
Li5 O16 2.038296 1_555
Li6 O18 2.025970 1_555
Li6 O27 2.030817 1_555
Li6 O31 2.038899 1_555
Li6 O17 2.048912 1_555
Li7 O5 2.019637 1_555
Li7 O6 2.030177 1_555
Li7 O28 2.041542 1_556
Li7 O24 2.041765 1_556
Fe0 O12 2.129750 1_555
Fe0 O27 2.129888 1_556
Fe0 O0 2.165529 1_565
Fe0 O7 2.170312 1_555
Fe0 O6 2.184089 1_555
Fe0 O1 2.187002 1_555
Fe1 O15 2.138728 1_545
Fe1 O3 2.141324 1_555
Fe1 O9 2.151491 1_555
Fe1 O20 2.154667 1_555
Fe1 O8 2.177908 1_555
Fe1 O14 2.179314 1_655
Fe2 O17 2.135979 1_555
Fe2 O22 2.144875 1_555
Fe2 O23 2.145514 1_555
Fe2 O16 2.153122 1_555
Fe2 O28 2.175675 1_555
Fe2 O11 2.176191 1_555
Fe3 O4 2.134119 1_554
Fe3 O19 2.143996 1_555
Fe3 O24 2.144654 1_555
Fe3 O30 2.161419 1_455
Fe3 O31 2.177936 1_555
Fe3 O25 2.179758 1_555
O0 Ti9 1.904243 1_556
O0 Ti0 2.018110 1_555
O1 Ti0 1.893392 1_565
O1 Ti10 2.026615 1_556
O2 Ti1 1.998309 1_555
O2 Ti11 2.027864 1_556
O2 Ti2 2.079637 1_655
O3 Ti1 1.955071 1_555
O3 Ti0 1.984513 1_555
O4 Ti1 1.957112 1_455
O4 Ti2 1.990722 1_555
O5 Ti1 1.995920 1_555
O5 Ti3 2.023037 1_555
O5 Ti0 2.087622 1_555
O6 Ti2 1.898111 1_555
O6 Ti4 2.023013 1_555
O7 Ti5 1.909289 1_555
O7 Ti2 2.007853 1_555
O8 Ti0 1.916220 1_555
O8 Ti3 1.999094 1_555
O9 Ti3 1.923432 1_555
O9 Ti1 2.005166 1_555
O10 Ti4 2.025197 1_555
O10 Ti5 2.031549 1_555
O10 Ti2 2.050883 1_555
O11 Ti4 1.941233 1_555
O11 Ti3 1.967578 1_555
O12 Ti4 1.903880 1_555
O12 Ti5 2.058115 1_555
O13 Ti6 1.962963 1_555
O13 Ti3 2.066548 1_555
O13 Ti4 2.073625 1_555
O14 Ti5 1.931698 1_545
O14 Ti7 1.984540 1_555
O15 Ti5 1.949294 1_655
O15 Ti8 1.988706 1_555
O16 Ti3 1.948091 1_555
O16 Ti6 1.976819 1_555
O17 Ti4 1.964590 1_555
O17 Ti6 1.977736 1_555
O18 Ti8 1.990626 1_455
O18 Ti7 2.054085 1_565
O18 Ti5 2.056723 1_555
O19 Ti7 1.930599 1_555
O19 Ti6 2.002258 1_555
O20 Ti7 1.930466 1_655
O20 Ti8 1.993340 1_545
O21 Ti6 1.982923 1_555
O21 Ti7 2.053718 1_555
O21 Ti9 2.065041 1_555
O22 Ti10 1.964093 1_555
O22 Ti8 1.970820 1_555
O23 Ti11 1.945513 1_555
O23 Ti8 1.987090 1_555
O24 Ti9 1.940280 1_555
O24 Ti6 1.991871 1_555
O25 Ti9 1.938217 1_555
O25 Ti7 1.978067 1_555
O26 Ti8 1.964411 1_555
O26 Ti11 2.053400 1_555
O26 Ti10 2.086491 1_555
O27 Ti10 1.895852 1_555
O27 Ti9 2.071183 1_565
O28 Ti10 1.935157 1_555
O28 Ti11 1.974942 1_555
O29 Ti9 2.022640 1_555
O29 Ti10 2.033059 1_545
O29 Ti0 2.054414 1_554
O30 Ti11 1.931198 1_555
O30 Ti1 1.987714 1_554
O31 Ti2 1.920232 1_554
O31 Ti11 1.991482 1_455
