# generated using pymatgen
data_Li5TiAs3
_symmetry_space_group_name_H-M   'P 1'
_cell_length_a   6.08352500
_cell_length_b   7.41479910
_cell_length_c   8.51528984
_cell_angle_alpha   106.65831189
_cell_angle_beta   90.00000000
_cell_angle_gamma   114.21919037
_symmetry_Int_Tables_number   1
_chemical_formula_structural   Li5TiAs3
_chemical_formula_sum   'Li10 Ti2 As6'
_cell_volume   332.54508873
_cell_formula_units_Z   2
loop_
 _symmetry_equiv_pos_site_id
 _symmetry_equiv_pos_as_xyz
  1  'x, y, z'
loop_
 _atom_site_type_symbol
 _atom_site_label
 _atom_site_symmetry_multiplicity
 _atom_site_fract_x
 _atom_site_fract_y
 _atom_site_fract_z
 _atom_site_occupancy
  Li  Li0  1  0.92919400  0.65513600  0.42333300  1
  Li  Li1  1  0.58433000  0.34486400  0.07666700  1
  Li  Li2  1  0.91581900  0.65766000  0.90363500  1
  Li  Li3  1  0.41381400  0.65556000  0.92337100  1
  Li  Li4  1  0.57347800  0.34234000  0.59636500  1
  Li  Li5  1  0.26955500  0.00000000  0.25000000  1
  Li  Li6  1  0.42652200  0.65766000  0.40363500  1
  Li  Li7  1  0.08418100  0.34234000  0.09636500  1
  Li  Li8  1  0.73044500  0.00000000  0.75000000  1
  Li  Li9  1  0.07080600  0.34486400  0.57666700  1
  Ti  Ti0  1  0.23487800  0.00000000  0.75000000  1
  Ti  Ti1  1  0.76512200  0.00000000  0.25000000  1
  As  As0  1  0.00000000  0.00000000  0.00000000  1
  As  As1  1  0.62347400  0.68944500  0.67311000  1
  As  As2  1  0.00000000  0.00000000  0.50000000  1
  As  As3  1  0.37652600  0.31055500  0.32689000  1
  As  As4  1  0.68708100  0.68944500  0.17311000  1
  As  As5  1  0.31291900  0.31055500  0.82689000  1
loop_
_geom_bond_atom_site_label_1
_geom_bond_atom_site_label_2
_geom_bond_distance
_geom_bond_site_symmetry_2
As0 Li2 2.262352 1_444
As0 Li7 2.262352 1_555
As0 Ti0 2.563903 1_554
As0 Ti1 2.563903 1_455
As0 Li8 2.687187 1_454
As0 Li5 2.687187 1_555
As1 Li8 2.015134 1_565
As1 Li4 2.353089 1_555
As1 Li6 2.492961 1_555
As1 Li3 2.505066 1_555
As1 Li2 2.771466 1_555
As1 Li0 2.850536 1_555
As2 Li9 2.299932 1_555
As2 Li0 2.299932 1_445
As2 Ti0 2.563903 1_555
As2 Ti1 2.563903 1_455
As2 Li8 2.687187 1_455
As2 Li5 2.687187 1_555
As3 Li5 2.015134 1_555
As3 Li6 2.353089 1_555
As3 Li4 2.492961 1_555
As3 Li1 2.499950 1_555
As3 Li7 2.771466 1_555
As3 Li9 2.850536 1_555
As4 Ti1 2.048214 1_565
As4 Li1 2.253851 1_555
As4 Li6 2.525905 1_555
As4 Li3 2.588472 1_554
As4 Li2 2.686332 1_554
As4 Li0 2.718882 1_555
As5 Ti0 2.048214 1_555
As5 Li3 2.258892 1_555
As5 Li4 2.525905 1_555
As5 Li1 2.580684 1_556
As5 Li7 2.686332 1_556
As5 Li9 2.718882 1_555
