# generated using pymatgen
data_Li2Fe(SiO3)2
_symmetry_space_group_name_H-M   'P 1'
_cell_length_a   7.34169101
_cell_length_b   10.36894686
_cell_length_c   7.36533101
_cell_angle_alpha   110.80597863
_cell_angle_beta   90.00034318
_cell_angle_gamma   89.99649324
_symmetry_Int_Tables_number   1
_chemical_formula_structural   Li2Fe(SiO3)2
_chemical_formula_sum   'Li8 Fe4 Si8 O24'
_cell_volume   524.12688245
_cell_formula_units_Z   4
loop_
 _symmetry_equiv_pos_site_id
 _symmetry_equiv_pos_as_xyz
  1  'x, y, z'
loop_
 _atom_site_type_symbol
 _atom_site_label
 _atom_site_symmetry_multiplicity
 _atom_site_fract_x
 _atom_site_fract_y
 _atom_site_fract_z
 _atom_site_occupancy
  Li  Li0  1  0.71928300  0.83158800  0.19293700  1
  Li  Li1  1  0.21930800  0.83158900  0.69294700  1
  Li  Li2  1  0.46941300  0.66746100  0.36090600  1
  Li  Li3  1  0.96938100  0.66748400  0.86089300  1
  Li  Li4  1  0.46934300  0.33162400  0.63576400  1
  Li  Li5  1  0.96932400  0.33157500  0.13574900  1
  Li  Li6  1  0.71943600  0.16745400  0.80374900  1
  Li  Li7  1  0.21943800  0.16744800  0.30372300  1
  Fe  Fe0  1  0.21844100  0.49958200  0.49836900  1
  Fe  Fe1  1  0.46858700  0.99952100  0.49835900  1
  Fe  Fe2  1  0.71874000  0.49950600  0.99833400  1
  Fe  Fe3  1  0.96840600  0.99951600  0.99837900  1
  Si  Si0  1  0.28641700  0.83467900  0.10957100  1
  Si  Si1  1  0.78641500  0.83468600  0.60959200  1
  Si  Si2  1  0.53640700  0.66430700  0.77433400  1
  Si  Si3  1  0.03643500  0.66432400  0.27430900  1
  Si  Si4  1  0.53632300  0.33475100  0.22232200  1
  Si  Si5  1  0.03637800  0.33474100  0.72233400  1
  Si  Si6  1  0.28634900  0.16436900  0.88715300  1
  Si  Si7  1  0.78635900  0.16437400  0.38714500  1
  O  O0  1  0.31851500  0.98790400  0.26673100  1
  O  O1  1  0.81856500  0.98790000  0.76670200  1
  O  O2  1  0.56838500  0.51112000  0.77827200  1
  O  O3  1  0.06839700  0.51110200  0.27812700  1
  O  O4  1  0.56838100  0.48792900  0.21827700  1
  O  O5  1  0.06844300  0.48794300  0.71837100  1
  O  O6  1  0.31839700  0.01109900  0.72998200  1
  O  O7  1  0.81843200  0.01110200  0.23001800  1
  O  O8  1  0.13237500  0.82969600  0.94767900  1
  O  O9  1  0.63238400  0.82974700  0.44769400  1
  O  O10  1  0.38233500  0.66932800  0.61746700  1
  O  O11  1  0.88239900  0.66935600  0.11741600  1
  O  O12  1  0.38227100  0.32982200  0.37920700  1
  O  O13  1  0.88237400  0.32980700  0.87923700  1
  O  O14  1  0.13232200  0.16932100  0.04902200  1
  O  O15  1  0.63235400  0.16931000  0.54902800  1
  O  O16  1  0.23445300  0.72764100  0.22866700  1
  O  O17  1  0.73441500  0.72763700  0.72865000  1
  O  O18  1  0.48444100  0.77138900  0.00050300  1
  O  O19  1  0.98442200  0.77136300  0.50049700  1
  O  O20  1  0.48439100  0.22762600  0.99618700  1
  O  O21  1  0.98438400  0.22765900  0.49620200  1
  O  O22  1  0.23438600  0.27141800  0.76802300  1
  O  O23  1  0.73435600  0.27142900  0.26804300  1
loop_
_geom_bond_atom_site_label_1
_geom_bond_atom_site_label_2
_geom_bond_distance
_geom_bond_site_symmetry_2
Li0 O7 1.925663 1_565
Li0 O11 1.976935 1_555
Li0 O9 1.988370 1_555
Li0 O18 2.177781 1_555
Li1 O6 1.925527 1_565
Li1 O10 1.976771 1_555
Li1 O8 1.988462 1_555
Li1 O19 2.178117 1_455
Li2 O4 1.925483 1_555
Li2 O9 1.976832 1_555
Li2 O10 1.988443 1_555
Li2 O16 2.178365 1_555
Li3 O5 1.925656 1_655
Li3 O8 1.976369 1_655
Li3 O11 1.987935 1_556
Li3 O17 2.178292 1_555
Li4 O2 1.925300 1_555
Li4 O15 1.977095 1_555
Li4 O12 1.988616 1_555
Li4 O22 2.178619 1_555
Li5 O3 1.925442 1_655
Li5 O14 1.976578 1_655
Li5 O13 1.988130 1_554
Li5 O23 2.178547 1_555
Li6 O1 1.925953 1_545
Li6 O13 1.977212 1_555
Li6 O15 1.988596 1_555
Li6 O20 2.178915 1_555
Li7 O0 1.925796 1_545
Li7 O12 1.976910 1_555
Li7 O14 1.988597 1_555
Li7 O21 2.179155 1_455
Fe0 O5 1.997976 1_555
Fe0 O3 1.999186 1_555
Fe0 O12 2.053695 1_555
Fe0 O10 2.053930 1_555
Fe1 O0 1.998232 1_555
Fe1 O6 1.998781 1_565
Fe1 O9 2.053624 1_555
Fe1 O15 2.053738 1_565
Fe2 O4 1.998853 1_556
Fe2 O2 1.999681 1_555
Fe2 O13 2.052348 1_555
Fe2 O11 2.053666 1_556
Fe3 O1 1.997601 1_555
Fe3 O7 1.997984 1_566
Fe3 O14 2.054534 1_666
Fe3 O8 2.054710 1_655
O0 Si0 1.616539 1_555
O1 Si1 1.616377 1_555
O2 Si2 1.616050 1_555
O3 Si3 1.616068 1_555
O4 Si4 1.616361 1_555
O5 Si5 1.616393 1_555
O6 Si6 1.616829 1_555
O7 Si7 1.616752 1_555
O8 Si0 1.630853 1_556
O9 Si1 1.630933 1_555
O10 Si2 1.630894 1_555
O11 Si3 1.630881 1_655
O12 Si4 1.630631 1_555
O13 Si5 1.630497 1_655
O14 Si6 1.630734 1_554
O15 Si7 1.630734 1_555
O16 Si3 1.677633 1_555
O16 Si0 1.684781 1_555
O17 Si2 1.677737 1_555
O17 Si1 1.684726 1_555
O18 Si0 1.677796 1_555
O18 Si2 1.685020 1_554
O19 Si1 1.677831 1_555
O19 Si3 1.685067 1_655
O20 Si6 1.677811 1_555
O20 Si4 1.684938 1_556
O21 Si7 1.677825 1_555
O21 Si5 1.684887 1_655
O22 Si5 1.677642 1_555
O22 Si6 1.685032 1_555
O23 Si4 1.677877 1_555
O23 Si7 1.684995 1_555
