# generated using pymatgen
data_K4Li5Ti8(PO5)8
_symmetry_space_group_name_H-M   'P 1'
_cell_length_a   6.48347700
_cell_length_b   10.64119377
_cell_length_c   12.85995817
_cell_angle_alpha   89.49353110
_cell_angle_beta   89.94433914
_cell_angle_gamma   89.83379603
_symmetry_Int_Tables_number   1
_chemical_formula_structural   K4Li5Ti8(PO5)8
_chemical_formula_sum   'K4 Li5 Ti8 P8 O40'
_cell_volume   887.19460666
_cell_formula_units_Z   1
loop_
 _symmetry_equiv_pos_site_id
 _symmetry_equiv_pos_as_xyz
  1  'x, y, z'
loop_
 _atom_site_type_symbol
 _atom_site_label
 _atom_site_symmetry_multiplicity
 _atom_site_fract_x
 _atom_site_fract_y
 _atom_site_fract_z
 _atom_site_occupancy
  K  K0  1  0.36299800  0.09931900  0.90683100  1
  K  K1  1  0.86373100  0.59863000  0.59398500  1
  K  K2  1  0.13515700  0.10166700  0.41032300  1
  K  K3  1  0.61685400  0.57536600  0.07937800  1
  Li  Li0  1  0.93097000  0.99313000  0.89291000  1
  Li  Li1  1  0.43180600  0.49355000  0.60602200  1
  Li  Li2  1  0.56354800  0.00149000  0.39748600  1
  Li  Li3  1  0.76803300  0.77868500  0.25590900  1
  Li  Li4  1  0.06789600  0.49231700  0.10387000  1
  Ti  Ti0  1  0.00181700  0.51175300  0.86508100  1
  Ti  Ti1  1  0.25260600  0.76385900  0.75214000  1
  Ti  Ti2  1  0.75322500  0.26338500  0.74757800  1
  Ti  Ti3  1  0.50179700  0.01341900  0.63458200  1
  Ti  Ti4  1  0.49924200  0.51373600  0.36517400  1
  Ti  Ti5  1  0.25173500  0.76235400  0.25108100  1
  Ti  Ti6  1  0.74732000  0.26413100  0.24805200  1
  Ti  Ti7  1  0.00022300  0.01331800  0.13419200  1
  P  P0  1  0.15698700  0.76087300  0.00105600  1
  P  P1  1  0.49902900  0.51161000  0.81538300  1
  P  P2  1  0.99869000  0.01246500  0.68349900  1
  P  P3  1  0.65756500  0.26212500  0.49886800  1
  P  P4  1  0.34191800  0.76165500  0.50067200  1
  P  P5  1  0.99833300  0.51328200  0.31588800  1
  P  P6  1  0.50553500  0.01210200  0.18427000  1
  P  P7  1  0.84154800  0.26071300  0.99901200  1
  O  O0  1  0.02410000  0.63898800  0.99942500  1
  O  O1  1  0.97585400  0.38138400  0.99399600  1
  O  O2  1  0.69908800  0.24843900  0.90274200  1
  O  O3  1  0.29775300  0.77282500  0.90341100  1
  O  O4  1  0.31129100  0.48612900  0.88689600  1
  O  O5  1  0.68954800  0.53817200  0.88272800  1
  O  O6  1  0.95570100  0.38758200  0.77359000  1
  O  O7  1  0.04050600  0.64056600  0.77580700  1
  O  O8  1  0.95706400  0.12174900  0.76200700  1
  O  O9  1  0.03741100  0.90044300  0.76082700  1
  O  O10  1  0.53707500  0.40060000  0.73891300  1
  O  O11  1  0.45656700  0.62230300  0.73736200  1
  O  O12  1  0.54137100  0.14000600  0.72437900  1
  O  O13  1  0.45570600  0.88699000  0.72589600  1
  O  O14  1  0.18872400  0.04025700  0.61519400  1
  O  O15  1  0.81009400  0.98769700  0.61380400  1
  O  O16  1  0.79771500  0.27425900  0.59613700  1
  O  O17  1  0.19842200  0.74946300  0.59723900  1
  O  O18  1  0.47620700  0.88226500  0.50465000  1
  O  O19  1  0.52398100  0.14059900  0.50227400  1
  O  O20  1  0.47520800  0.63981700  0.49718300  1
  O  O21  1  0.52317700  0.38267300  0.49283000  1
  O  O22  1  0.80189000  0.24918800  0.40243600  1
  O  O23  1  0.20159700  0.77388900  0.40267400  1
  O  O24  1  0.19214600  0.49212500  0.38192100  1
  O  O25  1  0.81133000  0.53839500  0.38678300  1
  O  O26  1  0.54482300  0.38948800  0.27361300  1
  O  O27  1  0.48227600  0.64706400  0.27228700  1
  O  O28  1  0.54169800  0.12123900  0.26264800  1
  O  O29  1  0.48267300  0.89618400  0.26090300  1
  O  O30  1  0.96354900  0.40285300  0.23860100  1
  O  O31  1  0.02523800  0.62875300  0.23926100  1
  O  O32  1  0.95913800  0.13883400  0.22446600  1
  O  O33  1  0.02569600  0.88112000  0.22760300  1
  O  O34  1  0.31166300  0.03425600  0.11851800  1
  O  O35  1  0.69211800  0.98758100  0.11300400  1
  O  O36  1  0.69976800  0.27449800  0.09634500  1
  O  O37  1  0.30246000  0.74857400  0.09730800  1
  O  O38  1  0.02461500  0.88213200  0.00593700  1
  O  O39  1  0.97589700  0.13926300  0.00355800  1
loop_
_geom_bond_atom_site_label_1
_geom_bond_atom_site_label_2
_geom_bond_distance
_geom_bond_site_symmetry_2
K0 O12 2.647604 1_555
K0 O2 2.699498 1_555
K0 O34 2.822626 1_556
K0 O39 2.832659 1_456
K1 O7 2.647004 1_655
K1 O17 2.703371 1_655
K1 O25 2.767603 1_555
K1 O20 2.842022 1_555
K2 O22 2.668565 1_455
K2 O32 2.675332 1_455
K2 O14 2.731110 1_555
K2 O19 2.818778 1_555
K3 O5 2.605469 1_554
K3 O27 2.742842 1_555
K3 O37 2.755009 1_555
K3 O0 2.912022 1_654
Li0 O38 1.960529 1_656
Li0 O9 2.087489 1_655
Li0 O39 2.137812 1_566
Li0 O8 2.166972 1_565
Li1 O21 1.971434 1_555
Li1 O10 2.081631 1_555
Li1 O20 2.103345 1_555
Li1 O11 2.190532 1_555
Li2 O18 1.949673 1_545
Li2 O19 2.026176 1_555
Li2 O28 2.147324 1_555
Li2 O29 2.157722 1_545
Li3 O33 2.028247 1_655
Li3 O29 2.231183 1_555
Li3 O31 2.315611 1_655
Li3 O27 2.334016 1_555
Li4 O1 1.944559 1_454
Li4 O0 2.069243 1_554
Li4 O30 2.082865 1_455
Li4 O31 2.292874 1_555
O0 P0 1.559473 1_556
O0 Ti0 2.209475 1_555
O1 P7 1.554408 1_555
O1 Ti0 2.159046 1_655
O2 P7 1.551985 1_555
O2 Ti2 2.030635 1_555
O3 P0 1.556131 1_556
O3 Ti1 1.970704 1_555
O4 P1 1.547960 1_555
O4 Ti0 2.043412 1_555
O5 P1 1.537581 1_555
O5 Ti0 2.055828 1_655
O6 Ti0 1.802798 1_655
O6 Ti2 1.897519 1_555
O7 Ti0 1.798183 1_555
O7 Ti1 1.925502 1_555
O8 P2 1.569369 1_555
O8 Ti2 2.009123 1_555
O9 P2 1.565470 1_465
O9 Ti1 2.015520 1_555
O10 P1 1.562600 1_555
O10 Ti2 2.023336 1_555
O11 P1 1.564519 1_555
O11 Ti1 2.011673 1_555
O12 Ti3 1.801097 1_555
O12 Ti2 1.928091 1_555
O13 Ti3 1.803321 1_565
O13 Ti1 1.888376 1_555
O14 P2 1.540289 1_455
O14 Ti3 2.064021 1_555
O15 P2 1.541455 1_565
O15 Ti3 2.034391 1_565
O16 P3 1.553308 1_555
O16 Ti2 1.970930 1_555
O17 P4 1.555693 1_555
O17 Ti1 2.030293 1_555
O18 P4 1.554220 1_555
O18 Ti3 2.193264 1_565
O19 P3 1.558772 1_555
O19 Ti3 2.169608 1_555
O20 P4 1.556983 1_555
O20 Ti4 2.178256 1_555
O21 P3 1.550030 1_555
O21 Ti4 2.150106 1_555
O22 P3 1.559625 1_555
O22 Ti6 2.021786 1_555
O23 P4 1.559326 1_555
O23 Ti5 1.980902 1_555
O24 P5 1.532268 1_455
O24 Ti4 2.016059 1_555
O25 P5 1.540418 1_555
O25 Ti4 2.060522 1_555
O26 Ti4 1.801783 1_555
O26 Ti6 1.899444 1_555
O27 Ti4 1.849670 1_555
O27 Ti5 1.948808 1_555
O28 P6 1.562809 1_555
O28 Ti6 2.032433 1_555
O29 P6 1.579240 1_565
O29 Ti5 2.074082 1_555
O30 P5 1.562749 1_555
O30 Ti6 2.041498 1_555
O31 P5 1.578230 1_455
O31 Ti5 2.053555 1_555
O32 Ti7 1.796489 1_655
O32 Ti6 1.936861 1_555
O33 Ti7 1.848891 1_565
O33 Ti5 1.954352 1_555
O34 P6 1.532104 1_555
O34 Ti7 2.041696 1_555
O35 P6 1.540016 1_565
O35 Ti7 2.035970 1_665
O36 P7 1.559959 1_554
O36 Ti6 1.977518 1_555
O37 P0 1.561259 1_555
O37 Ti5 2.010922 1_555
O38 P0 1.549316 1_555
O38 Ti7 2.175556 1_565
O39 P7 1.557114 1_554
O39 Ti7 2.145398 1_655
