# generated using pymatgen
data_Li10CoNi9O20
_symmetry_space_group_name_H-M   'P 1'
_cell_length_a   2.91070700
_cell_length_b   11.03449957
_cell_length_c   11.61165946
_cell_angle_alpha   113.75568955
_cell_angle_beta   90.45171314
_cell_angle_gamma   97.47688762
_symmetry_Int_Tables_number   1
_chemical_formula_structural   Li10CoNi9O20
_chemical_formula_sum   'Li10 Co1 Ni9 O20'
_cell_volume   337.69603453
_cell_formula_units_Z   1
loop_
 _symmetry_equiv_pos_site_id
 _symmetry_equiv_pos_as_xyz
  1  'x, y, z'
loop_
 _atom_site_type_symbol
 _atom_site_label
 _atom_site_symmetry_multiplicity
 _atom_site_fract_x
 _atom_site_fract_y
 _atom_site_fract_z
 _atom_site_occupancy
  Li  Li0  1  0.01096400  0.99865500  0.74987600  1
  Li  Li1  1  0.78899400  0.60013500  0.35098600  1
  Li  Li2  1  0.58599000  0.19911400  0.45136600  1
  Li  Li3  1  0.80011100  0.60000900  0.85190600  1
  Li  Li4  1  0.59903600  0.19921000  0.94942000  1
  Li  Li5  1  0.39391800  0.80076900  0.04929000  1
  Li  Li6  1  0.40506600  0.80035300  0.54948000  1
  Li  Li7  1  0.20060200  0.40120300  0.14772400  1
  Li  Li8  1  0.99561400  0.00033500  0.24888200  1
  Li  Li9  1  0.20836400  0.40085700  0.65070700  1
  Co  Co0  1  0.62233000  0.19968300  0.70038800  1
  Ni  Ni0  1  0.99979500  0.00069300  0.99962000  1
  Ni  Ni1  1  0.19950300  0.40059400  0.89852200  1
  Ni  Ni2  1  0.99217100  0.99934300  0.50204600  1
  Ni  Ni3  1  0.79744300  0.60104200  0.09948000  1
  Ni  Ni4  1  0.56914400  0.20055800  0.19974900  1
  Ni  Ni5  1  0.82421200  0.59981400  0.59985300  1
  Ni  Ni6  1  0.39327500  0.80062000  0.30040900  1
  Ni  Ni7  1  0.17327600  0.39871800  0.40041800  1
  Ni  Ni8  1  0.43055100  0.79982700  0.79984100  1
  O  O0  1  0.85214500  0.80685800  0.42083700  1
  O  O1  1  0.93428200  0.79260600  0.17886300  1
  O  O2  1  0.46790200  0.00968100  0.12215800  1
  O  O3  1  0.66123600  0.40871100  0.01997400  1
  O  O4  1  0.96761900  0.79072800  0.67825800  1
  O  O5  1  0.72686100  0.40763400  0.52273800  1
  O  O6  1  0.62508300  0.39043500  0.27878000  1
  O  O7  1  0.88706700  0.80954800  0.92265500  1
  O  O8  1  0.73838200  0.39151800  0.77803700  1
  O  O9  1  0.54601000  0.00778500  0.62233100  1
  O  O10  1  0.34810400  0.60925700  0.22036300  1
  O  O11  1  0.43761300  0.99260900  0.38128700  1
  O  O12  1  0.37725000  0.60898900  0.72147400  1
  O  O13  1  0.10938900  0.19189800  0.07651500  1
  O  O14  1  0.03222000  0.20805300  0.32193000  1
  O  O15  1  0.26705800  0.59024900  0.47743300  1
  O  O16  1  0.53419600  0.99181900  0.87702000  1
  O  O17  1  0.24739700  0.59362400  0.97905100  1
  O  O18  1  0.11923000  0.19292200  0.58622800  1
  O  O19  1  0.13325600  0.20675000  0.81462700  1
loop_
_geom_bond_atom_site_label_1
_geom_bond_atom_site_label_2
_geom_bond_distance
_geom_bond_site_symmetry_2
Li0 O9 2.039404 1_465
Li0 O16 2.050827 1_455
Li0 O19 2.087284 1_565
Li0 O4 2.087437 1_455
Li0 O16 2.142179 1_555
Li0 O9 2.178224 1_565
Li1 O10 2.020756 1_555
Li1 O15 2.059200 1_655
Li1 O0 2.071931 1_555
Li1 O6 2.104327 1_555
Li1 O15 2.144003 1_555
Li1 O10 2.253531 1_655
Li2 O14 2.018047 1_655
Li2 O11 2.070142 1_545
Li2 O5 2.088525 1_555
Li2 O18 2.097218 1_555
Li2 O18 2.222936 1_655
Li2 O14 2.233687 1_555
Li3 O12 1.985400 1_555
Li3 O17 1.989215 1_655
Li3 O8 2.088271 1_555
Li3 O7 2.097399 1_555
Li3 O17 2.205578 1_555
Li3 O12 2.289834 1_655
Li4 O16 2.077133 1_545
Li4 O13 2.077226 1_556
Li4 O19 2.096557 1_555
Li4 O3 2.100229 1_556
Li4 O13 2.117471 1_656
Li4 O19 2.232531 1_655
Li5 O1 2.042365 1_455
Li5 O17 2.076184 1_554
Li5 O7 2.084190 1_554
Li5 O2 2.091142 1_565
Li5 O7 2.113252 1_454
Li5 O1 2.203266 1_555
Li6 O4 1.997824 1_455
Li6 O0 2.005646 1_555
Li6 O9 2.076814 1_565
Li6 O15 2.103777 1_555
Li6 O0 2.214758 1_455
Li6 O4 2.250123 1_555
Li7 O6 2.002679 1_555
Li7 O3 2.026435 1_555
Li7 O10 2.084224 1_555
Li7 O13 2.094442 1_555
Li7 O3 2.183610 1_455
Li7 O6 2.295688 1_455
Li8 O11 2.032021 1_645
Li8 O2 2.045218 1_655
Li8 O1 2.082486 1_545
Li8 O14 2.086392 1_655
Li8 O2 2.159414 1_555
Li8 O11 2.262274 1_545
Li9 O8 2.045958 1_455
Li9 O5 2.064411 1_455
Li9 O18 2.085755 1_555
Li9 O12 2.090632 1_555
Li9 O5 2.141673 1_555
Li9 O8 2.169053 1_555
Co0 O8 1.918154 1_555
Co0 O9 1.919056 1_555
Co0 O19 1.941009 1_555
Co0 O18 1.941244 1_555
Co0 O19 1.957728 1_655
Co0 O18 1.957870 1_655
Ni0 O7 1.910922 1_545
Ni0 O13 1.911295 1_656
Ni0 O16 1.922383 1_545
Ni0 O2 1.926507 1_656
Ni0 O2 2.095774 1_556
Ni0 O16 2.101898 1_645
Ni1 O8 1.895075 1_455
Ni1 O3 1.907912 1_556
Ni1 O17 1.935629 1_555
Ni1 O19 1.942236 1_555
Ni1 O8 2.095272 1_555
Ni1 O3 2.102644 1_456
Ni2 O9 1.897685 1_565
Ni2 O11 1.903302 1_655
Ni2 O0 1.929141 1_555
Ni2 O18 1.939445 1_665
Ni2 O9 2.092561 1_665
Ni2 O11 2.103894 1_555
Ni3 O17 1.908402 1_654
Ni3 O10 1.909537 1_555
Ni3 O1 1.918798 1_555
Ni3 O3 1.926198 1_555
Ni3 O17 2.088975 1_554
Ni3 O10 2.090853 1_655
Ni4 O6 1.902176 1_555
Ni4 O2 1.907928 1_555
Ni4 O13 1.916748 1_555
Ni4 O14 1.919036 1_655
Ni4 O14 2.106209 1_555
Ni4 O13 2.119885 1_655
Ni5 O15 1.907021 1_655
Ni5 O12 1.909244 1_555
Ni5 O4 1.913364 1_555
Ni5 O5 1.920632 1_555
Ni5 O12 2.098191 1_655
Ni5 O15 2.111866 1_555
Ni6 O0 1.900835 1_555
Ni6 O1 1.903570 1_455
Ni6 O10 1.919527 1_555
Ni6 O11 1.926312 1_555
Ni6 O0 2.103905 1_455
Ni6 O1 2.109545 1_555
Ni7 O14 1.910498 1_555
Ni7 O15 1.914206 1_555
Ni7 O5 1.914477 1_455
Ni7 O6 1.920748 1_555
Ni7 O6 2.090889 1_455
Ni7 O5 2.105582 1_555
Ni8 O7 1.902799 1_555
Ni8 O4 1.907733 1_455
Ni8 O12 1.911915 1_555
Ni8 O16 1.918880 1_555
Ni8 O4 2.099617 1_555
Ni8 O7 2.122301 1_455
