# generated using pymatgen
data_Fe8SiO12
_symmetry_space_group_name_H-M   'P 1'
_cell_length_a   6.00298400
_cell_length_b   8.48437600
_cell_length_c   9.11982238
_cell_angle_alpha   89.28485712
_cell_angle_beta   90.00000000
_cell_angle_gamma   90.00000000
_symmetry_Int_Tables_number   1
_chemical_formula_structural   Fe8SiO12
_chemical_formula_sum   'Fe16 Si2 O24'
_cell_volume   464.45072197
_cell_formula_units_Z   2
loop_
 _symmetry_equiv_pos_site_id
 _symmetry_equiv_pos_as_xyz
  1  'x, y, z'
loop_
 _atom_site_type_symbol
 _atom_site_label
 _atom_site_symmetry_multiplicity
 _atom_site_fract_x
 _atom_site_fract_y
 _atom_site_fract_z
 _atom_site_occupancy
  Fe  Fe0  1  0.00000000  0.00000000  0.00000000  1
  Fe  Fe1  1  0.98693200  0.49524500  0.66330700  1
  Fe  Fe2  1  0.01306800  0.50475500  0.33669300  1
  Fe  Fe3  1  0.25000000  0.61863300  0.99104400  1
  Fe  Fe4  1  0.25000000  0.86472500  0.67562400  1
  Fe  Fe5  1  0.25000000  0.24762700  0.83463100  1
  Fe  Fe6  1  0.25000000  0.21691100  0.50090000  1
  Fe  Fe7  1  0.25000000  0.24643400  0.16564500  1
  Fe  Fe8  1  0.50000000  0.00000000  0.00000000  1
  Fe  Fe9  1  0.48693200  0.50475500  0.33669300  1
  Fe  Fe10  1  0.51306800  0.49524500  0.66330700  1
  Fe  Fe11  1  0.75000000  0.38136700  0.00895600  1
  Fe  Fe12  1  0.75000000  0.75356600  0.83435500  1
  Fe  Fe13  1  0.75000000  0.78308900  0.49910000  1
  Fe  Fe14  1  0.75000000  0.13527500  0.32437600  1
  Fe  Fe15  1  0.75000000  0.75237300  0.16536900  1
  Si  Si0  1  0.25000000  0.86875700  0.32818600  1
  Si  Si1  1  0.75000000  0.13124300  0.67181400  1
  O  O0  1  0.01055300  0.24881300  0.01123700  1
  O  O1  1  0.98589800  0.74004900  0.67278500  1
  O  O2  1  0.02343000  0.75515700  0.33134800  1
  O  O3  1  0.25000000  0.00365900  0.83760400  1
  O  O4  1  0.25000000  0.49056700  0.81759800  1
  O  O5  1  0.25000000  0.47070900  0.50800200  1
  O  O6  1  0.25000000  0.97186600  0.48306900  1
  O  O7  1  0.25000000  0.99276200  0.18589800  1
  O  O8  1  0.25000000  0.49217000  0.17129800  1
  O  O9  1  0.51410200  0.74004900  0.67278500  1
  O  O10  1  0.47657000  0.75515700  0.33134800  1
  O  O11  1  0.48944700  0.24881300  0.01123700  1
  O  O12  1  0.51055300  0.75118700  0.98876300  1
  O  O13  1  0.52343000  0.24484300  0.66865200  1
  O  O14  1  0.48589800  0.25995100  0.32721500  1
  O  O15  1  0.75000000  0.50783000  0.82870200  1
  O  O16  1  0.75000000  0.52929100  0.49199800  1
  O  O17  1  0.75000000  0.00723800  0.81410200  1
  O  O18  1  0.75000000  0.02813400  0.51693100  1
  O  O19  1  0.75000000  0.50943300  0.18240200  1
  O  O20  1  0.75000000  0.99634100  0.16239600  1
  O  O21  1  0.01410200  0.25995100  0.32721500  1
  O  O22  1  0.97657000  0.24484300  0.66865200  1
  O  O23  1  0.98944700  0.75118700  0.98876300  1
loop_
_geom_bond_atom_site_label_1
_geom_bond_atom_site_label_2
_geom_bond_distance
_geom_bond_site_symmetry_2
Fe0 O20 2.108431 1_445
Fe0 O3 2.108431 1_554
Fe0 O0 2.115735 1_555
Fe0 O23 2.115735 1_444
Fe0 O7 2.264430 1_545
Fe0 O17 2.264430 1_454
Fe1 O15 2.076908 1_555
Fe1 O1 2.079894 1_555
Fe1 O4 2.115179 1_655
Fe1 O22 2.125366 1_555
Fe1 O16 2.129769 1_555
Fe1 O5 2.133215 1_655
Fe2 O8 2.076908 1_555
Fe2 O21 2.079894 1_555
Fe2 O19 2.115179 1_455
Fe2 O2 2.125366 1_555
Fe2 O5 2.129769 1_555
Fe2 O16 2.133215 1_455
Fe3 O12 1.926410 1_555
Fe3 O23 1.926410 1_455
Fe3 O4 1.930181 1_555
Fe3 O8 1.951812 1_556
Fe4 O3 1.901359 1_565
Fe4 O9 1.906249 1_555
Fe4 O1 1.906249 1_455
Fe4 O6 1.967295 1_555
Fe5 O4 2.065105 1_555
Fe5 O3 2.069755 1_555
Fe5 O11 2.158865 1_556
Fe5 O0 2.158865 1_556
Fe5 O22 2.233140 1_455
Fe5 O13 2.233140 1_555
Fe6 O6 2.087426 1_545
Fe6 O14 2.152488 1_555
Fe6 O21 2.152488 1_555
Fe6 O5 2.155099 1_555
Fe6 O22 2.258294 1_455
Fe6 O13 2.258294 1_555
Fe7 O11 2.012153 1_555
Fe7 O0 2.012153 1_555
Fe7 O14 2.047891 1_555
Fe7 O21 2.047891 1_555
Fe7 O8 2.086197 1_555
Fe7 O7 2.157862 1_545
Fe8 O20 2.108431 1_545
Fe8 O3 2.108431 1_554
Fe8 O11 2.115735 1_555
Fe8 O12 2.115735 1_544
Fe8 O7 2.264430 1_545
Fe8 O17 2.264430 1_554
Fe9 O8 2.076908 1_555
Fe9 O14 2.079894 1_555
Fe9 O19 2.115179 1_555
Fe9 O10 2.125366 1_555
Fe9 O5 2.129769 1_555
Fe9 O16 2.133215 1_555
Fe10 O15 2.076908 1_555
Fe10 O9 2.079894 1_555
Fe10 O4 2.115179 1_555
Fe10 O13 2.125366 1_555
Fe10 O16 2.129769 1_555
Fe10 O5 2.133215 1_555
Fe11 O0 1.926410 1_655
Fe11 O11 1.926410 1_555
Fe11 O19 1.930181 1_555
Fe11 O15 1.951812 1_554
Fe12 O23 2.012153 1_555
Fe12 O12 2.012153 1_555
Fe12 O1 2.047891 1_555
Fe12 O9 2.047891 1_555
Fe12 O15 2.086197 1_555
Fe12 O17 2.157862 1_565
Fe13 O18 2.087426 1_565
Fe13 O1 2.152488 1_555
Fe13 O9 2.152488 1_555
Fe13 O16 2.155099 1_555
Fe13 O10 2.258294 1_555
Fe13 O2 2.258294 1_655
Fe14 O20 1.901359 1_545
Fe14 O14 1.906249 1_555
Fe14 O21 1.906249 1_655
Fe14 O18 1.967295 1_555
Fe15 O19 2.065105 1_555
Fe15 O20 2.069755 1_555
Fe15 O23 2.158865 1_554
Fe15 O12 2.158865 1_554
Fe15 O10 2.233140 1_555
Fe15 O2 2.233140 1_655
O2 Si0 1.667021 1_555
O6 Si0 1.670724 1_555
O7 Si0 1.660337 1_555
O10 Si0 1.667021 1_555
O13 Si1 1.667021 1_555
O17 Si1 1.660337 1_555
O18 Si1 1.670724 1_555
O22 Si1 1.667021 1_555
