# generated using pymatgen
data_Na3B5H4O11
_symmetry_space_group_name_H-M   'P 1'
_cell_length_a   8.88094000
_cell_length_b   10.97757500
_cell_length_c   18.50690000
_cell_angle_alpha   90.00000000
_cell_angle_beta   90.00000000
_cell_angle_gamma   90.00000000
_symmetry_Int_Tables_number   1
_chemical_formula_structural   Na3B5H4O11
_chemical_formula_sum   'Na24 B40 H32 O88'
_cell_volume   1804.25961021
_cell_formula_units_Z   8
loop_
 _symmetry_equiv_pos_site_id
 _symmetry_equiv_pos_as_xyz
  1  'x, y, z'
loop_
 _atom_site_type_symbol
 _atom_site_label
 _atom_site_symmetry_multiplicity
 _atom_site_fract_x
 _atom_site_fract_y
 _atom_site_fract_z
 _atom_site_occupancy
  Na  Na0  1  0.93350300  0.09214500  0.56789400  1
  Na  Na1  1  0.43350300  0.90785500  0.93210600  1
  Na  Na2  1  0.06649700  0.40785500  0.06789400  1
  Na  Na3  1  0.56649700  0.59214500  0.43210600  1
  Na  Na4  1  0.06649700  0.90785500  0.43210600  1
  Na  Na5  1  0.56649700  0.09214500  0.06789400  1
  Na  Na6  1  0.93350300  0.59214500  0.93210600  1
  Na  Na7  1  0.43350300  0.40785500  0.56789400  1
  Na  Na8  1  0.91801000  0.07464900  0.74054900  1
  Na  Na9  1  0.41801000  0.92535100  0.75945100  1
  Na  Na10  1  0.08199000  0.42535100  0.24054900  1
  Na  Na11  1  0.58199000  0.57464900  0.25945100  1
  Na  Na12  1  0.08199000  0.92535100  0.25945100  1
  Na  Na13  1  0.58199000  0.07464900  0.24054900  1
  Na  Na14  1  0.91801000  0.57464900  0.75945100  1
  Na  Na15  1  0.41801000  0.42535100  0.74054900  1
  Na  Na16  1  0.62233600  0.09695000  0.45827800  1
  Na  Na17  1  0.12233600  0.90305000  0.04172200  1
  Na  Na18  1  0.37766400  0.40305000  0.95827800  1
  Na  Na19  1  0.87766400  0.59695000  0.54172200  1
  Na  Na20  1  0.37766400  0.90305000  0.54172200  1
  Na  Na21  1  0.87766400  0.09695000  0.95827800  1
  Na  Na22  1  0.62233600  0.59695000  0.04172200  1
  Na  Na23  1  0.12233600  0.40305000  0.45827800  1
  B  B0  1  0.67767700  0.21810000  0.68333200  1
  B  B1  1  0.17767700  0.78190000  0.81666800  1
  B  B2  1  0.32232300  0.28190000  0.18333200  1
  B  B3  1  0.82232300  0.71810000  0.31666800  1
  B  B4  1  0.32232300  0.78190000  0.31666800  1
  B  B5  1  0.82232300  0.21810000  0.18333200  1
  B  B6  1  0.67767700  0.71810000  0.81666800  1
  B  B7  1  0.17767700  0.28190000  0.68333200  1
  B  B8  1  0.41546600  0.15282700  0.65718900  1
  B  B9  1  0.91546600  0.84717300  0.84281100  1
  B  B10  1  0.58453400  0.34717300  0.15718900  1
  B  B11  1  0.08453400  0.65282700  0.34281100  1
  B  B12  1  0.58453400  0.84717300  0.34281100  1
  B  B13  1  0.08453400  0.15282700  0.15718900  1
  B  B14  1  0.41546600  0.65282700  0.84281100  1
  B  B15  1  0.91546600  0.34717300  0.65718900  1
  B  B16  1  0.62713000  0.00096000  0.63656100  1
  B  B17  1  0.12713000  0.99904000  0.86343900  1
  B  B18  1  0.37287000  0.49904000  0.13656100  1
  B  B19  1  0.87287000  0.50096000  0.36343900  1
  B  B20  1  0.37287000  0.99904000  0.36343900  1
  B  B21  1  0.87287000  0.00096000  0.13656100  1
  B  B22  1  0.62713000  0.50096000  0.86343900  1
  B  B23  1  0.12713000  0.49904000  0.63656100  1
  B  B24  1  0.71123100  0.79613900  0.68384000  1
  B  B25  1  0.21123100  0.20386100  0.81616000  1
  B  B26  1  0.28876900  0.70386100  0.18384000  1
  B  B27  1  0.78876900  0.29613900  0.31616000  1
  B  B28  1  0.28876900  0.20386100  0.31616000  1
  B  B29  1  0.78876900  0.79613900  0.18384000  1
  B  B30  1  0.71123100  0.29613900  0.81616000  1
  B  B31  1  0.21123100  0.70386100  0.68384000  1
  B  B32  1  0.74709900  0.84116200  0.55290700  1
  B  B33  1  0.24709900  0.15883800  0.94709300  1
  B  B34  1  0.25290100  0.65883800  0.05290700  1
  B  B35  1  0.75290100  0.34116200  0.44709300  1
  B  B36  1  0.25290100  0.15883800  0.44709300  1
  B  B37  1  0.75290100  0.84116200  0.05290700  1
  B  B38  1  0.74709900  0.34116200  0.94709300  1
  B  B39  1  0.24709900  0.65883800  0.55290700  1
  H  H0  1  0.72349400  0.78846400  0.44875500  1
  H  H1  1  0.22349400  0.21153600  0.05124500  1
  H  H2  1  0.27650600  0.71153600  0.94875500  1
  H  H3  1  0.77650600  0.28846400  0.55124500  1
  H  H4  1  0.27650600  0.21153600  0.55124500  1
  H  H5  1  0.77650600  0.78846400  0.94875500  1
  H  H6  1  0.72349400  0.28846400  0.05124500  1
  H  H7  1  0.22349400  0.71153600  0.44875500  1
  H  H8  1  0.97664600  0.84801600  0.55784000  1
  H  H9  1  0.47664600  0.15198400  0.94216000  1
  H  H10  1  0.02335400  0.65198400  0.05784000  1
  H  H11  1  0.52335400  0.34801600  0.44216000  1
  H  H12  1  0.02335400  0.15198400  0.44216000  1
  H  H13  1  0.52335400  0.84801600  0.05784000  1
  H  H14  1  0.97664600  0.34801600  0.94216000  1
  H  H15  1  0.47664600  0.65198400  0.55784000  1
  H  H16  1  0.15415300  0.04643500  0.65373800  1
  H  H17  1  0.65415300  0.95356500  0.84626200  1
  H  H18  1  0.84584700  0.45356500  0.15373800  1
  H  H19  1  0.34584700  0.54643500  0.34626200  1
  H  H20  1  0.84584700  0.95356500  0.34626200  1
  H  H21  1  0.34584700  0.04643500  0.15373800  1
  H  H22  1  0.15415300  0.54643500  0.84626200  1
  H  H23  1  0.65415300  0.45356500  0.65373800  1
  H  H24  1  0.12430600  0.91308900  0.68072300  1
  H  H25  1  0.62430600  0.08691100  0.81927700  1
  H  H26  1  0.87569400  0.58691100  0.18072300  1
  H  H27  1  0.37569400  0.41308900  0.31927700  1
  H  H28  1  0.87569400  0.08691100  0.31927700  1
  H  H29  1  0.37569400  0.91308900  0.18072300  1
  H  H30  1  0.12430600  0.41308900  0.81927700  1
  H  H31  1  0.62430600  0.58691100  0.68072300  1
  O  O0  1  0.76163400  0.32530400  0.65256000  1
  O  O1  1  0.26163400  0.67469600  0.84744000  1
  O  O2  1  0.23836600  0.17469600  0.15256000  1
  O  O3  1  0.73836600  0.82530400  0.34744000  1
  O  O4  1  0.23836600  0.67469600  0.34744000  1
  O  O5  1  0.73836600  0.32530400  0.15256000  1
  O  O6  1  0.76163400  0.82530400  0.84744000  1
  O  O7  1  0.26163400  0.17469600  0.65256000  1
  O  O8  1  0.51421200  0.24529400  0.67339400  1
  O  O9  1  0.01421200  0.75470600  0.82660600  1
  O  O10  1  0.48578800  0.25470600  0.17339400  1
  O  O11  1  0.98578800  0.74529400  0.32660600  1
  O  O12  1  0.48578800  0.75470600  0.32660600  1
  O  O13  1  0.98578800  0.24529400  0.17339400  1
  O  O14  1  0.51421200  0.74529400  0.82660600  1
  O  O15  1  0.01421200  0.25470600  0.67339400  1
  O  O16  1  0.71299700  0.20748700  0.76274000  1
  O  O17  1  0.21299700  0.79251300  0.73726000  1
  O  O18  1  0.28700300  0.29251300  0.26274000  1
  O  O19  1  0.78700300  0.70748700  0.23726000  1
  O  O20  1  0.28700300  0.79251300  0.23726000  1
  O  O21  1  0.78700300  0.20748700  0.26274000  1
  O  O22  1  0.71299700  0.70748700  0.73726000  1
  O  O23  1  0.21299700  0.29251300  0.76274000  1
  O  O24  1  0.72346500  0.10749400  0.64694500  1
  O  O25  1  0.22346500  0.89250600  0.85305500  1
  O  O26  1  0.27653500  0.39250600  0.14694500  1
  O  O27  1  0.77653500  0.60749400  0.35305500  1
  O  O28  1  0.27653500  0.89250600  0.35305500  1
  O  O29  1  0.77653500  0.10749400  0.14694500  1
  O  O30  1  0.72346500  0.60749400  0.85305500  1
  O  O31  1  0.22346500  0.39250600  0.64694500  1
  O  O32  1  0.46193300  0.03539700  0.64375100  1
  O  O33  1  0.96193300  0.96460300  0.85624900  1
  O  O34  1  0.53806700  0.46460300  0.14375100  1
  O  O35  1  0.03806700  0.53539700  0.35624900  1
  O  O36  1  0.53806700  0.96460300  0.35624900  1
  O  O37  1  0.03806700  0.03539700  0.14375100  1
  O  O38  1  0.46193300  0.53539700  0.85624900  1
  O  O39  1  0.96193300  0.46460300  0.64375100  1
  O  O40  1  0.65404700  0.91005300  0.69586700  1
  O  O41  1  0.15404700  0.08994700  0.80413300  1
  O  O42  1  0.34595300  0.58994700  0.19586700  1
  O  O43  1  0.84595300  0.41005300  0.30413300  1
  O  O44  1  0.34595300  0.08994700  0.30413300  1
  O  O45  1  0.84595300  0.91005300  0.19586700  1
  O  O46  1  0.65404700  0.41005300  0.80413300  1
  O  O47  1  0.15404700  0.58994700  0.69586700  1
  O  O48  1  0.64516400  0.94490500  0.56484300  1
  O  O49  1  0.14516400  0.05509500  0.93515700  1
  O  O50  1  0.35483600  0.55509500  0.06484300  1
  O  O51  1  0.85483600  0.44490500  0.43515700  1
  O  O52  1  0.35483600  0.05509500  0.43515700  1
  O  O53  1  0.85483600  0.94490500  0.06484300  1
  O  O54  1  0.64516400  0.44490500  0.93515700  1
  O  O55  1  0.14516400  0.55509500  0.56484300  1
  O  O56  1  0.76653700  0.76170100  0.61732700  1
  O  O57  1  0.26653700  0.23829900  0.88267300  1
  O  O58  1  0.23346300  0.73829900  0.11732700  1
  O  O59  1  0.73346300  0.26170100  0.38267300  1
  O  O60  1  0.23346300  0.23829900  0.38267300  1
  O  O61  1  0.73346300  0.76170100  0.11732700  1
  O  O62  1  0.76653700  0.26170100  0.88267300  1
  O  O63  1  0.26653700  0.73829900  0.61732700  1
  O  O64  1  0.68804600  0.75836900  0.49568500  1
  O  O65  1  0.18804600  0.24163100  0.00431500  1
  O  O66  1  0.31195400  0.74163100  0.99568500  1
  O  O67  1  0.81195400  0.25836900  0.50431500  1
  O  O68  1  0.31195400  0.24163100  0.50431500  1
  O  O69  1  0.81195400  0.75836900  0.99568500  1
  O  O70  1  0.68804600  0.25836900  0.00431500  1
  O  O71  1  0.18804600  0.74163100  0.49568500  1
  O  O72  1  0.89792300  0.88619500  0.52880800  1
  O  O73  1  0.39792300  0.11380500  0.97119200  1
  O  O74  1  0.10207700  0.61380500  0.02880800  1
  O  O75  1  0.60207700  0.38619500  0.47119200  1
  O  O76  1  0.10207700  0.11380500  0.47119200  1
  O  O77  1  0.60207700  0.88619500  0.02880800  1
  O  O78  1  0.89792300  0.38619500  0.97119200  1
  O  O79  1  0.39792300  0.61380500  0.52880800  1
  O  O80  1  0.07793700  0.97969900  0.65278100  1
  O  O81  1  0.57793700  0.02030100  0.84721900  1
  O  O82  1  0.92206300  0.52030100  0.15278100  1
  O  O83  1  0.42206300  0.47969900  0.34721900  1
  O  O84  1  0.92206300  0.02030100  0.34721900  1
  O  O85  1  0.42206300  0.97969900  0.15278100  1
  O  O86  1  0.07793700  0.47969900  0.84721900  1
  O  O87  1  0.57793700  0.52030100  0.65278100  1
loop_
_geom_bond_atom_site_label_1
_geom_bond_atom_site_label_2
_geom_bond_distance
_geom_bond_site_symmetry_2
Na0 O76 2.345356 1_655
Na0 O80 2.374253 1_645
Na0 O24 2.376594 1_555
Na0 O72 2.394672 1_545
Na0 O67 2.424752 1_555
Na0 O15 2.740522 1_655
Na1 O77 2.345356 1_556
Na1 O81 2.374253 1_565
Na1 O25 2.376594 1_555
Na1 O73 2.394672 1_565
Na1 O66 2.424752 1_555
Na1 O14 2.740522 1_555
Na2 O78 2.345356 1_454
Na2 O82 2.374253 1_455
Na2 O26 2.376594 1_555
Na2 O74 2.394672 1_555
Na2 O65 2.424752 1_555
Na2 O13 2.740522 1_455
Na3 O79 2.345356 1_555
Na3 O83 2.374253 1_555
Na3 O27 2.376594 1_555
Na3 O75 2.394672 1_555
Na3 O64 2.424752 1_555
Na3 O12 2.740522 1_555
Na4 O72 2.345356 1_455
Na4 O84 2.374253 1_465
Na4 O28 2.376594 1_555
Na4 O76 2.394672 1_565
Na4 O71 2.424752 1_555
Na4 O11 2.740522 1_455
Na5 O73 2.345356 1_554
Na5 O85 2.374253 1_545
Na5 O29 2.376594 1_555
Na5 O77 2.394672 1_545
Na5 O70 2.424752 1_555
Na5 O10 2.740522 1_555
Na6 O74 2.345356 1_656
Na6 O86 2.374253 1_655
Na6 O30 2.376594 1_555
Na6 O78 2.394672 1_555
Na6 O69 2.424752 1_555
Na6 O9 2.740522 1_655
Na7 O75 2.345356 1_555
Na7 O87 2.374253 1_555
Na7 O31 2.376594 1_555
Na7 O79 2.394672 1_555
Na7 O68 2.424752 1_555
Na7 O8 2.740522 1_555
Na8 O16 2.368566 1_555
Na8 O80 2.396265 1_645
Na8 O41 2.409794 1_655
Na8 O24 2.473061 1_555
Na8 O15 2.486257 1_655
Na8 O33 2.489269 1_545
Na9 O17 2.368566 1_555
Na9 O81 2.396265 1_565
Na9 O40 2.409794 1_555
Na9 O25 2.473061 1_555
Na9 O14 2.486257 1_555
Na9 O32 2.489269 1_565
Na10 O18 2.368566 1_555
Na10 O82 2.396265 1_455
Na10 O43 2.409794 1_455
Na10 O26 2.473061 1_555
Na10 O13 2.486257 1_455
Na10 O35 2.489269 1_555
Na11 O19 2.368566 1_555
Na11 O83 2.396265 1_555
Na11 O42 2.409794 1_555
Na11 O27 2.473061 1_555
Na11 O12 2.486257 1_555
Na11 O34 2.489269 1_555
Na12 O20 2.368566 1_555
Na12 O84 2.396265 1_465
Na12 O45 2.409794 1_455
Na12 O28 2.473061 1_555
Na12 O11 2.486257 1_455
Na12 O37 2.489269 1_565
Na13 O21 2.368566 1_555
Na13 O85 2.396265 1_545
Na13 O44 2.409794 1_555
Na13 O29 2.473061 1_555
Na13 O10 2.486257 1_555
Na13 O36 2.489269 1_545
Na14 O22 2.368566 1_555
Na14 O86 2.396265 1_655
Na14 O47 2.409794 1_655
Na14 O30 2.473061 1_555
Na14 O9 2.486257 1_655
Na14 O39 2.489269 1_555
Na15 O23 2.368566 1_555
Na15 O87 2.396265 1_555
Na15 O46 2.409794 1_555
Na15 O31 2.473061 1_555
Na15 O8 2.486257 1_555
Na15 O38 2.489269 1_555
Na16 O52 2.457219 1_555
Na16 O59 2.490524 1_555
Na16 O36 2.497260 1_545
Na16 O67 2.588757 1_555
Na16 O48 2.591616 1_545
Na17 O53 2.457219 1_455
Na17 O58 2.490524 1_555
Na17 O37 2.497260 1_565
Na17 O66 2.588757 1_554
Na17 O49 2.591616 1_564
Na18 O54 2.457219 1_555
Na18 O57 2.490524 1_555
Na18 O38 2.497260 1_555
Na18 O65 2.588757 1_556
Na18 O50 2.591616 1_556
Na19 O55 2.457219 1_655
Na19 O56 2.490524 1_555
Na19 O39 2.497260 1_555
Na19 O64 2.588757 1_555
Na19 O51 2.591616 1_555
Na20 O48 2.457219 1_555
Na20 O63 2.490524 1_555
Na20 O32 2.497260 1_565
Na20 O71 2.588757 1_555
Na20 O52 2.591616 1_565
Na21 O49 2.457219 1_655
Na21 O62 2.490524 1_555
Na21 O33 2.497260 1_545
Na21 O70 2.588757 1_556
Na21 O53 2.591616 1_546
Na22 O50 2.457219 1_555
Na22 O61 2.490524 1_555
Na22 O34 2.497260 1_555
Na22 O69 2.588757 1_554
Na22 O54 2.591616 1_554
Na23 O51 2.457219 1_455
Na23 O60 2.490524 1_555
Na23 O35 2.497260 1_555
Na23 O68 2.588757 1_555
Na23 O55 2.591616 1_555
B0 O24 1.446750 1_555
B0 O8 1.493467 1_555
B0 O0 1.505065 1_555
B0 O16 1.507208 1_555
B1 O25 1.446750 1_555
B1 O9 1.493467 1_555
B1 O1 1.505065 1_555
B1 O17 1.507208 1_555
B2 O26 1.446750 1_555
B2 O10 1.493467 1_555
B2 O2 1.505065 1_555
B2 O18 1.507208 1_555
B3 O27 1.446750 1_555
B3 O11 1.493467 1_555
B3 O3 1.505065 1_555
B3 O19 1.507208 1_555
B4 O28 1.446750 1_555
B4 O12 1.493467 1_555
B4 O4 1.505065 1_555
B4 O20 1.507208 1_555
B5 O29 1.446750 1_555
B5 O13 1.493467 1_555
B5 O5 1.505065 1_555
B5 O21 1.507208 1_555
B6 O30 1.446750 1_555
B6 O14 1.493467 1_555
B6 O6 1.505065 1_555
B6 O22 1.507208 1_555
B7 O31 1.446750 1_555
B7 O15 1.493467 1_555
B7 O7 1.505065 1_555
B7 O23 1.507208 1_555
B8 O8 1.374536 1_555
B8 O32 1.376196 1_555
B8 O7 1.389748 1_555
B9 O9 1.374536 1_655
B9 O33 1.376196 1_555
B9 O6 1.389748 1_555
B10 O10 1.374536 1_555
B10 O34 1.376196 1_555
B10 O5 1.389748 1_555
B11 O11 1.374536 1_455
B11 O35 1.376196 1_555
B11 O4 1.389748 1_555
B12 O12 1.374536 1_555
B12 O36 1.376196 1_555
B12 O3 1.389748 1_555
B13 O13 1.374536 1_455
B13 O37 1.376196 1_555
B13 O2 1.389748 1_555
B14 O14 1.374536 1_555
B14 O38 1.376196 1_555
B14 O1 1.389748 1_555
B15 O15 1.374536 1_655
B15 O39 1.376196 1_555
B15 O0 1.389748 1_555
B16 O24 1.461706 1_555
B16 O48 1.471724 1_545
B16 O40 1.502560 1_545
B16 O32 1.520859 1_555
B17 O25 1.461706 1_555
B17 O49 1.471724 1_565
B17 O41 1.502560 1_565
B17 O33 1.520859 1_455
B18 O26 1.461706 1_555
B18 O50 1.471724 1_555
B18 O42 1.502560 1_555
B18 O34 1.520859 1_555
B19 O27 1.461706 1_555
B19 O51 1.471724 1_555
B19 O43 1.502560 1_555
B19 O35 1.520859 1_655
B20 O28 1.461706 1_555
B20 O52 1.471724 1_565
B20 O44 1.502560 1_565
B20 O36 1.520859 1_555
B21 O29 1.461706 1_555
B21 O53 1.471724 1_545
B21 O45 1.502560 1_545
B21 O37 1.520859 1_655
B22 O30 1.461706 1_555
B22 O54 1.471724 1_555
B22 O46 1.502560 1_555
B22 O38 1.520859 1_555
B23 O31 1.461706 1_555
B23 O55 1.471724 1_555
B23 O47 1.502560 1_555
B23 O39 1.520859 1_455
B24 O40 1.367919 1_555
B24 O56 1.378188 1_555
B24 O22 1.387350 1_555
B25 O41 1.367919 1_555
B25 O57 1.378188 1_555
B25 O23 1.387350 1_555
B26 O42 1.367919 1_555
B26 O58 1.378188 1_555
B26 O20 1.387350 1_555
B27 O43 1.367919 1_555
B27 O59 1.378188 1_555
B27 O21 1.387350 1_555
B28 O44 1.367919 1_555
B28 O60 1.378188 1_555
B28 O18 1.387350 1_555
B29 O45 1.367919 1_555
B29 O61 1.378188 1_555
B29 O19 1.387350 1_555
B30 O46 1.367919 1_555
B30 O62 1.378188 1_555
B30 O16 1.387350 1_555
B31 O47 1.367919 1_555
B31 O63 1.378188 1_555
B31 O17 1.387350 1_555
B32 O48 1.471495 1_555
B32 O56 1.487301 1_555
B32 O64 1.490828 1_555
B32 O72 1.495811 1_555
B33 O49 1.471495 1_555
B33 O57 1.487301 1_555
B33 O65 1.490828 1_556
B33 O73 1.495811 1_555
B34 O50 1.471495 1_555
B34 O58 1.487301 1_555
B34 O66 1.490828 1_554
B34 O74 1.495811 1_555
B35 O51 1.471495 1_555
B35 O59 1.487301 1_555
B35 O67 1.490828 1_555
B35 O75 1.495811 1_555
B36 O52 1.471495 1_555
B36 O60 1.487301 1_555
B36 O68 1.490828 1_555
B36 O76 1.495811 1_555
B37 O53 1.471495 1_555
B37 O61 1.487301 1_555
B37 O69 1.490828 1_554
B37 O77 1.495811 1_555
B38 O54 1.471495 1_555
B38 O62 1.487301 1_555
B38 O70 1.490828 1_556
B38 O78 1.495811 1_555
B39 O55 1.471495 1_555
B39 O63 1.487301 1_555
B39 O71 1.490828 1_555
B39 O79 1.495811 1_555
H0 O64 0.981118 1_555
H1 O65 0.981118 1_555
H2 O66 0.981118 1_555
H3 O67 0.981118 1_555
H4 O68 0.981118 1_555
H5 O69 0.981118 1_555
H6 O70 0.981118 1_555
H7 O71 0.981118 1_555
H8 O72 0.976282 1_555
H9 O73 0.976282 1_555
H10 O74 0.976282 1_555
H11 O75 0.976282 1_555
H12 O76 0.976282 1_555
H13 O77 0.976282 1_555
H14 O78 0.976282 1_555
H15 O79 0.976282 1_555
H16 O80 0.997581 1_545
H16 O7 1.701193 1_555
H17 O81 0.997581 1_565
H17 O6 1.701193 1_555
H18 O82 0.997581 1_555
H18 O5 1.701193 1_555
H19 O83 0.997581 1_555
H19 O4 1.701193 1_555
H20 O84 0.997581 1_565
H20 O3 1.701193 1_555
H21 O85 0.997581 1_545
H21 O2 1.701193 1_555
H22 O86 0.997581 1_555
H22 O1 1.701193 1_555
H23 O87 0.997581 1_555
H23 O0 1.701193 1_555
H24 O80 0.985733 1_555
H25 O81 0.985733 1_555
H26 O82 0.985733 1_555
H27 O83 0.985733 1_555
H28 O84 0.985733 1_555
H29 O85 0.985733 1_555
H30 O86 0.985733 1_555
H31 O87 0.985733 1_555
