# generated using pymatgen
data_TmBO3
_symmetry_space_group_name_H-M   'P 1'
_cell_length_a   3.88382294
_cell_length_b   3.88382294
_cell_length_c   8.47066400
_cell_angle_alpha   90.00000000
_cell_angle_beta   90.00000000
_cell_angle_gamma   114.40480089
_symmetry_Int_Tables_number   1
_chemical_formula_structural   TmBO3
_chemical_formula_sum   'Tm2 B2 O6'
_cell_volume   116.35561242
_cell_formula_units_Z   2
loop_
 _symmetry_equiv_pos_site_id
 _symmetry_equiv_pos_as_xyz
  1  'x, y, z'
loop_
 _atom_site_type_symbol
 _atom_site_label
 _atom_site_symmetry_multiplicity
 _atom_site_fract_x
 _atom_site_fract_y
 _atom_site_fract_z
 _atom_site_occupancy
  Tm  Tm0  1  0.06417200  0.06417200  0.00000000  1
  Tm  Tm1  1  0.06417200  0.06417200  0.50000000  1
  B  B0  1  0.49584200  0.76404000  0.25000000  1
  B  B1  1  0.76404000  0.49584200  0.75000000  1
  O  O0  1  0.32619700  0.67092000  0.10157200  1
  O  O1  1  0.32619700  0.67092000  0.39842800  1
  O  O2  1  0.87835400  0.98467400  0.25000000  1
  O  O3  1  0.67092000  0.32619700  0.60157200  1
  O  O4  1  0.67092000  0.32619700  0.89842800  1
  O  O5  1  0.98467400  0.87835400  0.75000000  1
loop_
_geom_bond_atom_site_label_1
_geom_bond_atom_site_label_2
_geom_bond_distance
_geom_bond_site_symmetry_2
B0 O2 1.374533 1_555
B0 O0 1.395980 1_555
B0 O1 1.395980 1_555
B1 O5 1.374533 1_555
B1 O4 1.395980 1_555
B1 O3 1.395980 1_555
O0 Tm0 2.312418 1_555
O0 Tm0 2.322284 1_565
O1 Tm1 2.312418 1_555
O1 Tm1 2.322284 1_565
O2 Tm0 2.217326 1_665
O2 Tm1 2.217326 1_665
O3 Tm1 2.312418 1_555
O3 Tm1 2.322284 1_655
O4 Tm0 2.312418 1_556
O4 Tm0 2.322284 1_656
O5 Tm0 2.217326 1_666
O5 Tm1 2.217326 1_665
