# generated using pymatgen
data_LaBiO4
_symmetry_space_group_name_H-M   'P 1'
_cell_length_a   7.36045100
_cell_length_b   7.58485000
_cell_length_c   7.86543358
_cell_angle_alpha   60.34371813
_cell_angle_beta   90.00000000
_cell_angle_gamma   90.00000000
_symmetry_Int_Tables_number   1
_chemical_formula_structural   LaBiO4
_chemical_formula_sum   'La4 Bi4 O16'
_cell_volume   381.59134787
_cell_formula_units_Z   4
loop_
 _symmetry_equiv_pos_site_id
 _symmetry_equiv_pos_as_xyz
  1  'x, y, z'
loop_
 _atom_site_type_symbol
 _atom_site_label
 _atom_site_symmetry_multiplicity
 _atom_site_fract_x
 _atom_site_fract_y
 _atom_site_fract_z
 _atom_site_occupancy
  La  La0  1  0.84326900  0.13876500  0.72486300  1
  La  La1  1  0.34326900  0.86123500  0.77513700  1
  La  La2  1  0.65673100  0.13876500  0.22486300  1
  La  La3  1  0.15673100  0.86123500  0.27513700  1
  Bi  Bi0  1  0.80663700  0.67190000  0.73135600  1
  Bi  Bi1  1  0.30663700  0.32810000  0.76864400  1
  Bi  Bi2  1  0.69336300  0.67190000  0.23135600  1
  Bi  Bi3  1  0.19336300  0.32810000  0.26864400  1
  O  O0  1  0.25092300  0.63059900  0.64153800  1
  O  O1  1  0.13037600  0.31040800  0.54180700  1
  O  O2  1  0.51067300  0.17401500  0.72343400  1
  O  O3  1  0.66262100  0.94013900  0.58204700  1
  O  O4  1  0.75092300  0.36940100  0.85846200  1
  O  O5  1  0.16262100  0.05986100  0.91795300  1
  O  O6  1  0.01067300  0.82598500  0.77656600  1
  O  O7  1  0.36962400  0.31040800  0.04180700  1
  O  O8  1  0.63037600  0.68959200  0.95819300  1
  O  O9  1  0.98932700  0.17401500  0.22343400  1
  O  O10  1  0.83737900  0.94013900  0.08204700  1
  O  O11  1  0.24907700  0.63059900  0.14153800  1
  O  O12  1  0.33737900  0.05986100  0.41795300  1
  O  O13  1  0.48932700  0.82598500  0.27656600  1
  O  O14  1  0.86962400  0.68959200  0.45819300  1
  O  O15  1  0.74907700  0.36940100  0.35846200  1
loop_
_geom_bond_atom_site_label_1
_geom_bond_atom_site_label_2
_geom_bond_distance
_geom_bond_site_symmetry_2
La0 O10 2.444562 1_546
La0 O2 2.462035 1_555
La0 O6 2.521333 1_645
La0 O1 2.525625 1_655
La0 O4 2.538799 1_555
La0 O15 2.618637 1_555
La0 O3 2.640869 1_545
La0 O5 2.700087 1_655
La1 O12 2.444562 1_565
La1 O6 2.462035 1_555
La1 O2 2.521333 1_565
La1 O8 2.525625 1_555
La1 O0 2.538799 1_555
La1 O11 2.618637 1_556
La1 O5 2.640869 1_565
La1 O3 2.700087 1_555
La2 O3 2.444562 1_545
La2 O9 2.462035 1_555
La2 O13 2.521333 1_545
La2 O7 2.525625 1_555
La2 O15 2.538799 1_555
La2 O4 2.618637 1_554
La2 O10 2.640869 1_545
La2 O12 2.700087 1_555
La3 O5 2.444562 1_564
La3 O13 2.462035 1_555
La3 O9 2.521333 1_465
La3 O14 2.525625 1_455
La3 O11 2.538799 1_555
La3 O0 2.618637 1_555
La3 O12 2.640869 1_565
La3 O10 2.700087 1_455
Bi0 O6 2.039361 1_655
Bi0 O4 2.040103 1_555
Bi0 O3 2.068273 1_555
Bi0 O14 2.136323 1_555
Bi0 O8 2.263039 1_555
Bi1 O2 2.039361 1_555
Bi1 O0 2.040103 1_555
Bi1 O5 2.068273 1_555
Bi1 O7 2.136323 1_556
Bi1 O1 2.263039 1_555
Bi2 O13 2.039361 1_555
Bi2 O15 2.040103 1_555
Bi2 O10 2.068273 1_555
Bi2 O8 2.136323 1_554
Bi2 O14 2.263039 1_555
Bi3 O9 2.039361 1_455
Bi3 O11 2.040103 1_555
Bi3 O12 2.068273 1_555
Bi3 O1 2.136323 1_555
Bi3 O7 2.263039 1_555
