# generated using pymatgen
data_V2CoO6
_symmetry_space_group_name_H-M   'P 1'
_cell_length_a   5.78579772
_cell_length_b   6.54356276
_cell_length_c   6.55087481
_cell_angle_alpha   96.12378547
_cell_angle_beta   75.30412008
_cell_angle_gamma   104.72587643
_symmetry_Int_Tables_number   1
_chemical_formula_structural   V2CoO6
_chemical_formula_sum   'V4 Co2 O12'
_cell_volume   231.78472798
_cell_formula_units_Z   2
loop_
 _symmetry_equiv_pos_site_id
 _symmetry_equiv_pos_as_xyz
  1  'x, y, z'
loop_
 _atom_site_type_symbol
 _atom_site_label
 _atom_site_symmetry_multiplicity
 _atom_site_fract_x
 _atom_site_fract_y
 _atom_site_fract_z
 _atom_site_occupancy
  V  V0  1  0.75982592  0.20293995  0.61201294  1
  V  V1  1  0.26247123  0.39091532  0.79565080  1
  V  V2  1  0.74009530  0.61184599  0.20312844  1
  V  V3  1  0.23785204  0.79559094  0.39092778  1
  Co  Co0  1  0.24993848  0.91974961  0.91957278  1
  Co  Co1  1  0.74991444  0.08412610  0.08443712  1
  O  O0  1  0.64382920  0.02906224  0.80648891  1
  O  O1  1  0.15451545  0.19280108  0.97045460  1
  O  O2  1  0.85603872  0.80639391  0.02935894  1
  O  O3  1  0.34523076  0.97046229  0.19320453  1
  O  O4  1  0.76964385  0.07754329  0.37555737  1
  O  O5  1  0.73014313  0.37534082  0.07751473  1
  O  O6  1  0.27443107  0.63171699  0.91321066  1
  O  O7  1  0.22569735  0.91406938  0.63111524  1
  O  O8  1  0.55914957  0.37630566  0.64953504  1
  O  O9  1  0.06007101  0.34713836  0.62490951  1
  O  O10  1  0.94116057  0.64942137  0.37588545  1
  O  O11  1  0.43998990  0.62457469  0.34703416  1
loop_
_geom_bond_atom_site_label_1
_geom_bond_atom_site_label_2
_geom_bond_distance
_geom_bond_site_symmetry_2
Co0 O6 1.920980 1_555
Co0 O7 1.925789 1_555
Co0 O1 1.972152 1_565
Co0 O3 1.977060 1_556
Co0 O0 2.163762 1_565
Co0 O2 2.164293 1_456
Co1 O5 1.943778 1_555
Co1 O4 1.944831 1_555
Co1 O2 2.031006 1_545
Co1 O0 2.033844 1_554
Co1 O1 2.218860 1_654
Co1 O3 2.219093 1_545
O0 V0 1.689747 1_555
O1 V1 1.710023 1_555
O2 V2 1.689387 1_555
O3 V3 1.708675 1_555
O4 V0 1.668462 1_555
O5 V2 1.668085 1_555
O6 V1 1.671350 1_555
O7 V3 1.671232 1_555
O8 V1 1.761265 1_555
O8 V0 1.777856 1_555
O9 V1 1.769218 1_555
O9 V0 1.771812 1_455
O10 V3 1.761322 1_655
O10 V2 1.777003 1_555
O11 V3 1.768856 1_555
O11 V2 1.771103 1_555
