# generated using pymatgen
data_ZnH12C3S4(N3O2)2
_symmetry_space_group_name_H-M   'P 1'
_cell_length_a   7.77474500
_cell_length_b   11.13487600
_cell_length_c   15.65605500
_cell_angle_alpha   90.00000000
_cell_angle_beta   90.00000000
_cell_angle_gamma   90.00000000
_symmetry_Int_Tables_number   1
_chemical_formula_structural   ZnH12C3S4(N3O2)2
_chemical_formula_sum   'Zn4 H48 C12 S16 N24 O16'
_cell_volume   1355.35754290
_cell_formula_units_Z   4
loop_
 _symmetry_equiv_pos_site_id
 _symmetry_equiv_pos_as_xyz
  1  'x, y, z'
loop_
 _atom_site_type_symbol
 _atom_site_label
 _atom_site_symmetry_multiplicity
 _atom_site_fract_x
 _atom_site_fract_y
 _atom_site_fract_z
 _atom_site_occupancy
  Zn  Zn0  1  0.34513000  0.06766300  0.35080100  1
  Zn  Zn1  1  0.34513000  0.43233700  0.85080100  1
  Zn  Zn2  1  0.65487000  0.56766300  0.35080100  1
  Zn  Zn3  1  0.65487000  0.93233700  0.85080100  1
  H  H0  1  0.38344100  0.03620700  0.77151900  1
  H  H1  1  0.13935700  0.03772400  0.06191000  1
  H  H2  1  0.32606200  0.05751800  0.66414600  1
  H  H3  1  0.92150100  0.08387200  0.91845300  1
  H  H4  1  0.70830300  0.11478200  0.07761500  1
  H  H5  1  0.81490000  0.14531600  0.49296500  1
  H  H6  1  0.66102500  0.15074300  0.40921600  1
  H  H7  1  0.29040100  0.15439200  0.05049500  1
  H  H8  1  0.05507600  0.20266400  0.26242800  1
  H  H9  1  0.98641900  0.21283000  0.67433100  1
  H  H10  1  0.03368300  0.21763500  0.89925000  1
  H  H11  1  0.59663400  0.24658100  0.10819200  1
  H  H12  1  0.59663400  0.25341900  0.60819200  1
  H  H13  1  0.03368300  0.28236500  0.39925000  1
  H  H14  1  0.98641900  0.28717000  0.17433100  1
  H  H15  1  0.05507600  0.29733600  0.76242800  1
  H  H16  1  0.29040100  0.34560800  0.55049500  1
  H  H17  1  0.66102500  0.34925700  0.90921600  1
  H  H18  1  0.81490000  0.35468400  0.99296500  1
  H  H19  1  0.70830300  0.38521800  0.57761500  1
  H  H20  1  0.92150100  0.41612800  0.41845300  1
  H  H21  1  0.32606200  0.44248200  0.16414600  1
  H  H22  1  0.13935700  0.46227600  0.56191000  1
  H  H23  1  0.38344100  0.46379300  0.27151900  1
  H  H24  1  0.61655900  0.53620700  0.77151900  1
  H  H25  1  0.86064300  0.53772400  0.06191000  1
  H  H26  1  0.67393800  0.55751800  0.66414600  1
  H  H27  1  0.07849900  0.58387200  0.91845300  1
  H  H28  1  0.29169700  0.61478200  0.07761500  1
  H  H29  1  0.18510000  0.64531600  0.49296500  1
  H  H30  1  0.33897500  0.65074300  0.40921600  1
  H  H31  1  0.70959900  0.65439200  0.05049500  1
  H  H32  1  0.94492400  0.70266400  0.26242800  1
  H  H33  1  0.01358100  0.71283000  0.67433100  1
  H  H34  1  0.96631700  0.71763500  0.89925000  1
  H  H35  1  0.40336600  0.74658100  0.10819200  1
  H  H36  1  0.40336600  0.75341900  0.60819200  1
  H  H37  1  0.96631700  0.78236500  0.39925000  1
  H  H38  1  0.01358100  0.78717000  0.17433100  1
  H  H39  1  0.94492400  0.79733600  0.76242800  1
  H  H40  1  0.70959900  0.84560800  0.55049500  1
  H  H41  1  0.33897500  0.84925700  0.90921600  1
  H  H42  1  0.18510000  0.85468400  0.99296500  1
  H  H43  1  0.29169700  0.88521800  0.57761500  1
  H  H44  1  0.07849900  0.91612800  0.41845300  1
  H  H45  1  0.67393800  0.94248200  0.16414600  1
  H  H46  1  0.86064300  0.96227600  0.56191000  1
  H  H47  1  0.61655900  0.96379300  0.27151900  1
  C  C0  1  0.33439400  0.00619000  0.97668500  1
  C  C1  1  0.60365500  0.11501200  0.19831200  1
  C  C2  1  0.93826500  0.13625000  0.79178700  1
  C  C3  1  0.93826500  0.36375000  0.29178700  1
  C  C4  1  0.60365500  0.38498800  0.69831200  1
  C  C5  1  0.33439400  0.49381000  0.47668500  1
  C  C6  1  0.66560600  0.50619000  0.97668500  1
  C  C7  1  0.39634500  0.61501200  0.19831200  1
  C  C8  1  0.06173500  0.63625000  0.79178700  1
  C  C9  1  0.06173500  0.86375000  0.29178700  1
  C  C10  1  0.39634500  0.88498800  0.69831200  1
  C  C11  1  0.66560600  0.99381000  0.47668500  1
  S  S0  1  0.83208300  0.01572100  0.74575000  1
  S  S1  1  0.49664500  0.07943900  0.92110800  1
  S  S2  1  0.51049300  0.20738400  0.27524200  1
  S  S3  1  0.51049300  0.29261600  0.77524200  1
  S  S4  1  0.49664500  0.42056100  0.42110800  1
  S  S5  1  0.83208300  0.48427900  0.24575000  1
  S  S6  1  0.16791700  0.51572100  0.74575000  1
  S  S7  1  0.50335500  0.57943900  0.92110800  1
  S  S8  1  0.48950700  0.70738400  0.27524200  1
  S  S9  1  0.48950700  0.79261600  0.77524200  1
  S  S10  1  0.50335500  0.92056100  0.42110800  1
  S  S11  1  0.16791700  0.98427900  0.24575000  1
  S  S12  1  0.15713600  0.12850900  0.52273800  1
  S  S13  1  0.15713600  0.37149100  0.02273800  1
  S  S14  1  0.84286400  0.62850900  0.52273800  1
  S  S15  1  0.84286400  0.87149100  0.02273800  1
  N  N0  1  0.64314200  0.00052300  0.21315900  1
  N  N1  1  0.25339200  0.06814700  0.03732200  1
  N  N2  1  0.71341300  0.10654000  0.46009700  1
  N  N3  1  0.95967300  0.14821000  0.87584400  1
  N  N4  1  0.64095400  0.16301600  0.12244700  1
  N  N5  1  0.00001000  0.22038900  0.73926300  1
  N  N6  1  0.00001000  0.27961100  0.23926300  1
  N  N7  1  0.64095400  0.33698400  0.62244700  1
  N  N8  1  0.95967300  0.35179000  0.37584400  1
  N  N9  1  0.71341300  0.39346000  0.96009700  1
  N  N10  1  0.25339200  0.43185300  0.53732200  1
  N  N11  1  0.64314200  0.49947700  0.71315900  1
  N  N12  1  0.35685800  0.50052300  0.21315900  1
  N  N13  1  0.74660800  0.56814700  0.03732200  1
  N  N14  1  0.28658700  0.60654000  0.46009700  1
  N  N15  1  0.04032700  0.64821000  0.87584400  1
  N  N16  1  0.35904600  0.66301600  0.12244700  1
  N  N17  1  0.99999000  0.72038900  0.73926300  1
  N  N18  1  0.99999000  0.77961100  0.23926300  1
  N  N19  1  0.35904600  0.83698400  0.62244700  1
  N  N20  1  0.04032700  0.85179000  0.37584400  1
  N  N21  1  0.28658700  0.89346000  0.96009700  1
  N  N22  1  0.74660800  0.93185300  0.53732200  1
  N  N23  1  0.35685800  0.99947700  0.71315900  1
  O  O0  1  0.87597800  0.00274400  0.02955200  1
  O  O1  1  0.18629700  0.15985300  0.42850900  1
  O  O2  1  0.31095300  0.16430600  0.57255300  1
  O  O3  1  0.00351000  0.19853100  0.55007700  1
  O  O4  1  0.00351000  0.30146900  0.05007700  1
  O  O5  1  0.31095300  0.33569400  0.07255300  1
  O  O6  1  0.18629700  0.34014700  0.92850900  1
  O  O7  1  0.87597800  0.49725600  0.52955200  1
  O  O8  1  0.12402200  0.50274400  0.02955200  1
  O  O9  1  0.81370300  0.65985300  0.42850900  1
  O  O10  1  0.68904700  0.66430600  0.57255300  1
  O  O11  1  0.99649000  0.69853100  0.55007700  1
  O  O12  1  0.99649000  0.80146900  0.05007700  1
  O  O13  1  0.68904700  0.83569400  0.07255300  1
  O  O14  1  0.81370300  0.84014700  0.92850900  1
  O  O15  1  0.12402200  0.99725600  0.52955200  1
loop_
_geom_bond_atom_site_label_1
_geom_bond_atom_site_label_2
_geom_bond_distance
_geom_bond_site_symmetry_2
H0 N23 1.022158 1_545
H1 N1 1.024202 1_555
H2 N23 1.031422 1_545
H3 N3 1.022892 1_555
H4 N4 1.027271 1_555
H5 N2 1.036241 1_555
H6 N2 1.021135 1_555
H7 N1 1.023501 1_555
H8 N6 1.024168 1_555
H9 N5 1.025516 1_655
H10 N3 1.031003 1_455
H11 N4 1.017028 1_555
H12 N7 1.017028 1_555
H13 N8 1.031003 1_455
H14 N6 1.025516 1_655
H15 N5 1.024168 1_555
H16 N10 1.023501 1_555
H17 N9 1.021135 1_555
H18 N9 1.036241 1_555
H19 N7 1.027271 1_555
H20 N8 1.022892 1_555
H21 N12 1.031422 1_555
H22 N10 1.024202 1_555
H23 N12 1.022158 1_555
H24 N11 1.022158 1_555
H25 N13 1.024202 1_555
H26 N11 1.031422 1_555
H27 N15 1.022892 1_555
H28 N16 1.027271 1_555
H29 N14 1.036241 1_555
H30 N14 1.021135 1_555
H31 N13 1.023501 1_555
H32 N18 1.024168 1_555
H33 N17 1.025516 1_455
H34 N15 1.031003 1_655
H35 N16 1.017028 1_555
H36 N19 1.017028 1_555
H37 N20 1.031003 1_655
H38 N18 1.025516 1_455
H39 N17 1.024168 1_555
H40 N22 1.023501 1_555
H41 N21 1.021135 1_555
H42 N21 1.036241 1_555
H43 N19 1.027271 1_555
H44 N20 1.022892 1_555
H45 N0 1.031422 1_565
H46 N22 1.024202 1_555
H47 N0 1.022158 1_565
C0 N1 1.331837 1_556
C0 N21 1.334620 1_545
C0 S1 1.735978 1_555
C1 N0 1.331709 1_555
C1 N4 1.334371 1_555
C1 S2 1.741600 1_555
C2 N3 1.333153 1_555
C2 N5 1.335813 1_655
C2 S0 1.732678 1_555
C3 N8 1.333153 1_555
C3 N6 1.335813 1_655
C3 S5 1.732678 1_555
C4 N11 1.331709 1_555
C4 N7 1.334371 1_555
C4 S3 1.741600 1_555
C5 N10 1.331837 1_555
C5 N14 1.334620 1_555
C5 S4 1.735978 1_555
C6 N13 1.331837 1_556
C6 N9 1.334620 1_555
C6 S7 1.735978 1_555
C7 N12 1.331709 1_555
C7 N16 1.334371 1_555
C7 S8 1.741600 1_555
C8 N15 1.333153 1_555
C8 N17 1.335813 1_455
C8 S6 1.732678 1_555
C9 N20 1.333153 1_555
C9 N18 1.335813 1_455
C9 S11 1.732678 1_555
C10 N23 1.331709 1_555
C10 N19 1.334371 1_555
C10 S9 1.741600 1_555
C11 N22 1.331837 1_555
C11 N2 1.334620 1_565
C11 S10 1.735978 1_555
S0 Zn3 2.337806 1_545
S1 Zn3 2.325472 1_545
S2 Zn0 2.339387 1_555
S3 Zn1 2.339387 1_555
S4 Zn2 2.325472 1_555
S5 Zn2 2.337806 1_555
S6 Zn1 2.337806 1_555
S7 Zn1 2.325472 1_555
S8 Zn2 2.339387 1_555
S9 Zn3 2.339387 1_555
S10 Zn0 2.325472 1_565
S11 Zn0 2.337806 1_565
O0 S15 1.487818 1_545
O1 S12 1.532836 1_555
O1 Zn0 2.014650 1_555
O2 S12 1.482323 1_555
O3 S12 1.489198 1_555
O4 S13 1.489198 1_555
O5 S13 1.482323 1_555
O6 S13 1.532836 1_556
O6 Zn1 2.014650 1_555
O7 S14 1.487818 1_555
O8 S13 1.487818 1_555
O9 S14 1.532836 1_555
O9 Zn2 2.014650 1_555
O10 S14 1.482323 1_555
O11 S14 1.489198 1_555
O12 S15 1.489198 1_555
O13 S15 1.482323 1_555
O14 S15 1.532836 1_556
O14 Zn3 2.014650 1_555
O15 S12 1.487818 1_565
