# generated using pymatgen
data_SmH2ClO2
_symmetry_space_group_name_H-M   'P 1'
_cell_length_a   3.78642600
_cell_length_b   6.33068600
_cell_length_c   12.81033600
_cell_angle_alpha   90.00000000
_cell_angle_beta   90.00000000
_cell_angle_gamma   90.00000000
_symmetry_Int_Tables_number   1
_chemical_formula_structural   SmH2ClO2
_chemical_formula_sum   'Sm4 H8 Cl4 O8'
_cell_volume   307.07238896
_cell_formula_units_Z   4
loop_
 _symmetry_equiv_pos_site_id
 _symmetry_equiv_pos_as_xyz
  1  'x, y, z'
loop_
 _atom_site_type_symbol
 _atom_site_label
 _atom_site_symmetry_multiplicity
 _atom_site_fract_x
 _atom_site_fract_y
 _atom_site_fract_z
 _atom_site_occupancy
  Sm  Sm0  1  0.75000000  0.24845200  0.06127000  1
  Sm  Sm1  1  0.25000000  0.74845200  0.43873000  1
  Sm  Sm2  1  0.75000000  0.25154800  0.56127000  1
  Sm  Sm3  1  0.25000000  0.75154800  0.93873000  1
  H  H0  1  0.75000000  0.69330600  0.11226100  1
  H  H1  1  0.25000000  0.94125000  0.15033700  1
  H  H2  1  0.75000000  0.44125000  0.34966300  1
  H  H3  1  0.25000000  0.19330600  0.38773900  1
  H  H4  1  0.75000000  0.80669400  0.61226100  1
  H  H5  1  0.25000000  0.55875000  0.65033700  1
  H  H6  1  0.75000000  0.05875000  0.84966300  1
  H  H7  1  0.25000000  0.30669400  0.88773900  1
  Cl  Cl0  1  0.25000000  0.41096600  0.21910400  1
  Cl  Cl1  1  0.75000000  0.91096600  0.28089600  1
  Cl  Cl2  1  0.25000000  0.08903400  0.71910400  1
  Cl  Cl3  1  0.75000000  0.58903400  0.78089600  1
  O  O0  1  0.75000000  0.63158800  0.04254500  1
  O  O1  1  0.25000000  0.00184500  0.08010000  1
  O  O2  1  0.75000000  0.50184500  0.41990000  1
  O  O3  1  0.25000000  0.13158800  0.45745500  1
  O  O4  1  0.75000000  0.86841200  0.54254500  1
  O  O5  1  0.25000000  0.49815500  0.58010000  1
  O  O6  1  0.75000000  0.99815500  0.91990000  1
  O  O7  1  0.25000000  0.36841200  0.95745500  1
loop_
_geom_bond_atom_site_label_1
_geom_bond_atom_site_label_2
_geom_bond_distance
_geom_bond_site_symmetry_2
H0 O0 0.974814 1_555
H1 O1 0.978122 1_565
H2 O2 0.978122 1_555
H3 O3 0.974814 1_555
H4 O4 0.974814 1_555
H5 O5 0.978122 1_555
H6 O6 0.978122 1_545
H7 O7 0.974814 1_555
Cl0 Sm0 2.954800 1_455
Cl0 Sm0 2.954800 1_555
Cl1 Sm1 2.954800 1_555
Cl1 Sm1 2.954800 1_655
Cl2 Sm2 2.954800 1_555
Cl2 Sm2 2.954800 1_455
Cl3 Sm3 2.954800 1_555
Cl3 Sm3 2.954800 1_655
O0 Sm3 2.435084 1_554
O0 Sm3 2.435084 1_654
O0 Sm0 2.437346 1_555
O1 Sm3 2.406349 1_544
O1 Sm0 2.465717 1_455
O1 Sm0 2.465717 1_555
O2 Sm2 2.406349 1_555
O2 Sm1 2.465717 1_555
O2 Sm1 2.465717 1_655
O3 Sm2 2.435084 1_555
O3 Sm2 2.435084 1_455
O3 Sm1 2.437346 1_545
O4 Sm1 2.435084 1_555
O4 Sm1 2.435084 1_655
O4 Sm2 2.437346 1_565
O5 Sm1 2.406349 1_555
O5 Sm2 2.465717 1_555
O5 Sm2 2.465717 1_455
O6 Sm0 2.406349 1_566
O6 Sm3 2.465717 1_555
O6 Sm3 2.465717 1_655
O7 Sm0 2.435084 1_456
O7 Sm0 2.435084 1_556
O7 Sm3 2.437346 1_555
