# generated using pymatgen
data_Li6MnVP2(CO7)2
_symmetry_space_group_name_H-M   'P 1'
_cell_length_a   5.00724427
_cell_length_b   6.60132903
_cell_length_c   8.56475771
_cell_angle_alpha   90.00943285
_cell_angle_beta   83.58205216
_cell_angle_gamma   89.99488560
_symmetry_Int_Tables_number   1
_chemical_formula_structural   Li6MnVP2(CO7)2
_chemical_formula_sum   'Li6 Mn1 V1 P2 C2 O14'
_cell_volume   281.32927240
_cell_formula_units_Z   1
loop_
 _symmetry_equiv_pos_site_id
 _symmetry_equiv_pos_as_xyz
  1  'x, y, z'
loop_
 _atom_site_type_symbol
 _atom_site_label
 _atom_site_symmetry_multiplicity
 _atom_site_fract_x
 _atom_site_fract_y
 _atom_site_fract_z
 _atom_site_occupancy
  Li  Li0  1  0.79429700  0.25000500  0.10439900  1
  Li  Li1  1  0.20287600  0.74999900  0.89591000  1
  Li  Li2  1  0.26729500  0.02414100  0.27462300  1
  Li  Li3  1  0.26721900  0.47574100  0.27470200  1
  Li  Li4  1  0.73372300  0.52327000  0.72486300  1
  Li  Li5  1  0.73370600  0.97682100  0.72489600  1
  Mn  Mn0  1  0.21828600  0.24997800  0.66312800  1
  V  V0  1  0.79194700  0.75001500  0.32713300  1
  P  P0  1  0.73262100  0.24999300  0.40903100  1
  P  P1  1  0.26705700  0.75000600  0.58966600  1
  C  C0  1  0.67123100  0.75002000  0.03768800  1
  C  C1  1  0.32707500  0.24998500  0.96494300  1
  O  O0  1  0.91981400  0.74995700  0.06750400  1
  O  O1  1  0.39450200  0.24998500  0.10730000  1
  O  O2  1  0.48769600  0.75009000  0.15909100  1
  O  O3  1  0.16876900  0.74989900  0.42559300  1
  O  O4  1  0.41811300  0.24996600  0.42564300  1
  O  O5  1  0.58160700  0.75002000  0.56930300  1
  O  O6  1  0.82156200  0.25008100  0.57580000  1
  O  O7  1  0.51280600  0.24996600  0.84470100  1
  O  O8  1  0.60616100  0.75002600  0.89547800  1
  O  O9  1  0.07856800  0.25000800  0.93801000  1
  O  O10  1  0.84274000  0.06643700  0.30746000  1
  O  O11  1  0.84259500  0.43352100  0.30744500  1
  O  O12  1  0.15880700  0.93371500  0.69282900  1
  O  O13  1  0.15892700  0.56635500  0.69286200  1
loop_
_geom_bond_atom_site_label_1
_geom_bond_atom_site_label_2
_geom_bond_distance
_geom_bond_site_symmetry_2
Li0 O9 1.898283 1_654
Li0 O1 1.999246 1_555
Li0 O11 2.154933 1_555
Li0 O10 2.155676 1_555
Li1 O0 1.924352 1_456
Li1 O8 2.018936 1_555
Li1 O13 2.151120 1_555
Li1 O12 2.152036 1_555
Li2 O1 2.116349 1_555
Li2 O10 2.131315 1_455
Li2 O4 2.164156 1_555
Li2 O3 2.247448 1_545
Li2 O2 2.285787 1_545
Li3 O1 2.116049 1_555
Li3 O11 2.131634 1_455
Li3 O4 2.163857 1_555
Li3 O3 2.246156 1_555
Li3 O2 2.288179 1_555
Li4 O13 2.135125 1_655
Li4 O8 2.138793 1_555
Li4 O5 2.196170 1_555
Li4 O6 2.224689 1_555
Li4 O7 2.297668 1_555
Li5 O12 2.134583 1_655
Li5 O8 2.139187 1_555
Li5 O5 2.196340 1_555
Li5 O6 2.225640 1_565
Li5 O7 2.296276 1_565
Mn0 O12 2.120256 1_545
Mn0 O13 2.120815 1_555
Mn0 O4 2.164103 1_555
Mn0 O6 2.199486 1_455
Mn0 O7 2.259641 1_555
Mn0 O9 2.379904 1_555
C0 O8 1.295527 1_554
C0 O0 1.298303 1_555
C0 O2 1.308472 1_555
C1 O9 1.290640 1_555
C1 O1 1.300998 1_556
C1 O7 1.308191 1_555
O0 V0 2.244172 1_555
O2 V0 2.209643 1_555
O3 P1 1.539981 1_555
O3 V0 2.151049 1_455
O4 P0 1.565313 1_555
O5 P1 1.565159 1_555
O5 V0 2.218764 1_555
O6 P0 1.542948 1_555
O10 P0 1.556072 1_555
O10 V0 2.108747 1_545
O11 P0 1.556083 1_555
O11 V0 2.109046 1_555
O12 P1 1.561298 1_555
O13 P1 1.561280 1_555
