# generated using pymatgen
data_Li2Fe(Si2O5)2
_symmetry_space_group_name_H-M   'P 1'
_cell_length_a   9.94752500
_cell_length_b   7.22924200
_cell_length_c   14.15195629
_cell_angle_alpha   67.48612622
_cell_angle_beta   90.00000000
_cell_angle_gamma   90.00000000
_symmetry_Int_Tables_number   1
_chemical_formula_structural   Li2Fe(Si2O5)2
_chemical_formula_sum   'Li8 Fe4 Si16 O40'
_cell_volume   940.14762363
_cell_formula_units_Z   4
loop_
 _symmetry_equiv_pos_site_id
 _symmetry_equiv_pos_as_xyz
  1  'x, y, z'
loop_
 _atom_site_type_symbol
 _atom_site_label
 _atom_site_symmetry_multiplicity
 _atom_site_fract_x
 _atom_site_fract_y
 _atom_site_fract_z
 _atom_site_occupancy
  Li  Li0  1  0.85674900  0.98877200  0.39275300  1
  Li  Li1  1  0.09629500  0.56341700  0.76287800  1
  Li  Li2  1  0.59629500  0.43658300  0.73712200  1
  Li  Li3  1  0.35674900  0.01122800  0.10724700  1
  Li  Li4  1  0.64325100  0.98877200  0.89275300  1
  Li  Li5  1  0.40370500  0.56341700  0.26287800  1
  Li  Li6  1  0.90370500  0.43658300  0.23712200  1
  Li  Li7  1  0.14325100  0.01122800  0.60724700  1
  Fe  Fe0  1  0.86196300  0.79418900  0.64333800  1
  Fe  Fe1  1  0.36196300  0.20581100  0.85666200  1
  Fe  Fe2  1  0.63803700  0.79418900  0.14333800  1
  Fe  Fe3  1  0.13803700  0.20581100  0.35666200  1
  Si  Si0  1  0.72805300  0.64103000  0.85795100  1
  Si  Si1  1  0.44739000  0.67273000  0.83133600  1
  Si  Si2  1  0.02452200  0.08617500  0.17352400  1
  Si  Si3  1  0.26659800  0.78098000  0.46447900  1
  Si  Si4  1  0.76659800  0.21902000  0.03552100  1
  Si  Si5  1  0.52452200  0.91382500  0.32647600  1
  Si  Si6  1  0.77194700  0.64103000  0.35795100  1
  Si  Si7  1  0.05261000  0.67273000  0.33133600  1
  Si  Si8  1  0.94739000  0.32727000  0.66866400  1
  Si  Si9  1  0.22805300  0.35897000  0.64204900  1
  Si  Si10  1  0.47547800  0.08617500  0.67352400  1
  Si  Si11  1  0.23340200  0.78098000  0.96447900  1
  Si  Si12  1  0.73340200  0.21902000  0.53552100  1
  Si  Si13  1  0.97547800  0.91382500  0.82647600  1
  Si  Si14  1  0.55261000  0.32727000  0.16866400  1
  Si  Si15  1  0.27194700  0.35897000  0.14204900  1
  O  O0  1  0.55319500  0.15539500  0.28571400  1
  O  O1  1  0.69415100  0.29581000  0.11843300  1
  O  O2  1  0.18220900  0.96064800  0.47961800  1
  O  O3  1  0.97501700  0.15350700  0.26572100  1
  O  O4  1  0.41826700  0.28893000  0.10594300  1
  O  O5  1  0.71536700  0.65416300  0.74222700  1
  O  O6  1  0.17206500  0.18948500  0.12647000  1
  O  O7  1  0.41937300  0.84944800  0.42222800  1
  O  O8  1  0.77835300  0.41594100  0.92925100  1
  O  O9  1  0.91937300  0.15055200  0.07777200  1
  O  O10  1  0.67206500  0.81051500  0.37353000  1
  O  O11  1  0.96507600  0.54768900  0.66695000  1
  O  O12  1  0.46507600  0.45231100  0.83305000  1
  O  O13  1  0.27835300  0.58405900  0.57074900  1
  O  O14  1  0.91826700  0.71107000  0.39405700  1
  O  O15  1  0.47501700  0.84649300  0.23427900  1
  O  O16  1  0.68220900  0.03935200  0.02038200  1
  O  O17  1  0.19415100  0.70419000  0.38156700  1
  O  O18  1  0.05319500  0.84460500  0.21428600  1
  O  O19  1  0.21536700  0.34583700  0.75777300  1
  O  O20  1  0.78463300  0.65416300  0.24222700  1
  O  O21  1  0.94680500  0.15539500  0.78571400  1
  O  O22  1  0.80584900  0.29581000  0.61843300  1
  O  O23  1  0.31779100  0.96064800  0.97961800  1
  O  O24  1  0.52498300  0.15350700  0.76572100  1
  O  O25  1  0.08173300  0.28893000  0.60594300  1
  O  O26  1  0.72164700  0.41594100  0.42925100  1
  O  O27  1  0.53492400  0.54768900  0.16695000  1
  O  O28  1  0.03492400  0.45231100  0.33305000  1
  O  O29  1  0.32793500  0.18948500  0.62647000  1
  O  O30  1  0.08062700  0.84944800  0.92222800  1
  O  O31  1  0.22164700  0.58405900  0.07074900  1
  O  O32  1  0.58062700  0.15055200  0.57777200  1
  O  O33  1  0.82793500  0.81051500  0.87353000  1
  O  O34  1  0.28463300  0.34583700  0.25777300  1
  O  O35  1  0.58173300  0.71107000  0.89405700  1
  O  O36  1  0.02498300  0.84649300  0.73427900  1
  O  O37  1  0.81779100  0.03935200  0.52038200  1
  O  O38  1  0.30584900  0.70419000  0.88156700  1
  O  O39  1  0.44680500  0.84460500  0.71428600  1
loop_
_geom_bond_atom_site_label_1
_geom_bond_atom_site_label_2
_geom_bond_distance
_geom_bond_site_symmetry_2
Li0 O37 2.012964 1_565
Li0 O14 2.092083 1_555
Li0 O3 2.096351 1_565
Li0 O10 2.319105 1_555
Li1 O11 1.917798 1_455
Li1 O19 1.992324 1_555
Li1 O36 2.054408 1_555
Li2 O12 1.917798 1_555
Li2 O5 1.992324 1_555
Li2 O24 2.054408 1_555
Li3 O23 2.012964 1_544
Li3 O4 2.092083 1_555
Li3 O15 2.096351 1_545
Li3 O6 2.319105 1_555
Li4 O16 2.012964 1_566
Li4 O35 2.092083 1_555
Li4 O24 2.096351 1_565
Li4 O33 2.319105 1_555
Li5 O27 1.917798 1_555
Li5 O34 1.992324 1_555
Li5 O15 2.054408 1_555
Li6 O28 1.917798 1_655
Li6 O20 1.992324 1_555
Li6 O3 2.054408 1_555
Li7 O2 2.012964 1_545
Li7 O25 2.092083 1_555
Li7 O36 2.096351 1_545
Li7 O29 2.319105 1_555
Fe0 O11 1.970608 1_555
Fe0 O37 2.000085 1_565
Fe0 O5 2.006211 1_555
Fe0 O36 2.191285 1_655
Fe1 O12 1.970608 1_555
Fe1 O23 2.000085 1_545
Fe1 O19 2.006211 1_555
Fe1 O24 2.191285 1_555
Fe2 O27 1.970608 1_555
Fe2 O16 2.000085 1_565
Fe2 O20 2.006211 1_555
Fe2 O15 2.191285 1_555
Fe3 O28 1.970608 1_555
Fe3 O2 2.000085 1_545
Fe3 O34 2.006211 1_555
Fe3 O3 2.191285 1_455
O0 Si5 1.640863 1_545
O0 Si14 1.646703 1_555
O1 Si14 1.631957 1_555
O1 Si4 1.644129 1_555
O2 Si3 1.628113 1_555
O3 Si2 1.633474 1_655
O4 Si15 1.683492 1_555
O4 Si14 1.684939 1_555
O5 Si0 1.608724 1_555
O6 Si15 1.656476 1_555
O6 Si2 1.665672 1_555
O7 Si5 1.632155 1_555
O7 Si3 1.638737 1_555
O8 Si0 1.630631 1_555
O8 Si4 1.631714 1_556
O9 Si2 1.632155 1_655
O9 Si4 1.638737 1_555
O10 Si6 1.656476 1_555
O10 Si5 1.665672 1_555
O11 Si8 1.594071 1_555
O12 Si1 1.594071 1_555
O13 Si9 1.630631 1_555
O13 Si3 1.631714 1_555
O14 Si6 1.683492 1_555
O14 Si7 1.684939 1_655
O15 Si5 1.633474 1_555
O16 Si4 1.628113 1_555
O17 Si7 1.631957 1_555
O17 Si3 1.644129 1_555
O18 Si2 1.640863 1_565
O18 Si7 1.646703 1_555
O19 Si9 1.608724 1_555
O20 Si6 1.608724 1_555
O21 Si13 1.640863 1_545
O21 Si8 1.646703 1_555
O22 Si8 1.631957 1_555
O22 Si12 1.644129 1_555
O23 Si11 1.628113 1_555
O24 Si10 1.633474 1_555
O25 Si9 1.683492 1_555
O25 Si8 1.684939 1_455
O26 Si6 1.630631 1_555
O26 Si12 1.631714 1_555
O27 Si14 1.594071 1_555
O28 Si7 1.594071 1_555
O29 Si9 1.656476 1_555
O29 Si10 1.665672 1_555
O30 Si13 1.632155 1_455
O30 Si11 1.638737 1_555
O31 Si15 1.630631 1_555
O31 Si11 1.631714 1_554
O32 Si10 1.632155 1_555
O32 Si12 1.638737 1_555
O33 Si0 1.656476 1_555
O33 Si13 1.665672 1_555
O34 Si15 1.608724 1_555
O35 Si0 1.683492 1_555
O35 Si1 1.684939 1_555
O36 Si13 1.633474 1_455
O37 Si12 1.628113 1_555
O38 Si1 1.631957 1_555
O38 Si11 1.644129 1_555
O39 Si10 1.640863 1_565
O39 Si1 1.646703 1_555
