# generated using pymatgen
data_LaAlO3
_symmetry_space_group_name_H-M   'P 1'
_cell_length_a   6.81910600
_cell_length_b   7.90093635
_cell_length_c   8.05499323
_cell_angle_alpha   102.70463513
_cell_angle_beta   92.71731022
_cell_angle_gamma   93.24450081
_symmetry_Int_Tables_number   1
_chemical_formula_structural   LaAlO3
_chemical_formula_sum   'La6 Al6 O18'
_cell_volume   421.87864927
_cell_formula_units_Z   6
loop_
 _symmetry_equiv_pos_site_id
 _symmetry_equiv_pos_as_xyz
  1  'x, y, z'
loop_
 _atom_site_type_symbol
 _atom_site_label
 _atom_site_symmetry_multiplicity
 _atom_site_fract_x
 _atom_site_fract_y
 _atom_site_fract_z
 _atom_site_occupancy
  La  La0  1  0.77719700  0.90028000  0.10898800  1
  La  La1  1  0.58442000  0.74707200  0.52775700  1
  La  La2  1  0.12115600  0.57685100  0.80988900  1
  La  La3  1  0.87884400  0.42314900  0.19011100  1
  La  La4  1  0.41558000  0.25292800  0.47224300  1
  La  La5  1  0.22280300  0.09972000  0.89101200  1
  Al  Al0  1  0.08916800  0.77616300  0.46680600  1
  Al  Al1  1  0.31064000  0.89507700  0.20065300  1
  Al  Al2  1  0.35741200  0.52328800  0.20536100  1
  Al  Al3  1  0.64258800  0.47671200  0.79463900  1
  Al  Al4  1  0.91083200  0.22383700  0.53319400  1
  Al  Al5  1  0.68936000  0.10492300  0.79934700  1
  O  O0  1  0.55498500  0.91147500  0.81743200  1
  O  O1  1  0.27498900  0.92850900  0.42493200  1
  O  O2  1  0.11585900  0.85371900  0.04548900  1
  O  O3  1  0.06617400  0.81605900  0.68657700  1
  O  O4  1  0.86107200  0.74512500  0.34741500  1
  O  O5  1  0.46623400  0.72216200  0.17413300  1
  O  O6  1  0.44651800  0.55136900  0.69128700  1
  O  O7  1  0.19628400  0.57297200  0.38000800  1
  O  O8  1  0.80259400  0.58338100  0.96303500  1
  O  O9  1  0.80371600  0.42702800  0.61999200  1
  O  O10  1  0.19740600  0.41661900  0.03696500  1
  O  O11  1  0.55348200  0.44863100  0.30871300  1
  O  O12  1  0.53376600  0.27783800  0.82586700  1
  O  O13  1  0.13892800  0.25487500  0.65258500  1
  O  O14  1  0.93382600  0.18394100  0.31342300  1
  O  O15  1  0.72501100  0.07149100  0.57506800  1
  O  O16  1  0.88414100  0.14628100  0.95451100  1
  O  O17  1  0.44501500  0.08852500  0.18256800  1
loop_
_geom_bond_atom_site_label_1
_geom_bond_atom_site_label_2
_geom_bond_distance
_geom_bond_site_symmetry_2
La0 O2 2.419824 1_655
La0 O8 2.540631 1_554
La0 O4 2.555205 1_555
La0 O14 2.610431 1_565
La0 O5 2.616267 1_555
La0 O16 2.616722 1_564
La0 O0 2.754706 1_554
La0 O17 2.795595 1_565
La1 O6 2.420531 1_555
La1 O0 2.431616 1_555
La1 O4 2.433658 1_555
La1 O11 2.606923 1_555
La1 O15 2.625254 1_565
La1 O1 2.809306 1_555
La2 O3 2.360034 1_555
La2 O6 2.458185 1_555
La2 O10 2.494296 1_556
La2 O8 2.545998 1_455
La2 O2 2.564659 1_556
La2 O13 2.592940 1_555
La2 O9 2.650717 1_455
La3 O14 2.360034 1_555
La3 O11 2.458185 1_555
La3 O8 2.494296 1_554
La3 O10 2.545998 1_655
La3 O16 2.564659 1_554
La3 O4 2.592940 1_555
La3 O7 2.650717 1_655
La4 O11 2.420531 1_555
La4 O17 2.431616 1_555
La4 O13 2.433658 1_555
La4 O6 2.606923 1_555
La4 O1 2.625254 1_545
La4 O15 2.809306 1_555
La5 O16 2.419824 1_455
La5 O10 2.540631 1_556
La5 O13 2.555205 1_555
La5 O3 2.610431 1_545
La5 O12 2.616267 1_555
La5 O2 2.616722 1_546
La5 O17 2.754706 1_556
La5 O0 2.795595 1_545
Al0 O3 1.744769 1_555
Al0 O4 1.765094 1_455
Al0 O1 1.792954 1_555
Al0 O7 1.813042 1_555
Al1 O2 1.745543 1_555
Al1 O5 1.759278 1_555
Al1 O17 1.774539 1_565
Al1 O1 1.797657 1_555
Al2 O10 1.730155 1_555
Al2 O11 1.740214 1_555
Al2 O5 1.772697 1_555
Al2 O7 1.814623 1_555
Al3 O8 1.730155 1_555
Al3 O6 1.740214 1_555
Al3 O12 1.772697 1_555
Al3 O9 1.814623 1_555
Al4 O14 1.744769 1_555
Al4 O13 1.765094 1_655
Al4 O15 1.792954 1_555
Al4 O9 1.813042 1_555
Al5 O16 1.745543 1_555
Al5 O12 1.759278 1_555
Al5 O0 1.774539 1_545
Al5 O15 1.797657 1_555
