# generated using pymatgen
data_Li7Cr5O12
_symmetry_space_group_name_H-M   'P 1'
_cell_length_a   5.09347910
_cell_length_b   5.09347910
_cell_length_c   9.78683315
_cell_angle_alpha   84.98760621
_cell_angle_beta   84.98760621
_cell_angle_gamma   120.20850908
_symmetry_Int_Tables_number   1
_chemical_formula_structural   Li7Cr5O12
_chemical_formula_sum   'Li7 Cr5 O12'
_cell_volume   216.02712664
_cell_formula_units_Z   1
loop_
 _symmetry_equiv_pos_site_id
 _symmetry_equiv_pos_as_xyz
  1  'x, y, z'
loop_
 _atom_site_type_symbol
 _atom_site_label
 _atom_site_symmetry_multiplicity
 _atom_site_fract_x
 _atom_site_fract_y
 _atom_site_fract_z
 _atom_site_occupancy
  Li  Li0  1  0.75612200  0.75612200  0.25372600  1
  Li  Li1  1  0.41352200  0.08196800  0.25408400  1
  Li  Li2  1  0.58647800  0.91803200  0.74591600  1
  Li  Li3  1  0.24387800  0.24387800  0.74627400  1
  Li  Li4  1  0.91803200  0.58647800  0.74591600  1
  Li  Li5  1  0.08196800  0.41352200  0.25408400  1
  Li  Li6  1  0.00000000  0.00000000  0.50000000  1
  Cr  Cr0  1  0.66534300  0.33465700  0.50000000  1
  Cr  Cr1  1  0.50000000  0.50000000  0.00000000  1
  Cr  Cr2  1  0.16755400  0.83244600  0.00000000  1
  Cr  Cr3  1  0.33465700  0.66534300  0.50000000  1
  Cr  Cr4  1  0.83244600  0.16755400  0.00000000  1
  O  O0  1  0.53893000  0.20423400  0.88679900  1
  O  O1  1  0.33158500  0.96262100  0.61175600  1
  O  O2  1  0.60214100  0.60214100  0.61202700  1
  O  O3  1  0.03737900  0.66841500  0.38824400  1
  O  O4  1  0.79576600  0.46107000  0.11320100  1
  O  O5  1  0.39785900  0.39785900  0.38797300  1
  O  O6  1  0.12759400  0.12759400  0.11565700  1
  O  O7  1  0.66841500  0.03737900  0.38824400  1
  O  O8  1  0.46107000  0.79576600  0.11320100  1
  O  O9  1  0.87240600  0.87240600  0.88434300  1
  O  O10  1  0.20423400  0.53893000  0.88679900  1
  O  O11  1  0.96262100  0.33158500  0.61175600  1
loop_
_geom_bond_atom_site_label_1
_geom_bond_atom_site_label_2
_geom_bond_distance
_geom_bond_site_symmetry_2
Li0 O5 2.048721 1_555
Li0 O6 2.118919 1_665
Li0 O8 2.192887 1_555
Li0 O4 2.192887 1_555
Li0 O3 2.203596 1_655
Li0 O7 2.203596 1_565
Li1 O7 2.000900 1_555
Li1 O6 2.154237 1_555
Li1 O4 2.168597 1_555
Li1 O8 2.175537 1_545
Li1 O5 2.188956 1_555
Li1 O3 2.201739 1_545
Li2 O1 2.000900 1_555
Li2 O9 2.154237 1_555
Li2 O10 2.168597 1_555
Li2 O0 2.175537 1_565
Li2 O2 2.188956 1_555
Li2 O11 2.201739 1_565
Li3 O2 2.048721 1_555
Li3 O9 2.118919 1_445
Li3 O0 2.192887 1_555
Li3 O10 2.192887 1_555
Li3 O11 2.203596 1_455
Li3 O1 2.203596 1_545
Li4 O11 2.000900 1_555
Li4 O9 2.154237 1_555
Li4 O0 2.168597 1_555
Li4 O10 2.175537 1_655
Li4 O2 2.188956 1_555
Li4 O1 2.201739 1_655
Li5 O3 2.000900 1_555
Li5 O6 2.154237 1_555
Li5 O8 2.168597 1_555
Li5 O4 2.175537 1_455
Li5 O5 2.188956 1_555
Li5 O7 2.201739 1_455
Li6 O2 2.122821 1_445
Li6 O5 2.122821 1_555
Li6 O7 2.166782 1_455
Li6 O11 2.166782 1_455
Li6 O3 2.166782 1_545
Li6 O1 2.166782 1_545
Cr0 O1 1.936059 1_545
Cr0 O3 1.936059 1_655
Cr0 O11 1.949228 1_555
Cr0 O7 1.949228 1_555
Cr0 O5 1.950025 1_555
Cr0 O2 1.950025 1_555
Cr1 O4 2.022386 1_555
Cr1 O8 2.022386 1_555
Cr1 O0 2.022386 1_554
Cr1 O10 2.022386 1_554
Cr1 O6 2.026381 1_555
Cr1 O9 2.026381 1_554
Cr2 O8 2.007911 1_555
Cr2 O10 2.007911 1_554
Cr2 O0 2.013490 1_564
Cr2 O4 2.013490 1_455
Cr2 O9 2.036581 1_454
Cr2 O6 2.036581 1_565
Cr3 O11 1.936059 1_455
Cr3 O7 1.936059 1_565
Cr3 O1 1.949228 1_555
Cr3 O3 1.949228 1_555
Cr3 O5 1.950025 1_555
Cr3 O2 1.950025 1_555
Cr4 O0 2.007911 1_554
Cr4 O4 2.007911 1_555
Cr4 O10 2.013490 1_654
Cr4 O8 2.013490 1_545
Cr4 O6 2.036581 1_655
Cr4 O9 2.036581 1_544
