# generated using pymatgen
data_La4Ga2O9
_symmetry_space_group_name_H-M   'P 1'
_cell_length_a   11.20320497
_cell_length_b   7.97607134
_cell_length_c   11.61366357
_cell_angle_alpha   70.56483955
_cell_angle_beta   90.00000000
_cell_angle_gamma   90.00000000
_symmetry_Int_Tables_number   1
_chemical_formula_structural   La4Ga2O9
_chemical_formula_sum   'La16 Ga8 O36'
_cell_volume   978.63519757
_cell_formula_units_Z   4
loop_
 _symmetry_equiv_pos_site_id
 _symmetry_equiv_pos_as_xyz
  1  'x, y, z'
loop_
 _atom_site_type_symbol
 _atom_site_label
 _atom_site_symmetry_multiplicity
 _atom_site_fract_x
 _atom_site_fract_y
 _atom_site_fract_z
 _atom_site_occupancy
  La  La0  1  0.91487987  0.97467443  0.80818470  1
  La  La1  1  0.58512013  0.97467443  0.30818470  1
  La  La2  1  0.12407538  0.83598365  0.58516685  1
  La  La3  1  0.62311761  0.66654731  0.92672425  1
  La  La4  1  0.37592462  0.83598365  0.08516685  1
  La  La5  1  0.87688239  0.66654731  0.42672425  1
  La  La6  1  0.40149573  0.52212957  0.71369249  1
  La  La7  1  0.90149573  0.47787043  0.78630751  1
  La  La8  1  0.09850427  0.52212957  0.21369249  1
  La  La9  1  0.59850427  0.47787043  0.28630751  1
  La  La10  1  0.12311761  0.33345269  0.57327575  1
  La  La11  1  0.62407538  0.16401635  0.91483315  1
  La  La12  1  0.37688239  0.33345269  0.07327575  1
  La  La13  1  0.87592462  0.16401635  0.41483315  1
  La  La14  1  0.41487987  0.02532557  0.69181530  1
  La  La15  1  0.08512013  0.02532557  0.19181530  1
  Ga  Ga0  1  0.69170563  0.77894265  0.62934415  1
  Ga  Ga1  1  0.18872101  0.65412644  0.88211526  1
  Ga  Ga2  1  0.80829437  0.77894265  0.12934415  1
  Ga  Ga3  1  0.31127899  0.65412644  0.38211526  1
  Ga  Ga4  1  0.68872101  0.34587356  0.61788474  1
  Ga  Ga5  1  0.19170563  0.22105735  0.87065585  1
  Ga  Ga6  1  0.81127899  0.34587356  0.11788474  1
  Ga  Ga7  1  0.30829437  0.22105735  0.37065585  1
  O  O0  1  0.76686869  0.92416894  0.97722354  1
  O  O1  1  0.49806340  0.92434067  0.89518602  1
  O  O2  1  0.28141720  0.78541808  0.75137867  1
  O  O3  1  0.78007198  0.76727140  0.76714514  1
  O  O4  1  0.73313131  0.92416894  0.47722354  1
  O  O5  1  0.00193660  0.92434067  0.39518602  1
  O  O6  1  0.03583526  0.70412321  0.82249347  1
  O  O7  1  0.53546783  0.77711223  0.67595955  1
  O  O8  1  0.21858280  0.78541808  0.25137867  1
  O  O9  1  0.71992802  0.76727140  0.26714514  1
  O  O10  1  0.27219547  0.63727032  0.53837761  1
  O  O11  1  0.46416474  0.70412321  0.32249347  1
  O  O12  1  0.74807837  0.56596749  0.61625852  1
  O  O13  1  0.50963434  0.42943162  0.89918389  1
  O  O14  1  0.96453217  0.77711223  0.17595955  1
  O  O15  1  0.00963434  0.57056838  0.60081611  1
  O  O16  1  0.24807837  0.43403251  0.88374148  1
  O  O17  1  0.77219547  0.36272968  0.96162239  1
  O  O18  1  0.22780453  0.63727032  0.03837761  1
  O  O19  1  0.75192163  0.56596749  0.11625852  1
  O  O20  1  0.99036566  0.42943162  0.39918389  1
  O  O21  1  0.03546783  0.22288777  0.82404045  1
  O  O22  1  0.49036566  0.57056838  0.10081611  1
  O  O23  1  0.25192163  0.43403251  0.38374148  1
  O  O24  1  0.53583526  0.29587679  0.67750653  1
  O  O25  1  0.72780453  0.36272968  0.46162239  1
  O  O26  1  0.28007198  0.23272860  0.73285486  1
  O  O27  1  0.78141720  0.21458192  0.74862133  1
  O  O28  1  0.46453217  0.22288777  0.32404045  1
  O  O29  1  0.96416474  0.29587679  0.17750653  1
  O  O30  1  0.99806340  0.07565933  0.60481398  1
  O  O31  1  0.26686869  0.07583106  0.52277646  1
  O  O32  1  0.21992802  0.23272860  0.23285486  1
  O  O33  1  0.71858280  0.21458192  0.24862133  1
  O  O34  1  0.50193660  0.07565933  0.10481398  1
  O  O35  1  0.23313131  0.07583106  0.02277646  1
loop_
_geom_bond_atom_site_label_1
_geom_bond_atom_site_label_2
_geom_bond_distance
_geom_bond_site_symmetry_2
La0 O27 2.344109 1_565
La0 O3 2.401956 1_555
La0 O30 2.414479 1_565
La0 O21 2.453797 1_665
La0 O0 2.497923 1_555
La0 O6 2.506377 1_655
La1 O33 2.344109 1_565
La1 O9 2.401956 1_555
La1 O34 2.414479 1_565
La1 O28 2.453797 1_565
La1 O4 2.497923 1_555
La1 O11 2.506377 1_555
La2 O31 2.412770 1_565
La2 O15 2.429476 1_555
La2 O30 2.447413 1_465
La2 O10 2.476726 1_555
La2 O5 2.490451 1_555
La2 O2 2.545184 1_555
La2 O6 2.784084 1_555
La3 O13 2.387066 1_555
La3 O1 2.413226 1_555
La3 O22 2.419871 1_556
La3 O3 2.486210 1_555
La3 O19 2.529023 1_556
La3 O0 2.821666 1_555
La3 O17 2.858726 1_555
La3 O7 2.917924 1_555
La4 O35 2.412770 1_565
La4 O22 2.429476 1_555
La4 O34 2.447413 1_565
La4 O18 2.476726 1_555
La4 O1 2.490451 1_554
La4 O8 2.545184 1_555
La4 O11 2.784084 1_555
La5 O20 2.387066 1_555
La5 O5 2.413226 1_655
La5 O15 2.419871 1_655
La5 O9 2.486210 1_555
La5 O12 2.529023 1_555
La5 O4 2.821666 1_555
La5 O25 2.858726 1_555
La5 O14 2.917924 1_555
La6 O13 2.365410 1_555
La6 O10 2.417215 1_555
La6 O7 2.447013 1_555
La6 O24 2.490590 1_555
La6 O16 2.534682 1_555
La6 O26 2.624186 1_555
La6 O2 2.650091 1_555
La7 O15 2.365410 1_655
La7 O17 2.417215 1_555
La7 O21 2.447013 1_655
La7 O6 2.490590 1_655
La7 O12 2.534682 1_555
La7 O3 2.624186 1_555
La7 O27 2.650091 1_555
La8 O20 2.365410 1_455
La8 O18 2.417215 1_555
La8 O14 2.447013 1_455
La8 O29 2.490590 1_455
La8 O23 2.534682 1_555
La8 O32 2.624186 1_555
La8 O8 2.650091 1_555
La9 O22 2.365410 1_555
La9 O25 2.417215 1_555
La9 O28 2.447013 1_555
La9 O11 2.490590 1_555
La9 O19 2.534682 1_555
La9 O9 2.624186 1_555
La9 O33 2.650091 1_555
La10 O15 2.387066 1_555
La10 O30 2.413226 1_455
La10 O20 2.419871 1_455
La10 O26 2.486210 1_555
La10 O23 2.529023 1_555
La10 O31 2.821666 1_555
La10 O10 2.858726 1_555
La10 O21 2.917924 1_555
La11 O0 2.412770 1_545
La11 O13 2.429476 1_555
La11 O1 2.447413 1_545
La11 O17 2.476726 1_555
La11 O34 2.490451 1_556
La11 O27 2.545184 1_555
La11 O24 2.784084 1_555
La12 O22 2.387066 1_555
La12 O34 2.413226 1_555
La12 O13 2.419871 1_554
La12 O32 2.486210 1_555
La12 O16 2.529023 1_554
La12 O35 2.821666 1_555
La12 O18 2.858726 1_555
La12 O28 2.917924 1_555
La13 O4 2.412770 1_545
La13 O20 2.429476 1_555
La13 O5 2.447413 1_645
La13 O25 2.476726 1_555
La13 O30 2.490451 1_555
La13 O33 2.545184 1_555
La13 O29 2.784084 1_555
La14 O2 2.344109 1_545
La14 O26 2.401956 1_555
La14 O1 2.414479 1_545
La14 O7 2.453797 1_545
La14 O31 2.497923 1_555
La14 O24 2.506377 1_555
La15 O8 2.344109 1_545
La15 O32 2.401956 1_555
La15 O5 2.414479 1_545
La15 O14 2.453797 1_445
La15 O35 2.497923 1_555
La15 O29 2.506377 1_455
Ga0 O4 1.821109 1_555
Ga0 O7 1.830796 1_555
Ga0 O3 1.857631 1_555
Ga0 O12 1.865303 1_555
Ga1 O18 1.827799 1_556
Ga1 O6 1.840773 1_555
Ga1 O2 1.849948 1_555
Ga1 O16 1.871426 1_555
Ga2 O0 1.821109 1_554
Ga2 O14 1.830796 1_555
Ga2 O9 1.857631 1_555
Ga2 O19 1.865303 1_555
Ga3 O10 1.827799 1_555
Ga3 O11 1.840773 1_555
Ga3 O8 1.849948 1_555
Ga3 O23 1.871426 1_555
Ga4 O25 1.827799 1_555
Ga4 O24 1.840773 1_555
Ga4 O27 1.849948 1_555
Ga4 O12 1.871426 1_555
Ga5 O35 1.821109 1_556
Ga5 O21 1.830796 1_555
Ga5 O26 1.857631 1_555
Ga5 O16 1.865303 1_555
Ga6 O17 1.827799 1_554
Ga6 O29 1.840773 1_555
Ga6 O33 1.849948 1_555
Ga6 O19 1.871426 1_555
Ga7 O31 1.821109 1_555
Ga7 O28 1.830796 1_555
Ga7 O32 1.857631 1_555
Ga7 O23 1.865303 1_555
