# generated using pymatgen
data_Li3Mn4(BO3)4
_symmetry_space_group_name_H-M   'P 1'
_cell_length_a   9.05916200
_cell_length_b   9.12223480
_cell_length_c   11.53486573
_cell_angle_alpha   68.72480374
_cell_angle_beta   68.32214267
_cell_angle_gamma   60.48465906
_symmetry_Int_Tables_number   1
_chemical_formula_structural   Li3Mn4(BO3)4
_chemical_formula_sum   'Li9 Mn12 B12 O36'
_cell_volume   751.33542372
_cell_formula_units_Z   3
loop_
 _symmetry_equiv_pos_site_id
 _symmetry_equiv_pos_as_xyz
  1  'x, y, z'
loop_
 _atom_site_type_symbol
 _atom_site_label
 _atom_site_symmetry_multiplicity
 _atom_site_fract_x
 _atom_site_fract_y
 _atom_site_fract_z
 _atom_site_occupancy
  Li  Li0  1  0.30088700  0.34890000  0.84966700  1
  Li  Li1  1  0.34822800  0.36083700  0.08888900  1
  Li  Li2  1  0.18837600  0.18392000  0.60971300  1
  Li  Li3  1  0.16669900  0.17344900  0.33322900  1
  Li  Li4  1  0.99768000  0.01484100  0.82823100  1
  Li  Li5  1  0.86244600  0.83627000  0.59193100  1
  Li  Li6  1  0.85670000  0.80622500  0.33918700  1
  Li  Li7  1  0.65316800  0.67790900  0.83024600  1
  Li  Li8  1  0.52474400  0.50404000  0.32689400  1
  Mn  Mn0  1  0.82805900  0.13327700  0.36249900  1
  Mn  Mn1  1  0.64108800  0.32594300  0.86492400  1
  Mn  Mn2  1  0.71283500  0.99968500  0.10754300  1
  Mn  Mn3  1  0.52695200  0.20628300  0.62364500  1
  Mn  Mn4  1  0.17369400  0.48330100  0.37134100  1
  Mn  Mn5  1  0.97317000  0.66664700  0.87806200  1
  Mn  Mn6  1  0.97325200  0.36072500  0.12066300  1
  Mn  Mn7  1  0.82951300  0.50772900  0.61032600  1
  Mn  Mn8  1  0.48458700  0.85374800  0.37007000  1
  Mn  Mn9  1  0.32475300  0.99878700  0.86958800  1
  Mn  Mn10  1  0.36360300  0.68905300  0.11497000  1
  Mn  Mn11  1  0.18791900  0.83207200  0.62138400  1
  B  B0  1  0.48830000  0.15231700  0.39386500  1
  B  B1  1  0.31258500  0.65837800  0.87598300  1
  B  B2  1  0.34636200  0.02860300  0.13096100  1
  B  B3  1  0.16048300  0.50687500  0.63369400  1
  B  B4  1  0.16446400  0.81223500  0.37589900  1
  B  B5  1  0.97328700  0.32597400  0.86855600  1
  B  B6  1  0.03713800  0.65520400  0.13373400  1
  B  B7  1  0.84793000  0.16800600  0.62433000  1
  B  B8  1  0.81494100  0.50145400  0.35872900  1
  B  B9  1  0.65956300  0.99361100  0.86175700  1
  B  B10  1  0.67920300  0.33112200  0.12534300  1
  B  B11  1  0.51632900  0.86523700  0.61463600  1
  O  O0  1  0.74604300  0.05014700  0.90324100  1
  O  O1  1  0.78348900  0.08557400  0.58350800  1
  O  O2  1  0.50537400  0.12046000  0.81918000  1
  O  O3  1  0.54849600  0.24613000  0.42852200  1
  O  O4  1  0.37442700  0.48140900  0.89484100  1
  O  O5  1  0.60715200  0.26652700  0.07891900  1
  O  O6  1  0.41772200  0.01998500  0.65436000  1
  O  O7  1  0.32103800  0.40841500  0.66339100  1
  O  O8  1  0.31643200  0.21448300  0.39434500  1
  O  O9  1  0.16215200  0.76961600  0.82886600  1
  O  O10  1  0.27918800  0.66177000  0.33418900  1
  O  O11  1  0.03256000  0.39406900  0.92751200  1
  O  O12  1  0.07463600  0.16436600  0.84580200  1
  O  O13  1  0.23756800  0.19628500  0.14240500  1
  O  O14  1  0.09734800  0.44339800  0.57986500  1
  O  O15  1  0.06348800  0.66877300  0.66419900  1
  O  O16  1  0.19853700  0.55749600  0.16557300  1
  O  O17  1  0.01793700  0.08978600  0.63304700  1
  O  O18  1  0.98624000  0.87161900  0.39669600  1
  O  O19  1  0.81665000  0.43282600  0.83093400  1
  O  O20  1  0.90902100  0.34236600  0.31527400  1
  O  O21  1  0.90477100  0.54874900  0.40348900  1
  O  O22  1  0.72078200  0.82545100  0.86131000  1
  O  O23  1  0.93493600  0.81622100  0.15605400  1
  O  O24  1  0.98183300  0.58439500  0.07688200  1
  O  O25  1  0.72929400  0.32481900  0.65604400  1
  O  O26  1  0.84495500  0.21937000  0.15607500  1
  O  O27  1  0.68013700  0.75789700  0.63518300  1
  O  O28  1  0.64453900  0.60022700  0.35841200  1
  O  O29  1  0.61303400  0.99757200  0.35689900  1
  O  O30  1  0.39809300  0.72832600  0.90465500  1
  O  O31  1  0.59959700  0.49294800  0.14596900  1
  O  O32  1  0.44087200  0.81430300  0.55654700  1
  O  O33  1  0.49398400  0.93860600  0.18689600  1
  O  O34  1  0.22759500  0.90630500  0.40393800  1
  O  O35  1  0.32374300  0.94541500  0.06550500  1
loop_
_geom_bond_atom_site_label_1
_geom_bond_atom_site_label_2
_geom_bond_distance
_geom_bond_site_symmetry_2
Li0 O4 1.919252 1_555
Li0 O7 1.976406 1_555
Li0 O2 2.035878 1_555
Li0 O11 2.134013 1_555
Li1 O16 1.925629 1_555
Li1 O13 1.998093 1_555
Li1 O5 2.034584 1_555
Li1 O4 2.086697 1_554
Li2 O6 1.997127 1_555
Li2 O17 2.006373 1_555
Li2 O14 2.023963 1_555
Li2 O8 2.298246 1_555
Li2 O12 2.503039 1_555
Li3 O8 1.968581 1_555
Li3 O13 2.013844 1_555
Li3 O20 2.108993 1_455
Li3 O34 2.115103 1_545
Li4 O12 1.905145 1_655
Li4 O9 1.984011 1_645
Li4 O0 2.017591 1_555
Li4 O17 2.066725 1_655
Li5 O27 1.945137 1_555
Li5 O15 1.949849 1_655
Li5 O1 1.995314 1_565
Li5 O18 2.096838 1_555
Li6 O18 1.930056 1_555
Li6 O23 1.946986 1_555
Li6 O29 2.022464 1_555
Li6 O21 2.054996 1_555
Li7 O22 1.907744 1_555
Li7 O19 1.981203 1_555
Li7 O30 2.015421 1_555
Li7 O27 2.057384 1_555
Li8 O28 1.881768 1_555
Li8 O10 1.954924 1_555
Li8 O31 1.966100 1_555
Li8 O3 2.154494 1_555
Mn0 O18 2.066525 1_545
Mn0 O3 2.151506 1_555
Mn0 O26 2.191317 1_555
Mn0 O20 2.191332 1_555
Mn0 O1 2.336449 1_555
Mn1 O4 2.080799 1_555
Mn1 O19 2.103264 1_555
Mn1 O0 2.139052 1_555
Mn1 O25 2.243066 1_555
Mn1 O5 2.261405 1_556
Mn2 O23 1.999162 1_555
Mn2 O5 2.074838 1_565
Mn2 O33 2.111079 1_555
Mn2 O0 2.163656 1_564
Mn2 O29 2.673310 1_555
Mn3 O7 1.918970 1_555
Mn3 O1 1.970145 1_555
Mn3 O2 2.069280 1_555
Mn3 O3 2.094664 1_555
Mn3 O6 2.225727 1_555
Mn4 O8 2.100664 1_555
Mn4 O10 2.114629 1_555
Mn4 O21 2.118779 1_455
Mn4 O16 2.175301 1_555
Mn4 O14 2.186316 1_555
Mn5 O22 2.055075 1_555
Mn5 O9 2.148318 1_655
Mn5 O24 2.157510 1_556
Mn5 O11 2.162617 1_655
Mn5 O15 2.290218 1_655
Mn6 O24 1.950309 1_555
Mn6 O26 1.980953 1_555
Mn6 O11 2.032223 1_654
Mn6 O20 2.064948 1_555
Mn6 O13 2.162901 1_655
Mn7 O27 2.065608 1_555
Mn7 O25 2.094469 1_555
Mn7 O14 2.114685 1_655
Mn7 O21 2.167684 1_555
Mn7 O19 2.356578 1_555
Mn8 O33 1.953428 1_555
Mn8 O32 1.965316 1_555
Mn8 O34 2.041292 1_555
Mn8 O28 2.060597 1_555
Mn8 O29 2.080246 1_555
Mn9 O12 2.068131 1_565
Mn9 O35 2.129512 1_556
Mn9 O30 2.133388 1_555
Mn9 O2 2.205829 1_565
Mn9 O6 2.275418 1_565
Mn10 O31 2.056919 1_555
Mn10 O35 2.068042 1_555
Mn10 O16 2.152224 1_555
Mn10 O30 2.242951 1_554
Mn10 O10 2.311516 1_555
Mn11 O32 2.071868 1_555
Mn11 O17 2.103733 1_565
Mn11 O15 2.107844 1_555
Mn11 O9 2.199015 1_555
Mn11 O34 2.284749 1_555
B0 O8 1.368114 1_555
B0 O29 1.400184 1_545
B0 O3 1.434820 1_555
B1 O4 1.382525 1_555
B1 O30 1.394996 1_555
B1 O9 1.402384 1_555
B2 O35 1.367928 1_545
B2 O13 1.376066 1_555
B2 O33 1.431784 1_545
B3 O7 1.377396 1_555
B3 O14 1.377520 1_555
B3 O15 1.395388 1_555
B4 O10 1.378348 1_555
B4 O18 1.379923 1_455
B4 O34 1.410569 1_555
B5 O12 1.361730 1_655
B5 O19 1.391806 1_555
B5 O11 1.428860 1_655
B6 O23 1.356225 1_455
B6 O16 1.393645 1_555
B6 O24 1.402605 1_455
B7 O17 1.367759 1_655
B7 O25 1.381903 1_555
B7 O1 1.421460 1_555
B8 O28 1.351356 1_555
B8 O21 1.390302 1_555
B8 O20 1.441288 1_555
B9 O22 1.351340 1_555
B9 O0 1.401030 1_565
B9 O2 1.425870 1_565
B10 O31 1.354642 1_555
B10 O5 1.387874 1_555
B10 O26 1.429109 1_555
B11 O27 1.369966 1_555
B11 O6 1.387514 1_565
B11 O32 1.417527 1_555
