# generated using pymatgen
data_Li5V5O12
_symmetry_space_group_name_H-M   'P 1'
_cell_length_a   5.05749900
_cell_length_b   9.20175632
_cell_length_c   9.46256693
_cell_angle_alpha   84.51200522
_cell_angle_beta   86.25763039
_cell_angle_gamma   84.95902677
_symmetry_Int_Tables_number   1
_chemical_formula_structural   Li5V5O12
_chemical_formula_sum   'Li10 V10 O24'
_cell_volume   435.93504156
_cell_formula_units_Z   2
loop_
 _symmetry_equiv_pos_site_id
 _symmetry_equiv_pos_as_xyz
  1  'x, y, z'
loop_
 _atom_site_type_symbol
 _atom_site_label
 _atom_site_symmetry_multiplicity
 _atom_site_fract_x
 _atom_site_fract_y
 _atom_site_fract_z
 _atom_site_occupancy
  Li  Li0  1  0.25361200  0.07269800  0.00545900  1
  Li  Li1  1  0.22444300  0.42789500  0.00038500  1
  Li  Li2  1  0.39491400  0.53370000  0.24694500  1
  Li  Li3  1  0.32974500  0.86486300  0.26879300  1
  Li  Li4  1  0.47727100  0.67829500  0.50144000  1
  Li  Li5  1  0.53132600  0.34011600  0.48759200  1
  Li  Li6  1  0.73464100  0.92210400  0.00859100  1
  Li  Li7  1  0.89051100  0.04139800  0.24855400  1
  Li  Li8  1  0.88370500  0.39867300  0.22879600  1
  Li  Li9  1  0.98513700  0.16922100  0.49187500  1
  V  V0  1  0.00337900  0.51265000  0.49569100  1
  V  V1  1  0.15182700  0.28435900  0.74566400  1
  V  V2  1  0.10127100  0.96440200  0.74295800  1
  V  V3  1  0.26878300  0.74129800  0.01776500  1
  V  V4  1  0.35584800  0.21438600  0.25453500  1
  V  V5  1  0.52935400  0.99305000  0.48760700  1
  V  V6  1  0.61704400  0.46003300  0.75130500  1
  V  V7  1  0.74736100  0.24559700  0.00804800  1
  V  V8  1  0.64191100  0.77717900  0.76151400  1
  V  V9  1  0.86293000  0.70778700  0.24978700  1
  O  O0  1  0.05506400  0.22792300  0.12554900  1
  O  O1  1  0.08024600  0.58636900  0.11717300  1
  O  O2  1  0.04041800  0.87245100  0.13525700  1
  O  O3  1  0.19739400  0.35783700  0.36409800  1
  O  O4  1  0.16266400  0.65989800  0.39528400  1
  O  O5  1  0.22700000  0.04487500  0.36294800  1
  O  O6  1  0.28212500  0.12773700  0.63580600  1
  O  O7  1  0.30330300  0.44784700  0.63186900  1
  O  O8  1  0.36628700  0.84282100  0.62735100  1
  O  O9  1  0.57223200  0.09149900  0.11327600  1
  O  O10  1  0.44640100  0.29004800  0.86710900  1
  O  O11  1  0.55262000  0.36917300  0.13012300  1
  O  O12  1  0.45975800  0.62450800  0.86601100  1
  O  O13  1  0.39587600  0.90899400  0.88120700  1
  O  O14  1  0.53986600  0.73807400  0.12770300  1
  O  O15  1  0.65444400  0.16751900  0.38819800  1
  O  O16  1  0.66803800  0.85650200  0.37765500  1
  O  O17  1  0.71183600  0.53725000  0.36877400  1
  O  O18  1  0.77598200  0.62591600  0.63405400  1
  O  O19  1  0.85310700  0.33927700  0.60868200  1
  O  O20  1  0.82059600  0.96779500  0.63193300  1
  O  O21  1  0.96949700  0.11421000  0.86999400  1
  O  O22  1  0.92175600  0.39519800  0.87521700  1
  O  O23  1  0.93364500  0.79818100  0.86142400  1
loop_
_geom_bond_atom_site_label_1
_geom_bond_atom_site_label_2
_geom_bond_distance
_geom_bond_site_symmetry_2
Li0 O21 1.975876 1_454
Li0 O9 1.991187 1_555
Li0 O13 2.051110 1_544
Li0 O0 2.061372 1_555
Li0 O2 2.410344 1_545
Li0 O10 2.517898 1_554
Li1 O1 1.973760 1_555
Li1 O22 2.054899 1_454
Li1 O10 2.080973 1_554
Li1 O11 2.129647 1_555
Li1 O0 2.291335 1_555
Li1 O12 2.459086 1_554
Li2 O11 2.035428 1_555
Li2 O17 2.038807 1_555
Li2 O1 2.069106 1_555
Li2 O4 2.134317 1_555
Li2 O3 2.154521 1_555
Li2 O14 2.252920 1_555
Li3 O5 1.969299 1_565
Li3 O2 1.987270 1_555
Li3 O14 2.041498 1_555
Li3 O16 2.045988 1_555
Li3 O4 2.328106 1_555
Li4 O4 1.964147 1_555
Li4 O18 2.023149 1_555
Li4 O8 2.033457 1_555
Li4 O17 2.124705 1_555
Li4 O16 2.180588 1_555
Li4 O7 2.545490 1_555
Li5 O15 1.957074 1_555
Li5 O7 2.007219 1_555
Li5 O19 2.049620 1_555
Li5 O3 2.101709 1_555
Li5 O17 2.270461 1_555
Li6 O9 2.012389 1_565
Li6 O2 2.012453 1_655
Li6 O23 2.042457 1_554
Li6 O13 2.176379 1_554
Li6 O14 2.211669 1_555
Li6 O21 2.444959 1_564
Li7 O2 2.036301 1_645
Li7 O5 2.079786 1_655
Li7 O15 2.088592 1_555
Li7 O9 2.113752 1_555
Li7 O0 2.176167 1_655
Li7 O16 2.326464 1_545
Li8 O11 2.020335 1_555
Li8 O17 2.028296 1_555
Li8 O0 2.029293 1_655
Li8 O3 2.089418 1_655
Li8 O1 2.214134 1_655
Li9 O15 1.995401 1_555
Li9 O5 2.029791 1_655
Li9 O19 2.041335 1_555
Li9 O6 2.079311 1_655
Li9 O3 2.320172 1_655
Li9 O20 2.354047 1_545
O0 V7 1.957364 1_455
O0 V4 1.999830 1_555
O1 V3 1.921388 1_555
O1 V9 1.975668 1_455
O2 V3 1.967358 1_555
O2 V9 2.018425 1_455
O3 V4 1.851179 1_555
O3 V0 2.115857 1_555
O4 V0 1.798111 1_555
O4 V9 2.103965 1_455
O5 V4 1.922319 1_555
O5 V5 1.989194 1_545
O6 V1 1.903204 1_555
O6 V2 1.988123 1_545
O6 V5 2.212959 1_545
O7 V1 1.947955 1_555
O7 V6 2.024160 1_555
O7 V0 2.065468 1_555
O8 V8 1.963685 1_555
O8 V2 2.005979 1_555
O8 V5 2.011969 1_555
O9 V7 1.903189 1_555
O9 V4 2.035598 1_555
O10 V1 1.947201 1_555
O10 V6 2.044047 1_555
O10 V7 2.077006 1_556
O11 V7 1.871720 1_555
O11 V4 2.044603 1_555
O12 V8 1.908619 1_555
O12 V3 2.020287 1_556
O12 V6 2.022718 1_555
O13 V8 2.028764 1_555
O13 V3 2.036798 1_556
O13 V2 2.045647 1_555
O14 V3 1.770840 1_555
O14 V9 2.046126 1_555
O15 V5 1.916875 1_545
O15 V4 2.024054 1_555
O16 V5 1.775698 1_555
O16 V9 2.057218 1_555
O17 V0 1.946314 1_655
O17 V9 2.018569 1_555
O18 V8 1.974912 1_555
O18 V0 1.994218 1_655
O18 V6 1.995578 1_555
O19 V0 2.011615 1_655
O19 V1 2.052835 1_655
O19 V6 2.079615 1_555
O20 V2 1.816681 1_655
O20 V5 2.056809 1_555
O20 V8 2.262569 1_555
O21 V2 1.959680 1_645
O21 V7 2.074164 1_556
O21 V1 2.108444 1_655
O22 V1 1.934265 1_655
O22 V7 1.997620 1_556
O22 V6 2.011512 1_555
O23 V8 1.837177 1_555
O23 V2 2.022534 1_655
O23 V3 2.314899 1_656
