# generated using pymatgen
data_BaYI5
_symmetry_space_group_name_H-M   'P 1'
_cell_length_a   14.58452000
_cell_length_b   8.20213900
_cell_length_c   11.02755023
_cell_angle_alpha   85.09053208
_cell_angle_beta   90.00000000
_cell_angle_gamma   90.00000000
_symmetry_Int_Tables_number   1
_chemical_formula_structural   BaYI5
_chemical_formula_sum   'Ba4 Y4 I20'
_cell_volume   1314.32275322
_cell_formula_units_Z   4
loop_
 _symmetry_equiv_pos_site_id
 _symmetry_equiv_pos_as_xyz
  1  'x, y, z'
loop_
 _atom_site_type_symbol
 _atom_site_label
 _atom_site_symmetry_multiplicity
 _atom_site_fract_x
 _atom_site_fract_y
 _atom_site_fract_z
 _atom_site_occupancy
  Ba  Ba0  1  0.04332800  0.05471000  0.82185700  1
  Ba  Ba1  1  0.37703300  0.40185100  0.62733800  1
  Ba  Ba2  1  0.87703300  0.59814900  0.37266200  1
  Ba  Ba3  1  0.54332800  0.94529000  0.17814300  1
  Y  Y0  1  0.62338600  0.00123300  0.59521800  1
  Y  Y1  1  0.23240200  0.50467000  0.12664700  1
  Y  Y2  1  0.73240200  0.49533000  0.87335300  1
  Y  Y3  1  0.12338600  0.99876700  0.40478200  1
  I  I0  1  0.75843300  0.97609900  0.38730300  1
  I  I1  1  0.49941700  0.07844400  0.79998400  1
  I  I2  1  0.27817300  0.14722300  0.23823500  1
  I  I3  1  0.52035800  0.23626300  0.41271000  1
  I  I4  1  0.22873900  0.32398200  0.88709700  1
  I  I5  1  0.01918300  0.25903800  0.53211500  1
  I  I6  1  0.71031700  0.20052700  0.04558000  1
  I  I7  1  0.73546600  0.33950700  0.62159500  1
  I  I8  1  0.03808200  0.41752200  0.18962200  1
  I  I9  1  0.93418300  0.43338200  0.86289100  1
  I  I10  1  0.43418300  0.56661800  0.13710900  1
  I  I11  1  0.53808200  0.58247800  0.81037800  1
  I  I12  1  0.23546600  0.66049300  0.37840500  1
  I  I13  1  0.21031700  0.79947300  0.95442000  1
  I  I14  1  0.51918300  0.74096200  0.46788500  1
  I  I15  1  0.72873900  0.67601800  0.11290300  1
  I  I16  1  0.02035800  0.76373700  0.58729000  1
  I  I17  1  0.77817300  0.85277700  0.76176500  1
  I  I18  1  0.99941700  0.92155600  0.20001600  1
  I  I19  1  0.25843300  0.02390100  0.61269700  1
loop_
_geom_bond_atom_site_label_1
_geom_bond_atom_site_label_2
_geom_bond_distance
_geom_bond_site_symmetry_2
Ba0 I13 3.453593 1_545
Ba0 I5 3.496446 1_555
Ba0 I9 3.553305 1_455
Ba0 I4 3.602752 1_555
Ba0 I16 3.681816 1_545
Ba0 I19 3.914807 1_555
Ba0 I18 4.267748 1_446
Ba0 I17 4.280792 1_445
Ba1 I11 3.506853 1_555
Ba1 I3 3.516555 1_555
Ba1 I19 3.565624 1_555
Ba1 I4 3.602480 1_555
Ba1 I1 3.603142 1_555
Ba1 I14 3.780114 1_555
Ba1 I12 3.911810 1_555
Ba2 I8 3.506853 1_655
Ba2 I16 3.516555 1_655
Ba2 I0 3.565624 1_555
Ba2 I15 3.602480 1_555
Ba2 I18 3.603142 1_555
Ba2 I5 3.780114 1_655
Ba2 I7 3.911810 1_555
Ba3 I6 3.453593 1_565
Ba3 I14 3.496446 1_555
Ba3 I10 3.553305 1_555
Ba3 I15 3.602752 1_555
Ba3 I3 3.681816 1_565
Ba3 I0 3.914807 1_555
Ba3 I1 4.267748 1_564
Ba3 I2 4.280792 1_565
I0 Y0 3.042961 1_565
I1 Y0 3.002277 1_555
I2 Y3 3.093429 1_545
I2 Y1 3.152455 1_555
I3 Y0 3.059511 1_555
I4 Y1 3.138101 1_556
I5 Y3 3.058055 1_545
I6 Y2 2.961691 1_554
I7 Y2 3.154446 1_555
I7 Y0 3.254691 1_555
I8 Y1 2.990011 1_555
I9 Y2 2.990327 1_555
I10 Y1 2.990327 1_555
I11 Y2 2.990011 1_555
I12 Y1 3.154446 1_555
I12 Y3 3.254691 1_555
I13 Y1 2.961691 1_556
I14 Y0 3.058055 1_565
I15 Y2 3.138101 1_554
I16 Y3 3.059511 1_555
I17 Y0 3.093429 1_565
I17 Y2 3.152455 1_555
I18 Y3 3.002277 1_655
I19 Y3 3.042961 1_545
