# generated using pymatgen
data_Na2Be2O3
_symmetry_space_group_name_H-M   'P 1'
_cell_length_a   5.31240800
_cell_length_b   4.94313900
_cell_length_c   5.36061396
_cell_angle_alpha   66.92409557
_cell_angle_beta   90.00000000
_cell_angle_gamma   90.00000000
_symmetry_Int_Tables_number   1
_chemical_formula_structural   Na2Be2O3
_chemical_formula_sum   'Na4 Be4 O6'
_cell_volume   129.50608973
_cell_formula_units_Z   2
loop_
 _symmetry_equiv_pos_site_id
 _symmetry_equiv_pos_as_xyz
  1  'x, y, z'
loop_
 _atom_site_type_symbol
 _atom_site_label
 _atom_site_symmetry_multiplicity
 _atom_site_fract_x
 _atom_site_fract_y
 _atom_site_fract_z
 _atom_site_occupancy
  Na  Na0  1  0.37153600  0.81029200  0.92800800  1
  Na  Na1  1  0.12846400  0.81029200  0.42800800  1
  Na  Na2  1  0.87153600  0.18970800  0.57199200  1
  Na  Na3  1  0.62846400  0.18970800  0.07199200  1
  Be  Be0  1  0.60334400  0.67103300  0.56891700  1
  Be  Be1  1  0.10334400  0.32896700  0.93108300  1
  Be  Be2  1  0.89665600  0.67103300  0.06891700  1
  Be  Be3  1  0.39665600  0.32896700  0.43108300  1
  O  O0  1  0.50000000  0.00000000  0.50000000  1
  O  O1  1  0.00000000  0.00000000  0.00000000  1
  O  O2  1  0.85436800  0.58992400  0.79146800  1
  O  O3  1  0.35436800  0.41007600  0.70853200  1
  O  O4  1  0.64563200  0.58992400  0.29146800  1
  O  O5  1  0.14563200  0.41007600  0.20853200  1
loop_
_geom_bond_atom_site_label_1
_geom_bond_atom_site_label_2
_geom_bond_distance
_geom_bond_site_symmetry_2
Na0 O0 2.218719 1_565
Na0 O1 2.282039 1_566
Na0 O5 2.298536 1_556
Na0 O4 2.332222 1_556
Na1 O1 2.218719 1_565
Na1 O0 2.282039 1_565
Na1 O3 2.298536 1_555
Na1 O2 2.332222 1_455
Na2 O1 2.218719 1_656
Na2 O0 2.282039 1_555
Na2 O4 2.298536 1_555
Na2 O5 2.332222 1_655
Na3 O0 2.218719 1_555
Na3 O1 2.282039 1_655
Na3 O2 2.298536 1_554
Na3 O3 2.332222 1_554
Be0 O0 1.615939 1_565
Be0 O4 1.700210 1_555
Be0 O2 1.728410 1_555
Be0 O3 1.793526 1_555
Be1 O1 1.615939 1_556
Be1 O5 1.700210 1_556
Be1 O3 1.728410 1_555
Be1 O2 1.793526 1_455
Be2 O1 1.615939 1_665
Be2 O2 1.700210 1_554
Be2 O4 1.728410 1_555
Be2 O5 1.793526 1_655
Be3 O0 1.615939 1_555
Be3 O3 1.700210 1_555
Be3 O5 1.728410 1_555
Be3 O4 1.793526 1_555
