# generated using pymatgen
data_Li4V3(CO3)6
_symmetry_space_group_name_H-M   'P 1'
_cell_length_a   4.74709600
_cell_length_b   5.99176869
_cell_length_c   12.25043027
_cell_angle_alpha   100.98491404
_cell_angle_beta   90.16465550
_cell_angle_gamma   113.31846964
_symmetry_Int_Tables_number   1
_chemical_formula_structural   Li4V3(CO3)6
_chemical_formula_sum   'Li4 V3 C6 O18'
_cell_volume   312.93363654
_cell_formula_units_Z   1
loop_
 _symmetry_equiv_pos_site_id
 _symmetry_equiv_pos_as_xyz
  1  'x, y, z'
loop_
 _atom_site_type_symbol
 _atom_site_label
 _atom_site_symmetry_multiplicity
 _atom_site_fract_x
 _atom_site_fract_y
 _atom_site_fract_z
 _atom_site_occupancy
  Li  Li0  1  0.39945000  0.80404500  0.39214100  1
  Li  Li1  1  0.25300900  0.51292400  0.92733300  1
  Li  Li2  1  0.74699100  0.48707600  0.07266700  1
  Li  Li3  1  0.60055000  0.19595500  0.60785900  1
  V  V0  1  0.33488900  0.67070400  0.66801000  1
  V  V1  1  0.66511100  0.32929600  0.33199000  1
  V  V2  1  0.00000000  0.00000000  0.00000000  1
  C  C0  1  0.11726400  0.23903900  0.47039300  1
  C  C1  1  0.45218700  0.90113400  0.13549600  1
  C  C2  1  0.21201500  0.42219200  0.19634100  1
  C  C3  1  0.78798500  0.57780800  0.80365900  1
  C  C4  1  0.54781300  0.09886600  0.86450400  1
  C  C5  1  0.88273600  0.76096100  0.52960700  1
  O  O0  1  0.71551900  0.88851400  0.12449600  1
  O  O1  1  0.61563900  0.77780000  0.53508300  1
  O  O2  1  0.40137000  0.50672900  0.28528300  1
  O  O3  1  0.29737600  0.34250200  0.10129900  1
  O  O4  1  0.04951700  0.33817800  0.56514400  1
  O  O5  1  0.38640600  0.00078400  0.22982800  1
  O  O6  1  0.92235000  0.15360600  0.38408400  1
  O  O7  1  0.24179500  0.80129900  0.05009500  1
  O  O8  1  0.05851500  0.57530000  0.79880500  1
  O  O9  1  0.94148500  0.42470000  0.20119500  1
  O  O10  1  0.75820500  0.19870100  0.94990500  1
  O  O11  1  0.07765000  0.84639400  0.61591600  1
  O  O12  1  0.61359400  0.99921600  0.77017200  1
  O  O13  1  0.95048300  0.66182200  0.43485600  1
  O  O14  1  0.70262400  0.65749800  0.89870100  1
  O  O15  1  0.59863000  0.49327100  0.71471700  1
  O  O16  1  0.38436100  0.22220000  0.46491700  1
  O  O17  1  0.28448100  0.11148600  0.87550400  1
loop_
_geom_bond_atom_site_label_1
_geom_bond_atom_site_label_2
_geom_bond_distance
_geom_bond_site_symmetry_2
Li0 O2 2.002863 1_555
Li0 O13 2.069030 1_455
Li0 O1 2.089663 1_555
Li0 O5 2.509493 1_565
Li0 O16 2.523610 1_565
Li0 O6 2.553901 1_565
Li1 O8 1.990063 1_555
Li1 O14 2.021211 1_555
Li1 O7 2.081597 1_556
Li1 O10 2.416504 1_455
Li1 O17 2.431884 1_555
Li1 O3 2.574088 1_556
Li2 O9 1.990063 1_555
Li2 O3 2.021211 1_555
Li2 O10 2.081597 1_554
Li2 O7 2.416504 1_655
Li2 O0 2.431884 1_555
Li2 O14 2.574088 1_554
Li3 O15 2.002863 1_555
Li3 O4 2.069030 1_655
Li3 O16 2.089663 1_555
Li3 O12 2.509493 1_545
Li3 O1 2.523610 1_545
Li3 O11 2.553901 1_545
C0 O6 1.284226 1_455
C0 O4 1.301622 1_555
C0 O16 1.312070 1_555
C1 O0 1.287809 1_555
C1 O5 1.294671 1_565
C1 O7 1.316197 1_555
C2 O9 1.291662 1_455
C2 O2 1.294344 1_555
C2 O3 1.300700 1_555
C3 O8 1.291662 1_655
C3 O15 1.294344 1_555
C3 O14 1.300700 1_555
C4 O17 1.287809 1_555
C4 O12 1.294671 1_545
C4 O10 1.316197 1_555
C5 O11 1.284226 1_655
C5 O13 1.301622 1_555
C5 O1 1.312070 1_555
O0 V2 2.069275 1_665
O1 V0 2.138541 1_555
O2 V1 2.075246 1_555
O3 V2 2.114273 1_555
O4 V0 2.071086 1_555
O5 V1 2.044788 1_555
O6 V1 2.067813 1_555
O7 V2 2.113729 1_565
O8 V0 2.093514 1_555
O9 V1 2.093514 1_555
O10 V2 2.113729 1_656
O11 V0 2.067813 1_555
O12 V0 2.044788 1_555
O13 V1 2.071086 1_555
O14 V2 2.114273 1_666
O15 V0 2.075246 1_555
O16 V1 2.138541 1_555
O17 V2 2.069275 1_556
