# generated using pymatgen
data_Li8MnO6
_symmetry_space_group_name_H-M   'P 1'
_cell_length_a   5.54010417
_cell_length_b   5.54010417
_cell_length_c   11.03183700
_cell_angle_alpha   90.00000000
_cell_angle_beta   90.00000000
_cell_angle_gamma   120.00000203
_symmetry_Int_Tables_number   1
_chemical_formula_structural   Li8MnO6
_chemical_formula_sum   'Li16 Mn2 O12'
_cell_volume   293.23399739
_cell_formula_units_Z   2
loop_
 _symmetry_equiv_pos_site_id
 _symmetry_equiv_pos_as_xyz
  1  'x, y, z'
loop_
 _atom_site_type_symbol
 _atom_site_label
 _atom_site_symmetry_multiplicity
 _atom_site_fract_x
 _atom_site_fract_y
 _atom_site_fract_z
 _atom_site_occupancy
  Li  Li0  1  0.00000000  0.69171600  0.76647500  1
  Li  Li1  1  0.00000000  0.61617900  0.13135000  1
  Li  Li2  1  0.00000000  0.38382100  0.63135000  1
  Li  Li3  1  0.00000000  0.30828400  0.26647500  1
  Li  Li4  1  0.33333300  0.66666700  0.40335500  1
  Li  Li5  1  0.33333300  0.66666700  0.90335500  1
  Li  Li6  1  0.30828400  0.30828400  0.76647500  1
  Li  Li7  1  0.38382100  0.38382100  0.13135000  1
  Li  Li8  1  0.61617900  0.61617900  0.63135000  1
  Li  Li9  1  0.30828400  0.00000000  0.26647500  1
  Li  Li10  1  0.69171600  0.69171600  0.26647500  1
  Li  Li11  1  0.38382100  0.00000000  0.63135000  1
  Li  Li12  1  0.66666700  0.33333300  0.90335500  1
  Li  Li13  1  0.66666700  0.33333300  0.40335500  1
  Li  Li14  1  0.61617900  0.00000000  0.13135000  1
  Li  Li15  1  0.69171600  0.00000000  0.76647500  1
  Mn  Mn0  1  0.00000000  0.00000000  0.99151500  1
  Mn  Mn1  1  0.00000000  0.00000000  0.49151500  1
  O  O0  1  0.00000000  0.69124600  0.94894900  1
  O  O1  1  0.00000000  0.30875400  0.44894900  1
  O  O2  1  0.33333300  0.66666700  0.21874400  1
  O  O3  1  0.00000000  0.00000000  0.16959700  1
  O  O4  1  0.00000000  0.00000000  0.66959700  1
  O  O5  1  0.33333300  0.66666700  0.71874400  1
  O  O6  1  0.30875400  0.30875400  0.94894900  1
  O  O7  1  0.30875400  0.00000000  0.44894900  1
  O  O8  1  0.69124600  0.69124600  0.44894900  1
  O  O9  1  0.66666700  0.33333300  0.71874400  1
  O  O10  1  0.66666700  0.33333300  0.21874400  1
  O  O11  1  0.69124600  0.00000000  0.94894900  1
loop_
_geom_bond_atom_site_label_1
_geom_bond_atom_site_label_2
_geom_bond_distance
_geom_bond_site_symmetry_2
Li0 O5 1.990753 1_555
Li0 O9 1.990756 1_455
Li0 O0 2.013025 1_555
Li0 O4 2.014750 1_565
Li1 O2 1.975226 1_555
Li1 O10 1.975228 1_455
Li1 O0 2.054745 1_554
Li1 O3 2.167866 1_565
Li2 O9 1.975226 1_455
Li2 O5 1.975228 1_555
Li2 O1 2.054745 1_555
Li2 O4 2.167866 1_555
Li3 O10 1.990753 1_455
Li3 O2 1.990756 1_555
Li3 O1 2.013025 1_555
Li3 O3 2.014750 1_555
Li4 O7 1.983255 1_565
Li4 O1 1.983258 1_555
Li4 O8 1.983261 1_555
Li4 O2 2.036598 1_555
Li5 O0 1.983255 1_555
Li5 O11 1.983258 1_565
Li5 O6 1.983261 1_555
Li5 O5 2.036598 1_555
Li6 O5 1.990758 1_555
Li6 O9 1.990758 1_555
Li6 O6 2.013025 1_555
Li6 O4 2.014750 1_555
Li7 O10 1.975231 1_555
Li7 O2 1.975231 1_555
Li7 O6 2.054745 1_554
Li7 O3 2.167866 1_555
Li8 O5 1.975231 1_555
Li8 O9 1.975231 1_555
Li8 O8 2.054745 1_555
Li8 O4 2.167866 1_665
Li9 O2 1.990753 1_545
Li9 O10 1.990756 1_555
Li9 O7 2.013025 1_555
Li9 O3 2.014750 1_555
Li10 O10 1.990758 1_555
Li10 O2 1.990758 1_555
Li10 O8 2.013025 1_555
Li10 O3 2.014750 1_665
Li11 O5 1.975226 1_545
Li11 O9 1.975228 1_555
Li11 O7 2.054745 1_555
Li11 O4 2.167866 1_555
Li12 O11 1.983255 1_555
Li12 O0 1.983258 1_655
Li12 O6 1.983261 1_555
Li12 O9 2.036598 1_555
Li13 O1 1.983255 1_655
Li13 O7 1.983258 1_555
Li13 O8 1.983261 1_555
Li13 O10 2.036598 1_555
Li14 O10 1.975226 1_555
Li14 O2 1.975228 1_545
Li14 O11 2.054745 1_554
Li14 O3 2.167866 1_655
Li15 O9 1.990753 1_555
Li15 O5 1.990756 1_545
Li15 O11 2.013025 1_555
Li15 O4 2.014750 1_655
Mn0 O6 1.773814 1_555
Mn0 O0 1.773814 1_545
Mn0 O11 1.773814 1_455
Mn0 O3 1.964572 1_556
Mn1 O8 1.773814 1_445
Mn1 O1 1.773814 1_555
Mn1 O7 1.773814 1_555
Mn1 O4 1.964572 1_555
