# generated using pymatgen
data_Li4Co5Ni3O16
_symmetry_space_group_name_H-M   'P 1'
_cell_length_a   5.62381927
_cell_length_b   5.62381927
_cell_length_c   9.09708690
_cell_angle_alpha   89.83570231
_cell_angle_beta   89.83570231
_cell_angle_gamma   60.05443702
_symmetry_Int_Tables_number   1
_chemical_formula_structural   Li4Co5Ni3O16
_chemical_formula_sum   'Li4 Co5 Ni3 O16'
_cell_volume   249.30516267
_cell_formula_units_Z   1
loop_
 _symmetry_equiv_pos_site_id
 _symmetry_equiv_pos_as_xyz
  1  'x, y, z'
loop_
 _atom_site_type_symbol
 _atom_site_label
 _atom_site_symmetry_multiplicity
 _atom_site_fract_x
 _atom_site_fract_y
 _atom_site_fract_z
 _atom_site_occupancy
  Li  Li0  1  0.66570600  0.66570600  0.89584600  1
  Li  Li1  1  0.99834800  0.99834800  0.99807100  1
  Li  Li2  1  0.00087300  0.00087300  0.49588500  1
  Li  Li3  1  0.33406700  0.33406700  0.39561900  1
  Co  Co0  1  0.82734800  0.33841600  0.21470900  1
  Co  Co1  1  0.66277600  0.66277600  0.48505800  1
  Co  Co2  1  0.33841600  0.82734800  0.21470900  1
  Co  Co3  1  0.16834600  0.16834600  0.71443600  1
  Co  Co4  1  0.33017800  0.33017800  0.98357600  1
  Ni  Ni0  1  0.82809900  0.82809900  0.21406500  1
  Ni  Ni1  1  0.66045200  0.16696500  0.71433500  1
  Ni  Ni2  1  0.16696500  0.66045200  0.71433500  1
  O  O0  1  0.83469100  0.32318000  0.59837000  1
  O  O1  1  0.52012300  0.52012300  0.33847900  1
  O  O2  1  0.66720700  0.66720700  0.10966500  1
  O  O3  1  0.99578600  0.99578600  0.30623000  1
  O  O4  1  0.99626300  0.99626300  0.80694400  1
  O  O5  1  0.32318000  0.83469100  0.59837000  1
  O  O6  1  0.95814600  0.51870800  0.34067900  1
  O  O7  1  0.51870800  0.95814600  0.34067900  1
  O  O8  1  0.16327500  0.16327500  0.10349300  1
  O  O9  1  0.83605300  0.83605300  0.59862100  1
  O  O10  1  0.48032200  0.03801700  0.83995600  1
  O  O11  1  0.03801700  0.48032200  0.83995600  1
  O  O12  1  0.33384300  0.33384300  0.61209700  1
  O  O13  1  0.67271700  0.15919200  0.09757900  1
  O  O14  1  0.47712700  0.47712700  0.83996100  1
  O  O15  1  0.15919200  0.67271700  0.09757900  1
loop_
_geom_bond_atom_site_label_1
_geom_bond_atom_site_label_2
_geom_bond_distance
_geom_bond_site_symmetry_2
Li0 O10 1.883370 1_565
Li0 O11 1.883370 1_655
Li0 O14 1.907090 1_555
Li0 O2 1.945233 1_556
Li1 O4 1.738885 1_555
Li1 O13 1.825569 1_566
Li1 O15 1.825569 1_656
Li1 O8 1.873342 1_666
Li2 O3 1.726183 1_445
Li2 O5 1.828011 1_545
Li2 O0 1.828011 1_455
Li2 O9 1.854630 1_445
Li3 O1 1.883262 1_555
Li3 O6 1.899721 1_455
Li3 O7 1.899721 1_545
Li3 O12 1.969313 1_555
Co0 O2 1.864282 1_555
Co0 O3 1.864523 1_545
Co0 O1 1.878824 1_555
Co0 O6 1.907476 1_555
Co0 O8 1.923500 1_655
Co0 O13 1.947835 1_555
Co1 O1 1.928760 1_555
Co1 O7 1.946991 1_555
Co1 O6 1.946991 1_555
Co1 O5 1.948269 1_555
Co1 O0 1.948269 1_555
Co1 O9 1.981436 1_555
Co2 O2 1.864282 1_555
Co2 O3 1.864523 1_455
Co2 O1 1.878824 1_555
Co2 O7 1.907476 1_555
Co2 O8 1.923500 1_565
Co2 O15 1.947835 1_555
Co3 O12 1.858526 1_555
Co3 O4 1.872706 1_445
Co3 O11 1.908450 1_555
Co3 O10 1.908450 1_555
Co3 O5 1.941359 1_545
Co3 O0 1.941359 1_455
Co4 O10 1.934045 1_555
Co4 O11 1.934045 1_555
Co4 O14 1.934492 1_555
Co4 O8 1.954469 1_556
Co4 O13 1.966610 1_556
Co4 O15 1.966610 1_556
Ni0 O2 1.834842 1_555
Ni0 O3 1.838085 1_555
Ni0 O6 1.900507 1_555
Ni0 O7 1.900507 1_555
Ni0 O15 1.929552 1_655
Ni0 O13 1.929552 1_565
Ni1 O4 1.841851 1_545
Ni1 O12 1.844833 1_555
Ni1 O10 1.892107 1_555
Ni1 O14 1.902853 1_555
Ni1 O0 1.921741 1_555
Ni1 O9 1.927980 1_545
Ni2 O4 1.841851 1_455
Ni2 O12 1.844833 1_555
Ni2 O11 1.892107 1_555
Ni2 O14 1.902853 1_555
Ni2 O5 1.921741 1_555
Ni2 O9 1.927980 1_455
