# generated using pymatgen
data_Li3Ti(BO3)2
_symmetry_space_group_name_H-M   'P 1'
_cell_length_a   5.02278800
_cell_length_b   7.08746039
_cell_length_c   7.97560905
_cell_angle_alpha   112.27034984
_cell_angle_beta   89.39747010
_cell_angle_gamma   93.08908311
_symmetry_Int_Tables_number   1
_chemical_formula_structural   Li3Ti(BO3)2
_chemical_formula_sum   'Li6 Ti2 B4 O12'
_cell_volume   262.34644050
_cell_formula_units_Z   2
loop_
 _symmetry_equiv_pos_site_id
 _symmetry_equiv_pos_as_xyz
  1  'x, y, z'
loop_
 _atom_site_type_symbol
 _atom_site_label
 _atom_site_symmetry_multiplicity
 _atom_site_fract_x
 _atom_site_fract_y
 _atom_site_fract_z
 _atom_site_occupancy
  Li  Li0  1  0.84295700  0.26117900  0.85289500  1
  Li  Li1  1  0.65308000  0.38970800  0.54883200  1
  Li  Li2  1  0.86174600  0.43995900  0.26252500  1
  Li  Li3  1  0.13825400  0.56004100  0.73747500  1
  Li  Li4  1  0.34692000  0.61029200  0.45116800  1
  Li  Li5  1  0.15704300  0.73882100  0.14710500  1
  Ti  Ti0  1  0.59594100  0.01258400  0.15945100  1
  Ti  Ti1  1  0.40405900  0.98741600  0.84054900  1
  B  B0  1  0.13553700  0.19740300  0.38845400  1
  B  B1  1  0.66605500  0.65612500  0.93026900  1
  B  B2  1  0.33394500  0.34387500  0.06973100  1
  B  B3  1  0.86446300  0.80259700  0.61154600  1
  O  O0  1  0.71957000  0.97632400  0.71623600  1
  O  O1  1  0.18706900  0.22308800  0.91476500  1
  O  O2  1  0.86889900  0.19306800  0.33979000  1
  O  O3  1  0.26279400  0.35878700  0.51760600  1
  O  O4  1  0.76178600  0.49269100  0.79994600  1
  O  O5  1  0.58893700  0.26119700  0.07146800  1
  O  O6  1  0.41106300  0.73880300  0.92853200  1
  O  O7  1  0.23821400  0.50730900  0.20005400  1
  O  O8  1  0.73720600  0.64121300  0.48239400  1
  O  O9  1  0.13110100  0.80693200  0.66021000  1
  O  O10  1  0.81293100  0.77691200  0.08523500  1
  O  O11  1  0.28043000  0.02367600  0.28376400  1
loop_
_geom_bond_atom_site_label_1
_geom_bond_atom_site_label_2
_geom_bond_distance
_geom_bond_site_symmetry_2
Li0 O1 1.863585 1_655
Li0 O4 1.907306 1_555
Li0 O0 1.964561 1_545
Li0 O5 2.149393 1_556
Li1 O4 1.927194 1_555
Li1 O3 1.968634 1_555
Li1 O2 2.064156 1_555
Li1 O8 2.065616 1_555
Li2 O8 1.917855 1_555
Li2 O7 2.028508 1_655
Li2 O5 2.048970 1_555
Li2 O2 2.065791 1_555
Li3 O3 1.917855 1_555
Li3 O4 2.028508 1_455
Li3 O6 2.048970 1_555
Li3 O9 2.065791 1_555
Li4 O7 1.927194 1_555
Li4 O8 1.968634 1_555
Li4 O9 2.064156 1_555
Li4 O3 2.065616 1_555
Li5 O10 1.863585 1_455
Li5 O7 1.907306 1_555
Li5 O11 1.964561 1_565
Li5 O6 2.149393 1_554
B0 O3 1.349041 1_555
B0 O2 1.393800 1_455
B0 O11 1.430885 1_555
B1 O4 1.338005 1_555
B1 O10 1.397790 1_556
B1 O6 1.439218 1_555
B2 O7 1.338005 1_555
B2 O1 1.397790 1_554
B2 O5 1.439218 1_555
B3 O8 1.349041 1_555
B3 O9 1.393800 1_655
B3 O0 1.430885 1_555
O0 Ti1 1.849842 1_555
O1 Ti1 1.939445 1_545
O2 Ti0 2.010630 1_555
O5 Ti0 2.131381 1_555
O5 Ti1 2.269913 1_544
O6 Ti1 2.131381 1_555
O6 Ti0 2.269913 1_566
O9 Ti1 2.010630 1_555
O10 Ti0 1.939445 1_565
O11 Ti0 1.849842 1_555
