# generated using pymatgen
data_Sr3Nd10Al12Si18(N2O)18
_symmetry_space_group_name_H-M   'P 1'
_cell_length_a   11.69093901
_cell_length_b   11.69093901
_cell_length_c   11.69476286
_cell_angle_alpha   70.56198168
_cell_angle_beta   70.56198168
_cell_angle_gamma   109.44454157
_symmetry_Int_Tables_number   1
_chemical_formula_structural   Sr3Nd10Al12Si18(N2O)18
_chemical_formula_sum   'Sr3 Nd10 Al12 Si18 N36 O18'
_cell_volume   1231.87381566
_cell_formula_units_Z   1
loop_
 _symmetry_equiv_pos_site_id
 _symmetry_equiv_pos_as_xyz
  1  'x, y, z'
loop_
 _atom_site_type_symbol
 _atom_site_label
 _atom_site_symmetry_multiplicity
 _atom_site_fract_x
 _atom_site_fract_y
 _atom_site_fract_z
 _atom_site_occupancy
  Sr  Sr0  1  0.42499200  0.99997100  0.31995000  1
  Sr  Sr1  1  0.99997100  0.42499200  0.31995000  1
  Sr  Sr2  1  0.99958700  0.99958700  0.00207200  1
  Nd  Nd0  1  0.57914000  0.57914000  0.74780400  1
  Nd  Nd1  1  0.75065400  0.32678000  0.66801900  1
  Nd  Nd2  1  0.32678000  0.75065400  0.66801900  1
  Nd  Nd3  1  0.00279000  0.67476200  0.57737400  1
  Nd  Nd4  1  0.67476200  0.00279000  0.57737400  1
  Nd  Nd5  1  0.57553000  0.24957400  0.41970200  1
  Nd  Nd6  1  0.24957400  0.57553000  0.41970200  1
  Nd  Nd7  1  0.32647000  0.32647000  0.25293600  1
  Nd  Nd8  1  0.67319800  0.42105300  0.00221300  1
  Nd  Nd9  1  0.42105300  0.67319800  0.00221300  1
  Al  Al0  1  0.99986300  0.75370700  0.83755400  1
  Al  Al1  1  0.75311900  0.16193100  0.00027300  1
  Al  Al2  1  0.16193100  0.75311900  0.00027300  1
  Al  Al3  1  0.75370700  0.99986300  0.83755400  1
  Al  Al4  1  0.83765400  0.83765400  0.40945200  1
  Al  Al5  1  0.24738300  0.40995800  0.75292700  1
  Al  Al6  1  0.40995800  0.24738300  0.75292700  1
  Al  Al7  1  0.24639700  0.24639700  0.59172300  1
  Al  Al8  1  0.59104500  0.83788700  0.16244800  1
  Al  Al9  1  0.83788700  0.59104500  0.16244800  1
  Al  Al10  1  0.00045500  0.16266600  0.24619200  1
  Al  Al11  1  0.16266600  0.00045500  0.24619200  1
  Si  Si0  1  0.69909800  0.69909800  0.99984300  1
  Si  Si1  1  0.84003800  0.84003800  0.69856600  1
  Si  Si2  1  0.16086900  0.46172900  0.99827300  1
  Si  Si3  1  0.99952000  0.29979700  0.69978400  1
  Si  Si4  1  0.99953500  0.46138400  0.83907000  1
  Si  Si5  1  0.46138400  0.99953500  0.83907000  1
  Si  Si6  1  0.69908300  0.53908600  0.46137700  1
  Si  Si7  1  0.53908600  0.69908300  0.46137700  1
  Si  Si8  1  0.29979700  0.99952000  0.69978400  1
  Si  Si9  1  0.53871700  0.53871700  0.30058500  1
  Si  Si10  1  0.00042900  0.16138700  0.53763000  1
  Si  Si11  1  0.16138700  0.00042900  0.53763000  1
  Si  Si12  1  0.84172100  0.30129000  0.15923900  1
  Si  Si13  1  0.30129000  0.84172100  0.15923900  1
  Si  Si14  1  0.69966800  0.00007700  0.30104100  1
  Si  Si15  1  0.00007700  0.69966800  0.30104100  1
  Si  Si16  1  0.46172900  0.16086900  0.99827300  1
  Si  Si17  1  0.30141600  0.30141600  0.00004200  1
  N  N0  1  0.68885600  0.84250600  0.99982700  1
  N  N1  1  0.84250600  0.68885600  0.99982700  1
  N  N2  1  0.69552000  0.69552000  0.85369400  1
  N  N3  1  0.30572700  0.45176200  0.99907700  1
  N  N4  1  0.84661100  0.15614600  0.84368400  1
  N  N5  1  0.15614600  0.84661100  0.84368400  1
  N  N6  1  0.48020000  0.15129000  0.84709500  1
  N  N7  1  0.15129000  0.48020000  0.84709500  1
  N  N8  1  0.31181000  0.31181000  0.84624400  1
  N  N9  1  0.00009600  0.30399000  0.55082700  1
  N  N10  1  0.00004500  0.84990300  0.67252900  1
  N  N11  1  0.84990300  0.00004500  0.67252900  1
  N  N12  1  0.84306000  0.99961500  0.31109300  1
  N  N13  1  0.67266600  0.67266600  0.47766700  1
  N  N14  1  0.85373200  0.55101900  0.45134200  1
  N  N15  1  0.55101900  0.85373200  0.45134200  1
  N  N16  1  0.15348000  0.31066900  0.69027400  1
  N  N17  1  0.31066900  0.15348000  0.69027400  1
  N  N18  1  0.99673700  0.44839100  0.69671400  1
  N  N19  1  0.44839100  0.99673700  0.69671400  1
  N  N20  1  0.52176900  0.67223900  0.32784200  1
  N  N21  1  0.67223900  0.52176900  0.32784200  1
  N  N22  1  0.00000400  0.69289900  0.15619600  1
  N  N23  1  0.30399000  0.00009600  0.55082700  1
  N  N24  1  0.15061700  0.15061700  0.52267500  1
  N  N25  1  0.99961500  0.84306000  0.31109300  1
  N  N26  1  0.69887400  0.14723800  0.30486500  1
  N  N27  1  0.14723800  0.69887400  0.30486500  1
  N  N28  1  0.55047200  0.55047200  0.14509600  1
  N  N29  1  0.84903500  0.32813600  0.99937200  1
  N  N30  1  0.32813600  0.84903500  0.99937200  1
  N  N31  1  0.69289900  0.00000400  0.15619600  1
  N  N32  1  0.15831200  0.15831200  0.15266600  1
  N  N33  1  0.00183400  0.32544000  0.14401200  1
  N  N34  1  0.32544000  0.00183400  0.14401200  1
  N  N35  1  0.45176200  0.30572700  0.99907700  1
  O  O0  1  0.74989600  0.50116300  0.74918600  1
  O  O1  1  0.50116300  0.74989600  0.74918600  1
  O  O2  1  0.81154600  0.81154600  0.57836700  1
  O  O3  1  0.99969000  0.61024400  0.81257100  1
  O  O4  1  0.61024400  0.99969000  0.81257100  1
  O  O5  1  0.39139600  0.57718800  0.61032200  1
  O  O6  1  0.57718800  0.39139600  0.61032200  1
  O  O7  1  0.24063700  0.73327800  0.51210500  1
  O  O8  1  0.73327800  0.24063700  0.51210500  1
  O  O9  1  0.99929700  0.18237900  0.39142400  1
  O  O10  1  0.38987800  0.38987800  0.42307700  1
  O  O11  1  0.42300700  0.81343200  0.18609700  1
  O  O12  1  0.81343200  0.42300700  0.18609700  1
  O  O13  1  0.50658900  0.26613700  0.24444400  1
  O  O14  1  0.26613700  0.50658900  0.24444400  1
  O  O15  1  0.18237900  0.99929700  0.39142400  1
  O  O16  1  0.18758100  0.61006800  0.99974100  1
  O  O17  1  0.61006800  0.18758100  0.99974100  1
loop_
_geom_bond_atom_site_label_1
_geom_bond_atom_site_label_2
_geom_bond_distance
_geom_bond_site_symmetry_2
Nd0 O1 2.457610 1_555
Nd0 O0 2.457610 1_555
Nd0 O2 2.570851 1_555
Nd0 O5 3.121393 1_555
Nd0 O6 3.121393 1_555
Nd1 O8 2.390132 1_555
Nd1 O0 2.520290 1_555
Nd1 O6 2.594251 1_555
Nd1 O4 3.137910 1_545
Nd1 O17 3.189516 1_555
Nd2 O7 2.390132 1_555
Nd2 O1 2.520290 1_555
Nd2 O5 2.594251 1_555
Nd2 O3 3.137910 1_455
Nd2 O16 3.189516 1_555
Nd3 O7 2.399156 1_555
Nd3 O0 2.496889 1_455
Nd3 O3 2.582729 1_455
Nd3 O15 3.114238 1_555
Nd3 O2 3.151474 1_455
Nd4 O8 2.399156 1_555
Nd4 O1 2.496889 1_545
Nd4 O4 2.582729 1_545
Nd4 O9 3.114238 1_555
Nd4 O2 3.151474 1_545
Nd5 O13 2.413964 1_555
Nd5 O8 2.441191 1_555
Nd5 O12 2.609910 1_555
Nd5 O10 3.123990 1_555
Nd5 O6 3.191625 1_555
Nd6 O14 2.413964 1_555
Nd6 O7 2.441191 1_555
Nd6 O11 2.609910 1_555
Nd6 O10 3.123990 1_555
Nd6 O5 3.191625 1_555
Nd7 O13 2.416182 1_555
Nd7 O14 2.416182 1_555
Nd7 O10 2.579878 1_555
Nd7 O9 3.140411 1_455
Nd7 O15 3.140411 1_545
Nd8 O13 2.379715 1_555
Nd8 O0 2.503542 1_554
Nd8 O17 2.592536 1_554
Nd8 O12 3.109224 1_555
Nd8 O3 3.140086 1_554
Nd9 O14 2.379715 1_555
Nd9 O1 2.503542 1_554
Nd9 O16 2.592536 1_554
Nd9 O11 3.109224 1_555
Nd9 O4 3.140086 1_554
Al0 O3 1.795192 1_555
Al0 N5 1.827804 1_655
Al0 N1 1.830484 1_555
Al0 N10 1.881618 1_655
Al1 O17 1.796237 1_554
Al1 N4 1.830912 1_554
Al1 N31 1.834429 1_555
Al1 N29 1.887054 1_554
Al2 O16 1.796237 1_554
Al2 N5 1.830912 1_554
Al2 N22 1.834429 1_555
Al2 N30 1.887054 1_554
Al3 O4 1.795192 1_555
Al3 N4 1.827804 1_565
Al3 N0 1.830484 1_555
Al3 N11 1.881618 1_565
Al4 O2 1.795542 1_555
Al4 N25 1.826115 1_555
Al4 N12 1.826115 1_555
Al4 N13 1.884688 1_555
Al5 O5 1.791031 1_555
Al5 N16 1.828252 1_555
Al5 N8 1.834121 1_555
Al5 N7 1.882001 1_555
Al6 O6 1.791031 1_555
Al6 N17 1.828252 1_555
Al6 N8 1.834121 1_555
Al6 N6 1.882001 1_555
Al7 O10 1.800034 1_555
Al7 N17 1.832894 1_555
Al7 N16 1.832894 1_555
Al7 N24 1.878456 1_555
Al8 O11 1.797047 1_555
Al8 N31 1.833757 1_565
Al8 N0 1.835893 1_554
Al8 N20 1.888799 1_555
Al9 O12 1.797047 1_555
Al9 N22 1.833757 1_655
Al9 N1 1.835893 1_554
Al9 N21 1.888799 1_555
Al10 O9 1.784753 1_455
Al10 N32 1.833271 1_555
Al10 N12 1.835167 1_445
Al10 N33 1.871573 1_555
Al11 O15 1.784753 1_545
Al11 N32 1.833271 1_555
Al11 N25 1.835167 1_445
Al11 N34 1.871573 1_555
N0 Si0 1.720088 1_555
N0 Nd9 3.082227 1_556
N1 Si0 1.720088 1_555
N1 Nd8 3.082227 1_556
N2 Si0 1.737468 1_555
N2 Si1 1.737730 1_555
N2 Nd0 2.499257 1_555
N2 Nd9 2.968587 1_556
N2 Nd8 2.968587 1_556
N3 Si17 1.737690 1_556
N3 Si2 1.738663 1_555
N3 Nd9 2.508640 1_556
N3 Nd0 2.955784 1_555
N3 Nd7 2.973148 1_556
N4 Si3 1.722202 1_555
N4 Nd1 3.123242 1_555
N5 Si8 1.722202 1_555
N5 Nd2 3.123242 1_555
N6 Si5 1.752016 1_545
N6 Si16 1.754633 1_555
N6 Nd1 2.646984 1_555
N7 Si4 1.752016 1_455
N7 Si2 1.754633 1_555
N7 Nd2 2.646984 1_555
N8 Si17 1.721580 1_556
N8 Nd0 3.093236 1_555
N9 Si3 1.724009 1_455
N9 Si10 1.725816 1_555
N9 Sr1 2.598702 1_455
N9 Nd1 2.924696 1_455
N9 Nd6 2.924831 1_555
N10 Si1 1.749045 1_455
N10 Si11 1.762163 1_565
N10 Nd3 2.639778 1_555
N11 Si1 1.749045 1_545
N11 Si10 1.762163 1_655
N11 Nd4 2.639778 1_555
N12 Si14 1.720724 1_565
N12 Nd4 3.101246 1_565
N13 Si7 1.746561 1_555
N13 Si6 1.746561 1_555
N13 Nd0 2.641480 1_555
N14 Si6 1.726853 1_555
N14 Si15 1.738579 1_655
N14 Nd1 2.487710 1_555
N14 Nd3 2.958424 1_655
N14 Sr1 2.981675 1_555
N15 Si7 1.726853 1_555
N15 Si14 1.738579 1_565
N15 Nd2 2.487710 1_555
N15 Nd4 2.958424 1_565
N15 Sr0 2.981675 1_555
N16 Si3 1.724336 1_455
N16 Nd6 3.107967 1_555
N17 Si8 1.724336 1_545
N17 Nd5 3.107967 1_555
N18 Si4 1.731191 1_555
N18 Si3 1.736986 1_555
N18 Nd3 2.511571 1_655
N18 Nd1 2.940686 1_555
N18 Nd6 2.989655 1_655
N19 Si5 1.731191 1_555
N19 Si8 1.736986 1_555
N19 Nd4 2.511571 1_565
N19 Nd2 2.940686 1_555
N19 Nd5 2.989655 1_565
N20 Si7 1.752879 1_555
N20 Si9 1.752898 1_555
N20 Nd6 2.660773 1_555
N21 Si6 1.752879 1_555
N21 Si9 1.752898 1_555
N21 Nd5 2.660773 1_555
N22 Si15 1.722148 1_555
N22 Sr1 3.079597 1_455
N23 Si8 1.724009 1_545
N23 Si11 1.725816 1_555
N23 Sr0 2.598702 1_545
N23 Nd2 2.924696 1_545
N23 Nd5 2.924831 1_555
N24 Si11 1.756950 1_555
N24 Si10 1.756950 1_555
N24 Nd7 2.637684 1_555
N25 Si15 1.720724 1_655
N25 Nd3 3.101246 1_655
N26 Si12 1.730912 1_555
N26 Si14 1.738850 1_555
N26 Nd5 2.498698 1_555
N26 Nd4 2.931022 1_555
N26 Sr0 2.999884 1_545
N27 Si13 1.730912 1_555
N27 Si15 1.738850 1_555
N27 Nd6 2.498698 1_555
N27 Nd3 2.931022 1_555
N27 Sr1 2.999884 1_455
N28 Si0 1.727644 1_554
N28 Si9 1.731806 1_555
N28 Nd7 2.518779 1_555
N28 Nd9 2.944895 1_555
N28 Nd8 2.944895 1_555
N29 Si4 1.752995 1_555
N29 Si12 1.756823 1_556
N29 Nd8 2.621516 1_556
N30 Si5 1.752995 1_555
N30 Si13 1.756823 1_556
N30 Nd9 2.621516 1_556
N31 Si14 1.722148 1_555
N31 Sr0 3.079597 1_545
N32 Si17 1.716183 1_555
N32 Nd7 3.098438 1_555
N33 Si12 1.734398 1_455
N33 Si2 1.735385 1_554
N33 Sr1 2.677584 1_455
N34 Si13 1.734398 1_545
N34 Si16 1.735385 1_554
N34 Sr0 2.677584 1_545
N35 Si17 1.737690 1_556
N35 Si16 1.738663 1_555
N35 Nd8 2.508640 1_556
N35 Nd0 2.955784 1_555
N35 Nd7 2.973148 1_556
O2 Si1 1.657503 1_555
O3 Si4 1.662317 1_555
O4 Si5 1.662317 1_555
O5 Si7 1.659542 1_555
O6 Si6 1.659542 1_555
O7 Sr0 2.656197 1_555
O8 Sr1 2.656197 1_555
O9 Si10 1.649820 1_655
O9 Sr1 2.673298 1_555
O10 Si9 1.665460 1_555
O11 Si13 1.665713 1_555
O11 Sr0 3.077260 1_555
O12 Si12 1.665713 1_555
O12 Sr1 3.077260 1_555
O13 Sr0 2.647036 1_545
O14 Sr1 2.647036 1_455
O15 Si11 1.649820 1_565
O15 Sr0 2.673298 1_555
O16 Si2 1.663777 1_555
O16 Sr1 3.081624 1_456
O17 Si16 1.663777 1_555
O17 Sr0 3.081624 1_546
