# generated using pymatgen
data_Li2Cr3FeO8
_symmetry_space_group_name_H-M   'P 1'
_cell_length_a   5.87647570
_cell_length_b   5.87955975
_cell_length_c   9.53501021
_cell_angle_alpha   89.16649365
_cell_angle_beta   90.41696449
_cell_angle_gamma   120.01736026
_symmetry_Int_Tables_number   1
_chemical_formula_structural   Li2Cr3FeO8
_chemical_formula_sum   'Li4 Cr6 Fe2 O16'
_cell_volume   285.22762866
_cell_formula_units_Z   2
loop_
 _symmetry_equiv_pos_site_id
 _symmetry_equiv_pos_as_xyz
  1  'x, y, z'
loop_
 _atom_site_type_symbol
 _atom_site_label
 _atom_site_symmetry_multiplicity
 _atom_site_fract_x
 _atom_site_fract_y
 _atom_site_fract_z
 _atom_site_occupancy
  Li  Li0  1  0.33182600  0.66826500  0.89501500  1
  Li  Li1  1  0.00044000  0.00034000  0.99715400  1
  Li  Li2  1  0.99956000  0.99990000  0.49715400  1
  Li  Li3  1  0.66817400  0.33643800  0.39501600  1
  Cr  Cr0  1  0.16899000  0.83193000  0.21245400  1
  Cr  Cr1  1  0.17016400  0.34006400  0.21506800  1
  Cr  Cr2  1  0.66241900  0.83191700  0.21246000  1
  Cr  Cr3  1  0.33758100  0.16949800  0.71246000  1
  Cr  Cr4  1  0.83101000  0.66294000  0.71245400  1
  Cr  Cr5  1  0.82983600  0.16989800  0.71506800  1
  Fe  Fe0  1  0.33652200  0.66478400  0.48836900  1
  Fe  Fe1  1  0.66347800  0.32826200  0.98836900  1
  O  O0  1  0.16383700  0.83841600  0.60652000  1
  O  O1  1  0.04029400  0.52740300  0.33571400  1
  O  O2  1  0.33479300  0.67161600  0.10345200  1
  O  O3  1  0.99874700  0.99564200  0.31260400  1
  O  O4  1  0.00125300  0.99689300  0.81260400  1
  O  O5  1  0.17253900  0.32449200  0.60340300  1
  O  O6  1  0.48271900  0.96302400  0.33207900  1
  O  O7  1  0.48980900  0.52798900  0.33512500  1
  O  O8  1  0.32457100  0.15310600  0.10450200  1
  O  O9  1  0.67542900  0.82853400  0.60450200  1
  O  O10  1  0.51728100  0.48030500  0.83207900  1
  O  O11  1  0.51019100  0.03818000  0.83512500  1
  O  O12  1  0.66520700  0.33682200  0.60345200  1
  O  O13  1  0.83616300  0.67458000  0.10652000  1
  O  O14  1  0.95970600  0.48711000  0.83571400  1
  O  O15  1  0.82746100  0.15195300  0.10340300  1
loop_
_geom_bond_atom_site_label_1
_geom_bond_atom_site_label_2
_geom_bond_distance
_geom_bond_site_symmetry_2
Li0 O11 1.961324 1_565
Li0 O14 1.976168 1_455
Li0 O2 1.987696 1_556
Li0 O10 2.000738 1_555
Li1 O4 1.760166 1_545
Li1 O8 1.941428 1_556
Li1 O13 1.947930 1_446
Li1 O15 1.949904 1_456
Li2 O3 1.760166 1_555
Li2 O9 1.941428 1_555
Li2 O0 1.947934 1_655
Li2 O5 1.949904 1_665
Li3 O7 1.961331 1_555
Li3 O1 1.976171 1_655
Li3 O12 1.987687 1_555
Li3 O6 2.000736 1_545
Cr0 O8 1.921226 1_565
Cr0 O1 1.938037 1_555
Cr0 O3 1.960455 1_455
Cr0 O6 1.966537 1_555
Cr0 O2 1.969799 1_555
Cr0 O13 1.972193 1_455
Cr1 O3 1.974419 1_445
Cr1 O2 1.984036 1_555
Cr1 O7 1.997140 1_555
Cr1 O1 2.002426 1_555
Cr1 O15 2.046251 1_455
Cr1 O8 2.046616 1_555
Cr2 O15 1.922097 1_565
Cr2 O7 1.932106 1_555
Cr2 O3 1.959694 1_555
Cr2 O2 1.964487 1_555
Cr2 O6 1.966674 1_555
Cr2 O13 1.976305 1_555
Cr3 O5 1.922097 1_555
Cr3 O11 1.932106 1_555
Cr3 O4 1.959695 1_545
Cr3 O12 1.964488 1_555
Cr3 O10 1.966674 1_555
Cr3 O0 1.976309 1_545
Cr4 O9 1.921221 1_555
Cr4 O14 1.938032 1_555
Cr4 O4 1.960446 1_655
Cr4 O10 1.966537 1_555
Cr4 O12 1.969804 1_555
Cr4 O0 1.972193 1_655
Cr5 O4 1.974419 1_645
Cr5 O12 1.984040 1_555
Cr5 O11 1.997141 1_555
Cr5 O14 2.002439 1_555
Cr5 O5 2.046250 1_655
Cr5 O9 2.046611 1_545
Fe0 O5 2.038935 1_555
Fe0 O9 2.049383 1_555
Fe0 O7 2.090835 1_555
Fe0 O1 2.095690 1_555
Fe0 O0 2.104221 1_555
Fe0 O6 2.114008 1_555
Fe1 O15 2.038935 1_556
Fe1 O8 2.049383 1_556
Fe1 O11 2.090835 1_555
Fe1 O14 2.095690 1_555
Fe1 O13 2.104225 1_556
Fe1 O10 2.114007 1_555
