# generated using pymatgen
data_Ba6ZrO8
_symmetry_space_group_name_H-M   'P 1'
_cell_length_a   7.71168817
_cell_length_b   7.71168817
_cell_length_c   7.71168817
_cell_angle_alpha   60.00000000
_cell_angle_beta   60.00000000
_cell_angle_gamma   60.00000000
_symmetry_Int_Tables_number   1
_chemical_formula_structural   Ba6ZrO8
_chemical_formula_sum   'Ba6 Zr1 O8'
_cell_volume   324.28987001
_cell_formula_units_Z   1
loop_
 _symmetry_equiv_pos_site_id
 _symmetry_equiv_pos_as_xyz
  1  'x, y, z'
loop_
 _atom_site_type_symbol
 _atom_site_label
 _atom_site_symmetry_multiplicity
 _atom_site_fract_x
 _atom_site_fract_y
 _atom_site_fract_z
 _atom_site_occupancy
  Ba  Ba0  1  0.50000000  0.00000000  0.00000000  1
  Ba  Ba1  1  0.50000000  0.00000000  0.50000000  1
  Ba  Ba2  1  0.00000000  0.00000000  0.50000000  1
  Ba  Ba3  1  0.50000000  0.50000000  0.00000000  1
  Ba  Ba4  1  0.00000000  0.50000000  0.00000000  1
  Ba  Ba5  1  0.00000000  0.50000000  0.50000000  1
  Zr  Zr0  1  0.00000000  0.00000000  0.00000000  1
  O  O0  1  0.79904600  0.20095400  0.20095400  1
  O  O1  1  0.25000000  0.25000000  0.25000000  1
  O  O2  1  0.20095400  0.79904600  0.20095400  1
  O  O3  1  0.20095400  0.20095400  0.79904600  1
  O  O4  1  0.79904600  0.79904600  0.20095400  1
  O  O5  1  0.79904600  0.20095400  0.79904600  1
  O  O6  1  0.75000000  0.75000000  0.75000000  1
  O  O7  1  0.20095400  0.79904600  0.79904600  1
loop_
_geom_bond_atom_site_label_1
_geom_bond_atom_site_label_2
_geom_bond_distance
_geom_bond_site_symmetry_2
Ba0 O1 2.726494 1_555
Ba0 O6 2.726494 1_544
Ba0 O5 2.778467 1_554
Ba0 O4 2.778467 1_545
Ba0 O3 2.778467 1_554
Ba0 O2 2.778467 1_545
Ba1 O1 2.726494 1_555
Ba1 O6 2.726494 1_545
Ba1 O0 2.778467 1_555
Ba1 O3 2.778467 1_555
Ba1 O7 2.778467 1_545
Ba1 O4 2.778467 1_545
Ba2 O6 2.726494 1_445
Ba2 O1 2.726494 1_555
Ba2 O5 2.778467 1_455
Ba2 O7 2.778467 1_545
Ba2 O2 2.778467 1_545
Ba2 O0 2.778467 1_455
Ba3 O1 2.726494 1_555
Ba3 O6 2.726494 1_554
Ba3 O2 2.778467 1_555
Ba3 O0 2.778467 1_555
Ba3 O7 2.778467 1_554
Ba3 O5 2.778467 1_554
Ba4 O1 2.726494 1_555
Ba4 O6 2.726494 1_454
Ba4 O4 2.778467 1_455
Ba4 O7 2.778467 1_554
Ba4 O3 2.778467 1_554
Ba4 O0 2.778467 1_455
Ba5 O1 2.726494 1_555
Ba5 O6 2.726494 1_455
Ba5 O2 2.778467 1_555
Ba5 O3 2.778467 1_555
Ba5 O5 2.778467 1_455
Ba5 O4 2.778467 1_455
O0 Zr0 2.191599 1_655
O2 Zr0 2.191599 1_565
O3 Zr0 2.191599 1_556
O4 Zr0 2.191599 1_665
O5 Zr0 2.191599 1_656
O7 Zr0 2.191599 1_566
