# generated using pymatgen
data_RbSrP3(HO2)6
_symmetry_space_group_name_H-M   'P 1'
_cell_length_a   8.26235300
_cell_length_b   9.27780200
_cell_length_c   15.48122000
_cell_angle_alpha   90.00000000
_cell_angle_beta   90.00000000
_cell_angle_gamma   90.00000000
_symmetry_Int_Tables_number   1
_chemical_formula_structural   RbSrP3(HO2)6
_chemical_formula_sum   'Rb4 Sr4 P12 H24 O48'
_cell_volume   1186.73575681
_cell_formula_units_Z   4
loop_
 _symmetry_equiv_pos_site_id
 _symmetry_equiv_pos_as_xyz
  1  'x, y, z'
loop_
 _atom_site_type_symbol
 _atom_site_label
 _atom_site_symmetry_multiplicity
 _atom_site_fract_x
 _atom_site_fract_y
 _atom_site_fract_z
 _atom_site_occupancy
  Rb  Rb0  1  0.25000000  0.40157800  0.80589200  1
  Rb  Rb1  1  0.25000000  0.90157800  0.69410800  1
  Rb  Rb2  1  0.75000000  0.59842200  0.19410800  1
  Rb  Rb3  1  0.75000000  0.09842200  0.30589200  1
  Sr  Sr0  1  0.25000000  0.59432000  0.47530200  1
  Sr  Sr1  1  0.25000000  0.09432000  0.02469800  1
  Sr  Sr2  1  0.75000000  0.40568000  0.52469800  1
  Sr  Sr3  1  0.75000000  0.90568000  0.97530200  1
  P  P0  1  0.25000000  0.98929500  0.43536300  1
  P  P1  1  0.25000000  0.48929500  0.06463700  1
  P  P2  1  0.75000000  0.01070500  0.56463700  1
  P  P3  1  0.75000000  0.51070500  0.93536300  1
  P  P4  1  0.07517400  0.82421000  0.30646500  1
  P  P5  1  0.42482600  0.32421000  0.19353500  1
  P  P6  1  0.57517400  0.17579000  0.69353500  1
  P  P7  1  0.92482600  0.67579000  0.80646500  1
  P  P8  1  0.92482600  0.17579000  0.69353500  1
  P  P9  1  0.57517400  0.67579000  0.80646500  1
  P  P10  1  0.42482600  0.82421000  0.30646500  1
  P  P11  1  0.07517400  0.32421000  0.19353500  1
  H  H0  1  0.01160000  0.87689000  0.12705600  1
  H  H1  1  0.48840000  0.37689000  0.37294400  1
  H  H2  1  0.51160000  0.12311000  0.87294400  1
  H  H3  1  0.98840000  0.62311000  0.62705600  1
  H  H4  1  0.98840000  0.12311000  0.87294400  1
  H  H5  1  0.51160000  0.62311000  0.62705600  1
  H  H6  1  0.48840000  0.87689000  0.12705600  1
  H  H7  1  0.01160000  0.37689000  0.37294400  1
  H  H8  1  0.09879200  0.78332300  0.05589600  1
  H  H9  1  0.40120800  0.28332300  0.44410400  1
  H  H10  1  0.59879200  0.21667700  0.94410400  1
  H  H11  1  0.90120800  0.71667700  0.55589600  1
  H  H12  1  0.90120800  0.21667700  0.94410400  1
  H  H13  1  0.59879200  0.71667700  0.55589600  1
  H  H14  1  0.40120800  0.78332300  0.05589600  1
  H  H15  1  0.09879200  0.28332300  0.44410400  1
  H  H16  1  0.15230200  0.86819500  0.88881200  1
  H  H17  1  0.34769800  0.36819500  0.61118800  1
  H  H18  1  0.65230200  0.13180500  0.11118800  1
  H  H19  1  0.84769800  0.63180500  0.38881200  1
  H  H20  1  0.84769800  0.13180500  0.11118800  1
  H  H21  1  0.65230200  0.63180500  0.38881200  1
  H  H22  1  0.34769800  0.86819500  0.88881200  1
  H  H23  1  0.15230200  0.36819500  0.61118800  1
  O  O0  1  0.25000000  0.81725000  0.25843300  1
  O  O1  1  0.25000000  0.31725000  0.24156700  1
  O  O2  1  0.75000000  0.18275000  0.74156700  1
  O  O3  1  0.75000000  0.68275000  0.75843300  1
  O  O4  1  0.05256400  0.69272500  0.36214600  1
  O  O5  1  0.44743600  0.19272500  0.13785400  1
  O  O6  1  0.55256400  0.30727500  0.63785400  1
  O  O7  1  0.94743600  0.80727500  0.86214600  1
  O  O8  1  0.94743600  0.30727500  0.63785400  1
  O  O9  1  0.55256400  0.80727500  0.86214600  1
  O  O10  1  0.44743600  0.69272500  0.36214600  1
  O  O11  1  0.05256400  0.19272500  0.13785400  1
  O  O12  1  0.54819800  0.85842500  0.23896600  1
  O  O13  1  0.95180200  0.35842500  0.26103400  1
  O  O14  1  0.04819800  0.14157500  0.76103400  1
  O  O15  1  0.45180200  0.64157500  0.73896600  1
  O  O16  1  0.45180200  0.14157500  0.76103400  1
  O  O17  1  0.04819800  0.64157500  0.73896600  1
  O  O18  1  0.95180200  0.85842500  0.23896600  1
  O  O19  1  0.54819800  0.35842500  0.26103400  1
  O  O20  1  0.09737700  0.96616400  0.36817400  1
  O  O21  1  0.40262300  0.46616400  0.13182600  1
  O  O22  1  0.59737700  0.03383600  0.63182600  1
  O  O23  1  0.90262300  0.53383600  0.86817400  1
  O  O24  1  0.90262300  0.03383600  0.63182600  1
  O  O25  1  0.59737700  0.53383600  0.86817400  1
  O  O26  1  0.40262300  0.96616400  0.36817400  1
  O  O27  1  0.09737700  0.46616400  0.13182600  1
  O  O28  1  0.25000000  0.37128200  0.99824900  1
  O  O29  1  0.25000000  0.87128200  0.50175100  1
  O  O30  1  0.75000000  0.62871800  0.00175100  1
  O  O31  1  0.75000000  0.12871800  0.49824900  1
  O  O32  1  0.25000000  0.64400500  0.03776300  1
  O  O33  1  0.25000000  0.14400500  0.46223700  1
  O  O34  1  0.75000000  0.35599500  0.96223700  1
  O  O35  1  0.75000000  0.85599500  0.53776300  1
  O  O36  1  0.03789400  0.87455800  0.06450500  1
  O  O37  1  0.46210600  0.37455800  0.43549500  1
  O  O38  1  0.53789400  0.12544200  0.93549500  1
  O  O39  1  0.96210600  0.62544200  0.56450500  1
  O  O40  1  0.96210600  0.12544200  0.93549500  1
  O  O41  1  0.53789400  0.62544200  0.56450500  1
  O  O42  1  0.46210600  0.87455800  0.06450500  1
  O  O43  1  0.03789400  0.37455800  0.43549500  1
  O  O44  1  0.25000000  0.92860200  0.89542600  1
  O  O45  1  0.25000000  0.42860200  0.60457400  1
  O  O46  1  0.75000000  0.07139800  0.10457400  1
  O  O47  1  0.75000000  0.57139800  0.39542600  1
loop_
_geom_bond_atom_site_label_1
_geom_bond_atom_site_label_2
_geom_bond_distance
_geom_bond_site_symmetry_2
H0 O36 0.992672 1_555
H1 O37 0.992672 1_555
H2 O38 0.992672 1_555
H3 O39 0.992672 1_555
H4 O40 0.992672 1_555
H5 O41 0.992672 1_555
H6 O42 0.992672 1_555
H7 O43 0.992672 1_555
H8 O36 0.993694 1_555
H9 O37 0.993694 1_555
H10 O38 0.993694 1_555
H11 O39 0.993694 1_555
H12 O40 0.993694 1_555
H13 O41 0.993694 1_555
H14 O42 0.993694 1_555
H15 O43 0.993694 1_555
H16 O44 0.988018 1_555
H17 O45 0.988018 1_555
H18 O46 0.988018 1_555
H19 O47 0.988018 1_555
H20 O46 0.988018 1_555
H21 O47 0.988018 1_555
H22 O44 0.988018 1_555
H23 O45 0.988018 1_555
O0 P10 1.625917 1_555
O0 P4 1.625917 1_555
O1 P5 1.625917 1_555
O1 P11 1.625917 1_555
O2 P8 1.625917 1_555
O2 P6 1.625917 1_555
O3 P7 1.625917 1_555
O3 P9 1.625917 1_555
O4 P4 1.505356 1_555
O4 Sr0 2.561915 1_555
O5 P5 1.505356 1_555
O5 Sr1 2.561915 1_555
O6 P6 1.505356 1_555
O6 Sr2 2.561915 1_555
O7 P7 1.505356 1_555
O7 Sr3 2.561915 1_555
O8 P8 1.505356 1_555
O8 Sr2 2.561915 1_555
O9 P9 1.505356 1_555
O9 Sr3 2.561915 1_555
O10 P10 1.505356 1_555
O10 Sr0 2.561915 1_555
O11 P11 1.505356 1_555
O11 Sr1 2.561915 1_555
O12 P10 1.493916 1_555
O12 Rb3 2.968422 1_565
O12 Rb2 3.013526 1_555
O13 P11 1.493916 1_655
O13 Rb2 2.968422 1_555
O13 Rb3 3.013526 1_555
O14 P8 1.493916 1_455
O14 Rb1 2.968422 1_545
O14 Rb0 3.013526 1_555
O15 P9 1.493916 1_555
O15 Rb0 2.968422 1_555
O15 Rb1 3.013526 1_555
O16 P6 1.493916 1_555
O16 Rb1 2.968422 1_545
O16 Rb0 3.013526 1_555
O17 P7 1.493916 1_455
O17 Rb0 2.968422 1_555
O17 Rb1 3.013526 1_555
O18 P4 1.493916 1_655
O18 Rb3 2.968422 1_565
O18 Rb2 3.013526 1_555
O19 P5 1.493916 1_555
O19 Rb2 2.968422 1_555
O19 Rb3 3.013526 1_555
O20 P4 1.637332 1_555
O20 P0 1.648693 1_555
O20 Rb3 3.266977 1_465
O21 P5 1.637332 1_555
O21 P1 1.648693 1_555
O21 Rb2 3.266977 1_555
O22 P6 1.637332 1_555
O22 P2 1.648693 1_555
O22 Rb1 3.266977 1_545
O23 P7 1.637332 1_555
O23 P3 1.648693 1_555
O23 Rb0 3.266977 1_655
O24 P8 1.637332 1_555
O24 P2 1.648693 1_555
O24 Rb1 3.266977 1_645
O25 P9 1.637332 1_555
O25 P3 1.648693 1_555
O25 Rb0 3.266977 1_555
O26 P10 1.637332 1_555
O26 P0 1.648693 1_555
O26 Rb3 3.266977 1_565
O27 P11 1.637332 1_555
O27 P1 1.648693 1_555
O27 Rb2 3.266977 1_455
O28 P1 1.501704 1_556
O28 Sr1 2.602018 1_556
O28 Rb0 2.991157 1_555
O29 P0 1.501704 1_555
O29 Sr0 2.602018 1_555
O29 Rb1 2.991157 1_555
O30 P3 1.501704 1_554
O30 Sr3 2.602018 1_554
O30 Rb2 2.991157 1_555
O31 P2 1.501704 1_555
O31 Sr2 2.602018 1_555
O31 Rb3 2.991157 1_555
O32 P1 1.494448 1_555
O33 P0 1.494448 1_545
O34 P3 1.494448 1_555
O35 P2 1.494448 1_565
O36 Sr1 2.758290 1_565
O36 Sr3 2.765607 1_454
O37 Sr0 2.758290 1_555
O37 Sr2 2.765607 1_555
O38 Sr3 2.758290 1_545
O38 Sr1 2.765607 1_556
O39 Sr2 2.758290 1_555
O39 Sr0 2.765607 1_655
O40 Sr3 2.758290 1_545
O40 Sr1 2.765607 1_656
O41 Sr2 2.758290 1_555
O41 Sr0 2.765607 1_555
O42 Sr1 2.758290 1_565
O42 Sr3 2.765607 1_554
O43 Sr0 2.758290 1_555
O43 Sr2 2.765607 1_455
O44 Sr1 2.523699 1_566
O45 Sr0 2.523699 1_555
O46 Sr3 2.523699 1_544
O47 Sr2 2.523699 1_555
