# generated using pymatgen
data_Li4Mn3Fe(PO4)4
_symmetry_space_group_name_H-M   'P 1'
_cell_length_a   12.18885383
_cell_length_b   12.18885383
_cell_length_c   4.78815915
_cell_angle_alpha   89.78761143
_cell_angle_beta   89.78761143
_cell_angle_gamma   60.64470952
_symmetry_Int_Tables_number   1
_chemical_formula_structural   Li4Mn3Fe(PO4)4
_chemical_formula_sum   'Li8 Mn6 Fe2 P8 O32'
_cell_volume   620.02020687
_cell_formula_units_Z   2
loop_
 _symmetry_equiv_pos_site_id
 _symmetry_equiv_pos_as_xyz
  1  'x, y, z'
loop_
 _atom_site_type_symbol
 _atom_site_label
 _atom_site_symmetry_multiplicity
 _atom_site_fract_x
 _atom_site_fract_y
 _atom_site_fract_z
 _atom_site_occupancy
  Li  Li0  1  0.49895900  0.25031100  0.49995300  1
  Li  Li1  1  0.25031100  0.49895900  0.49995300  1
  Li  Li2  1  0.74982100  0.99974200  0.49983500  1
  Li  Li3  1  0.99974200  0.74982100  0.49983500  1
  Li  Li4  1  0.49987500  0.74912200  0.00029700  1
  Li  Li5  1  0.74912200  0.49987500  0.00029700  1
  Li  Li6  1  0.24966300  0.00016200  0.99978500  1
  Li  Li7  1  0.00016200  0.24966300  0.99978500  1
  Mn  Mn0  1  0.51495700  0.01614700  0.97301600  1
  Mn  Mn1  1  0.01614700  0.51495700  0.97301600  1
  Mn  Mn2  1  0.26604900  0.76477500  0.52670400  1
  Mn  Mn3  1  0.76477500  0.26604900  0.52670400  1
  Mn  Mn4  1  0.73398700  0.73398700  0.47351900  1
  Mn  Mn5  1  0.98418800  0.98418800  0.02663900  1
  Fe  Fe0  1  0.23417000  0.23417000  0.47167000  1
  Fe  Fe1  1  0.48376400  0.48376400  0.02871100  1
  P  P0  1  0.82862800  0.82862800  0.91123100  1
  P  P1  1  0.32804600  0.32804600  0.91105400  1
  P  P2  1  0.57760300  0.57760300  0.58983300  1
  P  P3  1  0.07903300  0.07903300  0.58740000  1
  P  P4  1  0.92221300  0.41993400  0.41322600  1
  P  P5  1  0.41993400  0.92221300  0.41322600  1
  P  P6  1  0.67034300  0.17178300  0.08711700  1
  P  P7  1  0.17178300  0.67034300  0.08711700  1
  O  O0  1  0.89726700  0.89726700  0.78809100  1
  O  O1  1  0.39719700  0.39719700  0.79220000  1
  O  O2  1  0.39415300  0.19303200  0.77462300  1
  O  O3  1  0.89474900  0.69297300  0.77854800  1
  O  O4  1  0.69297300  0.89474900  0.77854800  1
  O  O5  1  0.19303200  0.39415300  0.77462300  1
  O  O6  1  0.67325300  0.17222000  0.76648400  1
  O  O7  1  0.17222000  0.67325300  0.76648400  1
  O  O8  1  0.42276800  0.92222100  0.73387600  1
  O  O9  1  0.92222100  0.42276800  0.73387600  1
  O  O10  1  0.64363500  0.44239700  0.72493200  1
  O  O11  1  0.44239700  0.64363500  0.72493200  1
  O  O12  1  0.14491700  0.94354100  0.72141200  1
  O  O13  1  0.94354100  0.14491700  0.72141200  1
  O  O14  1  0.14773800  0.14773800  0.70793400  1
  O  O15  1  0.64641200  0.64641200  0.70958000  1
  O  O16  1  0.85378400  0.35178200  0.28910800  1
  O  O17  1  0.35178200  0.85378400  0.28910800  1
  O  O18  1  0.55567200  0.85634000  0.27803200  1
  O  O19  1  0.05897700  0.35332100  0.28386100  1
  O  O20  1  0.35332100  0.05897700  0.28386100  1
  O  O21  1  0.85634000  0.55567200  0.27803200  1
  O  O22  1  0.07675600  0.07675600  0.26673200  1
  O  O23  1  0.57599600  0.57599600  0.26854500  1
  O  O24  1  0.82671400  0.82671400  0.23210500  1
  O  O25  1  0.32559400  0.32559400  0.23220800  1
  O  O26  1  0.30871200  0.60333300  0.21581200  1
  O  O27  1  0.80523900  0.10656000  0.22109400  1
  O  O28  1  0.60333300  0.30871200  0.21581200  1
  O  O29  1  0.10656000  0.80523900  0.22109400  1
  O  O30  1  0.60196200  0.10321100  0.21180800  1
  O  O31  1  0.10321100  0.60196200  0.21180800  1
loop_
_geom_bond_atom_site_label_1
_geom_bond_atom_site_label_2
_geom_bond_distance
_geom_bond_site_symmetry_2
Li0 O30 2.119671 1_555
Li0 O1 2.128487 1_555
Li0 O2 2.168914 1_555
Li0 O28 2.200929 1_555
Li0 O25 2.249684 1_555
Li0 O6 2.253094 1_555
Li1 O31 2.119671 1_555
Li1 O1 2.128487 1_555
Li1 O5 2.168914 1_555
Li1 O26 2.200929 1_555
Li1 O25 2.249684 1_555
Li1 O7 2.253094 1_555
Li2 O0 2.121262 1_555
Li2 O30 2.125467 1_565
Li2 O4 2.179155 1_555
Li2 O27 2.185284 1_565
Li2 O6 2.237903 1_565
Li2 O24 2.245628 1_555
Li3 O0 2.121262 1_555
Li3 O31 2.125467 1_655
Li3 O3 2.179155 1_555
Li3 O29 2.185284 1_655
Li3 O7 2.237903 1_655
Li3 O24 2.245628 1_555
Li4 O15 2.120687 1_554
Li4 O17 2.129539 1_555
Li4 O11 2.187473 1_554
Li4 O18 2.197707 1_555
Li4 O8 2.237625 1_554
Li4 O23 2.243362 1_555
Li5 O15 2.120687 1_554
Li5 O16 2.129539 1_555
Li5 O10 2.187473 1_554
Li5 O21 2.197707 1_555
Li5 O9 2.237625 1_554
Li5 O23 2.243362 1_555
Li6 O17 2.113959 1_546
Li6 O14 2.129571 1_555
Li6 O12 2.183185 1_545
Li6 O20 2.206460 1_556
Li6 O8 2.235902 1_545
Li6 O22 2.237595 1_556
Li7 O16 2.113959 1_456
Li7 O14 2.129571 1_555
Li7 O13 2.183185 1_455
Li7 O19 2.206460 1_556
Li7 O9 2.235902 1_455
Li7 O22 2.237595 1_556
Mn0 O2 2.145126 1_555
Mn0 O4 2.147549 1_545
Mn0 O30 2.163215 1_556
Mn0 O8 2.272664 1_545
Mn0 O18 2.282528 1_546
Mn0 O20 2.311910 1_556
Mn1 O5 2.145126 1_555
Mn1 O3 2.147549 1_455
Mn1 O31 2.163215 1_556
Mn1 O9 2.272664 1_455
Mn1 O21 2.282528 1_456
Mn1 O19 2.311910 1_556
Mn2 O11 2.143438 1_555
Mn2 O12 2.155820 1_555
Mn2 O17 2.157980 1_555
Mn2 O7 2.258807 1_555
Mn2 O29 2.288954 1_555
Mn2 O26 2.317598 1_555
Mn3 O10 2.143438 1_555
Mn3 O13 2.155820 1_555
Mn3 O16 2.157980 1_555
Mn3 O6 2.258807 1_555
Mn3 O27 2.288954 1_555
Mn3 O28 2.317598 1_555
Mn4 O21 2.156593 1_555
Mn4 O18 2.156593 1_555
Mn4 O15 2.157703 1_555
Mn4 O24 2.263652 1_555
Mn4 O3 2.297409 1_555
Mn4 O4 2.297409 1_555
Mn5 O29 2.157480 1_655
Mn5 O27 2.157480 1_565
Mn5 O0 2.160566 1_554
Mn5 O22 2.266075 1_665
Mn5 O12 2.291714 1_654
Mn5 O13 2.291714 1_564
Fe0 O20 2.107544 1_555
Fe0 O19 2.107544 1_555
Fe0 O14 2.137763 1_555
Fe0 O25 2.235348 1_555
Fe0 O5 2.283655 1_555
Fe0 O2 2.283655 1_555
Fe1 O28 2.103779 1_555
Fe1 O26 2.103779 1_555
Fe1 O1 2.149055 1_554
Fe1 O23 2.259350 1_555
Fe1 O10 2.277770 1_554
Fe1 O11 2.277770 1_554
O0 P0 1.557722 1_555
O1 P1 1.560179 1_555
O2 P1 1.577399 1_555
O3 P0 1.576258 1_555
O4 P0 1.576258 1_555
O5 P1 1.577399 1_555
O6 P6 1.535570 1_556
O7 P7 1.535570 1_556
O8 P5 1.535841 1_555
O9 P4 1.535841 1_555
O10 P2 1.574055 1_555
O11 P2 1.574055 1_555
O12 P3 1.574713 1_565
O13 P3 1.574713 1_655
O14 P3 1.558985 1_555
O15 P2 1.559614 1_555
O16 P4 1.557422 1_555
O17 P5 1.557422 1_555
O18 P5 1.579405 1_555
O19 P4 1.578240 1_455
O20 P5 1.578240 1_545
O21 P4 1.579405 1_555
O22 P3 1.536363 1_555
O23 P2 1.538895 1_555
O24 P0 1.536751 1_554
O25 P1 1.538380 1_554
O26 P7 1.581066 1_555
O27 P6 1.571455 1_555
O28 P6 1.581066 1_555
O29 P7 1.571455 1_555
O30 P6 1.557360 1_555
O31 P7 1.557360 1_555
