# generated using pymatgen
data_Co2As2O5
_symmetry_space_group_name_H-M   'P 1'
_cell_length_a   6.21437533
_cell_length_b   9.26075105
_cell_length_c   9.25076915
_cell_angle_alpha   66.00627400
_cell_angle_beta   82.21833021
_cell_angle_gamma   78.98168048
_symmetry_Int_Tables_number   1
_chemical_formula_structural   Co2As2O5
_chemical_formula_sum   'Co8 As8 O20'
_cell_volume   476.42236940
_cell_formula_units_Z   4
loop_
 _symmetry_equiv_pos_site_id
 _symmetry_equiv_pos_as_xyz
  1  'x, y, z'
loop_
 _atom_site_type_symbol
 _atom_site_label
 _atom_site_symmetry_multiplicity
 _atom_site_fract_x
 _atom_site_fract_y
 _atom_site_fract_z
 _atom_site_occupancy
  Co  Co0  1  0.32498977  0.26651617  0.45454476  1
  Co  Co1  1  0.14301454  0.94455451  0.63011401  1
  Co  Co2  1  0.60045665  0.41145945  0.15426827  1
  Co  Co3  1  0.89935076  0.60897137  0.85082465  1
  Co  Co4  1  0.10064924  0.39102863  0.14917535  1
  Co  Co5  1  0.39954335  0.58854055  0.84573173  1
  Co  Co6  1  0.85698546  0.05544549  0.36988599  1
  Co  Co7  1  0.67501023  0.73348383  0.54545524  1
  As  As0  1  0.78649779  0.39027681  0.49096066  1
  As  As1  1  0.26312431  0.27940075  0.83215796  1
  As  As2  1  0.38444133  0.03116541  0.25158185  1
  As  As3  1  0.73687569  0.72059925  0.16784204  1
  As  As4  1  0.21350221  0.60972319  0.50903934  1
  As  As5  1  0.77061553  0.22117437  0.98869452  1
  As  As6  1  0.61555867  0.96883459  0.74841815  1
  As  As7  1  0.22938447  0.77882563  0.01130548  1
  O  O0  1  0.82497773  0.02970250  0.59259154  1
  O  O1  1  0.40905402  0.63575981  0.61548197  1
  O  O2  1  0.97396413  0.66313165  0.61285018  1
  O  O3  1  0.76919974  0.60985432  0.37789686  1
  O  O4  1  0.82701845  0.56660960  0.09272390  1
  O  O5  1  0.62614833  0.94091253  0.35951022  1
  O  O6  1  0.37385167  0.05908747  0.64048978  1
  O  O7  1  0.87686718  0.23102220  0.15779289  1
  O  O8  1  0.02603587  0.33686835  0.38714982  1
  O  O9  1  0.12313282  0.76897780  0.84220711  1
  O  O10  1  0.17502227  0.97029750  0.40740846  1
  O  O11  1  0.01578827  0.19387629  0.87289890  1
  O  O12  1  0.68753868  0.43516669  0.90600610  1
  O  O13  1  0.37979716  0.23099483  0.23979222  1
  O  O14  1  0.17298155  0.43339040  0.90727610  1
  O  O15  1  0.59094598  0.36424019  0.38451803  1
  O  O16  1  0.62020284  0.76900517  0.76020778  1
  O  O17  1  0.31246132  0.56483331  0.09399390  1
  O  O18  1  0.23080026  0.39014568  0.62210314  1
  O  O19  1  0.98421173  0.80612371  0.12710110  1
loop_
_geom_bond_atom_site_label_1
_geom_bond_atom_site_label_2
_geom_bond_distance
_geom_bond_site_symmetry_2
Co0 O15 1.943007 1_555
Co0 O8 1.945578 1_555
Co0 O6 1.993061 1_555
Co0 O13 2.115732 1_555
Co0 O18 2.235502 1_555
Co1 O10 1.961767 1_555
Co1 O6 1.973249 1_565
Co1 O9 1.981220 1_555
Co1 O0 2.003969 1_465
Co2 O15 1.987424 1_555
Co2 O17 2.045934 1_555
Co2 O4 2.064405 1_555
Co2 O7 2.148840 1_555
Co2 O13 2.192308 1_555
Co2 O12 2.216821 1_554
Co3 O2 2.056069 1_555
Co3 O14 2.073919 1_655
Co3 O16 2.075839 1_555
Co3 O4 2.108213 1_556
Co3 O12 2.131556 1_555
Co3 O9 2.190335 1_655
Co4 O8 2.056069 1_555
Co4 O4 2.073919 1_455
Co4 O13 2.075839 1_555
Co4 O14 2.108213 1_554
Co4 O17 2.131556 1_555
Co4 O7 2.190335 1_455
Co5 O1 1.987424 1_555
Co5 O12 2.045934 1_555
Co5 O14 2.064405 1_555
Co5 O9 2.148840 1_555
Co5 O16 2.192308 1_555
Co5 O17 2.216821 1_556
Co6 O0 1.961767 1_555
Co6 O5 1.973249 1_545
Co6 O7 1.981220 1_555
Co6 O10 2.003969 1_645
Co7 O1 1.943007 1_555
Co7 O2 1.945578 1_555
Co7 O5 1.993061 1_555
Co7 O16 2.115732 1_555
Co7 O3 2.235502 1_555
As0 O8 1.760819 1_655
As0 O15 1.770211 1_555
As0 O3 1.859472 1_555
As1 O11 1.788164 1_555
As1 O14 1.795966 1_555
As1 O18 1.809495 1_555
As2 O5 1.788619 1_545
As2 O10 1.789115 1_545
As2 O13 1.803783 1_555
As3 O19 1.788164 1_555
As3 O4 1.795966 1_555
As3 O3 1.809495 1_555
As4 O2 1.760819 1_455
As4 O1 1.770211 1_555
As4 O18 1.859472 1_555
As5 O11 1.778697 1_655
As5 O12 1.806084 1_555
As5 O7 1.819352 1_556
As6 O6 1.788619 1_565
As6 O0 1.789115 1_565
As6 O16 1.803783 1_555
As7 O19 1.778697 1_455
As7 O17 1.806084 1_555
As7 O9 1.819352 1_554
