# generated using pymatgen
data_Li2CrNi(PO4)2
_symmetry_space_group_name_H-M   'P 1'
_cell_length_a   4.75783323
_cell_length_b   10.20036283
_cell_length_c   6.14400600
_cell_angle_alpha   90.00009254
_cell_angle_beta   90.00022068
_cell_angle_gamma   89.01027830
_symmetry_Int_Tables_number   1
_chemical_formula_structural   Li2CrNi(PO4)2
_chemical_formula_sum   'Li4 Cr2 Ni2 P4 O16'
_cell_volume   298.13411139
_cell_formula_units_Z   2
loop_
 _symmetry_equiv_pos_site_id
 _symmetry_equiv_pos_as_xyz
  1  'x, y, z'
loop_
 _atom_site_type_symbol
 _atom_site_label
 _atom_site_symmetry_multiplicity
 _atom_site_fract_x
 _atom_site_fract_y
 _atom_site_fract_z
 _atom_site_occupancy
  Li  Li0  1  0.00003300  0.00006200  0.99997400  1
  Li  Li1  1  0.00003300  0.00006100  0.50002500  1
  Li  Li2  1  0.50000200  0.49995500  0.99998500  1
  Li  Li3  1  0.50000200  0.49995500  0.50001500  1
  Cr  Cr0  1  0.45798200  0.22047400  0.74999900  1
  Cr  Cr1  1  0.54205300  0.77952700  0.24999300  1
  Ni  Ni0  1  0.98126900  0.27953100  0.25000000  1
  Ni  Ni1  1  0.01855000  0.72043600  0.75000600  1
  P  P0  1  0.41648000  0.09489100  0.24999800  1
  P  P1  1  0.58355800  0.90516700  0.75000000  1
  P  P2  1  0.91660100  0.40755400  0.75000100  1
  P  P3  1  0.08336800  0.59238400  0.25000100  1
  O  O0  1  0.69398500  0.04831300  0.75000300  1
  O  O1  1  0.30616600  0.95176600  0.24999900  1
  O  O2  1  0.73949200  0.10049000  0.24999800  1
  O  O3  1  0.26054900  0.89961400  0.74999900  1
  O  O4  1  0.24216000  0.40140000  0.75000600  1
  O  O5  1  0.75783400  0.59854800  0.25000000  1
  O  O6  1  0.20435500  0.44943800  0.24999900  1
  O  O7  1  0.79556800  0.55046100  0.74999700  1
  O  O8  1  0.27191100  0.16487400  0.05163900  1
  O  O9  1  0.27191400  0.16487500  0.44835700  1
  O  O10  1  0.72811000  0.83519200  0.55164700  1
  O  O11  1  0.72811100  0.83519000  0.94835400  1
  O  O12  1  0.78793400  0.33885300  0.54510500  1
  O  O13  1  0.78793800  0.33885500  0.95489800  1
  O  O14  1  0.21202200  0.66106800  0.04509400  1
  O  O15  1  0.21202500  0.66106700  0.45490800  1
loop_
_geom_bond_atom_site_label_1
_geom_bond_atom_site_label_2
_geom_bond_distance
_geom_bond_site_symmetry_2
Li0 O8 2.162266 1_556
Li0 O11 2.162835 1_445
Li0 O0 2.167146 1_455
Li0 O1 2.167750 1_546
Li0 O3 2.213848 1_545
Li0 O2 2.214030 1_456
Li1 O9 2.162296 1_555
Li1 O10 2.162818 1_445
Li1 O0 2.167185 1_455
Li1 O1 2.167759 1_545
Li1 O3 2.213835 1_545
Li1 O2 2.214043 1_455
Li2 O13 2.139182 1_555
Li2 O14 2.139431 1_556
Li2 O7 2.151065 1_555
Li2 O6 2.151461 1_556
Li2 O4 2.217448 1_555
Li2 O5 2.217754 1_556
Li3 O12 2.139187 1_555
Li3 O15 2.139412 1_555
Li3 O7 2.151030 1_555
Li3 O6 2.151461 1_555
Li3 O4 2.217507 1_555
Li3 O5 2.217762 1_555
Cr0 O0 2.067995 1_555
Cr0 O4 2.096391 1_555
Cr0 O9 2.134800 1_555
Cr0 O8 2.134806 1_556
Cr0 O12 2.360675 1_555
Cr0 O13 2.360706 1_555
Cr1 O1 2.068372 1_555
Cr1 O5 2.096770 1_555
Cr1 O11 2.134950 1_554
Cr1 O10 2.135026 1_555
Cr1 O14 2.361363 1_555
Cr1 O15 2.361420 1_555
Ni0 O6 2.047880 1_655
Ni0 O13 2.116696 1_554
Ni0 O12 2.116719 1_555
Ni0 O9 2.170120 1_655
Ni0 O8 2.170134 1_655
Ni0 O2 2.175122 1_555
Ni1 O7 2.048210 1_455
Ni1 O14 2.117035 1_556
Ni1 O15 2.117101 1_555
Ni1 O11 2.170006 1_455
Ni1 O10 2.170054 1_455
Ni1 O3 2.176882 1_555
O0 P1 1.560305 1_545
O1 P0 1.559914 1_565
O2 P0 1.538884 1_555
O3 P1 1.538844 1_555
O4 P2 1.549143 1_455
O5 P3 1.549027 1_655
O6 P3 1.558339 1_555
O7 P2 1.558046 1_555
O8 P0 1.565571 1_555
O9 P0 1.565571 1_555
O10 P1 1.565473 1_555
O11 P1 1.565486 1_555
O12 P2 1.570172 1_555
O13 P2 1.570166 1_555
O14 P3 1.570129 1_555
O15 P3 1.570124 1_555
