# generated using pymatgen
data_Cu3OF5
_symmetry_space_group_name_H-M   'P 1'
_cell_length_a   7.55532583
_cell_length_b   4.60509854
_cell_length_c   5.96593000
_cell_angle_alpha   87.40046648
_cell_angle_beta   88.72253987
_cell_angle_gamma   90.88273913
_symmetry_Int_Tables_number   1
_chemical_formula_structural   Cu3OF5
_chemical_formula_sum   'Cu6 O2 F10'
_cell_volume   207.27956799
_cell_formula_units_Z   2
loop_
 _symmetry_equiv_pos_site_id
 _symmetry_equiv_pos_as_xyz
  1  'x, y, z'
loop_
 _atom_site_type_symbol
 _atom_site_label
 _atom_site_symmetry_multiplicity
 _atom_site_fract_x
 _atom_site_fract_y
 _atom_site_fract_z
 _atom_site_occupancy
  Cu  Cu0  1  0.99990600  0.02628500  0.97295300  1
  Cu  Cu1  1  0.98922300  0.47715000  0.50966500  1
  Cu  Cu2  1  0.33342800  0.97371500  0.36038000  1
  Cu  Cu3  1  0.66666700  0.50000000  0.16666700  1
  Cu  Cu4  1  0.34411100  0.52285000  0.82366800  1
  Cu  Cu5  1  0.66666700  0.00000000  0.66666700  1
  O  O0  1  0.44636700  0.81259200  0.63772100  1
  O  O1  1  0.88696600  0.18740800  0.69561200  1
  F  F0  1  0.23259800  0.21582800  0.01789800  1
  F  F1  1  0.10073500  0.78417200  0.31543500  1
  F  F2  1  0.44687400  0.70515100  0.15421000  1
  F  F3  1  0.21369400  0.28512000  0.51701000  1
  F  F4  1  0.11963900  0.71488000  0.81632300  1
  F  F5  1  0.55657700  0.20282800  0.35007600  1
  F  F6  1  0.88645900  0.29484900  0.17912300  1
  F  F7  1  0.77404500  0.69446300  0.48986100  1
  F  F8  1  0.55928800  0.30553700  0.84347200  1
  F  F9  1  0.77675600  0.79717200  0.98325700  1
loop_
_geom_bond_atom_site_label_1
_geom_bond_atom_site_label_2
_geom_bond_distance
_geom_bond_site_symmetry_2
Cu0 F4 1.967705 1_645
Cu0 F9 1.973366 1_545
Cu0 F6 1.975041 1_556
Cu0 F0 1.979784 1_656
Cu0 O1 1.996861 1_555
Cu0 F1 2.426344 1_646
Cu1 O1 1.844891 1_555
Cu1 F3 1.925149 1_655
Cu1 F7 1.925216 1_555
Cu1 F1 1.955179 1_655
Cu1 F6 2.322651 1_555
Cu1 F4 2.396935 1_655
Cu2 F3 1.967708 1_565
Cu2 F5 1.973359 1_565
Cu2 F2 1.975038 1_555
Cu2 F1 1.979791 1_555
Cu2 O0 1.996857 1_555
Cu2 F0 2.426347 1_565
Cu3 F5 1.884262 1_555
Cu3 F9 1.884262 1_554
Cu3 F6 1.924350 1_555
Cu3 F2 1.924357 1_555
Cu3 F7 2.319890 1_555
Cu3 F8 2.319898 1_554
Cu4 O0 1.844888 1_555
Cu4 F4 1.925156 1_555
Cu4 F8 1.925209 1_555
Cu4 F0 1.955182 1_556
Cu4 F2 2.322648 1_556
Cu4 F3 2.396939 1_555
Cu5 O1 1.878044 1_555
Cu5 O0 1.878051 1_545
Cu5 F8 1.970321 1_555
Cu5 F7 1.970322 1_545
Cu5 F9 2.250690 1_545
Cu5 F5 2.250698 1_555
