# generated using pymatgen
data_LiV2(CO3)4
_symmetry_space_group_name_H-M   'P 1'
_cell_length_a   5.87772900
_cell_length_b   8.20888200
_cell_length_c   12.25676508
_cell_angle_alpha   48.39905992
_cell_angle_beta   90.00000000
_cell_angle_gamma   90.00000000
_symmetry_Int_Tables_number   1
_chemical_formula_structural   LiV2(CO3)4
_chemical_formula_sum   'Li2 V4 C8 O24'
_cell_volume   442.22924424
_cell_formula_units_Z   2
loop_
 _symmetry_equiv_pos_site_id
 _symmetry_equiv_pos_as_xyz
  1  'x, y, z'
loop_
 _atom_site_type_symbol
 _atom_site_label
 _atom_site_symmetry_multiplicity
 _atom_site_fract_x
 _atom_site_fract_y
 _atom_site_fract_z
 _atom_site_occupancy
  Li  Li0  1  0.56730400  0.52808000  0.32676200  1
  Li  Li1  1  0.43269600  0.52808000  0.82676200  1
  V  V0  1  0.00124300  0.54036300  0.00094300  1
  V  V1  1  0.95763100  0.95556800  0.00198300  1
  V  V2  1  0.04236900  0.95556800  0.50198300  1
  V  V3  1  0.99875700  0.54036300  0.50094300  1
  C  C0  1  0.56757200  0.54081900  0.00559900  1
  C  C1  1  0.47284400  0.05583500  0.99319400  1
  C  C2  1  0.00189000  0.02651900  0.22047500  1
  C  C3  1  0.00456200  0.46205100  0.28195700  1
  C  C4  1  0.52715600  0.05583500  0.49319400  1
  C  C5  1  0.43242800  0.54081900  0.50559900  1
  C  C6  1  0.99811000  0.02651900  0.72047500  1
  C  C7  1  0.99543800  0.46205100  0.78195700  1
  O  O0  1  0.35447300  0.57160900  0.99711300  1
  O  O1  1  0.50871800  0.22226800  0.97290000  1
  O  O2  1  0.63111400  0.92375200  0.01357500  1
  O  O3  1  0.26418300  0.99049900  0.99723900  1
  O  O4  1  0.68922000  0.43888000  0.12211000  1
  O  O5  1  0.01900000  0.62027000  0.13769000  1
  O  O6  1  0.06847800  0.21707100  0.14820000  1
  O  O7  1  0.92237900  0.94258700  0.16905300  1
  O  O8  1  0.09022500  0.27699100  0.33863500  1
  O  O9  1  0.90184200  0.50394100  0.35184700  1
  O  O10  1  0.01476800  0.88884300  0.36687300  1
  O  O11  1  0.31305200  0.61733700  0.38848200  1
  O  O12  1  0.36888600  0.92375200  0.51357500  1
  O  O13  1  0.73581700  0.99049900  0.49723900  1
  O  O14  1  0.49128200  0.22226800  0.47290000  1
  O  O15  1  0.64552700  0.57160900  0.49711300  1
  O  O16  1  0.31078000  0.43888000  0.62211000  1
  O  O17  1  0.98100000  0.62027000  0.63769000  1
  O  O18  1  0.93152200  0.21707100  0.64820000  1
  O  O19  1  0.07762100  0.94258700  0.66905300  1
  O  O20  1  0.90977500  0.27699100  0.83863500  1
  O  O21  1  0.09815800  0.50394100  0.85184700  1
  O  O22  1  0.98523200  0.88884300  0.86687300  1
  O  O23  1  0.68694800  0.61733700  0.88848200  1
loop_
_geom_bond_atom_site_label_1
_geom_bond_atom_site_label_2
_geom_bond_distance
_geom_bond_site_symmetry_2
Li0 O14 1.933682 1_555
Li0 O9 1.979729 1_555
Li0 O11 2.019515 1_555
Li0 O15 2.385228 1_555
Li1 O1 1.933682 1_555
Li1 O21 1.979729 1_555
Li1 O23 2.019515 1_555
Li1 O0 2.385228 1_555
C0 O0 1.268324 1_554
C0 O4 1.289961 1_555
C0 O23 1.322938 1_554
C1 O1 1.233554 1_555
C1 O2 1.320511 1_546
C1 O3 1.326270 1_545
C2 O6 1.242860 1_555
C2 O7 1.291115 1_445
C2 O10 1.345329 1_545
C3 O9 1.267963 1_455
C3 O8 1.281615 1_555
C3 O5 1.330857 1_555
C4 O14 1.233554 1_555
C4 O12 1.320511 1_545
C4 O13 1.326270 1_545
C5 O15 1.268324 1_555
C5 O16 1.289961 1_555
C5 O11 1.322938 1_555
C6 O18 1.242860 1_555
C6 O19 1.291115 1_645
C6 O22 1.345329 1_545
C7 O21 1.267963 1_655
C7 O20 1.281615 1_555
C7 O17 1.330857 1_555
O0 V0 2.088677 1_556
O2 V1 1.929344 1_555
O3 V1 1.819355 1_456
O4 V0 2.149471 1_655
O5 V1 2.096029 1_455
O5 V0 2.170318 1_555
O6 V0 2.023947 1_555
O7 V1 1.989414 1_555
O8 V2 2.008660 1_545
O9 V3 2.116345 1_555
O10 V2 2.067166 1_555
O10 V3 2.156464 1_455
O11 V3 2.134336 1_455
O12 V2 1.929344 1_555
O13 V2 1.819355 1_655
O15 V3 2.088677 1_555
O16 V3 2.149471 1_455
O17 V2 2.096029 1_655
O17 V3 2.170318 1_555
O18 V3 2.023947 1_555
O19 V2 1.989414 1_555
O20 V1 2.008660 1_546
O21 V0 2.116345 1_556
O22 V1 2.067166 1_556
O22 V0 2.156464 1_656
O23 V0 2.134336 1_656
