# generated using pymatgen
data_LiP4WO12
_symmetry_space_group_name_H-M   'P 1'
_cell_length_a   8.37665800
_cell_length_b   9.67230200
_cell_length_c   13.14142000
_cell_angle_alpha   90.00000000
_cell_angle_beta   90.00000000
_cell_angle_gamma   90.00000000
_symmetry_Int_Tables_number   1
_chemical_formula_structural   LiP4WO12
_chemical_formula_sum   'Li4 P16 W4 O48'
_cell_volume   1064.73842690
_cell_formula_units_Z   4
loop_
 _symmetry_equiv_pos_site_id
 _symmetry_equiv_pos_as_xyz
  1  'x, y, z'
loop_
 _atom_site_type_symbol
 _atom_site_label
 _atom_site_symmetry_multiplicity
 _atom_site_fract_x
 _atom_site_fract_y
 _atom_site_fract_z
 _atom_site_occupancy
  Li  Li0  1  0.99247400  0.75000000  0.00000000  1
  Li  Li1  1  0.00752600  0.25000000  0.00000000  1
  Li  Li2  1  0.50752600  0.25000000  0.50000000  1
  Li  Li3  1  0.49247400  0.75000000  0.50000000  1
  P  P0  1  0.17645000  0.50327300  0.13840100  1
  P  P1  1  0.82355000  0.00327300  0.13840100  1
  P  P2  1  0.53660200  0.50964200  0.15417400  1
  P  P3  1  0.46339800  0.00964200  0.15417400  1
  P  P4  1  0.03660200  0.50964200  0.34582600  1
  P  P5  1  0.96339800  0.00964200  0.34582600  1
  P  P6  1  0.32355000  0.00327300  0.36159900  1
  P  P7  1  0.67645000  0.50327300  0.36159900  1
  P  P8  1  0.32355000  0.49672700  0.63840100  1
  P  P9  1  0.67645000  0.99672700  0.63840100  1
  P  P10  1  0.03660200  0.99035800  0.65417400  1
  P  P11  1  0.96339800  0.49035800  0.65417400  1
  P  P12  1  0.46339800  0.49035800  0.84582600  1
  P  P13  1  0.53660200  0.99035800  0.84582600  1
  P  P14  1  0.17645000  0.99672700  0.86159900  1
  P  P15  1  0.82355000  0.49672700  0.86159900  1
  W  W0  1  0.62980500  0.25000000  0.00000000  1
  W  W1  1  0.37019500  0.75000000  0.00000000  1
  W  W2  1  0.12980500  0.25000000  0.50000000  1
  W  W3  1  0.87019500  0.75000000  0.50000000  1
  O  O0  1  0.18204100  0.62670400  0.06650700  1
  O  O1  1  0.81795900  0.12670400  0.06650700  1
  O  O2  1  0.54407100  0.62338500  0.07603600  1
  O  O3  1  0.45592900  0.12338500  0.07603600  1
  O  O4  1  0.09506500  0.37585600  0.10442400  1
  O  O5  1  0.90493500  0.87585600  0.10442400  1
  O  O6  1  0.36820900  0.88171700  0.13158100  1
  O  O7  1  0.63179100  0.38171700  0.13158100  1
  O  O8  1  0.35485300  0.46783100  0.17807000  1
  O  O9  1  0.64514700  0.96783100  0.17807000  1
  O  O10  1  0.09800400  0.57051700  0.24003300  1
  O  O11  1  0.90199600  0.07051700  0.24003300  1
  O  O12  1  0.40199600  0.07051700  0.25996700  1
  O  O13  1  0.59800400  0.57051700  0.25996700  1
  O  O14  1  0.14514700  0.96783100  0.32193000  1
  O  O15  1  0.85485300  0.46783100  0.32193000  1
  O  O16  1  0.13179100  0.38171700  0.36841900  1
  O  O17  1  0.86820900  0.88171700  0.36841900  1
  O  O18  1  0.59506500  0.37585600  0.39557600  1
  O  O19  1  0.40493500  0.87585600  0.39557600  1
  O  O20  1  0.04407100  0.62338500  0.42396400  1
  O  O21  1  0.95592900  0.12338500  0.42396400  1
  O  O22  1  0.68204100  0.62670400  0.43349300  1
  O  O23  1  0.31795900  0.12670400  0.43349300  1
  O  O24  1  0.31795900  0.37329600  0.56650700  1
  O  O25  1  0.68204100  0.87329600  0.56650700  1
  O  O26  1  0.04407100  0.87661500  0.57603600  1
  O  O27  1  0.95592900  0.37661500  0.57603600  1
  O  O28  1  0.40493500  0.62414400  0.60442400  1
  O  O29  1  0.59506500  0.12414400  0.60442400  1
  O  O30  1  0.13179100  0.11828300  0.63158100  1
  O  O31  1  0.86820900  0.61828300  0.63158100  1
  O  O32  1  0.14514700  0.53216900  0.67807000  1
  O  O33  1  0.85485300  0.03216900  0.67807000  1
  O  O34  1  0.40199600  0.42948300  0.74003300  1
  O  O35  1  0.59800400  0.92948300  0.74003300  1
  O  O36  1  0.09800400  0.92948300  0.75996700  1
  O  O37  1  0.90199600  0.42948300  0.75996700  1
  O  O38  1  0.35485300  0.03216900  0.82193000  1
  O  O39  1  0.64514700  0.53216900  0.82193000  1
  O  O40  1  0.36820900  0.61828300  0.86841900  1
  O  O41  1  0.63179100  0.11828300  0.86841900  1
  O  O42  1  0.09506500  0.12414400  0.89557600  1
  O  O43  1  0.90493500  0.62414400  0.89557600  1
  O  O44  1  0.45592900  0.37661500  0.92396400  1
  O  O45  1  0.54407100  0.87661500  0.92396400  1
  O  O46  1  0.18204100  0.87329600  0.93349300  1
  O  O47  1  0.81795900  0.37329600  0.93349300  1
loop_
_geom_bond_atom_site_label_1
_geom_bond_atom_site_label_2
_geom_bond_distance
_geom_bond_site_symmetry_2
Li0 O5 1.975530 1_555
Li0 O43 1.975530 1_554
Li0 O0 2.169702 1_655
Li0 O46 2.169702 1_654
Li1 O4 1.975530 1_555
Li1 O42 1.975530 1_554
Li1 O47 2.169702 1_454
Li1 O1 2.169702 1_455
Li2 O18 1.975530 1_555
Li2 O29 1.975530 1_555
Li2 O24 2.169702 1_555
Li2 O23 2.169702 1_555
Li3 O19 1.975530 1_555
Li3 O28 1.975530 1_555
Li3 O25 2.169702 1_555
Li3 O22 2.169702 1_555
O0 P0 1.523196 1_555
O0 W1 2.161054 1_555
O1 P1 1.523196 1_555
O1 W0 2.161054 1_555
O2 P2 1.506210 1_555
O2 W1 2.149331 1_555
O3 P3 1.506210 1_555
O3 W0 2.149331 1_555
O4 P0 1.477490 1_555
O5 P1 1.477490 1_565
O6 P3 1.501642 1_565
O6 W1 2.147875 1_555
O7 P2 1.501642 1_555
O7 W0 2.147875 1_555
O8 P2 1.606241 1_555
O8 P0 1.619435 1_555
O9 P3 1.606241 1_565
O9 P1 1.619435 1_565
O10 P4 1.595020 1_555
O10 P0 1.624384 1_555
O11 P5 1.595020 1_555
O11 P1 1.624384 1_555
O12 P3 1.595020 1_555
O12 P6 1.624384 1_555
O13 P2 1.595020 1_555
O13 P7 1.624384 1_555
O14 P5 1.606241 1_465
O14 P6 1.619435 1_565
O15 P4 1.606241 1_655
O15 P7 1.619435 1_555
O16 P4 1.501642 1_555
O16 W2 2.147875 1_555
O17 P5 1.501642 1_565
O17 W3 2.147875 1_555
O18 P7 1.477490 1_555
O19 P6 1.477490 1_565
O20 P4 1.506210 1_555
O20 W3 2.149331 1_455
O21 P5 1.506210 1_555
O21 W2 2.149331 1_655
O22 P7 1.523196 1_555
O22 W3 2.161054 1_555
O23 P6 1.523196 1_555
O23 W2 2.161054 1_555
O24 P8 1.523196 1_555
O24 W2 2.161054 1_555
O25 P9 1.523196 1_555
O25 W3 2.161054 1_555
O26 P10 1.506210 1_555
O26 W3 2.149331 1_455
O27 P11 1.506210 1_555
O27 W2 2.149331 1_655
O28 P8 1.477490 1_555
O29 P9 1.477490 1_545
O30 P10 1.501642 1_545
O30 W2 2.147875 1_555
O31 P11 1.501642 1_555
O31 W3 2.147875 1_555
O32 P11 1.606241 1_455
O32 P8 1.619435 1_555
O33 P10 1.606241 1_645
O33 P9 1.619435 1_545
O34 P12 1.595020 1_555
O34 P8 1.624384 1_555
O35 P13 1.595020 1_555
O35 P9 1.624384 1_555
O36 P10 1.595020 1_555
O36 P14 1.624384 1_555
O37 P11 1.595020 1_555
O37 P15 1.624384 1_555
O38 P13 1.606241 1_545
O38 P14 1.619435 1_545
O39 P12 1.606241 1_555
O39 P15 1.619435 1_555
O40 P12 1.501642 1_555
O40 W1 2.147875 1_556
O41 P13 1.501642 1_545
O41 W0 2.147875 1_556
O42 P14 1.477490 1_545
O43 P15 1.477490 1_555
O44 P12 1.506210 1_555
O44 W0 2.149331 1_556
O45 P13 1.506210 1_555
O45 W1 2.149331 1_556
O46 P14 1.523196 1_555
O46 W1 2.161054 1_556
O47 P15 1.523196 1_555
O47 W0 2.161054 1_556
