# generated using pymatgen
data_V3Fe2Cu(PO4)6
_symmetry_space_group_name_H-M   'P 1'
_cell_length_a   8.46833451
_cell_length_b   8.64036047
_cell_length_c   8.64036071
_cell_angle_alpha   59.99999816
_cell_angle_beta   59.32570533
_cell_angle_gamma   59.32571296
_symmetry_Int_Tables_number   1
_chemical_formula_structural   V3Fe2Cu(PO4)6
_chemical_formula_sum   'V3 Fe2 Cu1 P6 O24'
_cell_volume   442.42985969
_cell_formula_units_Z   1
loop_
 _symmetry_equiv_pos_site_id
 _symmetry_equiv_pos_as_xyz
  1  'x, y, z'
loop_
 _atom_site_type_symbol
 _atom_site_label
 _atom_site_symmetry_multiplicity
 _atom_site_fract_x
 _atom_site_fract_y
 _atom_site_fract_z
 _atom_site_occupancy
  V  V0  1  0.06966400  0.64344500  0.64344500  1
  V  V1  1  0.42403400  0.85865600  0.85865600  1
  V  V2  1  0.92968900  0.35677000  0.35677000  1
  Fe  Fe0  1  0.99031700  0.00322700  0.00322700  1
  Fe  Fe1  1  0.49694100  0.50102000  0.50102000  1
  Cu  Cu0  1  0.56682100  0.14439300  0.14439300  1
  P  P0  1  0.25373700  0.24802000  0.54221300  1
  P  P1  1  0.25373700  0.95603000  0.24802000  1
  P  P2  1  0.25373700  0.54221300  0.95603000  1
  P  P3  1  0.75075900  0.45729100  0.04221600  1
  P  P4  1  0.75075900  0.04221600  0.74973300  1
  P  P5  1  0.75075900  0.74973300  0.45729100  1
  O  O0  1  0.06539600  0.12064800  0.31075200  1
  O  O1  1  0.06539600  0.50320600  0.12064800  1
  O  O2  1  0.06539600  0.31075200  0.50320600  1
  O  O3  1  0.22751000  0.08859400  0.74200900  1
  O  O4  1  0.44160800  0.18919300  0.38894400  1
  O  O5  1  0.26095800  0.41207900  0.56790500  1
  O  O6  1  0.22751000  0.94188700  0.08859400  1
  O  O7  1  0.26095800  0.75905700  0.41207900  1
  O  O8  1  0.56302700  0.62060900  0.00336500  1
  O  O9  1  0.26095800  0.56790500  0.75905700  1
  O  O10  1  0.78062600  0.26472000  0.05006500  1
  O  O11  1  0.56302700  0.00336500  0.81300000  1
  O  O12  1  0.44160800  0.98025500  0.18919300  1
  O  O13  1  0.22751000  0.74200900  0.94188700  1
  O  O14  1  0.72997000  0.44672700  0.23840800  1
  O  O15  1  0.44160800  0.38894400  0.98025500  1
  O  O16  1  0.72997000  0.23840800  0.58489400  1
  O  O17  1  0.78062600  0.05006500  0.90458900  1
  O  O18  1  0.72997000  0.58489400  0.44672700  1
  O  O19  1  0.56302700  0.81300000  0.62060900  1
  O  O20  1  0.78062600  0.90458900  0.26472000  1
  O  O21  1  0.93392100  0.67359600  0.50771500  1
  O  O22  1  0.93392100  0.50771500  0.88476800  1
  O  O23  1  0.93392100  0.88476800  0.67359600  1
loop_
_geom_bond_atom_site_label_1
_geom_bond_atom_site_label_2
_geom_bond_distance
_geom_bond_site_symmetry_2
Fe0 O17 2.123528 1_554
Fe0 O20 2.123535 1_545
Fe0 O10 2.123541 1_555
Fe0 O13 2.212247 1_644
Fe0 O3 2.212251 1_654
Fe0 O6 2.212258 1_645
Fe1 O18 2.194104 1_555
Fe1 O16 2.194111 1_555
Fe1 O14 2.194115 1_555
Fe1 O9 2.205104 1_555
Fe1 O7 2.205110 1_555
Fe1 O5 2.205116 1_555
Cu0 O12 1.962671 1_545
Cu0 O4 1.962671 1_555
Cu0 O15 1.962671 1_554
Cu0 O10 2.142658 1_555
Cu0 O17 2.142658 1_554
Cu0 O20 2.142658 1_545
O0 P1 1.560436 1_545
O0 V2 1.895749 1_455
O1 P2 1.560431 1_554
O1 V2 1.895760 1_455
O2 P0 1.560426 1_555
O2 V2 1.895772 1_455
O3 P0 1.571605 1_555
O3 V1 2.016949 1_545
O4 P0 1.497196 1_555
O5 P0 1.574603 1_555
O5 V0 1.992075 1_555
O6 P1 1.571605 1_555
O6 V1 2.016941 1_554
O7 P1 1.574608 1_555
O7 V0 1.992074 1_555
O8 P3 1.553454 1_555
O8 V1 1.907616 1_554
O9 P2 1.574611 1_555
O9 V0 1.992075 1_555
O10 P3 1.520642 1_555
O11 P4 1.553449 1_555
O11 V1 1.907612 1_545
O12 P1 1.497196 1_555
O13 P2 1.571605 1_555
O13 V1 2.016954 1_555
O14 P3 1.571654 1_555
O14 V2 2.034480 1_555
O15 P2 1.497196 1_555
O16 P4 1.571654 1_555
O16 V2 2.034480 1_555
O17 P4 1.520650 1_555
O18 P5 1.571654 1_555
O18 V2 2.034480 1_555
O19 P5 1.553458 1_555
O19 V1 1.907619 1_555
O20 P5 1.520645 1_555
O21 P5 1.546031 1_555
O21 V0 1.878572 1_655
O22 P3 1.546029 1_556
O22 V0 1.878576 1_655
O23 P4 1.546026 1_565
O23 V0 1.878579 1_655
