# generated using pymatgen
data_Li3Sb(PO4)2
_symmetry_space_group_name_H-M   'P 1'
_cell_length_a   5.17197290
_cell_length_b   5.17197290
_cell_length_c   6.32637949
_cell_angle_alpha   88.65490728
_cell_angle_beta   88.65490728
_cell_angle_gamma   67.08108020
_symmetry_Int_Tables_number   1
_chemical_formula_structural   Li3Sb(PO4)2
_chemical_formula_sum   'Li3 Sb1 P2 O8'
_cell_volume   155.80516759
_cell_formula_units_Z   1
loop_
 _symmetry_equiv_pos_site_id
 _symmetry_equiv_pos_as_xyz
  1  'x, y, z'
loop_
 _atom_site_type_symbol
 _atom_site_label
 _atom_site_symmetry_multiplicity
 _atom_site_fract_x
 _atom_site_fract_y
 _atom_site_fract_z
 _atom_site_occupancy
  Li  Li0  1  0.66216500  0.66216500  0.70492200  1
  Li  Li1  1  0.00000000  0.00000000  0.50000000  1
  Li  Li2  1  0.33783500  0.33783500  0.29507800  1
  Sb  Sb0  1  0.00000000  0.00000000  0.00000000  1
  P  P0  1  0.64753600  0.64753600  0.23962800  1
  P  P1  1  0.35246400  0.35246400  0.76037200  1
  O  O0  1  0.23711000  0.23711000  0.58124200  1
  O  O1  1  0.27069200  0.27069200  0.98085700  1
  O  O2  1  0.31498300  0.75297700  0.25755900  1
  O  O3  1  0.75297700  0.31498300  0.25755900  1
  O  O4  1  0.24702300  0.68501700  0.74244100  1
  O  O5  1  0.68501700  0.24702300  0.74244100  1
  O  O6  1  0.72930800  0.72930800  0.01914300  1
  O  O7  1  0.76289000  0.76289000  0.41875800  1
loop_
_geom_bond_atom_site_label_1
_geom_bond_atom_site_label_2
_geom_bond_distance
_geom_bond_site_symmetry_2
Li0 O7 1.985717 1_555
Li0 O6 2.086048 1_556
Li0 O4 2.111896 1_555
Li0 O5 2.111896 1_555
Li1 O0 2.121886 1_555
Li1 O7 2.121886 1_445
Li1 O4 2.234340 1_545
Li1 O3 2.234340 1_455
Li1 O2 2.234340 1_545
Li1 O5 2.234340 1_455
Li2 O0 1.985717 1_555
Li2 O1 2.086048 1_554
Li2 O2 2.111896 1_555
Li2 O3 2.111896 1_555
O0 P1 1.528671 1_555
O1 P1 1.545093 1_555
O1 Sb0 2.333537 1_556
O2 P0 1.591137 1_555
O2 Sb0 2.312360 1_565
O3 P0 1.591137 1_555
O3 Sb0 2.312360 1_655
O4 P1 1.591137 1_555
O4 Sb0 2.312360 1_566
O5 P1 1.591137 1_555
O5 Sb0 2.312360 1_656
O6 P0 1.545093 1_555
O6 Sb0 2.333537 1_665
O7 P0 1.528671 1_555
