# generated using pymatgen
data_RbB5(H2O3)4
_symmetry_space_group_name_H-M   'P 1'
_cell_length_a   8.62377101
_cell_length_b   8.62377101
_cell_length_c   13.97249500
_cell_angle_alpha   90.00000000
_cell_angle_beta   90.00000000
_cell_angle_gamma   95.63905274
_symmetry_Int_Tables_number   1
_chemical_formula_structural   RbB5(H2O3)4
_chemical_formula_sum   'Rb2 B10 H16 O24'
_cell_volume   1034.09774862
_cell_formula_units_Z   2
loop_
 _symmetry_equiv_pos_site_id
 _symmetry_equiv_pos_as_xyz
  1  'x, y, z'
loop_
 _atom_site_type_symbol
 _atom_site_label
 _atom_site_symmetry_multiplicity
 _atom_site_fract_x
 _atom_site_fract_y
 _atom_site_fract_z
 _atom_site_occupancy
  Rb  Rb0  1  0.57932900  0.57932900  0.50000000  1
  Rb  Rb1  1  0.07932900  0.07932900  0.00000000  1
  B  B0  1  0.90615300  0.90615300  0.50000000  1
  B  B1  1  0.40615300  0.40615300  0.00000000  1
  B  B2  1  0.90426700  0.75133900  0.65302600  1
  B  B3  1  0.75133900  0.90426700  0.34697400  1
  B  B4  1  0.40426700  0.25133900  0.84697400  1
  B  B5  1  0.25133900  0.40426700  0.15302600  1
  B  B6  1  0.91543900  0.01513400  0.65268700  1
  B  B7  1  0.01513400  0.91543900  0.34731300  1
  B  B8  1  0.41543900  0.51513400  0.84731300  1
  B  B9  1  0.51513400  0.41543900  0.15268700  1
  H  H0  1  0.49394900  0.93850100  0.49695000  1
  H  H1  1  0.93850100  0.49394900  0.50305000  1
  H  H2  1  0.99394900  0.43850100  0.00305000  1
  H  H3  1  0.43850100  0.99394900  0.99695000  1
  H  H4  1  0.29184300  0.04584400  0.48849700  1
  H  H5  1  0.04584400  0.29184300  0.51150300  1
  H  H6  1  0.79184300  0.54584400  0.01150300  1
  H  H7  1  0.54584400  0.79184300  0.98849700  1
  H  H8  1  0.31096100  0.12434800  0.51130700  1
  H  H9  1  0.12434800  0.31096100  0.48869300  1
  H  H10  1  0.81096100  0.62434800  0.98869300  1
  H  H11  1  0.62434800  0.81096100  0.01130700  1
  H  H12  1  0.89709900  0.62879700  0.69340800  1
  H  H13  1  0.62879700  0.89709900  0.30659200  1
  H  H14  1  0.39709900  0.12879700  0.80659200  1
  H  H15  1  0.12879700  0.39709900  0.19340800  1
  O  O0  1  0.90181700  0.76481900  0.55784900  1
  O  O1  1  0.76481900  0.90181700  0.44215100  1
  O  O2  1  0.40181700  0.26481900  0.94215100  1
  O  O3  1  0.26481900  0.40181700  0.05784900  1
  O  O4  1  0.91811400  0.05001900  0.56329700  1
  O  O5  1  0.05001900  0.91811400  0.43670300  1
  O  O6  1  0.41811400  0.55001900  0.93670300  1
  O  O7  1  0.55001900  0.41811400  0.06329700  1
  O  O8  1  0.90896500  0.89353300  0.71013100  1
  O  O9  1  0.89353300  0.90896500  0.28986900  1
  O  O10  1  0.40896500  0.39353300  0.78986900  1
  O  O11  1  0.39353300  0.40896500  0.21013100  1
  O  O12  1  0.83769100  0.43658400  0.51615100  1
  O  O13  1  0.43658400  0.83769100  0.48384900  1
  O  O14  1  0.33769100  0.93658400  0.98384900  1
  O  O15  1  0.93658400  0.33769100  0.01615100  1
  O  O16  1  0.04009000  0.79998700  0.87525300  1
  O  O17  1  0.79998700  0.04009000  0.12474700  1
  O  O18  1  0.54009000  0.29998700  0.62474700  1
  O  O19  1  0.29998700  0.54009000  0.37525300  1
  O  O20  1  0.57039300  0.17568400  0.58813100  1
  O  O21  1  0.17568400  0.57039300  0.41186900  1
  O  O22  1  0.07039300  0.67568400  0.91186900  1
  O  O23  1  0.67568400  0.07039300  0.08813100  1
loop_
_geom_bond_atom_site_label_1
_geom_bond_atom_site_label_2
_geom_bond_distance
_geom_bond_site_symmetry_2
B0 O0 1.459909 1_555
B0 O1 1.459909 1_555
B0 O4 1.518861 1_565
B0 O5 1.518861 1_655
B1 O3 1.459909 1_555
B1 O2 1.459909 1_554
B1 O7 1.518861 1_555
B1 O6 1.518861 1_554
B2 H12 1.194202 1_555
B2 O0 1.335279 1_555
B2 O8 1.460208 1_555
B3 H13 1.194202 1_555
B3 O1 1.335279 1_555
B3 O9 1.460208 1_555
B4 H14 1.194202 1_555
B4 O2 1.335279 1_555
B4 O10 1.460208 1_555
B5 H15 1.194202 1_555
B5 O3 1.335279 1_555
B5 O11 1.460208 1_555
B6 O4 1.284398 1_555
B6 O8 1.317392 1_545
B7 O5 1.284398 1_555
B7 O9 1.317392 1_455
B8 O6 1.284398 1_555
B8 O10 1.317392 1_555
B9 O7 1.284398 1_555
B9 O11 1.317392 1_555
H0 O13 0.974428 1_555
H1 O12 0.974428 1_555
H2 O15 0.974428 1_555
H3 O14 0.974428 1_555
H4 H8 0.751767 1_555
H5 H9 0.751767 1_555
H10 H6 0.751767 1_556
H11 H7 0.751767 1_554
O0 Rb0 3.173671 1_555
O1 Rb0 3.173671 1_555
O2 Rb1 3.173671 1_556
O3 Rb1 3.173671 1_555
O12 Rb0 2.658858 1_555
O13 Rb0 2.658858 1_555
O14 Rb1 2.658858 1_566
O15 Rb1 2.658858 1_655
O16 O22 1.238626 1_555
O16 Rb1 2.965745 1_566
O17 O23 1.238626 1_555
O17 Rb1 2.965745 1_655
O18 O20 1.238626 1_555
O18 Rb0 2.965745 1_555
O19 O21 1.238626 1_555
O19 Rb0 2.965745 1_555
