# generated using pymatgen
data_Fe5O7F3
_symmetry_space_group_name_H-M   'P 1'
_cell_length_a   4.66250841
_cell_length_b   4.66250841
_cell_length_c   15.26308644
_cell_angle_alpha   89.97313512
_cell_angle_beta   89.97313512
_cell_angle_gamma   91.42331972
_symmetry_Int_Tables_number   1
_chemical_formula_structural   Fe5O7F3
_chemical_formula_sum   'Fe10 O14 F6'
_cell_volume   331.70155340
_cell_formula_units_Z   2
loop_
 _symmetry_equiv_pos_site_id
 _symmetry_equiv_pos_as_xyz
  1  'x, y, z'
loop_
 _atom_site_type_symbol
 _atom_site_label
 _atom_site_symmetry_multiplicity
 _atom_site_fract_x
 _atom_site_fract_y
 _atom_site_fract_z
 _atom_site_occupancy
  Fe  Fe0  1  0.03684300  0.01444200  0.90530200  1
  Fe  Fe1  1  0.98555800  0.96315700  0.09469800  1
  Fe  Fe2  1  0.02021500  0.98549700  0.29970300  1
  Fe  Fe3  1  0.01737700  0.98262300  0.50000000  1
  Fe  Fe4  1  0.01450300  0.97978500  0.70029700  1
  Fe  Fe5  1  0.50904800  0.49095200  0.00000000  1
  Fe  Fe6  1  0.48646500  0.51390300  0.40140600  1
  Fe  Fe7  1  0.48660800  0.52776800  0.20690400  1
  Fe  Fe8  1  0.48609700  0.51353500  0.59859400  1
  Fe  Fe9  1  0.47223200  0.51339200  0.79309600  1
  O  O0  1  0.20808300  0.79191700  0.00000000  1
  O  O1  1  0.18010400  0.80400700  0.19839300  1
  O  O2  1  0.19420300  0.81223600  0.40036100  1
  O  O3  1  0.18776400  0.80579700  0.59963900  1
  O  O4  1  0.19599300  0.81989600  0.80160700  1
  O  O5  1  0.67951700  0.67383600  0.09983700  1
  O  O6  1  0.69658900  0.69975500  0.30476400  1
  O  O7  1  0.69349600  0.69141500  0.50020900  1
  O  O8  1  0.69205600  0.69604700  0.69685400  1
  O  O9  1  0.32616400  0.32048300  0.90016300  1
  O  O10  1  0.30395300  0.30794400  0.30314600  1
  O  O11  1  0.30858500  0.30650400  0.49979100  1
  O  O12  1  0.30024500  0.30341100  0.69523600  1
  O  O13  1  0.80687200  0.19312800  0.00000000  1
  F  F0  1  0.70770300  0.70588600  0.89569000  1
  F  F1  1  0.29411400  0.29229700  0.10431000  1
  F  F2  1  0.80590600  0.19737000  0.40088400  1
  F  F3  1  0.79393900  0.19286200  0.20045000  1
  F  F4  1  0.80713800  0.20606100  0.79955000  1
  F  F5  1  0.80263000  0.19409400  0.59911600  1
loop_
_geom_bond_atom_site_label_1
_geom_bond_atom_site_label_2
_geom_bond_distance
_geom_bond_site_symmetry_2
Fe0 O9 1.940649 1_555
Fe0 O0 1.960580 1_546
Fe0 O4 1.977888 1_545
Fe0 O13 1.994239 1_456
Fe1 O5 1.940649 1_555
Fe1 O0 1.960580 1_655
Fe1 O1 1.977888 1_655
Fe1 O13 1.994239 1_565
Fe2 O1 1.922066 1_555
Fe2 O2 1.924476 1_555
Fe2 O10 1.978507 1_565
Fe2 O6 1.989386 1_455
Fe3 O3 1.912110 1_555
Fe3 O2 1.912110 1_555
Fe3 O7 2.005505 1_455
Fe3 O11 2.005505 1_565
Fe4 O4 1.922066 1_555
Fe4 O3 1.924476 1_555
Fe4 O8 1.978507 1_455
Fe4 O12 1.989386 1_565
Fe5 O5 1.910376 1_555
Fe5 O9 1.910376 1_554
Fe5 O13 1.988026 1_555
Fe5 O0 2.008993 1_555
Fe6 O11 1.958455 1_555
Fe6 O6 1.960043 1_555
Fe6 O7 1.963112 1_555
Fe6 O10 1.964050 1_555
Fe6 O2 1.971325 1_555
Fe7 O6 1.948336 1_555
Fe7 O1 1.951781 1_555
Fe7 O10 1.971706 1_555
Fe7 O5 1.977493 1_555
Fe8 O7 1.958455 1_555
Fe8 O12 1.960043 1_555
Fe8 O11 1.963112 1_555
Fe8 O8 1.964050 1_555
Fe8 O3 1.971325 1_555
Fe9 O12 1.948336 1_555
Fe9 O4 1.951781 1_555
Fe9 O8 1.971706 1_555
Fe9 O9 1.977493 1_555
F0 Fe0 2.082548 1_665
F0 Fe5 2.085171 1_556
F0 Fe9 2.101641 1_555
F1 Fe1 2.082548 1_445
F1 Fe5 2.085171 1_555
F1 Fe7 2.101641 1_555
F2 Fe3 2.076613 1_645
F2 Fe2 2.099593 1_645
F2 Fe6 2.122654 1_555
F3 Fe2 2.096086 1_645
F3 Fe1 2.144384 1_545
F3 Fe7 2.147664 1_555
F4 Fe4 2.096086 1_645
F4 Fe0 2.144384 1_655
F4 Fe9 2.147664 1_555
F5 Fe3 2.076613 1_645
F5 Fe4 2.099593 1_645
F5 Fe8 2.122654 1_555
