# generated using pymatgen
data_Mn3Nb2Cr3O16
_symmetry_space_group_name_H-M   'P 1'
_cell_length_a   5.85869858
_cell_length_b   5.85869858
_cell_length_c   9.31109075
_cell_angle_alpha   89.60158811
_cell_angle_beta   89.60158811
_cell_angle_gamma   59.86924655
_symmetry_Int_Tables_number   1
_chemical_formula_structural   Mn3Nb2Cr3O16
_chemical_formula_sum   'Mn3 Nb2 Cr3 O16'
_cell_volume   276.40494072
_cell_formula_units_Z   1
loop_
 _symmetry_equiv_pos_site_id
 _symmetry_equiv_pos_as_xyz
  1  'x, y, z'
loop_
 _atom_site_type_symbol
 _atom_site_label
 _atom_site_symmetry_multiplicity
 _atom_site_fract_x
 _atom_site_fract_y
 _atom_site_fract_z
 _atom_site_occupancy
  Mn  Mn0  1  0.82960700  0.82960700  0.21260100  1
  Mn  Mn1  1  0.16770700  0.66198700  0.71482400  1
  Mn  Mn2  1  0.66198700  0.16770700  0.71482400  1
  Nb  Nb0  1  0.66554200  0.66554200  0.49847500  1
  Nb  Nb1  1  0.33148100  0.33148100  0.99854800  1
  Cr  Cr0  1  0.33985900  0.82796300  0.21707600  1
  Cr  Cr1  1  0.82796300  0.33985900  0.21707600  1
  Cr  Cr2  1  0.16832900  0.16832900  0.71493900  1
  O  O0  1  0.33139700  0.83268700  0.60010500  1
  O  O1  1  0.52117100  0.52117100  0.33813100  1
  O  O2  1  0.66877300  0.66877300  0.10759200  1
  O  O3  1  0.99989700  0.99989700  0.30192700  1
  O  O4  1  0.99621800  0.99621800  0.81017600  1
  O  O5  1  0.83268700  0.33139700  0.60010500  1
  O  O6  1  0.52498300  0.95912700  0.33231700  1
  O  O7  1  0.95912700  0.52498300  0.33231700  1
  O  O8  1  0.16643000  0.16643000  0.09890200  1
  O  O9  1  0.83405100  0.83405100  0.60115500  1
  O  O10  1  0.04201700  0.48502600  0.83260000  1
  O  O11  1  0.48502600  0.04201700  0.83260000  1
  O  O12  1  0.33703300  0.33703300  0.60912900  1
  O  O13  1  0.16586000  0.66475700  0.10062600  1
  O  O14  1  0.48059700  0.48059700  0.82969700  1
  O  O15  1  0.66475700  0.16586000  0.10062600  1
loop_
_geom_bond_atom_site_label_1
_geom_bond_atom_site_label_2
_geom_bond_distance
_geom_bond_site_symmetry_2
Mn0 O6 1.904723 1_555
Mn0 O7 1.904723 1_555
Mn0 O2 1.910180 1_555
Mn0 O3 1.924800 1_555
Mn0 O13 1.993995 1_655
Mn0 O15 1.993995 1_565
Mn1 O10 1.886567 1_555
Mn1 O4 1.915383 1_455
Mn1 O14 1.920787 1_555
Mn1 O12 1.921852 1_555
Mn1 O9 1.998291 1_455
Mn1 O0 1.998649 1_555
Mn2 O11 1.886567 1_555
Mn2 O4 1.915383 1_545
Mn2 O14 1.920787 1_555
Mn2 O12 1.921852 1_555
Mn2 O9 1.998291 1_545
Mn2 O5 1.998649 1_555
Nb0 O5 1.936316 1_555
Nb0 O0 1.936316 1_555
Nb0 O9 1.966751 1_555
Nb0 O1 2.100761 1_555
Nb0 O6 2.142165 1_555
Nb0 O7 2.142165 1_555
Nb1 O8 1.912289 1_556
Nb1 O13 1.941207 1_556
Nb1 O15 1.941207 1_556
Nb1 O10 2.135011 1_555
Nb1 O11 2.135011 1_555
Nb1 O14 2.173994 1_555
Cr0 O3 1.892309 1_455
Cr0 O1 1.923837 1_555
Cr0 O6 1.944893 1_555
Cr0 O2 1.950380 1_555
Cr0 O13 2.034082 1_555
Cr0 O8 2.034138 1_565
Cr1 O3 1.892309 1_545
Cr1 O1 1.923837 1_555
Cr1 O7 1.944893 1_555
Cr1 O2 1.950380 1_555
Cr1 O15 2.034082 1_555
Cr1 O8 2.034138 1_655
Cr2 O4 1.953402 1_445
Cr2 O10 1.956784 1_555
Cr2 O11 1.956784 1_555
Cr2 O12 1.969296 1_555
Cr2 O0 2.012899 1_545
Cr2 O5 2.012899 1_455
