# generated using pymatgen
data_LiTi2(PO4)3
_symmetry_space_group_name_H-M   'P 1'
_cell_length_a   8.33095300
_cell_length_b   8.38168201
_cell_length_c   8.99955842
_cell_angle_alpha   90.22714122
_cell_angle_beta   117.54130975
_cell_angle_gamma   119.47897137
_symmetry_Int_Tables_number   1
_chemical_formula_structural   LiTi2(PO4)3
_chemical_formula_sum   'Li2 Ti4 P6 O24'
_cell_volume   462.73382379
_cell_formula_units_Z   2
loop_
 _symmetry_equiv_pos_site_id
 _symmetry_equiv_pos_as_xyz
  1  'x, y, z'
loop_
 _atom_site_type_symbol
 _atom_site_label
 _atom_site_symmetry_multiplicity
 _atom_site_fract_x
 _atom_site_fract_y
 _atom_site_fract_z
 _atom_site_occupancy
  Li  Li0  1  0.19639400  0.72098500  0.41976600  1
  Li  Li1  1  0.03176700  0.76735400  0.08141100  1
  Ti  Ti0  1  0.69044200  0.33947600  0.05440300  1
  Ti  Ti1  1  0.28747000  0.15328400  0.42966800  1
  Ti  Ti2  1  0.29931100  0.64590100  0.94004700  1
  Ti  Ti3  1  0.72210200  0.86021700  0.57322200  1
  P  P0  1  0.49614700  0.02883700  0.24945800  1
  P  P1  1  0.78378000  0.53049300  0.74921300  1
  P  P2  1  0.21432100  0.24756300  0.75049700  1
  P  P3  1  0.78134700  0.74577700  0.24551900  1
  P  P4  1  0.21814600  0.47166400  0.24663000  1
  P  P5  1  0.51066400  0.97261100  0.75619300  1
  O  O0  1  0.63055500  0.00183700  0.42017500  1
  O  O1  1  0.37587200  0.10751600  0.27830000  1
  O  O2  1  0.99229600  0.10110800  0.72310200  1
  O  O3  1  0.58061100  0.36474000  0.58131900  1
  O  O4  1  0.26389700  0.48811600  0.09898500  1
  O  O5  1  0.64928500  0.17141500  0.19393300  1
  O  O6  1  0.38568600  0.22421300  0.90061000  1
  O  O7  1  0.98549200  0.52661900  0.79952900  1
  O  O8  1  0.20465600  0.20658000  0.57824700  1
  O  O9  1  0.82759400  0.72329200  0.71623300  1
  O  O10  1  0.68073100  0.16939300  0.89858000  1
  O  O11  1  0.27563700  0.45476400  0.79839400  1
  O  O12  1  0.71784700  0.53631200  0.19601600  1
  O  O13  1  0.30997400  0.83458600  0.10088800  1
  O  O14  1  0.16533000  0.27494600  0.27854000  1
  O  O15  1  0.80019700  0.79180800  0.41990400  1
  O  O16  1  0.02640000  0.49525000  0.20299300  1
  O  O17  1  0.61819300  0.77702500  0.09770000  1
  O  O18  1  0.35727300  0.82646600  0.81040600  1
  O  O19  1  0.75113000  0.52435200  0.90606000  1
  O  O20  1  0.40915400  0.63472000  0.42034500  1
  O  O21  1  0.01164800  0.87445400  0.26953100  1
  O  O22  1  0.62648100  0.89240200  0.72480300  1
  O  O23  1  0.36077200  0.98302200  0.57657900  1
loop_
_geom_bond_atom_site_label_1
_geom_bond_atom_site_label_2
_geom_bond_distance
_geom_bond_site_symmetry_2
Li0 O23 1.979582 1_555
Li0 O16 2.042020 1_555
Li0 O20 2.217521 1_555
Li0 O21 2.426818 1_555
Li1 O19 1.995173 1_454
Li1 O13 2.014499 1_555
Li1 O21 2.024503 1_555
Li1 O16 2.522984 1_555
O0 P0 1.525359 1_555
O0 Ti3 1.954559 1_545
O1 P0 1.547835 1_555
O1 Ti1 1.935708 1_555
O2 P2 1.526477 1_655
O2 Ti3 1.913218 1_545
O3 P1 1.543354 1_555
O3 Ti1 1.899079 1_555
O4 P4 1.532291 1_555
O4 Ti2 1.975668 1_554
O5 P0 1.548937 1_555
O5 Ti0 1.901433 1_555
O6 P2 1.547584 1_555
O6 Ti0 1.902803 1_556
O7 P1 1.542770 1_555
O7 Ti2 1.947782 1_655
O8 P2 1.542934 1_555
O8 Ti1 1.901372 1_555
O9 P1 1.534983 1_555
O9 Ti3 1.924668 1_555
O10 P5 1.540825 1_545
O10 Ti0 1.941932 1_556
O11 P2 1.542775 1_555
O11 Ti2 1.915967 1_555
O12 P3 1.556421 1_555
O12 Ti0 1.934368 1_555
O13 P0 1.556851 1_565
O13 Ti2 2.080611 1_554
O14 P4 1.549606 1_555
O14 Ti1 1.917673 1_555
O15 P3 1.531061 1_555
O15 Ti3 1.961363 1_555
O16 P4 1.573646 1_555
O16 Ti0 2.062729 1_455
O17 P3 1.538434 1_555
O17 Ti2 1.976554 1_554
O18 P5 1.553132 1_555
O18 Ti2 1.923699 1_555
O19 P1 1.552735 1_555
O19 Ti0 2.075717 1_556
O20 P4 1.544703 1_555
O20 Ti3 2.018618 1_555
O21 P3 1.571358 1_455
O21 Ti1 2.108164 1_565
O22 P5 1.533533 1_555
O22 Ti3 1.944699 1_555
O23 P5 1.556134 1_555
O23 Ti1 2.069673 1_565
