# generated using pymatgen
data_MnOF
_symmetry_space_group_name_H-M   'P 1'
_cell_length_a   4.64413500
_cell_length_b   5.66944200
_cell_length_c   10.38406689
_cell_angle_alpha   83.78346333
_cell_angle_beta   90.00000000
_cell_angle_gamma   90.00000000
_symmetry_Int_Tables_number   1
_chemical_formula_structural   MnOF
_chemical_formula_sum   'Mn8 O8 F8'
_cell_volume   271.80117645
_cell_formula_units_Z   8
loop_
 _symmetry_equiv_pos_site_id
 _symmetry_equiv_pos_as_xyz
  1  'x, y, z'
loop_
 _atom_site_type_symbol
 _atom_site_label
 _atom_site_symmetry_multiplicity
 _atom_site_fract_x
 _atom_site_fract_y
 _atom_site_fract_z
 _atom_site_occupancy
  Mn  Mn0  1  0.53177300  0.61884900  0.63762600  1
  Mn  Mn1  1  0.47807100  0.12764000  0.11358600  1
  Mn  Mn2  1  0.52192900  0.87236000  0.88641400  1
  Mn  Mn3  1  0.46822700  0.38115100  0.36237400  1
  Mn  Mn4  1  0.03177300  0.38115100  0.86237400  1
  Mn  Mn5  1  0.96822700  0.61884900  0.13762600  1
  Mn  Mn6  1  0.97807100  0.87236000  0.38641400  1
  Mn  Mn7  1  0.02192900  0.12764000  0.61358600  1
  O  O0  1  0.79826100  0.60163200  0.30663900  1
  O  O1  1  0.80665400  0.85939000  0.55443400  1
  O  O2  1  0.70173900  0.60163200  0.80663900  1
  O  O3  1  0.69334600  0.85939000  0.05443400  1
  O  O4  1  0.29826100  0.39836800  0.19336100  1
  O  O5  1  0.30665400  0.14061000  0.94556600  1
  O  O6  1  0.19334600  0.14061000  0.44556600  1
  O  O7  1  0.20173900  0.39836800  0.69336100  1
  F  F0  1  0.81783800  0.34541100  0.03180000  1
  F  F1  1  0.80719400  0.10653300  0.77795700  1
  F  F2  1  0.68216200  0.34541100  0.53180000  1
  F  F3  1  0.69280600  0.10653300  0.27795700  1
  F  F4  1  0.31783800  0.65458900  0.46820000  1
  F  F5  1  0.30719400  0.89346700  0.72204300  1
  F  F6  1  0.18216200  0.65458900  0.96820000  1
  F  F7  1  0.19280600  0.89346700  0.22204300  1
loop_
_geom_bond_atom_site_label_1
_geom_bond_atom_site_label_2
_geom_bond_distance
_geom_bond_site_symmetry_2
Mn0 O2 1.917203 1_555
Mn0 O1 1.995136 1_555
Mn0 O7 2.022382 1_555
Mn1 O5 1.911925 1_554
Mn1 O3 1.972828 1_545
Mn1 O4 2.003689 1_555
Mn2 O3 1.911925 1_556
Mn2 O5 1.972828 1_565
Mn2 O2 2.003689 1_555
Mn3 O4 1.917203 1_555
Mn3 O6 1.995136 1_555
Mn3 O0 2.022382 1_555
Mn4 O7 1.917203 1_555
Mn4 O5 1.995136 1_555
Mn4 O2 2.022382 1_455
Mn5 O0 1.917203 1_555
Mn5 O3 1.995136 1_555
Mn5 O4 2.022382 1_655
Mn6 O1 1.911925 1_555
Mn6 O6 1.972828 1_665
Mn6 O0 2.003689 1_555
Mn7 O6 1.911925 1_555
Mn7 O1 1.972828 1_445
Mn7 O7 2.003689 1_555
F0 Mn4 2.011523 1_654
F0 Mn5 2.113666 1_555
F0 Mn1 2.123289 1_555
F1 Mn7 1.969241 1_655
F1 Mn2 2.112411 1_545
F1 Mn4 2.139117 1_655
F2 Mn3 2.011523 1_555
F2 Mn0 2.113666 1_555
F2 Mn7 2.123289 1_655
F3 Mn1 1.969241 1_555
F3 Mn6 2.112411 1_545
F3 Mn3 2.139117 1_555
F4 Mn0 2.011523 1_555
F4 Mn3 2.113666 1_555
F4 Mn6 2.123289 1_455
F5 Mn2 1.969241 1_555
F5 Mn7 2.112411 1_565
F5 Mn0 2.139117 1_555
F6 Mn5 2.011523 1_456
F6 Mn4 2.113666 1_555
F6 Mn2 2.123289 1_555
F7 Mn6 1.969241 1_455
F7 Mn1 2.112411 1_565
F7 Mn5 2.139117 1_455
