# generated using pymatgen
data_Sr3La7Mn8(FeO15)2
_symmetry_space_group_name_H-M   'P 1'
_cell_length_a   5.53789900
_cell_length_b   9.64298971
_cell_length_c   12.39443335
_cell_angle_alpha   75.57187590
_cell_angle_beta   77.93410990
_cell_angle_gamma   73.85646641
_symmetry_Int_Tables_number   1
_chemical_formula_structural   Sr3La7Mn8(FeO15)2
_chemical_formula_sum   'Sr3 La7 Mn8 Fe2 O30'
_cell_volume   608.74666047
_cell_formula_units_Z   1
loop_
 _symmetry_equiv_pos_site_id
 _symmetry_equiv_pos_as_xyz
  1  'x, y, z'
loop_
 _atom_site_type_symbol
 _atom_site_label
 _atom_site_symmetry_multiplicity
 _atom_site_fract_x
 _atom_site_fract_y
 _atom_site_fract_z
 _atom_site_occupancy
  Sr  Sr0  1  0.20212200  0.15086700  0.44805700  1
  Sr  Sr1  1  0.80026400  0.34945800  0.05016500  1
  Sr  Sr2  1  0.59876400  0.95170900  0.84998700  1
  La  La0  1  0.39857200  0.54901300  0.65261700  1
  La  La1  1  0.39907400  0.05210700  0.14870600  1
  La  La2  1  0.99694400  0.74992400  0.25010600  1
  La  La3  1  0.00141600  0.24657900  0.75109900  1
  La  La4  1  0.59978800  0.44662500  0.34896300  1
  La  La5  1  0.19973200  0.64940400  0.95083900  1
  La  La6  1  0.79803800  0.85425000  0.55135600  1
  Mn  Mn0  1  0.00143300  0.99971500  0.99956700  1
  Mn  Mn1  1  0.60007800  0.19946300  0.60051800  1
  Mn  Mn2  1  0.19893200  0.39929800  0.19979400  1
  Mn  Mn3  1  0.79796300  0.60123700  0.80111300  1
  Mn  Mn4  1  0.79900900  0.10041200  0.29966000  1
  Mn  Mn5  1  0.40114900  0.29859300  0.90095600  1
  Mn  Mn6  1  0.59914200  0.70116800  0.09890000  1
  Mn  Mn7  1  0.19741800  0.90097400  0.70099300  1
  Fe  Fe0  1  0.40044500  0.80134400  0.39999600  1
  Fe  Fe1  1  0.00145000  0.49886000  0.49933200  1
  O  O0  1  0.44895700  0.02801500  0.63683900  1
  O  O1  1  0.04674500  0.22247400  0.23793100  1
  O  O2  1  0.92352300  0.06364400  0.63025500  1
  O  O3  1  0.91102700  0.01386400  0.16165000  1
  O  O4  1  0.69111800  0.18518300  0.43780600  1
  O  O5  1  0.64480200  0.42783900  0.83414700  1
  O  O6  1  0.53363000  0.25614500  0.23228500  1
  O  O7  1  0.66622300  0.13853100  0.97377800  1
  O  O8  1  0.50625700  0.22521700  0.75956900  1
  O  O9  1  0.28637900  0.38831200  0.03971400  1
  O  O10  1  0.25605400  0.62324400  0.43867700  1
  O  O11  1  0.13290600  0.46200100  0.82728100  1
  O  O12  1  0.26551500  0.33995000  0.57631000  1
  O  O13  1  0.16416000  0.16879600  0.95914000  1
  O  O14  1  0.10971600  0.42253700  0.35641200  1
  O  O15  1  0.88450800  0.58700300  0.63968800  1
  O  O16  1  0.85118800  0.82377200  0.04261000  1
  O  O17  1  0.73779700  0.66304100  0.42712700  1
  O  O18  1  0.86170400  0.54491800  0.17508800  1
  O  O19  1  0.75034500  0.37379500  0.56144200  1
  O  O20  1  0.70923200  0.62061700  0.96006000  1
  O  O21  1  0.49031900  0.78633000  0.23526300  1
  O  O22  1  0.32717600  0.85823700  0.03288200  1
  O  O23  1  0.46538700  0.73236200  0.77157100  1
  O  O24  1  0.35519600  0.57407400  0.16213100  1
  O  O25  1  0.30910200  0.81634700  0.56282600  1
  O  O26  1  0.09000300  0.98430600  0.83718400  1
  O  O27  1  0.06048200  0.93356100  0.37154200  1
  O  O28  1  0.96418000  0.76616900  0.75868200  1
  O  O29  1  0.56463800  0.96871800  0.35738500  1
loop_
_geom_bond_atom_site_label_1
_geom_bond_atom_site_label_2
_geom_bond_distance
_geom_bond_site_symmetry_2
La0 O11 2.450483 1_555
La0 O19 2.475410 1_555
La0 O25 2.494029 1_555
La0 O23 2.706934 1_555
La0 O5 2.715431 1_555
La0 O12 2.751231 1_555
La0 O15 2.782154 1_555
La0 O10 2.789542 1_555
La0 O15 2.801049 1_455
La0 O8 3.015702 1_555
La0 O28 3.024667 1_455
La0 O17 3.157758 1_555
La1 O1 2.439206 1_555
La1 O7 2.455253 1_554
La1 O21 2.472038 1_545
La1 O13 2.761410 1_554
La1 O6 2.766458 1_555
La1 O22 2.775733 1_545
La1 O29 2.778858 1_545
La1 O3 2.789094 1_555
La1 O3 2.794659 1_455
La2 O17 2.451867 1_555
La2 O3 2.461788 1_565
La2 O24 2.479259 1_655
La2 O18 2.713655 1_555
La2 O16 2.721832 1_555
La2 O27 2.724170 1_655
La2 O21 2.768497 1_555
La2 O21 2.813078 1_655
La2 O10 2.831692 1_655
La2 O29 3.034672 1_555
La2 O14 3.044246 1_655
La2 O22 3.047387 1_655
La3 O26 2.441224 1_545
La3 O12 2.465495 1_555
La3 O5 2.478304 1_455
La3 O2 2.747951 1_455
La3 O13 2.766882 1_555
La3 O8 2.767922 1_555
La3 O8 2.784919 1_455
La3 O11 2.800559 1_555
La3 O19 2.818647 1_455
La4 O4 2.442246 1_555
La4 O10 2.452882 1_555
La4 O18 2.467057 1_555
La4 O6 2.742057 1_555
La4 O14 2.768253 1_555
La4 O24 2.770364 1_555
La4 O14 2.787581 1_655
La4 O19 2.791900 1_555
La4 O17 2.842860 1_555
La5 O9 2.439185 1_556
La5 O16 2.465174 1_456
La5 O23 2.478571 1_555
La5 O22 2.774580 1_556
La5 O20 2.781146 1_555
La5 O11 2.781349 1_555
La5 O20 2.782505 1_455
La5 O24 2.788205 1_556
La5 O28 2.790617 1_455
La6 O0 2.427859 1_565
La6 O27 2.465529 1_655
La6 O15 2.489201 1_555
La6 O2 2.750404 1_565
La6 O28 2.763600 1_555
La6 O25 2.780473 1_655
La6 O25 2.801577 1_555
La6 O29 2.802212 1_555
La6 O17 2.802392 1_555
Mn0 O13 1.985621 1_565
Mn0 O22 1.986965 1_556
Mn0 O3 1.995789 1_466
Mn0 O7 1.998275 1_465
Mn0 O16 2.000947 1_456
Mn0 O26 2.002295 1_555
Mn1 O2 1.946916 1_555
Mn1 O0 1.969103 1_555
Mn1 O19 1.989171 1_555
Mn1 O8 1.990438 1_555
Mn1 O12 1.998033 1_555
Mn1 O4 2.003751 1_555
Mn2 O14 1.953660 1_555
Mn2 O9 1.963902 1_555
Mn2 O24 2.014281 1_555
Mn2 O1 2.017940 1_555
Mn2 O6 2.028667 1_555
Mn2 O18 2.029723 1_455
Mn3 O28 1.961704 1_555
Mn3 O23 1.970075 1_555
Mn3 O20 1.971090 1_555
Mn3 O15 1.987713 1_555
Mn3 O5 1.996301 1_555
Mn3 O11 1.999520 1_655
Mn4 O6 1.942486 1_555
Mn4 O1 1.965552 1_655
Mn4 O29 1.970984 1_545
Mn4 O4 1.988760 1_555
Mn4 O3 1.996806 1_555
Mn4 O27 2.002162 1_645
Mn5 O8 1.967951 1_555
Mn5 O13 1.969028 1_555
Mn5 O7 1.987864 1_555
Mn5 O5 2.003354 1_555
Mn5 O11 2.017903 1_555
Mn5 O9 2.022121 1_556
Mn6 O22 1.964963 1_555
Mn6 O21 1.970986 1_555
Mn6 O20 1.974964 1_554
Mn6 O18 1.980623 1_555
Mn6 O16 1.982998 1_555
Mn6 O24 1.985121 1_555
Mn7 O26 1.959412 1_555
Mn7 O28 1.988419 1_455
Mn7 O25 1.988487 1_555
Mn7 O0 2.018398 1_565
Mn7 O2 2.019283 1_465
Mn7 O23 2.025648 1_555
Fe0 O29 1.975153 1_555
Fe0 O10 2.002960 1_555
Fe0 O27 2.003274 1_555
Fe0 O25 2.006959 1_555
Fe0 O17 2.008879 1_555
Fe0 O21 2.029754 1_555
Fe1 O17 1.998509 1_455
Fe1 O14 1.999832 1_555
Fe1 O19 2.000801 1_455
Fe1 O12 2.001393 1_555
Fe1 O10 2.009918 1_555
Fe1 O15 2.031724 1_455
O0 Sr0 2.793238 1_555
O0 Sr2 2.795921 1_545
O1 Sr0 2.776756 1_555
O1 Sr1 2.785177 1_455
O2 Sr0 2.550679 1_655
O2 Sr2 3.063275 1_545
O3 Sr1 3.127343 1_555
O4 Sr0 2.782542 1_655
O4 Sr0 2.791502 1_555
O5 Sr1 2.841556 1_556
O6 Sr1 2.533474 1_555
O6 Sr0 3.030521 1_555
O7 Sr1 2.770826 1_556
O7 Sr2 2.780381 1_545
O8 Sr2 2.547582 1_545
O9 Sr1 2.791591 1_555
O9 Sr1 2.791995 1_455
O11 Sr1 3.113347 1_456
O12 Sr0 2.829892 1_555
O13 Sr1 2.538814 1_456
O13 Sr2 3.041945 1_545
O14 Sr0 2.535674 1_555
O16 Sr2 2.853864 1_554
O18 Sr1 2.845502 1_555
O19 Sr0 3.146484 1_655
O20 Sr1 2.526977 1_556
O20 Sr2 3.085636 1_555
O22 Sr2 2.554119 1_554
O23 Sr2 2.856130 1_555
O24 Sr1 3.129126 1_555
O25 Sr0 3.127783 1_565
O26 Sr2 2.780590 1_555
O26 Sr2 2.791939 1_455
O27 Sr0 2.849741 1_565
O28 Sr2 2.571978 1_555
O29 Sr0 2.541270 1_565
