# generated using pymatgen
data_Li3MnFeCo(PO4)3
_symmetry_space_group_name_H-M   'P 1'
_cell_length_a   6.09919900
_cell_length_b   10.44457200
_cell_length_c   14.30946319
_cell_angle_alpha   89.90139626
_cell_angle_beta   90.00000000
_cell_angle_gamma   90.00000000
_symmetry_Int_Tables_number   1
_chemical_formula_structural   Li3MnFeCo(PO4)3
_chemical_formula_sum   'Li12 Mn4 Fe4 Co4 P12 O48'
_cell_volume   911.56186896
_cell_formula_units_Z   4
loop_
 _symmetry_equiv_pos_site_id
 _symmetry_equiv_pos_as_xyz
  1  'x, y, z'
loop_
 _atom_site_type_symbol
 _atom_site_label
 _atom_site_symmetry_multiplicity
 _atom_site_fract_x
 _atom_site_fract_y
 _atom_site_fract_z
 _atom_site_occupancy
  Li  Li0  1  0.75033300  0.00340900  0.66752800  1
  Li  Li1  1  0.24854700  0.00136100  0.99931000  1
  Li  Li2  1  0.75145300  0.00136100  0.99931000  1
  Li  Li3  1  0.24966800  0.00045000  0.33311600  1
  Li  Li4  1  0.75033200  0.00045000  0.33311600  1
  Li  Li5  1  0.24966700  0.00340900  0.66752800  1
  Li  Li6  1  0.24952200  0.49837800  0.50057000  1
  Li  Li7  1  0.75047800  0.49837800  0.50057000  1
  Li  Li8  1  0.24951800  0.49903200  0.16679100  1
  Li  Li9  1  0.75048200  0.49903200  0.16679100  1
  Li  Li10  1  0.25071800  0.49690900  0.83304400  1
  Li  Li11  1  0.74928200  0.49690900  0.83304400  1
  Mn  Mn0  1  0.50000000  0.78180700  0.49291600  1
  Mn  Mn1  1  0.50000000  0.78168300  0.82575900  1
  Mn  Mn2  1  0.00000000  0.71848000  0.65982200  1
  Mn  Mn3  1  0.50000000  0.28083800  0.00730500  1
  Fe  Fe0  1  0.50000000  0.78197100  0.15857200  1
  Fe  Fe1  1  0.00000000  0.71817300  0.99275900  1
  Fe  Fe2  1  0.00000000  0.71810200  0.32503900  1
  Fe  Fe3  1  0.50000000  0.28092600  0.34128700  1
  Co  Co0  1  0.50000000  0.27648000  0.67089100  1
  Co  Co1  1  0.00000000  0.22230000  0.84034600  1
  Co  Co2  1  0.00000000  0.22173700  0.50468800  1
  Co  Co3  1  0.00000000  0.21836700  0.17320700  1
  P  P0  1  0.00000000  0.90870000  0.80624300  1
  P  P1  1  0.00000000  0.90590700  0.13974000  1
  P  P2  1  0.00000000  0.90847200  0.47131200  1
  P  P3  1  0.50000000  0.59345000  0.30573700  1
  P  P4  1  0.50000000  0.58929700  0.63938400  1
  P  P5  1  0.50000000  0.59467500  0.97360200  1
  P  P6  1  0.00000000  0.40465900  0.36021300  1
  P  P7  1  0.00000000  0.40557000  0.02793200  1
  P  P8  1  0.00000000  0.40220600  0.69460900  1
  P  P9  1  0.50000000  0.09566300  0.85910900  1
  P  P10  1  0.50000000  0.09469900  0.19431200  1
  P  P11  1  0.50000000  0.09733700  0.52822600  1
  O  O0  1  0.50000000  0.95696100  0.23635000  1
  O  O1  1  0.50000000  0.95937100  0.56942300  1
  O  O2  1  0.50000000  0.95862600  0.90221600  1
  O  O3  1  0.00000000  0.90378000  0.57853800  1
  O  O4  1  0.00000000  0.90292300  0.91390800  1
  O  O5  1  0.00000000  0.90248800  0.24712500  1
  O  O6  1  0.20249000  0.83532300  0.09498000  1
  O  O7  1  0.79751000  0.83532300  0.09498000  1
  O  O8  1  0.20122600  0.83811200  0.42607100  1
  O  O9  1  0.79877400  0.83811200  0.42607100  1
  O  O10  1  0.20136200  0.83859500  0.76079700  1
  O  O11  1  0.79863800  0.83859500  0.76079700  1
  O  O12  1  0.70132500  0.65980900  0.59437900  1
  O  O13  1  0.29867500  0.65980900  0.59437900  1
  O  O14  1  0.70274800  0.66481000  0.26174400  1
  O  O15  1  0.29725200  0.66481000  0.26174400  1
  O  O16  1  0.70287100  0.66541400  0.92964400  1
  O  O17  1  0.29712900  0.66541400  0.92964400  1
  O  O18  1  0.50000000  0.59557200  0.41300900  1
  O  O19  1  0.50000000  0.59631200  0.08127300  1
  O  O20  1  0.50000000  0.59435000  0.74669300  1
  O  O21  1  0.00000000  0.54229000  0.40178600  1
  O  O22  1  0.00000000  0.54419400  0.06769600  1
  O  O23  1  0.00000000  0.54032600  0.73592000  1
  O  O24  1  0.50000000  0.45605300  0.26397800  1
  O  O25  1  0.50000000  0.45783900  0.93141100  1
  O  O26  1  0.50000000  0.45082400  0.59898400  1
  O  O27  1  0.00000000  0.40114600  0.25288500  1
  O  O28  1  0.00000000  0.40069600  0.92049600  1
  O  O29  1  0.00000000  0.39999300  0.58667800  1
  O  O30  1  0.20023400  0.33545900  0.07408800  1
  O  O31  1  0.20171100  0.33325700  0.40530200  1
  O  O32  1  0.20261200  0.33233900  0.73961100  1
  O  O33  1  0.79738800  0.33233900  0.73961100  1
  O  O34  1  0.79976600  0.33545900  0.07408800  1
  O  O35  1  0.79828900  0.33325700  0.40530200  1
  O  O36  1  0.70410000  0.16533600  0.90258900  1
  O  O37  1  0.29590000  0.16533600  0.90258900  1
  O  O38  1  0.70394500  0.16540000  0.23822400  1
  O  O39  1  0.70292100  0.16814500  0.57323700  1
  O  O40  1  0.29605500  0.16540000  0.23822400  1
  O  O41  1  0.29707900  0.16814500  0.57323700  1
  O  O42  1  0.50000000  0.09801800  0.75158500  1
  O  O43  1  0.50000000  0.09847100  0.42055900  1
  O  O44  1  0.50000000  0.09599100  0.08695500  1
  O  O45  1  0.00000000  0.04699600  0.76638300  1
  O  O46  1  0.00000000  0.04444800  0.09926000  1
  O  O47  1  0.00000000  0.04776200  0.43183000  1
loop_
_geom_bond_atom_site_label_1
_geom_bond_atom_site_label_2
_geom_bond_distance
_geom_bond_site_symmetry_2
Li0 O1 2.125026 1_545
Li0 O45 2.128210 1_655
Li0 O42 2.181398 1_555
Li0 O11 2.196221 1_545
Li0 O39 2.203763 1_555
Li0 O3 2.242263 1_645
Li1 O2 2.117501 1_545
Li1 O46 2.132690 1_556
Li1 O4 2.202928 1_545
Li1 O44 2.214985 1_556
Li1 O37 2.218997 1_555
Li1 O6 2.225376 1_546
Li2 O2 2.117501 1_545
Li2 O46 2.132690 1_656
Li2 O4 2.202928 1_645
Li2 O44 2.214985 1_556
Li2 O36 2.218997 1_555
Li2 O7 2.225376 1_546
Li3 O0 2.111158 1_545
Li3 O47 2.135583 1_555
Li3 O8 2.173405 1_545
Li3 O40 2.209957 1_555
Li3 O5 2.210011 1_545
Li3 O43 2.224725 1_555
Li4 O0 2.111158 1_545
Li4 O47 2.135583 1_655
Li4 O9 2.173405 1_545
Li4 O38 2.209957 1_555
Li4 O5 2.210011 1_645
Li4 O43 2.224725 1_555
Li5 O1 2.125026 1_545
Li5 O45 2.128210 1_555
Li5 O42 2.181398 1_555
Li5 O10 2.196221 1_545
Li5 O41 2.203763 1_555
Li5 O3 2.242263 1_545
Li6 O21 2.126585 1_555
Li6 O26 2.135737 1_555
Li6 O13 2.177716 1_555
Li6 O29 2.210414 1_555
Li6 O31 2.219424 1_555
Li6 O18 2.220349 1_555
Li7 O21 2.126585 1_655
Li7 O26 2.135737 1_555
Li7 O12 2.177716 1_555
Li7 O29 2.210414 1_655
Li7 O35 2.219424 1_555
Li7 O18 2.220349 1_555
Li8 O24 2.113617 1_555
Li8 O22 2.132362 1_555
Li8 O30 2.185553 1_555
Li8 O19 2.204437 1_555
Li8 O27 2.207872 1_555
Li8 O15 2.221941 1_555
Li9 O24 2.113617 1_555
Li9 O22 2.132362 1_655
Li9 O34 2.185553 1_555
Li9 O19 2.204437 1_555
Li9 O27 2.207872 1_655
Li9 O14 2.221941 1_555
Li10 O25 2.111279 1_555
Li10 O23 2.115036 1_555
Li10 O32 2.199089 1_555
Li10 O20 2.206790 1_555
Li10 O28 2.215823 1_555
Li10 O17 2.257589 1_555
Li11 O25 2.111279 1_555
Li11 O23 2.115036 1_655
Li11 O33 2.199089 1_555
Li11 O20 2.206790 1_555
Li11 O28 2.215823 1_655
Li11 O16 2.257589 1_555
Mn0 O9 2.139986 1_555
Mn0 O8 2.139986 1_555
Mn0 O1 2.155223 1_555
Mn0 O18 2.258023 1_555
Mn0 O12 2.287577 1_555
Mn0 O13 2.287577 1_555
Mn1 O10 2.129138 1_555
Mn1 O11 2.129138 1_555
Mn1 O2 2.149273 1_555
Mn1 O20 2.261858 1_555
Mn1 O17 2.282398 1_555
Mn1 O16 2.282398 1_555
Mn2 O13 2.138446 1_555
Mn2 O12 2.138446 1_455
Mn2 O23 2.154330 1_555
Mn2 O3 2.256284 1_555
Mn2 O10 2.275128 1_555
Mn2 O11 2.275128 1_455
Mn3 O30 2.140879 1_555
Mn3 O34 2.140879 1_555
Mn3 O25 2.142471 1_554
Mn3 O44 2.240280 1_555
Mn3 O36 2.292702 1_554
Mn3 O37 2.292702 1_554
Fe0 O6 2.104634 1_555
Fe0 O7 2.104634 1_555
Fe0 O0 2.141531 1_555
Fe0 O19 2.234072 1_555
Fe0 O14 2.280343 1_555
Fe0 O15 2.280343 1_555
Fe1 O16 2.098875 1_455
Fe1 O17 2.098875 1_555
Fe1 O22 2.108346 1_556
Fe1 O4 2.233628 1_555
Fe1 O7 2.273362 1_456
Fe1 O6 2.273362 1_556
Fe2 O14 2.102104 1_455
Fe2 O15 2.102104 1_555
Fe2 O21 2.138001 1_555
Fe2 O5 2.223614 1_555
Fe2 O8 2.274594 1_555
Fe2 O9 2.274594 1_455
Fe3 O31 2.109384 1_555
Fe3 O35 2.109384 1_555
Fe3 O24 2.136008 1_555
Fe3 O43 2.216042 1_555
Fe3 O40 2.276908 1_555
Fe3 O38 2.276908 1_555
Co0 O26 2.090010 1_555
Co0 O32 2.144598 1_555
Co0 O33 2.144598 1_555
Co0 O41 2.184082 1_555
Co0 O39 2.184082 1_555
Co0 O42 2.190945 1_555
Co1 O37 2.098231 1_555
Co1 O36 2.098231 1_455
Co1 O45 2.116433 1_555
Co1 O28 2.189639 1_555
Co1 O32 2.218143 1_555
Co1 O33 2.218143 1_455
Co2 O47 2.096493 1_555
Co2 O41 2.134650 1_555
Co2 O39 2.134650 1_455
Co2 O29 2.202345 1_555
Co2 O35 2.210684 1_455
Co2 O31 2.210684 1_555
Co3 O46 2.103803 1_555
Co3 O38 2.104850 1_455
Co3 O40 2.104850 1_555
Co3 O27 2.225286 1_555
Co3 O30 2.234475 1_555
Co3 O34 2.234475 1_455
O0 P10 1.558360 1_565
O1 P11 1.555977 1_565
O2 P9 1.557578 1_565
O3 P2 1.535045 1_555
O4 P0 1.541706 1_555
O5 P1 1.536975 1_555
O6 P1 1.575004 1_555
O7 P1 1.575004 1_655
O8 P2 1.570697 1_555
O9 P2 1.570697 1_655
O10 P0 1.571313 1_555
O11 P0 1.571313 1_655
O12 P4 1.569483 1_555
O13 P4 1.569483 1_555
O14 P3 1.574600 1_555
O15 P3 1.574600 1_555
O16 P5 1.571935 1_555
O17 P5 1.571935 1_555
O18 P3 1.535203 1_555
O19 P5 1.540839 1_554
O20 P4 1.536532 1_555
O21 P6 1.556673 1_555
O22 P7 1.556573 1_555
O23 P8 1.559964 1_555
O24 P3 1.555440 1_555
O25 P5 1.552435 1_555
O26 P4 1.558473 1_555
O27 P6 1.536307 1_555
O28 P7 1.538282 1_556
O29 P8 1.544647 1_555
O30 P7 1.569165 1_555
O31 P6 1.576187 1_555
O32 P8 1.572481 1_555
O33 P8 1.572481 1_655
O34 P7 1.569165 1_655
O35 P6 1.576187 1_655
O36 P9 1.570942 1_555
O37 P9 1.570942 1_555
O38 P10 1.577662 1_555
O39 P11 1.579627 1_555
O40 P10 1.577662 1_555
O41 P11 1.579627 1_555
O42 P9 1.538765 1_555
O43 P11 1.540682 1_555
O44 P10 1.536257 1_555
O45 P0 1.552065 1_545
O46 P1 1.557708 1_545
O47 P2 1.559767 1_545
