# generated using pymatgen
data_Li3Co2(GeO4)2
_symmetry_space_group_name_H-M   'P 1'
_cell_length_a   5.14048100
_cell_length_b   5.61055963
_cell_length_c   6.32182545
_cell_angle_alpha   89.74859147
_cell_angle_beta   89.93616808
_cell_angle_gamma   89.37235998
_symmetry_Int_Tables_number   1
_chemical_formula_structural   Li3Co2(GeO4)2
_chemical_formula_sum   'Li3 Co2 Ge2 O8'
_cell_volume   182.31481265
_cell_formula_units_Z   1
loop_
 _symmetry_equiv_pos_site_id
 _symmetry_equiv_pos_as_xyz
  1  'x, y, z'
loop_
 _atom_site_type_symbol
 _atom_site_label
 _atom_site_symmetry_multiplicity
 _atom_site_fract_x
 _atom_site_fract_y
 _atom_site_fract_z
 _atom_site_occupancy
  Li  Li0  1  0.00829100  0.66133300  0.75129300  1
  Li  Li1  1  0.00668900  0.66440000  0.25023100  1
  Li  Li2  1  0.50014500  0.33387900  0.24887500  1
  Co  Co0  1  0.99690400  0.16752700  0.99604500  1
  Co  Co1  1  0.50873600  0.83326000  0.50177600  1
  Ge  Ge0  1  0.50247800  0.84064900  0.00169100  1
  Ge  Ge1  1  0.99657800  0.16427300  0.49926200  1
  O  O0  1  0.15359000  0.84389200  0.00152400  1
  O  O1  1  0.62675400  0.13131200  0.02184500  1
  O  O2  1  0.62109500  0.70726700  0.76572900  1
  O  O3  1  0.07934200  0.31950800  0.73193400  1
  O  O4  1  0.12833700  0.86383500  0.49982500  1
  O  O5  1  0.65305000  0.14064400  0.47837100  1
  O  O6  1  0.10812800  0.31897800  0.26640700  1
  O  O7  1  0.60463300  0.67540100  0.23489100  1
loop_
_geom_bond_atom_site_label_1
_geom_bond_atom_site_label_2
_geom_bond_distance
_geom_bond_site_symmetry_2
Li0 O3 1.952706 1_555
Li0 O2 2.006215 1_455
Li0 O0 2.035448 1_556
Li0 O4 2.048470 1_555
Li1 O6 2.003619 1_555
Li1 O0 2.014096 1_555
Li1 O4 2.041035 1_555
Li1 O7 2.069376 1_455
Li2 O1 1.941958 1_555
Li2 O5 1.966770 1_555
Li2 O7 1.997203 1_555
Li2 O6 2.020703 1_555
Co0 O3 1.920494 1_655
Co0 O1 1.922454 1_556
Co0 O0 1.978494 1_646
Co0 O6 1.998948 1_656
Co1 O5 1.889974 1_565
Co1 O2 1.897521 1_555
Co1 O4 1.961119 1_555
Co1 O7 1.968698 1_555
Ge0 O1 1.763130 1_565
Ge0 O2 1.776173 1_554
Ge0 O0 1.793347 1_555
Ge0 O7 1.813232 1_555
Ge1 O3 1.767457 1_655
Ge1 O5 1.777419 1_555
Ge1 O6 1.801943 1_655
Ge1 O4 1.809704 1_645
