# generated using pymatgen
data_Li6FeS4
_symmetry_space_group_name_H-M   'P 1'
_cell_length_a   7.96065500
_cell_length_b   7.96065500
_cell_length_c   5.84804900
_cell_angle_alpha   90.00000000
_cell_angle_beta   90.00000000
_cell_angle_gamma   90.00000000
_symmetry_Int_Tables_number   1
_chemical_formula_structural   Li6FeS4
_chemical_formula_sum   'Li12 Fe2 S8'
_cell_volume   370.60272514
_cell_formula_units_Z   2
loop_
 _symmetry_equiv_pos_site_id
 _symmetry_equiv_pos_as_xyz
  1  'x, y, z'
loop_
 _atom_site_type_symbol
 _atom_site_label
 _atom_site_symmetry_multiplicity
 _atom_site_fract_x
 _atom_site_fract_y
 _atom_site_fract_z
 _atom_site_occupancy
  Li  Li0  1  0.27341000  0.27341000  0.50000000  1
  Li  Li1  1  0.72659000  0.27341000  0.50000000  1
  Li  Li2  1  0.00000000  0.50000000  0.46026700  1
  Li  Li3  1  0.00000000  0.50000000  0.96026700  1
  Li  Li4  1  0.27341000  0.72659000  0.50000000  1
  Li  Li5  1  0.72659000  0.72659000  0.50000000  1
  Li  Li6  1  0.77341000  0.77341000  0.00000000  1
  Li  Li7  1  0.22659000  0.77341000  0.00000000  1
  Li  Li8  1  0.50000000  0.00000000  0.03973300  1
  Li  Li9  1  0.50000000  0.00000000  0.53973300  1
  Li  Li10  1  0.77341000  0.22659000  0.00000000  1
  Li  Li11  1  0.22659000  0.22659000  0.00000000  1
  Fe  Fe0  1  0.50000000  0.50000000  0.00000000  1
  Fe  Fe1  1  0.00000000  0.00000000  0.50000000  1
  S  S0  1  0.00000000  0.25394500  0.71586600  1
  S  S1  1  0.75394500  0.50000000  0.21586600  1
  S  S2  1  0.24605500  0.50000000  0.21586600  1
  S  S3  1  0.00000000  0.74605500  0.71586600  1
  S  S4  1  0.50000000  0.75394500  0.78413400  1
  S  S5  1  0.74605500  0.00000000  0.28413400  1
  S  S6  1  0.25394500  0.00000000  0.28413400  1
  S  S7  1  0.50000000  0.24605500  0.78413400  1
loop_
_geom_bond_atom_site_label_1
_geom_bond_atom_site_label_2
_geom_bond_distance
_geom_bond_site_symmetry_2
Li0 S7 2.462142 1_555
Li0 S2 2.462142 1_555
Li0 S6 2.520893 1_555
Li0 S0 2.520893 1_555
Li1 S1 2.462142 1_555
Li1 S7 2.462142 1_555
Li1 S0 2.520893 1_655
Li1 S5 2.520893 1_555
Li2 S2 2.424778 1_555
Li2 S1 2.424778 1_455
Li2 S3 2.463946 1_555
Li2 S0 2.463946 1_555
Li3 S3 2.424778 1_555
Li3 S0 2.424778 1_555
Li3 S2 2.463946 1_556
Li3 S1 2.463946 1_456
Li4 S4 2.462142 1_555
Li4 S2 2.462142 1_555
Li4 S6 2.520893 1_565
Li4 S3 2.520893 1_555
Li5 S4 2.462142 1_555
Li5 S1 2.462142 1_555
Li5 S5 2.520893 1_565
Li5 S3 2.520893 1_655
Li6 S3 2.462142 1_654
Li6 S5 2.462142 1_565
Li6 S4 2.520893 1_554
Li6 S1 2.520893 1_555
Li7 S6 2.462142 1_565
Li7 S3 2.462142 1_554
Li7 S4 2.520893 1_554
Li7 S2 2.520893 1_555
Li8 S5 2.424778 1_555
Li8 S6 2.424778 1_555
Li8 S4 2.463946 1_544
Li8 S7 2.463946 1_554
Li9 S7 2.424778 1_555
Li9 S4 2.424778 1_545
Li9 S5 2.463946 1_555
Li9 S6 2.463946 1_555
Li10 S0 2.462142 1_654
Li10 S5 2.462142 1_555
Li10 S1 2.520893 1_555
Li10 S7 2.520893 1_554
Li11 S0 2.462142 1_554
Li11 S6 2.462142 1_555
Li11 S2 2.520893 1_555
Li11 S7 2.520893 1_554
Fe0 S2 2.383355 1_555
Fe0 S7 2.383355 1_554
Fe0 S4 2.383355 1_554
Fe0 S1 2.383355 1_555
Fe1 S0 2.383355 1_555
Fe1 S6 2.383355 1_555
Fe1 S5 2.383355 1_455
Fe1 S3 2.383355 1_545
