# generated using pymatgen
data_LiVO3
_symmetry_space_group_name_H-M   'P 1'
_cell_length_a   6.59542462
_cell_length_b   6.59542462
_cell_length_c   6.06816302
_cell_angle_alpha   76.31625421
_cell_angle_beta   76.31625421
_cell_angle_gamma   25.31002991
_symmetry_Int_Tables_number   1
_chemical_formula_structural   LiVO3
_chemical_formula_sum   'Li2 V2 O6'
_cell_volume   109.48133773
_cell_formula_units_Z   2
loop_
 _symmetry_equiv_pos_site_id
 _symmetry_equiv_pos_as_xyz
  1  'x, y, z'
loop_
 _atom_site_type_symbol
 _atom_site_label
 _atom_site_symmetry_multiplicity
 _atom_site_fract_x
 _atom_site_fract_y
 _atom_site_fract_z
 _atom_site_occupancy
  Li  Li0  1  0.00000000  0.00000000  0.50000000  1
  Li  Li1  1  0.00000000  0.00000000  0.00000000  1
  V  V0  1  0.66366100  0.66366100  0.19091200  1
  V  V1  1  0.33633900  0.33633900  0.80908800  1
  O  O0  1  0.17241000  0.17241000  0.37592000  1
  O  O1  1  0.82431400  0.82431400  0.04360700  1
  O  O2  1  0.82759000  0.82759000  0.62408000  1
  O  O3  1  0.47461700  0.47461700  0.76376100  1
  O  O4  1  0.52538300  0.52538300  0.23623900  1
  O  O5  1  0.17568600  0.17568600  0.95639300  1
loop_
_geom_bond_atom_site_label_1
_geom_bond_atom_site_label_2
_geom_bond_distance
_geom_bond_site_symmetry_2
Li0 O3 2.121965 1_545
Li0 O3 2.121965 1_455
Li0 O4 2.121965 1_545
Li0 O4 2.121965 1_455
Li0 O2 2.163482 1_445
Li0 O0 2.163482 1_555
Li1 O4 2.115812 1_455
Li1 O4 2.115812 1_545
Li1 O3 2.115812 1_544
Li1 O3 2.115812 1_454
Li1 O5 2.211941 1_554
Li1 O1 2.211941 1_445
O0 V0 1.849907 1_545
O0 V0 1.849907 1_455
O1 V1 2.007531 1_564
O1 V1 2.007531 1_654
O1 V0 2.044026 1_555
O2 V1 1.849907 1_655
O2 V1 1.849907 1_565
O3 V1 1.733666 1_555
O4 V0 1.733666 1_555
O5 V0 2.007531 1_456
O5 V0 2.007531 1_546
O5 V1 2.044026 1_555
