# generated using pymatgen
data_Li2CrSi7O16
_symmetry_space_group_name_H-M   'P 1'
_cell_length_a   7.74080077
_cell_length_b   7.67186429
_cell_length_c   7.26285986
_cell_angle_alpha   77.22598529
_cell_angle_beta   103.84845430
_cell_angle_gamma   63.04141639
_symmetry_Int_Tables_number   1
_chemical_formula_structural   Li2CrSi7O16
_chemical_formula_sum   'Li2 Cr1 Si7 O16'
_cell_volume   345.13650496
_cell_formula_units_Z   1
loop_
 _symmetry_equiv_pos_site_id
 _symmetry_equiv_pos_as_xyz
  1  'x, y, z'
loop_
 _atom_site_type_symbol
 _atom_site_label
 _atom_site_symmetry_multiplicity
 _atom_site_fract_x
 _atom_site_fract_y
 _atom_site_fract_z
 _atom_site_occupancy
  Li  Li0  1  0.45747800  0.70684600  0.72090500  1
  Li  Li1  1  0.77134800  0.38343300  0.36366500  1
  Cr  Cr0  1  0.85979300  0.35844000  0.87130100  1
  Si  Si0  1  0.40438300  0.81327700  0.13763700  1
  Si  Si1  1  0.17300600  0.58701100  0.15522200  1
  Si  Si2  1  0.81552400  0.82473900  0.72127500  1
  Si  Si3  1  0.20060800  0.12549900  0.70619900  1
  Si  Si4  1  0.16111900  0.19337200  0.27502800  1
  Si  Si5  1  0.79450300  0.83979200  0.28233300  1
  Si  Si6  1  0.54694200  0.20698700  0.84046300  1
  O  O0  1  0.05177400  0.70764700  0.90751100  1
  O  O1  1  0.34214400  0.88247700  0.89038600  1
  O  O2  1  0.23992100  0.02178800  0.16473800  1
  O  O3  1  0.01954600  0.68680900  0.27239900  1
  O  O4  1  0.30440400  0.25806800  0.76690400  1
  O  O5  1  0.71952100  0.67958000  0.74705500  1
  O  O6  1  0.37917600  0.61288900  0.22314000  1
  O  O7  1  0.25509800  0.05135200  0.51967200  1
  O  O8  1  0.84193900  0.87074000  0.49886700  1
  O  O9  1  0.54710600  0.41917200  0.78979800  1
  O  O10  1  0.65217100  0.72688900  0.26428700  1
  O  O11  1  0.26868000  0.33310100  0.23603200  1
  O  O12  1  0.95230500  0.25732800  0.65160400  1
  O  O13  1  0.67057900  0.05629600  0.72803700  1
  O  O14  1  0.66223500  0.06486800  0.09128600  1
  O  O15  1  0.90869700  0.33160000  0.17425800  1
loop_
_geom_bond_atom_site_label_1
_geom_bond_atom_site_label_2
_geom_bond_distance
_geom_bond_site_symmetry_2
Li0 O9 1.886717 1_555
Li0 O5 1.899374 1_555
Li0 O1 2.072811 1_555
Li0 O7 2.239938 1_565
Li1 O15 1.933803 1_555
Li1 O12 1.935392 1_555
Li1 O10 2.225129 1_555
Li1 O6 2.496622 1_555
Cr0 O5 2.045866 1_555
Cr0 O12 2.061861 1_555
Cr0 O15 2.087439 1_556
Cr0 O9 2.143755 1_555
O0 Si1 1.625400 1_556
O0 Si2 1.664308 1_455
O1 Si0 1.634327 1_556
O1 Si3 1.676113 1_565
O2 Si0 1.622068 1_545
O2 Si4 1.648846 1_555
O3 Si5 1.631303 1_455
O3 Si1 1.633719 1_555
O4 Si3 1.626027 1_555
O4 Si6 1.650436 1_555
O5 Si2 1.597586 1_555
O6 Si0 1.641635 1_555
O6 Si1 1.668362 1_555
O7 Si4 1.637037 1_555
O7 Si3 1.653341 1_555
O8 Si5 1.622399 1_555
O8 Si2 1.657426 1_555
O9 Si6 1.588246 1_555
O10 Si0 1.642433 1_555
O10 Si5 1.681569 1_555
O11 Si1 1.632732 1_555
O11 Si4 1.646355 1_555
O12 Si3 1.603032 1_655
O13 Si2 1.635508 1_545
O13 Si6 1.645460 1_555
O14 Si5 1.616373 1_545
O14 Si6 1.662816 1_554
O15 Si4 1.603621 1_655
