# generated using pymatgen
data_AlGaO3
_symmetry_space_group_name_H-M   'P 1'
_cell_length_a   4.88923100
_cell_length_b   5.00952900
_cell_length_c   7.44801800
_cell_angle_alpha   90.00000000
_cell_angle_beta   90.00000000
_cell_angle_gamma   90.00000000
_symmetry_Int_Tables_number   1
_chemical_formula_structural   AlGaO3
_chemical_formula_sum   'Al4 Ga4 O12'
_cell_volume   182.42240177
_cell_formula_units_Z   4
loop_
 _symmetry_equiv_pos_site_id
 _symmetry_equiv_pos_as_xyz
  1  'x, y, z'
loop_
 _atom_site_type_symbol
 _atom_site_label
 _atom_site_symmetry_multiplicity
 _atom_site_fract_x
 _atom_site_fract_y
 _atom_site_fract_z
 _atom_site_occupancy
  Al  Al0  1  0.00000000  0.50000000  0.00000000  1
  Al  Al1  1  0.00000000  0.50000000  0.50000000  1
  Al  Al2  1  0.50000000  0.00000000  0.00000000  1
  Al  Al3  1  0.50000000  0.00000000  0.50000000  1
  Ga  Ga0  1  0.01401500  0.95704300  0.75000000  1
  Ga  Ga1  1  0.48598500  0.45704300  0.75000000  1
  Ga  Ga2  1  0.51401500  0.54295700  0.25000000  1
  Ga  Ga3  1  0.98598500  0.04295700  0.25000000  1
  O  O0  1  0.13206100  0.42015200  0.25000000  1
  O  O1  1  0.18100700  0.18548900  0.57144800  1
  O  O2  1  0.18100700  0.18548900  0.92855200  1
  O  O3  1  0.31899300  0.68548900  0.57144800  1
  O  O4  1  0.31899300  0.68548900  0.92855200  1
  O  O5  1  0.36793900  0.92015200  0.25000000  1
  O  O6  1  0.63206100  0.07984800  0.75000000  1
  O  O7  1  0.68100700  0.31451100  0.07144800  1
  O  O8  1  0.68100700  0.31451100  0.42855200  1
  O  O9  1  0.81899300  0.81451100  0.07144800  1
  O  O10  1  0.81899300  0.81451100  0.42855200  1
  O  O11  1  0.86793900  0.57984800  0.75000000  1
loop_
_geom_bond_atom_site_label_1
_geom_bond_atom_site_label_2
_geom_bond_distance
_geom_bond_site_symmetry_2
Al0 O2 1.883810 1_554
Al0 O9 1.883810 1_455
Al0 O7 1.891841 1_455
Al0 O4 1.891841 1_554
Al0 O0 2.010960 1_555
Al0 O11 2.010960 1_454
Al1 O1 1.883810 1_555
Al1 O10 1.883810 1_455
Al1 O8 1.891841 1_455
Al1 O3 1.891841 1_555
Al1 O0 2.010960 1_555
Al1 O11 2.010960 1_455
Al2 O4 1.883810 1_544
Al2 O7 1.883810 1_555
Al2 O2 1.891841 1_554
Al2 O9 1.891841 1_545
Al2 O6 2.010960 1_554
Al2 O5 2.010960 1_545
Al3 O3 1.883810 1_545
Al3 O8 1.883810 1_555
Al3 O1 1.891841 1_555
Al3 O10 1.891841 1_545
Al3 O6 2.010960 1_555
Al3 O5 2.010960 1_545
Ga0 O1 1.935149 1_565
Ga0 O2 1.935149 1_565
Ga0 O6 1.966183 1_465
Ga0 O11 2.020038 1_455
Ga0 O3 2.417126 1_555
Ga0 O4 2.417126 1_555
Ga1 O3 1.935149 1_555
Ga1 O4 1.935149 1_555
Ga1 O11 1.966183 1_555
Ga1 O6 2.020038 1_555
Ga1 O2 2.417126 1_555
Ga1 O1 2.417126 1_555
Ga2 O7 1.935149 1_555
Ga2 O8 1.935149 1_555
Ga2 O0 1.966183 1_555
Ga2 O5 2.020038 1_555
Ga2 O10 2.417126 1_555
Ga2 O9 2.417126 1_555
Ga3 O9 1.935149 1_545
Ga3 O10 1.935149 1_545
Ga3 O5 1.966183 1_645
Ga3 O0 2.020038 1_655
Ga3 O8 2.417126 1_555
Ga3 O7 2.417126 1_555
