# generated using pymatgen
data_Al(HO)3
_symmetry_space_group_name_H-M   'P 1'
_cell_length_a   8.67664700
_cell_length_b   4.78946900
_cell_length_c   5.14359074
_cell_angle_alpha   83.75112786
_cell_angle_beta   90.00000000
_cell_angle_gamma   90.00000000
_symmetry_Int_Tables_number   1
_chemical_formula_structural   Al(HO)3
_chemical_formula_sum   'Al4 H12 O12'
_cell_volume   212.47979395
_cell_formula_units_Z   4
loop_
 _symmetry_equiv_pos_site_id
 _symmetry_equiv_pos_as_xyz
  1  'x, y, z'
loop_
 _atom_site_type_symbol
 _atom_site_label
 _atom_site_symmetry_multiplicity
 _atom_site_fract_x
 _atom_site_fract_y
 _atom_site_fract_z
 _atom_site_occupancy
  Al  Al0  1  0.66713300  0.00182800  0.96332300  1
  Al  Al1  1  0.16713300  0.99817200  0.53667700  1
  Al  Al2  1  0.83286700  0.00182800  0.46332300  1
  Al  Al3  1  0.33286700  0.99817200  0.03667700  1
  H  H0  1  0.19968500  0.41181500  0.80121600  1
  H  H1  1  0.96504700  0.77462400  0.84315400  1
  H  H2  1  0.40011300  0.68895300  0.71208000  1
  H  H3  1  0.90011300  0.31104700  0.78792000  1
  H  H4  1  0.46504700  0.22537600  0.65684600  1
  H  H5  1  0.69968500  0.58818500  0.69878400  1
  H  H6  1  0.30031500  0.41181500  0.30121600  1
  H  H7  1  0.53495300  0.77462400  0.34315400  1
  H  H8  1  0.09988700  0.68895300  0.21208000  1
  H  H9  1  0.59988700  0.31104700  0.28792000  1
  H  H10  1  0.03495300  0.22537600  0.15684600  1
  H  H11  1  0.80031500  0.58818500  0.19878400  1
  O  O0  1  0.49013500  0.21161300  0.84263100  1
  O  O1  1  0.17182800  0.21107400  0.83815200  1
  O  O2  1  0.80145700  0.23294300  0.73952200  1
  O  O3  1  0.30145700  0.76705700  0.76047800  1
  O  O4  1  0.67182800  0.78892600  0.66184800  1
  O  O5  1  0.99013500  0.78838700  0.65736900  1
  O  O6  1  0.00986500  0.21161300  0.34263100  1
  O  O7  1  0.32817200  0.21107400  0.33815200  1
  O  O8  1  0.69854300  0.23294300  0.23952200  1
  O  O9  1  0.19854300  0.76705700  0.26047800  1
  O  O10  1  0.82817200  0.78892600  0.16184800  1
  O  O11  1  0.50986500  0.78838700  0.15736900  1
loop_
_geom_bond_atom_site_label_1
_geom_bond_atom_site_label_2
_geom_bond_distance
_geom_bond_site_symmetry_2
Al0 O0 1.902015 1_555
Al0 O2 1.905610 1_555
Al0 O8 1.913148 1_556
Al0 O11 1.918626 1_546
Al0 O4 1.946843 1_545
Al0 O10 1.951458 1_546
Al1 O5 1.902015 1_455
Al1 O3 1.905610 1_555
Al1 O9 1.913148 1_555
Al1 O6 1.918626 1_565
Al1 O1 1.946843 1_565
Al1 O7 1.951458 1_565
Al2 O6 1.902015 1_655
Al2 O8 1.905610 1_555
Al2 O2 1.913148 1_555
Al2 O5 1.918626 1_545
Al2 O10 1.946843 1_545
Al2 O4 1.951458 1_545
Al3 O11 1.902015 1_555
Al3 O9 1.905610 1_555
Al3 O3 1.913148 1_554
Al3 O0 1.918626 1_564
Al3 O7 1.946843 1_565
Al3 O1 1.951458 1_564
H0 O1 0.989507 1_555
H1 O5 0.975291 1_555
H2 O3 0.977199 1_555
H3 O2 0.977199 1_555
H4 O0 0.975291 1_555
H5 O4 0.989507 1_555
H6 O7 0.989507 1_555
H7 O11 0.975291 1_555
H8 O9 0.977199 1_555
H9 O8 0.977199 1_555
H10 O6 0.975291 1_555
H11 O10 0.989507 1_555
