# generated using pymatgen
data_Li3(NiO2)4
_symmetry_space_group_name_H-M   'P 1'
_cell_length_a   5.77150298
_cell_length_b   5.77150298
_cell_length_c   5.61588311
_cell_angle_alpha   61.61058602
_cell_angle_beta   61.61058602
_cell_angle_gamma   93.43545162
_symmetry_Int_Tables_number   1
_chemical_formula_structural   Li3(NiO2)4
_chemical_formula_sum   'Li3 Ni4 O8'
_cell_volume   134.53033079
_cell_formula_units_Z   1
loop_
 _symmetry_equiv_pos_site_id
 _symmetry_equiv_pos_as_xyz
  1  'x, y, z'
loop_
 _atom_site_type_symbol
 _atom_site_label
 _atom_site_symmetry_multiplicity
 _atom_site_fract_x
 _atom_site_fract_y
 _atom_site_fract_z
 _atom_site_occupancy
  Li  Li0  1  0.50000000  0.00000000  0.50000000  1
  Li  Li1  1  0.00000000  0.50000000  0.50000000  1
  Li  Li2  1  0.50000000  0.50000000  0.50000000  1
  Ni  Ni0  1  0.50000000  0.00000000  0.00000000  1
  Ni  Ni1  1  0.00000000  0.00000000  0.00000000  1
  Ni  Ni2  1  0.00000000  0.50000000  0.00000000  1
  Ni  Ni3  1  0.00000000  0.00000000  0.50000000  1
  O  O0  1  0.77313600  0.22686400  0.50000000  1
  O  O1  1  0.77845600  0.77845600  0.96935200  1
  O  O2  1  0.77724700  0.22275300  0.00000000  1
  O  O3  1  0.77691400  0.77691400  0.46542400  1
  O  O4  1  0.22308600  0.22308600  0.53457600  1
  O  O5  1  0.22275300  0.77724700  0.00000000  1
  O  O6  1  0.22154400  0.22154400  0.03064800  1
  O  O7  1  0.22686400  0.77313600  0.50000000  1
loop_
_geom_bond_atom_site_label_1
_geom_bond_atom_site_label_2
_geom_bond_distance
_geom_bond_site_symmetry_2
Li0 O7 1.987981 1_545
Li0 O0 1.987981 1_555
Li0 O5 2.036143 1_546
Li0 O2 2.036143 1_555
Li0 O3 2.106893 1_545
Li0 O4 2.106893 1_555
Li1 O0 1.987981 1_455
Li1 O7 1.987981 1_555
Li1 O2 2.036143 1_456
Li1 O5 2.036143 1_555
Li1 O3 2.106893 1_455
Li1 O4 2.106893 1_555
Li2 O3 2.061535 1_555
Li2 O4 2.061535 1_555
Li2 O6 2.151354 1_556
Li2 O1 2.151354 1_554
Li2 O7 2.295198 1_555
Li2 O0 2.295198 1_555
Ni0 O5 1.991656 1_545
Ni0 O2 1.991656 1_555
Ni0 O0 2.032548 1_554
Ni0 O7 2.032548 1_545
Ni0 O6 2.107099 1_555
Ni0 O1 2.107099 1_544
Ni1 O2 1.871823 1_455
Ni1 O5 1.871823 1_545
Ni1 O1 1.876720 1_444
Ni1 O6 1.876720 1_555
Ni1 O4 1.883687 1_554
Ni1 O3 1.883687 1_445
Ni2 O2 1.991656 1_455
Ni2 O5 1.991656 1_555
Ni2 O7 2.032548 1_554
Ni2 O0 2.032548 1_455
Ni2 O6 2.107099 1_555
Ni2 O1 2.107099 1_454
Ni3 O1 1.900457 1_445
Ni3 O6 1.900457 1_555
Ni3 O3 1.905263 1_445
Ni3 O4 1.905263 1_555
Ni3 O7 1.906369 1_545
Ni3 O0 1.906369 1_455
