# generated using pymatgen
data_MnOF
_symmetry_space_group_name_H-M   'P 1'
_cell_length_a   4.59724400
_cell_length_b   5.72301850
_cell_length_c   10.33559023
_cell_angle_alpha   89.33615161
_cell_angle_beta   89.02576423
_cell_angle_gamma   88.26539950
_symmetry_Int_Tables_number   1
_chemical_formula_structural   MnOF
_chemical_formula_sum   'Mn8 O8 F8'
_cell_volume   271.74996430
_cell_formula_units_Z   8
loop_
 _symmetry_equiv_pos_site_id
 _symmetry_equiv_pos_as_xyz
  1  'x, y, z'
loop_
 _atom_site_type_symbol
 _atom_site_label
 _atom_site_symmetry_multiplicity
 _atom_site_fract_x
 _atom_site_fract_y
 _atom_site_fract_z
 _atom_site_occupancy
  Mn  Mn0  1  0.99747800  0.84569500  0.38780800  1
  Mn  Mn1  1  0.00192100  0.14513600  0.63090600  1
  Mn  Mn2  1  0.03065300  0.82392700  0.88986700  1
  Mn  Mn3  1  0.01090300  0.15386400  0.13469200  1
  Mn  Mn4  1  0.51028400  0.65470500  0.11756000  1
  Mn  Mn5  1  0.50473000  0.64747600  0.61726100  1
  Mn  Mn6  1  0.53229900  0.37704200  0.86203400  1
  Mn  Mn7  1  0.50017600  0.34562500  0.36252400  1
  O  O0  1  0.21028000  0.88235200  0.54792500  1
  O  O1  1  0.22819600  0.88903300  0.04859800  1
  O  O2  1  0.21146600  0.11489200  0.29881100  1
  O  O3  1  0.29594100  0.60770600  0.78117500  1
  O  O4  1  0.73678100  0.62684100  0.96140100  1
  O  O5  1  0.74510200  0.38652800  0.70151500  1
  O  O6  1  0.71055400  0.61316500  0.45170800  1
  O  O7  1  0.71551100  0.38067600  0.20106700  1
  F  F0  1  0.24580400  0.10886000  0.79492300  1
  F  F1  1  0.25131400  0.37561800  0.52493600  1
  F  F2  1  0.24720100  0.61588400  0.27028800  1
  F  F3  1  0.26609300  0.38361300  0.01915800  1
  F  F4  1  0.78026300  0.88658500  0.72843800  1
  F  F5  1  0.77379200  0.13722100  0.96108800  1
  F  F6  1  0.75638500  0.88559800  0.22796900  1
  F  F7  1  0.73687600  0.11195600  0.47834900  1
loop_
_geom_bond_atom_site_label_1
_geom_bond_atom_site_label_2
_geom_bond_distance
_geom_bond_site_symmetry_2
Mn0 O0 1.953284 1_655
Mn0 O6 2.000835 1_555
Mn0 O2 2.053175 1_665
Mn1 O5 1.931419 1_455
Mn1 O0 1.956940 1_545
Mn2 O4 1.919119 1_455
Mn2 O1 1.934008 1_556
Mn2 O3 2.043266 1_555
Mn3 O2 1.951714 1_555
Mn3 O7 1.970263 1_455
Mn3 O1 1.999052 1_545
Mn4 O4 1.911387 1_554
Mn4 O1 1.972876 1_555
Mn4 O7 2.000328 1_555
Mn5 O3 1.947371 1_555
Mn5 O6 1.950179 1_555
Mn5 O0 2.013288 1_555
Mn5 O5 2.027907 1_555
Mn6 O3 1.881556 1_555
Mn6 O5 1.912706 1_555
Mn6 O4 2.032350 1_555
Mn7 O7 1.937282 1_555
Mn7 O2 2.023599 1_555
Mn7 O6 2.069325 1_555
F0 Mn1 2.053363 1_555
F0 Mn2 2.151265 1_545
F0 Mn6 2.179358 1_555
F1 Mn7 2.021297 1_555
F1 Mn1 2.066249 1_555
F1 Mn5 2.206904 1_555
F2 Mn4 1.986740 1_555
F2 Mn0 2.102691 1_455
F2 Mn7 2.132664 1_555
F3 Mn6 2.016793 1_554
F3 Mn3 2.130833 1_555
F3 Mn4 2.209636 1_555
F4 Mn2 2.064911 1_655
F4 Mn1 2.065390 1_665
F4 Mn5 2.233462 1_555
F5 Mn6 2.019474 1_555
F5 Mn3 2.119803 1_656
F5 Mn2 2.241411 1_645
F6 Mn0 2.011970 1_555
F6 Mn4 2.120779 1_555
F6 Mn3 2.166043 1_665
F7 Mn1 2.023170 1_655
F7 Mn7 2.079581 1_555
F7 Mn0 2.125430 1_545
