# generated using pymatgen
data_ErAlO3
_symmetry_space_group_name_H-M   'P 1'
_cell_length_a   5.11890551
_cell_length_b   5.31641715
_cell_length_c   7.32664956
_cell_angle_alpha   90.00000000
_cell_angle_beta   90.00000000
_cell_angle_gamma   90.00000000
_symmetry_Int_Tables_number   1
_chemical_formula_structural   ErAlO3
_chemical_formula_sum   'Er4 Al4 O12'
_cell_volume   199.38917785
_cell_formula_units_Z   4
loop_
 _symmetry_equiv_pos_site_id
 _symmetry_equiv_pos_as_xyz
  1  'x, y, z'
loop_
 _atom_site_type_symbol
 _atom_site_label
 _atom_site_symmetry_multiplicity
 _atom_site_fract_x
 _atom_site_fract_y
 _atom_site_fract_z
 _atom_site_occupancy
  Er  Er0  1  0.01448750  0.94133861  0.75000000  1
  Er  Er1  1  0.48551250  0.44133861  0.75000000  1
  Er  Er2  1  0.51448750  0.55866139  0.25000000  1
  Er  Er3  1  0.98551250  0.05866139  0.25000000  1
  Al  Al0  1  -0.00000000  0.50000000  0.00000000  1
  Al  Al1  1  -0.00000000  0.50000000  0.50000000  1
  Al  Al2  1  0.50000000  0.00000000  0.00000000  1
  Al  Al3  1  0.50000000  0.00000000  0.50000000  1
  O  O0  1  0.09156526  0.47432961  0.25000000  1
  O  O1  1  0.20267311  0.20380367  0.54789866  1
  O  O2  1  0.20267311  0.20380367  0.95210134  1
  O  O3  1  0.29732689  0.70380367  0.95210134  1
  O  O4  1  0.29732689  0.70380367  0.54789866  1
  O  O5  1  0.40843474  0.97432961  0.25000000  1
  O  O6  1  0.59156526  0.02567039  0.75000000  1
  O  O7  1  0.70267311  0.29619633  0.04789866  1
  O  O8  1  0.70267311  0.29619633  0.45210134  1
  O  O9  1  0.79732689  0.79619633  0.04789866  1
  O  O10  1  0.79732689  0.79619633  0.45210134  1
  O  O11  1  0.90843474  0.52567039  0.75000000  1
loop_
_geom_bond_atom_site_label_1
_geom_bond_atom_site_label_2
_geom_bond_distance
_geom_bond_site_symmetry_2
Er0 O6 2.210837 1_465
Er0 O2 2.251127 1_565
Er0 O1 2.251127 1_565
Er0 O11 2.275570 1_455
Er0 O3 2.425594 1_555
Er0 O4 2.425594 1_555
Er0 O9 2.568048 1_456
Er0 O10 2.568048 1_455
Er1 O11 2.210837 1_555
Er1 O3 2.251127 1_555
Er1 O4 2.251127 1_555
Er1 O6 2.275570 1_555
Er1 O2 2.425594 1_555
Er1 O1 2.425594 1_555
Er1 O7 2.568048 1_556
Er1 O8 2.568048 1_555
Er2 O0 2.210837 1_555
Er2 O7 2.251127 1_555
Er2 O8 2.251127 1_555
Er2 O5 2.275570 1_555
Er2 O10 2.425594 1_555
Er2 O9 2.425594 1_555
Er2 O4 2.568048 1_555
Er2 O3 2.568048 1_554
Er3 O5 2.210837 1_645
Er3 O9 2.251127 1_545
Er3 O10 2.251127 1_545
Er3 O0 2.275570 1_655
Er3 O8 2.425594 1_555
Er3 O7 2.425594 1_555
Er3 O2 2.568048 1_654
Er3 O1 2.568048 1_655
Al0 O11 1.895602 1_454
Al0 O0 1.895602 1_555
Al0 O3 1.900944 1_554
Al0 O7 1.900944 1_455
Al0 O2 1.918119 1_554
Al0 O9 1.918119 1_455
Al1 O11 1.895602 1_455
Al1 O0 1.895602 1_555
Al1 O4 1.900944 1_555
Al1 O8 1.900944 1_455
Al1 O1 1.918119 1_555
Al1 O10 1.918119 1_455
Al2 O6 1.895602 1_554
Al2 O5 1.895602 1_545
Al2 O9 1.900944 1_545
Al2 O2 1.900944 1_554
Al2 O7 1.918119 1_555
Al2 O3 1.918119 1_544
Al3 O6 1.895602 1_555
Al3 O5 1.895602 1_545
Al3 O1 1.900944 1_555
Al3 O10 1.900944 1_545
Al3 O8 1.918119 1_555
Al3 O4 1.918119 1_545
