# generated using pymatgen
data_NaLi3Ti2Fe2(PO4)6
_symmetry_space_group_name_H-M   'P 1'
_cell_length_a   8.50138300
_cell_length_b   8.95553215
_cell_length_c   21.01105135
_cell_angle_alpha   92.42598364
_cell_angle_beta   90.04068315
_cell_angle_gamma   118.32017171
_symmetry_Int_Tables_number   1
_chemical_formula_structural   NaLi3Ti2Fe2(PO4)6
_chemical_formula_sum   'Na3 Li9 Ti6 Fe6 P18 O72'
_cell_volume   1406.54555179
_cell_formula_units_Z   3
loop_
 _symmetry_equiv_pos_site_id
 _symmetry_equiv_pos_as_xyz
  1  'x, y, z'
loop_
 _atom_site_type_symbol
 _atom_site_label
 _atom_site_symmetry_multiplicity
 _atom_site_fract_x
 _atom_site_fract_y
 _atom_site_fract_z
 _atom_site_occupancy
  Na  Na0  1  0.34585700  0.68850400  0.66300000  1
  Na  Na1  1  0.33449600  0.66836000  0.16393700  1
  Na  Na2  1  0.67577100  0.35118100  0.33368100  1
  Li  Li0  1  0.12775600  0.62167000  0.78251600  1
  Li  Li1  1  0.58291000  0.53739700  0.69635000  1
  Li  Li2  1  0.76177200  0.76694400  0.91297900  1
  Li  Li3  1  0.46042700  0.29067000  0.44959600  1
  Li  Li4  1  0.91348100  0.20204700  0.36743300  1
  Li  Li5  1  0.08000000  0.41861700  0.57264200  1
  Li  Li6  1  0.81266300  0.96799000  0.10584700  1
  Li  Li7  1  0.23461200  0.88967500  0.02505900  1
  Li  Li8  1  0.41660100  0.08637100  0.24144200  1
  Ti  Ti0  1  0.18971900  0.38205400  0.95216100  1
  Ti  Ti1  1  0.47386500  0.95388300  0.88140500  1
  Ti  Ti2  1  0.52984300  0.05720800  0.61496400  1
  Ti  Ti3  1  0.86041100  0.72289300  0.28739900  1
  Ti  Ti4  1  0.13181500  0.26839600  0.71644100  1
  Ti  Ti5  1  0.14226700  0.28136500  0.21478100  1
  Fe  Fe0  1  0.81017400  0.61811900  0.54729400  1
  Fe  Fe1  1  0.86631800  0.73437800  0.78360700  1
  Fe  Fe2  1  0.20865000  0.41150500  0.44992100  1
  Fe  Fe3  1  0.47178600  0.94143800  0.38228600  1
  Fe  Fe4  1  0.53647800  0.07572500  0.11408800  1
  Fe  Fe5  1  0.80745700  0.61541500  0.04798900  1
  P  P0  1  0.90422000  0.09489100  0.84771700  1
  P  P1  1  0.28859700  0.99661900  0.74808100  1
  P  P2  1  0.47327200  0.24271000  0.98727700  1
  P  P3  1  0.86391900  0.43139600  0.67617700  1
  P  P4  1  0.05202600  0.67146400  0.91777500  1
  P  P5  1  0.23989600  0.76635800  0.51262100  1
  P  P6  1  0.42658200  0.57590000  0.82132500  1
  P  P7  1  0.62252900  0.66844200  0.41621300  1
  P  P8  1  0.80443000  0.90014000  0.65371600  1
  P  P9  1  0.19651000  0.10013900  0.34433500  1
  P  P10  1  0.38598000  0.34176700  0.58538600  1
  P  P11  1  0.57638500  0.43468100  0.18071300  1
  P  P12  1  0.75929600  0.24500100  0.48521400  1
  P  P13  1  0.95803000  0.33699600  0.08184100  1
  P  P14  1  0.13832000  0.57402400  0.32026600  1
  P  P15  1  0.52250400  0.76231800  0.01016900  1
  P  P16  1  0.71702000  0.00333400  0.24924700  1
  P  P17  1  0.09426600  0.90546300  0.15523400  1
  O  O0  1  0.38468400  0.72850000  0.82446600  1
  O  O1  1  0.57207600  0.84691000  0.94450900  1
  O  O2  1  0.23941400  0.83280500  0.92770800  1
  O  O3  1  0.98719000  0.19020300  0.91089800  1
  O  O4  1  0.70487400  0.05008400  0.84336400  1
  O  O5  1  0.00439100  0.21082300  0.79240900  1
  O  O6  1  0.40974600  0.97585500  0.69863600  1
  O  O7  1  0.37347900  0.02684200  0.81581700  1
  O  O8  1  0.52683500  0.14118100  0.93736900  1
  O  O9  1  0.71920800  0.24544300  0.66473500  1
  O  O10  1  0.03889900  0.44284100  0.70723700  1
  O  O11  1  0.06886100  0.51585800  0.93614800  1
  O  O12  1  0.26270400  0.15246200  0.73360500  1
  O  O13  1  0.30395800  0.24348900  0.96314500  1
  O  O14  1  0.71230100  0.39243500  0.48984600  1
  O  O15  1  0.62808300  0.42075600  0.99762800  1
  O  O16  1  0.92248000  0.51402200  0.61118000  1
  O  O17  1  0.79390200  0.52211400  0.72328900  1
  O  O18  1  0.98039500  0.64537600  0.84826800  1
  O  O19  1  0.56797800  0.50197300  0.59975700  1
  O  O20  1  0.32551100  0.85514300  0.57853200  1
  O  O21  1  0.92462600  0.70338400  0.96234100  1
  O  O22  1  0.04264600  0.71814700  0.50789000  1
  O  O23  1  0.32010700  0.45189600  0.87218800  1
  O  O24  1  0.34189600  0.88520900  0.46007100  1
  O  O25  1  0.62731300  0.62988600  0.82998800  1
  O  O26  1  0.74328000  0.64017700  0.36617500  1
  O  O27  1  0.36228900  0.49108800  0.75236100  1
  O  O28  1  0.10909500  0.82987100  0.74505500  1
  O  O29  1  0.70022200  0.69383300  0.48342600  1
  O  O30  1  0.87715300  0.82173600  0.60461600  1
  O  O31  1  0.74941200  0.79994100  0.71574100  1
  O  O32  1  0.05208200  0.91384600  0.33294000  1
  O  O33  1  0.92204800  0.93112100  0.84402600  1
  O  O34  1  0.37504200  0.11763400  0.37121900  1
  O  O35  1  0.40176200  0.18298500  0.60143900  1
  O  O36  1  0.60507600  0.82278300  0.39776200  1
  O  O37  1  0.63575700  0.90670200  0.63049100  1
  O  O38  1  0.06509700  0.06559100  0.16051800  1
  O  O39  1  0.95265600  0.08773300  0.66987700  1
  O  O40  1  0.24568300  0.18259000  0.27770400  1
  O  O41  1  0.12461800  0.18878800  0.39124900  1
  O  O42  1  0.31459800  0.31736800  0.51599200  1
  O  O43  1  0.90477700  0.16357500  0.25915800  1
  O  O44  1  0.65833800  0.51851100  0.24645200  1
  O  O45  1  0.24846400  0.36430600  0.62981200  1
  O  O46  1  0.37627400  0.39655000  0.17927500  1
  O  O47  1  0.65495400  0.11902200  0.53706900  1
  O  O48  1  0.66838900  0.55095800  0.12689600  1
  O  O49  1  0.95962500  0.29757200  0.49367400  1
  O  O50  1  0.07638500  0.30987800  0.03302300  1
  O  O51  1  0.69757200  0.16184500  0.41660200  1
  O  O52  1  0.44283100  0.49699800  0.40932000  1
  O  O53  1  0.04927600  0.36234700  0.14935200  1
  O  O54  1  0.19445300  0.48117900  0.26721200  1
  O  O55  1  0.08767700  0.46808400  0.38047900  1
  O  O56  1  0.38089700  0.57586700  0.00050900  1
  O  O57  1  0.25987400  0.60061200  0.51177800  1
  O  O58  1  0.69892200  0.77866000  0.03875800  1
  O  O59  1  0.73152600  0.84679700  0.26902300  1
  O  O60  1  0.94119800  0.49550700  0.07114100  1
  O  O61  1  0.96336600  0.56965600  0.29747000  1
  O  O62  1  0.28841100  0.75525100  0.32820000  1
  O  O63  1  0.44723100  0.84935200  0.05843300  1
  O  O64  1  0.64160000  0.96679400  0.17947500  1
  O  O65  1  0.58992500  0.04009300  0.29257600  1
  O  O66  1  0.98897500  0.78476600  0.20727900  1
  O  O67  1  0.29383300  0.94729800  0.16380500  1
  O  O68  1  0.02885400  0.82660600  0.08732900  1
  O  O69  1  0.77806800  0.16912300  0.08040800  1
  O  O70  1  0.41872100  0.13803800  0.04848300  1
  O  O71  1  0.58057900  0.26255000  0.17793500  1
loop_
_geom_bond_atom_site_label_1
_geom_bond_atom_site_label_2
_geom_bond_distance
_geom_bond_site_symmetry_2
Na0 O20 2.423938 1_555
Na0 O37 2.430029 1_555
Na0 O6 2.447054 1_555
Na0 O45 2.673627 1_555
Na0 O27 2.680570 1_555
Na0 O10 2.691339 1_555
Na1 O46 2.653655 1_555
Na1 O53 2.665857 1_555
Na1 O67 2.679482 1_555
Na1 O63 2.700565 1_555
Na1 O54 2.711830 1_555
Na1 O64 2.714839 1_555
Na2 O26 2.436058 1_555
Na2 O61 2.444320 1_555
Na2 O44 2.463626 1_555
Na2 O51 2.548076 1_555
Na2 O34 2.569422 1_555
Na2 O65 2.628002 1_555
Li0 O18 1.937286 1_455
Li0 O10 2.067179 1_555
Li0 O0 2.099117 1_555
Li0 O28 2.127429 1_555
Li1 O17 1.947974 1_555
Li1 O19 2.035345 1_555
Li1 O27 2.093136 1_555
Li1 O31 2.111449 1_555
Li2 O21 2.027839 1_555
Li2 O25 2.082925 1_555
Li2 O33 2.097532 1_555
Li2 O1 2.146994 1_555
Li3 O42 1.948272 1_555
Li3 O14 2.052188 1_555
Li3 O34 2.086903 1_555
Li3 O52 2.132424 1_555
Li4 O41 1.921547 1_655
Li4 O51 1.993296 1_555
Li4 O55 2.130979 1_655
Li4 O43 2.282300 1_555
Li5 O49 1.941157 1_455
Li5 O16 2.051218 1_455
Li5 O45 2.106780 1_555
Li5 O57 2.108247 1_555
Li6 O58 2.009242 1_555
Li6 O69 2.049540 1_565
Li6 O64 2.120862 1_555
Li6 O38 2.195618 1_665
Li7 O68 2.054026 1_555
Li7 O70 2.059699 1_565
Li7 O2 2.092023 1_554
Li7 O63 2.127985 1_555
Li8 O67 1.973242 1_545
Li8 O65 2.027831 1_555
Li8 O71 2.075385 1_555
Li8 O40 2.137355 1_555
Fe0 O22 1.944007 1_655
Fe0 O29 1.952154 1_555
Fe0 O30 1.981890 1_555
Fe0 O14 2.104915 1_555
Fe0 O16 2.128626 1_555
Fe0 O19 2.145868 1_555
Fe1 O33 1.989523 1_555
Fe1 O31 1.997082 1_555
Fe1 O28 2.008398 1_655
Fe1 O25 2.056661 1_555
Fe1 O18 2.060302 1_555
Fe1 O17 2.069616 1_555
Fe2 O57 1.964702 1_555
Fe2 O52 1.972039 1_555
Fe2 O55 1.999532 1_555
Fe2 O42 2.065651 1_555
Fe2 O49 2.097806 1_455
Fe2 O41 2.108778 1_555
Fe3 O24 1.920590 1_555
Fe3 O36 1.920963 1_555
Fe3 O62 1.967926 1_555
Fe3 O51 2.093606 1_565
Fe3 O34 2.117188 1_565
Fe3 O65 2.154973 1_565
Fe4 O70 1.951127 1_555
Fe4 O69 1.959826 1_555
Fe4 O71 1.988366 1_555
Fe4 O63 2.095626 1_545
Fe4 O67 2.126726 1_545
Fe4 O64 2.139321 1_545
Fe5 O15 1.950221 1_554
Fe5 O60 1.970876 1_555
Fe5 O48 1.978878 1_555
Fe5 O21 2.056517 1_554
Fe5 O68 2.071437 1_655
Fe5 O58 2.080838 1_555
O0 P6 1.566241 1_555
O0 Ti1 2.102961 1_555
O1 P15 1.562420 1_556
O1 Ti1 2.058567 1_555
O2 P4 1.568174 1_555
O2 Ti1 2.033817 1_555
O3 P0 1.523111 1_555
O3 Ti0 1.932135 1_655
O4 P0 1.546901 1_555
O4 Ti1 1.921764 1_545
O5 P0 1.555066 1_455
O5 Ti4 1.878637 1_555
O6 P1 1.530201 1_555
O6 Ti2 2.017209 1_565
O7 P1 1.549230 1_545
O7 Ti1 1.912575 1_545
O8 P2 1.564122 1_555
O8 Ti1 1.874716 1_545
O9 P3 1.538311 1_555
O9 Ti2 1.949482 1_555
O10 P3 1.580368 1_455
O10 Ti4 2.073209 1_555
O11 P4 1.531712 1_555
O11 Ti0 1.951039 1_555
O12 P1 1.554399 1_545
O12 Ti4 1.890365 1_555
O13 P2 1.528990 1_555
O13 Ti0 1.924513 1_555
O14 P12 1.549868 1_555
O15 P2 1.516911 1_555
O16 P3 1.548353 1_555
O17 P3 1.544598 1_555
O18 P4 1.546963 1_655
O19 P10 1.549200 1_555
O20 P5 1.560790 1_555
O20 Ti2 1.943315 1_565
O21 P4 1.550519 1_655
O22 P5 1.522325 1_555
O23 P6 1.530619 1_555
O23 Ti0 1.969061 1_555
O24 P5 1.526131 1_555
O25 P6 1.545413 1_555
O26 P7 1.564853 1_555
O26 Ti3 1.919935 1_555
O27 P6 1.577047 1_555
O27 Ti4 2.132829 1_555
O28 P1 1.546753 1_555
O29 P7 1.520298 1_555
O30 P8 1.513600 1_555
O31 P8 1.556915 1_555
O32 P9 1.539642 1_565
O32 Ti3 1.926281 1_455
O33 P0 1.543157 1_565
O34 P9 1.553353 1_555
O35 P10 1.541214 1_555
O35 Ti2 1.930160 1_555
O36 P7 1.524029 1_555
O37 P8 1.542462 1_555
O37 Ti2 1.980457 1_565
O38 P17 1.566596 1_545
O38 Ti5 2.018401 1_555
O39 P8 1.571017 1_545
O39 Ti4 1.849462 1_655
O40 P9 1.573346 1_555
O40 Ti5 2.034349 1_555
O41 P9 1.539618 1_555
O42 P10 1.545268 1_555
O43 P16 1.565713 1_555
O43 Ti5 2.030686 1_655
O44 P11 1.539948 1_555
O44 Ti3 1.980600 1_555
O45 P10 1.577428 1_555
O45 Ti4 2.088285 1_555
O46 P11 1.568291 1_555
O46 Ti5 1.923140 1_555
O47 P12 1.550060 1_555
O47 Ti2 1.907065 1_555
O48 P11 1.517527 1_555
O49 P12 1.544487 1_555
O50 P13 1.528299 1_455
O50 Ti0 1.933162 1_554
O51 P12 1.563794 1_555
O52 P7 1.570846 1_555
O53 P13 1.571444 1_455
O53 Ti5 1.915116 1_555
O54 P14 1.568580 1_555
O54 Ti5 1.921378 1_555
O55 P14 1.549482 1_555
O56 P15 1.530464 1_555
O56 Ti0 1.964167 1_554
O57 P5 1.571435 1_555
O58 P15 1.553915 1_555
O59 P16 1.538302 1_565
O59 Ti3 1.941684 1_555
O60 P13 1.518501 1_555
O61 P14 1.544459 1_655
O61 Ti3 1.964197 1_555
O62 P14 1.517211 1_555
O63 P15 1.566086 1_555
O64 P16 1.557651 1_565
O65 P16 1.555032 1_555
O66 P17 1.532592 1_655
O66 Ti3 1.960215 1_555
O67 P17 1.562689 1_555
O68 P17 1.544203 1_555
O69 P13 1.554208 1_555
O70 P2 1.561415 1_554
O71 P11 1.557405 1_555
