# generated using pymatgen
data_Na2MnPCO7
_symmetry_space_group_name_H-M   'P 1'
_cell_length_a   5.24550200
_cell_length_b   8.98307965
_cell_length_c   13.36057487
_cell_angle_alpha   89.83229178
_cell_angle_beta   89.79391516
_cell_angle_gamma   88.41208691
_symmetry_Int_Tables_number   1
_chemical_formula_structural   Na2MnPCO7
_chemical_formula_sum   'Na8 Mn4 P4 C4 O28'
_cell_volume   629.31212244
_cell_formula_units_Z   4
loop_
 _symmetry_equiv_pos_site_id
 _symmetry_equiv_pos_as_xyz
  1  'x, y, z'
loop_
 _atom_site_type_symbol
 _atom_site_label
 _atom_site_symmetry_multiplicity
 _atom_site_fract_x
 _atom_site_fract_y
 _atom_site_fract_z
 _atom_site_occupancy
  Na  Na0  1  0.75895700  0.74989600  0.23056200  1
  Na  Na1  1  0.75588600  0.76164100  0.50508600  1
  Na  Na2  1  0.76011000  0.75053600  0.74760900  1
  Na  Na3  1  0.24174400  0.23995700  0.25440300  1
  Na  Na4  1  0.23989000  0.23873100  0.49782400  1
  Na  Na5  1  0.24855700  0.24819600  0.74962500  1
  Na  Na6  1  0.24897000  0.25181100  0.99854300  1
  Na  Na7  1  0.77173500  0.06500300  0.88806200  1
  Mn  Mn0  1  0.21603500  0.64848200  0.37450300  1
  Mn  Mn1  1  0.22327000  0.64701900  0.87914500  1
  Mn  Mn2  1  0.78428000  0.35219600  0.12579200  1
  Mn  Mn3  1  0.77244100  0.35594000  0.62557500  1
  P  P0  1  0.28817100  0.57667000  0.12149600  1
  P  P1  1  0.29234600  0.57872200  0.62966900  1
  P  P2  1  0.71375700  0.42519500  0.37743600  1
  P  P3  1  0.70063500  0.42048400  0.87220900  1
  C  C0  1  0.27063200  0.91987000  0.37418700  1
  C  C1  1  0.28017300  0.93439000  0.87137300  1
  C  C2  1  0.72376800  0.07402700  0.62478200  1
  C  C3  1  0.73122900  0.08080400  0.12668000  1
  O  O0  1  0.71214400  0.94463400  0.12577400  1
  O  O1  1  0.73703500  0.93424800  0.62830900  1
  O  O2  1  0.05138800  0.85077500  0.37465000  1
  O  O3  1  0.07195100  0.85533200  0.87460800  1
  O  O4  1  0.49449700  0.86511600  0.86583500  1
  O  O5  1  0.46644100  0.82533100  0.37307100  1
  O  O6  1  0.23487800  0.66515900  0.02471600  1
  O  O7  1  0.21354000  0.67204600  0.21267000  1
  O  O8  1  0.21745700  0.67374800  0.53840800  1
  O  O9  1  0.22682200  0.66620100  0.72702800  1
  O  O10  1  0.57953500  0.53407200  0.12909800  1
  O  O11  1  0.59308700  0.55000100  0.62779800  1
  O  O12  1  0.85024000  0.57715600  0.37575700  1
  O  O13  1  0.84009200  0.56675400  0.86840200  1
  O  O14  1  0.14151500  0.42707700  0.12225600  1
  O  O15  1  0.16325000  0.42562900  0.62822700  1
  O  O16  1  0.41625400  0.45898900  0.37568300  1
  O  O17  1  0.40137500  0.45118700  0.87662900  1
  O  O18  1  0.78984000  0.32837800  0.28754900  1
  O  O19  1  0.77891200  0.33714300  0.47420400  1
  O  O20  1  0.75357400  0.32095200  0.77771500  1
  O  O21  1  0.77372800  0.31828300  0.96171100  1
  O  O22  1  0.53659500  0.17881300  0.12698000  1
  O  O23  1  0.51613400  0.15519000  0.62226300  1
  O  O24  1  0.95223900  0.15014400  0.12434700  1
  O  O25  1  0.93560900  0.15317000  0.62540000  1
  O  O26  1  0.28475500  0.05837100  0.37496100  1
  O  O27  1  0.25453800  0.07808900  0.87534900  1
loop_
_geom_bond_atom_site_label_1
_geom_bond_atom_site_label_2
_geom_bond_distance
_geom_bond_site_symmetry_2
Na0 O0 2.246090 1_555
Na0 O7 2.477213 1_655
Na0 O12 2.519566 1_555
Na0 O5 2.523429 1_555
Na0 O10 2.570598 1_555
Na0 O2 2.643615 1_655
Na1 O1 2.264870 1_555
Na1 O5 2.389292 1_555
Na1 O12 2.437671 1_555
Na1 O2 2.474263 1_655
Na1 O8 2.565817 1_655
Na1 O11 2.663337 1_555
Na2 O1 2.292079 1_555
Na2 O4 2.325913 1_555
Na2 O13 2.336028 1_555
Na2 O9 2.556662 1_655
Na2 O3 2.560402 1_655
Na2 O11 2.586412 1_555
Na2 O9 2.932405 1_555
Na3 O26 2.296299 1_555
Na3 O22 2.351926 1_555
Na3 O24 2.464039 1_455
Na3 O14 2.481817 1_555
Na3 O18 2.517195 1_455
Na3 O16 2.732046 1_555
Na4 O26 2.316601 1_555
Na4 O23 2.318796 1_555
Na4 O15 2.447556 1_555
Na4 O25 2.466645 1_455
Na4 O19 2.571677 1_455
Na4 O16 2.739594 1_555
Na5 O27 2.267215 1_555
Na5 O15 2.306948 1_555
Na5 O23 2.343021 1_555
Na5 O25 2.506720 1_455
Na5 O17 2.637398 1_555
Na5 O20 2.685117 1_455
Na5 O20 2.773105 1_555
Na6 O27 2.271010 1_555
Na6 O14 2.342623 1_556
Na6 O22 2.368149 1_556
Na6 O24 2.476469 1_456
Na6 O17 2.559854 1_555
Na6 O21 2.595725 1_455
Na6 O21 2.873196 1_555
Na7 O4 2.361815 1_545
Na7 O3 2.428035 1_645
Na7 O21 2.481842 1_555
Na7 O27 2.543568 1_655
Na7 O27 2.718149 1_555
Na7 O20 2.727275 1_555
Mn0 O16 1.975283 1_555
Mn0 O2 1.990276 1_555
Mn0 O12 2.039697 1_455
Mn0 O5 2.089200 1_555
Mn0 O7 2.171953 1_555
Mn0 O8 2.202317 1_555
Mn1 O6 1.953510 1_556
Mn1 O17 1.969183 1_555
Mn1 O3 2.013157 1_555
Mn1 O9 2.039222 1_555
Mn1 O13 2.159496 1_455
Mn1 O4 2.458613 1_555
Mn2 O10 1.930690 1_555
Mn2 O24 1.995607 1_555
Mn2 O14 2.008770 1_655
Mn2 O22 2.055714 1_555
Mn2 O18 2.171329 1_555
Mn2 O21 2.215266 1_554
Mn3 O11 1.958104 1_555
Mn3 O25 1.990988 1_555
Mn3 O19 2.030017 1_555
Mn3 O20 2.058372 1_555
Mn3 O15 2.160415 1_655
Mn3 O23 2.279666 1_555
C0 O26 1.248492 1_565
C0 O5 1.314549 1_555
C0 O2 1.321885 1_555
C1 O4 1.271822 1_555
C1 O27 1.295358 1_565
C1 O3 1.319721 1_555
C2 O1 1.256401 1_545
C2 O23 1.294240 1_555
C2 O25 1.335737 1_555
C3 O0 1.230176 1_545
C3 O22 1.329541 1_555
C3 O24 1.331391 1_555
O6 P0 1.538256 1_555
O7 P0 1.534685 1_555
O8 P1 1.532466 1_555
O9 P1 1.554179 1_555
O10 P0 1.568782 1_555
O11 P1 1.591544 1_555
O12 P2 1.558959 1_555
O13 P3 1.522104 1_555
O14 P0 1.566803 1_555
O15 P1 1.549871 1_555
O16 P2 1.581770 1_555
O17 P3 1.587188 1_555
O18 P2 1.530154 1_555
O19 P2 1.547964 1_555
O20 P3 1.568678 1_555
O21 P3 1.548279 1_555
