# generated using pymatgen
data_Na2CoSiCO7
_symmetry_space_group_name_H-M   'P 1'
_cell_length_a   6.33386200
_cell_length_b   5.15538400
_cell_length_c   9.01976016
_cell_angle_alpha   87.89576950
_cell_angle_beta   90.00000000
_cell_angle_gamma   90.00000000
_symmetry_Int_Tables_number   1
_chemical_formula_structural   Na2CoSiCO7
_chemical_formula_sum   'Na4 Co2 Si2 C2 O14'
_cell_volume   294.32805176
_cell_formula_units_Z   2
loop_
 _symmetry_equiv_pos_site_id
 _symmetry_equiv_pos_as_xyz
  1  'x, y, z'
loop_
 _atom_site_type_symbol
 _atom_site_label
 _atom_site_symmetry_multiplicity
 _atom_site_fract_x
 _atom_site_fract_y
 _atom_site_fract_z
 _atom_site_occupancy
  Na  Na0  1  0.98637200  0.76259500  0.75729500  1
  Na  Na1  1  0.51362800  0.76259500  0.75729500  1
  Na  Na2  1  0.48637200  0.23740500  0.24270500  1
  Na  Na3  1  0.01362800  0.23740500  0.24270500  1
  Co  Co0  1  0.25000000  0.20962300  0.65769800  1
  Co  Co1  1  0.75000000  0.79037700  0.34230200  1
  Si  Si0  1  0.75000000  0.28834400  0.56767400  1
  Si  Si1  1  0.25000000  0.71165600  0.43232600  1
  C  C0  1  0.25000000  0.27440500  0.92000100  1
  C  C1  1  0.75000000  0.72559500  0.07999900  1
  O  O0  1  0.75000000  0.69567800  0.94382300  1
  O  O1  1  0.25000000  0.04965800  0.85780700  1
  O  O2  1  0.25000000  0.46506600  0.81875700  1
  O  O3  1  0.95444500  0.21476600  0.67468300  1
  O  O4  1  0.54555500  0.21476600  0.67468300  1
  O  O5  1  0.25000000  0.87289500  0.58497000  1
  O  O6  1  0.75000000  0.60431500  0.53007500  1
  O  O7  1  0.25000000  0.39568500  0.46992500  1
  O  O8  1  0.75000000  0.12710500  0.41503000  1
  O  O9  1  0.45444500  0.78523400  0.32531700  1
  O  O10  1  0.04555500  0.78523400  0.32531700  1
  O  O11  1  0.75000000  0.53493400  0.18124300  1
  O  O12  1  0.75000000  0.95034200  0.14219300  1
  O  O13  1  0.25000000  0.30432200  0.05617700  1
loop_
_geom_bond_atom_site_label_1
_geom_bond_atom_site_label_2
_geom_bond_distance
_geom_bond_site_symmetry_2
Na0 O0 2.269017 1_555
Na0 O2 2.320741 1_655
Na0 O5 2.337213 1_655
Na0 O1 2.428740 1_665
Na0 O3 2.429541 1_565
Na0 O6 2.688947 1_555
Na1 O0 2.269017 1_555
Na1 O2 2.320741 1_555
Na1 O5 2.337213 1_555
Na1 O1 2.428740 1_565
Na1 O4 2.429541 1_565
Na1 O6 2.688947 1_555
Na2 O13 2.269017 1_555
Na2 O11 2.320741 1_555
Na2 O8 2.337213 1_555
Na2 O12 2.428740 1_545
Na2 O9 2.429541 1_545
Na2 O7 2.688947 1_555
Na3 O13 2.269017 1_555
Na3 O11 2.320741 1_455
Na3 O8 2.337213 1_455
Na3 O12 2.428740 1_445
Na3 O10 2.429541 1_545
Na3 O7 2.688947 1_555
Co0 O5 1.878167 1_545
Co0 O3 1.878529 1_455
Co0 O4 1.878529 1_555
Co0 O7 1.915545 1_555
Co0 O1 1.956676 1_555
Co0 O2 1.996273 1_555
Co1 O8 1.878167 1_565
Co1 O10 1.878529 1_655
Co1 O9 1.878529 1_555
Co1 O6 1.915545 1_555
Co1 O12 1.956676 1_555
Co1 O11 1.996273 1_555
C0 O13 1.243527 1_556
C0 O1 1.305722 1_555
C0 O2 1.316877 1_555
C1 O0 1.243527 1_554
C1 O12 1.305722 1_555
C1 O11 1.316877 1_555
O3 Si0 1.650890 1_555
O4 Si0 1.650890 1_555
O5 Si1 1.634207 1_555
O6 Si0 1.651644 1_555
O7 Si1 1.651644 1_555
O8 Si0 1.634207 1_555
O9 Si1 1.650890 1_555
O10 Si1 1.650890 1_555
