# generated using pymatgen
data_Li7Ti3(SiO6)2
_symmetry_space_group_name_H-M   'P 1'
_cell_length_a   4.91482282
_cell_length_b   4.91482282
_cell_length_c   9.93841723
_cell_angle_alpha   85.27159772
_cell_angle_beta   85.27159772
_cell_angle_gamma   120.00221872
_symmetry_Int_Tables_number   1
_chemical_formula_structural   Li7Ti3(SiO6)2
_chemical_formula_sum   'Li7 Ti3 Si2 O12'
_cell_volume   205.05464266
_cell_formula_units_Z   1
loop_
 _symmetry_equiv_pos_site_id
 _symmetry_equiv_pos_as_xyz
  1  'x, y, z'
loop_
 _atom_site_type_symbol
 _atom_site_label
 _atom_site_symmetry_multiplicity
 _atom_site_fract_x
 _atom_site_fract_y
 _atom_site_fract_z
 _atom_site_occupancy
  Li  Li0  1  0.75297600  0.75297600  0.75824600  1
  Li  Li1  1  0.00000000  0.00000000  0.00000000  1
  Li  Li2  1  0.91942400  0.59174000  0.24183800  1
  Li  Li3  1  0.40826000  0.08057600  0.75816200  1
  Li  Li4  1  0.24702400  0.24702400  0.24175400  1
  Li  Li5  1  0.59174000  0.91942400  0.24183800  1
  Li  Li6  1  0.08057600  0.40826000  0.75816200  1
  Ti  Ti0  1  0.50000000  0.50000000  0.50000000  1
  Ti  Ti1  1  0.83373600  0.16626400  0.50000000  1
  Ti  Ti2  1  0.16626400  0.83373600  0.50000000  1
  Si  Si0  1  0.66667800  0.33332200  0.00000000  1
  Si  Si1  1  0.33332200  0.66667800  0.00000000  1
  O  O0  1  0.87472600  0.87472600  0.37368000  1
  O  O1  1  0.03393500  0.66060500  0.89816000  1
  O  O2  1  0.79225200  0.45831500  0.62327600  1
  O  O3  1  0.59268200  0.59268200  0.10183200  1
  O  O4  1  0.54168500  0.20774800  0.37672400  1
  O  O5  1  0.96606500  0.33939500  0.10184000  1
  O  O6  1  0.40731800  0.40731800  0.89816800  1
  O  O7  1  0.12527400  0.12527400  0.62632000  1
  O  O8  1  0.66060500  0.03393500  0.89816000  1
  O  O9  1  0.45831500  0.79225200  0.62327600  1
  O  O10  1  0.33939500  0.96606500  0.10184000  1
  O  O11  1  0.20774800  0.54168500  0.37672400  1
loop_
_geom_bond_atom_site_label_1
_geom_bond_atom_site_label_2
_geom_bond_distance
_geom_bond_site_symmetry_2
Li0 O6 2.010151 1_555
Li0 O7 2.067823 1_665
Li0 O2 2.119207 1_555
Li0 O9 2.119207 1_555
Li0 O8 2.210400 1_565
Li0 O1 2.210400 1_655
Li1 O10 2.088876 1_545
Li1 O1 2.088876 1_544
Li1 O5 2.088876 1_455
Li1 O8 2.088876 1_454
Li1 O3 2.088905 1_445
Li1 O6 2.088905 1_554
Li2 O5 2.010679 1_555
Li2 O0 2.063517 1_555
Li2 O11 2.114975 1_655
Li2 O4 2.115207 1_555
Li2 O10 2.210848 1_655
Li2 O3 2.211273 1_555
Li3 O8 2.010679 1_555
Li3 O7 2.063517 1_555
Li3 O9 2.114975 1_545
Li3 O2 2.115207 1_555
Li3 O1 2.210848 1_545
Li3 O6 2.211273 1_555
Li4 O3 2.010151 1_555
Li4 O0 2.067823 1_445
Li4 O11 2.119207 1_555
Li4 O4 2.119207 1_555
Li4 O5 2.210400 1_455
Li4 O10 2.210400 1_545
Li5 O10 2.010679 1_555
Li5 O0 2.063517 1_555
Li5 O4 2.114975 1_565
Li5 O11 2.115207 1_555
Li5 O5 2.210848 1_565
Li5 O3 2.211273 1_555
Li6 O1 2.010679 1_555
Li6 O7 2.063517 1_555
Li6 O2 2.114975 1_455
Li6 O9 2.115207 1_555
Li6 O8 2.210848 1_455
Li6 O6 2.211273 1_555
O0 Ti0 2.050702 1_555
O0 Ti1 2.052632 1_565
O0 Ti2 2.052632 1_655
O1 Si0 1.842993 1_456
O1 Si1 1.843096 1_556
O2 Ti1 2.035765 1_555
O2 Ti2 2.036809 1_655
O2 Ti0 2.036959 1_555
O3 Si1 1.843097 1_555
O3 Si0 1.843097 1_555
O4 Ti1 2.035765 1_555
O4 Ti2 2.036809 1_545
O4 Ti0 2.036959 1_555
O5 Si1 1.842993 1_655
O5 Si0 1.843096 1_555
O6 Si1 1.843097 1_556
O6 Si0 1.843097 1_556
O7 Ti0 2.050702 1_555
O7 Ti1 2.052632 1_455
O7 Ti2 2.052632 1_545
O8 Si1 1.842993 1_546
O8 Si0 1.843096 1_556
O9 Ti2 2.035765 1_555
O9 Ti1 2.036809 1_565
O9 Ti0 2.036959 1_555
O10 Si0 1.842993 1_565
O10 Si1 1.843096 1_555
O11 Ti2 2.035765 1_555
O11 Ti1 2.036809 1_455
O11 Ti0 2.036959 1_555
