# generated using pymatgen
data_LiP3W2O13
_symmetry_space_group_name_H-M   'P 1'
_cell_length_a   8.93413015
_cell_length_b   8.93413015
_cell_length_c   8.90718895
_cell_angle_alpha   69.17553414
_cell_angle_beta   69.17553414
_cell_angle_gamma   105.28857752
_symmetry_Int_Tables_number   1
_chemical_formula_structural   LiP3W2O13
_chemical_formula_sum   'Li2 P6 W4 O26'
_cell_volume   555.75659089
_cell_formula_units_Z   2
loop_
 _symmetry_equiv_pos_site_id
 _symmetry_equiv_pos_as_xyz
  1  'x, y, z'
loop_
 _atom_site_type_symbol
 _atom_site_label
 _atom_site_symmetry_multiplicity
 _atom_site_fract_x
 _atom_site_fract_y
 _atom_site_fract_z
 _atom_site_occupancy
  Li  Li0  1  0.00000000  0.50000000  0.50000000  1
  Li  Li1  1  0.50000000  0.00000000  0.00000000  1
  P  P0  1  0.48828200  0.51171800  0.25000000  1
  P  P1  1  0.84838800  0.26005500  0.06032500  1
  P  P2  1  0.26005500  0.84838800  0.56032500  1
  P  P3  1  0.73994500  0.15161200  0.43967500  1
  P  P4  1  0.15161200  0.73994500  0.93967500  1
  P  P5  1  0.51171800  0.48828200  0.75000000  1
  W  W0  1  0.17206000  0.33898200  0.17092100  1
  W  W1  1  0.66101800  0.82794000  0.32907900  1
  W  W2  1  0.33898200  0.17206000  0.67092100  1
  W  W3  1  0.82794000  0.66101800  0.82907900  1
  O  O0  1  0.15157900  0.59993900  0.09689000  1
  O  O1  1  0.60322800  0.50137600  0.08229000  1
  O  O2  1  0.03697600  0.29926200  0.03290200  1
  O  O3  1  0.55568300  0.70954600  0.20655900  1
  O  O4  1  0.19772700  0.14362400  0.23223900  1
  O  O5  1  0.74564600  0.07039300  0.09419900  1
  O  O6  1  0.40006100  0.84842100  0.40311000  1
  O  O7  1  0.85637600  0.80227300  0.26776100  1
  O  O8  1  0.07039300  0.74564600  0.59419900  1
  O  O9  1  0.29045400  0.44431700  0.29344100  1
  O  O10  1  0.73889400  0.26110600  0.25000000  1
  O  O11  1  0.50137600  0.60322800  0.58229000  1
  O  O12  1  0.29926200  0.03697600  0.53290200  1
  O  O13  1  0.70073800  0.96302400  0.46709800  1
  O  O14  1  0.49862400  0.39677200  0.41771000  1
  O  O15  1  0.26110600  0.73889400  0.75000000  1
  O  O16  1  0.70954600  0.55568300  0.70655900  1
  O  O17  1  0.92960700  0.25435400  0.40580100  1
  O  O18  1  0.14362400  0.19772700  0.73223900  1
  O  O19  1  0.59993900  0.15157900  0.59689000  1
  O  O20  1  0.25435400  0.92960700  0.90580100  1
  O  O21  1  0.80227300  0.85637600  0.76776100  1
  O  O22  1  0.44431700  0.29045400  0.79344100  1
  O  O23  1  0.96302400  0.70073800  0.96709800  1
  O  O24  1  0.39677200  0.49862400  0.91771000  1
  O  O25  1  0.84842100  0.40006100  0.90311000  1
loop_
_geom_bond_atom_site_label_1
_geom_bond_atom_site_label_2
_geom_bond_distance
_geom_bond_site_symmetry_2
Li0 O8 2.621548 1_555
Li0 O17 2.621548 1_455
Li1 O5 2.621548 1_555
Li1 O20 2.621548 1_544
O0 P4 1.509851 1_554
O0 W0 2.263078 1_555
O1 P0 1.533653 1_555
O1 W3 2.033443 1_554
O2 P1 1.535076 1_455
O2 W0 2.057425 1_555
O3 P0 1.556575 1_555
O3 W1 2.054609 1_555
O4 W0 1.737666 1_555
O5 P1 1.556965 1_555
O5 W1 2.104790 1_545
O6 P2 1.509851 1_555
O6 W1 2.263078 1_555
O7 W1 1.737666 1_555
O8 P2 1.556965 1_555
O8 W3 2.104790 1_455
O9 P0 1.556575 1_555
O9 W0 2.054609 1_555
O10 P1 1.628612 1_555
O10 P3 1.628612 1_555
O11 P5 1.533653 1_555
O11 W1 2.033443 1_555
O12 P2 1.535076 1_545
O12 W2 2.057425 1_555
O13 P3 1.535076 1_565
O13 W1 2.057425 1_555
O14 P0 1.533653 1_555
O14 W2 2.033443 1_555
O15 P4 1.628612 1_555
O15 P2 1.628612 1_555
O16 P5 1.556575 1_555
O16 W3 2.054609 1_555
O17 P3 1.556965 1_555
O17 W0 2.104790 1_655
O18 W2 1.737666 1_555
O19 P3 1.509851 1_555
O19 W2 2.263078 1_555
O20 P4 1.556965 1_555
O20 W2 2.104790 1_565
O21 W3 1.737666 1_555
O22 P5 1.556575 1_555
O22 W2 2.054609 1_555
O23 P4 1.535076 1_655
O23 W3 2.057425 1_555
O24 P5 1.533653 1_555
O24 W0 2.033443 1_556
O25 P1 1.509851 1_556
O25 W3 2.263078 1_555
