# generated using pymatgen
data_LiCr(PO3)3
_symmetry_space_group_name_H-M   'P 1'
_cell_length_a   6.57811820
_cell_length_b   7.35343155
_cell_length_c   6.93163157
_cell_angle_alpha   98.39601659
_cell_angle_beta   93.17317835
_cell_angle_gamma   88.17388218
_symmetry_Int_Tables_number   1
_chemical_formula_structural   LiCr(PO3)3
_chemical_formula_sum   'Li2 Cr2 P6 O18'
_cell_volume   331.09697193
_cell_formula_units_Z   2
loop_
 _symmetry_equiv_pos_site_id
 _symmetry_equiv_pos_as_xyz
  1  'x, y, z'
loop_
 _atom_site_type_symbol
 _atom_site_label
 _atom_site_symmetry_multiplicity
 _atom_site_fract_x
 _atom_site_fract_y
 _atom_site_fract_z
 _atom_site_occupancy
  Li  Li0  1  0.14111900  0.17237700  0.44761300  1
  Li  Li1  1  0.85887800  0.82760700  0.55238900  1
  Cr  Cr0  1  0.16394500  0.14125200  0.92122200  1
  Cr  Cr1  1  0.83602100  0.85878500  0.07866600  1
  P  P0  1  0.14372800  0.54755200  0.77203600  1
  P  P1  1  0.32758000  0.77385800  0.11609900  1
  P  P2  1  0.35616300  0.79609300  0.55471200  1
  P  P3  1  0.64384000  0.20389600  0.44530200  1
  P  P4  1  0.67240900  0.22615700  0.88391300  1
  P  P5  1  0.85628300  0.45245800  0.22798200  1
  O  O0  1  0.04572600  0.33529800  0.23710300  1
  O  O1  1  0.12955200  0.33986400  0.72985200  1
  O  O2  1  0.15659900  0.91919600  0.09432700  1
  O  O3  1  0.18171000  0.93098800  0.60342200  1
  O  O4  1  0.25370700  0.58438000  0.98951700  1
  O  O5  1  0.31310600  0.60399000  0.63589700  1
  O  O6  1  0.33033200  0.71219900  0.32390800  1
  O  O7  1  0.42965800  0.15481200  0.39118200  1
  O  O8  1  0.46952700  0.18012600  0.94423700  1
  O  O9  1  0.53047600  0.81985500  0.05577100  1
  O  O10  1  0.57034200  0.84517700  0.60886000  1
  O  O11  1  0.66968200  0.28780500  0.67610400  1
  O  O12  1  0.68690000  0.39600000  0.36411400  1
  O  O13  1  0.74630400  0.41560800  0.01049200  1
  O  O14  1  0.81828800  0.06899300  0.39659100  1
  O  O15  1  0.84340700  0.08082200  0.90564500  1
  O  O16  1  0.87044600  0.66015100  0.27011900  1
  O  O17  1  0.95427100  0.66470100  0.76292500  1
loop_
_geom_bond_atom_site_label_1
_geom_bond_atom_site_label_2
_geom_bond_distance
_geom_bond_site_symmetry_2
Li0 O7 1.955524 1_555
Li0 O0 2.078331 1_555
Li0 O1 2.157989 1_555
Li0 O3 2.210471 1_545
Li0 O14 2.270246 1_455
Li1 O10 1.955572 1_555
Li1 O17 2.078396 1_555
Li1 O16 2.158068 1_555
Li1 O14 2.210405 1_565
Li1 O3 2.270249 1_655
Cr0 O8 2.033639 1_555
Cr0 O1 2.110753 1_555
Cr0 O15 2.162302 1_455
Cr0 O2 2.166099 1_546
Cr0 O3 2.505844 1_545
Cr0 O0 2.576903 1_556
Cr1 O9 2.033462 1_555
Cr1 O16 2.111306 1_555
Cr1 O2 2.162507 1_655
Cr1 O15 2.165616 1_564
Cr1 O14 2.506314 1_565
Cr1 O17 2.576325 1_554
O0 P5 1.495977 1_455
O1 P0 1.517315 1_555
O2 P1 1.543273 1_555
O3 P2 1.512419 1_555
O4 P1 1.608188 1_556
O4 P0 1.625363 1_555
O5 P0 1.601373 1_555
O5 P2 1.633303 1_555
O6 P1 1.571029 1_555
O6 P2 1.630131 1_555
O7 P3 1.480000 1_555
O8 P4 1.484058 1_555
O9 P1 1.484079 1_555
O10 P2 1.480013 1_555
O11 P4 1.571003 1_555
O11 P3 1.630149 1_555
O12 P5 1.601419 1_555
O12 P3 1.633324 1_555
O13 P4 1.608065 1_554
O13 P5 1.625425 1_555
O14 P3 1.512431 1_555
O15 P4 1.543292 1_555
O16 P5 1.517330 1_555
O17 P0 1.496002 1_655
