# generated using pymatgen
data_LiVF3
_symmetry_space_group_name_H-M   'P 1'
_cell_length_a   5.67726613
_cell_length_b   5.67726613
_cell_length_c   5.67726610
_cell_angle_alpha   56.27712628
_cell_angle_beta   56.27712628
_cell_angle_gamma   56.27712873
_symmetry_Int_Tables_number   1
_chemical_formula_structural   LiVF3
_chemical_formula_sum   'Li2 V2 F6'
_cell_volume   118.24506596
_cell_formula_units_Z   2
loop_
 _symmetry_equiv_pos_site_id
 _symmetry_equiv_pos_as_xyz
  1  'x, y, z'
loop_
 _atom_site_type_symbol
 _atom_site_label
 _atom_site_symmetry_multiplicity
 _atom_site_fract_x
 _atom_site_fract_y
 _atom_site_fract_z
 _atom_site_occupancy
  Li  Li0  1  0.13858400  0.13858400  0.13858400  1
  Li  Li1  1  0.86141600  0.86141600  0.86141600  1
  V  V0  1  0.34410700  0.34410700  0.34410700  1
  V  V1  1  0.65589300  0.65589300  0.65589300  1
  F  F0  1  0.43772000  0.75312100  0.05788000  1
  F  F1  1  0.05788000  0.43772000  0.75312100  1
  F  F2  1  0.24687900  0.94212000  0.56228000  1
  F  F3  1  0.75312100  0.05788000  0.43772000  1
  F  F4  1  0.94212000  0.56228000  0.24687900  1
  F  F5  1  0.56228000  0.24687900  0.94212000  1
loop_
_geom_bond_atom_site_label_1
_geom_bond_atom_site_label_2
_geom_bond_distance
_geom_bond_site_symmetry_2
F0 Li0 2.001450 1_565
F0 V0 2.129956 1_555
F0 V1 2.132638 1_554
F0 Li1 2.304305 1_554
F1 Li0 2.001450 1_556
F1 V0 2.129956 1_555
F1 V1 2.132638 1_455
F1 Li1 2.304306 1_455
F2 Li1 2.001450 1_455
F2 V1 2.129956 1_555
F2 V0 2.132638 1_565
F2 Li0 2.304306 1_565
F3 Li0 2.001450 1_655
F3 V0 2.129956 1_555
F3 V1 2.132638 1_545
F3 Li1 2.304306 1_545
F4 Li1 2.001450 1_554
F4 V1 2.129956 1_555
F4 V0 2.132638 1_655
F4 Li0 2.304306 1_655
F5 Li1 2.001450 1_545
F5 V1 2.129956 1_555
F5 V0 2.132638 1_556
F5 Li0 2.304305 1_556
