# generated using pymatgen
data_VOF
_symmetry_space_group_name_H-M   'P 1'
_cell_length_a   4.70863763
_cell_length_b   9.47682183
_cell_length_c   6.22932600
_cell_angle_alpha   89.99991184
_cell_angle_beta   89.99994832
_cell_angle_gamma   90.60701443
_symmetry_Int_Tables_number   1
_chemical_formula_structural   VOF
_chemical_formula_sum   'V8 O8 F8'
_cell_volume   277.95511509
_cell_formula_units_Z   8
loop_
 _symmetry_equiv_pos_site_id
 _symmetry_equiv_pos_as_xyz
  1  'x, y, z'
loop_
 _atom_site_type_symbol
 _atom_site_label
 _atom_site_symmetry_multiplicity
 _atom_site_fract_x
 _atom_site_fract_y
 _atom_site_fract_z
 _atom_site_occupancy
  V  V0  1  0.99999900  0.49999900  0.00000100  1
  V  V1  1  0.99999900  0.00000200  0.00000000  1
  V  V2  1  0.99999700  0.00000000  0.50000000  1
  V  V3  1  0.00000200  0.50000000  0.50000100  1
  V  V4  1  0.52998400  0.23514600  0.25075200  1
  V  V5  1  0.47001400  0.26485500  0.75075000  1
  V  V6  1  0.52998800  0.73514400  0.24924800  1
  V  V7  1  0.47001400  0.76485300  0.74924900  1
  O  O0  1  0.18278800  0.41025600  0.75526900  1
  O  O1  1  0.18279000  0.91025500  0.74473100  1
  O  O2  1  0.31152100  0.15668300  0.00049700  1
  O  O3  1  0.31152200  0.65668200  0.49950300  1
  O  O4  1  0.68847900  0.34331600  0.50049800  1
  O  O5  1  0.68847800  0.84331700  0.99950300  1
  O  O6  1  0.81721200  0.08974500  0.25526800  1
  O  O7  1  0.81721300  0.58974400  0.24473200  1
  F  F0  1  0.20991500  0.39618200  0.24675300  1
  F  F1  1  0.20991500  0.89618200  0.25324700  1
  F  F2  1  0.29685000  0.14928200  0.50039700  1
  F  F3  1  0.29685100  0.64928100  0.99960400  1
  F  F4  1  0.70315000  0.35071800  0.00039500  1
  F  F5  1  0.70315000  0.85071800  0.49960400  1
  F  F6  1  0.79008500  0.10381900  0.74675200  1
  F  F7  1  0.79008500  0.60381800  0.75324600  1
loop_
_geom_bond_atom_site_label_1
_geom_bond_atom_site_label_2
_geom_bond_distance
_geom_bond_site_symmetry_2
O0 V5 1.941159 1_555
O0 V0 1.950322 1_456
O0 V3 2.002040 1_555
O1 V7 1.941159 1_555
O1 V2 1.950333 1_465
O1 V1 2.002068 1_466
O2 V5 2.002994 1_554
O2 V4 2.006263 1_555
O2 V1 2.076111 1_455
O3 V7 2.002986 1_555
O3 V6 2.006263 1_555
O3 V3 2.076111 1_555
O4 V4 2.002987 1_555
O4 V5 2.006243 1_555
O4 V3 2.076134 1_655
O5 V6 2.002984 1_556
O5 V7 2.006264 1_555
O5 V1 2.076134 1_566
O6 V4 1.941165 1_555
O6 V2 1.950321 1_555
O6 V1 2.002039 1_555
O7 V6 1.941149 1_555
O7 V0 1.950319 1_555
O7 V3 2.002051 1_655
F0 V0 2.080437 1_455
F0 V3 2.110509 1_555
F0 V4 2.156312 1_555
F1 V2 2.080451 1_465
F1 V1 2.110519 1_465
F1 V6 2.156339 1_555
F2 V2 1.978208 1_455
F2 V4 2.065585 1_555
F2 V5 2.068248 1_555
F3 V0 1.978205 1_456
F3 V6 2.065588 1_556
F3 V7 2.068247 1_555
F4 V0 1.978188 1_555
F4 V5 2.065590 1_554
F4 V4 2.068261 1_555
F5 V2 1.978188 1_565
F5 V7 2.065594 1_555
F5 V6 2.068263 1_555
F6 V2 2.080438 1_555
F6 V1 2.110506 1_556
F6 V5 2.156318 1_555
F7 V0 2.080455 1_556
F7 V3 2.110504 1_655
F7 V7 2.156312 1_555
