# generated using pymatgen
data_BRu6(CO)17
_symmetry_space_group_name_H-M   'P 1'
_cell_length_a   12.03954400
_cell_length_b   13.47907300
_cell_length_c   16.66762600
_cell_angle_alpha   90.00000000
_cell_angle_beta   90.00000000
_cell_angle_gamma   90.00000000
_symmetry_Int_Tables_number   1
_chemical_formula_structural   BRu6(CO)17
_chemical_formula_sum   'B4 Ru24 C68 O68'
_cell_volume   2704.85389014
_cell_formula_units_Z   4
loop_
 _symmetry_equiv_pos_site_id
 _symmetry_equiv_pos_as_xyz
  1  'x, y, z'
loop_
 _atom_site_type_symbol
 _atom_site_label
 _atom_site_symmetry_multiplicity
 _atom_site_fract_x
 _atom_site_fract_y
 _atom_site_fract_z
 _atom_site_occupancy
  B  B0  1  0.04661400  0.49409000  0.49870900  1
  B  B1  1  0.45338600  0.50591000  0.99870900  1
  B  B2  1  0.54661400  0.00591000  0.50129100  1
  B  B3  1  0.95338600  0.99409000  0.00129100  1
  Ru  Ru0  1  0.06917200  0.54119800  0.37942700  1
  Ru  Ru1  1  0.43082800  0.45880200  0.87942700  1
  Ru  Ru2  1  0.56917200  0.95880200  0.62057300  1
  Ru  Ru3  1  0.93082800  0.04119800  0.12057300  1
  Ru  Ru4  1  0.22281900  0.49767100  0.51754300  1
  Ru  Ru5  1  0.27718100  0.50232900  0.01754300  1
  Ru  Ru6  1  0.72281900  0.00232900  0.48245700  1
  Ru  Ru7  1  0.77718100  0.99767100  0.98245700  1
  Ru  Ru8  1  0.01705200  0.43567200  0.61390900  1
  Ru  Ru9  1  0.48294800  0.56432800  0.11390900  1
  Ru  Ru10  1  0.51705200  0.06432800  0.38609100  1
  Ru  Ru11  1  0.98294800  0.93567200  0.88609100  1
  Ru  Ru12  1  0.87283300  0.52538400  0.49071600  1
  Ru  Ru13  1  0.62716700  0.47461600  0.99071600  1
  Ru  Ru14  1  0.37283300  0.97461600  0.50928400  1
  Ru  Ru15  1  0.12716700  0.02538400  0.00928400  1
  Ru  Ru16  1  0.05583300  0.64335400  0.54542400  1
  Ru  Ru17  1  0.44416700  0.35664600  0.04542400  1
  Ru  Ru18  1  0.55583300  0.85664600  0.45457600  1
  Ru  Ru19  1  0.94416700  0.14335400  0.95457600  1
  Ru  Ru20  1  0.04266200  0.34525100  0.45432600  1
  Ru  Ru21  1  0.45733800  0.65474900  0.95432600  1
  Ru  Ru22  1  0.54266200  0.15474900  0.54567400  1
  Ru  Ru23  1  0.95733800  0.84525100  0.04567400  1
  C  C0  1  0.18297400  0.48870800  0.31282800  1
  C  C1  1  0.31702600  0.51129200  0.81282800  1
  C  C2  1  0.68297400  0.01129200  0.68717200  1
  C  C3  1  0.81702600  0.98870800  0.18717200  1
  C  C4  1  0.95698800  0.51023400  0.30225000  1
  C  C5  1  0.54301200  0.48976600  0.80225000  1
  C  C6  1  0.45698800  0.98976600  0.69775000  1
  C  C7  1  0.04301200  0.01023400  0.19775000  1
  C  C8  1  0.09058800  0.67493600  0.34072800  1
  C  C9  1  0.40941200  0.32506400  0.84072800  1
  C  C10  1  0.59058800  0.82506400  0.65927200  1
  C  C11  1  0.90941200  0.17493600  0.15927200  1
  C  C12  1  0.33667200  0.52246100  0.44186000  1
  C  C13  1  0.16332800  0.47753900  0.94186000  1
  C  C14  1  0.83667200  0.97753900  0.55814000  1
  C  C15  1  0.66332800  0.02246100  0.05814000  1
  C  C16  1  0.32484100  0.43896000  0.59053100  1
  C  C17  1  0.17515900  0.56104000  0.09053100  1
  C  C18  1  0.82484100  0.06104000  0.40946900  1
  C  C19  1  0.67515900  0.93896000  0.90946900  1
  C  C20  1  0.23765500  0.62985100  0.56684100  1
  C  C21  1  0.26234500  0.37014900  0.06684100  1
  C  C22  1  0.73765500  0.87014900  0.43315900  1
  C  C23  1  0.76234500  0.12985100  0.93315900  1
  C  C24  1  0.12318700  0.36561900  0.67745400  1
  C  C25  1  0.37681300  0.63438100  0.17745400  1
  C  C26  1  0.62318700  0.13438100  0.32254600  1
  C  C27  1  0.87681300  0.86561900  0.82254600  1
  C  C28  1  0.96713700  0.51252200  0.70385700  1
  C  C29  1  0.53286300  0.48747800  0.20385700  1
  C  C30  1  0.46713700  0.98747800  0.29614300  1
  C  C31  1  0.03286300  0.01252200  0.79614300  1
  C  C32  1  0.90630000  0.33666800  0.62734000  1
  C  C33  1  0.59370000  0.66333200  0.12734000  1
  C  C34  1  0.40630000  0.16333200  0.37266000  1
  C  C35  1  0.09370000  0.83666800  0.87266000  1
  C  C36  1  0.75043800  0.47969700  0.55261400  1
  C  C37  1  0.74956200  0.52030300  0.05261400  1
  C  C38  1  0.25043800  0.02030300  0.44738600  1
  C  C39  1  0.24956200  0.97969700  0.94738600  1
  C  C40  1  0.87391700  0.65770600  0.54440600  1
  C  C41  1  0.62608300  0.34229400  0.04440600  1
  C  C42  1  0.37391700  0.84229400  0.45559400  1
  C  C43  1  0.12608300  0.15770600  0.95559400  1
  C  C44  1  0.77450000  0.56838800  0.40760300  1
  C  C45  1  0.72550000  0.43161200  0.90760300  1
  C  C46  1  0.27450000  0.93161200  0.59239700  1
  C  C47  1  0.22550000  0.06838800  0.09239700  1
  C  C48  1  0.06379400  0.77134000  0.49932500  1
  C  C49  1  0.43620600  0.22866000  0.99932500  1
  C  C50  1  0.56379400  0.72866000  0.50067500  1
  C  C51  1  0.93620600  0.27134000  0.00067500  1
  C  C52  1  0.05300800  0.70520400  0.64702100  1
  C  C53  1  0.44699200  0.29479600  0.14702100  1
  C  C54  1  0.55300800  0.79479600  0.35297900  1
  C  C55  1  0.94699200  0.20520400  0.85297900  1
  C  C56  1  0.09037600  0.28809900  0.35384900  1
  C  C57  1  0.40962400  0.71190100  0.85384900  1
  C  C58  1  0.59037600  0.21190100  0.64615100  1
  C  C59  1  0.90962400  0.78809900  0.14615100  1
  C  C60  1  0.06010400  0.22705800  0.51827000  1
  C  C61  1  0.43989600  0.77294200  0.01827000  1
  C  C62  1  0.56010400  0.27294200  0.48173000  1
  C  C63  1  0.93989600  0.72705800  0.98173000  1
  C  C64  1  0.89330300  0.32401700  0.42938500  1
  C  C65  1  0.60669700  0.67598300  0.92938500  1
  C  C66  1  0.39330300  0.17598300  0.57061500  1
  C  C67  1  0.10669700  0.82401700  0.07061500  1
  O  O0  1  0.24848000  0.45651200  0.26879700  1
  O  O1  1  0.25152000  0.54348800  0.76879700  1
  O  O2  1  0.74848000  0.04348800  0.73120300  1
  O  O3  1  0.75152000  0.95651200  0.23120300  1
  O  O4  1  0.89343600  0.48830000  0.25307600  1
  O  O5  1  0.60656400  0.51170000  0.75307600  1
  O  O6  1  0.39343600  0.01170000  0.74692400  1
  O  O7  1  0.10656400  0.98830000  0.24692400  1
  O  O8  1  0.10260000  0.75225600  0.31181700  1
  O  O9  1  0.39740000  0.24774400  0.81181700  1
  O  O10  1  0.60260000  0.74774400  0.68818300  1
  O  O11  1  0.89740000  0.25225600  0.18818300  1
  O  O12  1  0.40829300  0.54355000  0.39829400  1
  O  O13  1  0.09170700  0.45645000  0.89829400  1
  O  O14  1  0.90829300  0.95645000  0.60170600  1
  O  O15  1  0.59170700  0.04355000  0.10170600  1
  O  O16  1  0.39354600  0.41282600  0.63480700  1
  O  O17  1  0.10645400  0.58717400  0.13480700  1
  O  O18  1  0.89354600  0.08717400  0.36519300  1
  O  O19  1  0.60645400  0.91282600  0.86519300  1
  O  O20  1  0.30408300  0.68261900  0.59719000  1
  O  O21  1  0.19591700  0.31738100  0.09719000  1
  O  O22  1  0.80408300  0.81738100  0.40281000  1
  O  O23  1  0.69591700  0.18261900  0.90281000  1
  O  O24  1  0.17991700  0.31964200  0.71968500  1
  O  O25  1  0.32008300  0.68035800  0.21968500  1
  O  O26  1  0.67991700  0.18035800  0.28031500  1
  O  O27  1  0.82008300  0.81964200  0.78031500  1
  O  O28  1  0.93163500  0.55316000  0.75965700  1
  O  O29  1  0.56836500  0.44684000  0.25965700  1
  O  O30  1  0.43163500  0.94684000  0.24034300  1
  O  O31  1  0.06836500  0.05316000  0.74034300  1
  O  O32  1  0.84117200  0.27363000  0.63385100  1
  O  O33  1  0.65882800  0.72637000  0.13385100  1
  O  O34  1  0.34117200  0.22637000  0.36614900  1
  O  O35  1  0.15882800  0.77363000  0.86614900  1
  O  O36  1  0.67311900  0.45353100  0.58844200  1
  O  O37  1  0.82688100  0.54646900  0.08844200  1
  O  O38  1  0.17311900  0.04646900  0.41155800  1
  O  O39  1  0.32688100  0.95353100  0.91155800  1
  O  O40  1  0.81418200  0.72009800  0.56947300  1
  O  O41  1  0.68581800  0.27990200  0.06947300  1
  O  O42  1  0.31418200  0.77990200  0.43052700  1
  O  O43  1  0.18581800  0.22009800  0.93052700  1
  O  O44  1  0.71308400  0.59614000  0.35882600  1
  O  O45  1  0.78691600  0.40386000  0.85882600  1
  O  O46  1  0.21308400  0.90386000  0.64117400  1
  O  O47  1  0.28691600  0.09614000  0.14117400  1
  O  O48  1  0.06405600  0.85162500  0.47415200  1
  O  O49  1  0.43594400  0.14837500  0.97415200  1
  O  O50  1  0.56405600  0.64837500  0.52584800  1
  O  O51  1  0.93594400  0.35162500  0.02584800  1
  O  O52  1  0.05078900  0.74537900  0.70847800  1
  O  O53  1  0.44921100  0.25462100  0.20847800  1
  O  O54  1  0.55078900  0.75462100  0.29152200  1
  O  O55  1  0.94921100  0.24537900  0.79152200  1
  O  O56  1  0.11418200  0.25155200  0.29339800  1
  O  O57  1  0.38581800  0.74844800  0.79339800  1
  O  O58  1  0.61418200  0.24844800  0.70660200  1
  O  O59  1  0.88581800  0.75155200  0.20660200  1
  O  O60  1  0.06377900  0.15381700  0.55467000  1
  O  O61  1  0.43622100  0.84618300  0.05467000  1
  O  O62  1  0.56377900  0.34618300  0.44533000  1
  O  O63  1  0.93622100  0.65381700  0.94533000  1
  O  O64  1  0.80636300  0.29541300  0.40906800  1
  O  O65  1  0.69363700  0.70458700  0.90906800  1
  O  O66  1  0.30636300  0.20458700  0.59093200  1
  O  O67  1  0.19363700  0.79541300  0.09093200  1
loop_
_geom_bond_atom_site_label_1
_geom_bond_atom_site_label_2
_geom_bond_distance
_geom_bond_site_symmetry_2
B0 Ru0 2.104681 1_555
B0 Ru8 2.105595 1_555
B0 Ru12 2.138495 1_455
B0 Ru20 2.138783 1_555
B0 Ru4 2.145071 1_555
B0 Ru16 2.160205 1_555
B1 Ru1 2.104681 1_555
B1 Ru9 2.105595 1_556
B1 Ru13 2.138495 1_555
B1 Ru21 2.138783 1_555
B1 Ru5 2.145071 1_556
B1 Ru17 2.160205 1_556
B2 Ru2 2.104681 1_545
B2 Ru10 2.105595 1_555
B2 Ru14 2.138495 1_545
B2 Ru22 2.138783 1_555
B2 Ru6 2.145071 1_555
B2 Ru18 2.160205 1_545
B3 Ru3 2.104681 1_565
B3 Ru11 2.105595 1_554
B3 Ru15 2.138495 1_665
B3 Ru23 2.138783 1_555
B3 Ru7 2.145071 1_554
B3 Ru19 2.160205 1_564
C0 O0 1.161429 1_555
C0 Ru0 1.900007 1_555
C1 O1 1.161429 1_555
C1 Ru1 1.900007 1_555
C2 O2 1.161429 1_555
C2 Ru2 1.900007 1_545
C3 O3 1.161429 1_555
C3 Ru3 1.900007 1_565
C4 O4 1.159573 1_555
C4 Ru0 1.911321 1_655
C5 O5 1.159573 1_555
C5 Ru1 1.911321 1_555
C6 O6 1.159573 1_565
C6 Ru2 1.911321 1_555
C7 O7 1.159573 1_545
C7 Ru3 1.911321 1_455
C8 O8 1.157284 1_555
C8 Ru0 1.931872 1_555
C9 O9 1.157284 1_555
C9 Ru1 1.931872 1_555
C10 O10 1.157284 1_555
C10 Ru2 1.931872 1_555
C11 O11 1.157284 1_555
C11 Ru3 1.931872 1_555
C12 O12 1.162592 1_555
C12 Ru4 1.892577 1_555
C13 O13 1.162592 1_555
C13 Ru5 1.892577 1_556
C14 O14 1.162592 1_555
C14 Ru6 1.892577 1_565
C15 O15 1.162592 1_555
C15 Ru7 1.892577 1_544
C16 O16 1.163150 1_555
C16 Ru4 1.901301 1_555
C17 O17 1.163150 1_555
C17 Ru5 1.901301 1_555
C18 O18 1.163150 1_555
C18 Ru6 1.901301 1_555
C19 O19 1.163150 1_555
C19 Ru7 1.901301 1_555
C20 O20 1.183806 1_555
C20 Ru4 1.970124 1_555
C20 Ru16 2.225424 1_555
C21 O21 1.183806 1_555
C21 Ru5 1.970124 1_555
C21 Ru17 2.225424 1_555
C22 O22 1.183806 1_555
C22 Ru6 1.970124 1_565
C22 Ru18 2.225424 1_555
C23 O23 1.183806 1_555
C23 Ru7 1.970124 1_545
C23 Ru19 2.225424 1_555
C24 O24 1.160180 1_555
C24 Ru8 1.909505 1_555
C25 O25 1.160180 1_555
C25 Ru9 1.909505 1_555
C26 O26 1.160180 1_555
C26 Ru10 1.909505 1_555
C27 O27 1.160180 1_555
C27 Ru11 1.909505 1_555
C28 O28 1.160921 1_555
C28 Ru8 1.918808 1_655
C29 O29 1.160921 1_555
C29 Ru9 1.918808 1_555
C30 O30 1.160921 1_555
C30 Ru10 1.918808 1_565
C31 O31 1.160921 1_555
C31 Ru11 1.918808 1_445
C32 O32 1.161287 1_555
C32 Ru8 1.899716 1_655
C33 O33 1.161287 1_555
C33 Ru9 1.899716 1_555
C34 O34 1.161287 1_555
C34 Ru10 1.899716 1_555
C35 O35 1.161287 1_555
C35 Ru11 1.899716 1_455
C36 O36 1.160840 1_555
C36 Ru12 1.901331 1_555
C37 O37 1.160840 1_555
C37 Ru13 1.901331 1_554
C38 O38 1.160840 1_555
C38 Ru14 1.901331 1_545
C39 O39 1.160840 1_555
C39 Ru15 1.901331 1_566
C40 O40 1.182812 1_555
C40 Ru12 1.995530 1_555
C40 Ru16 2.198778 1_655
C41 O41 1.182812 1_555
C41 Ru13 1.995530 1_554
C41 Ru17 2.198778 1_555
C42 O42 1.182812 1_555
C42 Ru14 1.995530 1_555
C42 Ru18 2.198778 1_555
C43 O43 1.182812 1_555
C43 Ru15 1.995530 1_556
C43 Ru19 2.198778 1_455
C44 O44 1.160877 1_555
C44 Ru12 1.912231 1_555
C45 O45 1.160877 1_555
C45 Ru13 1.912231 1_555
C46 O46 1.160877 1_555
C46 Ru14 1.912231 1_555
C47 O47 1.160877 1_555
C47 Ru15 1.912231 1_555
C48 O48 1.160663 1_555
C48 Ru16 1.890938 1_555
C49 O49 1.160663 1_555
C49 Ru17 1.890938 1_556
C50 O50 1.160663 1_555
C50 Ru18 1.890938 1_555
C51 O51 1.160663 1_555
C51 Ru19 1.890938 1_554
C52 O52 1.158981 1_555
C52 Ru16 1.887781 1_555
C53 O53 1.158981 1_555
C53 Ru17 1.887781 1_555
C54 O54 1.158981 1_555
C54 Ru18 1.887781 1_555
C55 O55 1.158981 1_555
C55 Ru19 1.887781 1_555
C56 O56 1.157596 1_555
C56 Ru20 1.930832 1_555
C57 O57 1.157596 1_555
C57 Ru21 1.930832 1_555
C58 O58 1.157596 1_555
C58 Ru22 1.930832 1_555
C59 O59 1.157596 1_555
C59 Ru23 1.930832 1_555
C60 O60 1.159590 1_555
C60 Ru20 1.928234 1_555
C61 O61 1.159590 1_555
C61 Ru21 1.928234 1_554
C62 O62 1.159590 1_555
C62 Ru22 1.928234 1_555
C63 O63 1.159590 1_555
C63 Ru23 1.928234 1_556
C64 O64 1.165738 1_555
C64 Ru20 1.867701 1_655
C65 O65 1.165738 1_555
C65 Ru21 1.867701 1_555
C66 O66 1.165738 1_555
C66 Ru22 1.867701 1_555
C67 O67 1.165738 1_555
C67 Ru23 1.867701 1_455
