# generated using pymatgen
data_Co3(OF2)2
_symmetry_space_group_name_H-M   'P 1'
_cell_length_a   3.12312400
_cell_length_b   4.71468800
_cell_length_c   14.05406700
_cell_angle_alpha   90.00000000
_cell_angle_beta   90.00000000
_cell_angle_gamma   90.00000000
_symmetry_Int_Tables_number   1
_chemical_formula_structural   Co3(OF2)2
_chemical_formula_sum   'Co6 O4 F8'
_cell_volume   206.93988596
_cell_formula_units_Z   2
loop_
 _symmetry_equiv_pos_site_id
 _symmetry_equiv_pos_as_xyz
  1  'x, y, z'
loop_
 _atom_site_type_symbol
 _atom_site_label
 _atom_site_symmetry_multiplicity
 _atom_site_fract_x
 _atom_site_fract_y
 _atom_site_fract_z
 _atom_site_occupancy
  Co  Co0  1  0.50000000  0.42786300  0.84070400  1
  Co  Co1  1  0.50000000  0.57213700  0.15929600  1
  Co  Co2  1  0.50000000  0.50000000  0.50000000  1
  Co  Co3  1  0.00000000  0.00000000  0.00000000  1
  Co  Co4  1  0.00000000  0.07213700  0.34070400  1
  Co  Co5  1  0.00000000  0.92786300  0.65929600  1
  O  O0  1  0.00000000  0.73758900  0.09824000  1
  O  O1  1  0.50000000  0.76241100  0.59824000  1
  O  O2  1  0.50000000  0.23758900  0.40176000  1
  O  O3  1  0.00000000  0.26241100  0.90176000  1
  F  F0  1  0.00000000  0.62963300  0.76890700  1
  F  F1  1  0.00000000  0.71769400  0.43384800  1
  F  F2  1  0.50000000  0.78230600  0.93384800  1
  F  F3  1  0.50000000  0.87036700  0.26890700  1
  F  F4  1  0.50000000  0.21769400  0.06615200  1
  F  F5  1  0.50000000  0.12963300  0.73109300  1
  F  F6  1  0.00000000  0.37036700  0.23109300  1
  F  F7  1  0.00000000  0.28230600  0.56615200  1
loop_
_geom_bond_atom_site_label_1
_geom_bond_atom_site_label_2
_geom_bond_distance
_geom_bond_site_symmetry_2
Co0 O3 1.945063 1_555
Co0 O3 1.945063 1_655
Co0 F5 2.085687 1_555
Co0 F0 2.088439 1_555
Co0 F0 2.088439 1_655
Co0 F2 2.122770 1_555
Co1 O0 1.945063 1_555
Co1 O0 1.945063 1_655
Co1 F3 2.085687 1_555
Co1 F6 2.088439 1_555
Co1 F6 2.088439 1_655
Co1 F4 2.122770 1_555
Co2 O2 1.853883 1_555
Co2 O1 1.853883 1_555
Co2 F1 2.087161 1_555
Co2 F7 2.087161 1_555
Co2 F7 2.087161 1_655
Co2 F1 2.087161 1_655
Co3 O3 1.853883 1_554
Co3 O0 1.853883 1_545
Co3 F2 2.087161 1_544
Co3 F4 2.087161 1_555
Co3 F2 2.087161 1_444
Co3 F4 2.087161 1_455
Co4 O2 1.945063 1_455
Co4 O2 1.945063 1_555
Co4 F6 2.085687 1_555
Co4 F3 2.088439 1_545
Co4 F3 2.088439 1_445
Co4 F1 2.122770 1_545
Co5 O1 1.945063 1_555
Co5 O1 1.945063 1_455
Co5 F0 2.085687 1_555
Co5 F5 2.088439 1_565
Co5 F5 2.088439 1_465
Co5 F7 2.122770 1_565
