# generated using pymatgen
data_LiNiBO3
_symmetry_space_group_name_H-M   'P 1'
_cell_length_a   3.10017894
_cell_length_b   8.96609379
_cell_length_c   9.41912300
_cell_angle_alpha   90.00014886
_cell_angle_beta   89.99995243
_cell_angle_gamma   91.93805291
_symmetry_Int_Tables_number   1
_chemical_formula_structural   LiNiBO3
_chemical_formula_sum   'Li4 Ni4 B4 O12'
_cell_volume   261.66884022
_cell_formula_units_Z   4
loop_
 _symmetry_equiv_pos_site_id
 _symmetry_equiv_pos_as_xyz
  1  'x, y, z'
loop_
 _atom_site_type_symbol
 _atom_site_label
 _atom_site_symmetry_multiplicity
 _atom_site_fract_x
 _atom_site_fract_y
 _atom_site_fract_z
 _atom_site_occupancy
  Li  Li0  1  0.24610300  0.13193300  0.70922400  1
  Li  Li1  1  0.25386300  0.36805800  0.20920200  1
  Li  Li2  1  0.74610200  0.63193300  0.79077700  1
  Li  Li3  1  0.75386100  0.86805800  0.29079700  1
  Ni  Ni0  1  0.75188800  0.21916800  0.93950700  1
  Ni  Ni1  1  0.25188400  0.71916900  0.56049100  1
  Ni  Ni2  1  0.74813400  0.28086500  0.43943600  1
  Ni  Ni3  1  0.24813800  0.78086300  0.06056400  1
  B  B0  1  0.24939100  0.10265000  0.20263100  1
  B  B1  1  0.25053400  0.39734000  0.70261600  1
  B  B2  1  0.74939300  0.60265000  0.29736900  1
  B  B3  1  0.75053600  0.89734000  0.79738500  1
  O  O0  1  0.73578500  0.04923400  0.79861500  1
  O  O1  1  0.76416500  0.45077000  0.29856000  1
  O  O2  1  0.23578400  0.54923700  0.70138600  1
  O  O3  1  0.26416400  0.95076700  0.20144000  1
  O  O4  1  0.23657700  0.17778700  0.33237200  1
  O  O5  1  0.26349000  0.32220000  0.83238200  1
  O  O6  1  0.73658200  0.67778800  0.16762800  1
  O  O7  1  0.76349000  0.82219900  0.66761800  1
  O  O8  1  0.25000100  0.19165600  0.08015300  1
  O  O9  1  0.25006700  0.30833900  0.58012900  1
  O  O10  1  0.75000000  0.69165800  0.41984800  1
  O  O11  1  0.75007200  0.80833700  0.91987100  1
loop_
_geom_bond_atom_site_label_1
_geom_bond_atom_site_label_2
_geom_bond_distance
_geom_bond_site_symmetry_2
Li0 O0 1.907752 1_555
Li0 O0 1.918949 1_455
Li0 O9 1.994768 1_555
Li0 O5 2.062193 1_555
Li1 O1 1.907700 1_455
Li1 O1 1.918814 1_555
Li1 O8 1.994477 1_555
Li1 O4 2.062292 1_555
Li2 O2 1.907738 1_655
Li2 O2 1.918939 1_555
Li2 O11 1.994742 1_555
Li2 O7 2.062196 1_555
Li3 O3 1.907685 1_555
Li3 O3 1.918803 1_655
Li3 O10 1.994479 1_555
Li3 O6 2.062274 1_555
Ni0 O0 2.019893 1_555
Ni0 O8 2.052030 1_556
Ni0 O8 2.055794 1_656
Ni0 O5 2.063663 1_555
Ni0 O5 2.070750 1_655
Ni1 O2 2.019903 1_555
Ni1 O10 2.052005 1_455
Ni1 O10 2.055779 1_555
Ni1 O7 2.063650 1_455
Ni1 O7 2.070759 1_555
Ni2 O1 2.019603 1_555
Ni2 O9 2.052392 1_655
Ni2 O9 2.055920 1_555
Ni2 O4 2.063677 1_655
Ni2 O4 2.070537 1_555
Ni3 O3 2.019591 1_555
Ni3 O11 2.052394 1_554
Ni3 O11 2.055920 1_454
Ni3 O6 2.063671 1_555
Ni3 O6 2.070525 1_455
B0 O3 1.364160 1_545
B0 O4 1.396651 1_555
B0 O8 1.402727 1_555
B1 O2 1.364284 1_555
B1 O5 1.396893 1_555
B1 O9 1.402776 1_555
B2 O1 1.364133 1_555
B2 O6 1.396658 1_555
B2 O10 1.402742 1_555
B3 O0 1.364257 1_565
B3 O7 1.396902 1_555
B3 O11 1.402782 1_555
