# generated using pymatgen
data_LiCu3F10
_symmetry_space_group_name_H-M   'P 1'
_cell_length_a   6.96987400
_cell_length_b   7.12038400
_cell_length_c   7.34623300
_cell_angle_alpha   90.00000000
_cell_angle_beta   90.00000000
_cell_angle_gamma   90.00000000
_symmetry_Int_Tables_number   1
_chemical_formula_structural   LiCu3F10
_chemical_formula_sum   'Li2 Cu6 F20'
_cell_volume   364.58016859
_cell_formula_units_Z   2
loop_
 _symmetry_equiv_pos_site_id
 _symmetry_equiv_pos_as_xyz
  1  'x, y, z'
loop_
 _atom_site_type_symbol
 _atom_site_label
 _atom_site_symmetry_multiplicity
 _atom_site_fract_x
 _atom_site_fract_y
 _atom_site_fract_z
 _atom_site_occupancy
  Li  Li0  1  0.00000000  0.67814100  0.75000000  1
  Li  Li1  1  0.00000000  0.32185900  0.25000000  1
  Cu  Cu0  1  0.50000000  0.50000000  0.00000000  1
  Cu  Cu1  1  0.76804400  0.00000000  0.00000000  1
  Cu  Cu2  1  0.76804400  0.00000000  0.50000000  1
  Cu  Cu3  1  0.23195600  0.00000000  0.00000000  1
  Cu  Cu4  1  0.23195600  0.00000000  0.50000000  1
  Cu  Cu5  1  0.50000000  0.50000000  0.50000000  1
  F  F0  1  0.50000000  0.57254700  0.25000000  1
  F  F1  1  0.50000000  0.42745300  0.75000000  1
  F  F2  1  0.50000000  0.00000000  0.00000000  1
  F  F3  1  0.68988200  0.67186400  0.95388400  1
  F  F4  1  0.68988200  0.32813600  0.04611600  1
  F  F5  1  0.68988200  0.67186400  0.54611600  1
  F  F6  1  0.68988200  0.32813600  0.45388400  1
  F  F7  1  0.77412400  0.05781100  0.75000000  1
  F  F8  1  0.77412400  0.94218900  0.25000000  1
  F  F9  1  0.00000000  0.83383600  0.95925800  1
  F  F10  1  0.00000000  0.16616400  0.04074200  1
  F  F11  1  0.00000000  0.83383600  0.54074200  1
  F  F12  1  0.00000000  0.16616400  0.45925800  1
  F  F13  1  0.22587600  0.94218900  0.25000000  1
  F  F14  1  0.22587600  0.05781100  0.75000000  1
  F  F15  1  0.31011800  0.67186400  0.95388400  1
  F  F16  1  0.31011800  0.32813600  0.04611600  1
  F  F17  1  0.31011800  0.67186400  0.54611600  1
  F  F18  1  0.31011800  0.32813600  0.45388400  1
  F  F19  1  0.50000000  0.00000000  0.50000000  1
loop_
_geom_bond_atom_site_label_1
_geom_bond_atom_site_label_2
_geom_bond_distance
_geom_bond_site_symmetry_2
Cu0 F3 1.834076 1_554
Cu0 F16 1.834076 1_555
Cu0 F4 1.834076 1_555
Cu0 F15 1.834076 1_554
Cu0 F0 1.907822 1_555
Cu0 F1 1.907822 1_554
Cu1 F2 1.868233 1_555
Cu1 F7 1.882601 1_554
Cu1 F8 1.882601 1_545
Cu1 F10 2.025626 1_655
Cu1 F9 2.025626 1_644
Cu1 F4 2.422927 1_555
Cu1 F3 2.422927 1_544
Cu2 F19 1.868233 1_555
Cu2 F7 1.882601 1_555
Cu2 F8 1.882601 1_545
Cu2 F12 2.025626 1_655
Cu2 F11 2.025626 1_645
Cu2 F5 2.422927 1_545
Cu2 F6 2.422927 1_555
Cu3 F2 1.868233 1_555
Cu3 F14 1.882601 1_554
Cu3 F13 1.882601 1_545
Cu3 F10 2.025626 1_555
Cu3 F9 2.025626 1_544
Cu3 F15 2.422927 1_544
Cu3 F16 2.422927 1_555
Cu4 F19 1.868233 1_555
Cu4 F14 1.882601 1_555
Cu4 F13 1.882601 1_545
Cu4 F12 2.025626 1_555
Cu4 F11 2.025626 1_545
Cu4 F17 2.422927 1_545
Cu4 F18 2.422927 1_555
Cu5 F17 1.834076 1_555
Cu5 F5 1.834076 1_555
Cu5 F18 1.834076 1_555
Cu5 F6 1.834076 1_555
Cu5 F0 1.907822 1_555
Cu5 F1 1.907822 1_555
F9 Li0 1.895303 1_555
F10 Li1 1.895303 1_555
F11 Li0 1.895303 1_555
F12 Li1 1.895303 1_555
