# generated using pymatgen
data_Ce(AlGe)2
_symmetry_space_group_name_H-M   'P 1'
_cell_length_a   4.29119845
_cell_length_b   4.29119845
_cell_length_c   6.87576700
_cell_angle_alpha   90.00000000
_cell_angle_beta   90.00000000
_cell_angle_gamma   120.00000693
_symmetry_Int_Tables_number   1
_chemical_formula_structural   Ce(AlGe)2
_chemical_formula_sum   'Ce1 Al2 Ge2'
_cell_volume   109.65007957
_cell_formula_units_Z   1
loop_
 _symmetry_equiv_pos_site_id
 _symmetry_equiv_pos_as_xyz
  1  'x, y, z'
loop_
 _atom_site_type_symbol
 _atom_site_label
 _atom_site_symmetry_multiplicity
 _atom_site_fract_x
 _atom_site_fract_y
 _atom_site_fract_z
 _atom_site_occupancy
  Ce  Ce0  1  0.00000000  0.00000000  0.00000000  1
  Al  Al0  1  0.66666700  0.33333300  0.35789400  1
  Al  Al1  1  0.33333300  0.66666700  0.64210600  1
  Ge  Ge0  1  0.66666700  0.33333300  0.73564400  1
  Ge  Ge1  1  0.33333300  0.66666700  0.26435600  1
loop_
_geom_bond_atom_site_label_1
_geom_bond_atom_site_label_2
_geom_bond_distance
_geom_bond_site_symmetry_2
Ce0 Ge1 3.072779 1_545
Ce0 Ge0 3.072779 1_454
Ce0 Ge1 3.072781 1_445
Ce0 Ge1 3.072781 1_555
Ce0 Ge0 3.072781 1_554
Ce0 Ge0 3.072781 1_444
Al0 Ge1 2.559639 1_545
Al0 Ge1 2.559639 1_655
Al0 Ge1 2.559646 1_555
Al0 Ge0 2.597321 1_555
Al1 Ge0 2.559639 1_455
Al1 Ge0 2.559639 1_565
Al1 Ge0 2.559646 1_555
Al1 Ge1 2.597321 1_555
