# generated using pymatgen
data_Li6Ti3V(PO4)6
_symmetry_space_group_name_H-M   'P 1'
_cell_length_a   8.54161900
_cell_length_b   8.59009355
_cell_length_c   8.59352238
_cell_angle_alpha   62.63508254
_cell_angle_beta   62.80443221
_cell_angle_gamma   62.75838589
_symmetry_Int_Tables_number   1
_chemical_formula_structural   Li6Ti3V(PO4)6
_chemical_formula_sum   'Li6 Ti3 V1 P6 O24'
_cell_volume   472.95745727
_cell_formula_units_Z   1
loop_
 _symmetry_equiv_pos_site_id
 _symmetry_equiv_pos_as_xyz
  1  'x, y, z'
loop_
 _atom_site_type_symbol
 _atom_site_label
 _atom_site_symmetry_multiplicity
 _atom_site_fract_x
 _atom_site_fract_y
 _atom_site_fract_z
 _atom_site_occupancy
  Li  Li0  1  0.02533600  0.00247300  0.99420100  1
  Li  Li1  1  0.75459100  0.14672400  0.34692200  1
  Li  Li2  1  0.47192600  0.50601100  0.49630900  1
  Li  Li3  1  0.22990000  0.83796500  0.65838500  1
  Li  Li4  1  0.66138600  0.23091200  0.83624100  1
  Li  Li5  1  0.83526000  0.66115300  0.23072700  1
  Ti  Ti0  1  0.14611700  0.14553700  0.13701900  1
  Ti  Ti1  1  0.35373400  0.36149100  0.35385600  1
  Ti  Ti2  1  0.64745300  0.64935800  0.64947900  1
  V  V0  1  0.85585900  0.85418500  0.85417100  1
  P  P0  1  0.05435700  0.75335000  0.44744800  1
  P  P1  1  0.44873400  0.05649100  0.74984200  1
  P  P2  1  0.75157700  0.45051400  0.05341300  1
  P  P3  1  0.25329000  0.54219800  0.95517500  1
  P  P4  1  0.54392700  0.95883800  0.25300400  1
  P  P5  1  0.95319900  0.25304400  0.53884300  1
  O  O0  1  0.11981800  0.31172400  0.48873100  1
  O  O1  1  0.32101000  0.49764000  0.11294300  1
  O  O2  1  0.05103100  0.92021900  0.26553400  1
  O  O3  1  0.51864500  0.11606300  0.31186700  1
  O  O4  1  0.24177300  0.59747800  0.41518700  1
  O  O5  1  0.03683300  0.80394100  0.60520700  1
  O  O6  1  0.26018700  0.07198900  0.90666900  1
  O  O7  1  0.43372000  0.23933000  0.58428200  1
  O  O8  1  0.59759000  0.41860900  0.24553100  1
  O  O9  1  0.19300700  0.38158900  0.99207500  1
  O  O10  1  0.09684200  0.73055200  0.94020200  1
  O  O11  1  0.37471500  0.00226700  0.20102800  1
  O  O12  1  0.60732000  0.03418500  0.80401400  1
  O  O13  1  0.90506800  0.25700800  0.07272000  1
  O  O14  1  0.80718700  0.60555200  0.03296200  1
  O  O15  1  0.40972800  0.56378000  0.76424200  1
  O  O16  1  0.56098600  0.76937100  0.41156000  1
  O  O17  1  0.72979800  0.93749600  0.09431000  1
  O  O18  1  0.97322000  0.19973500  0.37973400  1
  O  O19  1  0.76539800  0.41234500  0.56592200  1
  O  O20  1  0.48703300  0.89000200  0.69472000  1
  O  O21  1  0.94176700  0.09513400  0.72594400  1
  O  O22  1  0.69326700  0.48780800  0.89057200  1
  O  O23  1  0.88741700  0.69494100  0.49001500  1
loop_
_geom_bond_atom_site_label_1
_geom_bond_atom_site_label_2
_geom_bond_distance
_geom_bond_site_symmetry_2
Li0 O6 2.061778 1_555
Li0 O2 2.189861 1_546
Li0 O13 2.226588 1_456
Li0 O10 2.340035 1_545
Li0 O21 2.398848 1_455
Li0 O17 2.507496 1_446
Li1 O8 2.083786 1_555
Li1 O13 2.096694 1_555
Li1 O18 2.269820 1_555
Li1 O3 2.309898 1_555
Li1 O2 2.410045 1_645
Li1 O7 2.586667 1_555
Li2 O4 2.074384 1_555
Li2 O7 2.189212 1_555
Li2 O8 2.235043 1_555
Li2 O15 2.349655 1_555
Li2 O16 2.404472 1_555
Li2 O19 2.524020 1_555
Li3 O5 2.065597 1_555
Li3 O10 2.097152 1_555
Li3 O15 2.174795 1_555
Li3 O21 2.483936 1_465
Li3 O20 2.602911 1_555
Li3 O16 2.642796 1_555
Li4 O21 2.092493 1_555
Li4 O12 2.099369 1_555
Li4 O19 2.160431 1_555
Li4 O17 2.511978 1_546
Li5 O17 2.066418 1_555
Li5 O14 2.097015 1_555
Li5 O16 2.184958 1_555
Li5 O10 2.516558 1_654
O0 P5 1.536884 1_455
O0 Ti1 1.930782 1_555
O1 P3 1.535033 1_554
O1 Ti1 1.932824 1_555
O2 P0 1.562893 1_555
O2 Ti0 2.068738 1_565
O3 P4 1.545240 1_545
O3 Ti1 2.018694 1_555
O4 P0 1.551007 1_555
O4 Ti1 2.012060 1_555
O5 P0 1.531597 1_555
O5 V0 2.090043 1_455
O6 P1 1.553202 1_555
O6 Ti0 2.022420 1_556
O7 P1 1.560627 1_555
O7 Ti1 2.039366 1_555
O8 P2 1.568432 1_555
O8 Ti1 2.046768 1_555
O9 P3 1.538844 1_555
O9 Ti0 1.946561 1_556
O10 P3 1.551300 1_555
O10 V0 2.139931 1_455
O11 P4 1.539796 1_545
O11 Ti0 1.946602 1_555
O12 P1 1.531373 1_555
O12 V0 2.074127 1_545
O13 P2 1.568315 1_555
O13 Ti0 2.051844 1_655
O14 P2 1.522445 1_555
O14 V0 2.075416 1_554
O15 P3 1.566898 1_555
O15 Ti2 2.122684 1_555
O16 P4 1.566002 1_555
O16 Ti2 2.129324 1_555
O17 P4 1.548651 1_555
O17 V0 2.133381 1_554
O18 P5 1.548760 1_555
O18 Ti0 2.048387 1_655
O19 P5 1.562646 1_555
O19 Ti2 2.116755 1_555
O20 P1 1.558711 1_565
O20 Ti2 1.990127 1_555
O21 P5 1.551600 1_555
O21 V0 2.142729 1_545
O22 P2 1.545259 1_556
O22 Ti2 1.993040 1_555
O23 P0 1.558309 1_655
O23 Ti2 1.976475 1_555
