# generated using pymatgen
data_YTmO3
_symmetry_space_group_name_H-M   'P 1'
_cell_length_a   5.66425100
_cell_length_b   5.92267600
_cell_length_c   8.30527100
_cell_angle_alpha   90.00000000
_cell_angle_beta   90.00000000
_cell_angle_gamma   90.00000000
_symmetry_Int_Tables_number   1
_chemical_formula_structural   YTmO3
_chemical_formula_sum   'Y4 Tm4 O12'
_cell_volume   278.62127368
_cell_formula_units_Z   4
loop_
 _symmetry_equiv_pos_site_id
 _symmetry_equiv_pos_as_xyz
  1  'x, y, z'
loop_
 _atom_site_type_symbol
 _atom_site_label
 _atom_site_symmetry_multiplicity
 _atom_site_fract_x
 _atom_site_fract_y
 _atom_site_fract_z
 _atom_site_occupancy
  Y  Y0  1  0.01537900  0.94700000  0.75000000  1
  Y  Y1  1  0.48462100  0.44700000  0.75000000  1
  Y  Y2  1  0.51537900  0.55300000  0.25000000  1
  Y  Y3  1  0.98462100  0.05300000  0.25000000  1
  Tm  Tm0  1  0.00000000  0.50000000  0.00000000  1
  Tm  Tm1  1  0.00000000  0.50000000  0.50000000  1
  Tm  Tm2  1  0.50000000  0.00000000  0.00000000  1
  Tm  Tm3  1  0.50000000  0.00000000  0.50000000  1
  O  O0  1  0.14490700  0.42235000  0.25000000  1
  O  O1  1  0.18279000  0.18614800  0.57514800  1
  O  O2  1  0.18279000  0.18614800  0.92485200  1
  O  O3  1  0.31721000  0.68614800  0.92485200  1
  O  O4  1  0.31721000  0.68614800  0.57514800  1
  O  O5  1  0.35509300  0.92235000  0.25000000  1
  O  O6  1  0.64490700  0.07765000  0.75000000  1
  O  O7  1  0.68279000  0.31385200  0.42485200  1
  O  O8  1  0.68279000  0.31385200  0.07514800  1
  O  O9  1  0.81721000  0.81385200  0.07514800  1
  O  O10  1  0.81721000  0.81385200  0.42485200  1
  O  O11  1  0.85509300  0.57765000  0.75000000  1
loop_
_geom_bond_atom_site_label_1
_geom_bond_atom_site_label_2
_geom_bond_distance
_geom_bond_site_symmetry_2
O0 Y2 2.236569 1_555
O0 Tm0 2.279538 1_555
O0 Tm1 2.279538 1_555
O0 Y3 2.368463 1_455
O1 Tm3 2.198491 1_555
O1 Tm1 2.217390 1_555
O1 Y0 2.239249 1_545
O1 Y1 2.723711 1_555
O1 Y3 3.028898 1_455
O2 Tm2 2.198491 1_556
O2 Tm0 2.217390 1_556
O2 Y0 2.239249 1_545
O2 Y1 2.723711 1_555
O2 Y3 3.028898 1_456
O3 Tm0 2.198491 1_556
O3 Tm2 2.217390 1_566
O3 Y1 2.239249 1_555
O3 Y0 2.723711 1_555
O3 Y2 3.028898 1_556
O4 Tm1 2.198491 1_555
O4 Tm3 2.217390 1_565
O4 Y1 2.239249 1_555
O4 Y0 2.723711 1_555
O4 Y2 3.028898 1_555
O5 Y3 2.236569 1_465
O5 Tm3 2.279538 1_565
O5 Tm2 2.279538 1_565
O5 Y2 2.368463 1_555
O6 Y0 2.236569 1_645
O6 Tm2 2.279538 1_556
O6 Tm3 2.279538 1_555
O6 Y1 2.368463 1_555
O7 Tm1 2.198491 1_655
O7 Tm3 2.217390 1_555
O7 Y2 2.239249 1_555
O7 Y3 2.723711 1_555
O7 Y1 3.028898 1_555
O8 Tm0 2.198491 1_655
O8 Tm2 2.217390 1_555
O8 Y2 2.239249 1_555
O8 Y3 2.723711 1_555
O8 Y1 3.028898 1_554
O9 Tm2 2.198491 1_565
O9 Tm0 2.217390 1_655
O9 Y3 2.239249 1_565
O9 Y2 2.723711 1_555
O9 Y0 3.028898 1_654
O10 Tm3 2.198491 1_565
O10 Tm1 2.217390 1_655
O10 Y3 2.239249 1_565
O10 Y2 2.723711 1_555
O10 Y0 3.028898 1_655
O11 Y1 2.236569 1_555
O11 Tm1 2.279538 1_655
O11 Tm0 2.279538 1_656
O11 Y0 2.368463 1_655
