# generated using pymatgen
data_Li5Sc2Fe3(SiO3)10
_symmetry_space_group_name_H-M   'P 1'
_cell_length_a   22.80448219
_cell_length_b   22.80448219
_cell_length_c   5.38118351
_cell_angle_alpha   85.63481947
_cell_angle_beta   85.63481947
_cell_angle_gamma   154.99867888
_symmetry_Int_Tables_number   1
_chemical_formula_structural   Li5Sc2Fe3(SiO3)10
_chemical_formula_sum   'Li10 Sc4 Fe6 Si20 O60'
_cell_volume   1107.20068112
_cell_formula_units_Z   2
loop_
 _symmetry_equiv_pos_site_id
 _symmetry_equiv_pos_as_xyz
  1  'x, y, z'
loop_
 _atom_site_type_symbol
 _atom_site_label
 _atom_site_symmetry_multiplicity
 _atom_site_fract_x
 _atom_site_fract_y
 _atom_site_fract_z
 _atom_site_occupancy
  Li  Li0  1  0.35047300  0.64952700  0.00000000  1
  Li  Li1  1  0.45071500  0.54928500  0.50000000  1
  Li  Li2  1  0.25033600  0.74966400  0.50000000  1
  Li  Li3  1  0.05079600  0.94920400  0.50000000  1
  Li  Li4  1  0.14993300  0.85006700  0.00000000  1
  Li  Li5  1  0.85051600  0.14948400  0.50000000  1
  Li  Li6  1  0.75030600  0.24969400  0.00000000  1
  Li  Li7  1  0.55082700  0.44917300  0.00000000  1
  Li  Li8  1  0.95057000  0.04943000  0.00000000  1
  Li  Li9  1  0.64932100  0.35067900  0.50000000  1
  Sc  Sc0  1  0.17907500  0.82092500  0.50000000  1
  Sc  Sc1  1  0.37956200  0.62043800  0.50000000  1
  Sc  Sc2  1  0.77943300  0.22056700  0.50000000  1
  Sc  Sc3  1  0.97981600  0.02018400  0.50000000  1
  Fe  Fe0  1  0.42163400  0.57836600  0.00000000  1
  Fe  Fe1  1  0.22128200  0.77871800  0.00000000  1
  Fe  Fe2  1  0.02150000  0.97850000  0.00000000  1
  Fe  Fe3  1  0.62076300  0.37923700  0.00000000  1
  Fe  Fe4  1  0.82140300  0.17859700  0.00000000  1
  Fe  Fe5  1  0.57919200  0.42080800  0.50000000  1
  Si  Si0  1  0.68463100  0.71920800  0.02327800  1
  Si  Si1  1  0.71455500  0.87930000  0.47938500  1
  Si  Si2  1  0.52064300  0.88567900  0.52075400  1
  Si  Si3  1  0.67982500  0.91536600  0.97532500  1
  Si  Si4  1  0.48446500  0.92022800  0.02482100  1
  Si  Si5  1  0.07977200  0.51553500  0.97517900  1
  Si  Si6  1  0.28079200  0.31536900  0.97672200  1
  Si  Si7  1  0.87758100  0.71378300  0.98134300  1
  Si  Si8  1  0.88426100  0.52042400  0.02406700  1
  Si  Si9  1  0.08463400  0.32017500  0.02467500  1
  Si  Si10  1  0.11432100  0.47935700  0.47924600  1
  Si  Si11  1  0.91145000  0.67751600  0.48161400  1
  Si  Si12  1  0.92061600  0.48599700  0.52006000  1
  Si  Si13  1  0.71997100  0.68339200  0.51918800  1
  Si  Si14  1  0.12070000  0.28544500  0.52061500  1
  Si  Si15  1  0.51400300  0.07938400  0.47994000  1
  Si  Si16  1  0.32248400  0.08855000  0.51838600  1
  Si  Si17  1  0.47957600  0.11573900  0.97593300  1
  Si  Si18  1  0.28621700  0.12241900  0.01865700  1
  Si  Si19  1  0.31660800  0.28002900  0.48081200  1
  O  O0  1  0.75643300  0.95577800  0.69123800  1
  O  O1  1  0.82089900  0.92011500  0.41032600  1
  O  O2  1  0.74979800  0.95144100  0.19669600  1
  O  O3  1  0.86436800  0.89744900  0.91131500  1
  O  O4  1  0.44835200  0.85025000  0.80341700  1
  O  O5  1  0.64887800  0.64886800  0.80327000  1
  O  O6  1  0.48013500  0.77959800  0.58985700  1
  O  O7  1  0.28315700  0.98333900  0.58320800  1
  O  O8  1  0.53559700  0.70000700  0.60399800  1
  O  O9  1  0.33495800  0.90020000  0.60460000  1
  O  O10  1  0.44411100  0.84358800  0.30872000  1
  O  O11  1  0.37732400  0.87901500  0.08940600  1
  O  O12  1  0.57793100  0.67859000  0.08679200  1
  O  O13  1  0.30144000  0.93587800  0.08811500  1
  O  O14  1  0.50205400  0.73548200  0.08815300  1
  O  O15  1  0.35113200  0.35112200  0.19673000  1
  O  O16  1  0.26451800  0.49794600  0.91184700  1
  O  O17  1  0.06412200  0.69856000  0.91188500  1
  O  O18  1  0.91900500  0.82101500  0.91336900  1
  O  O19  1  0.12098500  0.62267600  0.91059400  1
  O  O20  1  0.32141000  0.42206900  0.91320800  1
  O  O21  1  0.95204500  0.75239700  0.69612600  1
  O  O22  1  0.15641200  0.55588900  0.69128000  1
  O  O23  1  0.09980000  0.66504200  0.39540000  1
  O  O24  1  0.89922500  0.86284000  0.39634300  1
  O  O25  1  0.29999300  0.46440300  0.39600200  1
  O  O26  1  0.22040200  0.51986500  0.41014300  1
  O  O27  1  0.01666100  0.71684300  0.41679200  1
  O  O28  1  0.95119800  0.75336900  0.19727000  1
  O  O29  1  0.14975000  0.55164800  0.19658300  1
  O  O30  1  0.04422200  0.24356700  0.30876200  1
  O  O31  1  0.84412300  0.44408600  0.30816100  1
  O  O32  1  0.97762300  0.27911700  0.08910000  1
  O  O33  1  0.77704400  0.47921500  0.08667500  1
  O  O34  1  0.69932100  0.53350200  0.10048900  1
  O  O35  1  0.10255100  0.13563200  0.08868500  1
  O  O36  1  0.90188200  0.33565000  0.08795300  1
  O  O37  1  0.84839700  0.45029500  0.80361100  1
  O  O38  1  0.04855900  0.25020200  0.80330400  1
  O  O39  1  0.07988500  0.17910100  0.58967400  1
  O  O40  1  0.88041200  0.38014200  0.58838600  1
  O  O41  1  0.67824000  0.57608800  0.58763000  1
  O  O42  1  0.73147500  0.49869600  0.60175900  1
  O  O43  1  0.93538700  0.30013500  0.60428900  1
  O  O44  1  0.64380900  0.64255100  0.30824200  1
  O  O45  1  0.50130400  0.26852500  0.39824100  1
  O  O46  1  0.69986500  0.06461300  0.39571100  1
  O  O47  1  0.42391200  0.32176000  0.41237000  1
  O  O48  1  0.61985800  0.11958800  0.41161400  1
  O  O49  1  0.54970500  0.15160300  0.19638900  1
  O  O50  1  0.46649800  0.30067900  0.89951100  1
  O  O51  1  0.66435000  0.09811800  0.91204700  1
  O  O52  1  0.72088300  0.02237700  0.91090000  1
  O  O53  1  0.52078500  0.22295600  0.91332500  1
  O  O54  1  0.35744900  0.35619100  0.69175800  1
  O  O55  1  0.55591400  0.15587700  0.69183900  1
  O  O56  1  0.13716000  0.10077500  0.60365700  1
  O  O57  1  0.24760300  0.04795500  0.30387400  1
  O  O58  1  0.17898500  0.08099500  0.08663100  1
  O  O59  1  0.24663100  0.04880200  0.80273000  1
loop_
_geom_bond_atom_site_label_1
_geom_bond_atom_site_label_2
_geom_bond_distance
_geom_bond_site_symmetry_2
Li0 O16 2.031181 1_554
Li0 O14 2.031181 1_555
Li0 O26 2.127170 1_555
Li0 O6 2.127170 1_554
Li1 O25 2.066903 1_555
Li1 O8 2.066903 1_555
Li1 O12 2.137646 1_555
Li1 O20 2.137646 1_555
Li2 O9 2.068144 1_555
Li2 O23 2.068144 1_555
Li2 O19 2.125894 1_555
Li2 O11 2.125894 1_555
Li3 O24 2.063693 1_455
Li3 O56 2.063693 1_565
Li3 O58 2.143292 1_565
Li3 O18 2.143292 1_455
Li4 O13 2.031504 1_555
Li4 O17 2.031504 1_554
Li4 O27 2.164667 1_555
Li4 O7 2.164667 1_554
Li5 O43 2.066424 1_555
Li5 O46 2.066424 1_555
Li5 O32 2.127809 1_555
Li5 O52 2.127809 1_555
Li6 O36 2.030602 1_555
Li6 O51 2.030602 1_554
Li6 O48 2.134664 1_555
Li6 O40 2.134664 1_554
Li7 O34 2.022614 1_555
Li7 O50 2.022614 1_554
Li7 O47 2.130979 1_555
Li7 O41 2.130979 1_554
Li8 O3 2.036987 1_544
Li8 O35 2.036987 1_655
Li8 O39 2.127106 1_654
Li8 O1 2.127106 1_545
Li9 O42 2.044116 1_555
Li9 O45 2.044116 1_555
Li9 O33 2.137448 1_555
Li9 O53 2.137448 1_555
Fe0 O12 1.948282 1_555
Fe0 O20 1.948282 1_554
Fe0 O25 2.044453 1_555
Fe0 O8 2.044453 1_554
Fe0 O14 2.215094 1_555
Fe0 O16 2.215094 1_554
Fe1 O11 1.949592 1_555
Fe1 O19 1.949592 1_554
Fe1 O9 2.041520 1_554
Fe1 O23 2.041520 1_555
Fe1 O17 2.219619 1_554
Fe1 O13 2.219619 1_555
Fe2 O18 1.945181 1_454
Fe2 O58 1.945181 1_565
Fe2 O56 2.046513 1_564
Fe2 O24 2.046513 1_455
Fe2 O35 2.207651 1_565
Fe2 O3 2.207651 1_454
Fe3 O33 1.950325 1_555
Fe3 O53 1.950325 1_554
Fe3 O45 2.051559 1_555
Fe3 O42 2.051559 1_554
Fe3 O50 2.211605 1_554
Fe3 O34 2.211605 1_555
Fe4 O52 1.949629 1_554
Fe4 O32 1.949629 1_555
Fe4 O43 2.042823 1_554
Fe4 O46 2.042823 1_555
Fe4 O51 2.212558 1_554
Fe4 O36 2.212558 1_555
Fe5 O47 1.944741 1_555
Fe5 O41 1.944741 1_555
Fe5 O34 2.057273 1_555
Fe5 O50 2.057273 1_555
Fe5 O45 2.184395 1_555
Fe5 O42 2.184395 1_555
O0 Si3 1.642877 1_555
O0 Si1 1.644005 1_555
O1 Si1 1.613805 1_555
O1 Sc3 2.004371 1_565
O2 Si3 1.643524 1_554
O2 Si1 1.644016 1_555
O3 Si0 1.654590 1_556
O3 Sc3 2.115994 1_565
O4 Si4 1.643457 1_556
O4 Si2 1.643498 1_555
O5 Si0 1.644645 1_556
O5 Si13 1.646537 1_555
O6 Si2 1.613672 1_555
O6 Sc1 2.003707 1_555
O7 Si16 1.614700 1_565
O7 Sc0 2.007911 1_555
O8 Si1 1.656143 1_555
O8 Sc1 2.240899 1_555
O9 Si15 1.656036 1_565
O9 Sc0 2.243368 1_555
O10 Si4 1.643042 1_555
O10 Si2 1.643938 1_555
O11 Si4 1.622502 1_555
O12 Si0 1.623376 1_555
O13 Si17 1.654776 1_564
O13 Sc0 2.118024 1_555
O14 Si3 1.653381 1_554
O14 Sc1 2.118112 1_555
O15 Si6 1.644645 1_554
O15 Si19 1.646537 1_555
O16 Si9 1.653381 1_556
O16 Sc1 2.118112 1_555
O17 Si8 1.654776 1_456
O17 Sc0 2.118024 1_555
O18 Si7 1.621757 1_555
O19 Si5 1.622502 1_555
O20 Si6 1.623376 1_555
O21 Si7 1.643700 1_555
O21 Si11 1.644016 1_555
O22 Si5 1.643042 1_555
O22 Si10 1.643938 1_555
O23 Si12 1.656036 1_455
O23 Sc0 2.243368 1_555
O24 Si13 1.657945 1_555
O24 Sc3 2.251950 1_565
O25 Si14 1.656143 1_555
O25 Sc1 2.240899 1_555
O26 Si10 1.613672 1_555
O26 Sc1 2.003707 1_555
O27 Si11 1.614700 1_455
O27 Sc0 2.007911 1_555
O28 Si7 1.641039 1_554
O28 Si11 1.642847 1_555
O29 Si5 1.643457 1_554
O29 Si10 1.643498 1_555
O30 Si9 1.642877 1_555
O30 Si14 1.644005 1_555
O31 Si8 1.642887 1_555
O31 Si12 1.644161 1_555
O32 Si9 1.622429 1_655
O33 Si8 1.623693 1_555
O34 Si7 1.657467 1_554
O35 Si6 1.654590 1_554
O35 Sc3 2.115994 1_455
O36 Si5 1.653867 1_654
O36 Sc2 2.118883 1_555
O37 Si8 1.643028 1_556
O37 Si12 1.643564 1_555
O38 Si9 1.643524 1_556
O38 Si14 1.644016 1_555
O39 Si14 1.613805 1_555
O39 Sc3 2.004371 1_455
O40 Si12 1.613984 1_555
O40 Sc2 2.003097 1_555
O41 Si13 1.617901 1_555
O42 Si11 1.658292 1_555
O43 Si10 1.655775 1_655
O43 Sc2 2.239978 1_555
O44 Si0 1.642823 1_555
O44 Si13 1.643636 1_555
O45 Si16 1.658292 1_555
O46 Si2 1.655775 1_545
O46 Sc2 2.239978 1_555
O47 Si19 1.617901 1_555
O48 Si15 1.613984 1_555
O48 Sc2 2.003097 1_555
O49 Si17 1.643028 1_554
O49 Si15 1.643564 1_555
O50 Si18 1.657467 1_556
O51 Si4 1.653867 1_546
O51 Sc2 2.118883 1_555
O52 Si3 1.622429 1_545
O53 Si17 1.623693 1_555
O54 Si6 1.642823 1_555
O54 Si19 1.643636 1_555
O55 Si17 1.642887 1_555
O55 Si15 1.644161 1_555
O56 Si19 1.657945 1_555
O56 Sc3 2.251950 1_455
O57 Si18 1.643700 1_555
O57 Si16 1.644016 1_555
O58 Si18 1.621757 1_555
O59 Si18 1.641039 1_556
O59 Si16 1.642847 1_555
