# generated using pymatgen
data_Ti2Cu3Te3O16
_symmetry_space_group_name_H-M   'P 1'
_cell_length_a   6.28558311
_cell_length_b   6.28558311
_cell_length_c   9.27844019
_cell_angle_alpha   86.85677727
_cell_angle_beta   86.85677727
_cell_angle_gamma   56.62816483
_symmetry_Int_Tables_number   1
_chemical_formula_structural   Ti2Cu3Te3O16
_chemical_formula_sum   'Ti2 Cu3 Te3 O16'
_cell_volume   305.54145688
_cell_formula_units_Z   1
loop_
 _symmetry_equiv_pos_site_id
 _symmetry_equiv_pos_as_xyz
  1  'x, y, z'
loop_
 _atom_site_type_symbol
 _atom_site_label
 _atom_site_symmetry_multiplicity
 _atom_site_fract_x
 _atom_site_fract_y
 _atom_site_fract_z
 _atom_site_occupancy
  Ti  Ti0  1  0.64472900  0.64472900  0.46415800  1
  Ti  Ti1  1  0.31239500  0.31239500  0.00982600  1
  Cu  Cu0  1  0.82876400  0.33068100  0.19823400  1
  Cu  Cu1  1  0.33068100  0.82876400  0.19823400  1
  Cu  Cu2  1  0.17715900  0.17715900  0.71289300  1
  Te  Te0  1  0.82728600  0.82728600  0.21844400  1
  Te  Te1  1  0.67444100  0.17706200  0.71383300  1
  Te  Te2  1  0.17706200  0.67444100  0.71383300  1
  O  O0  1  0.83635600  0.33197400  0.61212600  1
  O  O1  1  0.52953600  0.52953600  0.33749200  1
  O  O2  1  0.67746400  0.67746400  0.11203400  1
  O  O3  1  0.98736600  0.98736600  0.29360900  1
  O  O4  1  0.98366200  0.98366200  0.83310000  1
  O  O5  1  0.33197400  0.83635600  0.61212600  1
  O  O6  1  0.96094200  0.54526500  0.36265300  1
  O  O7  1  0.54526500  0.96094200  0.36265300  1
  O  O8  1  0.16255700  0.16255700  0.08909300  1
  O  O9  1  0.85881900  0.85881900  0.60212300  1
  O  O10  1  0.48953000  0.05717900  0.82588800  1
  O  O11  1  0.05717900  0.48953000  0.82588800  1
  O  O12  1  0.37492300  0.37492300  0.58827900  1
  O  O13  1  0.63367100  0.14109700  0.09466600  1
  O  O14  1  0.48201500  0.48201500  0.84115800  1
  O  O15  1  0.14109700  0.63367100  0.09466600  1
loop_
_geom_bond_atom_site_label_1
_geom_bond_atom_site_label_2
_geom_bond_distance
_geom_bond_site_symmetry_2
Cu0 O2 1.976622 1_555
Cu0 O3 1.988529 1_545
Cu0 O8 1.997331 1_655
Cu0 O1 2.023268 1_555
Cu0 O13 2.389479 1_555
Cu0 O6 2.536580 1_555
Cu1 O2 1.976622 1_555
Cu1 O3 1.988529 1_455
Cu1 O8 1.997331 1_565
Cu1 O1 2.023268 1_555
Cu1 O15 2.389479 1_555
Cu1 O7 2.536580 1_555
Cu2 O10 2.008241 1_555
Cu2 O11 2.008241 1_555
Cu2 O5 2.058266 1_545
Cu2 O0 2.058266 1_455
Cu2 O4 2.352086 1_445
Cu2 O12 2.410803 1_555
O0 Te1 1.938698 1_555
O0 Ti0 2.116754 1_555
O1 Ti0 1.786938 1_555
O2 Te0 1.981927 1_555
O3 Te0 1.943958 1_555
O4 Te2 1.992250 1_655
O4 Te1 1.992250 1_565
O5 Te2 1.938698 1_555
O5 Ti0 2.116754 1_555
O6 Ti0 1.928882 1_555
O6 Te0 1.965518 1_555
O7 Ti0 1.928882 1_555
O7 Te0 1.965518 1_555
O8 Ti1 1.771693 1_555
O9 Te2 1.990990 1_655
O9 Te1 1.990990 1_565
O10 Te1 1.935134 1_555
O10 Ti1 2.202870 1_556
O11 Te2 1.935134 1_555
O11 Ti1 2.202870 1_556
O12 Te2 1.988452 1_555
O12 Te1 1.988452 1_555
O13 Ti1 1.883160 1_555
O13 Te0 1.988643 1_545
O14 Te1 2.018363 1_555
O14 Te2 2.018363 1_555
O14 Ti1 2.367936 1_556
O15 Ti1 1.883160 1_555
O15 Te0 1.988643 1_455
