# generated using pymatgen
data_NbAlO4
_symmetry_space_group_name_H-M   'P 1'
_cell_length_a   3.80337907
_cell_length_b   6.39871737
_cell_length_c   12.99407941
_cell_angle_alpha   102.38167949
_cell_angle_beta   98.41606285
_cell_angle_gamma   72.68996407
_symmetry_Int_Tables_number   1
_chemical_formula_structural   NbAlO4
_chemical_formula_sum   'Nb4 Al4 O16'
_cell_volume   293.73077156
_cell_formula_units_Z   4
loop_
 _symmetry_equiv_pos_site_id
 _symmetry_equiv_pos_as_xyz
  1  'x, y, z'
loop_
 _atom_site_type_symbol
 _atom_site_label
 _atom_site_symmetry_multiplicity
 _atom_site_fract_x
 _atom_site_fract_y
 _atom_site_fract_z
 _atom_site_occupancy
  Nb  Nb0  1  0.80214000  0.50587300  0.11451000  1
  Nb  Nb1  1  0.10320200  0.40150500  0.61477100  1
  Nb  Nb2  1  0.19267500  0.99124000  0.38316900  1
  Nb  Nb3  1  0.89175700  0.09563700  0.88292900  1
  Al  Al0  1  0.09360200  0.90022500  0.09249500  1
  Al  Al1  1  0.80136100  0.98618900  0.59514700  1
  Al  Al2  1  0.90118200  0.59684500  0.40518500  1
  Al  Al3  1  0.19351900  0.51094900  0.90255800  1
  O  O0  1  0.13350600  0.96738400  0.24045700  1
  O  O1  1  0.73858600  0.94306700  0.42664100  1
  O  O2  1  0.62974200  0.83204700  0.09663800  1
  O  O3  1  0.36507800  0.66506200  0.40109100  1
  O  O4  1  0.25623200  0.55399800  0.07100500  1
  O  O5  1  0.05646600  0.81959600  0.93710200  1
  O  O6  1  0.93844300  0.67749100  0.56059600  1
  O  O7  1  0.86125800  0.52962900  0.25721200  1
  O  O8  1  0.12969200  0.49317100  0.75813000  1
  O  O9  1  0.05736500  0.31098200  0.43181600  1
  O  O10  1  0.93749400  0.18610000  0.06590300  1
  O  O11  1  0.72971200  0.45549900  0.91942500  1
  O  O12  1  0.64553700  0.30508300  0.60266700  1
  O  O13  1  0.34940500  0.19203600  0.89502800  1
  O  O14  1  0.26528000  0.04160400  0.57830900  1
  O  O15  1  0.86532100  0.00403100  0.73960700  1
loop_
_geom_bond_atom_site_label_1
_geom_bond_atom_site_label_2
_geom_bond_distance
_geom_bond_site_symmetry_2
Nb0 O7 1.813681 1_555
Nb0 O10 1.940295 1_555
Nb0 O4 2.018453 1_655
Nb0 O4 2.018909 1_555
Nb0 O2 2.046642 1_555
Nb0 O11 2.470582 1_554
Nb1 O8 1.826455 1_555
Nb1 O6 1.937084 1_455
Nb1 O12 1.988135 1_455
Nb1 O12 1.989013 1_555
Nb1 O14 2.163480 1_555
Nb1 O9 2.316430 1_555
Nb2 O0 1.813746 1_555
Nb2 O9 1.940188 1_565
Nb2 O1 2.018398 1_455
Nb2 O1 2.018822 1_555
Nb2 O3 2.046852 1_555
Nb2 O14 2.471288 1_565
Nb3 O15 1.825956 1_555
Nb3 O5 1.937385 1_645
Nb3 O13 1.988000 1_655
Nb3 O13 1.989067 1_555
Nb3 O11 2.163261 1_555
Nb3 O10 2.316648 1_556
Al0 O10 1.839215 1_465
Al0 O0 1.871707 1_555
Al0 O2 1.949329 1_555
Al0 O2 1.949775 1_455
Al0 O5 1.968853 1_554
Al0 O4 2.082885 1_555
Al1 O15 1.840317 1_565
Al1 O6 1.857539 1_555
Al1 O12 1.932945 1_565
Al1 O14 1.950193 1_565
Al1 O14 1.950772 1_665
Al1 O1 2.134124 1_555
Al2 O9 1.839322 1_655
Al2 O7 1.871857 1_555
Al2 O3 1.949225 1_555
Al2 O3 1.949900 1_655
Al2 O6 1.969084 1_555
Al2 O1 2.082877 1_555
Al3 O8 1.839953 1_555
Al3 O5 1.857232 1_555
Al3 O13 1.933044 1_555
Al3 O11 1.950570 1_455
Al3 O11 1.950584 1_555
Al3 O4 2.133398 1_556
