# generated using pymatgen
data_Ti2N2O
_symmetry_space_group_name_H-M   'P 1'
_cell_length_a   8.20836800
_cell_length_b   8.22448788
_cell_length_c   8.22417966
_cell_angle_alpha   109.43672948
_cell_angle_beta   109.39175123
_cell_angle_gamma   109.46567183
_symmetry_Int_Tables_number   1
_chemical_formula_structural   Ti2N2O
_chemical_formula_sum   'Ti16 N16 O8'
_cell_volume   428.03091561
_cell_formula_units_Z   8
loop_
 _symmetry_equiv_pos_site_id
 _symmetry_equiv_pos_as_xyz
  1  'x, y, z'
loop_
 _atom_site_type_symbol
 _atom_site_label
 _atom_site_symmetry_multiplicity
 _atom_site_fract_x
 _atom_site_fract_y
 _atom_site_fract_z
 _atom_site_occupancy
  Ti  Ti0  1  0.20480700  0.24707200  0.95356400  1
  Ti  Ti1  1  0.99881300  0.48740100  0.99095400  1
  Ti  Ti2  1  0.23783200  0.53678400  0.78466500  1
  Ti  Ti3  1  0.75577400  0.96250000  0.70730900  1
  Ti  Ti4  1  0.03869300  0.28876000  0.25417300  1
  Ti  Ti5  1  0.53167900  0.78691500  0.24671200  1
  Ti  Ti6  1  0.99940700  0.98805400  0.48537000  1
  Ti  Ti7  1  0.51038100  0.02071800  0.01534700  1
  Ti  Ti8  1  0.30689500  0.75530800  0.54432700  1
  Ti  Ti9  1  0.49526800  0.49680000  0.49896900  1
  Ti  Ti10  1  0.70809700  0.26012500  0.46115300  1
  Ti  Ti11  1  0.46610100  0.20399700  0.75444500  1
  Ti  Ti12  1  0.95359000  0.70861100  0.74161600  1
  Ti  Ti13  1  0.26088200  0.04145600  0.30581100  1
  Ti  Ti14  1  0.74454100  0.45814300  0.20259000  1
  Ti  Ti15  1  0.78817100  0.74614800  0.04684600  1
  N  N0  1  0.49262200  0.72734600  0.45169000  1
  N  N1  1  0.27485500  0.53996600  0.04668900  1
  N  N2  1  0.44801200  0.98617000  0.22445800  1
  N  N3  1  0.26426500  0.48924000  0.54033700  1
  N  N4  1  0.00922600  0.95890500  0.73573700  1
  N  N5  1  0.45751200  0.23422200  0.01079200  1
  N  N6  1  0.22390800  0.94615400  0.48899500  1
  N  N7  1  0.96167100  0.44870400  0.72453200  1
  N  N8  1  0.77485700  0.22712900  0.23310800  1
  N  N9  1  0.99454300  0.04122300  0.26682300  1
  N  N10  1  0.73862000  0.51539000  0.46465700  1
  N  N11  1  0.54921900  0.00943100  0.77639200  1
  N  N12  1  0.76444600  0.72844400  0.27579100  1
  N  N13  1  0.94923600  0.22575800  0.96085900  1
  N  N14  1  0.50694500  0.27646100  0.54827300  1
  N  N15  1  0.72643000  0.46326800  0.95236300  1
  O  O0  1  0.23179800  0.27401900  0.72558800  1
  O  O1  1  0.04207500  0.77448300  0.03392000  1
  O  O2  1  0.22588000  0.77174700  0.76895400  1
  O  O3  1  0.77620600  0.05284400  0.51431500  1
  O  O4  1  0.27836500  0.27219900  0.22578300  1
  O  O5  1  0.54204500  0.76410500  0.98680100  1
  O  O6  1  0.04310500  0.55154700  0.27489800  1
  O  O7  1  0.72322800  0.73245300  0.77439100  1
loop_
_geom_bond_atom_site_label_1
_geom_bond_atom_site_label_2
_geom_bond_distance
_geom_bond_site_symmetry_2
N0 Ti8 1.961073 1_555
N0 Ti5 1.997127 1_555
N0 Ti9 2.063846 1_555
N0 Ti3 2.078480 1_555
N1 Ti5 1.973628 1_555
N1 Ti1 2.014115 1_454
N1 Ti2 2.063750 1_554
N1 Ti0 2.067989 1_554
N2 Ti13 1.989789 1_565
N2 Ti5 2.014190 1_555
N2 Ti7 2.028136 1_565
N2 Ti10 2.130511 1_565
N3 Ti2 2.015140 1_555
N3 Ti9 2.019632 1_555
N3 Ti4 2.043232 1_555
N3 Ti8 2.084779 1_555
N4 Ti12 1.975557 1_455
N4 Ti3 2.026405 1_455
N4 Ti0 2.032794 1_565
N4 Ti6 2.129533 1_455
N5 Ti7 1.952945 1_555
N5 Ti0 2.016507 1_554
N5 Ti14 2.034114 1_555
N5 Ti11 2.067135 1_554
N6 Ti13 1.976636 1_565
N6 Ti6 1.977145 1_455
N6 Ti8 2.029015 1_555
N6 Ti11 2.107676 1_565
N7 Ti2 1.957182 1_655
N7 Ti1 2.005692 1_555
N7 Ti10 2.012067 1_555
N7 Ti12 2.119974 1_555
N8 Ti7 1.934093 1_555
N8 Ti4 1.984397 1_655
N8 Ti14 2.079860 1_555
N8 Ti10 2.081883 1_555
N9 Ti6 1.977479 1_545
N9 Ti4 1.990269 1_655
N9 Ti15 2.082085 1_545
N9 Ti13 2.100863 1_655
N10 Ti12 1.969853 1_555
N10 Ti10 2.018800 1_555
N10 Ti14 2.068514 1_555
N10 Ti9 2.071854 1_555
N11 Ti11 1.974035 1_555
N11 Ti8 2.005202 1_545
N11 Ti3 2.067926 1_545
N11 Ti7 2.070419 1_556
N12 Ti6 1.961663 1_555
N12 Ti15 2.002858 1_555
N12 Ti14 2.033010 1_555
N12 Ti5 2.079538 1_555
N13 Ti1 1.962769 1_555
N13 Ti3 2.015598 1_545
N13 Ti0 2.068976 1_655
N13 Ti4 2.089260 1_656
N14 Ti13 1.987485 1_555
N14 Ti9 2.009124 1_555
N14 Ti10 2.031504 1_555
N14 Ti11 2.063857 1_555
N15 Ti15 2.005726 1_556
N15 Ti11 2.026348 1_555
N15 Ti14 2.029194 1_556
N15 Ti1 2.080892 1_555
O0 Ti2 2.030462 1_555
O0 Ti0 2.033021 1_555
O0 Ti6 2.118553 1_445
O0 Ti11 2.147768 1_555
O1 Ti15 2.061346 1_455
O1 Ti12 2.076435 1_454
O1 Ti13 2.117578 1_565
O1 Ti1 2.151363 1_454
O2 Ti2 2.011169 1_555
O2 Ti12 2.032427 1_455
O2 Ti8 2.140742 1_555
O2 Ti7 2.159104 1_566
O3 Ti3 1.994517 1_545
O3 Ti10 2.092591 1_555
O3 Ti6 2.133805 1_545
O3 Ti5 2.143159 1_545
O4 Ti9 2.004893 1_555
O4 Ti0 2.032409 1_554
O4 Ti4 2.099011 1_555
O4 Ti13 2.183502 1_555
O5 Ti15 1.982966 1_556
O5 Ti5 2.115682 1_556
O5 Ti2 2.134913 1_555
O5 Ti7 2.157146 1_566
O6 Ti8 2.081089 1_555
O6 Ti1 2.086183 1_454
O6 Ti4 2.097640 1_555
O6 Ti14 2.103153 1_455
O7 Ti9 2.057928 1_555
O7 Ti12 2.058396 1_555
O7 Ti15 2.077619 1_556
O7 Ti3 2.100276 1_555
