# generated using pymatgen
data_Li3CoNi3O8
_symmetry_space_group_name_H-M   'P 1'
_cell_length_a   5.71422413
_cell_length_b   5.69717059
_cell_length_c   9.27006443
_cell_angle_alpha   89.97425564
_cell_angle_beta   90.13395020
_cell_angle_gamma   120.30947860
_symmetry_Int_Tables_number   1
_chemical_formula_structural   Li3CoNi3O8
_chemical_formula_sum   'Li6 Co2 Ni6 O16'
_cell_volume   260.53478689
_cell_formula_units_Z   2
loop_
 _symmetry_equiv_pos_site_id
 _symmetry_equiv_pos_as_xyz
  1  'x, y, z'
loop_
 _atom_site_type_symbol
 _atom_site_label
 _atom_site_symmetry_multiplicity
 _atom_site_fract_x
 _atom_site_fract_y
 _atom_site_fract_z
 _atom_site_occupancy
  Li  Li0  1  0.16209800  0.82884900  0.05192800  1
  Li  Li1  1  0.66884900  0.83855600  0.05151100  1
  Li  Li2  1  0.17200700  0.33358700  0.05201900  1
  Li  Li3  1  0.83862900  0.66371400  0.55183000  1
  Li  Li4  1  0.33610300  0.17443500  0.55156400  1
  Li  Li5  1  0.82549800  0.16119800  0.55122200  1
  Co  Co0  1  0.33244000  0.66666500  0.51355400  1
  Co  Co1  1  0.66679200  0.33400800  0.01302300  1
  Ni  Ni0  1  0.16363900  0.82503900  0.78607000  1
  Ni  Ni1  1  0.66056900  0.83747300  0.78528600  1
  Ni  Ni2  1  0.17298200  0.33707600  0.78636900  1
  Ni  Ni3  1  0.83507800  0.66039100  0.28652500  1
  Ni  Ni4  1  0.33996400  0.17448100  0.28644700  1
  Ni  Ni5  1  0.82499200  0.16502600  0.28631800  1
  O  O0  1  0.15224600  0.82234000  0.41209800  1
  O  O1  1  0.46204500  0.96332300  0.64916500  1
  O  O2  1  0.66656600  0.84688800  0.41252800  1
  O  O3  1  0.33080200  0.66350600  0.89131500  1
  O  O4  1  0.03845100  0.49927400  0.64761800  1
  O  O5  1  0.50206000  0.54158100  0.64993600  1
  O  O6  1  0.84580300  0.66556400  0.91174200  1
  O  O7  1  0.17851200  0.33458000  0.41205900  1
  O  O8  1  0.53818000  0.50037000  0.14904100  1
  O  O9  1  0.66672300  0.33546200  0.39558000  1
  O  O10  1  0.99960200  0.99815100  0.18742000  1
  O  O11  1  0.96294200  0.46359800  0.14861400  1
  O  O12  1  0.00094800  0.00079000  0.68643500  1
  O  O13  1  0.33009000  0.17748200  0.91397800  1
  O  O14  1  0.50370900  0.03871700  0.14738300  1
  O  O15  1  0.82185700  0.14787200  0.91153800  1
loop_
_geom_bond_atom_site_label_1
_geom_bond_atom_site_label_2
_geom_bond_distance
_geom_bond_site_symmetry_2
Li0 O14 1.913156 1_565
Li0 O11 2.010329 1_455
Li0 O6 2.028265 1_454
Li0 O10 2.068969 1_455
Li0 O13 2.140303 1_564
Li0 O3 2.226657 1_554
Li1 O8 1.907002 1_555
Li1 O15 2.000411 1_564
Li1 O14 2.017846 1_565
Li1 O10 2.059490 1_555
Li1 O6 2.164640 1_554
Li1 O3 2.230414 1_554
Li2 O11 1.917381 1_455
Li2 O13 2.015379 1_554
Li2 O8 2.018693 1_555
Li2 O10 2.073989 1_445
Li2 O15 2.161252 1_454
Li2 O3 2.204070 1_554
Li3 O5 1.914933 1_555
Li3 O4 2.011004 1_655
Li3 O0 2.020212 1_655
Li3 O12 2.074623 1_665
Li3 O9 2.168371 1_555
Li3 O2 2.179858 1_555
Li4 O1 1.911212 1_545
Li4 O5 2.025248 1_555
Li4 O7 2.034339 1_555
Li4 O12 2.075428 1_555
Li4 O0 2.160534 1_545
Li4 O9 2.182638 1_555
Li5 O4 1.902588 1_655
Li5 O2 2.009853 1_545
Li5 O1 2.013273 1_545
Li5 O12 2.080685 1_655
Li5 O7 2.169999 1_655
Li5 O9 2.189130 1_555
Co0 O7 1.885845 1_555
Co0 O2 1.898799 1_555
Co0 O0 1.909933 1_555
Co0 O4 1.915140 1_555
Co0 O1 1.928598 1_555
Co0 O5 1.932944 1_555
Co1 O6 1.883758 1_554
Co1 O13 1.897550 1_554
Co1 O14 1.916018 1_555
Co1 O11 1.928358 1_555
Co1 O8 1.933064 1_555
Co1 O15 1.935961 1_554
Ni0 O3 1.895598 1_555
Ni0 O12 1.911700 1_565
Ni0 O1 1.947357 1_555
Ni0 O6 1.955665 1_455
Ni0 O4 2.064292 1_555
Ni0 O13 2.100374 1_565
Ni1 O3 1.903138 1_555
Ni1 O12 1.915571 1_665
Ni1 O5 1.921423 1_555
Ni1 O15 1.923061 1_565
Ni1 O1 2.051019 1_555
Ni1 O6 2.119731 1_555
Ni2 O3 1.876974 1_555
Ni2 O12 1.895132 1_555
Ni2 O4 1.952068 1_555
Ni2 O13 1.962136 1_555
Ni2 O5 2.071589 1_555
Ni2 O15 2.088240 1_455
Ni3 O9 1.892012 1_555
Ni3 O10 1.899261 1_555
Ni3 O8 1.939977 1_555
Ni3 O0 1.947902 1_655
Ni3 O11 2.063430 1_555
Ni3 O2 2.111756 1_555
Ni4 O9 1.901186 1_555
Ni4 O10 1.911793 1_445
Ni4 O14 1.967898 1_555
Ni4 O7 1.973402 1_555
Ni4 O8 2.057801 1_555
Ni4 O0 2.088988 1_545
Ni5 O9 1.917859 1_555
Ni5 O10 1.924162 1_545
Ni5 O11 1.947744 1_555
Ni5 O2 1.954582 1_545
Ni5 O14 2.050221 1_555
Ni5 O7 2.095945 1_655
