# generated using pymatgen
data_Mn2O3F
_symmetry_space_group_name_H-M   'P 1'
_cell_length_a   4.58694040
_cell_length_b   4.58694040
_cell_length_c   15.15738500
_cell_angle_alpha   90.00000000
_cell_angle_beta   90.00000000
_cell_angle_gamma   92.89730397
_symmetry_Int_Tables_number   1
_chemical_formula_structural   Mn2O3F
_chemical_formula_sum   'Mn10 O15 F5'
_cell_volume   318.50406461
_cell_formula_units_Z   5
loop_
 _symmetry_equiv_pos_site_id
 _symmetry_equiv_pos_as_xyz
  1  'x, y, z'
loop_
 _atom_site_type_symbol
 _atom_site_label
 _atom_site_symmetry_multiplicity
 _atom_site_fract_x
 _atom_site_fract_y
 _atom_site_fract_z
 _atom_site_occupancy
  Mn  Mn0  1  0.00145800  0.99854200  0.30042900  1
  Mn  Mn1  1  0.01195600  0.98804400  0.50000000  1
  Mn  Mn2  1  0.00145800  0.99854200  0.69957100  1
  Mn  Mn3  1  0.98389500  0.01610500  0.10052200  1
  Mn  Mn4  1  0.98389500  0.01610500  0.89947800  1
  Mn  Mn5  1  0.51927800  0.48072200  0.20006200  1
  Mn  Mn6  1  0.47992600  0.52007400  0.60002600  1
  Mn  Mn7  1  0.47992600  0.52007400  0.39997400  1
  Mn  Mn8  1  0.51927800  0.48072200  0.79993800  1
  Mn  Mn9  1  0.51468500  0.48531500  0.00000000  1
  O  O0  1  0.80956600  0.19043400  0.80006500  1
  O  O1  1  0.80956600  0.19043400  0.19993500  1
  O  O2  1  0.80443300  0.19556700  0.00000000  1
  O  O3  1  0.30926100  0.30784800  0.69980500  1
  O  O4  1  0.29420800  0.31584400  0.50000000  1
  O  O5  1  0.30926100  0.30784800  0.30019500  1
  O  O6  1  0.31171400  0.29948900  0.09990300  1
  O  O7  1  0.31171400  0.29948900  0.90009700  1
  O  O8  1  0.69215200  0.69073900  0.69980500  1
  O  O9  1  0.68415600  0.70579200  0.50000000  1
  O  O10  1  0.69215200  0.69073900  0.30019500  1
  O  O11  1  0.70051100  0.68828600  0.09990300  1
  O  O12  1  0.70051100  0.68828600  0.90009700  1
  O  O13  1  0.19086700  0.80913300  0.60051700  1
  O  O14  1  0.19086700  0.80913300  0.39948300  1
  F  F0  1  0.79091300  0.20908700  0.59488900  1
  F  F1  1  0.79091300  0.20908700  0.40511100  1
  F  F2  1  0.21051400  0.78948600  0.19511900  1
  F  F3  1  0.21051400  0.78948600  0.80488100  1
  F  F4  1  0.19045500  0.80954500  0.00000000  1
loop_
_geom_bond_atom_site_label_1
_geom_bond_atom_site_label_2
_geom_bond_distance
_geom_bond_site_symmetry_2
Mn0 O10 1.950334 1_455
Mn0 O5 1.950334 1_565
Mn0 O14 1.959633 1_555
Mn0 O1 1.986966 1_465
Mn1 O13 1.932954 1_555
Mn1 O14 1.932954 1_555
Mn1 O4 1.933959 1_565
Mn1 O9 1.933959 1_455
Mn2 O8 1.950334 1_455
Mn2 O3 1.950334 1_565
Mn2 O13 1.959633 1_555
Mn2 O0 1.986966 1_465
Mn3 O1 1.901065 1_555
Mn3 O2 1.935270 1_555
Mn3 O11 1.937322 1_545
Mn3 O6 1.937322 1_655
Mn4 O0 1.901065 1_555
Mn4 O2 1.935270 1_556
Mn4 O12 1.937322 1_545
Mn4 O7 1.937322 1_655
Mn5 O1 1.930078 1_555
Mn5 O5 1.945035 1_555
Mn5 O10 1.945035 1_555
Mn5 O11 1.955069 1_555
Mn5 O6 1.955069 1_555
Mn6 O13 1.921920 1_555
Mn6 O3 1.941841 1_555
Mn6 O8 1.941841 1_555
Mn6 O4 1.954803 1_555
Mn6 O9 1.954803 1_555
Mn7 O14 1.921920 1_555
Mn7 O5 1.941841 1_555
Mn7 O10 1.941841 1_555
Mn7 O4 1.954803 1_555
Mn7 O9 1.954803 1_555
Mn8 O0 1.930078 1_555
Mn8 O8 1.945035 1_555
Mn8 O3 1.945035 1_555
Mn8 O7 1.955069 1_555
Mn8 O12 1.955069 1_555
Mn9 O2 1.926487 1_555
Mn9 O6 1.950927 1_555
Mn9 O11 1.950927 1_555
Mn9 O7 1.950927 1_554
Mn9 O12 1.950927 1_554
F0 Mn1 2.056350 1_645
F0 Mn6 2.069167 1_555
F0 Mn2 2.115962 1_645
F1 Mn1 2.056350 1_645
F1 Mn7 2.069167 1_555
F1 Mn0 2.115962 1_645
F2 Mn5 2.054288 1_555
F2 Mn3 2.079954 1_465
F2 Mn0 2.116595 1_555
F3 Mn8 2.054288 1_555
F3 Mn4 2.079954 1_465
F3 Mn2 2.116595 1_555
F4 Mn3 2.051266 1_465
F4 Mn4 2.051266 1_464
F4 Mn9 2.155752 1_555
