# generated using pymatgen
data_LiTi2O4
_symmetry_space_group_name_H-M   'P 1'
_cell_length_a   8.90499300
_cell_length_b   8.93574910
_cell_length_c   10.45198483
_cell_angle_alpha   90.22542733
_cell_angle_beta   89.93083601
_cell_angle_gamma   119.86949890
_symmetry_Int_Tables_number   1
_chemical_formula_structural   LiTi2O4
_chemical_formula_sum   'Li9 Ti18 O36'
_cell_volume   721.20715940
_cell_formula_units_Z   9
loop_
 _symmetry_equiv_pos_site_id
 _symmetry_equiv_pos_as_xyz
  1  'x, y, z'
loop_
 _atom_site_type_symbol
 _atom_site_label
 _atom_site_symmetry_multiplicity
 _atom_site_fract_x
 _atom_site_fract_y
 _atom_site_fract_z
 _atom_site_occupancy
  Li  Li0  1  0.88723600  0.77192800  0.76925700  1
  Li  Li1  1  0.78386800  0.39572900  0.27356000  1
  Li  Li2  1  0.55621800  0.11002000  0.76887300  1
  Li  Li3  1  0.39694100  0.95107800  0.24890300  1
  Li  Li4  1  0.21555200  0.61566800  0.73318900  1
  Li  Li5  1  0.78422400  0.88754300  0.22918500  1
  Li  Li6  1  0.45055100  0.55512100  0.22672700  1
  Li  Li7  1  0.11570500  0.22689400  0.22392400  1
  Li  Li8  1  0.21820400  0.26484600  0.72357700  1
  Ti  Ti0  1  0.66481300  0.66545100  0.99277000  1
  Ti  Ti1  1  0.66542100  0.49894300  0.51161000  1
  Ti  Ti2  1  0.00634900  0.83278100  0.48734000  1
  Ti  Ti3  1  0.33596900  0.16717500  0.48776100  1
  Ti  Ti4  1  0.00093800  0.66796300  0.01750700  1
  Ti  Ti5  1  0.32779300  0.00069200  0.99115300  1
  Ti  Ti6  1  0.66175300  0.33509400  0.99749300  1
  Ti  Ti7  1  0.33362700  0.83214600  0.50554900  1
  Ti  Ti8  1  0.99952900  0.49906000  0.50278500  1
  Ti  Ti9  1  0.66640000  0.16460600  0.49325200  1
  Ti  Ti10  1  0.33925200  0.67337500  0.00566300  1
  Ti  Ti11  1  0.66303200  0.99734000  0.00348900  1
  Ti  Ti12  1  0.99359100  0.32992600  0.99430300  1
  Ti  Ti13  1  0.65901000  0.83290700  0.51143300  1
  Ti  Ti14  1  0.99384700  0.16431500  0.50272800  1
  Ti  Ti15  1  0.33266900  0.50078700  0.49708100  1
  Ti  Ti16  1  0.00145200  0.00370600  0.99325600  1
  Ti  Ti17  1  0.33939000  0.33488700  0.99490800  1
  O  O0  1  0.43434900  0.38150800  0.59804500  1
  O  O1  1  0.78494500  0.72648700  0.59895500  1
  O  O2  1  0.11481600  0.05914900  0.59340000  1
  O  O3  1  0.55387500  0.44993100  0.10191900  1
  O  O4  1  0.88578700  0.78369600  0.10170200  1
  O  O5  1  0.21987800  0.11640900  0.09645200  1
  O  O6  1  0.78506900  0.56161400  0.90300300  1
  O  O7  1  0.10145800  0.87854100  0.89940500  1
  O  O8  1  0.44535300  0.21721800  0.88966900  1
  O  O9  1  0.88363100  0.60300400  0.40040900  1
  O  O10  1  0.23012600  0.94360000  0.39243600  1
  O  O11  1  0.56478800  0.28551800  0.39465000  1
  O  O12  1  0.10997600  0.72015500  0.60389700  1
  O  O13  1  0.77490900  0.38474200  0.59860500  1
  O  O14  1  0.44665000  0.05937500  0.59799700  1
  O  O15  1  0.23149700  0.78881600  0.10424600  1
  O  O16  1  0.88446800  0.44042500  0.10264500  1
  O  O17  1  0.54985000  0.10869700  0.10028300  1
  O  O18  1  0.44375700  0.89128600  0.89610800  1
  O  O19  1  0.11429400  0.55907500  0.90812700  1
  O  O20  1  0.77203600  0.21850200  0.90018800  1
  O  O21  1  0.55252000  0.94220400  0.39663100  1
  O  O22  1  0.22291500  0.61160600  0.40418600  1
  O  O23  1  0.88838700  0.28075600  0.39605700  1
  O  O24  1  0.43543400  0.71350200  0.60814700  1
  O  O25  1  0.77587400  0.05843400  0.59901000  1
  O  O26  1  0.11765800  0.39015400  0.60797300  1
  O  O27  1  0.56173000  0.77440800  0.11274700  1
  O  O28  1  0.89497100  0.10995700  0.10610200  1
  O  O29  1  0.22577700  0.44004400  0.10322600  1
  O  O30  1  0.77967400  0.88505800  0.89729400  1
  O  O31  1  0.11326500  0.22446400  0.89392100  1
  O  O32  1  0.44140300  0.55677000  0.90034800  1
  O  O33  1  0.88484500  0.94392800  0.39977000  1
  O  O34  1  0.21890000  0.27914100  0.39357800  1
  O  O35  1  0.55461800  0.61187900  0.40146800  1
loop_
_geom_bond_atom_site_label_1
_geom_bond_atom_site_label_2
_geom_bond_distance
_geom_bond_site_symmetry_2
Li0 O1 1.947514 1_555
Li0 O7 2.140796 1_655
Li0 O6 2.151340 1_555
Li0 O30 2.163558 1_555
Li1 O16 1.949012 1_555
Li1 O9 2.078969 1_555
Li1 O11 2.113733 1_555
Li1 O23 2.127604 1_555
Li2 O14 1.976007 1_555
Li2 O8 2.101358 1_555
Li2 O20 2.158064 1_555
Li2 O18 2.158536 1_545
Li3 O17 2.086301 1_565
Li3 O10 2.087651 1_555
Li3 O15 2.102204 1_555
Li3 O21 2.103652 1_555
Li4 O19 1.990259 1_555
Li4 O12 2.114029 1_555
Li4 O24 2.145717 1_555
Li4 O26 2.183073 1_555
Li5 O33 1.944931 1_555
Li5 O4 2.068282 1_555
Li5 O27 2.104698 1_555
Li5 O28 2.154590 1_565
Li6 O35 1.995088 1_555
Li6 O3 2.068980 1_555
Li6 O27 2.078998 1_555
Li6 O29 2.162349 1_555
Li7 O34 1.943408 1_555
Li7 O29 2.082383 1_555
Li7 O28 2.102855 1_455
Li7 O5 2.123502 1_555
Li8 O31 1.959228 1_555
Li8 O2 2.091679 1_555
Li8 O0 2.125806 1_555
Li8 O26 2.127738 1_555
O0 Ti1 2.000915 1_555
O0 Ti15 2.010453 1_555
O0 Ti3 2.019429 1_555
O1 Ti1 1.983093 1_555
O1 Ti13 2.017501 1_555
O1 Ti2 2.070800 1_655
O2 Ti14 1.989838 1_455
O2 Ti3 2.034438 1_555
O2 Ti2 2.071779 1_545
O3 Ti17 1.999055 1_554
O3 Ti0 2.026278 1_554
O3 Ti6 2.034127 1_554
O4 Ti4 1.985524 1_655
O4 Ti16 2.051443 1_664
O4 Ti0 2.051790 1_554
O5 Ti16 2.001583 1_554
O5 Ti17 2.003617 1_554
O5 Ti5 2.045044 1_554
O6 Ti0 1.966834 1_555
O6 Ti6 2.019276 1_555
O6 Ti4 2.051271 1_656
O7 Ti5 1.994600 1_565
O7 Ti16 1.996892 1_565
O7 Ti4 2.050271 1_556
O8 Ti5 1.990109 1_555
O8 Ti6 2.016721 1_555
O8 Ti17 2.045113 1_555
O9 Ti2 1.997079 1_655
O9 Ti8 2.009515 1_555
O9 Ti1 2.048096 1_555
O10 Ti2 1.993228 1_555
O10 Ti3 1.995829 1_565
O10 Ti7 2.040900 1_555
O11 Ti9 2.008236 1_555
O11 Ti3 2.018509 1_555
O11 Ti1 2.053429 1_555
O12 Ti8 2.009486 1_455
O12 Ti7 2.010615 1_555
O12 Ti2 2.070248 1_555
O13 Ti1 1.954278 1_555
O13 Ti8 2.003866 1_555
O13 Ti9 2.026797 1_555
O14 Ti7 2.005194 1_545
O14 Ti9 2.020453 1_555
O14 Ti3 2.045484 1_555
O15 Ti4 1.997949 1_555
O15 Ti10 2.005424 1_555
O15 Ti5 2.028572 1_564
O16 Ti4 1.978157 1_655
O16 Ti12 2.036116 1_554
O16 Ti6 2.040827 1_554
O17 Ti11 2.004507 1_545
O17 Ti5 2.058769 1_554
O17 Ti6 2.060686 1_554
O18 Ti5 2.001110 1_565
O18 Ti11 2.030841 1_556
O18 Ti10 2.044220 1_556
O19 Ti12 1.994819 1_455
O19 Ti10 2.013511 1_556
O19 Ti4 2.058988 1_556
O20 Ti12 1.972776 1_555
O20 Ti6 2.023018 1_555
O20 Ti11 2.029053 1_546
O21 Ti9 1.994247 1_565
O21 Ti7 2.038806 1_555
O21 Ti13 2.056052 1_555
O22 Ti15 1.962756 1_555
O22 Ti7 2.007212 1_555
O22 Ti8 2.010251 1_455
O23 Ti9 1.994190 1_555
O23 Ti8 2.022796 1_555
O23 Ti14 2.047574 1_555
O24 Ti13 2.002958 1_555
O24 Ti15 2.012610 1_555
O24 Ti7 2.016049 1_555
O25 Ti14 1.961909 1_555
O25 Ti13 1.970015 1_545
O25 Ti9 2.001098 1_555
O26 Ti15 2.026070 1_555
O26 Ti14 2.065768 1_455
O26 Ti8 2.072006 1_455
O27 Ti10 2.051494 1_555
O27 Ti0 2.059341 1_554
O27 Ti11 2.076452 1_555
O28 Ti16 2.019124 1_654
O28 Ti12 2.072786 1_554
O28 Ti11 2.086981 1_545
O29 Ti17 2.030778 1_554
O29 Ti10 2.079376 1_555
O29 Ti12 2.123617 1_454
O30 Ti0 1.976501 1_555
O30 Ti16 1.985254 1_665
O30 Ti11 2.084232 1_556
O31 Ti16 2.004469 1_555
O31 Ti12 2.028409 1_455
O31 Ti17 2.039696 1_555
O32 Ti0 1.976629 1_555
O32 Ti17 1.988052 1_555
O32 Ti10 2.014304 1_556
O33 Ti14 2.015015 1_565
O33 Ti2 2.018606 1_655
O33 Ti13 2.099260 1_555
O34 Ti3 2.026321 1_555
O34 Ti15 2.026462 1_555
O34 Ti14 2.079949 1_455
O35 Ti15 1.984760 1_555
O35 Ti13 2.059599 1_555
O35 Ti1 2.078693 1_555
