# generated using pymatgen
data_Li4Fe3SbO8
_symmetry_space_group_name_H-M   'P 1'
_cell_length_a   6.06105736
_cell_length_b   6.06105736
_cell_length_c   6.10102882
_cell_angle_alpha   61.01572568
_cell_angle_beta   61.01572568
_cell_angle_gamma   60.56262740
_symmetry_Int_Tables_number   1
_chemical_formula_structural   Li4Fe3SbO8
_chemical_formula_sum   'Li4 Fe3 Sb1 O8'
_cell_volume   161.56687194
_cell_formula_units_Z   1
loop_
 _symmetry_equiv_pos_site_id
 _symmetry_equiv_pos_as_xyz
  1  'x, y, z'
loop_
 _atom_site_type_symbol
 _atom_site_label
 _atom_site_symmetry_multiplicity
 _atom_site_fract_x
 _atom_site_fract_y
 _atom_site_fract_z
 _atom_site_occupancy
  Li  Li0  1  0.50000000  0.50000000  0.00000000  1
  Li  Li1  1  0.00000000  0.50000000  0.50000000  1
  Li  Li2  1  0.00000000  0.00000000  0.00000000  1
  Li  Li3  1  0.50000000  0.00000000  0.50000000  1
  Fe  Fe0  1  0.50000000  0.00000000  0.00000000  1
  Fe  Fe1  1  0.50000000  0.50000000  0.50000000  1
  Fe  Fe2  1  0.00000000  0.50000000  0.00000000  1
  Sb  Sb0  1  0.00000000  0.00000000  0.50000000  1
  O  O0  1  0.26727200  0.26727200  0.74958700  1
  O  O1  1  0.75410400  0.23832300  0.27272700  1
  O  O2  1  0.76906800  0.76906800  0.72830600  1
  O  O3  1  0.73272800  0.73272800  0.25041300  1
  O  O4  1  0.23832300  0.75410400  0.27272700  1
  O  O5  1  0.24589600  0.76167700  0.72727300  1
  O  O6  1  0.23093200  0.23093200  0.27169400  1
  O  O7  1  0.76167700  0.24589600  0.72727300  1
loop_
_geom_bond_atom_site_label_1
_geom_bond_atom_site_label_2
_geom_bond_distance
_geom_bond_site_symmetry_2
Li0 O7 2.276200 1_554
Li0 O4 2.276200 1_555
Li0 O1 2.276200 1_555
Li0 O5 2.276200 1_554
Li0 O2 2.332694 1_554
Li0 O6 2.332694 1_555
Li1 O7 2.134769 1_455
Li1 O4 2.134769 1_555
Li1 O2 2.151100 1_455
Li1 O6 2.151100 1_555
Li1 O0 2.235081 1_555
Li1 O3 2.235081 1_455
Li2 O5 2.210492 1_544
Li2 O1 2.210492 1_455
Li2 O4 2.210492 1_545
Li2 O7 2.210492 1_454
Li2 O3 2.316242 1_445
Li2 O0 2.316242 1_554
Li3 O5 2.134769 1_545
Li3 O1 2.134769 1_555
Li3 O2 2.151100 1_545
Li3 O6 2.151100 1_555
Li3 O0 2.235081 1_555
Li3 O3 2.235081 1_545
Fe0 O0 2.095704 1_554
Fe0 O3 2.095704 1_545
Fe0 O6 2.179768 1_555
Fe0 O2 2.179768 1_544
Fe0 O4 2.206344 1_545
Fe0 O7 2.206344 1_554
Fe1 O0 2.022542 1_555
Fe1 O3 2.022542 1_555
Fe1 O7 2.114434 1_555
Fe1 O4 2.114434 1_555
Fe1 O1 2.114434 1_555
Fe1 O5 2.114434 1_555
Fe2 O0 2.095704 1_554
Fe2 O3 2.095704 1_455
Fe2 O2 2.179768 1_454
Fe2 O6 2.179768 1_555
Fe2 O1 2.206344 1_455
Fe2 O5 2.206344 1_554
O1 Sb0 2.043530 1_655
O2 Sb0 2.001310 1_665
O4 Sb0 2.043530 1_565
O5 Sb0 2.043530 1_565
O6 Sb0 2.001310 1_555
O7 Sb0 2.043530 1_655
