# generated using pymatgen
data_FePO4
_symmetry_space_group_name_H-M   'P 1'
_cell_length_a   5.35559200
_cell_length_b   7.70573500
_cell_length_c   10.15859000
_cell_angle_alpha   90.00000000
_cell_angle_beta   90.00000000
_cell_angle_gamma   90.00000000
_symmetry_Int_Tables_number   1
_chemical_formula_structural   FePO4
_chemical_formula_sum   'Fe4 P4 O16'
_cell_volume   419.23254187
_cell_formula_units_Z   4
loop_
 _symmetry_equiv_pos_site_id
 _symmetry_equiv_pos_as_xyz
  1  'x, y, z'
loop_
 _atom_site_type_symbol
 _atom_site_label
 _atom_site_symmetry_multiplicity
 _atom_site_fract_x
 _atom_site_fract_y
 _atom_site_fract_z
 _atom_site_occupancy
  Fe  Fe0  1  0.74778200  0.80284400  0.10016800  1
  Fe  Fe1  1  0.24778200  0.30284400  0.39983200  1
  Fe  Fe2  1  0.74778200  0.69715600  0.60016800  1
  Fe  Fe3  1  0.24778200  0.19715600  0.89983200  1
  P  P0  1  0.24802100  0.02601400  0.17841000  1
  P  P1  1  0.74802100  0.52601400  0.32159000  1
  P  P2  1  0.24802100  0.47398600  0.67841000  1
  P  P3  1  0.74802100  0.97398600  0.82159000  1
  O  O0  1  0.20509700  0.18336800  0.08568900  1
  O  O1  1  0.07850000  0.87184800  0.13990200  1
  O  O2  1  0.52475500  0.96765800  0.16911900  1
  O  O3  1  0.69161100  0.58293600  0.17863200  1
  O  O4  1  0.19161100  0.08293600  0.32136800  1
  O  O5  1  0.02475500  0.46765800  0.33088100  1
  O  O6  1  0.57850000  0.37184800  0.36009800  1
  O  O7  1  0.70509700  0.68336800  0.41431100  1
  O  O8  1  0.20509700  0.31663200  0.58568900  1
  O  O9  1  0.07850000  0.62815200  0.63990200  1
  O  O10  1  0.52475500  0.53234200  0.66911900  1
  O  O11  1  0.69161100  0.91706400  0.67863200  1
  O  O12  1  0.19161100  0.41706400  0.82136800  1
  O  O13  1  0.02475500  0.03234200  0.83088100  1
  O  O14  1  0.57850000  0.12815200  0.86009800  1
  O  O15  1  0.70509700  0.81663200  0.91431100  1
loop_
_geom_bond_atom_site_label_1
_geom_bond_atom_site_label_2
_geom_bond_distance
_geom_bond_site_symmetry_2
Fe0 O2 1.878895 1_555
Fe0 O1 1.892822 1_655
Fe0 O3 1.896668 1_555
Fe0 O15 1.904800 1_554
Fe1 O5 1.878895 1_555
Fe1 O6 1.892822 1_555
Fe1 O4 1.896668 1_555
Fe1 O8 1.904800 1_555
Fe2 O10 1.878895 1_555
Fe2 O9 1.892822 1_655
Fe2 O11 1.896668 1_555
Fe2 O7 1.904800 1_555
Fe3 O13 1.878895 1_555
Fe3 O14 1.892822 1_555
Fe3 O12 1.896668 1_555
Fe3 O0 1.904800 1_556
O0 P0 1.552506 1_555
O1 P0 1.545489 1_565
O2 P0 1.551664 1_565
O3 P1 1.546835 1_555
O4 P0 1.546835 1_555
O5 P1 1.551664 1_455
O6 P1 1.545489 1_555
O7 P1 1.552506 1_555
O8 P2 1.552506 1_555
O9 P2 1.545489 1_555
O10 P2 1.551664 1_555
O11 P3 1.546835 1_555
O12 P2 1.546835 1_555
O13 P3 1.551664 1_445
O14 P3 1.545489 1_545
O15 P3 1.552506 1_555
