# generated using pymatgen
data_Mn3(O2F)2
_symmetry_space_group_name_H-M   'P 1'
_cell_length_a   4.71234600
_cell_length_b   5.54310134
_cell_length_c   7.72585489
_cell_angle_alpha   84.15707769
_cell_angle_beta   85.26385026
_cell_angle_gamma   85.06804279
_symmetry_Int_Tables_number   1
_chemical_formula_structural   Mn3(O2F)2
_chemical_formula_sum   'Mn6 O8 F4'
_cell_volume   199.45990358
_cell_formula_units_Z   2
loop_
 _symmetry_equiv_pos_site_id
 _symmetry_equiv_pos_as_xyz
  1  'x, y, z'
loop_
 _atom_site_type_symbol
 _atom_site_label
 _atom_site_symmetry_multiplicity
 _atom_site_fract_x
 _atom_site_fract_y
 _atom_site_fract_z
 _atom_site_occupancy
  Mn  Mn0  1  0.51955600  0.51095000  0.00534400  1
  Mn  Mn1  1  0.49347500  0.82893300  0.66425900  1
  Mn  Mn2  1  0.51806500  0.18259000  0.33922800  1
  Mn  Mn3  1  0.98709800  0.33046500  0.65688500  1
  Mn  Mn4  1  0.98082500  0.65878600  0.32475700  1
  Mn  Mn5  1  0.99921800  0.99126500  0.00561800  1
  O  O0  1  0.80016700  0.38058500  0.42862300  1
  O  O1  1  0.82332200  0.71015400  0.11147000  1
  O  O2  1  0.69423600  0.20300700  0.10546700  1
  O  O3  1  0.69678100  0.53374800  0.76560700  1
  O  O4  1  0.70536700  0.87823400  0.43644200  1
  O  O5  1  0.30610900  0.13593000  0.56526800  1
  O  O6  1  0.30195700  0.46211000  0.23234800  1
  O  O7  1  0.30929900  0.79489900  0.89902400  1
  F  F0  1  0.80539200  0.03928000  0.76213300  1
  F  F1  1  0.17828700  0.62536000  0.55423300  1
  F  F2  1  0.20310800  0.95043000  0.24876800  1
  F  F3  1  0.17773900  0.28327400  0.89452600  1
loop_
_geom_bond_atom_site_label_1
_geom_bond_atom_site_label_2
_geom_bond_distance
_geom_bond_site_symmetry_2
Mn0 O7 1.933074 1_554
Mn0 O2 1.945343 1_555
Mn0 O6 1.963326 1_555
Mn0 O3 1.964444 1_554
Mn0 O1 2.142548 1_555
Mn1 O7 1.943478 1_555
Mn1 O3 1.949798 1_555
Mn1 O4 1.956619 1_555
Mn1 O5 1.961757 1_565
Mn2 O2 1.921095 1_555
Mn2 O6 1.930457 1_555
Mn2 O5 1.943882 1_555
Mn2 O4 1.945457 1_545
Mn2 O0 2.001383 1_555
Mn3 O3 1.893351 1_555
Mn3 O5 1.903849 1_655
Mn3 O0 2.019365 1_555
Mn4 O1 1.848613 1_555
Mn4 O0 1.899399 1_555
Mn4 O4 1.914786 1_555
Mn4 O6 1.919545 1_655
Mn5 O1 1.906463 1_555
Mn5 O7 1.925729 1_654
Mn5 O2 1.936334 1_565
F0 Mn3 1.963422 1_555
F0 Mn5 2.140966 1_546
F0 Mn1 2.179334 1_545
F1 Mn3 1.995993 1_455
F1 Mn4 2.054079 1_455
F1 Mn1 2.212224 1_555
F2 Mn4 2.012879 1_455
F2 Mn5 2.162724 1_455
F2 Mn2 2.242797 1_565
F3 Mn5 1.973925 1_446
F3 Mn3 2.092962 1_455
F3 Mn0 2.391140 1_556
