# generated using pymatgen
data_Na8Bi5O14
_symmetry_space_group_name_H-M   'P 1'
_cell_length_a   9.16190000
_cell_length_b   9.21003645
_cell_length_c   11.55700577
_cell_angle_alpha   105.27947600
_cell_angle_beta   100.77183904
_cell_angle_gamma   112.36637353
_symmetry_Int_Tables_number   1
_chemical_formula_structural   Na8Bi5O14
_chemical_formula_sum   'Na16 Bi10 O28'
_cell_volume   823.64393680
_cell_formula_units_Z   2
loop_
 _symmetry_equiv_pos_site_id
 _symmetry_equiv_pos_as_xyz
  1  'x, y, z'
loop_
 _atom_site_type_symbol
 _atom_site_label
 _atom_site_symmetry_multiplicity
 _atom_site_fract_x
 _atom_site_fract_y
 _atom_site_fract_z
 _atom_site_occupancy
  Na  Na0  1  0.44990600  0.67892000  0.01746300  1
  Na  Na1  1  0.00000000  0.00000000  0.00000000  1
  Na  Na2  1  0.19411600  0.67407600  0.18935100  1
  Na  Na3  1  0.30665300  0.37659700  0.17114700  1
  Na  Na4  1  0.38050700  0.01466700  0.10642400  1
  Na  Na5  1  0.69757900  0.40968300  0.27968100  1
  Na  Na6  1  0.11212100  0.46674300  0.37642400  1
  Na  Na7  1  0.56985100  0.14669400  0.43007600  1
  Na  Na8  1  0.50000000  0.50000000  0.50000000  1
  Na  Na9  1  0.43014900  0.85330600  0.56992400  1
  Na  Na10  1  0.88787900  0.53325700  0.62357600  1
  Na  Na11  1  0.30242100  0.59031700  0.72031900  1
  Na  Na12  1  0.61949300  0.98533300  0.89357600  1
  Na  Na13  1  0.69334700  0.62340300  0.82885300  1
  Na  Na14  1  0.80588400  0.32592400  0.81064900  1
  Na  Na15  1  0.55009400  0.32108000  0.98253700  1
  Bi  Bi0  1  0.84941200  0.71070000  0.13971500  1
  Bi  Bi1  1  0.77308500  0.08102100  0.20229400  1
  Bi  Bi2  1  0.60322800  0.76807200  0.34161300  1
  Bi  Bi3  1  0.18965800  0.11100800  0.31911800  1
  Bi  Bi4  1  0.03730700  0.80972500  0.46772100  1
  Bi  Bi5  1  0.96269300  0.19027500  0.53227900  1
  Bi  Bi6  1  0.81034200  0.88899200  0.68088200  1
  Bi  Bi7  1  0.39677200  0.23192800  0.65838700  1
  Bi  Bi8  1  0.22691500  0.91897900  0.79770600  1
  Bi  Bi9  1  0.15058800  0.28930000  0.86028500  1
  O  O0  1  0.79820500  0.52618000  0.97511100  1
  O  O1  1  0.74717900  0.84687800  0.04610500  1
  O  O2  1  0.61590700  0.57753000  0.16821000  1
  O  O3  1  0.53689300  0.91390900  0.23059700  1
  O  O4  1  0.65416100  0.17936800  0.09772500  1
  O  O5  1  0.10650500  0.88373200  0.15262700  1
  O  O6  1  0.96433700  0.62185900  0.27894400  1
  O  O7  1  0.92856000  0.94139500  0.32136500  1
  O  O8  1  0.36769600  0.62666800  0.35173500  1
  O  O9  1  0.05539600  0.20422300  0.21126500  1
  O  O10  1  0.41769000  0.24733100  0.30048000  1
  O  O11  1  0.71030900  0.99488600  0.55716800  1
  O  O12  1  0.77972200  0.69207600  0.50846600  1
  O  O13  1  0.84126100  0.28776400  0.40645200  1
  O  O14  1  0.15873900  0.71223600  0.59354800  1
  O  O15  1  0.22027800  0.30792400  0.49153400  1
  O  O16  1  0.28969100  0.00511400  0.44283200  1
  O  O17  1  0.58231000  0.75266900  0.69952000  1
  O  O18  1  0.94460400  0.79577700  0.78873500  1
  O  O19  1  0.63230400  0.37333200  0.64826500  1
  O  O20  1  0.07144000  0.05860500  0.67863500  1
  O  O21  1  0.03566300  0.37814100  0.72105600  1
  O  O22  1  0.89349500  0.11626800  0.84737300  1
  O  O23  1  0.34583900  0.82063200  0.90227500  1
  O  O24  1  0.46310700  0.08609100  0.76940300  1
  O  O25  1  0.38409300  0.42247000  0.83179000  1
  O  O26  1  0.25282100  0.15312200  0.95389500  1
  O  O27  1  0.20179500  0.47382000  0.02488900  1
loop_
_geom_bond_atom_site_label_1
_geom_bond_atom_site_label_2
_geom_bond_distance
_geom_bond_site_symmetry_2
Na0 O27 2.373462 1_555
Na0 O23 2.402725 1_554
Na0 O1 2.471255 1_555
Na0 O25 2.511575 1_554
Na0 O3 2.555438 1_555
Na0 O2 2.677341 1_555
Na1 O26 2.451410 1_554
Na1 O1 2.451410 1_445
Na1 O9 2.479230 1_555
Na1 O18 2.479230 1_444
Na1 O5 2.521430 1_545
Na1 O22 2.521430 1_454
Na2 O27 2.306591 1_555
Na2 O5 2.457059 1_555
Na2 O6 2.458056 1_455
Na2 O8 2.467064 1_555
Na2 O3 2.928325 1_555
Na3 O27 2.329650 1_555
Na3 O10 2.444937 1_555
Na3 O8 2.454194 1_555
Na3 O9 2.457658 1_555
Na3 O26 2.612355 1_554
Na3 O2 2.744504 1_555
Na4 O4 2.424311 1_555
Na4 O3 2.432835 1_545
Na4 O23 2.434481 1_544
Na4 O10 2.522599 1_555
Na4 O5 2.564733 1_545
Na4 O26 2.766084 1_554
Na5 O4 2.402907 1_555
Na5 O6 2.484701 1_555
Na5 O2 2.485745 1_555
Na5 O10 2.524087 1_555
Na5 O13 2.532068 1_555
Na5 O12 2.909290 1_555
Na6 O8 2.362244 1_555
Na6 O9 2.449444 1_555
Na6 O13 2.550717 1_455
Na6 O15 2.554844 1_555
Na6 O6 2.625574 1_455
Na6 O14 2.732273 1_555
Na7 O13 2.434725 1_555
Na7 O10 2.445477 1_555
Na7 O16 2.450714 1_555
Na7 O3 2.577705 1_545
Na7 O19 2.611608 1_555
Na7 O11 2.741057 1_545
Na8 O12 2.464061 1_555
Na8 O15 2.464061 1_555
Na8 O17 2.547018 1_555
Na8 O10 2.547018 1_555
Na8 O19 2.668299 1_555
Na8 O8 2.668299 1_555
Na9 O14 2.434725 1_555
Na9 O17 2.445477 1_555
Na9 O11 2.450714 1_555
Na9 O24 2.577705 1_565
Na9 O8 2.611608 1_555
Na9 O16 2.741057 1_565
Na10 O19 2.362244 1_555
Na10 O18 2.449444 1_555
Na10 O14 2.550717 1_655
Na10 O12 2.554844 1_555
Na10 O21 2.625574 1_655
Na10 O13 2.732273 1_555
Na11 O23 2.402907 1_555
Na11 O21 2.484701 1_555
Na11 O25 2.485745 1_555
Na11 O17 2.524087 1_555
Na11 O14 2.532068 1_555
Na11 O15 2.909290 1_555
Na12 O23 2.424311 1_555
Na12 O24 2.432835 1_565
Na12 O4 2.434481 1_566
Na12 O17 2.522599 1_555
Na12 O22 2.564733 1_565
Na12 O1 2.766084 1_556
Na13 O0 2.329650 1_555
Na13 O17 2.444937 1_555
Na13 O19 2.454194 1_555
Na13 O18 2.457658 1_555
Na13 O1 2.612355 1_556
Na13 O25 2.744504 1_555
Na14 O0 2.306591 1_555
Na14 O22 2.457059 1_555
Na14 O21 2.458056 1_655
Na14 O19 2.467064 1_555
Na14 O24 2.928325 1_555
Na15 O0 2.373462 1_555
Na15 O4 2.402725 1_556
Na15 O26 2.471255 1_555
Na15 O2 2.511575 1_556
Na15 O24 2.555438 1_555
Na15 O25 2.677341 1_555
Bi0 O0 2.020579 1_554
Bi0 O2 2.160754 1_555
Bi0 O1 2.202534 1_555
Bi0 O5 2.235307 1_655
Bi0 O6 2.254675 1_555
Bi0 O7 2.314063 1_555
Bi1 O4 2.074587 1_555
Bi1 O3 2.270192 1_545
Bi1 O1 2.315965 1_545
Bi1 O9 2.364832 1_655
Bi1 O13 2.399768 1_555
Bi1 O7 2.677772 1_545
Bi2 O8 2.098146 1_555
Bi2 O3 2.248919 1_555
Bi2 O2 2.344749 1_555
Bi2 O11 2.513193 1_555
Bi2 O12 2.688910 1_555
Bi3 O10 2.074127 1_555
Bi3 O9 2.144394 1_555
Bi3 O16 2.181917 1_555
Bi3 O5 2.186296 1_545
Bi3 O15 2.199437 1_555
Bi3 O7 2.316028 1_445
Bi4 O6 2.187555 1_455
Bi4 O14 2.236572 1_555
Bi4 O12 2.388191 1_455
Bi4 O16 2.454077 1_565
Bi4 O7 2.587455 1_455
Bi4 O20 2.741939 1_565
Bi5 O21 2.187555 1_655
Bi5 O13 2.236572 1_555
Bi5 O15 2.388191 1_655
Bi5 O11 2.454077 1_545
Bi5 O20 2.587455 1_655
Bi5 O7 2.741939 1_545
Bi6 O17 2.074127 1_555
Bi6 O18 2.144394 1_555
Bi6 O11 2.181917 1_555
Bi6 O22 2.186296 1_565
Bi6 O12 2.199437 1_555
Bi6 O20 2.316028 1_665
Bi7 O19 2.098146 1_555
Bi7 O24 2.248919 1_555
Bi7 O25 2.344749 1_555
Bi7 O16 2.513193 1_555
Bi7 O15 2.688910 1_555
Bi8 O23 2.074587 1_555
Bi8 O24 2.270192 1_565
Bi8 O26 2.315965 1_565
Bi8 O18 2.364832 1_455
Bi8 O14 2.399768 1_555
Bi8 O20 2.677772 1_565
Bi9 O27 2.020579 1_556
Bi9 O25 2.160754 1_555
Bi9 O26 2.202534 1_555
Bi9 O22 2.235307 1_455
Bi9 O21 2.254675 1_555
Bi9 O20 2.314063 1_555
