# generated using pymatgen
data_Li24Mn5Cr7O36
_symmetry_space_group_name_H-M   'P 1'
_cell_length_a   5.00496600
_cell_length_b   9.74726665
_cell_length_c   13.31092108
_cell_angle_alpha   97.17720346
_cell_angle_beta   100.57243927
_cell_angle_gamma   94.48296735
_symmetry_Int_Tables_number   1
_chemical_formula_structural   Li24Mn5Cr7O36
_chemical_formula_sum   'Li24 Mn5 Cr7 O36'
_cell_volume   629.93324539
_cell_formula_units_Z   1
loop_
 _symmetry_equiv_pos_site_id
 _symmetry_equiv_pos_as_xyz
  1  'x, y, z'
loop_
 _atom_site_type_symbol
 _atom_site_label
 _atom_site_symmetry_multiplicity
 _atom_site_fract_x
 _atom_site_fract_y
 _atom_site_fract_z
 _atom_site_occupancy
  Li  Li0  1  0.16578500  0.99934800  0.83316900  1
  Li  Li1  1  0.04553000  0.00083100  0.61256000  1
  Li  Li2  1  0.99984200  0.75029900  0.24990400  1
  Li  Li3  1  0.33334300  0.75040400  0.91590900  1
  Li  Li4  1  0.04649300  0.50107000  0.11252600  1
  Li  Li5  1  0.38148300  0.49892500  0.78022500  1
  Li  Li6  1  0.16429800  0.50015400  0.33328600  1
  Li  Li7  1  0.49825800  0.50020000  0.99911600  1
  Li  Li8  1  0.28644100  0.50001100  0.55389000  1
  Li  Li9  1  0.33483000  0.24996200  0.41666200  1
  Li  Li10  1  0.49622600  0.99987000  0.50003000  1
  Li  Li11  1  0.28472600  0.99858400  0.05423900  1
  Li  Li12  1  0.61999400  0.00060800  0.72271500  1
  Li  Li13  1  0.38422100  0.00149400  0.27973900  1
  Li  Li14  1  0.71527500  0.99946600  0.94426600  1
  Li  Li15  1  0.66837300  0.74964900  0.58313300  1
  Li  Li16  1  0.71743700  0.50076200  0.44676300  1
  Li  Li17  1  0.83549100  0.49984700  0.66685600  1
  Li  Li18  1  0.61756700  0.49931500  0.22068300  1
  Li  Li19  1  0.95182700  0.49996200  0.88652300  1
  Li  Li20  1  0.66841600  0.24980000  0.08393400  1
  Li  Li21  1  0.83661000  0.00049500  0.16593900  1
  Li  Li22  1  0.00049600  0.25041800  0.75099400  1
  Li  Li23  1  0.94919500  0.99897300  0.38696300  1
  Mn  Mn0  1  0.10803400  0.74856500  0.47180900  1
  Mn  Mn1  1  0.22212900  0.24970300  0.19535600  1
  Mn  Mn2  1  0.55797100  0.25144400  0.86149500  1
  Mn  Mn3  1  0.77906600  0.75136600  0.80588300  1
  Mn  Mn4  1  0.77447600  0.24871300  0.30453800  1
  Cr  Cr0  1  0.11445400  0.25011200  0.97476100  1
  Cr  Cr1  1  0.22775900  0.74965600  0.69320800  1
  Cr  Cr2  1  0.44205800  0.25051100  0.64165900  1
  Cr  Cr3  1  0.44347100  0.74970200  0.14106800  1
  Cr  Cr4  1  0.55761700  0.75078800  0.36335900  1
  Cr  Cr5  1  0.89322100  0.24972700  0.52508000  1
  Cr  Cr6  1  0.88840200  0.74967000  0.02524700  1
  O  O0  1  0.00090800  0.86202100  0.92751800  1
  O  O1  1  0.06940100  0.63660800  0.78418000  1
  O  O2  1  0.99641200  0.36080100  0.42786600  1
  O  O3  1  0.15214600  0.36276700  0.64206700  1
  O  O4  1  0.26629500  0.36519100  0.88085300  1
  O  O5  1  0.32875500  0.86124300  0.59579200  1
  O  O6  1  0.07101400  0.13653700  0.28545400  1
  O  O7  1  0.18214100  0.13729500  0.52429300  1
  O  O8  1  0.39942600  0.13695300  0.95055400  1
  O  O9  1  0.14908000  0.86220200  0.14229100  1
  O  O10  1  0.25764900  0.86389900  0.38234600  1
  O  O11  1  0.48120100  0.86320300  0.81107100  1
  O  O12  1  0.33537700  0.13888600  0.73826800  1
  O  O13  1  0.18352300  0.63754700  0.02436000  1
  O  O14  1  0.40226100  0.63600600  0.45155200  1
  O  O15  1  0.52089600  0.63861700  0.69137100  1
  O  O16  1  0.33768600  0.63780400  0.23876800  1
  O  O17  1  0.66645100  0.63882600  0.90282700  1
  O  O18  1  0.33046500  0.36146400  0.09629100  1
  O  O19  1  0.67025300  0.36227900  0.76399500  1
  O  O20  1  0.47566800  0.36156800  0.30990600  1
  O  O21  1  0.60016600  0.36455800  0.54921400  1
  O  O22  1  0.81152300  0.36147900  0.97529700  1
  O  O23  1  0.66439700  0.86213900  0.26418600  1
  O  O24  1  0.52384200  0.13879600  0.18974000  1
  O  O25  1  0.73238000  0.13553500  0.61644900  1
  O  O26  1  0.85571700  0.13805300  0.85681900  1
  O  O27  1  0.60256200  0.86451100  0.04952700  1
  O  O28  1  0.80875400  0.86149600  0.47611800  1
  O  O29  1  0.92970200  0.86368100  0.71486300  1
  O  O30  1  0.66313500  0.13716900  0.40146700  1
  O  O31  1  0.73165700  0.63490300  0.11721100  1
  O  O32  1  0.86154800  0.63768300  0.35707900  1
  O  O33  1  0.99618100  0.63669800  0.56884200  1
  O  O34  1  0.92870600  0.36352700  0.21468900  1
  O  O35  1  0.00190600  0.13765200  0.07338800  1
loop_
_geom_bond_atom_site_label_1
_geom_bond_atom_site_label_2
_geom_bond_distance
_geom_bond_site_symmetry_2
Li0 O8 2.041690 1_565
Li0 O29 2.043845 1_455
Li0 O0 2.162778 1_555
Li0 O26 2.176289 1_465
Li0 O11 2.177162 1_555
Li0 O12 2.192808 1_565
Li1 O7 2.039692 1_555
Li1 O5 2.062079 1_545
Li1 O25 2.125457 1_455
Li1 O29 2.144989 1_445
Li1 O28 2.211249 1_445
Li1 O12 2.226341 1_555
Li2 O32 2.086642 1_555
Li2 O23 2.096343 1_555
Li2 O16 2.103489 1_655
Li2 O10 2.110226 1_655
Li2 O9 2.110724 1_655
Li2 O31 2.141050 1_555
Li3 O0 2.076335 1_555
Li3 O17 2.082151 1_555
Li3 O11 2.083037 1_555
Li3 O1 2.117761 1_555
Li3 O13 2.126353 1_556
Li3 O27 2.146619 1_556
Li4 O13 2.039633 1_555
Li4 O18 2.063974 1_555
Li4 O31 2.127360 1_455
Li4 O34 2.149512 1_455
Li4 O22 2.216189 1_454
Li4 O16 2.227584 1_555
Li5 O19 2.062316 1_555
Li5 O15 2.072783 1_555
Li5 O4 2.104257 1_555
Li5 O1 2.140970 1_555
Li5 O3 2.199598 1_555
Li5 O17 2.200628 1_555
Li6 O14 2.048097 1_555
Li6 O34 2.049904 1_455
Li6 O32 2.140297 1_455
Li6 O20 2.179957 1_555
Li6 O2 2.184734 1_455
Li6 O16 2.185536 1_555
Li7 O31 2.032293 1_556
Li7 O4 2.032381 1_555
Li7 O22 2.189472 1_555
Li7 O13 2.190446 1_556
Li7 O17 2.197279 1_555
Li7 O18 2.205730 1_556
Li8 O3 2.039668 1_555
Li8 O33 2.065810 1_455
Li8 O21 2.133528 1_555
Li8 O14 2.137676 1_555
Li8 O15 2.213033 1_555
Li8 O2 2.234296 1_455
Li9 O30 2.073258 1_555
Li9 O20 2.081721 1_555
Li9 O2 2.096857 1_455
Li9 O6 2.111655 1_555
Li9 O7 2.122802 1_555
Li9 O21 2.130765 1_555
Li10 O25 2.029418 1_565
Li10 O10 2.045397 1_555
Li10 O28 2.184585 1_555
Li10 O7 2.185664 1_565
Li10 O5 2.190571 1_555
Li10 O30 2.208226 1_565
Li11 O9 2.035197 1_555
Li11 O35 2.062063 1_565
Li11 O27 2.140888 1_555
Li11 O8 2.165231 1_564
Li11 O24 2.211216 1_565
Li11 O0 2.213370 1_554
Li12 O11 2.051219 1_545
Li12 O12 2.056051 1_555
Li12 O29 2.131431 1_545
Li12 O25 2.165188 1_555
Li12 O26 2.180749 1_555
Li12 O5 2.244468 1_545
Li13 O23 2.046536 1_545
Li13 O24 2.067889 1_555
Li13 O6 2.130041 1_555
Li13 O30 2.160778 1_555
Li13 O10 2.169757 1_545
Li13 O9 2.217004 1_545
Li14 O26 2.053890 1_565
Li14 O0 2.056686 1_655
Li14 O27 2.155540 1_556
Li14 O8 2.157221 1_565
Li14 O11 2.164734 1_555
Li14 O35 2.245210 1_666
Li15 O33 2.069943 1_555
Li15 O28 2.084915 1_555
Li15 O15 2.108752 1_555
Li15 O5 2.109298 1_555
Li15 O29 2.113026 1_555
Li15 O14 2.120640 1_555
Li16 O2 2.053013 1_555
Li16 O32 2.071255 1_555
Li16 O14 2.138032 1_555
Li16 O21 2.142683 1_555
Li16 O33 2.164172 1_555
Li16 O20 2.222710 1_555
Li17 O21 2.035362 1_555
Li17 O1 2.037497 1_655
Li17 O33 2.186433 1_555
Li17 O19 2.192293 1_555
Li17 O3 2.195153 1_655
Li17 O15 2.196916 1_555
Li18 O16 2.044632 1_555
Li18 O20 2.067970 1_555
Li18 O34 2.127108 1_555
Li18 O31 2.143633 1_555
Li18 O18 2.209294 1_555
Li18 O32 2.218901 1_555
Li19 O17 2.064407 1_555
Li19 O22 2.065518 1_555
Li19 O4 2.133205 1_655
Li19 O1 2.145027 1_655
Li19 O19 2.181994 1_555
Li19 O13 2.206991 1_656
Li20 O24 2.076087 1_555
Li20 O35 2.081689 1_655
Li20 O34 2.101266 1_555
Li20 O18 2.101858 1_555
Li20 O22 2.107271 1_554
Li20 O8 2.139599 1_554
Li21 O27 2.026857 1_545
Li21 O6 2.051917 1_655
Li21 O35 2.145241 1_655
Li21 O9 2.183138 1_645
Li21 O24 2.184774 1_555
Li21 O23 2.223612 1_545
Li22 O19 2.071293 1_455
Li22 O26 2.084437 1_455
Li22 O12 2.088724 1_555
Li22 O4 2.109376 1_555
Li22 O3 2.132660 1_555
Li22 O25 2.155027 1_455
Li23 O30 2.059011 1_565
Li23 O28 2.062596 1_555
Li23 O10 2.110185 1_655
Li23 O6 2.150018 1_665
Li23 O23 2.187431 1_555
Li23 O7 2.207939 1_665
Mn0 O33 1.921566 1_455
Mn0 O32 1.926145 1_455
Mn0 O28 1.931877 1_455
Mn0 O14 1.941473 1_555
Mn0 O10 1.942361 1_555
Mn0 O5 1.959240 1_555
Mn1 O24 1.931566 1_555
Mn1 O18 1.936110 1_555
Mn1 O35 1.937938 1_555
Mn1 O6 1.939084 1_555
Mn1 O34 1.943169 1_455
Mn1 O20 1.944822 1_555
Mn2 O19 1.921024 1_555
Mn2 O26 1.928860 1_555
Mn2 O22 1.931643 1_555
Mn2 O4 1.935569 1_555
Mn2 O8 1.953893 1_555
Mn2 O12 1.955508 1_555
Mn3 O11 1.920576 1_555
Mn3 O17 1.926167 1_555
Mn3 O0 1.932432 1_655
Mn3 O29 1.942263 1_555
Mn3 O1 1.942578 1_655
Mn3 O15 1.958942 1_555
Mn4 O30 1.917536 1_555
Mn4 O20 1.930934 1_555
Mn4 O24 1.932316 1_555
Mn4 O6 1.945621 1_655
Mn4 O2 1.953298 1_555
Mn4 O34 1.953667 1_555
Cr0 O8 1.918446 1_555
Cr0 O18 1.923490 1_556
Cr0 O22 1.932995 1_455
Cr0 O35 1.943407 1_556
Cr0 O26 1.984696 1_455
Cr0 O4 1.990969 1_555
Cr1 O15 1.891908 1_555
Cr1 O5 1.904456 1_555
Cr1 O1 1.964125 1_555
Cr1 O29 1.969938 1_455
Cr1 O11 1.977798 1_555
Cr1 O33 1.984203 1_455
Cr2 O3 1.884749 1_555
Cr2 O12 1.906137 1_555
Cr2 O25 1.954344 1_555
Cr2 O19 1.955174 1_555
Cr2 O21 1.984382 1_555
Cr2 O7 1.987396 1_555
Cr3 O9 1.905413 1_555
Cr3 O16 1.917813 1_555
Cr3 O31 1.940348 1_555
Cr3 O23 1.950966 1_555
Cr3 O13 1.978064 1_555
Cr3 O27 1.982051 1_555
Cr4 O28 1.920438 1_555
Cr4 O23 1.931965 1_555
Cr4 O14 1.939481 1_555
Cr4 O32 1.955033 1_555
Cr4 O16 1.964453 1_555
Cr4 O10 1.965144 1_555
Cr5 O7 1.882168 1_655
Cr5 O2 1.902963 1_555
Cr5 O21 1.961376 1_555
Cr5 O30 1.973137 1_555
Cr5 O25 1.980795 1_555
Cr5 O3 1.981373 1_655
Cr6 O13 1.905733 1_655
Cr6 O27 1.932293 1_555
Cr6 O0 1.933123 1_654
Cr6 O17 1.940326 1_554
Cr6 O31 1.980587 1_555
Cr6 O9 1.983928 1_655
