# generated using pymatgen
data_Li2Mn3SbO8
_symmetry_space_group_name_H-M   'P 1'
_cell_length_a   6.10534729
_cell_length_b   6.07654474
_cell_length_c   6.09703274
_cell_angle_alpha   62.28774029
_cell_angle_beta   120.63029350
_cell_angle_gamma   117.75791916
_symmetry_Int_Tables_number   1
_chemical_formula_structural   Li2Mn3SbO8
_chemical_formula_sum   'Li2 Mn3 Sb1 O8'
_cell_volume   164.35373388
_cell_formula_units_Z   1
loop_
 _symmetry_equiv_pos_site_id
 _symmetry_equiv_pos_as_xyz
  1  'x, y, z'
loop_
 _atom_site_type_symbol
 _atom_site_label
 _atom_site_symmetry_multiplicity
 _atom_site_fract_x
 _atom_site_fract_y
 _atom_site_fract_z
 _atom_site_occupancy
  Li  Li0  1  0.49968300  0.99980500  0.00002200  1
  Li  Li1  1  0.99975700  0.99985200  0.49983400  1
  Mn  Mn0  1  0.50038500  0.00014800  0.50033500  1
  Mn  Mn1  1  0.49989800  0.50025400  0.99950400  1
  Mn  Mn2  1  0.99984000  0.50032200  0.49902500  1
  Sb  Sb0  1  0.00042900  0.00017300  0.00027800  1
  O  O0  1  0.69349200  0.24235400  0.26217000  1
  O  O1  1  0.74144200  0.21035800  0.74955700  1
  O  O2  1  0.23387700  0.19273100  0.27689800  1
  O  O3  1  0.75622800  0.75622000  0.20399800  1
  O  O4  1  0.24353200  0.24395600  0.79578100  1
  O  O5  1  0.76632400  0.80687600  0.72381300  1
  O  O6  1  0.25875300  0.78933200  0.25094900  1
  O  O7  1  0.30635700  0.75761900  0.73783700  1
loop_
_geom_bond_atom_site_label_1
_geom_bond_atom_site_label_2
_geom_bond_distance
_geom_bond_site_symmetry_2
Li0 O3 2.157157 1_555
Li0 O4 2.157770 1_564
Li0 O7 2.182118 1_554
Li0 O0 2.183198 1_565
Li0 O6 2.204778 1_555
Li0 O1 2.206402 1_564
Li1 O2 2.049876 1_665
Li1 O5 2.051407 1_555
Li1 O3 2.314356 1_555
Li1 O4 2.316800 1_665
Li1 O0 2.363717 1_565
Li1 O7 2.363971 1_655
Mn0 O0 1.950705 1_555
Mn0 O7 1.951680 1_545
Mn0 O1 1.970245 1_555
Mn0 O6 1.973548 1_545
Mn0 O2 1.976118 1_555
Mn0 O5 1.976265 1_545
Mn1 O7 1.966495 1_555
Mn1 O0 1.969773 1_556
Mn1 O4 1.991404 1_555
Mn1 O3 1.992720 1_556
Mn1 O5 2.448080 1_555
Mn1 O2 2.454151 1_556
Mn2 O0 2.159410 1_555
Mn2 O7 2.163782 1_655
Mn2 O3 2.166189 1_555
Mn2 O4 2.169897 1_655
Mn2 O6 2.291437 1_655
Mn2 O1 2.299962 1_555
O1 Sb0 2.017543 1_656
O2 Sb0 2.019289 1_555
O3 Sb0 2.019655 1_665
O4 Sb0 2.017875 1_556
O5 Sb0 2.021500 1_666
O6 Sb0 2.017298 1_565
