# generated using pymatgen
data_Li5Co2(PO4)3
_symmetry_space_group_name_H-M   'P 1'
_cell_length_a   8.69997800
_cell_length_b   8.79296027
_cell_length_c   12.41254123
_cell_angle_alpha   90.02394419
_cell_angle_beta   90.69837956
_cell_angle_gamma   90.06844510
_symmetry_Int_Tables_number   1
_chemical_formula_structural   Li5Co2(PO4)3
_chemical_formula_sum   'Li20 Co8 P12 O48'
_cell_volume   949.47023845
_cell_formula_units_Z   4
loop_
 _symmetry_equiv_pos_site_id
 _symmetry_equiv_pos_as_xyz
  1  'x, y, z'
loop_
 _atom_site_type_symbol
 _atom_site_label
 _atom_site_symmetry_multiplicity
 _atom_site_fract_x
 _atom_site_fract_y
 _atom_site_fract_z
 _atom_site_occupancy
  Li  Li0  1  0.93237900  0.47925600  0.64970800  1
  Li  Li1  1  0.92764800  0.90643800  0.30430000  1
  Li  Li2  1  0.85697500  0.26748700  0.25315400  1
  Li  Li3  1  0.90461000  0.34290600  0.02528000  1
  Li  Li4  1  0.79720100  0.22995300  0.81587900  1
  Li  Li5  1  0.70277900  0.73083900  0.68381900  1
  Li  Li6  1  0.59540500  0.84456200  0.47558100  1
  Li  Li7  1  0.64298700  0.76781600  0.24674800  1
  Li  Li8  1  0.57234500  0.40635500  0.19552500  1
  Li  Li9  1  0.56878600  0.97924900  0.85021200  1
  Li  Li10  1  0.44579700  0.01299100  0.15828200  1
  Li  Li11  1  0.42385300  0.59415000  0.80613100  1
  Li  Li12  1  0.37398900  0.22836400  0.74345600  1
  Li  Li13  1  0.34669600  0.31855400  0.50700000  1
  Li  Li14  1  0.30040900  0.26163900  0.30414100  1
  Li  Li15  1  0.19941300  0.76204300  0.19627900  1
  Li  Li16  1  0.15208600  0.81746200  0.99341000  1
  Li  Li17  1  0.12612800  0.72811600  0.75615500  1
  Li  Li18  1  0.07520600  0.09412500  0.69330100  1
  Li  Li19  1  0.05466600  0.51321000  0.34173900  1
  Co  Co0  1  0.74132400  0.46938500  0.40133700  1
  Co  Co1  1  0.75797600  0.96906500  0.09889600  1
  Co  Co2  1  0.75025900  0.54977600  0.88984100  1
  Co  Co3  1  0.75004000  0.04905500  0.60966400  1
  Co  Co4  1  0.25000500  0.95530700  0.39837500  1
  Co  Co5  1  0.24860600  0.45498400  0.10135500  1
  Co  Co6  1  0.25554900  0.05594000  0.89227400  1
  Co  Co7  1  0.24514600  0.55629600  0.60762100  1
  P  P0  1  0.95022000  0.75263700  0.50668800  1
  P  P1  1  0.89221000  0.60646600  0.15041300  1
  P  P2  1  0.89225600  0.89965500  0.84396600  1
  P  P3  1  0.60759100  0.10651400  0.34956300  1
  P  P4  1  0.60796300  0.39958900  0.65629100  1
  P  P5  1  0.55042700  0.25232600  0.99332100  1
  P  P6  1  0.45228300  0.75211900  0.00924800  1
  P  P7  1  0.39745600  0.60059300  0.35166500  1
  P  P8  1  0.39523200  0.89212600  0.65223600  1
  P  P9  1  0.10267800  0.10018500  0.14829400  1
  P  P10  1  0.10464000  0.39169800  0.84740200  1
  P  P11  1  0.04750900  0.25208600  0.49049200  1
  O  O0  1  0.95786000  0.13834800  0.55838200  1
  O  O1  1  0.92730400  0.13643100  0.13038900  1
  O  O2  1  0.95541000  0.31953500  0.39355500  1
  O  O3  1  0.93367800  0.41068700  0.80904100  1
  O  O4  1  0.90954100  0.62643300  0.42379600  1
  O  O5  1  0.84925000  0.77311000  0.18162700  1
  O  O6  1  0.87474700  0.57891200  0.02945400  1
  O  O7  1  0.87191900  0.02440900  0.75568700  1
  O  O8  1  0.83745700  0.74145500  0.80573200  1
  O  O9  1  0.79763700  0.82089700  0.55110100  1
  O  O10  1  0.79582600  0.95248000  0.94030600  1
  O  O11  1  0.79146900  0.48955200  0.21347500  1
  O  O12  1  0.70831700  0.98984600  0.28637900  1
  O  O13  1  0.70436500  0.45247900  0.55988000  1
  O  O14  1  0.70310500  0.32029500  0.94924100  1
  O  O15  1  0.66258100  0.24168000  0.69436200  1
  O  O16  1  0.62547700  0.07865600  0.47054300  1
  O  O17  1  0.62806000  0.52450700  0.74458400  1
  O  O18  1  0.65082700  0.27312800  0.31849600  1
  O  O19  1  0.59031000  0.12630900  0.07638200  1
  O  O20  1  0.54469900  0.81973500  0.10625000  1
  O  O21  1  0.57284000  0.63704100  0.36980200  1
  O  O22  1  0.56653100  0.91150800  0.69043900  1
  O  O23  1  0.54186200  0.63878000  0.94119400  1
  O  O24  1  0.45807400  0.37181400  0.05597100  1
  O  O25  1  0.43631400  0.08133300  0.31264000  1
  O  O26  1  0.43029800  0.38635800  0.63628600  1
  O  O27  1  0.46000900  0.18412100  0.89438500  1
  O  O28  1  0.39958900  0.88010000  0.92988600  1
  O  O29  1  0.33970800  0.73351800  0.69397400  1
  O  O30  1  0.37895100  0.48061400  0.25952600  1
  O  O31  1  0.38599200  0.89124900  0.52868800  1
  O  O32  1  0.31870600  0.75161900  0.32113300  1
  O  O33  1  0.30023200  0.68235600  0.05648300  1
  O  O34  1  0.32222400  0.52669400  0.45105400  1
  O  O35  1  0.29791100  0.01924000  0.70502600  1
  O  O36  1  0.20195500  0.51920500  0.79505400  1
  O  O37  1  0.17751700  0.02658300  0.04885900  1
  O  O38  1  0.19966100  0.18221000  0.44367700  1
  O  O39  1  0.18075400  0.25219100  0.17913500  1
  O  O40  1  0.12142100  0.98053600  0.24035600  1
  O  O41  1  0.11369700  0.39137100  0.97139800  1
  O  O42  1  0.16052100  0.23318100  0.80624400  1
  O  O43  1  0.10082400  0.37988200  0.57006200  1
  O  O44  1  0.06359000  0.58171500  0.18750100  1
  O  O45  1  0.04045600  0.68441100  0.60556500  1
  O  O46  1  0.06978900  0.88617100  0.86381700  1
  O  O47  1  0.04198400  0.87210400  0.44413400  1
loop_
_geom_bond_atom_site_label_1
_geom_bond_atom_site_label_2
_geom_bond_distance
_geom_bond_site_symmetry_2
Li0 O43 1.981442 1_655
Li0 O3 2.067733 1_555
Li0 O45 2.108978 1_655
Li0 O13 2.275637 1_555
Li1 O40 1.981640 1_655
Li1 O47 2.013037 1_655
Li1 O5 2.032105 1_555
Li1 O12 2.054660 1_555
Li2 O18 1.978004 1_555
Li2 O2 1.985440 1_555
Li2 O1 2.011795 1_555
Li2 O11 2.092047 1_555
Li3 O14 1.990566 1_554
Li3 O41 1.991459 1_654
Li3 O6 2.092398 1_555
Li3 O1 2.243622 1_555
Li4 O15 1.901249 1_555
Li4 O3 1.985088 1_555
Li4 O14 2.018638 1_555
Li4 O7 2.064162 1_555
Li5 O8 1.904707 1_555
Li5 O22 1.985518 1_555
Li5 O9 2.013608 1_555
Li5 O17 2.072031 1_555
Li6 O31 1.988259 1_555
Li6 O9 1.994588 1_555
Li6 O16 2.075693 1_565
Li6 O21 2.254539 1_555
Li7 O5 1.977601 1_555
Li7 O20 1.986499 1_555
Li7 O21 2.012514 1_555
Li7 O12 2.089555 1_555
Li8 O30 1.980684 1_555
Li8 O24 2.009486 1_555
Li8 O18 2.036263 1_555
Li8 O11 2.050669 1_555
Li9 O28 1.984452 1_555
Li9 O22 2.070326 1_555
Li9 O27 2.111226 1_565
Li9 O10 2.270475 1_555
Li10 O19 1.906824 1_555
Li10 O25 2.010446 1_555
Li10 O20 2.015243 1_545
Li11 O29 1.988586 1_555
Li11 O23 1.993781 1_555
Li11 O17 2.037207 1_555
Li11 O36 2.042167 1_555
Li12 O26 1.988803 1_555
Li12 O35 2.008866 1_555
Li12 O42 2.023291 1_555
Li12 O27 2.046510 1_555
Li13 O26 1.851880 1_555
Li13 O38 1.913759 1_555
Li13 O34 1.968620 1_555
Li13 O43 2.349978 1_555
Li14 O39 1.859698 1_555
Li14 O25 1.980978 1_555
Li14 O38 2.071814 1_555
Li14 O30 2.118462 1_555
Li15 O32 1.856988 1_555
Li15 O44 1.978537 1_555
Li15 O33 2.075779 1_555
Li15 O40 2.112350 1_555
Li16 O46 1.854435 1_555
Li16 O33 1.914482 1_556
Li16 O37 1.974354 1_566
Li16 O28 2.366552 1_555
Li17 O46 1.993391 1_555
Li17 O36 2.009619 1_555
Li17 O29 2.021247 1_555
Li17 O45 2.040074 1_555
Li18 O0 1.989435 1_455
Li18 O42 1.995578 1_555
Li18 O7 2.033357 1_455
Li18 O35 2.050615 1_555
Li19 O4 1.912117 1_455
Li19 O44 2.009626 1_555
Li19 O2 2.017526 1_455
Co0 O13 2.003437 1_555
Co0 O4 2.027643 1_555
Co0 O21 2.113459 1_555
Co0 O18 2.151910 1_555
Co0 O2 2.285755 1_555
Co0 O11 2.384162 1_555
Co1 O10 2.005091 1_554
Co1 O19 2.027997 1_565
Co1 O1 2.114004 1_565
Co1 O5 2.153782 1_555
Co1 O20 2.274587 1_555
Co1 O12 2.379068 1_555
Co2 O6 2.048158 1_556
Co2 O23 2.082565 1_555
Co2 O17 2.093519 1_555
Co2 O8 2.126932 1_555
Co2 O14 2.188639 1_555
Co2 O3 2.256248 1_555
Co3 O16 2.044399 1_555
Co3 O0 2.077425 1_555
Co3 O7 2.100128 1_555
Co3 O15 2.138711 1_555
Co3 O9 2.175490 1_545
Co3 O22 2.247737 1_545
Co4 O47 2.038476 1_555
Co4 O31 2.070992 1_555
Co4 O38 2.120332 1_565
Co4 O32 2.121162 1_555
Co4 O25 2.241983 1_565
Co4 O40 2.257272 1_555
Co5 O24 2.049645 1_555
Co5 O41 2.060111 1_554
Co5 O39 2.114947 1_555
Co5 O33 2.124601 1_555
Co5 O44 2.240828 1_555
Co5 O30 2.266286 1_555
Co6 O28 2.042032 1_545
Co6 O42 2.058056 1_555
Co6 O37 2.082624 1_556
Co6 O27 2.104564 1_555
Co6 O46 2.223695 1_545
Co6 O35 2.379605 1_555
Co7 O43 2.044644 1_555
Co7 O29 2.056225 1_555
Co7 O34 2.079896 1_555
Co7 O45 2.108229 1_555
Co7 O26 2.224042 1_555
Co7 O36 2.383676 1_555
O0 P11 1.527575 1_655
O1 P9 1.572208 1_655
O2 P11 1.555557 1_655
O3 P10 1.565330 1_655
O4 P0 1.550666 1_555
O5 P1 1.562451 1_555
O6 P1 1.526453 1_555
O7 P2 1.559508 1_545
O8 P2 1.542685 1_555
O9 P0 1.563904 1_555
O10 P2 1.540937 1_555
O11 P1 1.566186 1_555
O12 P3 1.566405 1_565
O13 P4 1.541361 1_555
O14 P5 1.561094 1_555
O15 P4 1.540666 1_555
O16 P3 1.527720 1_555
O17 P4 1.559487 1_555
O18 P3 1.561793 1_555
O19 P5 1.550583 1_554
O20 P6 1.557017 1_555
O21 P7 1.572250 1_555
O22 P8 1.567479 1_555
O23 P6 1.526861 1_556
O24 P5 1.539718 1_554
O25 P3 1.569065 1_555
O26 P4 1.566689 1_555
O27 P5 1.568844 1_555
O28 P6 1.561434 1_556
O29 P8 1.565837 1_555
O30 P7 1.562364 1_555
O31 P8 1.534687 1_555
O32 P7 1.540382 1_555
O33 P6 1.577092 1_555
O34 P7 1.546577 1_555
O35 P8 1.552641 1_545
O36 P10 1.551696 1_555
O37 P9 1.544684 1_555
O38 P11 1.577278 1_555
O39 P9 1.544493 1_555
O40 P9 1.560810 1_565
O41 P10 1.540166 1_555
O42 P10 1.564353 1_555
O43 P11 1.562051 1_555
O44 P1 1.570512 1_455
O45 P0 1.568678 1_455
O46 P2 1.565739 1_455
O47 P0 1.535418 1_455
