# generated using pymatgen
data_Li8Fe7Sn(PO4)12
_symmetry_space_group_name_H-M   'P 1'
_cell_length_a   8.67976400
_cell_length_b   8.81660198
_cell_length_c   12.26096498
_cell_angle_alpha   89.95957255
_cell_angle_beta   89.96784960
_cell_angle_gamma   89.97301121
_symmetry_Int_Tables_number   1
_chemical_formula_structural   Li8Fe7Sn(PO4)12
_chemical_formula_sum   'Li8 Fe7 Sn1 P12 O48'
_cell_volume   938.28242067
_cell_formula_units_Z   1
loop_
 _symmetry_equiv_pos_site_id
 _symmetry_equiv_pos_as_xyz
  1  'x, y, z'
loop_
 _atom_site_type_symbol
 _atom_site_label
 _atom_site_symmetry_multiplicity
 _atom_site_fract_x
 _atom_site_fract_y
 _atom_site_fract_z
 _atom_site_occupancy
  Li  Li0  1  0.78287600  0.72240100  0.81808500  1
  Li  Li1  1  0.78285600  0.77764300  0.18127900  1
  Li  Li2  1  0.71670400  0.22193200  0.68232000  1
  Li  Li3  1  0.71851100  0.27749300  0.31823700  1
  Li  Li4  1  0.28288300  0.72243200  0.68228900  1
  Li  Li5  1  0.28280200  0.78401200  0.31788100  1
  Li  Li6  1  0.21715300  0.22202300  0.81877000  1
  Li  Li7  1  0.21594400  0.27476500  0.17614700  1
  Fe  Fe0  1  0.75086500  0.95861500  0.38742400  1
  Fe  Fe1  1  0.75065100  0.54085800  0.61245400  1
  Fe  Fe2  1  0.74934300  0.04102900  0.88720400  1
  Fe  Fe3  1  0.74896700  0.45923800  0.11347000  1
  Fe  Fe4  1  0.25113400  0.54110700  0.88740400  1
  Fe  Fe5  1  0.25098200  0.95875400  0.11196700  1
  Fe  Fe6  1  0.24868400  0.04004800  0.61335200  1
  Sn  Sn0  1  0.24911700  0.46076100  0.38603300  1
  P  P0  1  0.95770000  0.24807500  0.50115100  1
  P  P1  1  0.53969000  0.74987700  0.00002600  1
  P  P2  1  0.46073300  0.24992200  0.99956500  1
  P  P3  1  0.03870300  0.75216200  0.50160100  1
  P  P4  1  0.89391400  0.39269500  0.85321900  1
  P  P5  1  0.89384700  0.10695900  0.14672700  1
  P  P6  1  0.60865700  0.60660900  0.35298100  1
  P  P7  1  0.60594200  0.89234700  0.64716000  1
  P  P8  1  0.39567800  0.10454400  0.35301800  1
  P  P9  1  0.39648200  0.39201800  0.65027700  1
  P  P10  1  0.10460000  0.60782300  0.14577800  1
  P  P11  1  0.10581300  0.89263200  0.85310600  1
  O  O0  1  0.94467100  0.64109100  0.57020100  1
  O  O1  1  0.94290700  0.85871100  0.43073600  1
  O  O2  1  0.92716700  0.89590500  0.84436500  1
  O  O3  1  0.92707800  0.60477100  0.15600500  1
  O  O4  1  0.84969700  0.16152900  0.42192100  1
  O  O5  1  0.85053100  0.33605800  0.58020400  1
  O  O6  1  0.84346700  0.43376000  0.96931300  1
  O  O7  1  0.84357600  0.06601200  0.03076200  1
  O  O8  1  0.83729000  0.23274700  0.82045600  1
  O  O9  1  0.83774100  0.26714100  0.17962700  1
  O  O10  1  0.82696200  0.51397800  0.77437800  1
  O  O11  1  0.82630300  0.98608300  0.22577900  1
  O  O12  1  0.67374500  0.01330000  0.72613200  1
  O  O13  1  0.67380000  0.48508500  0.27429800  1
  O  O14  1  0.66318500  0.76683900  0.31971600  1
  O  O15  1  0.66298000  0.73252300  0.67989800  1
  O  O16  1  0.65480200  0.56573100  0.46959900  1
  O  O17  1  0.65527000  0.93402600  0.53098700  1
  O  O18  1  0.64821800  0.83746900  0.92098700  1
  O  O19  1  0.64780400  0.66246900  0.07904200  1
  O  O20  1  0.57333600  0.10463200  0.34387500  1
  O  O21  1  0.57426100  0.39526300  0.65901400  1
  O  O22  1  0.55690300  0.14279400  0.92903400  1
  O  O23  1  0.55648400  0.35708000  0.07042900  1
  O  O24  1  0.44369700  0.64324400  0.92910600  1
  O  O25  1  0.44335300  0.85702800  0.07067300  1
  O  O26  1  0.42757500  0.60886700  0.34271700  1
  O  O27  1  0.42721100  0.89559500  0.65615400  1
  O  O28  1  0.35208800  0.33751700  0.92090100  1
  O  O29  1  0.35243000  0.16179200  0.07840400  1
  O  O30  1  0.34293700  0.06915000  0.46908600  1
  O  O31  1  0.34850800  0.43488100  0.53341900  1
  O  O32  1  0.33792100  0.23206000  0.68099700  1
  O  O33  1  0.33795200  0.26555400  0.31599900  1
  O  O34  1  0.32621100  0.51335700  0.72744500  1
  O  O35  1  0.32647500  0.98667100  0.27352200  1
  O  O36  1  0.17390600  0.01387700  0.77448300  1
  O  O37  1  0.17455100  0.48293000  0.22328500  1
  O  O38  1  0.16241600  0.73272300  0.82034600  1
  O  O39  1  0.16376200  0.76603500  0.18045400  1
  O  O40  1  0.15639500  0.56630500  0.03049200  1
  O  O41  1  0.15593900  0.93320700  0.96932100  1
  O  O42  1  0.14788000  0.66763600  0.41902500  1
  O  O43  1  0.14811300  0.83795900  0.58021600  1
  O  O44  1  0.07266400  0.10380100  0.15530300  1
  O  O45  1  0.07270100  0.39525800  0.84481200  1
  O  O46  1  0.05679600  0.14303100  0.57056200  1
  O  O47  1  0.04911300  0.35775200  0.42760100  1
loop_
_geom_bond_atom_site_label_1
_geom_bond_atom_site_label_2
_geom_bond_distance
_geom_bond_site_symmetry_2
Li0 O10 1.952130 1_555
Li0 O15 1.990806 1_555
Li0 O18 1.996543 1_555
Li0 O2 2.003832 1_555
Li1 O11 1.954345 1_555
Li1 O14 1.991723 1_555
Li1 O19 1.995273 1_555
Li1 O3 1.996124 1_555
Li2 O12 1.951950 1_555
Li2 O5 1.981673 1_555
Li2 O21 1.985859 1_555
Li2 O8 1.993853 1_555
Li3 O13 1.946498 1_555
Li3 O4 1.989142 1_555
Li3 O9 1.991420 1_555
Li3 O20 2.002507 1_555
Li4 O34 1.960607 1_555
Li4 O38 1.991226 1_555
Li4 O43 1.992694 1_555
Li4 O27 2.000881 1_555
Li5 O35 1.905535 1_555
Li5 O39 1.983525 1_555
Li5 O42 1.989931 1_555
Li5 O26 2.013505 1_555
Li6 O36 1.950841 1_555
Li6 O32 1.989477 1_555
Li6 O28 1.995299 1_555
Li6 O45 2.001301 1_555
Li7 O29 1.957224 1_555
Li7 O37 1.957579 1_555
Li7 O44 1.971454 1_555
Li7 O33 2.017450 1_555
Fe0 O17 1.957509 1_555
Fe0 O1 1.958387 1_555
Fe0 O4 2.029353 1_565
Fe0 O14 2.032513 1_555
Fe0 O20 2.077240 1_565
Fe0 O11 2.100816 1_555
Fe1 O16 1.951676 1_555
Fe1 O0 1.971074 1_555
Fe1 O15 2.029401 1_555
Fe1 O5 2.041425 1_555
Fe1 O21 2.077866 1_555
Fe1 O10 2.106453 1_555
Fe2 O7 1.953971 1_556
Fe2 O22 1.963756 1_555
Fe2 O8 2.026862 1_555
Fe2 O18 2.040344 1_545
Fe2 O2 2.072073 1_545
Fe2 O12 2.095910 1_555
Fe3 O6 1.961142 1_554
Fe3 O23 1.970804 1_555
Fe3 O9 2.029199 1_555
Fe3 O19 2.039027 1_555
Fe3 O3 2.076550 1_555
Fe3 O13 2.089273 1_555
Fe4 O40 1.949928 1_556
Fe4 O24 1.966964 1_555
Fe4 O38 2.029923 1_555
Fe4 O28 2.038703 1_555
Fe4 O45 2.080531 1_555
Fe4 O34 2.080891 1_555
Fe5 O41 1.947447 1_554
Fe5 O25 1.961385 1_555
Fe5 O29 2.036963 1_565
Fe5 O39 2.040530 1_555
Fe5 O44 2.076400 1_565
Fe5 O35 2.101403 1_555
Fe6 O30 1.965157 1_555
Fe6 O46 1.967882 1_555
Fe6 O43 2.025969 1_545
Fe6 O32 2.039033 1_555
Fe6 O27 2.072851 1_545
Fe6 O36 2.091806 1_555
O0 P3 1.526887 1_655
O1 P3 1.525682 1_655
O2 P11 1.554617 1_655
O3 P10 1.546118 1_655
O4 P0 1.551598 1_555
O5 P0 1.551080 1_555
O6 P4 1.532588 1_555
O7 P5 1.530990 1_555
O8 P4 1.547015 1_555
O9 P5 1.547350 1_555
O10 P4 1.553754 1_555
O11 P5 1.554800 1_565
O12 P7 1.556851 1_545
O13 P6 1.548756 1_555
O14 P6 1.544549 1_555
O15 P7 1.546145 1_555
O16 P6 1.527928 1_555
O17 P7 1.531656 1_555
O18 P1 1.556117 1_556
O19 P1 1.553182 1_555
O20 P8 1.546037 1_555
O21 P9 1.547133 1_555
O22 P2 1.528499 1_555
O23 P2 1.530012 1_554
O24 P1 1.528692 1_556
O25 P1 1.530220 1_555
O26 P6 1.576965 1_555
O26 Sn0 2.094392 1_555
O27 P7 1.555447 1_555
O28 P2 1.554105 1_555
O29 P2 1.555773 1_554
O30 P8 1.526744 1_555
O31 P9 1.539108 1_555
O31 Sn0 2.015656 1_555
O32 P9 1.545591 1_555
O33 P8 1.571908 1_555
O33 Sn0 2.072204 1_555
O34 P9 1.553017 1_555
O35 P8 1.547103 1_565
O36 P11 1.555570 1_545
O37 P10 1.575679 1_555
O37 Sn0 2.107055 1_555
O38 P11 1.546069 1_555
O39 P10 1.546589 1_555
O40 P10 1.527742 1_555
O41 P11 1.532708 1_555
O42 P3 1.574095 1_555
O42 Sn0 2.064373 1_555
O43 P3 1.551086 1_555
O44 P5 1.555941 1_455
O45 P4 1.555365 1_455
O46 P0 1.523411 1_455
O47 P0 1.541597 1_455
O47 Sn0 2.024366 1_555
