# generated using pymatgen
data_Ca(CuO)2
_symmetry_space_group_name_H-M   'P 1'
_cell_length_a   6.05882765
_cell_length_b   6.05882765
_cell_length_c   6.05882765
_cell_angle_alpha   127.76688186
_cell_angle_beta   127.76688186
_cell_angle_gamma   77.00297562
_symmetry_Int_Tables_number   1
_chemical_formula_structural   Ca(CuO)2
_chemical_formula_sum   'Ca2 Cu4 O4'
_cell_volume   134.91451622
_cell_formula_units_Z   2
loop_
 _symmetry_equiv_pos_site_id
 _symmetry_equiv_pos_as_xyz
  1  'x, y, z'
loop_
 _atom_site_type_symbol
 _atom_site_label
 _atom_site_symmetry_multiplicity
 _atom_site_fract_x
 _atom_site_fract_y
 _atom_site_fract_z
 _atom_site_occupancy
  Ca  Ca0  1  0.00000000  0.00000000  0.00000000  1
  Ca  Ca1  1  0.75000000  0.25000000  0.50000000  1
  Cu  Cu0  1  0.87500000  0.62500000  0.25000000  1
  Cu  Cu1  1  0.37500000  0.62500000  0.25000000  1
  Cu  Cu2  1  0.37500000  0.12500000  0.75000000  1
  Cu  Cu3  1  0.37500000  0.62500000  0.75000000  1
  O  O0  1  0.23892900  0.23892900  0.00000000  1
  O  O1  1  0.51107100  0.01107100  0.50000000  1
  O  O2  1  0.76107100  0.76107100  0.00000000  1
  O  O3  1  0.98892900  0.48892900  0.50000000  1
loop_
_geom_bond_atom_site_label_1
_geom_bond_atom_site_label_2
_geom_bond_distance
_geom_bond_site_symmetry_2
Ca0 O2 2.265807 1_445
Ca0 O0 2.265807 1_555
Ca0 O1 2.669154 1_454
Ca0 O3 2.669154 1_444
Ca0 O1 2.669154 1_555
Ca0 O3 2.669154 1_455
Ca1 O1 2.265807 1_555
Ca1 O3 2.265807 1_555
Ca1 O0 2.669154 1_656
Ca1 O2 2.669154 1_556
Ca1 O2 2.669154 1_545
Ca1 O0 2.669154 1_555
Cu0 O3 1.855650 1_555
Cu0 O2 1.855650 1_555
Cu1 O0 1.855650 1_555
Cu1 O1 1.855650 1_565
Cu2 O0 1.855650 1_556
Cu2 O1 1.855650 1_555
Cu3 O2 1.855650 1_556
Cu3 O3 1.855650 1_455
