# generated using pymatgen
data_Ca2WO5
_symmetry_space_group_name_H-M   'P 1'
_cell_length_a   5.46648000
_cell_length_b   7.31445300
_cell_length_c   10.72098000
_cell_angle_alpha   90.00000000
_cell_angle_beta   90.00000000
_cell_angle_gamma   90.00000000
_symmetry_Int_Tables_number   1
_chemical_formula_structural   Ca2WO5
_chemical_formula_sum   'Ca8 W4 O20'
_cell_volume   428.67099892
_cell_formula_units_Z   4
loop_
 _symmetry_equiv_pos_site_id
 _symmetry_equiv_pos_as_xyz
  1  'x, y, z'
loop_
 _atom_site_type_symbol
 _atom_site_label
 _atom_site_symmetry_multiplicity
 _atom_site_fract_x
 _atom_site_fract_y
 _atom_site_fract_z
 _atom_site_occupancy
  Ca  Ca0  1  0.25000000  0.98950000  0.24184400  1
  Ca  Ca1  1  0.75000000  0.14939700  0.42027700  1
  Ca  Ca2  1  0.25000000  0.35060300  0.92027700  1
  Ca  Ca3  1  0.75000000  0.51050000  0.74184400  1
  Ca  Ca4  1  0.25000000  0.48950000  0.25815600  1
  Ca  Ca5  1  0.75000000  0.64939700  0.07972300  1
  Ca  Ca6  1  0.25000000  0.85060300  0.57972300  1
  Ca  Ca7  1  0.75000000  0.01050000  0.75815600  1
  W  W0  1  0.75000000  0.18535300  0.05850600  1
  W  W1  1  0.25000000  0.31464700  0.55850600  1
  W  W2  1  0.75000000  0.68535300  0.44149400  1
  W  W3  1  0.25000000  0.81464700  0.94149400  1
  O  O0  1  0.00000000  0.00000000  0.00000000  1
  O  O1  1  0.50000000  0.00000000  0.00000000  1
  O  O2  1  0.75000000  0.06828600  0.21497600  1
  O  O3  1  0.00078000  0.14574000  0.59771200  1
  O  O4  1  0.49922000  0.14574000  0.59771200  1
  O  O5  1  0.25000000  0.23121100  0.37935600  1
  O  O6  1  0.75000000  0.26878900  0.87935600  1
  O  O7  1  0.50078000  0.35426000  0.09771200  1
  O  O8  1  0.99922000  0.35426000  0.09771200  1
  O  O9  1  0.25000000  0.43171400  0.71497600  1
  O  O10  1  0.00000000  0.50000000  0.50000000  1
  O  O11  1  0.50000000  0.50000000  0.50000000  1
  O  O12  1  0.75000000  0.56828600  0.28502400  1
  O  O13  1  0.00078000  0.64574000  0.90228800  1
  O  O14  1  0.49922000  0.64574000  0.90228800  1
  O  O15  1  0.25000000  0.73121100  0.12064400  1
  O  O16  1  0.75000000  0.76878900  0.62064400  1
  O  O17  1  0.50078000  0.85426000  0.40228800  1
  O  O18  1  0.99922000  0.85426000  0.40228800  1
  O  O19  1  0.25000000  0.93171400  0.78502400  1
loop_
_geom_bond_atom_site_label_1
_geom_bond_atom_site_label_2
_geom_bond_distance
_geom_bond_site_symmetry_2
Ca0 O15 2.292953 1_555
Ca0 O5 2.302003 1_565
Ca0 O18 2.411774 1_455
Ca0 O17 2.411774 1_555
Ca0 O2 2.808143 1_565
Ca0 O2 2.808143 1_465
Ca0 O0 2.931925 1_565
Ca0 O1 2.931925 1_565
Ca1 O2 2.279585 1_555
Ca1 O3 2.344930 1_655
Ca1 O4 2.344930 1_555
Ca1 O17 2.559976 1_545
Ca1 O18 2.559976 1_545
Ca1 O5 2.832169 1_655
Ca1 O5 2.832169 1_555
Ca1 O11 3.028973 1_555
Ca1 O10 3.028973 1_655
Ca2 O9 2.279585 1_555
Ca2 O8 2.344930 1_456
Ca2 O7 2.344930 1_556
Ca2 O13 2.559976 1_555
Ca2 O14 2.559976 1_555
Ca2 O6 2.832169 1_555
Ca2 O6 2.832169 1_455
Ca2 O1 3.028973 1_556
Ca2 O0 3.028973 1_556
Ca3 O16 2.292953 1_555
Ca3 O6 2.302003 1_555
Ca3 O14 2.411774 1_555
Ca3 O13 2.411774 1_655
Ca3 O9 2.808143 1_555
Ca3 O9 2.808143 1_655
Ca3 O10 2.931925 1_655
Ca3 O11 2.931925 1_555
Ca4 O5 2.292953 1_555
Ca4 O15 2.302003 1_555
Ca4 O8 2.411774 1_455
Ca4 O7 2.411774 1_555
Ca4 O12 2.808143 1_555
Ca4 O12 2.808143 1_455
Ca4 O10 2.931925 1_555
Ca4 O11 2.931925 1_555
Ca5 O12 2.279585 1_555
Ca5 O14 2.344930 1_554
Ca5 O13 2.344930 1_654
Ca5 O7 2.559976 1_555
Ca5 O8 2.559976 1_555
Ca5 O15 2.832169 1_655
Ca5 O15 2.832169 1_555
Ca5 O0 3.028973 1_665
Ca5 O1 3.028973 1_565
Ca6 O19 2.279585 1_555
Ca6 O18 2.344930 1_455
Ca6 O17 2.344930 1_555
Ca6 O3 2.559976 1_565
Ca6 O4 2.559976 1_565
Ca6 O16 2.832169 1_455
Ca6 O16 2.832169 1_555
Ca6 O10 3.028973 1_555
Ca6 O11 3.028973 1_555
Ca7 O6 2.292953 1_555
Ca7 O16 2.302003 1_545
Ca7 O4 2.411774 1_555
Ca7 O3 2.411774 1_655
Ca7 O19 2.808143 1_645
Ca7 O19 2.808143 1_545
Ca7 O1 2.931925 1_556
Ca7 O0 2.931925 1_656
O0 W0 2.024637 1_455
O0 W3 2.024637 1_544
O1 W0 2.024637 1_555
O1 W3 2.024637 1_544
O2 W0 1.883418 1_555
O3 W1 1.886546 1_555
O4 W1 1.886546 1_555
O5 W1 2.015292 1_555
O6 W0 2.015292 1_556
O7 W0 1.886546 1_555
O8 W0 1.886546 1_555
O9 W1 1.883418 1_555
O10 W1 2.024637 1_555
O10 W2 2.024637 1_455
O11 W1 2.024637 1_555
O11 W2 2.024637 1_555
O12 W2 1.883418 1_555
O13 W3 1.886546 1_555
O14 W3 1.886546 1_555
O15 W3 2.015292 1_554
O16 W2 2.015292 1_555
O17 W2 1.886546 1_555
O18 W2 1.886546 1_555
O19 W3 1.883418 1_555
