# generated using pymatgen
data_Li2Mn2(SO4)3
_symmetry_space_group_name_H-M   'P 1'
_cell_length_a   8.81881600
_cell_length_b   8.92161600
_cell_length_c   24.49527300
_cell_angle_alpha   90.00000000
_cell_angle_beta   90.00000000
_cell_angle_gamma   90.00000000
_symmetry_Int_Tables_number   1
_chemical_formula_structural   Li2Mn2(SO4)3
_chemical_formula_sum   'Li16 Mn16 S24 O96'
_cell_volume   1927.24129187
_cell_formula_units_Z   8
loop_
 _symmetry_equiv_pos_site_id
 _symmetry_equiv_pos_as_xyz
  1  'x, y, z'
loop_
 _atom_site_type_symbol
 _atom_site_label
 _atom_site_symmetry_multiplicity
 _atom_site_fract_x
 _atom_site_fract_y
 _atom_site_fract_z
 _atom_site_occupancy
  Li  Li0  1  0.96247900  0.37733800  0.70890700  1
  Li  Li1  1  0.53752100  0.62266200  0.20890700  1
  Li  Li2  1  0.46247900  0.37733800  0.79109300  1
  Li  Li3  1  0.14376800  0.56864900  0.50934500  1
  Li  Li4  1  0.64376800  0.56864900  0.99065500  1
  Li  Li5  1  0.85623200  0.43135100  0.49065500  1
  Li  Li6  1  0.96247900  0.12266200  0.20890700  1
  Li  Li7  1  0.85623200  0.06864900  0.99065500  1
  Li  Li8  1  0.46247900  0.12266200  0.29109300  1
  Li  Li9  1  0.64376800  0.93135100  0.49065500  1
  Li  Li10  1  0.35623200  0.06864900  0.50934500  1
  Li  Li11  1  0.03752100  0.87733800  0.79109300  1
  Li  Li12  1  0.14376800  0.93135100  0.00934500  1
  Li  Li13  1  0.03752100  0.62266200  0.29109300  1
  Li  Li14  1  0.35623200  0.43135100  0.00934500  1
  Li  Li15  1  0.53752100  0.87733800  0.70890700  1
  Mn  Mn0  1  0.49916600  0.90287000  0.06576400  1
  Mn  Mn1  1  0.99916600  0.59713000  0.93423600  1
  Mn  Mn2  1  0.50142600  0.70529900  0.82198400  1
  Mn  Mn3  1  0.99857400  0.20529900  0.82198400  1
  Mn  Mn4  1  0.00142600  0.70529900  0.67801600  1
  Mn  Mn5  1  0.50083400  0.09713000  0.93423600  1
  Mn  Mn6  1  0.50083400  0.40287000  0.43423600  1
  Mn  Mn7  1  0.99857400  0.29470100  0.32198400  1
  Mn  Mn8  1  0.49857400  0.29470100  0.17801600  1
  Mn  Mn9  1  0.50142600  0.79470100  0.32198400  1
  Mn  Mn10  1  0.00142600  0.79470100  0.17801600  1
  Mn  Mn11  1  0.00083400  0.09713000  0.56576400  1
  Mn  Mn12  1  0.49916600  0.59713000  0.56576400  1
  Mn  Mn13  1  0.49857400  0.20529900  0.67801600  1
  Mn  Mn14  1  0.00083400  0.40287000  0.06576400  1
  Mn  Mn15  1  0.99916600  0.90287000  0.43423600  1
  S  S0  1  0.80613600  0.90716500  0.88406100  1
  S  S1  1  0.19386400  0.09283500  0.11593900  1
  S  S2  1  0.14449000  0.55287000  0.79879900  1
  S  S3  1  0.85551000  0.05287000  0.70120100  1
  S  S4  1  0.64896300  0.24684400  0.55180100  1
  S  S5  1  0.35551000  0.05287000  0.79879900  1
  S  S6  1  0.80613600  0.59283500  0.38406100  1
  S  S7  1  0.19386400  0.40716500  0.61593900  1
  S  S8  1  0.35551000  0.44713000  0.29879900  1
  S  S9  1  0.64449000  0.55287000  0.70120100  1
  S  S10  1  0.14449000  0.94713000  0.29879900  1
  S  S11  1  0.64896300  0.25315600  0.05180100  1
  S  S12  1  0.85103700  0.75315600  0.05180100  1
  S  S13  1  0.35103700  0.74684400  0.94819900  1
  S  S14  1  0.30613600  0.59283500  0.11593900  1
  S  S15  1  0.14896300  0.25315600  0.44819900  1
  S  S16  1  0.69386400  0.40716500  0.88406100  1
  S  S17  1  0.69386400  0.09283500  0.38406100  1
  S  S18  1  0.35103700  0.75315600  0.44819900  1
  S  S19  1  0.14896300  0.24684400  0.94819900  1
  S  S20  1  0.85551000  0.44713000  0.20120100  1
  S  S21  1  0.30613600  0.90716500  0.61593900  1
  S  S22  1  0.64449000  0.94713000  0.20120100  1
  S  S23  1  0.85103700  0.74684400  0.55180100  1
  O  O0  1  0.40598100  0.81052500  0.58311400  1
  O  O1  1  0.09431800  0.67823400  0.76224600  1
  O  O2  1  0.90598100  0.81052500  0.91688600  1
  O  O3  1  0.14126300  0.23171100  0.38869100  1
  O  O4  1  0.91556400  0.88652200  0.52449100  1
  O  O5  1  0.64126300  0.23171100  0.11130900  1
  O  O6  1  0.06546300  0.11154100  0.96546300  1
  O  O7  1  0.31341300  0.54353800  0.79761600  1
  O  O8  1  0.35873700  0.76828900  0.88869100  1
  O  O9  1  0.41900600  0.59149200  0.27799400  1
  O  O10  1  0.58099400  0.40850800  0.72200600  1
  O  O11  1  0.81009200  0.26340700  0.03314400  1
  O  O12  1  0.41556400  0.61347800  0.47550900  1
  O  O13  1  0.68990800  0.73659300  0.53314400  1
  O  O14  1  0.59401900  0.31052500  0.91688600  1
  O  O15  1  0.09820000  0.01137200  0.15692500  1
  O  O16  1  0.58443600  0.38652200  0.52449100  1
  O  O17  1  0.91900600  0.90850800  0.72200600  1
  O  O18  1  0.85873700  0.76828900  0.61130900  1
  O  O19  1  0.41053900  0.41550700  0.35424900  1
  O  O20  1  0.56546300  0.38845900  0.03453700  1
  O  O21  1  0.40180000  0.51137200  0.15692500  1
  O  O22  1  0.31009200  0.23659300  0.96685600  1
  O  O23  1  0.08099400  0.40850800  0.77799400  1
  O  O24  1  0.81341300  0.95646200  0.20238400  1
  O  O25  1  0.81058800  0.17829700  0.35468200  1
  O  O26  1  0.31058800  0.32170300  0.64531800  1
  O  O27  1  0.23358500  0.48238900  0.07777200  1
  O  O28  1  0.18658700  0.04353800  0.79761600  1
  O  O29  1  0.85873700  0.73171100  0.11130900  1
  O  O30  1  0.58443600  0.11347800  0.02449100  1
  O  O31  1  0.08443600  0.38652200  0.97550900  1
  O  O32  1  0.90568200  0.17823400  0.73775400  1
  O  O33  1  0.08946100  0.58449300  0.85424900  1
  O  O34  1  0.93453700  0.61154100  0.53453700  1
  O  O35  1  0.73358500  0.48238900  0.42222800  1
  O  O36  1  0.09431800  0.82176600  0.26224600  1
  O  O37  1  0.09401900  0.18947500  0.08311400  1
  O  O38  1  0.90180000  0.98862800  0.84307500  1
  O  O39  1  0.43453700  0.88845900  0.46546300  1
  O  O40  1  0.90180000  0.51137200  0.34307500  1
  O  O41  1  0.09401900  0.31052500  0.58311400  1
  O  O42  1  0.68990800  0.76340700  0.03314400  1
  O  O43  1  0.18941200  0.67829700  0.14531800  1
  O  O44  1  0.40180000  0.98862800  0.65692500  1
  O  O45  1  0.08946100  0.91550700  0.35424900  1
  O  O46  1  0.58946100  0.91550700  0.14575100  1
  O  O47  1  0.81009200  0.23659300  0.53314400  1
  O  O48  1  0.06546300  0.38845900  0.46546300  1
  O  O49  1  0.40568200  0.32176600  0.26224600  1
  O  O50  1  0.14126300  0.26828900  0.88869100  1
  O  O51  1  0.31058800  0.17829700  0.14531800  1
  O  O52  1  0.08443600  0.11347800  0.47550900  1
  O  O53  1  0.91900600  0.59149200  0.22200600  1
  O  O54  1  0.08099400  0.09149200  0.27799400  1
  O  O55  1  0.35873700  0.73171100  0.38869100  1
  O  O56  1  0.73358500  0.01761100  0.92222800  1
  O  O57  1  0.40568200  0.17823400  0.76224600  1
  O  O58  1  0.68941200  0.67829700  0.35468200  1
  O  O59  1  0.68941200  0.82170300  0.85468200  1
  O  O60  1  0.81341300  0.54353800  0.70238400  1
  O  O61  1  0.90598100  0.68947500  0.41688600  1
  O  O62  1  0.31009200  0.26340700  0.46685600  1
  O  O63  1  0.90568200  0.32176600  0.23775400  1
  O  O64  1  0.31341300  0.95646200  0.29761600  1
  O  O65  1  0.91556400  0.61347800  0.02449100  1
  O  O66  1  0.59401900  0.18947500  0.41688600  1
  O  O67  1  0.68658700  0.45646200  0.20238400  1
  O  O68  1  0.91053900  0.08449300  0.64575100  1
  O  O69  1  0.40598100  0.68947500  0.08311400  1
  O  O70  1  0.41900600  0.90850800  0.77799400  1
  O  O71  1  0.26641500  0.51761100  0.57777200  1
  O  O72  1  0.18941200  0.82170300  0.64531800  1
  O  O73  1  0.26641500  0.98238900  0.07777200  1
  O  O74  1  0.09820000  0.48862800  0.65692500  1
  O  O75  1  0.18990800  0.76340700  0.46685600  1
  O  O76  1  0.59820000  0.48862800  0.84307500  1
  O  O77  1  0.64126300  0.26828900  0.61130900  1
  O  O78  1  0.76641500  0.98238900  0.42222800  1
  O  O79  1  0.59431800  0.67823400  0.73775400  1
  O  O80  1  0.18990800  0.73659300  0.96685600  1
  O  O81  1  0.59820000  0.01137200  0.34307500  1
  O  O82  1  0.68658700  0.04353800  0.70238400  1
  O  O83  1  0.76641500  0.51761100  0.92222800  1
  O  O84  1  0.81058800  0.32170300  0.85468200  1
  O  O85  1  0.58099400  0.09149200  0.22200600  1
  O  O86  1  0.41556400  0.88652200  0.97550900  1
  O  O87  1  0.58946100  0.58449300  0.64575100  1
  O  O88  1  0.41053900  0.08449300  0.85424900  1
  O  O89  1  0.56546300  0.11154100  0.53453700  1
  O  O90  1  0.18658700  0.45646200  0.29761600  1
  O  O91  1  0.91053900  0.41550700  0.14575100  1
  O  O92  1  0.93453700  0.88845900  0.03453700  1
  O  O93  1  0.23358500  0.01761100  0.57777200  1
  O  O94  1  0.43453700  0.61154100  0.96546300  1
  O  O95  1  0.59431800  0.82176600  0.23775400  1
loop_
_geom_bond_atom_site_label_1
_geom_bond_atom_site_label_2
_geom_bond_distance
_geom_bond_site_symmetry_2
Li0 O32 1.976242 1_555
Li0 O60 1.988034 1_555
Li0 O23 2.008380 1_655
Li0 O74 2.009905 1_655
Li1 O95 1.976242 1_555
Li1 O67 1.988034 1_555
Li1 O9 2.008380 1_555
Li1 O21 2.009905 1_555
Li2 O57 1.976242 1_555
Li2 O7 1.988034 1_555
Li2 O10 2.008380 1_555
Li2 O76 2.009905 1_555
Li3 O34 1.982896 1_455
Li3 O71 2.046127 1_555
Li3 O48 2.053440 1_555
Li3 O75 2.065888 1_555
Li3 O12 2.567513 1_555
Li4 O94 1.982896 1_555
Li4 O83 2.046127 1_555
Li4 O20 2.053440 1_556
Li4 O42 2.065888 1_556
Li4 O65 2.567513 1_556
Li5 O48 1.982896 1_655
Li5 O35 2.046127 1_555
Li5 O34 2.053440 1_555
Li5 O47 2.065888 1_555
Li5 O16 2.567513 1_555
Li6 O63 1.976242 1_555
Li6 O24 1.988034 1_545
Li6 O54 2.008380 1_655
Li6 O15 2.009905 1_655
Li7 O6 1.982896 1_655
Li7 O56 2.046127 1_555
Li7 O92 2.053440 1_546
Li7 O11 2.065888 1_556
Li7 O30 2.567513 1_556
Li8 O49 1.976242 1_555
Li8 O64 1.988034 1_545
Li8 O85 2.008380 1_555
Li8 O81 2.009905 1_555
Li9 O39 1.982896 1_555
Li9 O78 2.046127 1_555
Li9 O89 2.053440 1_565
Li9 O13 2.065888 1_555
Li9 O4 2.567513 1_555
Li10 O89 1.982896 1_555
Li10 O93 2.046127 1_555
Li10 O39 2.053440 1_545
Li10 O62 2.065888 1_555
Li10 O52 2.567513 1_555
Li11 O1 1.976242 1_555
Li11 O28 1.988034 1_565
Li11 O17 2.008380 1_455
Li11 O38 2.009905 1_455
Li12 O92 1.982896 1_455
Li12 O73 2.046127 1_555
Li12 O6 2.053440 1_564
Li12 O80 2.065888 1_554
Li12 O86 2.567513 1_554
Li13 O36 1.976242 1_555
Li13 O90 1.988034 1_555
Li13 O53 2.008380 1_455
Li13 O40 2.009905 1_455
Li14 O20 1.982896 1_555
Li14 O27 2.046127 1_555
Li14 O94 2.053440 1_554
Li14 O22 2.065888 1_554
Li14 O31 2.567513 1_554
Li15 O79 1.976242 1_555
Li15 O82 1.988034 1_565
Li15 O70 2.008380 1_555
Li15 O44 2.009905 1_555
Mn0 O69 2.116720 1_555
Mn0 O46 2.117939 1_555
Mn0 O73 2.191561 1_555
Mn0 O42 2.239666 1_555
Mn0 O30 2.262319 1_565
Mn0 O86 2.335074 1_554
Mn1 O2 2.116720 1_555
Mn1 O33 2.117939 1_655
Mn1 O83 2.191561 1_555
Mn1 O80 2.239666 1_655
Mn1 O31 2.262319 1_655
Mn1 O65 2.335074 1_556
Mn2 O59 2.113852 1_555
Mn2 O8 2.137576 1_555
Mn2 O76 2.175306 1_555
Mn2 O70 2.230742 1_555
Mn2 O79 2.233010 1_555
Mn2 O7 2.277754 1_555
Mn3 O84 2.113852 1_555
Mn3 O50 2.137576 1_655
Mn3 O38 2.175306 1_545
Mn3 O23 2.230742 1_655
Mn3 O32 2.233010 1_555
Mn3 O28 2.277754 1_655
Mn4 O72 2.113852 1_555
Mn4 O18 2.137576 1_455
Mn4 O74 2.175306 1_555
Mn4 O17 2.230742 1_455
Mn4 O1 2.233010 1_555
Mn4 O60 2.277754 1_455
Mn5 O14 2.116720 1_555
Mn5 O88 2.117939 1_555
Mn5 O56 2.191561 1_555
Mn5 O22 2.239666 1_555
Mn5 O86 2.262319 1_545
Mn5 O30 2.335074 1_556
Mn6 O66 2.116720 1_555
Mn6 O19 2.117939 1_555
Mn6 O35 2.191561 1_555
Mn6 O62 2.239666 1_555
Mn6 O12 2.262319 1_555
Mn6 O16 2.335074 1_555
Mn7 O25 2.113852 1_555
Mn7 O3 2.137576 1_655
Mn7 O40 2.175306 1_555
Mn7 O54 2.230742 1_655
Mn7 O63 2.233010 1_555
Mn7 O90 2.277754 1_655
Mn8 O51 2.113852 1_555
Mn8 O5 2.137576 1_555
Mn8 O21 2.175306 1_555
Mn8 O85 2.230742 1_555
Mn8 O49 2.233010 1_555
Mn8 O67 2.277754 1_555
Mn9 O58 2.113852 1_555
Mn9 O55 2.137576 1_555
Mn9 O81 2.175306 1_565
Mn9 O9 2.230742 1_555
Mn9 O95 2.233010 1_555
Mn9 O64 2.277754 1_555
Mn10 O43 2.113852 1_555
Mn10 O29 2.137576 1_455
Mn10 O15 2.175306 1_565
Mn10 O53 2.230742 1_455
Mn10 O36 2.233010 1_555
Mn10 O24 2.277754 1_455
Mn11 O41 2.116720 1_555
Mn11 O68 2.117939 1_455
Mn11 O93 2.191561 1_555
Mn11 O47 2.239666 1_455
Mn11 O4 2.262319 1_445
Mn11 O52 2.335074 1_555
Mn12 O0 2.116720 1_555
Mn12 O87 2.117939 1_555
Mn12 O71 2.191561 1_555
Mn12 O13 2.239666 1_555
Mn12 O16 2.262319 1_555
Mn12 O12 2.335074 1_555
Mn13 O26 2.113852 1_555
Mn13 O77 2.137576 1_555
Mn13 O44 2.175306 1_545
Mn13 O10 2.230742 1_555
Mn13 O57 2.233010 1_555
Mn13 O82 2.277754 1_555
Mn14 O37 2.116720 1_555
Mn14 O91 2.117939 1_455
Mn14 O27 2.191561 1_555
Mn14 O11 2.239666 1_455
Mn14 O65 2.262319 1_455
Mn14 O31 2.335074 1_554
Mn15 O61 2.116720 1_555
Mn15 O45 2.117939 1_655
Mn15 O78 2.191561 1_555
Mn15 O75 2.239666 1_655
Mn15 O52 2.262319 1_665
Mn15 O4 2.335074 1_555
O0 S21 1.471454 1_555
O1 S2 1.499465 1_555
O2 S0 1.471454 1_555
O3 S15 1.471734 1_555
O4 S23 1.524544 1_555
O5 S11 1.471734 1_555
O6 S19 1.475879 1_555
O7 S2 1.492307 1_555
O8 S13 1.471734 1_555
O9 S8 1.494010 1_555
O10 S9 1.494010 1_555
O11 S11 1.495449 1_555
O12 S18 1.524544 1_555
O13 S23 1.495449 1_555
O14 S16 1.471454 1_555
O15 S1 1.499296 1_555
O16 S4 1.524544 1_555
O17 S3 1.494010 1_565
O18 S23 1.471734 1_555
O19 S8 1.469688 1_555
O20 S11 1.475879 1_555
O21 S14 1.499296 1_555
O22 S19 1.495449 1_555
O23 S2 1.494010 1_555
O24 S22 1.492307 1_555
O25 S17 1.469297 1_555
O26 S7 1.469297 1_555
O27 S14 1.501449 1_555
O28 S5 1.492307 1_555
O29 S12 1.471734 1_555
O30 S11 1.524544 1_555
O31 S19 1.524544 1_555
O32 S3 1.499465 1_555
O33 S2 1.469688 1_555
O34 S23 1.475879 1_555
O35 S6 1.501449 1_555
O36 S10 1.499465 1_555
O37 S1 1.471454 1_555
O38 S0 1.499296 1_555
O39 S18 1.475879 1_555
O40 S6 1.499296 1_555
O41 S7 1.471454 1_555
O42 S12 1.495449 1_555
O43 S14 1.469297 1_555
O44 S21 1.499296 1_555
O45 S10 1.469688 1_555
O46 S22 1.469688 1_555
O47 S4 1.495449 1_555
O48 S15 1.475879 1_555
O49 S8 1.499465 1_555
O50 S19 1.471734 1_555
O51 S1 1.469297 1_555
O52 S15 1.524544 1_555
O53 S20 1.494010 1_555
O54 S10 1.494010 1_545
O55 S18 1.471734 1_555
O56 S0 1.501449 1_545
O57 S5 1.499465 1_555
O58 S6 1.469297 1_555
O59 S0 1.469297 1_555
O60 S9 1.492307 1_555
O61 S6 1.471454 1_555
O62 S15 1.495449 1_555
O63 S20 1.499465 1_555
O64 S10 1.492307 1_555
O65 S12 1.524544 1_555
O66 S17 1.471454 1_555
O67 S20 1.492307 1_555
O68 S3 1.469688 1_555
O69 S14 1.471454 1_555
O70 S5 1.494010 1_565
O71 S7 1.501449 1_555
O72 S21 1.469297 1_555
O73 S1 1.501449 1_565
O74 S7 1.499296 1_555
O75 S18 1.495449 1_555
O76 S16 1.499296 1_555
O77 S4 1.471734 1_555
O78 S17 1.501449 1_565
O79 S9 1.499465 1_555
O80 S13 1.495449 1_555
O81 S17 1.499296 1_555
O82 S3 1.492307 1_555
O83 S16 1.501449 1_555
O84 S16 1.469297 1_555
O85 S22 1.494010 1_545
O86 S13 1.524544 1_555
O87 S9 1.469688 1_555
O88 S5 1.469688 1_555
O89 S4 1.475879 1_555
O90 S8 1.492307 1_555
O91 S20 1.469688 1_555
O92 S12 1.475879 1_555
O93 S21 1.501449 1_545
O94 S13 1.475879 1_555
O95 S22 1.499465 1_555
