# generated using pymatgen
data_Y11Ta5O28
_symmetry_space_group_name_H-M   'P 1'
_cell_length_a   7.45168500
_cell_length_b   7.46711100
_cell_length_c   10.53476177
_cell_angle_alpha   89.56203615
_cell_angle_beta   90.00000000
_cell_angle_gamma   90.00000000
_symmetry_Int_Tables_number   1
_chemical_formula_structural   Y11Ta5O28
_chemical_formula_sum   'Y11 Ta5 O28'
_cell_volume   586.16397857
_cell_formula_units_Z   1
loop_
 _symmetry_equiv_pos_site_id
 _symmetry_equiv_pos_as_xyz
  1  'x, y, z'
loop_
 _atom_site_type_symbol
 _atom_site_label
 _atom_site_symmetry_multiplicity
 _atom_site_fract_x
 _atom_site_fract_y
 _atom_site_fract_z
 _atom_site_occupancy
  Y  Y0  1  0.75744700  0.47797300  0.99657200  1
  Y  Y1  1  0.24255300  0.47797300  0.99657200  1
  Y  Y2  1  0.00000000  0.26689200  0.73039400  1
  Y  Y3  1  0.50000000  0.23505400  0.76211900  1
  Y  Y4  1  0.00000000  0.73289300  0.73244700  1
  Y  Y5  1  0.50000000  0.75148600  0.75709900  1
  Y  Y6  1  0.24792000  0.00384200  0.50316900  1
  Y  Y7  1  0.75208000  0.00384200  0.50316900  1
  Y  Y8  1  0.00000000  0.76353400  0.24371900  1
  Y  Y9  1  0.00000000  0.23845000  0.24507600  1
  Y  Y10  1  0.50000000  0.26436200  0.26525700  1
  Ta  Ta0  1  0.74855300  0.99816400  0.00332000  1
  Ta  Ta1  1  0.25144700  0.99816400  0.00332000  1
  Ta  Ta2  1  0.27518900  0.49526400  0.51339200  1
  Ta  Ta3  1  0.72481100  0.49526400  0.51339200  1
  Ta  Ta4  1  0.50000000  0.72991000  0.27352100  1
  O  O0  1  0.78466300  0.19712200  0.87975700  1
  O  O1  1  0.21533700  0.19712200  0.87975700  1
  O  O2  1  0.78069800  0.79797400  0.88621100  1
  O  O3  1  0.21930200  0.79797400  0.88621100  1
  O  O4  1  0.00000000  0.49756100  0.86560800  1
  O  O5  1  0.50000000  0.49359000  0.87871200  1
  O  O6  1  0.00000000  0.00008000  0.63292200  1
  O  O7  1  0.50000000  0.99800000  0.63608200  1
  O  O8  1  0.26729400  0.71401900  0.62093000  1
  O  O9  1  0.73270600  0.71401900  0.62093000  1
  O  O10  1  0.73086200  0.28407500  0.62794000  1
  O  O11  1  0.26913800  0.28407500  0.62794000  1
  O  O12  1  0.00000000  0.50115000  0.56934100  1
  O  O13  1  0.50000000  0.51031700  0.40414800  1
  O  O14  1  0.75328100  0.69765400  0.36402100  1
  O  O15  1  0.24671900  0.69765400  0.36402100  1
  O  O16  1  0.76859800  0.29330400  0.38273200  1
  O  O17  1  0.23140200  0.29330400  0.38273200  1
  O  O18  1  0.00000000  0.99534800  0.36801900  1
  O  O19  1  0.50000000  0.97567800  0.36092600  1
  O  O20  1  0.00000000  0.50695600  0.13381200  1
  O  O21  1  0.50000000  0.52705900  0.15264900  1
  O  O22  1  0.72472100  0.21525200  0.12199700  1
  O  O23  1  0.27527900  0.21525200  0.12199700  1
  O  O24  1  0.68325800  0.83561100  0.14425300  1
  O  O25  1  0.31674200  0.83561100  0.14425300  1
  O  O26  1  0.00000000  0.98326000  0.07632400  1
  O  O27  1  0.50000000  0.00791200  0.93543400  1
loop_
_geom_bond_atom_site_label_1
_geom_bond_atom_site_label_2
_geom_bond_distance
_geom_bond_site_symmetry_2
O0 Ta0 1.986054 1_546
O0 Y2 2.304261 1_655
O0 Y0 2.448066 1_555
O0 Y3 2.471895 1_555
O1 Ta1 1.986054 1_546
O1 Y2 2.304261 1_555
O1 Y1 2.448066 1_555
O1 Y3 2.471895 1_555
O2 Ta0 1.960146 1_556
O2 Y4 2.354289 1_655
O2 Y5 2.520488 1_555
O2 Y0 2.654972 1_555
O3 Ta1 1.960146 1_556
O3 Y4 2.354289 1_555
O3 Y5 2.520488 1_555
O3 Y1 2.654972 1_555
O4 Y4 2.240122 1_555
O4 Y2 2.243508 1_555
O4 Y1 2.277852 1_555
O4 Y0 2.277852 1_455
O5 Y1 2.287648 1_555
O5 Y0 2.287648 1_555
O5 Y3 2.296044 1_555
O5 Y5 2.304806 1_555
O6 Y4 2.246731 1_545
O6 Y2 2.248333 1_555
O6 Y7 2.298180 1_455
O6 Y6 2.298180 1_555
O7 Y3 2.220853 1_565
O7 Y5 2.231100 1_555
O7 Y6 2.343078 1_565
O7 Y7 2.343078 1_565
O8 Ta2 1.995846 1_555
O8 Y5 2.269175 1_555
O8 Y4 2.317281 1_555
O8 Y6 2.490452 1_565
O9 Ta3 1.995846 1_555
O9 Y5 2.269175 1_555
O9 Y4 2.317281 1_655
O9 Y7 2.490452 1_565
O10 Ta3 1.978887 1_555
O10 Y3 2.254696 1_555
O10 Y2 2.280669 1_655
O10 Y7 2.484646 1_555
O11 Ta2 1.978887 1_555
O11 Y3 2.254696 1_555
O11 Y2 2.280669 1_555
O11 Y6 2.484646 1_555
O12 Ta2 2.134193 1_555
O12 Ta3 2.134193 1_455
O12 Y2 2.427565 1_555
O12 Y4 2.447940 1_555
O13 Ta3 2.035067 1_555
O13 Ta2 2.035067 1_555
O13 Ta4 2.132586 1_555
O13 Y10 2.356902 1_555
O14 Ta4 2.127353 1_555
O14 Ta3 2.183750 1_555
O14 Y8 2.284432 1_655
O14 Y7 2.725345 1_565
O15 Ta4 2.127353 1_555
O15 Ta2 2.183750 1_555
O15 Y8 2.284432 1_555
O15 Y6 2.725345 1_565
O16 Ta3 2.075358 1_555
O16 Y9 2.291983 1_655
O16 Y10 2.363982 1_555
O16 Y7 2.500972 1_555
O17 Ta2 2.075358 1_555
O17 Y9 2.291983 1_555
O17 Y10 2.363982 1_555
O17 Y6 2.500972 1_555
O18 Y8 2.178454 1_555
O18 Y9 2.221878 1_565
O18 Y7 2.333560 1_465
O18 Y6 2.333560 1_565
O19 Ta4 2.059506 1_555
O19 Y10 2.372617 1_565
O19 Y6 2.413089 1_565
O19 Y7 2.413089 1_565
O20 Y8 2.246147 1_555
O20 Y9 2.314706 1_555
O20 Y1 2.325668 1_554
O20 Y0 2.325668 1_454
O21 Ta4 1.986272 1_555
O21 Y10 2.284635 1_555
O21 Y1 2.554873 1_554
O21 Y0 2.554873 1_554
O22 Ta0 2.062356 1_545
O22 Y10 2.285776 1_555
O22 Y0 2.369444 1_554
O22 Y9 2.433605 1_655
O23 Ta1 2.062356 1_545
O23 Y10 2.285776 1_555
O23 Y1 2.369444 1_554
O23 Y9 2.433605 1_555
O24 Ta0 1.971503 1_555
O24 Ta4 2.079871 1_555
O24 Y8 2.636261 1_655
O25 Ta1 1.971503 1_555
O25 Ta4 2.079871 1_555
O25 Y8 2.636261 1_555
O26 Ta1 2.028134 1_555
O26 Ta0 2.028134 1_455
O26 Y8 2.399487 1_555
O26 Y9 2.615966 1_565
O27 Ta0 1.986549 1_546
O27 Ta1 1.986549 1_546
O27 Y3 2.482551 1_555
O27 Y5 2.692746 1_545
