# generated using pymatgen
data_RbNdO2
_symmetry_space_group_name_H-M   'P 1'
_cell_length_a   6.88495612
_cell_length_b   6.88495612
_cell_length_c   6.88495594
_cell_angle_alpha   30.68973178
_cell_angle_beta   30.68973178
_cell_angle_gamma   30.68973060
_symmetry_Int_Tables_number   1
_chemical_formula_structural   RbNdO2
_chemical_formula_sum   'Rb1 Nd1 O2'
_cell_volume   75.38439620
_cell_formula_units_Z   1
loop_
 _symmetry_equiv_pos_site_id
 _symmetry_equiv_pos_as_xyz
  1  'x, y, z'
loop_
 _atom_site_type_symbol
 _atom_site_label
 _atom_site_symmetry_multiplicity
 _atom_site_fract_x
 _atom_site_fract_y
 _atom_site_fract_z
 _atom_site_occupancy
  Rb  Rb0  1  -0.00000000  -0.00000000  0.00000000  1
  Nd  Nd0  1  0.50000000  0.50000000  0.50000000  1
  O  O0  1  0.77255288  0.77255288  0.77255288  1
  O  O1  1  0.22744712  0.22744712  0.22744712  1
loop_
_geom_bond_atom_site_label_1
_geom_bond_atom_site_label_2
_geom_bond_distance
_geom_bond_site_symmetry_2
Nd0 O1 2.419695 1_556
Nd0 O0 2.419695 1_554
Nd0 O1 2.419695 1_565
Nd0 O1 2.419695 1_655
Nd0 O0 2.419695 1_545
Nd0 O0 2.419695 1_455
O0 Rb0 2.960179 1_665
O0 Rb0 2.960179 1_656
O0 Rb0 2.960179 1_566
O1 Rb0 2.960179 1_556
O1 Rb0 2.960179 1_565
O1 Rb0 2.960179 1_655
