# generated using pymatgen
data_Li2CrP4(H2O3)6
_symmetry_space_group_name_H-M   'P 1'
_cell_length_a   11.58597300
_cell_length_b   8.05978900
_cell_length_c   8.93652334
_cell_angle_alpha   65.22188788
_cell_angle_beta   90.00000000
_cell_angle_gamma   90.00000000
_symmetry_Int_Tables_number   1
_chemical_formula_structural   Li2CrP4(H2O3)6
_chemical_formula_sum   'Li4 Cr2 P8 H24 O36'
_cell_volume   757.67124284
_cell_formula_units_Z   2
loop_
 _symmetry_equiv_pos_site_id
 _symmetry_equiv_pos_as_xyz
  1  'x, y, z'
loop_
 _atom_site_type_symbol
 _atom_site_label
 _atom_site_symmetry_multiplicity
 _atom_site_fract_x
 _atom_site_fract_y
 _atom_site_fract_z
 _atom_site_occupancy
  Li  Li0  1  0.75000000  0.98133700  0.56951500  1
  Li  Li1  1  0.25000000  0.75349800  0.90927400  1
  Li  Li2  1  0.75000000  0.24650200  0.09072600  1
  Li  Li3  1  0.25000000  0.01866300  0.43048500  1
  Cr  Cr0  1  0.75000000  0.52930500  0.73727600  1
  Cr  Cr1  1  0.25000000  0.47069500  0.26272400  1
  P  P0  1  0.48497300  0.71229100  0.64327100  1
  P  P1  1  0.01502700  0.71229100  0.64327100  1
  P  P2  1  0.50199200  0.69600900  0.16253200  1
  P  P3  1  0.99800800  0.69600900  0.16253200  1
  P  P4  1  0.49800800  0.30399100  0.83746800  1
  P  P5  1  0.00199200  0.30399100  0.83746800  1
  P  P6  1  0.98497300  0.28770900  0.35672900  1
  P  P7  1  0.51502700  0.28770900  0.35672900  1
  H  H0  1  0.81686600  0.94116300  0.86848500  1
  H  H1  1  0.68313400  0.94116300  0.86848500  1
  H  H2  1  0.49017000  0.75113500  0.87217200  1
  H  H3  1  0.00983000  0.75113500  0.87217200  1
  H  H4  1  0.81844700  0.60871800  0.98775200  1
  H  H5  1  0.68155300  0.60871800  0.98775200  1
  H  H6  1  0.81791400  0.91235700  0.28440300  1
  H  H7  1  0.68208600  0.91235700  0.28440300  1
  H  H8  1  0.01664900  0.82784700  0.33524500  1
  H  H9  1  0.48335100  0.82784700  0.33524500  1
  H  H10  1  0.18315800  0.58106200  0.49300400  1
  H  H11  1  0.31684200  0.58106200  0.49300400  1
  H  H12  1  0.81684200  0.41893800  0.50699600  1
  H  H13  1  0.68315800  0.41893800  0.50699600  1
  H  H14  1  0.98335100  0.17215300  0.66475500  1
  H  H15  1  0.51664900  0.17215300  0.66475500  1
  H  H16  1  0.31791400  0.08764300  0.71559700  1
  H  H17  1  0.18208600  0.08764300  0.71559700  1
  H  H18  1  0.31844700  0.39128200  0.01224800  1
  H  H19  1  0.18155300  0.39128200  0.01224800  1
  H  H20  1  0.99017000  0.24886500  0.12782800  1
  H  H21  1  0.50983000  0.24886500  0.12782800  1
  H  H22  1  0.31686600  0.05883700  0.13151500  1
  H  H23  1  0.18313400  0.05883700  0.13151500  1
  O  O0  1  0.06988000  0.75154700  0.78696800  1
  O  O1  1  0.43012000  0.75154700  0.78696800  1
  O  O2  1  0.75000000  0.98451400  0.28681400  1
  O  O3  1  0.25000000  0.01552400  0.20471200  1
  O  O4  1  0.41462800  0.80906600  0.48750900  1
  O  O5  1  0.08537200  0.80906600  0.48750900  1
  O  O6  1  0.88557000  0.73999400  0.63455300  1
  O  O7  1  0.61443000  0.73999400  0.63455300  1
  O  O8  1  0.75000000  0.54281700  0.96983600  1
  O  O9  1  0.96533000  0.83576000  0.23678400  1
  O  O10  1  0.53467000  0.83576000  0.23678400  1
  O  O11  1  0.45591400  0.49662700  0.69203500  1
  O  O12  1  0.04408600  0.49662700  0.69203500  1
  O  O13  1  0.92394900  0.73650100  0.00991000  1
  O  O14  1  0.57605100  0.73650100  0.00991000  1
  O  O15  1  0.37437900  0.68879200  0.13405700  1
  O  O16  1  0.12562100  0.68879200  0.13405700  1
  O  O17  1  0.25000000  0.51379500  0.47901700  1
  O  O18  1  0.75000000  0.48620500  0.52098300  1
  O  O19  1  0.62562100  0.31120800  0.86594300  1
  O  O20  1  0.87437900  0.31120800  0.86594300  1
  O  O21  1  0.42394900  0.26349900  0.99009000  1
  O  O22  1  0.07605100  0.26349900  0.99009000  1
  O  O23  1  0.95591400  0.50337300  0.30796500  1
  O  O24  1  0.54408600  0.50337300  0.30796500  1
  O  O25  1  0.46533000  0.16424000  0.76321600  1
  O  O26  1  0.03467000  0.16424000  0.76321600  1
  O  O27  1  0.25000000  0.45718300  0.03016400  1
  O  O28  1  0.38557000  0.26000600  0.36544700  1
  O  O29  1  0.11443000  0.26000600  0.36544700  1
  O  O30  1  0.91462800  0.19093400  0.51249100  1
  O  O31  1  0.58537200  0.19093400  0.51249100  1
  O  O32  1  0.75000000  0.98447600  0.79528800  1
  O  O33  1  0.25000000  0.01548600  0.71318600  1
  O  O34  1  0.93012000  0.24845300  0.21303200  1
  O  O35  1  0.56988000  0.24845300  0.21303200  1
loop_
_geom_bond_atom_site_label_1
_geom_bond_atom_site_label_2
_geom_bond_distance
_geom_bond_site_symmetry_2
Li0 O32 2.028359 1_555
Li0 O7 2.375077 1_555
Li0 O6 2.375077 1_555
Li0 O30 2.455594 1_565
Li0 O31 2.455594 1_565
Li0 O2 2.515740 1_555
Li1 O33 2.104255 1_565
Li1 O27 2.169823 1_556
Li1 O16 2.346419 1_556
Li1 O15 2.346419 1_556
Li1 O0 2.358875 1_555
Li1 O1 2.358875 1_555
Li2 O2 2.104255 1_545
Li2 O8 2.169823 1_554
Li2 O19 2.346419 1_554
Li2 O20 2.346419 1_554
Li2 O34 2.358875 1_555
Li2 O35 2.358875 1_555
Li3 O3 2.028359 1_555
Li3 O29 2.375077 1_555
Li3 O28 2.375077 1_555
Li3 O4 2.455594 1_545
Li3 O5 2.455594 1_545
Li3 O33 2.515740 1_555
Cr0 O18 2.102288 1_555
Cr0 O8 2.126220 1_555
Cr0 O20 2.189630 1_555
Cr0 O19 2.189630 1_555
Cr0 O7 2.210603 1_555
Cr0 O6 2.210603 1_555
Cr1 O17 2.102288 1_555
Cr1 O27 2.126220 1_555
Cr1 O16 2.189630 1_555
Cr1 O15 2.189630 1_555
Cr1 O28 2.210603 1_555
Cr1 O29 2.210603 1_555
H0 O32 0.979037 1_555
H1 O32 0.979037 1_555
H2 O1 1.030395 1_555
H2 O14 1.548349 1_556
H3 O0 1.030395 1_555
H3 O13 1.548349 1_456
H4 O8 1.003954 1_555
H4 O13 1.662822 1_556
H5 O8 1.003954 1_555
H5 O14 1.662822 1_556
H6 O2 0.984034 1_555
H7 O2 0.984034 1_555
H8 O9 1.041527 1_455
H8 O5 1.528323 1_555
H9 O10 1.041527 1_555
H9 O4 1.528323 1_555
H10 O17 0.982905 1_555
H11 O17 0.982905 1_555
H12 O18 0.982905 1_555
H13 O18 0.982905 1_555
H14 O26 1.041527 1_655
H14 O30 1.528323 1_555
H15 O25 1.041527 1_555
H15 O31 1.528323 1_555
H16 O33 0.984034 1_555
H17 O33 0.984034 1_555
H18 O27 1.003954 1_555
H18 O21 1.662822 1_554
H19 O27 1.003954 1_555
H19 O22 1.662822 1_554
H20 O34 1.030395 1_555
H20 O22 1.548349 1_654
H21 O35 1.030395 1_555
H21 O21 1.548349 1_554
H22 O3 0.979037 1_555
H23 O3 0.979037 1_555
O0 P1 1.579116 1_555
O1 P0 1.579116 1_555
O4 P0 1.516625 1_555
O5 P1 1.516625 1_555
O6 P1 1.513605 1_655
O7 P0 1.513605 1_555
O9 P3 1.574428 1_555
O10 P2 1.574428 1_555
O11 P4 1.626704 1_555
O11 P0 1.640028 1_555
O12 P5 1.626704 1_555
O12 P1 1.640028 1_555
O13 P3 1.526400 1_555
O14 P2 1.526400 1_555
O15 P2 1.505512 1_555
O16 P3 1.505512 1_455
O19 P4 1.505512 1_555
O20 P5 1.505512 1_655
O21 P4 1.526400 1_555
O22 P5 1.526400 1_555
O23 P3 1.626704 1_555
O23 P6 1.640028 1_555
O24 P2 1.626704 1_555
O24 P7 1.640028 1_555
O25 P4 1.574428 1_555
O26 P5 1.574428 1_555
O28 P7 1.513605 1_555
O29 P6 1.513605 1_455
O30 P6 1.516625 1_555
O31 P7 1.516625 1_555
O34 P6 1.579116 1_555
O35 P7 1.579116 1_555
