# generated using pymatgen
data_LiV(PO3)4
_symmetry_space_group_name_H-M   'P 1'
_cell_length_a   7.60440909
_cell_length_b   7.60440909
_cell_length_c   17.24392000
_cell_angle_alpha   90.00000000
_cell_angle_beta   90.00000000
_cell_angle_gamma   101.42302052
_symmetry_Int_Tables_number   1
_chemical_formula_structural   LiV(PO3)4
_chemical_formula_sum   'Li4 V4 P16 O48'
_cell_volume   977.41265073
_cell_formula_units_Z   4
loop_
 _symmetry_equiv_pos_site_id
 _symmetry_equiv_pos_as_xyz
  1  'x, y, z'
loop_
 _atom_site_type_symbol
 _atom_site_label
 _atom_site_symmetry_multiplicity
 _atom_site_fract_x
 _atom_site_fract_y
 _atom_site_fract_z
 _atom_site_occupancy
  Li  Li0  1  0.19718000  0.09726400  0.63813200  1
  Li  Li1  1  0.90273600  0.80282000  0.86186800  1
  Li  Li2  1  0.80282000  0.90273600  0.13813200  1
  Li  Li3  1  0.09726400  0.19718000  0.36186800  1
  V  V0  1  0.58030100  0.97186800  0.87185500  1
  V  V1  1  0.02813200  0.41969900  0.62814500  1
  V  V2  1  0.41969900  0.02813200  0.37185500  1
  V  V3  1  0.97186800  0.58030100  0.12814500  1
  P  P0  1  0.03781600  0.75758900  0.34215600  1
  P  P1  1  0.24241100  0.96218400  0.15784400  1
  P  P2  1  0.30960200  0.78095500  0.01350000  1
  P  P3  1  0.21904500  0.69039800  0.48650000  1
  P  P4  1  0.37568500  0.62431500  0.75000000  1
  P  P5  1  0.25304900  0.33647200  0.19046100  1
  P  P6  1  0.66352800  0.74695100  0.30953900  1
  P  P7  1  0.35359300  0.35359300  0.50000000  1
  P  P8  1  0.64640700  0.64640700  0.00000000  1
  P  P9  1  0.33647200  0.25304900  0.80953900  1
  P  P10  1  0.74695100  0.66352800  0.69046100  1
  P  P11  1  0.62431500  0.37568500  0.25000000  1
  P  P12  1  0.78095500  0.30960200  0.98650000  1
  P  P13  1  0.69039800  0.21904500  0.51350000  1
  P  P14  1  0.75758900  0.03781600  0.65784400  1
  P  P15  1  0.96218400  0.24241100  0.84215600  1
  O  O0  1  0.14604500  0.94867000  0.35382000  1
  O  O1  1  0.05133000  0.85395500  0.14618000  1
  O  O2  1  0.34510800  0.95688000  0.22991600  1
  O  O3  1  0.04312000  0.65489200  0.27008400  1
  O  O4  1  0.31923000  0.88035100  0.47995600  1
  O  O5  1  0.11964900  0.68077000  0.02004400  1
  O  O6  1  0.09054500  0.63596300  0.41267400  1
  O  O7  1  0.36403700  0.90945500  0.08732600  1
  O  O8  1  0.10987500  0.63715700  0.55847800  1
  O  O9  1  0.36284300  0.89012500  0.94152200  1
  O  O10  1  0.41458900  0.79395800  0.79686600  1
  O  O11  1  0.20604200  0.58541100  0.70313400  1
  O  O12  1  0.51664600  0.80745200  0.35436100  1
  O  O13  1  0.19254800  0.48335400  0.14563900  1
  O  O14  1  0.36018700  0.55736500  0.47693400  1
  O  O15  1  0.44263500  0.63981300  0.02306600  1
  O  O16  1  0.77953500  0.83746200  0.63344400  1
  O  O17  1  0.16253800  0.22046500  0.86655600  1
  O  O18  1  0.53116000  0.60995600  0.68843900  1
  O  O19  1  0.39004400  0.46884000  0.81156100  1
  O  O20  1  0.69338900  0.76292700  0.92888800  1
  O  O21  1  0.23707300  0.30661100  0.57111200  1
  O  O22  1  0.18068200  0.29091700  0.26920500  1
  O  O23  1  0.70908300  0.81931800  0.23079500  1
  O  O24  1  0.29091700  0.18068200  0.73079500  1
  O  O25  1  0.81931800  0.70908300  0.76920500  1
  O  O26  1  0.30661100  0.23707300  0.42888800  1
  O  O27  1  0.76292700  0.69338900  0.07111200  1
  O  O28  1  0.60995600  0.53116000  0.31156100  1
  O  O29  1  0.46884000  0.39004400  0.18843900  1
  O  O30  1  0.22046500  0.16253800  0.13344400  1
  O  O31  1  0.83746200  0.77953500  0.36655600  1
  O  O32  1  0.63981300  0.44263500  0.97693400  1
  O  O33  1  0.55736500  0.36018700  0.52306600  1
  O  O34  1  0.80745200  0.51664600  0.64563900  1
  O  O35  1  0.48335400  0.19254800  0.85436100  1
  O  O36  1  0.79395800  0.41458900  0.20313400  1
  O  O37  1  0.58541100  0.20604200  0.29686600  1
  O  O38  1  0.63715700  0.10987500  0.44152200  1
  O  O39  1  0.89012500  0.36284300  0.05847800  1
  O  O40  1  0.63596300  0.09054500  0.58732600  1
  O  O41  1  0.90945500  0.36403700  0.91267400  1
  O  O42  1  0.68077000  0.11964900  0.97995600  1
  O  O43  1  0.88035100  0.31923000  0.52004400  1
  O  O44  1  0.65489200  0.04312000  0.72991600  1
  O  O45  1  0.95688000  0.34510800  0.77008400  1
  O  O46  1  0.94867000  0.14604500  0.64618000  1
  O  O47  1  0.85395500  0.05133000  0.85382000  1
loop_
_geom_bond_atom_site_label_1
_geom_bond_atom_site_label_2
_geom_bond_distance
_geom_bond_site_symmetry_2
Li0 O24 1.812344 1_555
Li0 O21 1.941825 1_555
Li0 O46 2.001443 1_455
Li1 O25 1.812344 1_555
Li1 O20 1.941825 1_555
Li1 O47 2.001443 1_565
Li2 O23 1.812344 1_555
Li2 O27 1.941825 1_555
Li2 O1 2.001443 1_655
Li3 O22 1.812344 1_555
Li3 O26 1.941825 1_555
Li3 O0 2.001443 1_545
O0 P0 1.534762 1_555
O0 V2 2.072253 1_565
O1 P1 1.534762 1_555
O1 V3 2.072253 1_455
O2 P1 1.472599 1_555
O2 V2 2.546420 1_565
O3 P0 1.472599 1_555
O3 V3 2.546420 1_455
O4 P3 1.497921 1_555
O4 V2 2.231890 1_565
O5 P2 1.497921 1_555
O5 V3 2.231890 1_455
O6 P3 1.608303 1_555
O6 P0 1.625355 1_555
O7 P2 1.608303 1_555
O7 P1 1.625355 1_555
O8 P3 1.503498 1_555
O8 V1 2.038862 1_555
O9 P2 1.503498 1_556
O9 V0 2.038862 1_555
O10 P4 1.501217 1_555
O10 V0 2.101219 1_555
O11 P4 1.501217 1_555
O11 V1 2.101219 1_555
O12 P6 1.503390 1_555
O12 V2 1.985121 1_565
O13 P5 1.503390 1_555
O13 V3 1.985121 1_455
O14 P7 1.590941 1_555
O14 P3 1.622554 1_555
O15 P8 1.590941 1_555
O15 P2 1.622554 1_555
O16 P14 1.620764 1_565
O16 P10 1.627175 1_555
O17 P15 1.620764 1_455
O17 P9 1.627175 1_555
O18 P4 1.608657 1_555
O18 P10 1.610944 1_555
O19 P4 1.608657 1_555
O19 P9 1.610944 1_555
O20 P8 1.513622 1_556
O20 V0 2.184606 1_555
O21 P7 1.513622 1_555
O21 V1 2.184606 1_555
O22 P5 1.480238 1_555
O23 P6 1.480238 1_555
O24 P9 1.480238 1_555
O25 P10 1.480238 1_555
O26 P7 1.513622 1_555
O26 V2 2.184606 1_555
O27 P8 1.513622 1_555
O27 V3 2.184606 1_555
O28 P11 1.608657 1_555
O28 P6 1.610944 1_555
O29 P11 1.608657 1_555
O29 P5 1.610944 1_555
O30 P1 1.620764 1_545
O30 P5 1.627175 1_555
O31 P0 1.620764 1_655
O31 P6 1.627175 1_555
O32 P8 1.590941 1_556
O32 P12 1.622554 1_555
O33 P7 1.590941 1_555
O33 P13 1.622554 1_555
O34 P10 1.503390 1_555
O34 V1 1.985121 1_655
O35 P9 1.503390 1_555
O35 V0 1.985121 1_545
O36 P11 1.501217 1_555
O36 V3 2.101219 1_555
O37 P11 1.501217 1_555
O37 V2 2.101219 1_555
O38 P13 1.503498 1_555
O38 V2 2.038862 1_555
O39 P12 1.503498 1_554
O39 V3 2.038862 1_555
O40 P13 1.608303 1_555
O40 P14 1.625355 1_555
O41 P12 1.608303 1_555
O41 P15 1.625355 1_555
O42 P12 1.497921 1_555
O42 V0 2.231890 1_545
O43 P13 1.497921 1_555
O43 V1 2.231890 1_655
O44 P14 1.472599 1_555
O44 V0 2.546420 1_545
O45 P15 1.472599 1_555
O45 V1 2.546420 1_655
O46 P14 1.534762 1_555
O46 V1 2.072253 1_655
O47 P15 1.534762 1_555
O47 V0 2.072253 1_545
