# generated using pymatgen
data_Mg4Cu11O15
_symmetry_space_group_name_H-M   'P 1'
_cell_length_a   4.03443000
_cell_length_b   9.56379200
_cell_length_c   16.28640300
_cell_angle_alpha   90.00000000
_cell_angle_beta   90.00000000
_cell_angle_gamma   90.00000000
_symmetry_Int_Tables_number   1
_chemical_formula_structural   Mg4Cu11O15
_chemical_formula_sum   'Mg8 Cu22 O30'
_cell_volume   628.40189179
_cell_formula_units_Z   2
loop_
 _symmetry_equiv_pos_site_id
 _symmetry_equiv_pos_as_xyz
  1  'x, y, z'
loop_
 _atom_site_type_symbol
 _atom_site_label
 _atom_site_symmetry_multiplicity
 _atom_site_fract_x
 _atom_site_fract_y
 _atom_site_fract_z
 _atom_site_occupancy
  Mg  Mg0  1  0.00000000  0.50000000  0.28067400  1
  Mg  Mg1  1  0.00000000  0.50000000  0.48079800  1
  Mg  Mg2  1  0.00000000  0.50000000  0.68046400  1
  Mg  Mg3  1  0.00000000  0.50000000  0.88042800  1
  Mg  Mg4  1  0.00000000  0.50000000  0.08056300  1
  Mg  Mg5  1  0.50000000  0.00000000  0.11873200  1
  Mg  Mg6  1  0.50000000  0.00000000  0.31925100  1
  Mg  Mg7  1  0.50000000  0.00000000  0.52035700  1
  Cu  Cu0  1  0.00000000  0.83569300  0.03071900  1
  Cu  Cu1  1  0.00000000  0.83673700  0.22979200  1
  Cu  Cu2  1  0.00000000  0.16430700  0.03071900  1
  Cu  Cu3  1  0.00000000  0.83670800  0.43013100  1
  Cu  Cu4  1  0.00000000  0.16326300  0.22979200  1
  Cu  Cu5  1  0.00000000  0.83639100  0.63088300  1
  Cu  Cu6  1  0.00000000  0.16329200  0.43013100  1
  Cu  Cu7  1  0.00000000  0.83588200  0.83156200  1
  Cu  Cu8  1  0.00000000  0.16360900  0.63088300  1
  Cu  Cu9  1  0.00000000  0.16411800  0.83156200  1
  Cu  Cu10  1  0.50000000  0.33640300  0.16972300  1
  Cu  Cu11  1  0.50000000  0.66359700  0.16972300  1
  Cu  Cu12  1  0.50000000  0.00000000  0.92120900  1
  Cu  Cu13  1  0.50000000  0.00000000  0.72169300  1
  Cu  Cu14  1  0.50000000  0.33671500  0.37010600  1
  Cu  Cu15  1  0.50000000  0.33666300  0.56829000  1
  Cu  Cu16  1  0.50000000  0.66333700  0.56829000  1
  Cu  Cu17  1  0.50000000  0.66328500  0.37010600  1
  Cu  Cu18  1  0.50000000  0.33700900  0.76867700  1
  Cu  Cu19  1  0.50000000  0.33718700  0.96965900  1
  Cu  Cu20  1  0.50000000  0.66299100  0.76867700  1
  Cu  Cu21  1  0.50000000  0.66281300  0.96965900  1
  O  O0  1  0.00000000  0.00000000  0.09668000  1
  O  O1  1  0.00000000  0.00000000  0.29665700  1
  O  O2  1  0.00000000  0.00000000  0.49666600  1
  O  O3  1  0.00000000  0.00000000  0.69607300  1
  O  O4  1  0.00000000  0.34886200  0.18222100  1
  O  O5  1  0.00000000  0.34857600  0.38232600  1
  O  O6  1  0.00000000  0.00000000  0.89628900  1
  O  O7  1  0.00000000  0.34823700  0.58256600  1
  O  O8  1  0.00000000  0.34816700  0.78286200  1
  O  O9  1  0.00000000  0.34895400  0.98222600  1
  O  O10  1  0.00000000  0.65142400  0.38232600  1
  O  O11  1  0.00000000  0.65176300  0.58256600  1
  O  O12  1  0.00000000  0.65113800  0.18222100  1
  O  O13  1  0.00000000  0.65183300  0.78286200  1
  O  O14  1  0.00000000  0.65104600  0.98222600  1
  O  O15  1  0.50000000  0.84625500  0.01912600  1
  O  O16  1  0.50000000  0.84896900  0.21766700  1
  O  O17  1  0.50000000  0.84884600  0.41775200  1
  O  O18  1  0.50000000  0.84633000  0.61691700  1
  O  O19  1  0.50000000  0.15374500  0.01912600  1
  O  O20  1  0.50000000  0.15103100  0.21766700  1
  O  O21  1  0.50000000  0.50000000  0.10298800  1
  O  O22  1  0.50000000  0.84540700  0.81788800  1
  O  O23  1  0.50000000  0.15115400  0.41775200  1
  O  O24  1  0.50000000  0.15367000  0.61691700  1
  O  O25  1  0.50000000  0.50000000  0.30315500  1
  O  O26  1  0.50000000  0.50000000  0.50140100  1
  O  O27  1  0.50000000  0.15459300  0.81788800  1
  O  O28  1  0.50000000  0.50000000  0.70140200  1
  O  O29  1  0.50000000  0.50000000  0.90233900  1
loop_
_geom_bond_atom_site_label_1
_geom_bond_atom_site_label_2
_geom_bond_distance
_geom_bond_site_symmetry_2
Mg0 O25 2.050173 1_555
Mg0 O25 2.050173 1_455
Mg0 O12 2.158789 1_555
Mg0 O4 2.158789 1_555
Mg0 O5 2.199563 1_555
Mg0 O10 2.199563 1_555
Mg1 O26 2.044933 1_455
Mg1 O26 2.044933 1_555
Mg1 O10 2.160851 1_555
Mg1 O5 2.160851 1_555
Mg1 O11 2.203120 1_555
Mg1 O7 2.203120 1_555
Mg2 O28 2.045835 1_455
Mg2 O28 2.045835 1_555
Mg2 O7 2.156103 1_555
Mg2 O11 2.156103 1_555
Mg2 O13 2.211289 1_555
Mg2 O8 2.211289 1_555
Mg3 O29 2.048536 1_555
Mg3 O29 2.048536 1_455
Mg3 O13 2.152559 1_555
Mg3 O8 2.152559 1_555
Mg3 O9 2.198977 1_555
Mg3 O14 2.198977 1_555
Mg4 O21 2.050011 1_455
Mg4 O21 2.050011 1_555
Mg4 O14 2.156797 1_554
Mg4 O9 2.156797 1_554
Mg4 O12 2.197837 1_555
Mg4 O4 2.197837 1_555
Mg5 O0 2.048937 1_555
Mg5 O0 2.048937 1_655
Mg5 O20 2.163943 1_555
Mg5 O16 2.163943 1_545
Mg5 O19 2.189439 1_555
Mg5 O15 2.189439 1_545
Mg6 O1 2.050503 1_555
Mg6 O1 2.050503 1_655
Mg6 O17 2.159472 1_545
Mg6 O23 2.159472 1_555
Mg6 O20 2.196256 1_555
Mg6 O16 2.196256 1_545
Mg7 O2 2.053784 1_555
Mg7 O2 2.053784 1_655
Mg7 O24 2.152450 1_555
Mg7 O18 2.152450 1_545
Mg7 O17 2.209579 1_545
Mg7 O23 2.209579 1_555
Cu0 O0 1.903508 1_565
Cu0 O14 1.934487 1_554
Cu0 O15 2.028548 1_455
Cu0 O15 2.028548 1_555
Cu1 O1 1.903657 1_565
Cu1 O12 1.936746 1_555
Cu1 O16 2.030231 1_455
Cu1 O16 2.030231 1_555
Cu2 O0 1.903508 1_555
Cu2 O9 1.934487 1_554
Cu2 O19 2.028548 1_555
Cu2 O19 2.028548 1_455
Cu3 O2 1.900816 1_565
Cu3 O10 1.935515 1_555
Cu3 O17 2.030586 1_455
Cu3 O17 2.030586 1_555
Cu4 O1 1.903657 1_555
Cu4 O4 1.936746 1_555
Cu4 O20 2.030231 1_555
Cu4 O20 2.030231 1_455
Cu5 O3 1.890922 1_565
Cu5 O11 1.933153 1_555
Cu5 O18 2.032222 1_455
Cu5 O18 2.032222 1_555
Cu6 O2 1.900816 1_555
Cu6 O5 1.935515 1_555
Cu6 O23 2.030586 1_555
Cu6 O23 2.030586 1_455
Cu7 O6 1.890738 1_565
Cu7 O13 1.930650 1_555
Cu7 O22 2.031514 1_455
Cu7 O22 2.031514 1_555
Cu8 O3 1.890922 1_555
Cu8 O7 1.933153 1_555
Cu8 O24 2.032222 1_455
Cu8 O24 2.032222 1_555
Cu9 O6 1.890738 1_555
Cu9 O8 1.930650 1_555
Cu9 O27 2.031514 1_455
Cu9 O27 2.031514 1_555
Cu10 O21 1.905070 1_555
Cu10 O20 1.937197 1_555
Cu10 O4 2.030957 1_555
Cu10 O4 2.030957 1_655
Cu11 O21 1.905070 1_555
Cu11 O16 1.937197 1_555
Cu11 O12 2.030957 1_555
Cu11 O12 2.030957 1_655
Cu12 O6 2.057639 1_655
Cu12 O6 2.057639 1_555
Cu12 O15 2.169136 1_546
Cu12 O19 2.169136 1_556
Cu12 O22 2.239982 1_545
Cu12 O27 2.239982 1_555
Cu13 O3 2.059918 1_655
Cu13 O3 2.059918 1_555
Cu13 O22 2.154160 1_545
Cu13 O27 2.154160 1_555
Cu13 O18 2.252067 1_545
Cu13 O24 2.252067 1_555
Cu14 O25 1.904632 1_555
Cu14 O23 1.936902 1_555
Cu14 O5 2.030181 1_655
Cu14 O5 2.030181 1_555
Cu15 O26 1.904462 1_555
Cu15 O24 1.920956 1_555
Cu15 O7 2.033585 1_555
Cu15 O7 2.033585 1_655
Cu16 O26 1.904462 1_555
Cu16 O18 1.920956 1_555
Cu16 O11 2.033585 1_555
Cu16 O11 2.033585 1_655
Cu17 O25 1.904632 1_555
Cu17 O17 1.936902 1_555
Cu17 O10 2.030181 1_555
Cu17 O10 2.030181 1_655
Cu18 O28 1.905356 1_555
Cu18 O27 1.919881 1_555
Cu18 O8 2.033203 1_555
Cu18 O8 2.033203 1_655
Cu19 O29 1.904386 1_555
Cu19 O19 1.930538 1_556
Cu19 O9 2.030692 1_555
Cu19 O9 2.030692 1_655
Cu20 O28 1.905356 1_555
Cu20 O22 1.919881 1_555
Cu20 O13 2.033203 1_655
Cu20 O13 2.033203 1_555
Cu21 O29 1.904386 1_555
Cu21 O15 1.930538 1_556
Cu21 O14 2.030692 1_555
Cu21 O14 2.030692 1_655
