# generated using pymatgen
data_Li2V3SnO8
_symmetry_space_group_name_H-M   'P 1'
_cell_length_a   8.56557802
_cell_length_b   8.65861102
_cell_length_c   8.60018400
_cell_angle_alpha   89.99963440
_cell_angle_beta   89.99841802
_cell_angle_gamma   90.00762586
_symmetry_Int_Tables_number   1
_chemical_formula_structural   Li2V3SnO8
_chemical_formula_sum   'Li8 V12 Sn4 O32'
_cell_volume   637.84131147
_cell_formula_units_Z   4
loop_
 _symmetry_equiv_pos_site_id
 _symmetry_equiv_pos_as_xyz
  1  'x, y, z'
loop_
 _atom_site_type_symbol
 _atom_site_label
 _atom_site_symmetry_multiplicity
 _atom_site_fract_x
 _atom_site_fract_y
 _atom_site_fract_z
 _atom_site_occupancy
  Li  Li0  1  0.00486700  0.00464600  0.00300800  1
  Li  Li1  1  0.24576700  0.24488400  0.24514500  1
  Li  Li2  1  0.25412800  0.75521100  0.74521800  1
  Li  Li3  1  0.49510000  0.99532100  0.50294800  1
  Li  Li4  1  0.50491600  0.49532400  0.99708600  1
  Li  Li5  1  0.74583000  0.25520400  0.75484200  1
  Li  Li6  1  0.75417400  0.74492600  0.25479500  1
  Li  Li7  1  0.99508400  0.50460000  0.49701300  1
  V  V0  1  0.11640400  0.13259500  0.62383900  1
  V  V1  1  0.12321300  0.38261200  0.86665200  1
  V  V2  1  0.13576300  0.62555700  0.11886800  1
  V  V3  1  0.36433100  0.37461400  0.61892200  1
  V  V4  1  0.37688400  0.61754600  0.36663100  1
  V  V5  1  0.38347000  0.86756400  0.12390600  1
  V  V6  1  0.61643300  0.36746900  0.37613400  1
  V  V7  1  0.62316500  0.11732400  0.13341200  1
  V  V8  1  0.63577900  0.87457800  0.88112600  1
  V  V9  1  0.86428800  0.12544800  0.38106800  1
  V  V10  1  0.87686000  0.88245800  0.63336100  1
  V  V11  1  0.88368800  0.63243800  0.87626300  1
  Sn  Sn0  1  0.12500500  0.87423500  0.37630500  1
  Sn  Sn1  1  0.37497700  0.12569300  0.87629900  1
  Sn  Sn2  1  0.62491600  0.62563600  0.62359000  1
  Sn  Sn3  1  0.87498700  0.37434100  0.12364600  1
  O  O0  1  0.10696100  0.11869000  0.39198600  1
  O  O1  1  0.11901900  0.89916000  0.61880400  1
  O  O2  1  0.10560900  0.62022500  0.87961600  1
  O  O3  1  0.12927200  0.14722400  0.85930900  1
  O  O4  1  0.11811900  0.38498200  0.10307900  1
  O  O5  1  0.13072700  0.36343000  0.62986400  1
  O  O6  1  0.13239900  0.63341100  0.35228300  1
  O  O7  1  0.15484000  0.86834700  0.13072900  1
  O  O8  1  0.34495900  0.13184400  0.63070300  1
  O  O9  1  0.36766600  0.36647300  0.85228900  1
  O  O10  1  0.36948000  0.63673500  0.12988200  1
  O  O11  1  0.38191400  0.61516300  0.60313900  1
  O  O12  1  0.37083000  0.85294200  0.35924200  1
  O  O13  1  0.39433100  0.37987400  0.37952300  1
  O  O14  1  0.38077800  0.10065400  0.11896100  1
  O  O15  1  0.39292600  0.88126500  0.89194600  1
  O  O16  1  0.60705900  0.38129600  0.60803500  1
  O  O17  1  0.61905700  0.60078300  0.38120600  1
  O  O18  1  0.60579000  0.87965200  0.12032100  1
  O  O19  1  0.62918700  0.35268100  0.14071500  1
  O  O20  1  0.61812700  0.11514300  0.89695000  1
  O  O21  1  0.63064500  0.13656700  0.37009400  1
  O  O22  1  0.63237000  0.86654400  0.64776700  1
  O  O23  1  0.65498200  0.63174700  0.86934100  1
  O  O24  1  0.84499100  0.36822500  0.36926800  1
  O  O25  1  0.86766300  0.13346900  0.14771200  1
  O  O26  1  0.86939400  0.86339800  0.87009400  1
  O  O27  1  0.88180000  0.88491000  0.39691300  1
  O  O28  1  0.87082900  0.64708700  0.64068000  1
  O  O29  1  0.89436800  0.12002200  0.62048000  1
  O  O30  1  0.88087900  0.39925200  0.88109200  1
  O  O31  1  0.89300400  0.61871600  0.10803700  1
loop_
_geom_bond_atom_site_label_1
_geom_bond_atom_site_label_2
_geom_bond_distance
_geom_bond_site_symmetry_2
Li0 O26 2.036824 1_444
Li0 O25 2.043127 1_455
Li0 O3 2.046073 1_554
Li0 O7 2.061550 1_545
Li1 O14 2.018652 1_555
Li1 O4 2.039648 1_555
Li1 O0 2.049852 1_555
Li1 O13 2.078651 1_555
Li2 O1 2.018719 1_555
Li2 O11 2.040065 1_555
Li2 O15 2.048617 1_555
Li2 O2 2.078444 1_555
Li3 O21 2.036831 1_565
Li3 O22 2.043868 1_555
Li3 O12 2.044513 1_555
Li3 O8 2.063684 1_565
Li4 O10 2.037072 1_556
Li4 O9 2.043842 1_555
Li4 O19 2.045658 1_556
Li4 O23 2.062538 1_555
Li5 O30 2.018013 1_555
Li5 O20 2.039718 1_555
Li5 O16 2.049237 1_555
Li5 O29 2.079525 1_555
Li6 O17 2.019557 1_555
Li6 O27 2.039065 1_555
Li6 O31 2.049783 1_555
Li6 O18 2.077064 1_555
Li7 O5 2.037121 1_655
Li7 O6 2.043574 1_655
Li7 O28 2.044943 1_555
Li7 O24 2.062490 1_555
O0 V0 1.999249 1_555
O0 V9 2.081587 1_455
O0 Sn0 2.126578 1_545
O1 V0 2.021814 1_565
O1 V10 2.083010 1_455
O1 Sn0 2.097300 1_555
O2 V11 1.904054 1_455
O2 V1 2.065948 1_555
O2 V2 2.074279 1_556
O3 V0 2.032037 1_555
O3 V1 2.039779 1_555
O3 Sn1 2.117921 1_555
O4 V1 2.033886 1_554
O4 Sn3 2.092077 1_455
O4 V2 2.092911 1_555
O5 V0 2.003127 1_555
O5 V3 2.005489 1_555
O5 V1 2.044196 1_555
O6 V2 2.008770 1_555
O6 Sn0 2.096377 1_555
O6 V4 2.102302 1_555
O7 V5 1.959238 1_555
O7 V2 2.111011 1_555
O7 Sn0 2.128009 1_555
O8 V0 1.958609 1_555
O8 V3 2.111000 1_555
O8 Sn1 2.128437 1_555
O9 V3 2.008440 1_555
O9 Sn1 2.095964 1_555
O9 V1 2.102187 1_555
O10 V5 2.002891 1_555
O10 V2 2.006486 1_555
O10 V4 2.043838 1_555
O11 V4 2.034574 1_555
O11 Sn2 2.090831 1_555
O11 V3 2.092644 1_555
O12 V5 2.030772 1_555
O12 V4 2.039859 1_555
O12 Sn0 2.118798 1_555
O13 V6 1.905698 1_555
O13 V4 2.066325 1_555
O13 V3 2.075341 1_555
O14 V5 2.018818 1_545
O14 V7 2.084888 1_555
O14 Sn1 2.098758 1_554
O15 V5 2.000060 1_556
O15 V8 2.083067 1_555
O15 Sn1 2.126266 1_565
O16 V6 1.999593 1_555
O16 V3 2.082007 1_555
O16 Sn2 2.125362 1_555
O17 V6 2.020768 1_555
O17 V4 2.083221 1_555
O17 Sn2 2.096228 1_555
O18 V5 1.907408 1_555
O18 V7 2.066335 1_565
O18 V8 2.073556 1_554
O19 V6 2.031630 1_555
O19 V7 2.039478 1_555
O19 Sn3 2.118818 1_555
O20 V7 2.034163 1_556
O20 Sn1 2.092291 1_555
O20 V8 2.092889 1_545
O21 V6 2.003683 1_555
O21 V9 2.005839 1_555
O21 V7 2.043324 1_555
O22 V8 2.008349 1_555
O22 Sn2 2.097231 1_555
O22 V10 2.102359 1_555
O23 V11 1.959913 1_555
O23 V8 2.111459 1_555
O23 Sn2 2.129800 1_555
O24 V6 1.958630 1_555
O24 V9 2.111062 1_555
O24 Sn3 2.128613 1_555
O25 V9 2.008313 1_555
O25 Sn3 2.096790 1_555
O25 V7 2.102512 1_555
O26 V11 2.004256 1_555
O26 V8 2.005643 1_555
O26 V10 2.043623 1_555
O27 V10 2.034046 1_555
O27 V9 2.092581 1_565
O27 Sn0 2.092767 1_655
O28 V11 2.033013 1_555
O28 V10 2.039605 1_555
O28 Sn2 2.119641 1_555
O29 V0 1.905185 1_655
O29 V10 2.065386 1_545
O29 V9 2.075585 1_555
O30 V11 2.019634 1_555
O30 V1 2.084444 1_655
O30 Sn3 2.097735 1_556
O31 V11 1.998433 1_554
O31 V2 2.082294 1_655
O31 Sn3 2.125790 1_555
