# generated using pymatgen
data_LiVF5
_symmetry_space_group_name_H-M   'P 1'
_cell_length_a   8.74524200
_cell_length_b   6.32268200
_cell_length_c   8.87635372
_cell_angle_alpha   49.29827238
_cell_angle_beta   90.00000000
_cell_angle_gamma   90.00000000
_symmetry_Int_Tables_number   1
_chemical_formula_structural   LiVF5
_chemical_formula_sum   'Li4 V4 F20'
_cell_volume   372.08543840
_cell_formula_units_Z   4
loop_
 _symmetry_equiv_pos_site_id
 _symmetry_equiv_pos_as_xyz
  1  'x, y, z'
loop_
 _atom_site_type_symbol
 _atom_site_label
 _atom_site_symmetry_multiplicity
 _atom_site_fract_x
 _atom_site_fract_y
 _atom_site_fract_z
 _atom_site_occupancy
  Li  Li0  1  0.89623700  0.47190000  0.78211200  1
  Li  Li1  1  0.39623700  0.52810000  0.71788800  1
  Li  Li2  1  0.60376300  0.47190000  0.28211200  1
  Li  Li3  1  0.10376300  0.52810000  0.21788800  1
  V  V0  1  0.37712100  0.88673700  0.93148100  1
  V  V1  1  0.87712100  0.11326300  0.56851900  1
  V  V2  1  0.12287900  0.88673700  0.43148100  1
  V  V3  1  0.62287900  0.11326300  0.06851900  1
  F  F0  1  0.60404500  0.88508900  0.97887400  1
  F  F1  1  0.16761600  0.85869900  0.95563400  1
  F  F2  1  0.39085900  0.71230500  0.83023400  1
  F  F3  1  0.61853900  0.42842700  0.80048900  1
  F  F4  1  0.88932900  0.76785700  0.81272300  1
  F  F5  1  0.11853900  0.57157300  0.69951100  1
  F  F6  1  0.38932900  0.23214300  0.68727700  1
  F  F7  1  0.89085900  0.28769500  0.66976600  1
  F  F8  1  0.66761600  0.14130100  0.54436600  1
  F  F9  1  0.10404500  0.11491100  0.52112600  1
  F  F10  1  0.89595500  0.88508900  0.47887400  1
  F  F11  1  0.33238400  0.85869900  0.45563400  1
  F  F12  1  0.10914100  0.71230500  0.33023400  1
  F  F13  1  0.61067100  0.76785700  0.31272300  1
  F  F14  1  0.88146100  0.42842700  0.30048900  1
  F  F15  1  0.11067100  0.23214300  0.18727700  1
  F  F16  1  0.38146100  0.57157300  0.19951100  1
  F  F17  1  0.60914100  0.28769500  0.16976600  1
  F  F18  1  0.83238400  0.14130100  0.04436600  1
  F  F19  1  0.39595500  0.11491100  0.02112600  1
loop_
_geom_bond_atom_site_label_1
_geom_bond_atom_site_label_2
_geom_bond_distance
_geom_bond_site_symmetry_2
F0 V0 2.027220 1_555
F0 V3 2.058841 1_566
F0 Li2 2.213306 1_556
F1 V0 1.839749 1_555
F1 Li3 1.937454 1_556
F2 V0 1.825146 1_555
F2 Li1 1.966701 1_555
F3 V3 1.857219 1_556
F3 Li1 2.027697 1_555
F3 Li0 2.437513 1_555
F4 V1 1.818050 1_565
F4 Li0 2.059650 1_555
F5 V2 1.857219 1_555
F5 Li0 2.027697 1_455
F5 Li1 2.437513 1_555
F6 V0 1.818050 1_545
F6 Li1 2.059650 1_555
F7 V1 1.825146 1_555
F7 Li0 1.966701 1_555
F8 V1 1.839749 1_555
F8 Li2 1.937454 1_555
F9 V1 2.027220 1_455
F9 V2 2.058841 1_545
F9 Li3 2.213306 1_555
F10 V2 2.027220 1_655
F10 V1 2.058841 1_565
F10 Li0 2.213306 1_555
F11 V2 1.839749 1_555
F11 Li1 1.937454 1_555
F12 V2 1.825146 1_555
F12 Li3 1.966701 1_555
F13 V3 1.818050 1_565
F13 Li2 2.059650 1_555
F14 V1 1.857219 1_555
F14 Li3 2.027697 1_655
F14 Li2 2.437513 1_555
F15 V2 1.818050 1_545
F15 Li3 2.059650 1_555
F16 V0 1.857219 1_554
F16 Li2 2.027697 1_555
F16 Li3 2.437513 1_555
F17 V3 1.825146 1_555
F17 Li2 1.966701 1_555
F18 V3 1.839749 1_555
F18 Li0 1.937454 1_554
F19 V3 2.027220 1_555
F19 V0 2.058841 1_544
F19 Li1 2.213306 1_554
