# generated using pymatgen
data_Rb2ZrO3
_symmetry_space_group_name_H-M   'P 1'
_cell_length_a   6.53747646
_cell_length_b   6.53747646
_cell_length_c   5.90025790
_cell_angle_alpha   90.00000000
_cell_angle_beta   90.00000000
_cell_angle_gamma   111.33811260
_symmetry_Int_Tables_number   1
_chemical_formula_structural   Rb2ZrO3
_chemical_formula_sum   'Rb4 Zr2 O6'
_cell_volume   234.88243143
_cell_formula_units_Z   2
loop_
 _symmetry_equiv_pos_site_id
 _symmetry_equiv_pos_as_xyz
  1  'x, y, z'
loop_
 _atom_site_type_symbol
 _atom_site_label
 _atom_site_symmetry_multiplicity
 _atom_site_fract_x
 _atom_site_fract_y
 _atom_site_fract_z
 _atom_site_occupancy
  Rb  Rb0  1  0.47951341  0.80515732  0.25570873  1
  Rb  Rb1  1  0.19484268  0.52048659  0.75570873  1
  Rb  Rb2  1  0.52048659  0.19484268  0.75570873  1
  Rb  Rb3  1  0.80515732  0.47951341  0.25570873  1
  Zr  Zr0  1  0.91222360  0.91222360  0.73659975  1
  Zr  Zr1  1  0.08777640  0.08777640  0.23659975  1
  O  O0  1  0.13357222  0.88528619  0.49310763  1
  O  O1  1  0.11471381  0.86642778  0.99310763  1
  O  O2  1  0.65379387  0.65379387  0.70576653  1
  O  O3  1  0.34620613  0.34620613  0.20576653  1
  O  O4  1  0.86642778  0.11471381  0.99310763  1
  O  O5  1  0.88528619  0.13357222  0.49310763  1
loop_
_geom_bond_atom_site_label_1
_geom_bond_atom_site_label_2
_geom_bond_distance
_geom_bond_site_symmetry_2
O0 Zr0 2.091521 1_455
O0 Zr1 2.102619 1_565
O0 Rb0 2.865890 1_555
O0 Rb1 2.990638 1_555
O0 Rb2 3.028033 1_565
O0 Rb3 3.076331 1_455
O1 Zr1 2.091521 1_566
O1 Zr0 2.102619 1_455
O1 Rb1 2.865890 1_555
O1 Rb0 2.990638 1_556
O1 Rb3 3.028033 1_456
O1 Rb2 3.076331 1_565
O2 Zr0 1.914301 1_555
O2 Rb1 2.818815 1_555
O2 Rb2 2.818815 1_555
O2 Rb0 3.185787 1_555
O2 Rb3 3.185787 1_555
O3 Zr1 1.914301 1_555
O3 Rb3 2.818815 1_555
O3 Rb0 2.818815 1_555
O3 Rb1 3.185787 1_554
O3 Rb2 3.185787 1_554
O4 Zr1 2.091521 1_656
O4 Zr0 2.102619 1_545
O4 Rb2 2.865890 1_555
O4 Rb3 2.990638 1_556
O4 Rb0 3.028033 1_546
O4 Rb1 3.076331 1_655
O5 Zr0 2.091521 1_545
O5 Zr1 2.102619 1_655
O5 Rb3 2.865890 1_555
O5 Rb2 2.990638 1_555
O5 Rb1 3.028033 1_655
O5 Rb0 3.076331 1_545
