# generated using pymatgen
data_Li11Ni13O24
_symmetry_space_group_name_H-M   'P 1'
_cell_length_a   7.62393722
_cell_length_b   8.72257816
_cell_length_c   7.62393664
_cell_angle_alpha   72.55863505
_cell_angle_beta   69.49738528
_cell_angle_gamma   105.55610202
_symmetry_Int_Tables_number   1
_chemical_formula_structural   Li11Ni13O24
_chemical_formula_sum   'Li11 Ni13 O24'
_cell_volume   411.65284894
_cell_formula_units_Z   1
loop_
 _symmetry_equiv_pos_site_id
 _symmetry_equiv_pos_as_xyz
  1  'x, y, z'
loop_
 _atom_site_type_symbol
 _atom_site_label
 _atom_site_symmetry_multiplicity
 _atom_site_fract_x
 _atom_site_fract_y
 _atom_site_fract_z
 _atom_site_occupancy
  Li  Li0  1  0.70814800  0.12500000  0.91685200  1
  Li  Li1  1  0.62491400  0.87236900  0.75254600  1
  Li  Li2  1  0.96235000  0.87701000  0.41440700  1
  Li  Li3  1  0.21030700  0.62500000  0.91469300  1
  Li  Li4  1  0.53969300  0.62500000  0.58530700  1
  Li  Li5  1  0.45858100  0.37299000  0.41466100  1
  Li  Li6  1  0.78765000  0.37299000  0.08559300  1
  Li  Li7  1  0.12508600  0.37763100  0.74745400  1
  Li  Li8  1  0.04185200  0.12500000  0.58314800  1
  Li  Li9  1  0.37500000  0.12500000  0.25000000  1
  Li  Li10  1  0.29141900  0.87701000  0.08533900  1
  Ni  Ni0  1  0.91611000  0.74910300  0.83520500  1
  Ni  Ni1  1  0.83389000  0.50089700  0.66479500  1
  Ni  Ni2  1  0.41269400  0.24835500  0.83387300  1
  Ni  Ni3  1  0.75125600  0.25210700  0.49914900  1
  Ni  Ni4  1  0.66777300  0.00164600  0.33566100  1
  Ni  Ni5  1  0.33730600  0.00164600  0.66612700  1
  Ni  Ni6  1  0.87500000  0.62500000  0.25000000  1
  Ni  Ni7  1  0.58430700  0.74910300  0.16700700  1
  Ni  Ni8  1  0.25126300  0.75232800  0.49893500  1
  Ni  Ni9  1  0.49873700  0.49767200  0.00106500  1
  Ni  Ni10  1  0.16569300  0.50089700  0.33299300  1
  Ni  Ni11  1  0.08222700  0.24835500  0.16433900  1
  Ni  Ni12  1  0.99874400  0.99789300  0.00085100  1
  O  O0  1  0.59241300  0.32232900  0.95003800  1
  O  O1  1  0.92771700  0.31510900  0.61260800  1
  O  O2  1  0.82228300  0.93489100  0.88739200  1
  O  O3  1  0.85954200  0.07728800  0.43903200  1
  O  O4  1  0.51632100  0.07728800  0.78225400  1
  O  O5  1  0.72382800  0.67536500  0.73141700  1
  O  O6  1  0.98323500  0.43612400  0.21801700  1
  O  O7  1  0.65414100  0.43612400  0.54711100  1
  O  O8  1  0.30130400  0.41453800  0.88676600  1
  O  O9  1  0.23367900  0.17271200  0.71774600  1
  O  O10  1  0.89045800  0.17271200  0.06096800  1
  O  O11  1  0.57753300  0.19240200  0.38513100  1
  O  O12  1  0.09585900  0.81387600  0.95288900  1
  O  O13  1  0.76676500  0.81387600  0.28198300  1
  O  O14  1  0.44869600  0.83546200  0.61323400  1
  O  O15  1  0.34321800  0.57463500  0.45153700  1
  O  O16  1  0.02617200  0.57463500  0.76858300  1
  O  O17  1  0.69040700  0.57042100  0.11998600  1
  O  O18  1  0.27236700  0.32232900  0.27008400  1
  O  O19  1  0.15758700  0.92767100  0.54996200  1
  O  O20  1  0.47763300  0.92767100  0.22991600  1
  O  O21  1  0.17246700  0.05759800  0.11486900  1
  O  O22  1  0.05959300  0.67957900  0.38001400  1
  O  O23  1  0.40678200  0.67536500  0.04846300  1
loop_
_geom_bond_atom_site_label_1
_geom_bond_atom_site_label_2
_geom_bond_distance
_geom_bond_site_symmetry_2
Li0 O4 2.084678 1_555
Li0 O10 2.084684 1_556
Li0 O1 2.101827 1_555
Li0 O2 2.101827 1_545
Li0 O20 2.173573 1_546
Li0 O0 2.173573 1_555
Li1 O14 2.002292 1_555
Li1 O23 2.079265 1_556
Li1 O5 2.079271 1_555
Li1 O2 2.144319 1_555
Li1 O4 2.199240 1_565
Li1 O3 2.199250 1_565
Li2 O21 2.046968 1_665
Li2 O22 2.098415 1_655
Li2 O19 2.115989 1_655
Li2 O13 2.119765 1_555
Li2 O3 2.128224 1_565
Li2 O5 2.213411 1_555
Li3 O6 2.107361 1_456
Li3 O12 2.107361 1_555
Li3 O16 2.112483 1_555
Li3 O23 2.112483 1_556
Li3 O8 2.170396 1_555
Li3 O14 2.170396 1_555
Li4 O13 2.107361 1_555
Li4 O7 2.107361 1_555
Li4 O5 2.112483 1_555
Li4 O15 2.112483 1_555
Li4 O14 2.170396 1_555
Li4 O8 2.170396 1_555
Li5 O11 2.046979 1_555
Li5 O17 2.098423 1_555
Li5 O18 2.115983 1_555
Li5 O7 2.119771 1_555
Li5 O9 2.128218 1_555
Li5 O15 2.213401 1_555
Li6 O11 2.046968 1_555
Li6 O17 2.098415 1_555
Li6 O0 2.115989 1_554
Li6 O6 2.119765 1_555
Li6 O10 2.128224 1_555
Li6 O16 2.213411 1_654
Li7 O8 2.002292 1_555
Li7 O15 2.079265 1_555
Li7 O16 2.079271 1_555
Li7 O1 2.144319 1_455
Li7 O9 2.199240 1_555
Li7 O10 2.199250 1_456
Li8 O9 2.084678 1_555
Li8 O3 2.084684 1_455
Li8 O2 2.101827 1_445
Li8 O1 2.101827 1_455
Li8 O18 2.173573 1_555
Li8 O19 2.173573 1_545
Li9 O0 2.096360 1_554
Li9 O19 2.096360 1_545
Li9 O18 2.096360 1_555
Li9 O20 2.096360 1_545
Li9 O11 2.186728 1_555
Li9 O21 2.186728 1_555
Li10 O21 2.046979 1_565
Li10 O22 2.098423 1_555
Li10 O20 2.115983 1_555
Li10 O12 2.119771 1_554
Li10 O4 2.128218 1_564
Li10 O23 2.213401 1_555
Ni0 O12 1.937027 1_655
Ni0 O5 1.949542 1_555
Ni0 O17 2.004983 1_556
Ni0 O2 2.026104 1_555
Ni0 O16 2.031677 1_655
Ni0 O19 2.042428 1_655
Ni1 O7 1.937027 1_555
Ni1 O16 1.949542 1_655
Ni1 O22 2.004983 1_655
Ni1 O1 2.026104 1_555
Ni1 O5 2.031677 1_555
Ni1 O0 2.042428 1_555
Ni2 O8 1.937978 1_555
Ni2 O4 1.942179 1_555
Ni2 O9 1.948194 1_555
Ni2 O0 1.948447 1_555
Ni2 O21 2.047562 1_556
Ni2 O7 2.065913 1_555
Ni3 O11 1.867864 1_555
Ni3 O1 1.887785 1_555
Ni3 O4 2.011460 1_555
Ni3 O3 2.011462 1_555
Ni3 O7 2.014413 1_555
Ni3 O6 2.014413 1_555
Ni4 O14 1.937982 1_545
Ni4 O10 1.942171 1_555
Ni4 O3 1.948180 1_555
Ni4 O20 1.948455 1_545
Ni4 O11 2.047557 1_555
Ni4 O13 2.065917 1_545
Ni5 O14 1.937986 1_545
Ni5 O9 1.942171 1_555
Ni5 O4 1.948191 1_555
Ni5 O19 1.948449 1_545
Ni5 O11 2.047560 1_555
Ni5 O12 2.065915 1_545
Ni6 O22 2.022478 1_655
Ni6 O17 2.022478 1_555
Ni6 O7 2.069690 1_555
Ni6 O12 2.069690 1_654
Ni6 O13 2.069690 1_555
Ni6 O6 2.069690 1_555
Ni7 O13 1.937033 1_555
Ni7 O23 1.949536 1_555
Ni7 O17 2.004987 1_555
Ni7 O2 2.026106 1_554
Ni7 O15 2.031675 1_555
Ni7 O20 2.042424 1_555
Ni8 O19 1.936107 1_555
Ni8 O20 1.936107 1_555
Ni8 O15 1.940485 1_555
Ni8 O16 1.940485 1_555
Ni8 O22 2.033619 1_555
Ni8 O14 2.064712 1_555
Ni9 O0 1.936107 1_554
Ni9 O18 1.936107 1_555
Ni9 O23 1.940485 1_555
Ni9 O5 1.940485 1_554
Ni9 O17 2.033619 1_555
Ni9 O8 2.064712 1_554
Ni10 O6 1.937033 1_455
Ni10 O15 1.949536 1_555
Ni10 O22 2.004987 1_555
Ni10 O1 2.026106 1_455
Ni10 O23 2.031675 1_555
Ni10 O18 2.042424 1_555
Ni11 O8 1.937980 1_554
Ni11 O3 1.942173 1_455
Ni11 O10 1.948182 1_455
Ni11 O18 1.948453 1_555
Ni11 O21 2.047566 1_555
Ni11 O6 2.065909 1_455
Ni12 O21 1.867864 1_665
Ni12 O2 1.887785 1_554
Ni12 O9 2.011460 1_664
Ni12 O10 2.011462 1_565
Ni12 O12 2.014413 1_654
Ni12 O13 2.014413 1_555
