# generated using pymatgen
data_VH7N2O5
_symmetry_space_group_name_H-M   'P 1'
_cell_length_a   6.88170200
_cell_length_b   8.53859400
_cell_length_c   9.45437400
_cell_angle_alpha   90.00000000
_cell_angle_beta   90.00000000
_cell_angle_gamma   90.00000000
_symmetry_Int_Tables_number   1
_chemical_formula_structural   VH7N2O5
_chemical_formula_sum   'V4 H28 N8 O20'
_cell_volume   555.53957790
_cell_formula_units_Z   4
loop_
 _symmetry_equiv_pos_site_id
 _symmetry_equiv_pos_as_xyz
  1  'x, y, z'
loop_
 _atom_site_type_symbol
 _atom_site_label
 _atom_site_symmetry_multiplicity
 _atom_site_fract_x
 _atom_site_fract_y
 _atom_site_fract_z
 _atom_site_occupancy
  V  V0  1  0.25000000  0.73279000  0.27422000  1
  V  V1  1  0.25000000  0.23279000  0.22578000  1
  V  V2  1  0.75000000  0.26721000  0.72578000  1
  V  V3  1  0.75000000  0.76721000  0.77422000  1
  H  H0  1  0.25000000  0.56405100  0.98813900  1
  H  H1  1  0.25000000  0.06405100  0.51186100  1
  H  H2  1  0.75000000  0.43594900  0.01186100  1
  H  H3  1  0.75000000  0.93594900  0.48813900  1
  H  H4  1  0.25000000  0.68608800  0.84632600  1
  H  H5  1  0.25000000  0.18608800  0.65367400  1
  H  H6  1  0.75000000  0.31391200  0.15367400  1
  H  H7  1  0.75000000  0.81391200  0.34632600  1
  H  H8  1  0.12851300  0.51409200  0.83865500  1
  H  H9  1  0.37148700  0.01409200  0.66134500  1
  H  H10  1  0.62851300  0.48590800  0.16134500  1
  H  H11  1  0.87148700  0.98590800  0.33865500  1
  H  H12  1  0.87148700  0.48590800  0.16134500  1
  H  H13  1  0.62851300  0.98590800  0.33865500  1
  H  H14  1  0.37148700  0.51409200  0.83865500  1
  H  H15  1  0.12851300  0.01409200  0.66134500  1
  H  H16  1  0.25000000  0.48699400  0.44424400  1
  H  H17  1  0.25000000  0.98699400  0.05575600  1
  H  H18  1  0.75000000  0.51300600  0.55575600  1
  H  H19  1  0.75000000  0.01300600  0.94424400  1
  H  H20  1  0.12951700  0.63313000  0.52577000  1
  H  H21  1  0.37048300  0.13313000  0.97423000  1
  H  H22  1  0.62951700  0.36687000  0.47423000  1
  H  H23  1  0.87048300  0.86687000  0.02577000  1
  H  H24  1  0.87048300  0.36687000  0.47423000  1
  H  H25  1  0.62951700  0.86687000  0.02577000  1
  H  H26  1  0.37048300  0.63313000  0.52577000  1
  H  H27  1  0.12951700  0.13313000  0.97423000  1
  N  N0  1  0.25000000  0.60416300  0.46616000  1
  N  N1  1  0.25000000  0.10416300  0.03384000  1
  N  N2  1  0.75000000  0.39583700  0.53384000  1
  N  N3  1  0.75000000  0.89583700  0.96616000  1
  N  N4  1  0.25000000  0.57069400  0.87877800  1
  N  N5  1  0.25000000  0.07069400  0.62122200  1
  N  N6  1  0.75000000  0.42930600  0.12122200  1
  N  N7  1  0.75000000  0.92930600  0.37877800  1
  O  O0  1  0.44460300  0.73561300  0.13053600  1
  O  O1  1  0.05539700  0.23561300  0.36946400  1
  O  O2  1  0.94460300  0.26438700  0.86946400  1
  O  O3  1  0.55539700  0.76438700  0.63053600  1
  O  O4  1  0.55539700  0.26438700  0.86946400  1
  O  O5  1  0.94460300  0.76438700  0.63053600  1
  O  O6  1  0.05539700  0.73561300  0.13053600  1
  O  O7  1  0.44460300  0.23561300  0.36946400  1
  O  O8  1  0.51356800  0.66444200  0.26281600  1
  O  O9  1  0.98643200  0.16444200  0.23718400  1
  O  O10  1  0.01356800  0.33555800  0.73718400  1
  O  O11  1  0.48643200  0.83555800  0.76281600  1
  O  O12  1  0.48643200  0.33555800  0.73718400  1
  O  O13  1  0.01356800  0.83555800  0.76281600  1
  O  O14  1  0.98643200  0.66444200  0.26281600  1
  O  O15  1  0.51356800  0.16444200  0.23718400  1
  O  O16  1  0.25000000  0.90903300  0.34444600  1
  O  O17  1  0.25000000  0.40903300  0.15555400  1
  O  O18  1  0.75000000  0.09096700  0.65555400  1
  O  O19  1  0.75000000  0.59096700  0.84444600  1
loop_
_geom_bond_atom_site_label_1
_geom_bond_atom_site_label_2
_geom_bond_distance
_geom_bond_site_symmetry_2
H0 N4 1.035495 1_555
H1 N5 1.035495 1_555
H2 N6 1.035495 1_555
H3 N7 1.035495 1_555
H4 N4 1.031967 1_555
H5 N5 1.031967 1_555
H6 N6 1.031967 1_555
H7 N7 1.031967 1_555
H8 N4 1.037514 1_555
H9 N5 1.037514 1_555
H10 N6 1.037514 1_555
H11 N7 1.037514 1_555
H12 N6 1.037514 1_555
H13 N7 1.037514 1_555
H14 N4 1.037514 1_555
H15 N5 1.037514 1_555
H16 N0 1.021690 1_555
H17 N1 1.021690 1_565
H18 N2 1.021690 1_555
H19 N3 1.021690 1_545
H20 N0 1.032592 1_555
H21 N1 1.032592 1_556
H22 N2 1.032592 1_555
H23 N3 1.032592 1_554
H24 N2 1.032592 1_555
H25 N3 1.032592 1_554
H26 N0 1.032592 1_555
H27 N1 1.032592 1_556
N0 V0 2.121152 1_555
N1 V1 2.121152 1_555
N2 V2 2.121152 1_555
N3 V3 2.121152 1_555
O0 O8 1.469219 1_555
O0 V0 1.907722 1_555
O1 O9 1.469219 1_455
O1 V1 1.907722 1_555
O2 V2 1.907722 1_555
O3 V3 1.907722 1_555
O4 V2 1.907722 1_555
O5 V3 1.907722 1_555
O6 V0 1.907722 1_555
O7 V1 1.907722 1_555
O8 V0 1.908420 1_555
O9 V1 1.908420 1_655
O10 O2 1.469219 1_455
O10 V2 1.908420 1_455
O11 O3 1.469219 1_555
O11 V3 1.908420 1_555
O12 O4 1.469219 1_555
O12 V2 1.908420 1_555
O13 O5 1.469219 1_455
O13 V3 1.908420 1_455
O14 O6 1.469219 1_655
O14 V0 1.908420 1_655
O15 O7 1.469219 1_555
O15 V1 1.908420 1_555
O16 V0 1.644824 1_555
O17 V1 1.644824 1_555
O18 V2 1.644824 1_555
O19 V3 1.644824 1_555
