# generated using pymatgen
data_Li3NiOF3
_symmetry_space_group_name_H-M   'P 1'
_cell_length_a   5.07058617
_cell_length_b   5.07058617
_cell_length_c   10.11549829
_cell_angle_alpha   80.14586617
_cell_angle_beta   80.14586617
_cell_angle_gamma   33.90872302
_symmetry_Int_Tables_number   1
_chemical_formula_structural   Li3NiOF3
_chemical_formula_sum   'Li6 Ni2 O2 F6'
_cell_volume   142.74895588
_cell_formula_units_Z   2
loop_
 _symmetry_equiv_pos_site_id
 _symmetry_equiv_pos_as_xyz
  1  'x, y, z'
loop_
 _atom_site_type_symbol
 _atom_site_label
 _atom_site_symmetry_multiplicity
 _atom_site_fract_x
 _atom_site_fract_y
 _atom_site_fract_z
 _atom_site_occupancy
  Li  Li0  1  0.24954200  0.24954200  0.88117200  1
  Li  Li1  1  0.50000000  0.50000000  0.00000000  1
  Li  Li2  1  0.50000000  0.50000000  0.50000000  1
  Li  Li3  1  0.99611900  0.99611900  0.25557600  1
  Li  Li4  1  0.75045800  0.75045800  0.11882800  1
  Li  Li5  1  0.00388100  0.00388100  0.74442400  1
  Ni  Ni0  1  0.25496900  0.25496900  0.38324500  1
  Ni  Ni1  1  0.74503100  0.74503100  0.61675500  1
  O  O0  1  0.12578300  0.12578300  0.56537700  1
  O  O1  1  0.87421700  0.87421700  0.43462300  1
  F  F0  1  0.12453500  0.12453500  0.06062300  1
  F  F1  1  0.37369700  0.37369700  0.18149900  1
  F  F2  1  0.36849500  0.36849500  0.69935900  1
  F  F3  1  0.87546500  0.87546500  0.93937700  1
  F  F4  1  0.62630300  0.62630300  0.81850100  1
  F  F5  1  0.63150500  0.63150500  0.30064100  1
loop_
_geom_bond_atom_site_label_1
_geom_bond_atom_site_label_2
_geom_bond_distance
_geom_bond_site_symmetry_2
Li2 O0 2.097903 1_565
Li2 O0 2.097903 1_655
Li2 O1 2.097903 1_455
Li2 O1 2.097903 1_545
Li3 O1 1.977929 1_555
Li5 O0 1.977929 1_555
Ni0 O1 2.002414 1_545
Ni0 O1 2.002414 1_455
Ni0 O0 2.034337 1_555
Ni1 O0 2.002414 1_655
Ni1 O0 2.002414 1_565
Ni1 O1 2.034337 1_555
F0 Li0 1.994460 1_554
F0 Li4 2.069404 1_545
F0 Li4 2.069404 1_455
F0 Li1 2.070473 1_545
F0 Li1 2.070473 1_455
F0 Li3 2.135807 1_445
F1 Li1 2.016658 1_555
F1 Li4 2.070889 1_545
F1 Li4 2.070889 1_455
F1 Li3 2.115780 1_545
F1 Li3 2.115780 1_455
F1 Ni0 2.156410 1_555
F2 Li0 1.988589 1_555
F2 Li5 2.081620 1_655
F2 Li5 2.081620 1_565
F2 Ni1 2.162641 1_545
F2 Ni1 2.162641 1_455
F2 Li2 2.184834 1_555
F3 Li4 1.994460 1_556
F3 Li0 2.069404 1_565
F3 Li0 2.069404 1_655
F3 Li1 2.070473 1_566
F3 Li1 2.070473 1_656
F3 Li5 2.135807 1_665
F4 Li1 2.016658 1_556
F4 Li0 2.070889 1_565
F4 Li0 2.070889 1_655
F4 Li5 2.115780 1_565
F4 Li5 2.115780 1_655
F4 Ni1 2.156410 1_555
F5 Li4 1.988589 1_555
F5 Li3 2.081620 1_455
F5 Li3 2.081620 1_545
F5 Ni0 2.162641 1_565
F5 Ni0 2.162641 1_655
F5 Li2 2.184834 1_555
