# generated using pymatgen
data_K5CeNi2(NO2)12
_symmetry_space_group_name_H-M   'P 1'
_cell_length_a   10.71452900
_cell_length_b   10.71452900
_cell_length_c   10.71452900
_cell_angle_alpha   90.00000000
_cell_angle_beta   90.00000000
_cell_angle_gamma   90.00000000
_symmetry_Int_Tables_number   1
_chemical_formula_structural   K5CeNi2(NO2)12
_chemical_formula_sum   'K10 Ce2 Ni4 N24 O48'
_cell_volume   1230.04005475
_cell_formula_units_Z   2
loop_
 _symmetry_equiv_pos_site_id
 _symmetry_equiv_pos_as_xyz
  1  'x, y, z'
loop_
 _atom_site_type_symbol
 _atom_site_label
 _atom_site_symmetry_multiplicity
 _atom_site_fract_x
 _atom_site_fract_y
 _atom_site_fract_z
 _atom_site_occupancy
  K  K0  1  0.50000000  0.50000000  0.00000000  1
  K  K1  1  0.50000000  0.00000000  0.50000000  1
  K  K2  1  0.25000000  0.75000000  0.75000000  1
  K  K3  1  0.75000000  0.25000000  0.25000000  1
  K  K4  1  0.75000000  0.25000000  0.75000000  1
  K  K5  1  0.00000000  0.00000000  0.00000000  1
  K  K6  1  0.75000000  0.75000000  0.25000000  1
  K  K7  1  0.25000000  0.75000000  0.25000000  1
  K  K8  1  0.00000000  0.50000000  0.50000000  1
  K  K9  1  0.25000000  0.25000000  0.75000000  1
  Ce  Ce0  1  0.25000000  0.25000000  0.25000000  1
  Ce  Ce1  1  0.75000000  0.75000000  0.75000000  1
  Ni  Ni0  1  0.00000000  0.00000000  0.50000000  1
  Ni  Ni1  1  0.50000000  0.00000000  0.00000000  1
  Ni  Ni2  1  0.00000000  0.50000000  0.00000000  1
  Ni  Ni3  1  0.50000000  0.50000000  0.50000000  1
  N  N0  1  0.50476600  0.50702100  0.69584100  1
  N  N1  1  0.80415900  0.99523400  0.50702100  1
  N  N2  1  0.69584100  0.99523400  0.99297900  1
  N  N3  1  0.50702100  0.80415900  0.99523400  1
  N  N4  1  0.99523400  0.99297900  0.69584100  1
  N  N5  1  0.00702100  0.30415900  0.00476600  1
  N  N6  1  0.30415900  0.00476600  0.00702100  1
  N  N7  1  0.80415900  0.50476600  0.99297900  1
  N  N8  1  0.50702100  0.69584100  0.50476600  1
  N  N9  1  0.00476600  0.49297900  0.19584100  1
  N  N10  1  0.99297900  0.80415900  0.50476600  1
  N  N11  1  0.49523400  0.49297900  0.30415900  1
  N  N12  1  0.50476600  0.99297900  0.80415900  1
  N  N13  1  0.00702100  0.19584100  0.49523400  1
  N  N14  1  0.69584100  0.50476600  0.50702100  1
  N  N15  1  0.49297900  0.19584100  0.00476600  1
  N  N16  1  0.49297900  0.30415900  0.49523400  1
  N  N17  1  0.19584100  0.00476600  0.49297900  1
  N  N18  1  0.99297900  0.69584100  0.99523400  1
  N  N19  1  0.99523400  0.50702100  0.80415900  1
  N  N20  1  0.49523400  0.00702100  0.19584100  1
  N  N21  1  0.00476600  0.00702100  0.30415900  1
  N  N22  1  0.19584100  0.49523400  0.00702100  1
  N  N23  1  0.30415900  0.49523400  0.49297900  1
  O  O0  1  0.50626900  0.25723100  0.90633100  1
  O  O1  1  0.00626900  0.75723100  0.09366900  1
  O  O2  1  0.40633100  0.00626900  0.74276900  1
  O  O3  1  0.24276900  0.59366900  0.50626900  1
  O  O4  1  0.90633100  0.50626900  0.25723100  1
  O  O5  1  0.25595500  0.10509500  0.47300900  1
  O  O6  1  0.39490500  0.47300900  0.24404500  1
  O  O7  1  0.97300900  0.74404500  0.60509500  1
  O  O8  1  0.59366900  0.99373100  0.25723100  1
  O  O9  1  0.02699100  0.25595500  0.39490500  1
  O  O10  1  0.09366900  0.00626900  0.75723100  1
  O  O11  1  0.39490500  0.02699100  0.25595500  1
  O  O12  1  0.74276900  0.40633100  0.00626900  1
  O  O13  1  0.89490500  0.97300900  0.75595500  1
  O  O14  1  0.02699100  0.24404500  0.10509500  1
  O  O15  1  0.90633100  0.99373100  0.24276900  1
  O  O16  1  0.89490500  0.52699100  0.74404500  1
  O  O17  1  0.25723100  0.90633100  0.50626900  1
  O  O18  1  0.09366900  0.49373100  0.74276900  1
  O  O19  1  0.10509500  0.02699100  0.24404500  1
  O  O20  1  0.52699100  0.74404500  0.89490500  1
  O  O21  1  0.25723100  0.59366900  0.99373100  1
  O  O22  1  0.25595500  0.39490500  0.02699100  1
  O  O23  1  0.74276900  0.09366900  0.49373100  1
  O  O24  1  0.00626900  0.74276900  0.40633100  1
  O  O25  1  0.24404500  0.39490500  0.47300900  1
  O  O26  1  0.40633100  0.49373100  0.75723100  1
  O  O27  1  0.99373100  0.25723100  0.59366900  1
  O  O28  1  0.59366900  0.50626900  0.24276900  1
  O  O29  1  0.52699100  0.75595500  0.60509500  1
  O  O30  1  0.74404500  0.60509500  0.97300900  1
  O  O31  1  0.60509500  0.97300900  0.74404500  1
  O  O32  1  0.24276900  0.90633100  0.99373100  1
  O  O33  1  0.75595500  0.89490500  0.97300900  1
  O  O34  1  0.75723100  0.09366900  0.00626900  1
  O  O35  1  0.50626900  0.24276900  0.59366900  1
  O  O36  1  0.74404500  0.89490500  0.52699100  1
  O  O37  1  0.75723100  0.40633100  0.49373100  1
  O  O38  1  0.99373100  0.24276900  0.90633100  1
  O  O39  1  0.49373100  0.74276900  0.09366900  1
  O  O40  1  0.10509500  0.47300900  0.25595500  1
  O  O41  1  0.24404500  0.10509500  0.02699100  1
  O  O42  1  0.47300900  0.24404500  0.39490500  1
  O  O43  1  0.60509500  0.52699100  0.75595500  1
  O  O44  1  0.49373100  0.75723100  0.40633100  1
  O  O45  1  0.97300900  0.75595500  0.89490500  1
  O  O46  1  0.75595500  0.60509500  0.52699100  1
  O  O47  1  0.47300900  0.25595500  0.10509500  1
loop_
_geom_bond_atom_site_label_1
_geom_bond_atom_site_label_2
_geom_bond_distance
_geom_bond_site_symmetry_2
K0 O28 2.788866 1_555
K0 O26 2.788866 1_554
K0 O12 2.788866 1_555
K0 O0 2.788866 1_554
K0 O39 2.788866 1_555
K0 O21 2.788866 1_554
K0 O6 2.861631 1_555
K0 O30 2.861631 1_554
K0 O22 2.861631 1_555
K0 O20 2.861631 1_554
K0 O47 2.861631 1_555
K0 O43 2.861631 1_554
K1 O35 2.788866 1_555
K1 O23 2.788866 1_555
K1 O44 2.788866 1_545
K1 O2 2.788866 1_555
K1 O17 2.788866 1_545
K1 O8 2.788866 1_545
K1 O42 2.861631 1_555
K1 O31 2.861631 1_545
K1 O11 2.861631 1_555
K1 O36 2.861631 1_545
K1 O5 2.861631 1_555
K1 O29 2.861631 1_545
K2 O21 3.103451 1_555
K2 O32 3.103451 1_555
K2 O17 3.103451 1_555
K2 O3 3.103451 1_555
K2 O10 3.217312 1_565
K2 O2 3.217312 1_565
K2 O26 3.217312 1_555
K2 O18 3.217312 1_555
K2 O20 3.350016 1_555
K2 O29 3.350016 1_555
K2 O45 3.350016 1_455
K2 O7 3.350016 1_455
K3 O23 3.103451 1_555
K3 O37 3.103451 1_555
K3 O12 3.103451 1_555
K3 O34 3.103451 1_555
K3 O4 3.217312 1_555
K3 O28 3.217312 1_555
K3 O8 3.217312 1_545
K3 O15 3.217312 1_545
K3 O9 3.350016 1_655
K3 O14 3.350016 1_655
K3 O47 3.350016 1_555
K3 O42 3.350016 1_555
K4 O27 3.103451 1_555
K4 O38 3.103451 1_555
K4 O0 3.103451 1_555
K4 O35 3.103451 1_555
K4 O34 3.217312 1_556
K4 O12 3.217312 1_556
K4 O23 3.217312 1_555
K4 O37 3.217312 1_555
K4 O16 3.350016 1_555
K4 O43 3.350016 1_555
K4 O13 3.350016 1_545
K4 O31 3.350016 1_545
K5 O38 2.788866 1_454
K5 O15 2.788866 1_445
K5 O32 2.788866 1_544
K5 O1 2.788866 1_545
K5 O34 2.788866 1_455
K5 O10 2.788866 1_554
K5 O14 2.861631 1_555
K5 O41 2.861631 1_555
K5 O19 2.861631 1_555
K5 O33 2.861631 1_444
K5 O13 2.861631 1_444
K5 O45 2.861631 1_444
K6 O8 3.103451 1_555
K6 O15 3.103451 1_555
K6 O4 3.103451 1_555
K6 O28 3.103451 1_555
K6 O1 3.217312 1_655
K6 O24 3.217312 1_655
K6 O44 3.217312 1_555
K6 O39 3.217312 1_555
K6 O36 3.350016 1_555
K6 O46 3.350016 1_555
K6 O33 3.350016 1_554
K6 O30 3.350016 1_554
K7 O39 3.103451 1_555
K7 O44 3.103451 1_555
K7 O1 3.103451 1_555
K7 O24 3.103451 1_555
K7 O17 3.217312 1_555
K7 O3 3.217312 1_555
K7 O21 3.217312 1_554
K7 O32 3.217312 1_554
K7 O11 3.350016 1_565
K7 O19 3.350016 1_565
K7 O40 3.350016 1_555
K7 O6 3.350016 1_555
K8 O3 2.788866 1_555
K8 O37 2.788866 1_455
K8 O24 2.788866 1_555
K8 O18 2.788866 1_555
K8 O4 2.788866 1_455
K8 O27 2.788866 1_455
K8 O25 2.861631 1_555
K8 O7 2.861631 1_455
K8 O9 2.861631 1_555
K8 O16 2.861631 1_455
K8 O40 2.861631 1_555
K8 O46 2.861631 1_455
K9 O26 3.103451 1_555
K9 O18 3.103451 1_555
K9 O10 3.103451 1_555
K9 O2 3.103451 1_555
K9 O0 3.217312 1_555
K9 O35 3.217312 1_555
K9 O27 3.217312 1_455
K9 O38 3.217312 1_455
K9 O22 3.350016 1_556
K9 O41 3.350016 1_556
K9 O5 3.350016 1_555
K9 O25 3.350016 1_555
Ce0 O40 2.850265 1_555
Ce0 O25 2.850265 1_555
Ce0 O47 2.850265 1_555
Ce0 O42 2.850265 1_555
Ce0 O5 2.850265 1_555
Ce0 O6 2.850265 1_555
Ce0 O11 2.850265 1_555
Ce0 O22 2.850265 1_555
Ce0 O9 2.850265 1_555
Ce0 O41 2.850265 1_555
Ce0 O19 2.850265 1_555
Ce0 O14 2.850265 1_555
Ce1 O33 2.850265 1_555
Ce1 O13 2.850265 1_555
Ce1 O45 2.850265 1_555
Ce1 O7 2.850265 1_555
Ce1 O30 2.850265 1_555
Ce1 O31 2.850265 1_555
Ce1 O36 2.850265 1_555
Ce1 O16 2.850265 1_555
Ce1 O20 2.850265 1_555
Ce1 O43 2.850265 1_555
Ce1 O46 2.850265 1_555
Ce1 O29 2.850265 1_555
N0 O26 1.251116 1_555
N0 O43 1.271305 1_555
N0 Ni3 2.100313 1_555
N1 O23 1.251116 1_565
N1 O36 1.271305 1_555
N1 Ni0 2.100313 1_665
N2 O34 1.251116 1_566
N2 O33 1.271305 1_555
N2 Ni1 2.100313 1_566
N3 O39 1.251116 1_556
N3 O20 1.271305 1_555
N3 Ni1 2.100313 1_566
N4 O10 1.251116 1_665
N4 O13 1.271305 1_555
N4 Ni0 2.100313 1_665
N5 O38 1.251116 1_454
N5 O14 1.271305 1_555
N5 Ni2 2.100313 1_555
N6 O32 1.251116 1_544
N6 O41 1.271305 1_555
N6 Ni1 2.100313 1_555
N7 O12 1.251116 1_556
N7 O30 1.271305 1_555
N7 Ni2 2.100313 1_656
N8 O44 1.251116 1_555
N8 O29 1.271305 1_555
N8 Ni3 2.100313 1_555
N9 O4 1.251116 1_455
N9 O40 1.271305 1_555
N9 Ni2 2.100313 1_555
N10 O24 1.251116 1_655
N10 O7 1.271305 1_555
N10 Ni0 2.100313 1_665
N11 O28 1.251116 1_555
N11 O6 1.271305 1_555
N11 Ni3 2.100313 1_555
N12 O2 1.251116 1_565
N12 O31 1.271305 1_555
N12 Ni1 2.100313 1_566
N13 O27 1.251116 1_455
N13 O9 1.271305 1_555
N13 Ni0 2.100313 1_555
N14 O37 1.251116 1_555
N14 O46 1.271305 1_555
N14 Ni3 2.100313 1_555
N15 O0 1.251116 1_554
N15 O47 1.271305 1_555
N15 Ni1 2.100313 1_555
N16 O35 1.251116 1_555
N16 O42 1.271305 1_555
N16 Ni3 2.100313 1_555
N17 O17 1.251116 1_545
N17 O5 1.271305 1_555
N17 Ni0 2.100313 1_555
N18 O1 1.251116 1_656
N18 O45 1.271305 1_555
N18 Ni2 2.100313 1_656
N19 O18 1.251116 1_655
N19 O16 1.271305 1_555
N19 Ni2 2.100313 1_656
N20 O8 1.251116 1_545
N20 O11 1.271305 1_555
N20 Ni1 2.100313 1_555
N21 O15 1.251116 1_445
N21 O19 1.271305 1_555
N21 Ni0 2.100313 1_555
N22 O21 1.251116 1_554
N22 O22 1.271305 1_555
N22 Ni2 2.100313 1_555
N23 O3 1.251116 1_555
N23 O25 1.271305 1_555
N23 Ni3 2.100313 1_555
