# generated using pymatgen
data_SbPC3Cl5O
_symmetry_space_group_name_H-M   'P 1'
_cell_length_a   9.06291800
_cell_length_b   9.33335825
_cell_length_c   16.54439862
_cell_angle_alpha   89.80061185
_cell_angle_beta   89.76136731
_cell_angle_gamma   89.98664807
_symmetry_Int_Tables_number   1
_chemical_formula_structural   SbPC3Cl5O
_chemical_formula_sum   'Sb4 P4 C12 Cl20 O4'
_cell_volume   1399.42801983
_cell_formula_units_Z   4
loop_
 _symmetry_equiv_pos_site_id
 _symmetry_equiv_pos_as_xyz
  1  'x, y, z'
loop_
 _atom_site_type_symbol
 _atom_site_label
 _atom_site_symmetry_multiplicity
 _atom_site_fract_x
 _atom_site_fract_y
 _atom_site_fract_z
 _atom_site_occupancy
  Sb  Sb0  1  0.75061200  0.40408800  0.62481000  1
  Sb  Sb1  1  0.74474900  0.09576800  0.12483000  1
  Sb  Sb2  1  0.25135400  0.59618100  0.37521500  1
  Sb  Sb3  1  0.25422200  0.90452300  0.87518400  1
  P  P0  1  0.66596600  0.73283200  0.55875300  1
  P  P1  1  0.83366800  0.76842600  0.05879600  1
  P  P2  1  0.16622100  0.26777200  0.44104900  1
  P  P3  1  0.16585000  0.23201800  0.94110700  1
  C  C0  1  0.68094300  0.61863600  0.03978200  1
  C  C1  1  0.81988800  0.88224600  0.53958500  1
  C  C2  1  0.31882700  0.38131300  0.96032700  1
  C  C3  1  0.31904200  0.11750300  0.46070700  1
  C  C4  1  0.80685000  0.86176100  0.61865900  1
  C  C5  1  0.69265100  0.63812000  0.11874900  1
  C  C6  1  0.30788100  0.13788200  0.38180200  1
  C  C7  1  0.21596400  0.28345500  0.83315000  1
  C  C8  1  0.21697400  0.21664800  0.33320300  1
  C  C9  1  0.30738400  0.36180300  0.88139700  1
  C  C10  1  0.71485800  0.78309900  0.66679800  1
  C  C11  1  0.78418300  0.71675300  0.16674300  1
  Cl  Cl0  1  0.73557600  0.68176400  0.74920600  1
  Cl  Cl1  1  0.76358000  0.81711600  0.24925100  1
  Cl  Cl2  1  0.23979100  0.31669400  0.25034700  1
  Cl  Cl3  1  0.23810900  0.18225700  0.75106700  1
  Cl  Cl4  1  0.75022100  0.23864900  0.52084000  1
  Cl  Cl5  1  0.74201500  0.26165600  0.02045500  1
  Cl  Cl6  1  0.24795200  0.76119200  0.47931100  1
  Cl  Cl7  1  0.25736300  0.73830800  0.97938900  1
  Cl  Cl8  1  0.74969200  0.24812100  0.74010900  1
  Cl  Cl9  1  0.74928300  0.25158500  0.23963600  1
  Cl  Cl10  1  0.25033100  0.75265900  0.26014300  1
  Cl  Cl11  1  0.25002000  0.74905900  0.76030600  1
  Cl  Cl12  1  0.01115600  0.44153800  0.63782300  1
  Cl  Cl13  1  0.48649200  0.05531700  0.14135000  1
  Cl  Cl14  1  0.51217600  0.56030900  0.36116000  1
  Cl  Cl15  1  0.99028300  0.94074200  0.86311200  1
  Cl  Cl16  1  0.99021200  0.55477200  0.36113800  1
  Cl  Cl17  1  0.51244300  0.94549100  0.85909100  1
  Cl  Cl18  1  0.48908200  0.44314800  0.63940400  1
  Cl  Cl19  1  0.00884900  0.05866400  0.13651500  1
  O  O0  1  0.75358500  0.58507600  0.55020500  1
  O  O1  1  0.74560600  0.91578800  0.05006100  1
  O  O2  1  0.25483900  0.41500400  0.44941000  1
  O  O3  1  0.25325800  0.08426400  0.95002200  1
loop_
_geom_bond_atom_site_label_1
_geom_bond_atom_site_label_2
_geom_bond_distance
_geom_bond_site_symmetry_2
C0 C5 1.324382 1_555
C0 P1 1.994217 1_555
C1 C4 1.326262 1_555
C1 P0 1.996350 1_555
C2 C9 1.323612 1_555
C2 P3 1.993127 1_555
C3 C6 1.322851 1_555
C3 P2 1.997681 1_555
C4 P0 2.019939 1_555
C5 P1 2.019426 1_555
C6 C8 1.366321 1_555
C6 P2 2.018871 1_555
C7 C9 1.366820 1_555
C7 Cl3 1.668281 1_555
C7 P3 1.901112 1_555
C8 Cl2 1.668112 1_555
C8 P2 1.903097 1_555
C9 P3 2.017520 1_555
C10 C4 1.363485 1_555
C10 Cl0 1.667841 1_555
C10 P0 1.903755 1_555
C11 C5 1.366413 1_555
C11 Cl1 1.668041 1_555
C11 P1 1.900176 1_555
Cl4 Sb0 2.315517 1_555
Cl5 Sb1 2.315484 1_555
Cl6 Sb2 2.314491 1_555
Cl7 Sb3 2.315483 1_555
Cl8 Sb0 2.395501 1_555
Cl9 Sb1 2.396722 1_555
Cl10 Sb2 2.395470 1_555
Cl11 Sb3 2.395602 1_555
Cl12 Sb0 2.397781 1_455
Cl13 Sb1 2.385338 1_555
Cl14 Sb2 2.397780 1_555
Cl15 Sb3 2.424714 1_655
Cl16 Sb2 2.410511 1_655
Cl17 Sb3 2.385019 1_555
Cl18 Sb0 2.409276 1_555
Cl19 Sb1 2.426772 1_455
O0 P0 1.597588 1_555
O0 Sb0 2.088762 1_555
O1 P1 1.596430 1_555
O1 Sb1 2.089597 1_565
O2 P2 1.598521 1_555
O2 Sb2 2.086404 1_555
O3 P3 1.596901 1_555
O3 Sb3 2.088480 1_545
