# generated using pymatgen
data_La(BiO2)2
_symmetry_space_group_name_H-M   'P 1'
_cell_length_a   9.57634060
_cell_length_b   9.57634060
_cell_length_c   9.57634143
_cell_angle_alpha   24.29778447
_cell_angle_beta   24.29778447
_cell_angle_gamma   24.29778134
_symmetry_Int_Tables_number   1
_chemical_formula_structural   La(BiO2)2
_chemical_formula_sum   'La1 Bi2 O4'
_cell_volume   130.70175403
_cell_formula_units_Z   1
loop_
 _symmetry_equiv_pos_site_id
 _symmetry_equiv_pos_as_xyz
  1  'x, y, z'
loop_
 _atom_site_type_symbol
 _atom_site_label
 _atom_site_symmetry_multiplicity
 _atom_site_fract_x
 _atom_site_fract_y
 _atom_site_fract_z
 _atom_site_occupancy
  La  La0  1  0.00000000  0.00000000  0.00000000  1
  Bi  Bi0  1  0.22273100  0.22273100  0.22273100  1
  Bi  Bi1  1  0.77726900  0.77726900  0.77726900  1
  O  O0  1  0.29996100  0.29996100  0.29996100  1
  O  O1  1  0.09569800  0.09569800  0.09569800  1
  O  O2  1  0.70003900  0.70003900  0.70003900  1
  O  O3  1  0.90430200  0.90430200  0.90430200  1
loop_
_geom_bond_atom_site_label_1
_geom_bond_atom_site_label_2
_geom_bond_distance
_geom_bond_site_symmetry_2
La0 O2 2.506100 1_454
La0 O2 2.506100 1_544
La0 O0 2.506100 1_545
La0 O0 2.506100 1_455
La0 O2 2.506101 1_445
La0 O0 2.506101 1_554
La0 O3 2.666896 1_444
La0 O1 2.666896 1_555
Bi0 O0 2.152233 1_555
Bi0 O3 2.363922 1_454
Bi0 O3 2.363922 1_544
Bi0 O3 2.363923 1_445
Bi1 O2 2.152233 1_555
Bi1 O1 2.363922 1_656
Bi1 O1 2.363922 1_566
Bi1 O1 2.363923 1_665
