# generated using pymatgen
data_Er2TiO5
_symmetry_space_group_name_H-M   'P 1'
_cell_length_a   3.64017650
_cell_length_b   10.23969930
_cell_length_c   11.17245154
_cell_angle_alpha   90.00000000
_cell_angle_beta   90.00000000
_cell_angle_gamma   90.00000000
_symmetry_Int_Tables_number   1
_chemical_formula_structural   Er2TiO5
_chemical_formula_sum   'Er8 Ti4 O20'
_cell_volume   416.44545299
_cell_formula_units_Z   4
loop_
 _symmetry_equiv_pos_site_id
 _symmetry_equiv_pos_as_xyz
  1  'x, y, z'
loop_
 _atom_site_type_symbol
 _atom_site_label
 _atom_site_symmetry_multiplicity
 _atom_site_fract_x
 _atom_site_fract_y
 _atom_site_fract_z
 _atom_site_occupancy
  Er  Er0  1  0.25000000  0.11819270  0.27546739  1
  Er  Er1  1  0.25000000  0.13576042  0.94345437  1
  Er  Er2  1  0.75000000  0.36423958  0.44345437  1
  Er  Er3  1  0.75000000  0.38180730  0.77546739  1
  Er  Er4  1  0.25000000  0.61819270  0.22453261  1
  Er  Er5  1  0.25000000  0.63576042  0.55654563  1
  Er  Er6  1  0.75000000  0.86423958  0.05654563  1
  Er  Er7  1  0.75000000  0.88180730  0.72453261  1
  Ti  Ti0  1  0.25000000  0.17140470  0.61767310  1
  Ti  Ti1  1  0.75000000  0.32859530  0.11767310  1
  Ti  Ti2  1  0.25000000  0.67140470  0.88232690  1
  Ti  Ti3  1  0.75000000  0.82859530  0.38232690  1
  O  O0  1  0.75000000  0.00603058  0.89478206  1
  O  O1  1  0.25000000  0.00195597  0.65372851  1
  O  O2  1  0.25000000  0.22438495  0.45479911  1
  O  O3  1  0.75000000  0.24671641  0.27051278  1
  O  O4  1  0.75000000  0.23731709  0.61497470  1
  O  O5  1  0.25000000  0.26268291  0.11497470  1
  O  O6  1  0.25000000  0.25328359  0.77051278  1
  O  O7  1  0.75000000  0.27561505  0.95479911  1
  O  O8  1  0.75000000  0.49804403  0.15372851  1
  O  O9  1  0.25000000  0.49396942  0.39478206  1
  O  O10  1  0.75000000  0.50603058  0.60521794  1
  O  O11  1  0.25000000  0.50195597  0.84627149  1
  O  O12  1  0.25000000  0.72438495  0.04520089  1
  O  O13  1  0.75000000  0.74671641  0.22948722  1
  O  O14  1  0.75000000  0.73731709  0.88502530  1
  O  O15  1  0.25000000  0.76268291  0.38502530  1
  O  O16  1  0.25000000  0.75328359  0.72948722  1
  O  O17  1  0.75000000  0.77561505  0.54520089  1
  O  O18  1  0.75000000  0.99804403  0.34627149  1
  O  O19  1  0.25000000  0.99396942  0.10521794  1
loop_
_geom_bond_atom_site_label_1
_geom_bond_atom_site_label_2
_geom_bond_distance
_geom_bond_site_symmetry_2
Er0 O3 2.246722 1_555
Er0 O3 2.246722 1_455
Er0 O2 2.279627 1_555
Er0 O19 2.288232 1_545
Er0 O5 2.324699 1_555
Er0 O18 2.334972 1_545
Er0 O18 2.334972 1_445
Er1 O6 2.276291 1_555
Er1 O5 2.315448 1_556
Er1 O0 2.317986 1_555
Er1 O0 2.317986 1_455
Er1 O19 2.318259 1_546
Er1 O7 2.319398 1_555
Er1 O7 2.319398 1_455
Er2 O3 2.276291 1_555
Er2 O4 2.315448 1_555
Er2 O9 2.317986 1_655
Er2 O9 2.317986 1_555
Er2 O10 2.318259 1_555
Er2 O2 2.319398 1_655
Er2 O2 2.319398 1_555
Er3 O6 2.246722 1_655
Er3 O6 2.246722 1_555
Er3 O7 2.279627 1_555
Er3 O10 2.288232 1_555
Er3 O4 2.324699 1_555
Er3 O11 2.334972 1_555
Er3 O11 2.334972 1_655
Er4 O13 2.246722 1_555
Er4 O13 2.246722 1_455
Er4 O12 2.279627 1_555
Er4 O9 2.288232 1_555
Er4 O15 2.324699 1_555
Er4 O8 2.334972 1_455
Er4 O8 2.334972 1_555
Er5 O16 2.276291 1_555
Er5 O15 2.315448 1_555
Er5 O10 2.317986 1_555
Er5 O10 2.317986 1_455
Er5 O9 2.318259 1_555
Er5 O17 2.319398 1_455
Er5 O17 2.319398 1_555
Er6 O13 2.276291 1_555
Er6 O14 2.315448 1_554
Er6 O19 2.317986 1_655
Er6 O19 2.317986 1_555
Er6 O0 2.318259 1_564
Er6 O12 2.319398 1_555
Er6 O12 2.319398 1_655
Er7 O16 2.246722 1_655
Er7 O16 2.246722 1_555
Er7 O17 2.279627 1_555
Er7 O0 2.288232 1_565
Er7 O14 2.324699 1_555
Er7 O1 2.334972 1_565
Er7 O1 2.334972 1_665
O1 Ti0 1.781251 1_555
O2 Ti0 1.898848 1_555
O3 Ti1 1.902319 1_555
O4 Ti0 1.941430 1_655
O4 Ti0 1.941430 1_555
O5 Ti1 1.941430 1_555
O5 Ti1 1.941430 1_455
O6 Ti0 1.902319 1_555
O7 Ti1 1.898848 1_556
O8 Ti1 1.781251 1_555
O11 Ti2 1.781251 1_555
O12 Ti2 1.898848 1_554
O13 Ti3 1.902319 1_555
O14 Ti2 1.941430 1_655
O14 Ti2 1.941430 1_555
O15 Ti3 1.941430 1_555
O15 Ti3 1.941430 1_455
O16 Ti2 1.902319 1_555
O17 Ti3 1.898848 1_555
O18 Ti3 1.781251 1_555
