# generated using pymatgen
data_Li2Cr4O13
_symmetry_space_group_name_H-M   'P 1'
_cell_length_a   7.76145500
_cell_length_b   8.24202203
_cell_length_c   12.24301480
_cell_angle_alpha   95.19895202
_cell_angle_beta   107.73046813
_cell_angle_gamma   94.00735617
_symmetry_Int_Tables_number   1
_chemical_formula_structural   Li2Cr4O13
_chemical_formula_sum   'Li6 Cr12 O39'
_cell_volume   738.98291923
_cell_formula_units_Z   3
loop_
 _symmetry_equiv_pos_site_id
 _symmetry_equiv_pos_as_xyz
  1  'x, y, z'
loop_
 _atom_site_type_symbol
 _atom_site_label
 _atom_site_symmetry_multiplicity
 _atom_site_fract_x
 _atom_site_fract_y
 _atom_site_fract_z
 _atom_site_occupancy
  Li  Li0  1  0.77217000  0.11482200  0.62363100  1
  Li  Li1  1  0.19013300  0.08712700  0.63250500  1
  Li  Li2  1  0.29577600  0.51211600  0.00670400  1
  Li  Li3  1  0.70422400  0.48788400  0.99329600  1
  Li  Li4  1  0.80986700  0.91287300  0.36749500  1
  Li  Li5  1  0.22783000  0.88517800  0.37636900  1
  Cr  Cr0  1  0.95745000  0.16303900  0.95528200  1
  Cr  Cr1  1  0.35291100  0.15567900  0.95859000  1
  Cr  Cr2  1  0.52491900  0.21721800  0.35338100  1
  Cr  Cr3  1  0.13482000  0.23518000  0.36029800  1
  Cr  Cr4  1  0.51254800  0.42918600  0.65200100  1
  Cr  Cr5  1  0.11564800  0.44045300  0.64375800  1
  Cr  Cr6  1  0.88435200  0.55954700  0.35624200  1
  Cr  Cr7  1  0.48745200  0.57081400  0.34799900  1
  Cr  Cr8  1  0.86518000  0.76482000  0.63970200  1
  Cr  Cr9  1  0.47508100  0.78278200  0.64661900  1
  Cr  Cr10  1  0.64708900  0.84432100  0.04141000  1
  Cr  Cr11  1  0.04255000  0.83696100  0.04471800  1
  O  O0  1  0.14845900  0.00621800  0.99424100  1
  O  O1  1  0.88223100  0.13823600  0.81615300  1
  O  O2  1  0.50000000  0.00000000  0.00000000  1
  O  O3  1  0.67178300  0.09002200  0.40810500  1
  O  O4  1  0.28425100  0.12328900  0.81968800  1
  O  O5  1  0.33400700  0.11500100  0.38929500  1
  O  O6  1  0.02409600  0.08486200  0.39841200  1
  O  O7  1  0.97267200  0.27637300  0.61704600  1
  O  O8  1  0.46304700  0.18165800  0.21574800  1
  O  O9  1  0.60571100  0.28509400  0.59813400  1
  O  O10  1  0.28603300  0.31018500  0.61141900  1
  O  O11  1  0.05968400  0.22628900  0.22376200  1
  O  O12  1  0.86570900  0.31441800  0.00115100  1
  O  O13  1  0.58483600  0.44020500  0.79044700  1
  O  O14  1  0.18149600  0.28310600  0.98913300  1
  O  O15  1  0.49974600  0.31803100  0.99613900  1
  O  O16  1  0.67112700  0.41112300  0.38666400  1
  O  O17  1  0.37189800  0.39235200  0.38509900  1
  O  O18  1  0.03491800  0.40813400  0.41133300  1
  O  O19  1  0.18432700  0.48644400  0.78059900  1
  O  O20  1  0.81567300  0.51355600  0.21940100  1
  O  O21  1  0.96508200  0.59186600  0.58866700  1
  O  O22  1  0.62810200  0.60764800  0.61490100  1
  O  O23  1  0.32887300  0.58887700  0.61333600  1
  O  O24  1  0.50025400  0.68196900  0.00386100  1
  O  O25  1  0.81850400  0.71689400  0.01086700  1
  O  O26  1  0.41516400  0.55979500  0.20955300  1
  O  O27  1  0.13429100  0.68558200  0.99884900  1
  O  O28  1  0.94031600  0.77371100  0.77623800  1
  O  O29  1  0.71396700  0.68981500  0.38858100  1
  O  O30  1  0.39428900  0.71490600  0.40186600  1
  O  O31  1  0.53695300  0.81834200  0.78425200  1
  O  O32  1  0.02732800  0.72362700  0.38295400  1
  O  O33  1  0.97590400  0.91513800  0.60158800  1
  O  O34  1  0.66599300  0.88499900  0.61070500  1
  O  O35  1  0.71574900  0.87671100  0.18031200  1
  O  O36  1  0.32821700  0.90997800  0.59189500  1
  O  O37  1  0.11776900  0.86176400  0.18384700  1
  O  O38  1  0.85154100  0.99378200  0.00575900  1
loop_
_geom_bond_atom_site_label_1
_geom_bond_atom_site_label_2
_geom_bond_distance
_geom_bond_site_symmetry_2
Li0 O9 1.955320 1_555
Li0 O34 1.985005 1_545
Li0 O7 2.001846 1_555
Li0 O1 2.234010 1_555
Li0 O33 2.413520 1_545
Li0 O3 2.497858 1_555
Li1 O36 1.984768 1_545
Li1 O10 2.003084 1_555
Li1 O33 2.026658 1_445
Li1 O4 2.168045 1_555
Li1 O7 2.354635 1_455
Li2 O27 1.956065 1_554
Li2 O14 1.992958 1_554
Li2 O24 2.052238 1_555
Li2 O15 2.350110 1_554
Li2 O26 2.356128 1_555
Li2 O19 2.620266 1_554
Li3 O12 1.956065 1_556
Li3 O25 1.992958 1_556
Li3 O15 2.052238 1_555
Li3 O24 2.350110 1_556
Li3 O13 2.356128 1_555
Li3 O20 2.620266 1_556
Li4 O3 1.984768 1_565
Li4 O29 2.003084 1_555
Li4 O6 2.026658 1_665
Li4 O35 2.168045 1_555
Li4 O32 2.354635 1_655
Li5 O30 1.955320 1_555
Li5 O5 1.985005 1_565
Li5 O32 2.001846 1_555
Li5 O37 2.234010 1_555
Li5 O6 2.413520 1_565
Li5 O36 2.497858 1_555
Cr0 O1 1.612010 1_555
Cr0 O12 1.618577 1_556
Cr0 O38 1.819083 1_546
Cr0 O14 1.849626 1_655
Cr0 O0 2.011170 1_655
Cr1 O4 1.610307 1_555
Cr1 O15 1.630015 1_555
Cr1 O2 1.782362 1_556
Cr1 O14 1.854738 1_555
Cr1 O0 2.114747 1_555
Cr2 O8 1.598075 1_555
Cr2 O3 1.635973 1_555
Cr2 O16 1.831607 1_555
Cr2 O5 1.840700 1_555
Cr2 O17 2.015900 1_555
Cr3 O11 1.586764 1_555
Cr3 O6 1.640554 1_555
Cr3 O18 1.819836 1_555
Cr3 O5 1.854909 1_555
Cr3 O17 2.100335 1_555
Cr4 O13 1.606798 1_555
Cr4 O9 1.623800 1_555
Cr4 O22 1.832761 1_555
Cr4 O10 1.854280 1_555
Cr4 O23 1.988174 1_555
Cr5 O19 1.596041 1_555
Cr5 O7 1.629815 1_455
Cr5 O21 1.803954 1_455
Cr5 O10 1.870477 1_555
Cr5 O23 2.132857 1_555
Cr6 O20 1.596041 1_555
Cr6 O32 1.629815 1_655
Cr6 O18 1.803954 1_655
Cr6 O29 1.870477 1_555
Cr6 O16 2.132857 1_555
Cr7 O26 1.606798 1_555
Cr7 O30 1.623800 1_555
Cr7 O17 1.832761 1_555
Cr7 O29 1.854280 1_555
Cr7 O16 1.988174 1_555
Cr8 O28 1.586764 1_555
Cr8 O33 1.640554 1_555
Cr8 O21 1.819836 1_555
Cr8 O34 1.854909 1_555
Cr8 O22 2.100335 1_555
Cr9 O31 1.598075 1_555
Cr9 O36 1.635973 1_555
Cr9 O23 1.831607 1_555
Cr9 O34 1.840700 1_555
Cr9 O22 2.015900 1_555
Cr10 O35 1.610307 1_555
Cr10 O24 1.630015 1_555
Cr10 O2 1.782362 1_565
Cr10 O25 1.854738 1_555
Cr10 O38 2.114747 1_555
Cr11 O37 1.612010 1_555
Cr11 O27 1.618577 1_554
Cr11 O0 1.819083 1_564
Cr11 O25 1.849626 1_455
Cr11 O38 2.011170 1_455
