# generated using pymatgen
data_Li4Ni8O9F7
_symmetry_space_group_name_H-M   'P 1'
_cell_length_a   5.94522454
_cell_length_b   5.91144836
_cell_length_c   10.44735798
_cell_angle_alpha   107.34483583
_cell_angle_beta   72.60910993
_cell_angle_gamma   123.29262102
_symmetry_Int_Tables_number   1
_chemical_formula_structural   Li4Ni8O9F7
_chemical_formula_sum   'Li4 Ni8 O9 F7'
_cell_volume   288.71506524
_cell_formula_units_Z   1
loop_
 _symmetry_equiv_pos_site_id
 _symmetry_equiv_pos_as_xyz
  1  'x, y, z'
loop_
 _atom_site_type_symbol
 _atom_site_label
 _atom_site_symmetry_multiplicity
 _atom_site_fract_x
 _atom_site_fract_y
 _atom_site_fract_z
 _atom_site_occupancy
  Li  Li0  1  0.81857400  0.71801900  0.05499700  1
  Li  Li1  1  0.69710500  0.79118500  0.44994700  1
  Li  Li2  1  0.29277200  0.20681300  0.55029900  1
  Li  Li3  1  0.20194400  0.29224700  0.94972300  1
  Ni  Ni0  1  0.24481100  0.75087700  0.24412800  1
  Ni  Ni1  1  0.25030000  0.24173000  0.24742400  1
  Ni  Ni2  1  0.99744000  0.49877500  0.49910400  1
  Ni  Ni3  1  0.49291100  0.00102900  0.00277600  1
  Ni  Ni4  1  0.24811000  0.74903500  0.74996600  1
  Ni  Ni5  1  0.75081400  0.24896500  0.24875300  1
  Ni  Ni6  1  0.74697600  0.74915100  0.75047200  1
  Ni  Ni7  1  0.74845200  0.24927700  0.75010500  1
  O  O0  1  0.14768000  0.90757800  0.13141000  1
  O  O1  1  0.11674600  0.37429700  0.15604200  1
  O  O2  1  0.59497600  0.90302100  0.13702500  1
  O  O3  1  0.61094900  0.88348600  0.65450200  1
  O  O4  1  0.90736100  0.59442400  0.36148900  1
  O  O5  1  0.09127300  0.40487400  0.63541100  1
  O  O6  1  0.38531800  0.12214400  0.34299600  1
  O  O7  1  0.40441300  0.09505700  0.86337000  1
  O  O8  1  0.88554100  0.61569900  0.84524000  1
  F  F0  1  0.11273300  0.87570400  0.61827700  1
  F  F1  1  0.63278800  0.38612300  0.12394400  1
  F  F2  1  0.36979000  0.59856300  0.37411100  1
  F  F3  1  0.62187700  0.38320400  0.61913800  1
  F  F4  1  0.38066700  0.62117700  0.87904200  1
  F  F5  1  0.87771900  0.12167800  0.37985500  1
  F  F6  1  0.86995700  0.11586500  0.88045500  1
loop_
_geom_bond_atom_site_label_1
_geom_bond_atom_site_label_2
_geom_bond_distance
_geom_bond_site_symmetry_2
Li0 O0 1.927338 1_655
Li0 O2 2.013407 1_555
Li0 O8 2.068608 1_554
Li1 O4 2.008538 1_555
Li1 O3 2.020972 1_555
Li2 O5 1.969496 1_555
Li2 O6 2.046331 1_555
Li3 O7 1.971266 1_555
Li3 O1 2.032646 1_556
Ni0 O2 1.883320 1_555
Ni0 O4 1.884760 1_455
Ni0 O1 1.928438 1_555
Ni0 O6 1.932082 1_565
Ni0 O0 2.054868 1_555
Ni1 O0 1.853279 1_545
Ni1 O6 1.914154 1_555
Ni1 O1 1.933486 1_555
Ni2 O5 1.983281 1_655
Ni2 O4 1.987691 1_555
Ni3 O0 1.967967 1_545
Ni3 O7 1.992177 1_554
Ni3 O2 2.012516 1_545
Ni4 O5 1.890395 1_555
Ni4 O7 1.891471 1_565
Ni4 O8 1.891668 1_455
Ni4 O3 1.893161 1_555
Ni5 O2 1.883125 1_545
Ni5 O4 1.886374 1_555
Ni5 O1 1.902311 1_655
Ni5 O6 1.904194 1_555
Ni6 O8 1.986954 1_555
Ni6 O3 1.988561 1_555
Ni7 O7 1.887922 1_555
Ni7 O5 1.890778 1_655
Ni7 O3 1.897730 1_545
Ni7 O8 1.899081 1_555
F0 Li2 1.885630 1_565
F0 Ni2 2.040626 1_455
F0 Ni6 2.056804 1_455
F0 Ni4 2.244796 1_555
F1 Li0 1.891081 1_555
F1 Ni3 2.075829 1_555
F1 Ni1 2.082264 1_555
F1 Ni5 2.156823 1_555
F2 Li1 1.913686 1_555
F2 Ni1 1.989548 1_555
F2 Ni2 2.061882 1_455
F2 Ni0 2.296430 1_555
F3 Li2 1.893950 1_555
F3 Ni2 2.046254 1_555
F3 Ni6 2.046822 1_555
F3 Ni7 2.231735 1_555
F4 Li3 1.890521 1_555
F4 Ni6 2.041529 1_555
F4 Ni3 2.073266 1_566
F4 Ni4 2.215337 1_555
F5 Li1 1.893687 1_545
F5 Ni2 2.039683 1_555
F5 Ni1 2.086167 1_655
F5 Ni5 2.206103 1_555
F6 Li3 1.910795 1_655
F6 Ni6 2.043603 1_545
F6 Ni3 2.062295 1_556
F6 Ni7 2.202773 1_555
