# generated using pymatgen
data_Mn6OF11
_symmetry_space_group_name_H-M   'P 1'
_cell_length_a   4.96652000
_cell_length_b   5.89226400
_cell_length_c   16.19399237
_cell_angle_alpha   89.55822634
_cell_angle_beta   90.00000000
_cell_angle_gamma   90.00000000
_symmetry_Int_Tables_number   1
_chemical_formula_structural   Mn6OF11
_chemical_formula_sum   'Mn12 O2 F22'
_cell_volume   473.88766702
_cell_formula_units_Z   2
loop_
 _symmetry_equiv_pos_site_id
 _symmetry_equiv_pos_as_xyz
  1  'x, y, z'
loop_
 _atom_site_type_symbol
 _atom_site_label
 _atom_site_symmetry_multiplicity
 _atom_site_fract_x
 _atom_site_fract_y
 _atom_site_fract_z
 _atom_site_occupancy
  Mn  Mn0  1  0.00082100  0.07970100  0.08349900  1
  Mn  Mn1  1  0.01234400  0.42006800  0.91273200  1
  Mn  Mn2  1  0.97624900  0.06218100  0.74448100  1
  Mn  Mn3  1  0.02011200  0.07962400  0.41300100  1
  Mn  Mn4  1  0.00801600  0.39499900  0.25355700  1
  Mn  Mn5  1  0.99664300  0.41673800  0.58341700  1
  Mn  Mn6  1  0.47624900  0.93781900  0.25551900  1
  Mn  Mn7  1  0.52011200  0.92037600  0.58699900  1
  Mn  Mn8  1  0.50082100  0.92029900  0.91650100  1
  Mn  Mn9  1  0.50801600  0.60500100  0.74644300  1
  Mn  Mn10  1  0.51234400  0.57993200  0.08726800  1
  Mn  Mn11  1  0.49664300  0.58326200  0.41658300  1
  O  O0  1  0.20647400  0.16065800  0.30216500  1
  O  O1  1  0.70647400  0.83934200  0.69783500  1
  F  F0  1  0.23270800  0.14654500  0.97356600  1
  F  F1  1  0.21698500  0.13485300  0.63969900  1
  F  F2  1  0.25105700  0.37564100  0.80019100  1
  F  F3  1  0.22096900  0.36184800  0.14263300  1
  F  F4  1  0.23115400  0.35950500  0.47521800  1
  F  F5  1  0.26120600  0.85634000  0.80876300  1
  F  F6  1  0.27357400  0.64329700  0.97527600  1
  F  F7  1  0.28370400  0.85800200  0.14036400  1
  F  F8  1  0.25944200  0.64477500  0.30576300  1
  F  F9  1  0.27809000  0.85977000  0.47821300  1
  F  F10  1  0.27045300  0.63290700  0.64309800  1
  F  F11  1  0.72096900  0.63815200  0.85736700  1
  F  F12  1  0.73270800  0.85345500  0.02643400  1
  F  F13  1  0.75105700  0.62435900  0.19980900  1
  F  F14  1  0.73115400  0.64049500  0.52478200  1
  F  F15  1  0.71698500  0.86514700  0.36030100  1
  F  F16  1  0.78370400  0.14199800  0.85963600  1
  F  F17  1  0.76120600  0.14366000  0.19123700  1
  F  F18  1  0.77357400  0.35670300  0.02472400  1
  F  F19  1  0.75944200  0.35522500  0.69423700  1
  F  F20  1  0.77809000  0.14023000  0.52178700  1
  F  F21  1  0.77045300  0.36709300  0.35690200  1
loop_
_geom_bond_atom_site_label_1
_geom_bond_atom_site_label_2
_geom_bond_distance
_geom_bond_site_symmetry_2
Mn2 O1 2.026109 1_545
Mn3 O0 2.071963 1_555
Mn4 O0 1.865733 1_555
Mn6 O0 2.026109 1_565
Mn7 O1 2.071963 1_555
Mn9 O1 1.865733 1_555
F0 Mn8 2.103156 1_545
F0 Mn0 2.154058 1_556
F0 Mn1 2.177455 1_555
F1 Mn2 2.116819 1_455
F1 Mn7 2.146748 1_545
F1 Mn5 2.182579 1_455
F2 Mn9 2.048055 1_555
F2 Mn1 2.191559 1_555
F2 Mn2 2.472601 1_455
F3 Mn4 2.094961 1_555
F3 Mn10 2.128730 1_555
F3 Mn0 2.213795 1_555
F4 Mn11 2.087863 1_555
F4 Mn5 2.132952 1_455
F4 Mn3 2.204316 1_555
F5 Mn2 2.130292 1_465
F5 Mn8 2.147649 1_555
F5 Mn9 2.176542 1_555
F6 Mn1 2.111804 1_555
F6 Mn8 2.195392 1_555
F6 Mn10 2.196440 1_556
F7 Mn0 2.123621 1_565
F7 Mn6 2.150983 1_555
F7 Mn10 2.176020 1_555
F8 Mn4 2.111693 1_555
F8 Mn11 2.174817 1_555
F8 Mn6 2.186613 1_555
F9 Mn3 2.100928 1_565
F9 Mn7 2.164616 1_555
F9 Mn11 2.203141 1_555
F10 Mn9 2.053216 1_555
F10 Mn5 2.103500 1_455
F10 Mn7 2.282133 1_555
F11 Mn9 2.094961 1_555
F11 Mn1 2.128730 1_655
F11 Mn8 2.213795 1_555
F12 Mn0 2.103156 1_665
F12 Mn8 2.154058 1_554
F12 Mn10 2.177455 1_555
F13 Mn4 2.048055 1_655
F13 Mn10 2.191559 1_555
F13 Mn6 2.472601 1_555
F14 Mn5 2.087863 1_555
F14 Mn11 2.132952 1_555
F14 Mn7 2.204316 1_555
F15 Mn6 2.116819 1_555
F15 Mn3 2.146748 1_665
F15 Mn11 2.182579 1_555
F16 Mn8 2.123621 1_545
F16 Mn2 2.150983 1_555
F16 Mn1 2.176020 1_655
F17 Mn6 2.130292 1_545
F17 Mn0 2.147649 1_655
F17 Mn4 2.176542 1_655
F18 Mn10 2.111804 1_555
F18 Mn0 2.195392 1_655
F18 Mn1 2.196440 1_654
F19 Mn9 2.111693 1_555
F19 Mn5 2.174817 1_555
F19 Mn2 2.186613 1_555
F20 Mn7 2.100928 1_545
F20 Mn3 2.164616 1_655
F20 Mn5 2.203141 1_555
F21 Mn4 2.053216 1_655
F21 Mn11 2.103500 1_555
F21 Mn3 2.282133 1_655
