# generated using pymatgen
data_LiAg2F6
_symmetry_space_group_name_H-M   'P 1'
_cell_length_a   9.28564435
_cell_length_b   9.28564435
_cell_length_c   4.82296200
_cell_angle_alpha   90.00000000
_cell_angle_beta   90.00000000
_cell_angle_gamma   120.00000250
_symmetry_Int_Tables_number   1
_chemical_formula_structural   LiAg2F6
_chemical_formula_sum   'Li3 Ag6 F18'
_cell_volume   360.13767162
_cell_formula_units_Z   3
loop_
 _symmetry_equiv_pos_site_id
 _symmetry_equiv_pos_as_xyz
  1  'x, y, z'
loop_
 _atom_site_type_symbol
 _atom_site_label
 _atom_site_symmetry_multiplicity
 _atom_site_fract_x
 _atom_site_fract_y
 _atom_site_fract_z
 _atom_site_occupancy
  Li  Li0  1  0.66666700  0.33333300  0.48537300  1
  Li  Li1  1  0.00000000  0.00000000  0.00000000  1
  Li  Li2  1  0.33333300  0.66666700  0.51462700  1
  Ag  Ag0  1  0.30528400  0.00000000  0.50000000  1
  Ag  Ag1  1  0.63767200  0.00000000  0.00000000  1
  Ag  Ag2  1  0.00000000  0.63767200  0.00000000  1
  Ag  Ag3  1  0.00000000  0.30528400  0.50000000  1
  Ag  Ag4  1  0.36232800  0.36232800  0.00000000  1
  Ag  Ag5  1  0.69471600  0.69471600  0.50000000  1
  F  F0  1  0.21578500  0.11386800  0.76192000  1
  F  F1  1  0.45640000  0.25739600  0.25781100  1
  F  F2  1  0.59427700  0.47975700  0.72767100  1
  F  F3  1  0.52024300  0.11452000  0.72767100  1
  F  F4  1  0.89808300  0.78421500  0.76192000  1
  F  F5  1  0.80099600  0.54360000  0.25781100  1
  F  F6  1  0.74260400  0.19900400  0.25781100  1
  F  F7  1  0.10191700  0.88613200  0.23808000  1
  F  F8  1  0.88548000  0.40572300  0.72767100  1
  F  F9  1  0.19900400  0.74260400  0.74218900  1
  F  F10  1  0.88613200  0.10191700  0.76192000  1
  F  F11  1  0.11452000  0.52024300  0.27232900  1
  F  F12  1  0.40572300  0.88548000  0.27232900  1
  F  F13  1  0.11386800  0.21578500  0.23808000  1
  F  F14  1  0.25739600  0.45640000  0.74218900  1
  F  F15  1  0.54360000  0.80099600  0.74218900  1
  F  F16  1  0.47975700  0.59427700  0.27232900  1
  F  F17  1  0.78421500  0.89808300  0.23808000  1
loop_
_geom_bond_atom_site_label_1
_geom_bond_atom_site_label_2
_geom_bond_distance
_geom_bond_site_symmetry_2
Ag0 F3 2.048925 1_555
Ag0 F12 2.048925 1_545
Ag0 F7 2.069559 1_545
Ag0 F0 2.069559 1_555
Ag0 F1 2.385813 1_555
Ag0 F9 2.385813 1_545
Ag1 F6 2.027218 1_555
Ag1 F15 2.027218 1_544
Ag1 F12 2.281319 1_545
Ag1 F3 2.281319 1_554
Ag1 F10 2.313759 1_554
Ag1 F17 2.313759 1_545
Ag2 F9 2.027218 1_554
Ag2 F5 2.027218 1_455
Ag2 F8 2.281319 1_454
Ag2 F11 2.281319 1_555
Ag2 F7 2.313759 1_555
Ag2 F4 2.313759 1_454
Ag3 F11 2.048925 1_555
Ag3 F8 2.048925 1_455
Ag3 F10 2.069559 1_455
Ag3 F13 2.069559 1_555
Ag3 F14 2.385813 1_555
Ag3 F6 2.385813 1_455
Ag4 F14 2.027218 1_554
Ag4 F1 2.027218 1_555
Ag4 F16 2.281319 1_555
Ag4 F2 2.281319 1_554
Ag4 F0 2.313759 1_554
Ag4 F13 2.313759 1_555
Ag5 F2 2.048925 1_555
Ag5 F16 2.048925 1_555
Ag5 F4 2.069559 1_555
Ag5 F17 2.069559 1_555
Ag5 F15 2.385814 1_555
Ag5 F5 2.385814 1_555
F0 Li1 2.081508 1_556
F1 Li0 2.033997 1_555
F2 Li0 2.140095 1_555
F3 Li0 2.140089 1_555
F4 Li1 2.081508 1_666
F5 Li0 2.033996 1_555
F6 Li0 2.033990 1_555
F7 Li1 2.081508 1_565
F8 Li0 2.140088 1_555
F9 Li2 2.033990 1_555
F10 Li1 2.081508 1_656
F11 Li2 2.140089 1_555
F12 Li2 2.140088 1_555
F13 Li1 2.081508 1_555
F14 Li2 2.033997 1_555
F15 Li2 2.033996 1_555
F16 Li2 2.140095 1_555
F17 Li1 2.081508 1_665
