# generated using pymatgen
data_Li4V3O8
_symmetry_space_group_name_H-M   'P 1'
_cell_length_a   5.83713799
_cell_length_b   5.92150828
_cell_length_c   8.31464020
_cell_angle_alpha   88.84329562
_cell_angle_beta   90.00046950
_cell_angle_gamma   89.99838537
_symmetry_Int_Tables_number   1
_chemical_formula_structural   Li4V3O8
_chemical_formula_sum   'Li8 V6 O16'
_cell_volume   287.33415536
_cell_formula_units_Z   2
loop_
 _symmetry_equiv_pos_site_id
 _symmetry_equiv_pos_as_xyz
  1  'x, y, z'
loop_
 _atom_site_type_symbol
 _atom_site_label
 _atom_site_symmetry_multiplicity
 _atom_site_fract_x
 _atom_site_fract_y
 _atom_site_fract_z
 _atom_site_occupancy
  Li  Li0  1  0.00000900  0.00000200  0.99999200  1
  Li  Li1  1  0.50000900  0.50000400  0.49999200  1
  Li  Li2  1  0.25001800  0.75003100  0.75000500  1
  Li  Li3  1  0.75001900  0.25003200  0.25000700  1
  Li  Li4  1  0.99999400  0.50000000  0.00000900  1
  Li  Li5  1  0.49999200  0.99999700  0.50000700  1
  Li  Li6  1  0.24997900  0.25000200  0.25000900  1
  Li  Li7  1  0.74998100  0.75000100  0.75000700  1
  V  V0  1  0.74991400  0.24987300  0.75002300  1
  V  V1  1  0.49996900  0.00010800  0.99983900  1
  V  V2  1  0.25013000  0.24991200  0.75004900  1
  V  V3  1  0.24992300  0.74988200  0.25000600  1
  V  V4  1  0.99996000  0.50010100  0.49984400  1
  V  V5  1  0.75009700  0.74995200  0.25003700  1
  O  O0  1  0.49998800  0.00864000  0.75432200  1
  O  O1  1  0.99998800  0.50863700  0.25432100  1
  O  O2  1  0.00001900  0.49138200  0.74573600  1
  O  O3  1  0.50001900  0.99138200  0.24573800  1
  O  O4  1  0.24703100  0.26391400  0.52473900  1
  O  O5  1  0.74703000  0.76391400  0.02474400  1
  O  O6  1  0.48364600  0.53319600  0.25548000  1
  O  O7  1  0.98364700  0.03319700  0.75547900  1
  O  O8  1  0.26923800  0.78021100  0.00845300  1
  O  O9  1  0.76923800  0.28020800  0.50844900  1
  O  O10  1  0.25295700  0.23608700  0.97526400  1
  O  O11  1  0.75295800  0.73609100  0.47526200  1
  O  O12  1  0.01634400  0.96682900  0.24452700  1
  O  O13  1  0.51634300  0.46682400  0.74452200  1
  O  O14  1  0.23078200  0.71980000  0.49157000  1
  O  O15  1  0.73077900  0.21979600  0.99157200  1
loop_
_geom_bond_atom_site_label_1
_geom_bond_atom_site_label_2
_geom_bond_distance
_geom_bond_site_symmetry_2
Li0 O8 2.040764 1_546
Li0 O15 2.040773 1_455
Li0 O7 2.040800 1_455
Li0 O10 2.040874 1_555
Li0 O12 2.040964 1_546
Li0 O5 2.041034 1_446
Li1 O14 2.040767 1_555
Li1 O9 2.040783 1_555
Li1 O6 2.040790 1_555
Li1 O11 2.040887 1_555
Li1 O13 2.040926 1_555
Li1 O4 2.041034 1_555
Li2 O0 2.116053 1_565
Li2 O2 2.116329 1_555
Li2 O14 2.162752 1_555
Li2 O8 2.162824 1_556
Li2 O13 2.287815 1_555
Li2 O7 2.287817 1_465
Li3 O1 2.116031 1_555
Li3 O3 2.116337 1_545
Li3 O15 2.162756 1_554
Li3 O9 2.162771 1_555
Li3 O12 2.287797 1_645
Li3 O6 2.287816 1_555
Li4 O2 2.115834 1_654
Li4 O1 2.116163 1_555
Li4 O5 2.162799 1_555
Li4 O10 2.162800 1_654
Li4 O15 2.287411 1_554
Li4 O8 2.287560 1_655
Li5 O3 2.115800 1_555
Li5 O0 2.116190 1_565
Li5 O11 2.162782 1_555
Li5 O4 2.162797 1_565
Li5 O14 2.287361 1_555
Li5 O9 2.287568 1_565
Li6 O1 2.116189 1_455
Li6 O3 2.116311 1_545
Li6 O12 2.162597 1_545
Li6 O6 2.162808 1_555
Li6 O4 2.287492 1_555
Li6 O10 2.287619 1_554
Li7 O0 2.116215 1_565
Li7 O2 2.116299 1_655
Li7 O13 2.162628 1_555
Li7 O7 2.162814 1_565
Li7 O5 2.287551 1_556
Li7 O11 2.287618 1_555
O0 V1 2.040991 1_555
O0 V2 2.041410 1_555
O0 V0 2.041591 1_555
O1 V4 2.041041 1_555
O1 V3 2.041678 1_655
O1 V5 2.041726 1_555
O2 V2 2.043286 1_555
O2 V0 2.043480 1_455
O2 V4 2.044113 1_455
O3 V5 2.042983 1_555
O3 V3 2.043405 1_555
O3 V1 2.044172 1_564
O4 V2 1.873620 1_555
O4 V4 2.016675 1_455
O5 V5 1.873471 1_555
O5 V1 2.016670 1_564
O6 V3 1.872758 1_555
O6 V5 2.016492 1_555
O7 V0 1.872758 1_555
O7 V2 2.016481 1_655
O8 V1 1.873734 1_564
O8 V3 2.015982 1_555
O9 V4 1.873678 1_555
O9 V0 2.016161 1_555
O10 V2 1.872791 1_555
O10 V1 2.015343 1_555
O11 V5 1.872881 1_555
O11 V4 2.015352 1_555
O12 V3 1.873205 1_555
O12 V5 2.016035 1_455
O13 V0 1.873189 1_555
O13 V2 2.016015 1_555
O14 V4 1.873236 1_455
O14 V3 2.015916 1_555
O15 V1 1.873139 1_555
O15 V0 2.015788 1_555
