# generated using pymatgen
data_Re6H12Pb3C2S2(N2O13)2
_symmetry_space_group_name_H-M   'P 1'
_cell_length_a   16.50933300
_cell_length_b   16.50933300
_cell_length_c   5.90155700
_cell_angle_alpha   90.00000000
_cell_angle_beta   90.00000000
_cell_angle_gamma   90.00000000
_symmetry_Int_Tables_number   1
_chemical_formula_structural   Re6H12Pb3C2S2(N2O13)2
_chemical_formula_sum   'Re12 H24 Pb6 C4 S4 N8 O52'
_cell_volume   1608.51702194
_cell_formula_units_Z   2
loop_
 _symmetry_equiv_pos_site_id
 _symmetry_equiv_pos_as_xyz
  1  'x, y, z'
loop_
 _atom_site_type_symbol
 _atom_site_label
 _atom_site_symmetry_multiplicity
 _atom_site_fract_x
 _atom_site_fract_y
 _atom_site_fract_z
 _atom_site_occupancy
  Re  Re0  1  0.18030700  0.02798100  0.46869500  1
  Re  Re1  1  0.68030700  0.47201900  0.53130500  1
  Re  Re2  1  0.81969300  0.97201900  0.46869500  1
  Re  Re3  1  0.31969300  0.52798100  0.53130500  1
  Re  Re4  1  0.02798100  0.81969300  0.53130500  1
  Re  Re5  1  0.52798100  0.68030700  0.46869500  1
  Re  Re6  1  0.97201900  0.18030700  0.53130500  1
  Re  Re7  1  0.47201900  0.31969300  0.46869500  1
  Re  Re8  1  0.10886200  0.60886200  0.99563200  1
  Re  Re9  1  0.60886200  0.89113800  0.00436800  1
  Re  Re10  1  0.89113800  0.39113800  0.99563200  1
  Re  Re11  1  0.39113800  0.10886200  0.00436800  1
  H  H0  1  0.18798000  0.78883900  0.00898100  1
  H  H1  1  0.68798000  0.71116100  0.99101900  1
  H  H2  1  0.81202000  0.21116100  0.00898100  1
  H  H3  1  0.31202000  0.28883900  0.99101900  1
  H  H4  1  0.78883900  0.81202000  0.99101900  1
  H  H5  1  0.28883900  0.68798000  0.00898100  1
  H  H6  1  0.21116100  0.18798000  0.99101900  1
  H  H7  1  0.71116100  0.31202000  0.00898100  1
  H  H8  1  0.21720800  0.89105200  0.01038300  1
  H  H9  1  0.71720800  0.60894800  0.98961700  1
  H  H10  1  0.78279200  0.10894800  0.01038300  1
  H  H11  1  0.28279200  0.39105200  0.98961700  1
  H  H12  1  0.89105200  0.78279200  0.98961700  1
  H  H13  1  0.39105200  0.71720800  0.01038300  1
  H  H14  1  0.10894800  0.21720800  0.98961700  1
  H  H15  1  0.60894800  0.28279200  0.01038300  1
  H  H16  1  0.24975700  0.81728300  0.51312100  1
  H  H17  1  0.74975700  0.68271700  0.48687900  1
  H  H18  1  0.75024300  0.18271700  0.51312100  1
  H  H19  1  0.25024300  0.31728300  0.48687900  1
  H  H20  1  0.81728300  0.75024300  0.48687900  1
  H  H21  1  0.31728300  0.74975700  0.51312100  1
  H  H22  1  0.18271700  0.24975700  0.48687900  1
  H  H23  1  0.68271700  0.25024300  0.51312100  1
  Pb  Pb0  1  0.00000000  0.00000000  0.00000000  1
  Pb  Pb1  1  0.50000000  0.50000000  0.00000000  1
  Pb  Pb2  1  0.41614400  0.91614400  0.51400900  1
  Pb  Pb3  1  0.91614400  0.58385600  0.48599100  1
  Pb  Pb4  1  0.58385600  0.08385600  0.51400900  1
  Pb  Pb5  1  0.08385600  0.41614400  0.48599100  1
  C  C0  1  0.31128400  0.81128400  0.01331400  1
  C  C1  1  0.81128400  0.68871600  0.98668600  1
  C  C2  1  0.68871600  0.18871600  0.01331400  1
  C  C3  1  0.18871600  0.31128400  0.98668600  1
  S  S0  1  0.38555900  0.88555900  0.01222100  1
  S  S1  1  0.88555900  0.61444100  0.98777900  1
  S  S2  1  0.61444100  0.11444100  0.01222100  1
  S  S3  1  0.11444100  0.38555900  0.98777900  1
  N  N0  1  0.23317400  0.83164100  0.01318400  1
  N  N1  1  0.73317400  0.66835900  0.98681600  1
  N  N2  1  0.76682600  0.16835900  0.01318400  1
  N  N3  1  0.26682600  0.33164100  0.98681600  1
  N  N4  1  0.83164100  0.76682600  0.98681600  1
  N  N5  1  0.33164100  0.73317400  0.01318400  1
  N  N6  1  0.16835900  0.23317400  0.98681600  1
  N  N7  1  0.66835900  0.26682600  0.01318400  1
  O  O0  1  0.14224400  0.99517700  0.20515500  1
  O  O1  1  0.64224400  0.50482300  0.79484500  1
  O  O2  1  0.85775600  0.00482300  0.20515500  1
  O  O3  1  0.35775600  0.49517700  0.79484500  1
  O  O4  1  0.99517700  0.85775600  0.79484500  1
  O  O5  1  0.49517700  0.64224400  0.20515500  1
  O  O6  1  0.00482300  0.14224400  0.79484500  1
  O  O7  1  0.50482300  0.35775600  0.20515500  1
  O  O8  1  0.11310200  0.99554900  0.68095800  1
  O  O9  1  0.61310200  0.50445100  0.31904200  1
  O  O10  1  0.88689800  0.00445100  0.68095800  1
  O  O11  1  0.38689800  0.49554900  0.31904200  1
  O  O12  1  0.99554900  0.88689800  0.31904200  1
  O  O13  1  0.49554900  0.61310200  0.68095800  1
  O  O14  1  0.00445100  0.11310200  0.31904200  1
  O  O15  1  0.50445100  0.38689800  0.68095800  1
  O  O16  1  0.27502400  0.98304200  0.51522800  1
  O  O17  1  0.77502400  0.51695800  0.48477200  1
  O  O18  1  0.72497600  0.01695800  0.51522800  1
  O  O19  1  0.22497600  0.48304200  0.48477200  1
  O  O20  1  0.98304200  0.72497600  0.48477200  1
  O  O21  1  0.48304200  0.77502400  0.51522800  1
  O  O22  1  0.01695800  0.27502400  0.48477200  1
  O  O23  1  0.51695800  0.22497600  0.51522800  1
  O  O24  1  0.18929600  0.13343600  0.47928900  1
  O  O25  1  0.68929600  0.36656400  0.52071100  1
  O  O26  1  0.81070400  0.86656400  0.47928900  1
  O  O27  1  0.31070400  0.63343600  0.52071100  1
  O  O28  1  0.13343600  0.81070400  0.52071100  1
  O  O29  1  0.63343600  0.68929600  0.47928900  1
  O  O30  1  0.86656400  0.18929600  0.52071100  1
  O  O31  1  0.36656400  0.31070400  0.47928900  1
  O  O32  1  0.06681900  0.56681900  0.74782000  1
  O  O33  1  0.56681900  0.93318100  0.25218000  1
  O  O34  1  0.93318100  0.43318100  0.74782000  1
  O  O35  1  0.43318100  0.06681900  0.25218000  1
  O  O36  1  0.06533600  0.56533600  0.24047400  1
  O  O37  1  0.56533600  0.93466400  0.75952600  1
  O  O38  1  0.93466400  0.43466400  0.24047400  1
  O  O39  1  0.43466400  0.06533600  0.75952600  1
  O  O40  1  0.28624300  0.09318700  0.00340400  1
  O  O41  1  0.78624300  0.40681300  0.99659600  1
  O  O42  1  0.71375700  0.90681300  0.00340400  1
  O  O43  1  0.21375700  0.59318700  0.99659600  1
  O  O44  1  0.09318700  0.71375700  0.99659600  1
  O  O45  1  0.59318700  0.78624300  0.00340400  1
  O  O46  1  0.90681300  0.28624300  0.99659600  1
  O  O47  1  0.40681300  0.21375700  0.00340400  1
  O  O48  1  0.30856200  0.80856200  0.50894500  1
  O  O49  1  0.80856200  0.69143800  0.49105500  1
  O  O50  1  0.69143800  0.19143800  0.50894500  1
  O  O51  1  0.19143800  0.30856200  0.49105500  1
loop_
_geom_bond_atom_site_label_1
_geom_bond_atom_site_label_2
_geom_bond_distance
_geom_bond_site_symmetry_2
H0 N0 1.027932 1_555
H1 N1 1.027932 1_555
H2 N2 1.027932 1_555
H3 N3 1.027932 1_555
H4 N4 1.027932 1_555
H5 N5 1.027932 1_555
H6 N6 1.027932 1_555
H7 N7 1.027932 1_555
H8 N0 1.015771 1_555
H9 N1 1.015771 1_555
H10 N2 1.015771 1_555
H11 N3 1.015771 1_555
H12 N4 1.015771 1_555
H13 N5 1.015771 1_555
H14 N6 1.015771 1_555
H15 N7 1.015771 1_555
H16 O48 0.981759 1_555
H17 O49 0.981759 1_555
H18 O50 0.981759 1_555
H19 O51 0.981759 1_555
H20 O49 0.981759 1_555
H21 O48 0.981759 1_555
H22 O51 0.981759 1_555
H23 O50 0.981759 1_555
C0 N5 1.332619 1_555
C0 N0 1.332619 1_555
C0 S0 1.734164 1_555
C1 N4 1.332619 1_555
C1 N1 1.332619 1_555
C1 S1 1.734164 1_555
C2 N7 1.332619 1_555
C2 N2 1.332619 1_555
C2 S2 1.734164 1_555
C3 N3 1.332619 1_555
C3 N6 1.332619 1_555
C3 S3 1.734164 1_555
O0 Re0 1.762704 1_565
O0 Pb0 2.643290 1_565
O1 Re1 1.762704 1_555
O1 Pb1 2.643290 1_556
O2 Re2 1.762704 1_545
O2 Pb0 2.643290 1_655
O3 Re3 1.762704 1_555
O3 Pb1 2.643290 1_556
O4 Re4 1.762704 1_655
O4 Pb0 2.643290 1_666
O5 Re5 1.762704 1_555
O5 Pb1 2.643290 1_555
O6 Re6 1.762704 1_455
O6 Pb0 2.643290 1_556
O7 Re7 1.762704 1_555
O7 Pb1 2.643290 1_555
O8 Re0 1.756961 1_565
O8 Pb0 2.652750 1_566
O9 Re1 1.756961 1_555
O9 Pb1 2.652750 1_555
O10 Re2 1.756961 1_545
O10 Pb0 2.652750 1_656
O11 Re3 1.756961 1_555
O11 Pb1 2.652750 1_555
O12 Re4 1.756961 1_655
O12 Pb0 2.652750 1_665
O13 Re5 1.756961 1_555
O13 Pb1 2.652750 1_556
O14 Re6 1.756961 1_455
O14 Pb0 2.652750 1_555
O15 Re7 1.756961 1_555
O15 Pb1 2.652750 1_556
O16 Re0 1.752442 1_565
O16 Pb2 2.578332 1_555
O17 Re1 1.752442 1_555
O17 Pb3 2.578332 1_555
O18 Re2 1.752442 1_545
O18 Pb4 2.578332 1_555
O19 Re3 1.752442 1_555
O19 Pb5 2.578332 1_555
O20 Re4 1.752442 1_655
O20 Pb3 2.578332 1_555
O21 Re5 1.752442 1_555
O21 Pb2 2.578332 1_555
O22 Re6 1.752442 1_455
O22 Pb5 2.578332 1_555
O23 Re7 1.752442 1_555
O23 Pb4 2.578332 1_555
O24 Re0 1.748423 1_555
O25 Re1 1.748423 1_555
O26 Re2 1.748423 1_555
O27 Re3 1.748423 1_555
O28 Re4 1.748423 1_555
O29 Re5 1.748423 1_555
O30 Re6 1.748423 1_555
O31 Re7 1.748423 1_555
O32 Re8 1.761361 1_555
O33 Re9 1.761361 1_555
O34 Re10 1.761361 1_555
O35 Re11 1.761361 1_555
O36 Re8 1.766524 1_554
O37 Re9 1.766524 1_556
O38 Re10 1.766524 1_554
O39 Re11 1.766524 1_556
O40 Re11 1.750985 1_555
O41 Re10 1.750985 1_555
O42 Re9 1.750985 1_555
O43 Re8 1.750985 1_555
O44 Re8 1.750985 1_555
O45 Re9 1.750985 1_555
O46 Re10 1.750985 1_555
O47 Re11 1.750985 1_555
O48 Pb2 2.511972 1_555
O49 Pb3 2.511972 1_555
O50 Pb4 2.511972 1_555
O51 Pb5 2.511972 1_555
