# generated using pymatgen
data_Mg2FeO4
_symmetry_space_group_name_H-M   'P 1'
_cell_length_a   6.01056179
_cell_length_b   6.01056179
_cell_length_c   6.01056179
_cell_angle_alpha   60.00000000
_cell_angle_beta   60.00000000
_cell_angle_gamma   60.00000000
_symmetry_Int_Tables_number   1
_chemical_formula_structural   Mg2FeO4
_chemical_formula_sum   'Mg4 Fe2 O8'
_cell_volume   153.54306318
_cell_formula_units_Z   2
loop_
 _symmetry_equiv_pos_site_id
 _symmetry_equiv_pos_as_xyz
  1  'x, y, z'
loop_
 _atom_site_type_symbol
 _atom_site_label
 _atom_site_symmetry_multiplicity
 _atom_site_fract_x
 _atom_site_fract_y
 _atom_site_fract_z
 _atom_site_occupancy
  Mg  Mg0  1  0.12500000  0.62500000  0.62500000  1
  Mg  Mg1  1  0.62500000  0.62500000  0.62500000  1
  Mg  Mg2  1  0.62500000  0.62500000  0.12500000  1
  Mg  Mg3  1  0.62500000  0.12500000  0.62500000  1
  Fe  Fe0  1  0.25000000  0.25000000  0.25000000  1
  Fe  Fe1  1  0.00000000  0.00000000  0.00000000  1
  O  O0  1  0.37853200  0.86440300  0.37853200  1
  O  O1  1  0.37853200  0.37853200  0.86440300  1
  O  O2  1  0.87146800  0.38559700  0.87146800  1
  O  O3  1  0.87146800  0.87146800  0.38559700  1
  O  O4  1  0.87146800  0.87146800  0.87146800  1
  O  O5  1  0.38559700  0.87146800  0.87146800  1
  O  O6  1  0.86440300  0.37853200  0.37853200  1
  O  O7  1  0.37853200  0.37853200  0.37853200  1
loop_
_geom_bond_atom_site_label_1
_geom_bond_atom_site_label_2
_geom_bond_distance
_geom_bond_site_symmetry_2
Mg0 O2 2.095458 1_455
Mg0 O3 2.095458 1_455
Mg0 O1 2.095458 1_555
Mg0 O0 2.095458 1_555
Mg0 O4 2.095462 1_455
Mg0 O7 2.095462 1_555
Mg1 O3 2.095462 1_555
Mg1 O1 2.095462 1_555
Mg1 O0 2.095462 1_555
Mg1 O5 2.095462 1_555
Mg1 O2 2.095462 1_555
Mg1 O6 2.095462 1_555
Mg2 O2 2.095458 1_554
Mg2 O5 2.095458 1_554
Mg2 O0 2.095458 1_555
Mg2 O6 2.095458 1_555
Mg2 O4 2.095462 1_554
Mg2 O7 2.095462 1_555
Mg3 O3 2.095458 1_545
Mg3 O5 2.095458 1_545
Mg3 O1 2.095458 1_555
Mg3 O6 2.095458 1_555
Mg3 O7 2.095462 1_555
Mg3 O4 2.095462 1_545
Fe0 O7 1.892352 1_555
Fe0 O1 1.892357 1_554
Fe0 O0 1.892357 1_545
Fe0 O6 1.892357 1_455
Fe1 O4 1.892352 1_444
Fe1 O2 1.892357 1_454
Fe1 O3 1.892357 1_445
Fe1 O5 1.892357 1_544
