# generated using pymatgen
data_BaV8O16
_symmetry_space_group_name_H-M   'P 1'
_cell_length_a   5.78019300
_cell_length_b   7.39737300
_cell_length_c   7.40060922
_cell_angle_alpha   87.80878410
_cell_angle_beta   78.72888541
_cell_angle_gamma   78.74644531
_symmetry_Int_Tables_number   1
_chemical_formula_structural   BaV8O16
_chemical_formula_sum   'Ba1 V8 O16'
_cell_volume   304.36729201
_cell_formula_units_Z   1
loop_
 _symmetry_equiv_pos_site_id
 _symmetry_equiv_pos_as_xyz
  1  'x, y, z'
loop_
 _atom_site_type_symbol
 _atom_site_label
 _atom_site_symmetry_multiplicity
 _atom_site_fract_x
 _atom_site_fract_y
 _atom_site_fract_z
 _atom_site_occupancy
  Ba  Ba0  1  0.21231800  0.00008100  0.00055500  1
  V  V0  1  0.08128500  0.18513200  0.48172500  1
  V  V1  1  0.58395200  0.18195300  0.47431000  1
  V  V2  1  0.32287700  0.51728200  0.18499200  1
  V  V3  1  0.82048500  0.52673000  0.18183400  1
  V  V4  1  0.17506600  0.48185000  0.81523500  1
  V  V5  1  0.67396300  0.47400700  0.81780600  1
  V  V6  1  0.41541100  0.81553200  0.51684100  1
  V  V7  1  0.91115000  0.81743800  0.52711200  1
  O  O0  1  0.39504400  0.04465100  0.35321200  1
  O  O1  1  0.90126200  0.04361000  0.35490600  1
  O  O2  1  0.07959200  0.37439500  0.29378500  1
  O  O3  1  0.58118900  0.37762100  0.29621300  1
  O  O4  1  0.07757200  0.64728800  0.04408700  1
  O  O5  1  0.57246500  0.64459400  0.04396500  1
  O  O6  1  0.26919300  0.29449400  0.62546600  1
  O  O7  1  0.76729600  0.29519200  0.62273200  1
  O  O8  1  0.22641400  0.70611000  0.37460800  1
  O  O9  1  0.72985600  0.70419700  0.37700600  1
  O  O10  1  0.41737800  0.35321900  0.95612800  1
  O  O11  1  0.92322000  0.35472200  0.95585300  1
  O  O12  1  0.41614300  0.62589500  0.70520500  1
  O  O13  1  0.91559400  0.62218500  0.70478200  1
  O  O14  1  0.59444700  0.95598400  0.64428500  1
  O  O15  1  0.09940500  0.95583800  0.64735700  1
loop_
_geom_bond_atom_site_label_1
_geom_bond_atom_site_label_2
_geom_bond_distance
_geom_bond_site_symmetry_2
Ba0 O4 2.855191 1_545
Ba0 O15 2.860263 1_544
Ba0 O1 2.865119 1_455
Ba0 O11 2.867547 1_454
Ba0 O0 3.052040 1_555
Ba0 O10 3.054106 1_554
Ba0 O5 3.067922 1_545
Ba0 O14 3.073256 1_544
O0 V1 1.977894 1_555
O0 V0 1.984766 1_555
O0 V6 2.042985 1_545
O1 V1 1.973610 1_555
O1 V0 1.985369 1_655
O1 V7 2.062700 1_545
O2 V0 1.935412 1_555
O2 V2 1.953314 1_555
O2 V3 1.988539 1_455
O3 V1 1.919849 1_555
O3 V2 1.946148 1_555
O3 V3 1.978063 1_555
O4 V3 1.974418 1_455
O4 V2 1.997952 1_555
O4 V4 2.049375 1_554
O5 V3 1.967828 1_555
O5 V2 1.980923 1_555
O5 V5 2.055871 1_554
O6 V4 1.935214 1_555
O6 V0 1.956067 1_555
O6 V1 1.984693 1_555
O7 V5 1.920408 1_555
O7 V0 1.947728 1_655
O7 V1 1.975647 1_555
O8 V2 1.941973 1_555
O8 V6 1.953557 1_555
O8 V7 1.988494 1_455
O9 V3 1.914397 1_555
O9 V6 1.948950 1_555
O9 V7 1.975529 1_555
O10 V5 1.974761 1_555
O10 V4 1.982215 1_555
O10 V2 2.043723 1_556
O11 V5 1.976960 1_555
O11 V4 1.988406 1_655
O11 V3 2.061108 1_556
O12 V6 1.939489 1_555
O12 V4 1.951887 1_555
O12 V5 1.984438 1_555
O13 V7 1.915516 1_555
O13 V4 1.949847 1_655
O13 V5 1.980551 1_555
O14 V7 1.966878 1_555
O14 V6 1.978912 1_555
O14 V1 2.051748 1_565
O15 V7 1.976647 1_455
O15 V6 1.998406 1_555
O15 V0 2.052404 1_565
