# generated using pymatgen
data_VO2
_symmetry_space_group_name_H-M   'P 1'
_cell_length_a   7.74858300
_cell_length_b   8.57163400
_cell_length_c   8.65068300
_cell_angle_alpha   90.00000000
_cell_angle_beta   90.00000000
_cell_angle_gamma   90.00000000
_symmetry_Int_Tables_number   1
_chemical_formula_structural   VO2
_chemical_formula_sum   'V16 O32'
_cell_volume   574.56121483
_cell_formula_units_Z   16
loop_
 _symmetry_equiv_pos_site_id
 _symmetry_equiv_pos_as_xyz
  1  'x, y, z'
loop_
 _atom_site_type_symbol
 _atom_site_label
 _atom_site_symmetry_multiplicity
 _atom_site_fract_x
 _atom_site_fract_y
 _atom_site_fract_z
 _atom_site_occupancy
  V  V0  1  0.75000000  0.51257100  0.04997200  1
  V  V1  1  0.99843000  0.29875300  0.24319700  1
  V  V2  1  0.49843000  0.70124700  0.24319700  1
  V  V3  1  0.50000000  0.00000000  0.94303300  1
  V  V4  1  0.00157000  0.70124700  0.24319700  1
  V  V5  1  0.25000000  0.48742900  0.04997200  1
  V  V6  1  0.00000000  0.00000000  0.94303300  1
  V  V7  1  0.50157000  0.29875300  0.24319700  1
  V  V8  1  0.75000000  0.80083000  0.74071800  1
  V  V9  1  0.25000000  0.78693400  0.75308500  1
  V  V10  1  0.75000000  0.50270400  0.44287000  1
  V  V11  1  0.00000000  0.00000000  0.54061700  1
  V  V12  1  0.25000000  0.19917000  0.74071800  1
  V  V13  1  0.50000000  0.00000000  0.54061700  1
  V  V14  1  0.75000000  0.21306600  0.75308500  1
  V  V15  1  0.25000000  0.49729600  0.44287000  1
  O  O0  1  0.50000000  0.50000000  0.40025200  1
  O  O1  1  0.50617700  0.15132000  0.74774000  1
  O  O2  1  0.75000000  0.99620900  0.59622400  1
  O  O3  1  0.99382300  0.15132000  0.74774000  1
  O  O4  1  0.25000000  0.00379100  0.59622400  1
  O  O5  1  0.50000000  0.50000000  0.10191500  1
  O  O6  1  0.25000000  0.00563900  0.89381800  1
  O  O7  1  0.75000000  0.65225100  0.24738700  1
  O  O8  1  0.00617700  0.84868000  0.74774000  1
  O  O9  1  0.25000000  0.34774900  0.24738700  1
  O  O10  1  0.75000000  0.35104100  0.25099800  1
  O  O11  1  0.00000000  0.50000000  0.40025200  1
  O  O12  1  0.00000000  0.50000000  0.10191500  1
  O  O13  1  0.49382300  0.84868000  0.74774000  1
  O  O14  1  0.25000000  0.64895900  0.25099800  1
  O  O15  1  0.75000000  0.99436100  0.89381800  1
  O  O16  1  0.75000000  0.66036000  0.59830800  1
  O  O17  1  0.25000000  0.34452400  0.91361800  1
  O  O18  1  0.75000000  0.33444500  0.91038500  1
  O  O19  1  0.99938400  0.15565700  0.41793200  1
  O  O20  1  0.25000000  0.33964000  0.59830800  1
  O  O21  1  0.50114000  0.16113800  0.09983100  1
  O  O22  1  0.00114000  0.83886200  0.09983100  1
  O  O23  1  0.49886000  0.83886200  0.09983100  1
  O  O24  1  0.25000000  0.66555500  0.91038500  1
  O  O25  1  0.00061600  0.84434300  0.41793200  1
  O  O26  1  0.75000000  0.33416700  0.59993700  1
  O  O27  1  0.49938400  0.84434300  0.41793200  1
  O  O28  1  0.50061600  0.15565700  0.41793200  1
  O  O29  1  0.99886000  0.16113800  0.09983100  1
  O  O30  1  0.75000000  0.65547600  0.91361800  1
  O  O31  1  0.25000000  0.66583300  0.59993700  1
loop_
_geom_bond_atom_site_label_1
_geom_bond_atom_site_label_2
_geom_bond_distance
_geom_bond_site_symmetry_2
O0 V10 1.972053 1_555
O0 V15 1.972053 1_555
O0 V2 2.195839 1_555
O0 V7 2.195839 1_555
O1 V14 1.962562 1_555
O1 V12 2.027850 1_555
O1 V3 2.130443 1_555
O1 V13 2.212474 1_555
O2 V11 1.996243 1_665
O2 V13 1.996243 1_565
O2 V8 2.089763 1_555
O2 V14 2.301420 1_565
O3 V14 1.962562 1_555
O3 V12 2.027850 1_655
O3 V6 2.130443 1_655
O3 V11 2.212474 1_655
O4 V11 1.996243 1_555
O4 V13 1.996243 1_555
O4 V12 2.089763 1_555
O4 V9 2.301420 1_545
O5 V5 1.991495 1_555
O5 V0 1.991495 1_555
O5 V2 2.114135 1_555
O5 V7 2.114135 1_555
O6 V6 1.983968 1_555
O6 V3 1.983968 1_555
O6 V12 2.122725 1_555
O6 V9 2.235285 1_545
O7 V2 1.994369 1_555
O7 V4 1.994369 1_655
O7 V0 2.085662 1_555
O7 V10 2.121994 1_555
O8 V9 1.962562 1_555
O8 V8 2.027850 1_455
O8 V6 2.130443 1_565
O8 V11 2.212474 1_565
O9 V1 1.994369 1_455
O9 V7 1.994369 1_555
O9 V5 2.085662 1_555
O9 V15 2.121994 1_555
O10 V7 1.977620 1_555
O10 V1 1.977620 1_555
O10 V10 2.108320 1_555
O10 V0 2.222884 1_555
O11 V10 1.972053 1_455
O11 V15 1.972053 1_555
O11 V4 2.195839 1_555
O11 V1 2.195839 1_455
O12 V5 1.991495 1_555
O12 V0 1.991495 1_455
O12 V4 2.114135 1_555
O12 V1 2.114135 1_455
O13 V9 1.962562 1_555
O13 V8 2.027850 1_555
O13 V3 2.130443 1_565
O13 V13 2.212474 1_565
O14 V2 1.977620 1_555
O14 V4 1.977620 1_555
O14 V15 2.108320 1_555
O14 V5 2.222884 1_555
O15 V6 1.983968 1_665
O15 V3 1.983968 1_565
O15 V8 2.122725 1_555
O15 V14 2.235285 1_565
O16 V8 1.722626 1_555
O16 V10 1.906376 1_555
O17 V5 1.700530 1_556
O17 V12 1.946650 1_555
O18 V14 1.712925 1_555
O18 V0 1.946619 1_556
O19 V11 1.704870 1_655
O19 V1 1.946634 1_555
O20 V12 1.722626 1_555
O20 V15 1.906376 1_555
O21 V7 1.711597 1_555
O21 V3 1.935893 1_554
O22 V4 1.711597 1_555
O22 V6 1.935893 1_564
O23 V2 1.711597 1_555
O23 V3 1.935893 1_564
O24 V9 1.712925 1_555
O24 V5 1.946619 1_556
O25 V11 1.704870 1_565
O25 V4 1.946634 1_555
O26 V14 1.683063 1_555
O26 V10 1.983215 1_555
O27 V13 1.704870 1_565
O27 V2 1.946634 1_555
O28 V13 1.704870 1_555
O28 V7 1.946634 1_555
O29 V1 1.711597 1_555
O29 V6 1.935893 1_654
O30 V0 1.700530 1_556
O30 V8 1.946650 1_555
O31 V9 1.683063 1_555
O31 V15 1.983215 1_555
