# generated using pymatgen
data_LiMn2OF3
_symmetry_space_group_name_H-M   'P 1'
_cell_length_a   6.25883401
_cell_length_b   8.20292106
_cell_length_c   8.19800803
_cell_angle_alpha   99.88233845
_cell_angle_beta   67.55618954
_cell_angle_gamma   112.43353198
_symmetry_Int_Tables_number   1
_chemical_formula_structural   LiMn2OF3
_chemical_formula_sum   'Li4 Mn8 O4 F12'
_cell_volume   359.40598382
_cell_formula_units_Z   4
loop_
 _symmetry_equiv_pos_site_id
 _symmetry_equiv_pos_as_xyz
  1  'x, y, z'
loop_
 _atom_site_type_symbol
 _atom_site_label
 _atom_site_symmetry_multiplicity
 _atom_site_fract_x
 _atom_site_fract_y
 _atom_site_fract_z
 _atom_site_occupancy
  Li  Li0  1  0.33324000  0.34429300  0.67770800  1
  Li  Li1  1  0.33285300  0.84424400  0.17786600  1
  Li  Li2  1  0.66656600  0.65579000  0.32212200  1
  Li  Li3  1  0.66669500  0.15563300  0.82228400  1
  Mn  Mn0  1  0.00178800  0.00113200  0.49998000  1
  Mn  Mn1  1  0.50087400  0.49913000  0.99977000  1
  Mn  Mn2  1  0.49893800  0.74981900  0.75014500  1
  Mn  Mn3  1  0.99939900  0.00010500  0.99995900  1
  Mn  Mn4  1  0.99945400  0.49991500  0.50009600  1
  Mn  Mn5  1  0.00178400  0.50121700  0.00028400  1
  Mn  Mn6  1  0.50047700  0.99871400  0.50010100  1
  Mn  Mn7  1  0.49888300  0.25001000  0.25000400  1
  O  O0  1  0.33429700  0.66696100  0.00036000  1
  O  O1  1  0.33448400  0.16680200  0.50033800  1
  O  O2  1  0.66798400  0.33325900  0.99962800  1
  O  O3  1  0.66771400  0.83302200  0.49973100  1
  F  F0  1  0.17319000  0.52062500  0.69306600  1
  F  F1  1  0.17232400  0.02040900  0.19355100  1
  F  F2  1  0.65362100  0.52215100  0.69499600  1
  F  F3  1  0.65260500  0.02174900  0.19504600  1
  F  F4  1  0.82640900  0.72034700  0.06613500  1
  F  F5  1  0.82727800  0.22031200  0.56645000  1
  F  F6  1  0.17316700  0.27971900  0.93343300  1
  F  F7  1  0.17207200  0.77966200  0.43383800  1
  F  F8  1  0.82597000  0.47813200  0.30497600  1
  F  F9  1  0.82642000  0.97778700  0.80487100  1
  F  F10  1  0.34580900  0.47971800  0.30630700  1
  F  F11  1  0.34570400  0.97934200  0.80695500  1
loop_
_geom_bond_atom_site_label_1
_geom_bond_atom_site_label_2
_geom_bond_distance
_geom_bond_site_symmetry_2
Li0 O1 1.872835 1_555
Li1 O0 1.872455 1_555
Li2 O3 1.872729 1_555
Li3 O2 1.873406 1_555
Mn0 O1 2.006564 1_555
Mn0 O3 2.018712 1_445
Mn1 O2 2.007463 1_555
Mn1 O0 2.017831 1_556
Mn2 O0 2.015329 1_556
Mn2 O3 2.017653 1_555
Mn5 O0 2.005193 1_555
Mn5 O2 2.017957 1_454
Mn6 O3 2.006209 1_555
Mn6 O1 2.017753 1_565
Mn7 O1 2.017110 1_555
Mn7 O2 2.017512 1_554
F0 Li0 2.014581 1_555
F0 Mn4 2.189550 1_455
F0 Mn2 2.326219 1_555
F0 Mn5 2.337451 1_556
F1 Li1 2.014924 1_545
F1 Mn3 2.191156 1_454
F1 Mn7 2.328927 1_555
F1 Mn0 2.331339 1_555
F2 Li0 2.020572 1_555
F2 Mn4 2.198159 1_555
F2 Mn2 2.320626 1_555
F2 Mn1 2.322205 1_555
F3 Li1 2.016398 1_545
F3 Mn3 2.201502 1_554
F3 Mn7 2.321412 1_555
F3 Mn6 2.324487 1_545
F4 Li2 2.014792 1_555
F4 Mn3 2.194389 1_564
F4 Mn1 2.329346 1_554
F4 Mn5 2.334010 1_655
F5 Li3 2.013919 1_555
F5 Mn4 2.193600 1_555
F5 Mn0 2.330329 1_655
F5 Mn6 2.335840 1_545
F6 Li0 2.012900 1_555
F6 Mn3 2.194016 1_455
F6 Mn1 2.332423 1_555
F6 Mn5 2.334310 1_556
F7 Li1 2.014734 1_555
F7 Mn4 2.194470 1_455
F7 Mn0 2.329951 1_565
F7 Mn6 2.333943 1_555
F8 Li2 2.017717 1_555
F8 Mn4 2.202182 1_555
F8 Mn7 2.320969 1_555
F8 Mn5 2.321779 1_655
F9 Li3 2.020066 1_565
F9 Mn3 2.198598 1_565
F9 Mn2 2.321232 1_555
F9 Mn0 2.323358 1_665
F10 Li2 2.013608 1_555
F10 Mn4 2.191980 1_455
F10 Mn7 2.328746 1_555
F10 Mn1 2.332287 1_554
F11 Li3 2.014010 1_565
F11 Mn3 2.191138 1_465
F11 Mn2 2.327574 1_555
F11 Mn6 2.334714 1_555
