# generated using pymatgen
data_Li7V5O12
_symmetry_space_group_name_H-M   'P 1'
_cell_length_a   5.08510099
_cell_length_b   5.08510099
_cell_length_c   9.65559855
_cell_angle_alpha   85.81333886
_cell_angle_beta   85.81333886
_cell_angle_gamma   118.02764505
_symmetry_Int_Tables_number   1
_chemical_formula_structural   Li7V5O12
_chemical_formula_sum   'Li7 V5 O12'
_cell_volume   218.16783735
_cell_formula_units_Z   1
loop_
 _symmetry_equiv_pos_site_id
 _symmetry_equiv_pos_as_xyz
  1  'x, y, z'
loop_
 _atom_site_type_symbol
 _atom_site_label
 _atom_site_symmetry_multiplicity
 _atom_site_fract_x
 _atom_site_fract_y
 _atom_site_fract_z
 _atom_site_occupancy
  Li  Li0  1  0.75726100  0.24273900  0.00000000  1
  Li  Li1  1  0.84654000  0.66658800  0.75508000  1
  Li  Li2  1  0.67687500  0.85427300  0.24424600  1
  Li  Li3  1  0.33341200  0.15346000  0.24492000  1
  Li  Li4  1  0.14572700  0.32312500  0.75575400  1
  Li  Li5  1  0.24724800  0.75275200  0.50000000  1
  Li  Li6  1  0.08060400  0.91939600  0.00000000  1
  V  V0  1  0.91748400  0.08251600  0.50000000  1
  V  V1  1  0.99736500  0.51082600  0.23861600  1
  V  V2  1  0.48917400  0.00263500  0.76138400  1
  V  V3  1  0.57573800  0.42426200  0.50000000  1
  V  V4  1  0.42461900  0.57538100  0.00000000  1
  O  O0  1  0.06583400  0.24299300  0.12148100  1
  O  O1  1  0.75700700  0.93416600  0.87851900  1
  O  O2  1  0.84068500  0.34744800  0.62839500  1
  O  O3  1  0.65255200  0.15931500  0.37160500  1
  O  O4  1  0.72394500  0.53690100  0.12948000  1
  O  O5  1  0.46309900  0.27605500  0.87052000  1
  O  O6  1  0.55957500  0.74004400  0.62079800  1
  O  O7  1  0.25995600  0.44042500  0.37920200  1
  O  O8  1  0.35280200  0.83328900  0.13327700  1
  O  O9  1  0.16671100  0.64719800  0.86672300  1
  O  O10  1  0.22693800  0.06115200  0.62216700  1
  O  O11  1  0.93884800  0.77306200  0.37783300  1
loop_
_geom_bond_atom_site_label_1
_geom_bond_atom_site_label_2
_geom_bond_distance
_geom_bond_site_symmetry_2
Li0 O0 2.026098 1_655
Li0 O1 2.026098 1_544
Li0 O5 2.075948 1_554
Li0 O4 2.075948 1_555
Li0 O8 2.327894 1_545
Li0 O9 2.327894 1_654
Li1 O9 2.052824 1_655
Li1 O1 2.054022 1_555
Li1 O2 2.092984 1_555
Li1 O6 2.160515 1_555
Li1 O5 2.169905 1_555
Li1 O10 2.242434 1_665
Li2 O8 1.996099 1_555
Li2 O11 2.073419 1_555
Li2 O3 2.090519 1_565
Li2 O4 2.115480 1_555
Li2 O0 2.205833 1_665
Li2 O7 2.371646 1_555
Li3 O8 2.052824 1_545
Li3 O0 2.054022 1_555
Li3 O3 2.092984 1_555
Li3 O7 2.160515 1_555
Li3 O4 2.169905 1_555
Li3 O11 2.242434 1_445
Li4 O9 1.996099 1_555
Li4 O10 2.073419 1_555
Li4 O2 2.090519 1_455
Li4 O5 2.115480 1_555
Li4 O1 2.205833 1_445
Li4 O6 2.371646 1_555
Li5 O6 2.059846 1_555
Li5 O7 2.059846 1_555
Li5 O10 2.065439 1_565
Li5 O11 2.065439 1_455
Li5 O2 2.303727 1_455
Li5 O3 2.303727 1_565
Li6 O0 2.115269 1_565
Li6 O1 2.115269 1_454
Li6 O8 2.123918 1_555
Li6 O9 2.123918 1_554
Li6 O5 2.152700 1_564
Li6 O4 2.152700 1_455
O0 V1 1.966824 1_455
O0 V4 2.015275 1_555
O1 V2 1.966824 1_565
O1 V4 2.015275 1_556
O2 V0 2.042556 1_555
O2 V3 2.042651 1_555
O2 V2 2.075816 1_555
O3 V0 2.042556 1_555
O3 V3 2.042651 1_555
O3 V1 2.075816 1_555
O4 V1 1.851466 1_555
O4 V4 2.107164 1_555
O5 V2 1.851466 1_555
O5 V4 2.107164 1_556
O6 V0 2.029882 1_565
O6 V3 2.080683 1_555
O6 V2 2.096854 1_565
O7 V0 2.029882 1_455
O7 V3 2.080683 1_555
O7 V1 2.096854 1_455
O8 V1 1.921684 1_455
O8 V4 2.034042 1_555
O9 V2 1.921684 1_565
O9 V4 2.034042 1_556
O10 V3 2.060441 1_555
O10 V2 2.061536 1_555
O10 V0 2.071825 1_455
O11 V3 2.060441 1_555
O11 V1 2.061536 1_555
O11 V0 2.071825 1_565
