# generated using pymatgen
data_RbTaO3
_symmetry_space_group_name_H-M   'P 1'
_cell_length_a   5.10774272
_cell_length_b   8.46252930
_cell_length_c   8.99465636
_cell_angle_alpha   114.26732810
_cell_angle_beta   93.68768393
_cell_angle_gamma   94.53177721
_symmetry_Int_Tables_number   1
_chemical_formula_structural   RbTaO3
_chemical_formula_sum   'Rb4 Ta4 O12'
_cell_volume   351.31680591
_cell_formula_units_Z   4
loop_
 _symmetry_equiv_pos_site_id
 _symmetry_equiv_pos_as_xyz
  1  'x, y, z'
loop_
 _atom_site_type_symbol
 _atom_site_label
 _atom_site_symmetry_multiplicity
 _atom_site_fract_x
 _atom_site_fract_y
 _atom_site_fract_z
 _atom_site_occupancy
  Rb  Rb0  1  0.50000000  0.50000000  -0.00000000  1
  Rb  Rb1  1  0.91124168  0.20247623  0.59629044  1
  Rb  Rb2  1  0.50000000  0.50000000  0.50000000  1
  Rb  Rb3  1  0.08875832  0.79752377  0.40370956  1
  Ta  Ta0  1  0.52532214  0.01183347  0.81426630  1
  Ta  Ta1  1  0.99792162  0.78469749  0.85462720  1
  Ta  Ta2  1  0.00207838  0.21530251  0.14537280  1
  Ta  Ta3  1  0.47467786  0.98816653  0.18573370  1
  O  O0  1  0.26267616  0.07543188  0.99007218  1
  O  O1  1  0.78083865  0.21399958  0.95805156  1
  O  O2  1  0.40221749  0.10766974  0.68249325  1
  O  O3  1  0.85199235  0.56076093  0.76923752  1
  O  O4  1  0.28942111  0.78219675  0.72887001  1
  O  O5  1  0.80068031  0.87656937  0.70722496  1
  O  O6  1  0.19931969  0.12343063  0.29277504  1
  O  O7  1  0.71057889  0.21780325  0.27112999  1
  O  O8  1  0.14800765  0.43923907  0.23076248  1
  O  O9  1  0.59778251  0.89233026  0.31750675  1
  O  O10  1  0.21916135  0.78600042  0.04194844  1
  O  O11  1  0.73732384  0.92456812  0.00992782  1
loop_
_geom_bond_atom_site_label_1
_geom_bond_atom_site_label_2
_geom_bond_distance
_geom_bond_site_symmetry_2
O0 Ta2 2.062304 1_556
O0 Ta0 2.068169 1_555
O0 Ta3 2.400987 1_546
O0 Ta1 2.482885 1_445
O1 Ta2 1.963109 1_656
O1 Ta0 1.978430 1_555
O1 Rb0 2.815210 1_556
O1 Rb1 3.327065 1_555
O2 Ta0 1.798002 1_555
O2 Rb1 2.848331 1_455
O2 Rb1 2.906153 1_555
O2 Rb3 3.024829 1_545
O2 Rb0 3.345008 1_556
O3 Ta1 1.800972 1_555
O3 Rb2 2.762553 1_555
O3 Rb1 2.834264 1_555
O3 Rb0 3.002708 1_556
O4 Ta1 1.923204 1_455
O4 Ta0 2.025399 1_565
O4 Rb2 2.783425 1_555
O4 Rb3 3.093291 1_555
O5 Ta0 1.933413 1_565
O5 Ta1 2.043652 1_555
O5 Rb3 3.039198 1_655
O5 Rb2 3.156585 1_555
O5 Rb1 3.318064 1_565
O6 Ta3 1.933413 1_545
O6 Ta2 2.043652 1_555
O6 Rb1 3.039198 1_455
O6 Rb2 3.156585 1_555
O6 Rb3 3.318064 1_545
O7 Ta2 1.923204 1_655
O7 Ta3 2.025399 1_545
O7 Rb2 2.783425 1_555
O7 Rb1 3.093291 1_555
O8 Ta2 1.800972 1_555
O8 Rb2 2.762553 1_555
O8 Rb3 2.834264 1_555
O8 Rb0 3.002708 1_555
O9 Ta3 1.798002 1_555
O9 Rb3 2.848331 1_655
O9 Rb3 2.906153 1_555
O9 Rb1 3.024829 1_565
O9 Rb0 3.345008 1_555
O10 Ta1 1.963109 1_454
O10 Ta3 1.978430 1_555
O10 Rb0 2.815210 1_555
O10 Rb3 3.327065 1_555
O11 Ta1 2.062304 1_554
O11 Ta3 2.068169 1_555
O11 Ta0 2.400987 1_564
O11 Ta2 2.482885 1_665
