# generated using pymatgen
data_Li(BiO2)3
_symmetry_space_group_name_H-M   'P 1'
_cell_length_a   6.72808738
_cell_length_b   6.72808738
_cell_length_c   6.72808759
_cell_angle_alpha   93.14724736
_cell_angle_beta   93.14724736
_cell_angle_gamma   93.14724132
_symmetry_Int_Tables_number   1
_chemical_formula_structural   Li(BiO2)3
_chemical_formula_sum   'Li2 Bi6 O12'
_cell_volume   303.13061811
_cell_formula_units_Z   2
loop_
 _symmetry_equiv_pos_site_id
 _symmetry_equiv_pos_as_xyz
  1  'x, y, z'
loop_
 _atom_site_type_symbol
 _atom_site_label
 _atom_site_symmetry_multiplicity
 _atom_site_fract_x
 _atom_site_fract_y
 _atom_site_fract_z
 _atom_site_occupancy
  Li  Li0  1  0.00000000  0.00000000  0.00000000  1
  Li  Li1  1  0.50000000  0.50000000  0.50000000  1
  Bi  Bi0  1  0.56590500  0.08382600  0.25763600  1
  Bi  Bi1  1  0.08382600  0.25763600  0.56590500  1
  Bi  Bi2  1  0.74236400  0.43409500  0.91617400  1
  Bi  Bi3  1  0.25763600  0.56590500  0.08382600  1
  Bi  Bi4  1  0.91617400  0.74236400  0.43409500  1
  Bi  Bi5  1  0.43409500  0.91617400  0.74236400  1
  O  O0  1  0.68015500  0.08877500  0.92185300  1
  O  O1  1  0.91122500  0.07814700  0.31984500  1
  O  O2  1  0.40519700  0.18877000  0.53013200  1
  O  O3  1  0.07814700  0.31984500  0.91122500  1
  O  O4  1  0.53013200  0.40519700  0.18877000  1
  O  O5  1  0.81123000  0.46986800  0.59480300  1
  O  O6  1  0.18877000  0.53013200  0.40519700  1
  O  O7  1  0.46986800  0.59480300  0.81123000  1
  O  O8  1  0.92185300  0.68015500  0.08877500  1
  O  O9  1  0.59480300  0.81123000  0.46986800  1
  O  O10  1  0.08877500  0.92185300  0.68015500  1
  O  O11  1  0.31984500  0.91122500  0.07814700  1
loop_
_geom_bond_atom_site_label_1
_geom_bond_atom_site_label_2
_geom_bond_distance
_geom_bond_site_symmetry_2
Li0 O0 2.305524 1_454
Li0 O11 2.305524 1_545
Li0 O10 2.305524 1_544
Li0 O1 2.305524 1_455
Li0 O8 2.305524 1_445
Li0 O3 2.305524 1_554
Li1 O6 2.178729 1_555
Li1 O5 2.178729 1_555
Li1 O4 2.178729 1_555
Li1 O7 2.178729 1_555
Li1 O2 2.178729 1_555
Li1 O9 2.178729 1_555
Bi0 O11 2.227782 1_545
Bi0 O4 2.258910 1_555
Bi0 O2 2.277781 1_555
Bi0 O1 2.340789 1_555
Bi0 O9 2.395144 1_545
Bi0 O0 2.427345 1_554
Bi1 O1 2.227782 1_455
Bi1 O2 2.258910 1_555
Bi1 O6 2.277781 1_555
Bi1 O3 2.340789 1_555
Bi1 O5 2.395144 1_455
Bi1 O10 2.427345 1_545
Bi2 O8 2.227782 1_556
Bi2 O5 2.258910 1_555
Bi2 O7 2.277781 1_555
Bi2 O0 2.340789 1_555
Bi2 O4 2.395145 1_556
Bi2 O3 2.427344 1_655
Bi3 O3 2.227782 1_554
Bi3 O6 2.258910 1_555
Bi3 O4 2.277781 1_555
Bi3 O11 2.340789 1_555
Bi3 O7 2.395145 1_554
Bi3 O8 2.427344 1_455
Bi4 O10 2.227782 1_655
Bi4 O9 2.258910 1_555
Bi4 O5 2.277781 1_555
Bi4 O8 2.340789 1_555
Bi4 O6 2.395144 1_655
Bi4 O1 2.427345 1_565
Bi5 O0 2.227782 1_565
Bi5 O7 2.258910 1_555
Bi5 O9 2.277781 1_555
Bi5 O10 2.340789 1_555
Bi5 O2 2.395144 1_565
Bi5 O11 2.427345 1_556
