# generated using pymatgen
data_LiVSO4F3
_symmetry_space_group_name_H-M   'P 1'
_cell_length_a   7.20745700
_cell_length_b   7.67992600
_cell_length_c   9.97817000
_cell_angle_alpha   90.00000000
_cell_angle_beta   90.00000000
_cell_angle_gamma   90.00000000
_symmetry_Int_Tables_number   1
_chemical_formula_structural   LiVSO4F3
_chemical_formula_sum   'Li4 V4 S4 O16 F12'
_cell_volume   552.31901385
_cell_formula_units_Z   4
loop_
 _symmetry_equiv_pos_site_id
 _symmetry_equiv_pos_as_xyz
  1  'x, y, z'
loop_
 _atom_site_type_symbol
 _atom_site_label
 _atom_site_symmetry_multiplicity
 _atom_site_fract_x
 _atom_site_fract_y
 _atom_site_fract_z
 _atom_site_occupancy
  Li  Li0  1  0.19083200  0.63869800  0.27731700  1
  Li  Li1  1  0.30916800  0.13869800  0.77731700  1
  Li  Li2  1  0.69083200  0.86130200  0.27731700  1
  Li  Li3  1  0.80916800  0.36130200  0.77731700  1
  V  V0  1  0.99503300  0.74787600  0.99055900  1
  V  V1  1  0.00496700  0.25212400  0.49055900  1
  V  V2  1  0.49503300  0.75212400  0.99055900  1
  V  V3  1  0.50496700  0.24787600  0.49055900  1
  S  S0  1  0.24161600  0.90981600  0.51157500  1
  S  S1  1  0.25838400  0.40981600  0.01157500  1
  S  S2  1  0.74161600  0.59018400  0.51157500  1
  S  S3  1  0.75838400  0.09018400  0.01157500  1
  O  O0  1  0.09726900  0.02898700  0.43994900  1
  O  O1  1  0.11399400  0.53537100  0.07267400  1
  O  O2  1  0.17589700  0.30597200  0.90424900  1
  O  O3  1  0.15517400  0.81788300  0.61941700  1
  O  O4  1  0.32410300  0.80597200  0.40424900  1
  O  O5  1  0.34482600  0.31788300  0.11941700  1
  O  O6  1  0.40273100  0.52898700  0.93994900  1
  O  O7  1  0.38600600  0.03537100  0.57267400  1
  O  O8  1  0.61399400  0.96462900  0.07267400  1
  O  O9  1  0.59726900  0.47101300  0.43994900  1
  O  O10  1  0.67589700  0.19402800  0.90424900  1
  O  O11  1  0.65517400  0.68211700  0.61941700  1
  O  O12  1  0.84482600  0.18211700  0.11941700  1
  O  O13  1  0.82410300  0.69402800  0.40424900  1
  O  O14  1  0.88600600  0.46462900  0.57267400  1
  O  O15  1  0.90273100  0.97101300  0.93994900  1
  F  F0  1  0.03860800  0.19859800  0.67053700  1
  F  F1  1  0.00354900  0.64416600  0.83143200  1
  F  F2  1  0.26079600  0.35357300  0.49126000  1
  F  F3  1  0.23920400  0.85357300  0.99126000  1
  F  F4  1  0.46139200  0.69859800  0.17053700  1
  F  F5  1  0.49645100  0.14416600  0.33143200  1
  F  F6  1  0.50354900  0.85583400  0.83143200  1
  F  F7  1  0.53860800  0.30140200  0.67053700  1
  F  F8  1  0.76079600  0.14642700  0.49126000  1
  F  F9  1  0.73920400  0.64642700  0.99126000  1
  F  F10  1  0.96139200  0.80140200  0.17053700  1
  F  F11  1  0.99645100  0.35583400  0.33143200  1
loop_
_geom_bond_atom_site_label_1
_geom_bond_atom_site_label_2
_geom_bond_distance
_geom_bond_site_symmetry_2
Li0 O4 2.043801 1_555
Li0 O1 2.259651 1_555
Li1 O2 2.043801 1_555
Li1 O7 2.259651 1_555
Li2 O13 2.043801 1_555
Li2 O8 2.259651 1_555
Li3 O10 2.043801 1_555
Li3 O14 2.259651 1_555
O0 S0 1.559104 1_545
O0 V1 1.906378 1_555
O1 S1 1.544179 1_555
O1 V0 2.017422 1_454
O2 S1 1.461625 1_556
O3 S0 1.429885 1_555
O4 S0 1.461625 1_555
O5 S1 1.429885 1_555
O6 S1 1.559104 1_556
O6 V2 1.906378 1_555
O7 S0 1.544179 1_545
O7 V3 2.017422 1_555
O8 S3 1.544179 1_565
O8 V2 2.017422 1_554
O9 S2 1.559104 1_555
O9 V3 1.906378 1_555
O10 S3 1.461625 1_556
O11 S2 1.429885 1_555
O12 S3 1.429885 1_555
O13 S2 1.461625 1_555
O14 S2 1.544179 1_555
O14 V1 2.017422 1_655
O15 S3 1.559104 1_566
O15 V0 1.906378 1_555
F0 V1 1.858186 1_555
F0 Li1 2.269260 1_555
F0 Li3 2.330507 1_455
F1 V0 1.777429 1_455
F2 V3 1.938055 1_555
F2 V1 2.001739 1_555
F3 V0 1.938055 1_455
F3 V2 2.001739 1_555
F4 V2 1.858186 1_554
F4 Li0 2.269260 1_555
F4 Li2 2.330507 1_555
F5 V3 1.777429 1_555
F6 V2 1.777429 1_555
F7 V3 1.858186 1_555
F7 Li3 2.269260 1_555
F7 Li1 2.330507 1_555
F8 V1 1.938055 1_655
F8 V3 2.001739 1_555
F9 V2 1.938055 1_555
F9 V0 2.001739 1_555
F10 V0 1.858186 1_554
F10 Li2 2.269260 1_555
F10 Li0 2.330507 1_655
F11 V1 1.777429 1_655
