# generated using pymatgen
data_Li4V3(FeO5)2
_symmetry_space_group_name_H-M   'P 1'
_cell_length_a   5.15370011
_cell_length_b   5.19940040
_cell_length_c   7.94211049
_cell_angle_alpha   108.98994218
_cell_angle_beta   101.14268850
_cell_angle_gamma   100.85950795
_symmetry_Int_Tables_number   1
_chemical_formula_structural   Li4V3(FeO5)2
_chemical_formula_sum   'Li4 V3 Fe2 O10'
_cell_volume   190.06163863
_cell_formula_units_Z   1
loop_
 _symmetry_equiv_pos_site_id
 _symmetry_equiv_pos_as_xyz
  1  'x, y, z'
loop_
 _atom_site_type_symbol
 _atom_site_label
 _atom_site_symmetry_multiplicity
 _atom_site_fract_x
 _atom_site_fract_y
 _atom_site_fract_z
 _atom_site_occupancy
  Li  Li0  1  0.22191600  0.93863200  0.42752600  1
  Li  Li1  1  0.49976900  0.48166700  0.50619100  1
  Li  Li2  1  0.61241500  0.72086900  0.22763400  1
  Li  Li3  1  0.79992800  0.09275400  0.59079400  1
  V  V0  1  0.99840300  0.49604500  0.99635600  1
  V  V1  1  0.30344900  0.10965500  0.10673600  1
  V  V2  1  0.68555300  0.88656000  0.88535400  1
  Fe  Fe0  1  0.09565800  0.69043200  0.68353200  1
  Fe  Fe1  1  0.89679800  0.30857800  0.31226000  1
  O  O0  1  0.02885900  0.08108000  0.85883400  1
  O  O1  1  0.33665300  0.72804400  0.94915800  1
  O  O2  1  0.12679700  0.31500500  0.53571700  1
  O  O3  1  0.23289200  0.48296400  0.22613300  1
  O  O4  1  0.47104300  0.87962400  0.67457500  1
  O  O5  1  0.54126300  0.10787000  0.33443100  1
  O  O6  1  0.78105000  0.52927000  0.76998500  1
  O  O7  1  0.87072200  0.69653400  0.45607600  1
  O  O8  1  0.67714100  0.27620700  0.05392900  1
  O  O9  1  0.93099100  0.89563800  0.12901600  1
loop_
_geom_bond_atom_site_label_1
_geom_bond_atom_site_label_2
_geom_bond_distance
_geom_bond_site_symmetry_2
Li0 O2 2.058665 1_565
Li0 O5 2.092301 1_565
Li0 O7 2.097075 1_455
Li0 O4 2.271325 1_555
Li0 O3 2.407054 1_555
Li0 O9 2.464466 1_455
Li1 O2 2.044388 1_555
Li1 O5 2.056161 1_555
Li1 O4 2.117259 1_555
Li1 O7 2.200028 1_555
Li1 O6 2.214847 1_555
Li1 O3 2.381159 1_555
Li2 O5 2.047009 1_565
Li2 O7 2.087887 1_555
Li2 O3 2.103733 1_555
Li2 O9 2.129059 1_555
Li2 O8 2.398426 1_555
Li2 O1 2.402403 1_554
Li3 O2 2.060288 1_655
Li3 O7 2.126389 1_545
Li3 O4 2.179847 1_545
Li3 O5 2.241292 1_555
Li3 O0 2.251183 1_655
Li3 O6 2.284868 1_555
Fe0 O7 1.962141 1_455
Fe0 O2 1.978312 1_555
Fe0 O6 2.023688 1_455
Fe0 O4 2.024133 1_555
Fe0 O1 2.158391 1_555
Fe0 O0 2.188782 1_565
Fe1 O2 1.920728 1_655
Fe1 O5 2.000304 1_555
Fe1 O7 2.013347 1_555
Fe1 O8 2.079680 1_555
Fe1 O3 2.135433 1_655
Fe1 O9 2.228675 1_545
O0 V2 1.950918 1_445
O0 V0 2.129061 1_455
O0 V1 2.134166 1_556
O1 V1 2.031512 1_566
O1 V2 2.057885 1_555
O1 V0 2.094982 1_455
O3 V1 2.000055 1_555
O3 V0 2.013636 1_454
O4 V2 1.804506 1_555
O5 V1 1.982683 1_555
O6 V2 1.985911 1_555
O6 V0 2.003395 1_555
O8 V0 2.043660 1_554
O8 V2 2.046719 1_544
O8 V1 2.134247 1_555
O9 V2 2.078256 1_554
O9 V1 2.099702 1_665
O9 V0 2.129842 1_554
