# generated using pymatgen
data_Li6Cr2O7
_symmetry_space_group_name_H-M   'P 1'
_cell_length_a   5.05893400
_cell_length_b   7.87024400
_cell_length_c   9.10372714
_cell_angle_alpha   64.13506980
_cell_angle_beta   90.00000000
_cell_angle_gamma   90.00000000
_symmetry_Int_Tables_number   1
_chemical_formula_structural   Li6Cr2O7
_chemical_formula_sum   'Li12 Cr4 O14'
_cell_volume   326.15533252
_cell_formula_units_Z   2
loop_
 _symmetry_equiv_pos_site_id
 _symmetry_equiv_pos_as_xyz
  1  'x, y, z'
loop_
 _atom_site_type_symbol
 _atom_site_label
 _atom_site_symmetry_multiplicity
 _atom_site_fract_x
 _atom_site_fract_y
 _atom_site_fract_z
 _atom_site_occupancy
  Li  Li0  1  0.20099600  0.33576200  0.88264000  1
  Li  Li1  1  0.80963300  0.58076400  0.85612100  1
  Li  Li2  1  0.80889000  0.07015400  0.83441800  1
  Li  Li3  1  0.80963300  0.41923600  0.64387900  1
  Li  Li4  1  0.20099600  0.66423800  0.61736000  1
  Li  Li5  1  0.80889000  0.92984600  0.66558200  1
  Li  Li6  1  0.19111000  0.07015400  0.33441800  1
  Li  Li7  1  0.79900400  0.33576200  0.38264000  1
  Li  Li8  1  0.19036700  0.58076400  0.35612100  1
  Li  Li9  1  0.19111000  0.92984600  0.16558200  1
  Li  Li10  1  0.19036700  0.41923600  0.14387900  1
  Li  Li11  1  0.79900400  0.66423800  0.11736000  1
  Cr  Cr0  1  0.31263000  0.78060200  0.90416600  1
  Cr  Cr1  1  0.31263000  0.21939800  0.59583400  1
  Cr  Cr2  1  0.68737000  0.78060200  0.40416600  1
  Cr  Cr3  1  0.68737000  0.21939800  0.09583400  1
  O  O0  1  0.80334200  0.28032600  0.89375400  1
  O  O1  1  0.21426000  0.59505500  0.85712100  1
  O  O2  1  0.66560000  0.81093000  0.89369600  1
  O  O3  1  0.21426000  0.40494500  0.64287900  1
  O  O4  1  0.15200600  0.00000000  0.75000000  1
  O  O5  1  0.80334200  0.71967400  0.60624600  1
  O  O6  1  0.66560000  0.18907000  0.60630400  1
  O  O7  1  0.33440000  0.81093000  0.39369600  1
  O  O8  1  0.19665800  0.28032600  0.39375400  1
  O  O9  1  0.84799400  0.00000000  0.25000000  1
  O  O10  1  0.78574000  0.59505500  0.35712100  1
  O  O11  1  0.33440000  0.18907000  0.10630400  1
  O  O12  1  0.78574000  0.40494500  0.14287900  1
  O  O13  1  0.19665800  0.71967400  0.10624600  1
loop_
_geom_bond_atom_site_label_1
_geom_bond_atom_site_label_2
_geom_bond_distance
_geom_bond_site_symmetry_2
Li0 O1 1.951738 1_555
Li0 O11 1.970610 1_556
Li0 O3 2.007061 1_555
Li0 O0 2.051593 1_455
Li1 O5 2.049647 1_555
Li1 O1 2.050307 1_655
Li1 O2 2.114236 1_555
Li1 O0 2.236636 1_555
Li1 O12 2.364873 1_556
Li2 O0 1.951470 1_555
Li2 O6 2.004555 1_555
Li2 O2 2.004578 1_545
Li2 O4 2.068500 1_655
Li3 O0 2.049647 1_555
Li3 O3 2.050307 1_655
Li3 O6 2.114236 1_555
Li3 O5 2.236636 1_555
Li3 O10 2.364873 1_555
Li4 O3 1.951738 1_555
Li4 O7 1.970610 1_555
Li4 O1 2.007061 1_555
Li4 O5 2.051593 1_455
Li5 O5 1.951470 1_555
Li5 O2 2.004555 1_555
Li5 O6 2.004578 1_565
Li5 O4 2.068500 1_665
Li6 O8 1.951470 1_555
Li6 O11 2.004555 1_555
Li6 O7 2.004578 1_545
Li6 O9 2.068500 1_455
Li7 O10 1.951738 1_555
Li7 O6 1.970610 1_555
Li7 O12 2.007061 1_555
Li7 O8 2.051593 1_655
Li8 O13 2.049647 1_555
Li8 O10 2.050307 1_455
Li8 O7 2.114236 1_555
Li8 O8 2.236636 1_555
Li8 O3 2.364873 1_555
Li9 O13 1.951470 1_555
Li9 O7 2.004555 1_555
Li9 O11 2.004578 1_565
Li9 O9 2.068500 1_465
Li10 O8 2.049647 1_555
Li10 O12 2.050307 1_455
Li10 O11 2.114236 1_555
Li10 O13 2.236636 1_555
Li10 O1 2.364873 1_554
Li11 O12 1.951738 1_555
Li11 O2 1.970610 1_554
Li11 O10 2.007061 1_555
Li11 O13 2.051593 1_655
Cr0 O1 1.763304 1_555
Cr0 O13 1.785746 1_556
Cr0 O2 1.798544 1_555
Cr0 O4 1.870074 1_565
Cr1 O3 1.763304 1_555
Cr1 O8 1.785746 1_555
Cr1 O6 1.798544 1_555
Cr1 O4 1.870074 1_555
Cr2 O10 1.763304 1_555
Cr2 O5 1.785746 1_555
Cr2 O7 1.798544 1_555
Cr2 O9 1.870074 1_565
Cr3 O12 1.763304 1_555
Cr3 O0 1.785746 1_554
Cr3 O11 1.798544 1_555
Cr3 O9 1.870074 1_555
