# generated using pymatgen
data_Ti3Cu2Ni(PO4)6
_symmetry_space_group_name_H-M   'P 1'
_cell_length_a   8.56691952
_cell_length_b   8.56691952
_cell_length_c   8.56691977
_cell_angle_alpha   60.42681117
_cell_angle_beta   60.42681117
_cell_angle_gamma   60.42681664
_symmetry_Int_Tables_number   1
_chemical_formula_structural   Ti3Cu2Ni(PO4)6
_chemical_formula_sum   'Ti3 Cu2 Ni1 P6 O24'
_cell_volume   448.87989295
_cell_formula_units_Z   1
loop_
 _symmetry_equiv_pos_site_id
 _symmetry_equiv_pos_as_xyz
  1  'x, y, z'
loop_
 _atom_site_type_symbol
 _atom_site_label
 _atom_site_symmetry_multiplicity
 _atom_site_fract_x
 _atom_site_fract_y
 _atom_site_fract_z
 _atom_site_occupancy
  Ti  Ti0  1  0.85704100  0.85704100  0.85704100  1
  Ti  Ti1  1  0.64393000  0.64393000  0.64393000  1
  Ti  Ti2  1  0.35563900  0.35563900  0.35563900  1
  Cu  Cu0  1  0.00304700  0.00304700  0.00304700  1
  Cu  Cu1  1  0.50089800  0.50089800  0.50089800  1
  Ni  Ni0  1  0.14258400  0.14258400  0.14258400  1
  P  P0  1  0.75109000  0.45511700  0.04345500  1
  P  P1  1  0.45511700  0.04345500  0.75109000  1
  P  P2  1  0.04345500  0.75109000  0.45511700  1
  P  P3  1  0.95731500  0.24802000  0.54109300  1
  P  P4  1  0.54109300  0.95731500  0.24802000  1
  P  P5  1  0.24802000  0.54109300  0.95731500  1
  O  O0  1  0.88106300  0.68487400  0.50553900  1
  O  O1  1  0.68487400  0.50553900  0.88106300  1
  O  O2  1  0.94416300  0.08500800  0.73876300  1
  O  O3  1  0.50553900  0.88106300  0.68487400  1
  O  O4  1  0.98739000  0.19192700  0.38605300  1
  O  O5  1  0.76290200  0.41416100  0.56574700  1
  O  O6  1  0.73876300  0.94416300  0.08500800  1
  O  O7  1  0.56574700  0.76290200  0.41416100  1
  O  O8  1  0.80925000  0.62155500  0.99923000  1
  O  O9  1  0.41416100  0.56574700  0.76290200  1
  O  O10  1  0.91107700  0.26343400  0.05321600  1
  O  O11  1  0.62155500  0.99923000  0.80925000  1
  O  O12  1  0.38605300  0.98739000  0.19192700  1
  O  O13  1  0.08500800  0.73876300  0.94416300  1
  O  O14  1  0.58382400  0.44548000  0.23609900  1
  O  O15  1  0.19192700  0.38605300  0.98739000  1
  O  O16  1  0.44548000  0.23609900  0.58382400  1
  O  O17  1  0.26343400  0.05321600  0.91107700  1
  O  O18  1  0.23609900  0.58382400  0.44548000  1
  O  O19  1  0.99923000  0.80925000  0.62155500  1
  O  O20  1  0.49958200  0.12206300  0.30837200  1
  O  O21  1  0.05321600  0.91107700  0.26343400  1
  O  O22  1  0.30837200  0.49958200  0.12206300  1
  O  O23  1  0.12206300  0.30837200  0.49958200  1
loop_
_geom_bond_atom_site_label_1
_geom_bond_atom_site_label_2
_geom_bond_distance
_geom_bond_site_symmetry_2
Cu0 O17 2.158434 1_554
Cu0 O10 2.158434 1_455
Cu0 O21 2.158434 1_545
Cu0 O6 2.254372 1_445
Cu0 O13 2.254372 1_544
Cu0 O2 2.254372 1_454
Cu1 O16 2.239562 1_555
Cu1 O18 2.239562 1_555
Cu1 O14 2.239562 1_555
Cu1 O7 2.252988 1_555
Cu1 O5 2.252988 1_555
Cu1 O9 2.252988 1_555
Ni0 O15 1.968531 1_554
Ni0 O4 1.968531 1_455
Ni0 O12 1.968531 1_545
Ni0 O21 2.069089 1_545
Ni0 O17 2.069090 1_554
Ni0 O10 2.069090 1_455
O0 P2 1.545235 1_655
O0 Ti1 1.889747 1_555
O1 P0 1.545235 1_556
O1 Ti1 1.889747 1_555
O2 P3 1.569488 1_555
O2 Ti0 2.033932 1_545
O3 P1 1.545235 1_565
O3 Ti1 1.889747 1_555
O4 P3 1.493812 1_555
O5 P3 1.566523 1_555
O5 Ti1 2.002324 1_555
O6 P4 1.569488 1_555
O6 Ti0 2.033932 1_554
O7 P4 1.566522 1_555
O7 Ti1 2.002324 1_555
O8 P0 1.551310 1_556
O8 Ti0 1.902278 1_555
O9 P5 1.566522 1_555
O9 Ti1 2.002324 1_555
O10 P0 1.529089 1_555
O11 P1 1.551310 1_565
O11 Ti0 1.902278 1_555
O12 P4 1.493812 1_555
O13 P5 1.569488 1_555
O13 Ti0 2.033932 1_455
O14 P0 1.559437 1_555
O14 Ti2 2.047828 1_555
O15 P5 1.493812 1_555
O16 P1 1.559437 1_555
O16 Ti2 2.047828 1_555
O17 P1 1.529089 1_555
O18 P2 1.559437 1_555
O18 Ti2 2.047828 1_555
O19 P2 1.551310 1_655
O19 Ti0 1.902278 1_555
O20 P4 1.558578 1_545
O20 Ti2 1.886795 1_555
O21 P2 1.529089 1_555
O22 P5 1.558578 1_554
O22 Ti2 1.886795 1_555
O23 P3 1.558577 1_455
O23 Ti2 1.886795 1_555
