# generated using pymatgen
data_Na5P3H2O11
_symmetry_space_group_name_H-M   'P 1'
_cell_length_a   7.02558300
_cell_length_b   7.08214627
_cell_length_c   10.93786731
_cell_angle_alpha   82.93683888
_cell_angle_beta   81.62727295
_cell_angle_gamma   76.64962452
_symmetry_Int_Tables_number   1
_chemical_formula_structural   Na5P3H2O11
_chemical_formula_sum   'Na10 P6 H4 O22'
_cell_volume   521.61477356
_cell_formula_units_Z   2
loop_
 _symmetry_equiv_pos_site_id
 _symmetry_equiv_pos_as_xyz
  1  'x, y, z'
loop_
 _atom_site_type_symbol
 _atom_site_label
 _atom_site_symmetry_multiplicity
 _atom_site_fract_x
 _atom_site_fract_y
 _atom_site_fract_z
 _atom_site_occupancy
  Na  Na0  1  0.07177100  0.00238200  0.75722700  1
  Na  Na1  1  0.92822900  0.99761800  0.24277300  1
  Na  Na2  1  0.95859100  0.57880700  0.74505700  1
  Na  Na3  1  0.04140900  0.42119300  0.25494300  1
  Na  Na4  1  0.45081900  0.56553200  0.75056600  1
  Na  Na5  1  0.54918100  0.43446800  0.24943400  1
  Na  Na6  1  0.68039400  0.78280200  0.50101400  1
  Na  Na7  1  0.31960600  0.21719800  0.49898600  1
  Na  Na8  1  0.70224000  0.80544700  0.00067900  1
  Na  Na9  1  0.29776000  0.19455300  0.99932100  1
  P  P0  1  0.42757200  0.94398000  0.28327200  1
  P  P1  1  0.57242800  0.05602000  0.71672800  1
  P  P2  1  0.20381900  0.69011600  0.46521200  1
  P  P3  1  0.79618100  0.30988400  0.53478800  1
  P  P4  1  0.19478300  0.68067700  0.02529900  1
  P  P5  1  0.80521700  0.31932300  0.97470100  1
  H  H0  1  0.00000000  0.00000000  0.50000000  1
  H  H1  1  0.50000000  0.50000000  0.00000000  1
  H  H2  1  0.94833100  0.99441500  0.01050000  1
  H  H3  1  0.05166900  0.00558500  0.98950000  1
  O  O0  1  0.37293600  0.81623800  0.41833700  1
  O  O1  1  0.62706400  0.18376200  0.58166300  1
  O  O2  1  0.42248700  0.95631700  0.67713900  1
  O  O3  1  0.57751300  0.04368300  0.32286100  1
  O  O4  1  0.76028100  0.91662500  0.75196900  1
  O  O5  1  0.23971900  0.08337500  0.24803100  1
  O  O6  1  0.23008100  0.53004400  0.37958200  1
  O  O7  1  0.76991900  0.46995600  0.62041800  1
  O  O8  1  0.00505200  0.84743100  0.45458900  1
  O  O9  1  0.99494800  0.15256900  0.54541100  1
  O  O10  1  0.23068800  0.61707400  0.59926200  1
  O  O11  1  0.76931200  0.38292600  0.40073800  1
  O  O12  1  0.52009800  0.79042400  0.19234700  1
  O  O13  1  0.47990200  0.20957600  0.80765300  1
  O  O14  1  0.01493700  0.70558400  0.12354200  1
  O  O15  1  0.98506300  0.29441600  0.87645800  1
  O  O16  1  0.14236900  0.68221100  0.89213200  1
  O  O17  1  0.85763100  0.31778900  0.10786800  1
  O  O18  1  0.65596500  0.51519300  0.93856500  1
  O  O19  1  0.34403500  0.48480700  0.06143500  1
  O  O20  1  0.31938200  0.84275600  0.00864500  1
  O  O21  1  0.68061800  0.15724400  0.99135500  1
loop_
_geom_bond_atom_site_label_1
_geom_bond_atom_site_label_2
_geom_bond_distance
_geom_bond_site_symmetry_2
Na0 O4 2.412530 1_445
Na0 O2 2.452648 1_545
Na0 O15 2.489888 1_455
Na0 O9 2.506650 1_455
Na0 O16 2.536886 1_545
Na1 O5 2.412530 1_665
Na1 O3 2.452648 1_565
Na1 O14 2.489888 1_655
Na1 O8 2.506650 1_655
Na1 O17 2.536886 1_565
Na2 O15 2.312968 1_555
Na2 O7 2.338052 1_555
Na2 O10 2.348621 1_655
Na2 O16 2.474368 1_655
Na2 O4 2.478959 1_555
Na2 O18 2.846144 1_555
Na3 O14 2.312968 1_555
Na3 O6 2.338052 1_555
Na3 O11 2.348621 1_455
Na3 O17 2.474368 1_455
Na3 O5 2.478959 1_555
Na3 O19 2.846144 1_555
Na4 O10 2.366431 1_555
Na4 O7 2.473331 1_555
Na4 O13 2.489760 1_555
Na4 O16 2.507396 1_555
Na4 O18 2.622648 1_555
Na4 O2 2.754951 1_555
Na5 O11 2.366431 1_555
Na5 O6 2.473331 1_555
Na5 O12 2.489760 1_555
Na5 O17 2.507396 1_555
Na5 O19 2.622648 1_555
Na5 O3 2.754951 1_555
Na6 O8 2.399495 1_655
Na6 O0 2.412416 1_555
Na6 O7 2.427821 1_555
Na6 O3 2.577054 1_565
Na6 O2 2.653629 1_555
Na7 O9 2.399495 1_455
Na7 O1 2.412416 1_555
Na7 O6 2.427821 1_555
Na7 O2 2.577054 1_545
Na7 O3 2.653629 1_555
Na8 O12 2.295787 1_555
Na8 O18 2.347181 1_554
Na8 O21 2.451159 1_564
Na8 O20 2.630898 1_555
Na8 O14 2.653477 1_655
Na8 O4 2.735881 1_554
Na9 O13 2.295787 1_555
Na9 O19 2.347181 1_556
Na9 O20 2.451159 1_546
Na9 O21 2.630898 1_555
Na9 O15 2.653477 1_455
Na9 O5 2.735881 1_556
H0 O8 1.234758 1_545
H0 O9 1.234758 1_455
H1 O19 1.219021 1_555
H1 O18 1.219021 1_554
H2 H3 0.748063 1_664
H2 Na8 2.439218 1_555
H2 Na1 2.526492 1_555
H3 Na9 2.439218 1_555
H3 Na0 2.526492 1_555
O0 P2 1.634769 1_555
O0 P0 1.677744 1_555
O1 P3 1.634769 1_555
O1 P1 1.677744 1_555
O2 P1 1.532105 1_565
O3 P0 1.532105 1_545
O4 P1 1.522452 1_565
O5 P0 1.522452 1_545
O6 P2 1.520083 1_555
O7 P3 1.520083 1_555
O8 P2 1.581703 1_555
O9 P3 1.581703 1_555
O10 P2 1.517239 1_555
O11 P3 1.517239 1_555
O12 P0 1.531520 1_555
O13 P1 1.531520 1_555
O14 P4 1.526625 1_555
O15 P5 1.526625 1_555
O16 P4 1.551695 1_556
O17 P5 1.551695 1_554
O18 P5 1.579285 1_555
O19 P4 1.579285 1_555
O20 P4 1.575833 1_555
O21 P5 1.575833 1_555
