# generated using pymatgen
data_SrSm2O4
_symmetry_space_group_name_H-M   'P 1'
_cell_length_a   7.12541038
_cell_length_b   7.12541038
_cell_length_c   7.12541038
_cell_angle_alpha   60.00000000
_cell_angle_beta   60.00000000
_cell_angle_gamma   60.00000000
_symmetry_Int_Tables_number   1
_chemical_formula_structural   SrSm2O4
_chemical_formula_sum   'Sr2 Sm4 O8'
_cell_volume   255.80831020
_cell_formula_units_Z   2
loop_
 _symmetry_equiv_pos_site_id
 _symmetry_equiv_pos_as_xyz
  1  'x, y, z'
loop_
 _atom_site_type_symbol
 _atom_site_label
 _atom_site_symmetry_multiplicity
 _atom_site_fract_x
 _atom_site_fract_y
 _atom_site_fract_z
 _atom_site_occupancy
  Sr  Sr0  1  0.75000000  0.75000000  0.75000000  1
  Sr  Sr1  1  0.50000000  0.50000000  0.50000000  1
  Sm  Sm0  1  0.12500000  0.12500000  0.62500000  1
  Sm  Sm1  1  0.62500000  0.12500000  0.12500000  1
  Sm  Sm2  1  0.12500000  0.62500000  0.12500000  1
  Sm  Sm3  1  0.12500000  0.12500000  0.12500000  1
  O  O0  1  0.89038200  0.89038200  0.89038200  1
  O  O1  1  0.89038200  0.32885500  0.89038200  1
  O  O2  1  0.32885500  0.89038200  0.89038200  1
  O  O3  1  0.35961800  0.35961800  0.92114500  1
  O  O4  1  0.89038200  0.89038200  0.32885500  1
  O  O5  1  0.92114500  0.35961800  0.35961800  1
  O  O6  1  0.35961800  0.92114500  0.35961800  1
  O  O7  1  0.35961800  0.35961800  0.35961800  1
loop_
_geom_bond_atom_site_label_1
_geom_bond_atom_site_label_2
_geom_bond_distance
_geom_bond_site_symmetry_2
O0 Sm2 2.374351 1_656
O0 Sm1 2.374351 1_566
O0 Sm0 2.374351 1_665
O0 Sr0 2.450174 1_555
O1 Sm3 2.374351 1_656
O1 Sm0 2.374356 1_655
O1 Sm1 2.374356 1_556
O1 Sr0 2.450168 1_555
O2 Sm3 2.374351 1_566
O2 Sm2 2.374356 1_556
O2 Sm0 2.374356 1_565
O2 Sr0 2.450168 1_555
O3 Sm3 2.374351 1_556
O3 Sm2 2.374356 1_556
O3 Sm1 2.374356 1_556
O3 Sr1 2.450168 1_555
O4 Sm3 2.374351 1_665
O4 Sm1 2.374356 1_565
O4 Sm2 2.374356 1_655
O4 Sr0 2.450168 1_555
O5 Sm3 2.374351 1_655
O5 Sm0 2.374356 1_655
O5 Sm2 2.374356 1_655
O5 Sr1 2.450168 1_555
O6 Sm3 2.374351 1_565
O6 Sm1 2.374356 1_565
O6 Sm0 2.374356 1_565
O6 Sr1 2.450168 1_555
O7 Sm0 2.374351 1_555
O7 Sm1 2.374351 1_555
O7 Sm2 2.374351 1_555
O7 Sr1 2.450174 1_555
