# generated using pymatgen
data_Li3FePCO7
_symmetry_space_group_name_H-M   'P 1'
_cell_length_a   5.02356611
_cell_length_b   6.44755087
_cell_length_c   8.64997524
_cell_angle_alpha   89.96186841
_cell_angle_beta   82.52064277
_cell_angle_gamma   90.04276728
_symmetry_Int_Tables_number   1
_chemical_formula_structural   Li3FePCO7
_chemical_formula_sum   'Li6 Fe2 P2 C2 O14'
_cell_volume   277.78619028
_cell_formula_units_Z   2
loop_
 _symmetry_equiv_pos_site_id
 _symmetry_equiv_pos_as_xyz
  1  'x, y, z'
loop_
 _atom_site_type_symbol
 _atom_site_label
 _atom_site_symmetry_multiplicity
 _atom_site_fract_x
 _atom_site_fract_y
 _atom_site_fract_z
 _atom_site_occupancy
  Li  Li0  1  0.06259100  0.11292700  0.11761900  1
  Li  Li1  1  0.40411600  0.61340100  0.97008900  1
  Li  Li2  1  0.49811000  0.49401700  0.34132500  1
  Li  Li3  1  0.50280900  0.01846300  0.32636300  1
  Li  Li4  1  0.96814600  0.99312100  0.74725700  1
  Li  Li5  1  0.96295100  0.51675300  0.76215000  1
  Fe  Fe0  1  0.01685700  0.75274600  0.37808400  1
  Fe  Fe1  1  0.44991000  0.25307000  0.70956900  1
  P  P0  1  0.97516600  0.25951400  0.44755000  1
  P  P1  1  0.49149800  0.75973500  0.64028000  1
  C  C0  1  0.58679300  0.21415600  0.00116200  1
  C  C1  1  0.88003000  0.71387900  0.08647400  1
  O  O0  1  0.12404500  0.77943000  0.09506800  1
  O  O1  1  0.71599000  0.70644200  0.21722400  1
  O  O2  1  0.66611000  0.16056200  0.13043500  1
  O  O3  1  0.07933200  0.06499500  0.34963000  1
  O  O4  1  0.09833300  0.44674800  0.35167900  1
  O  O5  1  0.40007800  0.75728700  0.47700500  1
  O  O6  1  0.66056000  0.26358200  0.46663000  1
  O  O7  1  0.80607600  0.76327700  0.62117300  1
  O  O8  1  0.06663900  0.25630500  0.61076600  1
  O  O9  1  0.38650800  0.56497000  0.73804300  1
  O  O10  1  0.36910600  0.94673000  0.73637900  1
  O  O11  1  0.80069900  0.66132800  0.95702800  1
  O  O12  1  0.75109700  0.20784000  0.87042900  1
  O  O13  1  0.34278700  0.27936100  0.99268700  1
loop_
_geom_bond_atom_site_label_1
_geom_bond_atom_site_label_2
_geom_bond_distance
_geom_bond_site_symmetry_2
Li0 O13 1.975053 1_554
Li0 O2 2.004284 1_455
Li0 O3 2.042875 1_555
Li0 O0 2.177787 1_545
Li1 O0 1.975339 1_556
Li1 O11 2.004443 1_555
Li1 O9 2.044790 1_555
Li1 O13 2.180481 1_555
Li2 O1 1.978921 1_555
Li2 O4 2.021490 1_555
Li2 O6 2.068372 1_555
Li2 O5 2.086789 1_555
Li3 O2 2.004869 1_555
Li3 O3 2.132080 1_555
Li3 O5 2.149571 1_545
Li3 O6 2.202009 1_555
Li3 O1 2.414101 1_545
Li4 O12 1.985551 1_565
Li4 O10 2.026602 1_655
Li4 O7 2.068808 1_555
Li4 O8 2.088582 1_665
Li5 O11 2.005081 1_555
Li5 O9 2.133293 1_655
Li5 O8 2.152341 1_655
Li5 O7 2.209982 1_555
Li5 O12 2.389925 1_555
Fe0 O4 2.022287 1_555
Fe0 O3 2.047073 1_565
Fe0 O1 2.203863 1_455
Fe0 O5 2.206346 1_555
Fe0 O7 2.228874 1_455
Fe0 O0 2.443107 1_555
Fe1 O10 2.023223 1_545
Fe1 O9 2.046310 1_555
Fe1 O12 2.204225 1_555
Fe1 O8 2.205990 1_555
Fe1 O6 2.227361 1_555
Fe1 O13 2.444043 1_555
C0 O2 1.282282 1_555
C0 O13 1.307203 1_554
C0 O12 1.311045 1_554
C1 O11 1.282122 1_554
C1 O0 1.307591 1_655
C1 O1 1.310626 1_555
O3 P0 1.565630 1_455
O4 P0 1.546560 1_455
O5 P1 1.541007 1_555
O6 P0 1.567766 1_555
O7 P1 1.567527 1_555
O8 P0 1.540675 1_455
O9 P1 1.565792 1_555
O10 P1 1.546614 1_555
