# generated using pymatgen
data_Li3Co2Si3O10
_symmetry_space_group_name_H-M   'P 1'
_cell_length_a   5.51289174
_cell_length_b   5.51289174
_cell_length_c   16.79639939
_cell_angle_alpha   85.42870824
_cell_angle_beta   85.42870824
_cell_angle_gamma   59.17270040
_symmetry_Int_Tables_number   1
_chemical_formula_structural   Li3Co2Si3O10
_chemical_formula_sum   'Li6 Co4 Si6 O20'
_cell_volume   436.50872818
_cell_formula_units_Z   2
loop_
 _symmetry_equiv_pos_site_id
 _symmetry_equiv_pos_as_xyz
  1  'x, y, z'
loop_
 _atom_site_type_symbol
 _atom_site_label
 _atom_site_symmetry_multiplicity
 _atom_site_fract_x
 _atom_site_fract_y
 _atom_site_fract_z
 _atom_site_occupancy
  Li  Li0  1  0.43015500  0.16419600  0.73791500  1
  Li  Li1  1  0.36530800  0.14259400  0.04791900  1
  Li  Li2  1  0.16419600  0.43015500  0.23791500  1
  Li  Li3  1  0.14259400  0.36530800  0.54791900  1
  Li  Li4  1  0.75599400  0.47906700  0.77451300  1
  Li  Li5  1  0.47906700  0.75599400  0.27451300  1
  Co  Co0  1  0.80667300  0.00511100  0.58081400  1
  Co  Co1  1  0.00892800  0.17997500  0.92346600  1
  Co  Co2  1  0.00511100  0.80667300  0.08081400  1
  Co  Co3  1  0.17997500  0.00892800  0.42346600  1
  Si  Si0  1  0.87723100  0.11916400  0.25040000  1
  Si  Si1  1  0.52107600  0.31625100  0.40016100  1
  Si  Si2  1  0.31625100  0.52107600  0.90016100  1
  Si  Si3  1  0.67790400  0.47385300  0.09526200  1
  Si  Si4  1  0.47385300  0.67790400  0.59526200  1
  Si  Si5  1  0.11916400  0.87723100  0.75040000  1
  O  O0  1  0.12606200  0.10937500  0.29935100  1
  O  O1  1  0.10937500  0.12606200  0.79935100  1
  O  O2  1  0.24418700  0.30202800  0.43434400  1
  O  O3  1  0.30202800  0.24418700  0.93434400  1
  O  O4  1  0.58406600  0.20291800  0.30705600  1
  O  O5  1  0.80051800  0.11011500  0.45081700  1
  O  O6  1  0.94353600  0.20139900  0.04862600  1
  O  O7  1  0.45748200  0.39083800  0.59261900  1
  O  O8  1  0.39083800  0.45748200  0.09261900  1
  O  O9  1  0.20291800  0.58406600  0.80705600  1
  O  O10  1  0.76749100  0.41703400  0.19302200  1
  O  O11  1  0.64520800  0.44786000  0.89089700  1
  O  O12  1  0.44786000  0.64520800  0.39089700  1
  O  O13  1  0.11011500  0.80051800  0.95081700  1
  O  O14  1  0.20139900  0.94353600  0.54862600  1
  O  O15  1  0.41703400  0.76749100  0.69302200  1
  O  O16  1  0.66393200  0.76744200  0.06924600  1
  O  O17  1  0.76744200  0.66393200  0.56924600  1
  O  O18  1  0.98073500  0.83458900  0.20552900  1
  O  O19  1  0.83458900  0.98073500  0.70552900  1
loop_
_geom_bond_atom_site_label_1
_geom_bond_atom_site_label_2
_geom_bond_distance
_geom_bond_site_symmetry_2
Li0 O19 1.968031 1_545
Li0 O1 2.071696 1_555
Li0 O9 2.345315 1_555
Li0 O15 2.406332 1_545
Li1 O16 1.897952 1_545
Li1 O3 1.951932 1_554
Li1 O8 2.017923 1_555
Li1 O6 2.176089 1_455
Li2 O18 1.968031 1_455
Li2 O0 2.071696 1_555
Li2 O4 2.345315 1_555
Li2 O10 2.406332 1_455
Li3 O17 1.897952 1_455
Li3 O2 1.951932 1_555
Li3 O7 2.017923 1_555
Li3 O14 2.176089 1_545
Li4 O1 1.967492 1_655
Li4 O11 2.021821 1_555
Li4 O15 2.215659 1_555
Li5 O0 1.967492 1_565
Li5 O12 2.021821 1_555
Li5 O10 2.215659 1_555
Co0 O7 2.019374 1_555
Co0 O17 2.025863 1_545
Co0 O14 2.056088 1_645
Co0 O19 2.101213 1_545
Co0 O5 2.212249 1_555
Co1 O3 1.847486 1_555
Co1 O11 1.874021 1_455
Co1 O13 1.894719 1_545
Co1 O6 2.106763 1_456
Co1 O1 2.118245 1_555
Co2 O8 2.019374 1_555
Co2 O16 2.025863 1_455
Co2 O6 2.056088 1_465
Co2 O18 2.101213 1_455
Co2 O13 2.212249 1_554
Co3 O2 1.847486 1_555
Co3 O12 1.874021 1_545
Co3 O5 1.894719 1_455
Co3 O14 2.106763 1_545
Co3 O0 2.118245 1_555
O0 Si0 1.630196 1_455
O1 Si5 1.630196 1_545
O2 Si1 1.625321 1_555
O3 Si2 1.625321 1_555
O4 Si0 1.670595 1_555
O4 Si1 1.674314 1_555
O5 Si1 1.627614 1_555
O6 Si3 1.662667 1_555
O7 Si4 1.634884 1_555
O8 Si3 1.634884 1_555
O9 Si5 1.670595 1_555
O9 Si2 1.674314 1_555
O10 Si0 1.677455 1_555
O10 Si3 1.710842 1_555
O11 Si2 1.640348 1_555
O12 Si1 1.640348 1_555
O13 Si2 1.627614 1_555
O14 Si4 1.662667 1_555
O15 Si5 1.677455 1_555
O15 Si4 1.710842 1_555
O16 Si3 1.606660 1_555
O17 Si4 1.606660 1_555
O18 Si0 1.599151 1_565
O19 Si5 1.599151 1_655
