# generated using pymatgen
data_CoP2WO8
_symmetry_space_group_name_H-M   'P 1'
_cell_length_a   4.95559392
_cell_length_b   10.18479457
_cell_length_c   5.98046200
_cell_angle_alpha   90.00027991
_cell_angle_beta   89.99957720
_cell_angle_gamma   92.46878321
_symmetry_Int_Tables_number   1
_chemical_formula_structural   CoP2WO8
_chemical_formula_sum   'Co2 P4 W2 O16'
_cell_volume   301.56395973
_cell_formula_units_Z   2
loop_
 _symmetry_equiv_pos_site_id
 _symmetry_equiv_pos_as_xyz
  1  'x, y, z'
loop_
 _atom_site_type_symbol
 _atom_site_label
 _atom_site_symmetry_multiplicity
 _atom_site_fract_x
 _atom_site_fract_y
 _atom_site_fract_z
 _atom_site_occupancy
  Co  Co0  1  0.93385600  0.28178100  0.24999900  1
  Co  Co1  1  0.06614400  0.71821900  0.75000400  1
  P  P0  1  0.40234000  0.09208800  0.25000300  1
  P  P1  1  0.59766000  0.90791200  0.74999800  1
  P  P2  1  0.89174000  0.40664300  0.75000100  1
  P  P3  1  0.10826100  0.59335600  0.25000000  1
  W  W0  1  0.44409600  0.22022300  0.75000100  1
  W  W1  1  0.55590100  0.77977600  0.25000000  1
  O  O0  1  0.68503200  0.05367700  0.74999600  1
  O  O1  1  0.31496700  0.94632400  0.25000200  1
  O  O2  1  0.70547900  0.11489300  0.24999600  1
  O  O3  1  0.29452100  0.88510700  0.75000100  1
  O  O4  1  0.19115200  0.37827000  0.75000500  1
  O  O5  1  0.80885100  0.62173100  0.24999400  1
  O  O6  1  0.15459500  0.44830400  0.25000800  1
  O  O7  1  0.84540400  0.55169600  0.74999500  1
  O  O8  1  0.26518200  0.16487100  0.04544600  1
  O  O9  1  0.26518800  0.16487000  0.45455800  1
  O  O10  1  0.73481400  0.83513100  0.54544300  1
  O  O11  1  0.73481900  0.83512800  0.95455400  1
  O  O12  1  0.73489900  0.33005300  0.55259300  1
  O  O13  1  0.73489100  0.33005800  0.94741000  1
  O  O14  1  0.26510900  0.66994200  0.05258900  1
  O  O15  1  0.26510000  0.66994800  0.44740400  1
loop_
_geom_bond_atom_site_label_1
_geom_bond_atom_site_label_2
_geom_bond_distance
_geom_bond_site_symmetry_2
Co0 O6 1.978180 1_655
Co0 O2 2.001042 1_555
Co0 O12 2.128467 1_555
Co0 O13 2.128490 1_554
Co0 O8 2.403865 1_655
Co0 O9 2.403928 1_655
Co1 O7 1.978183 1_455
Co1 O3 2.001042 1_555
Co1 O14 2.128469 1_556
Co1 O15 2.128493 1_555
Co1 O11 2.403847 1_455
Co1 O10 2.403932 1_455
O0 P1 1.528428 1_545
O0 W0 2.115960 1_555
O1 P0 1.528419 1_565
O1 W1 2.115971 1_555
O2 P0 1.510164 1_555
O3 P1 1.510164 1_555
O4 P2 1.523811 1_455
O4 W0 2.082334 1_555
O5 P3 1.523806 1_655
O5 W1 2.082337 1_555
O6 P3 1.504804 1_555
O7 P2 1.504816 1_555
O8 P0 1.597338 1_555
O8 W0 2.045182 1_554
O9 P0 1.597297 1_555
O9 W0 2.045168 1_555
O10 P1 1.597297 1_555
O10 W1 2.045184 1_555
O11 P1 1.597341 1_555
O11 W1 2.045196 1_556
O12 P2 1.598172 1_555
O12 W0 2.140780 1_555
O13 P2 1.598168 1_555
O13 W0 2.140788 1_555
O14 P3 1.598180 1_555
O14 W1 2.140780 1_555
O15 P3 1.598159 1_555
O15 W1 2.140750 1_555
