# generated using pymatgen
data_Li32Ti3Cr13O48
_symmetry_space_group_name_H-M   'P 1'
_cell_length_a   5.04741800
_cell_length_b   8.72896647
_cell_length_c   19.51627126
_cell_angle_alpha   98.47042243
_cell_angle_beta   94.78255181
_cell_angle_gamma   90.19676544
_symmetry_Int_Tables_number   1
_chemical_formula_structural   Li32Ti3Cr13O48
_chemical_formula_sum   'Li32 Ti3 Cr13 O48'
_cell_volume   847.41415920
_cell_formula_units_Z   1
loop_
 _symmetry_equiv_pos_site_id
 _symmetry_equiv_pos_as_xyz
  1  'x, y, z'
loop_
 _atom_site_type_symbol
 _atom_site_label
 _atom_site_symmetry_multiplicity
 _atom_site_fract_x
 _atom_site_fract_y
 _atom_site_fract_z
 _atom_site_occupancy
  Li  Li0  1  0.99317500  0.16954500  0.24996300  1
  Li  Li1  1  0.87409000  0.37576100  0.37484500  1
  Li  Li2  1  0.75344600  0.24880100  0.99993700  1
  Li  Li3  1  0.74619000  0.92000300  0.00006300  1
  Li  Li4  1  0.98621400  0.16780300  0.75023500  1
  Li  Li5  1  0.75811800  0.58061700  0.50009100  1
  Li  Li6  1  0.87428200  0.37390500  0.87496200  1
  Li  Li7  1  0.74297900  0.25277200  0.50012100  1
  Li  Li8  1  0.74681200  0.91964300  0.49945200  1
  Li  Li9  1  0.62507200  0.12524700  0.12494800  1
  Li  Li10  1  0.75560200  0.57931800  0.00012400  1
  Li  Li11  1  0.50801400  0.33170300  0.24947700  1
  Li  Li12  1  0.62549800  0.12601600  0.62502100  1
  Li  Li13  1  0.50196500  0.99936900  0.24940100  1
  Li  Li14  1  0.49115500  0.66763800  0.24937400  1
  Li  Li15  1  0.51351000  0.33212600  0.74968300  1
  Li  Li16  1  0.37354100  0.87499900  0.37551100  1
  Li  Li17  1  0.49867900  0.00177800  0.74920700  1
  Li  Li18  1  0.24661600  0.75139600  0.00037300  1
  Li  Li19  1  0.49066800  0.66689700  0.74887100  1
  Li  Li20  1  0.24376100  0.41988100  0.00090300  1
  Li  Li21  1  0.37267600  0.87530500  0.87573800  1
  Li  Li22  1  0.25507400  0.07822800  0.49955600  1
  Li  Li23  1  0.24954700  0.74912900  0.49982400  1
  Li  Li24  1  0.12515600  0.62493200  0.12502100  1
  Li  Li25  1  0.24540900  0.42098500  0.50070700  1
  Li  Li26  1  0.00871800  0.83012100  0.25016900  1
  Li  Li27  1  0.25609100  0.07998200  0.99972900  1
  Li  Li28  1  0.12745700  0.62483700  0.62438200  1
  Li  Li29  1  0.99550300  0.50130800  0.25006800  1
  Li  Li30  1  0.00921300  0.83307800  0.75107100  1
  Li  Li31  1  0.00142100  0.49841500  0.75072500  1
  Ti  Ti0  1  0.37450400  0.53762100  0.37322500  1
  Ti  Ti1  1  0.37097800  0.21126600  0.87323000  1
  Ti  Ti2  1  0.12874500  0.28880700  0.62677500  1
  Cr  Cr0  1  0.87037900  0.71160400  0.37495700  1
  Cr  Cr1  1  0.87894200  0.04744800  0.37606400  1
  Cr  Cr2  1  0.87888300  0.70343500  0.87618400  1
  Cr  Cr3  1  0.87011300  0.03825800  0.87520000  1
  Cr  Cr4  1  0.62050100  0.78945100  0.12458900  1
  Cr  Cr5  1  0.62967000  0.46007900  0.12501100  1
  Cr  Cr6  1  0.62092900  0.79669300  0.62385800  1
  Cr  Cr7  1  0.62989200  0.46200400  0.62499900  1
  Cr  Cr8  1  0.37637800  0.20274100  0.37482700  1
  Cr  Cr9  1  0.37836800  0.54745400  0.87560400  1
  Cr  Cr10  1  0.13034900  0.96023200  0.12554300  1
  Cr  Cr11  1  0.12018100  0.28960000  0.12492400  1
  Cr  Cr12  1  0.12152200  0.95277700  0.62463700  1
  O  O0  1  0.96477400  0.11134700  0.06896100  1
  O  O1  1  0.92535500  0.78589300  0.06953100  1
  O  O2  1  0.91816400  0.42904500  0.06747100  1
  O  O3  1  0.96467400  0.10323800  0.56879000  1
  O  O4  1  0.82465000  0.96391100  0.18089300  1
  O  O5  1  0.83194200  0.32091800  0.18240900  1
  O  O6  1  0.93567100  0.78723400  0.56856600  1
  O  O7  1  0.92099600  0.42883900  0.56750500  1
  O  O8  1  0.78531700  0.63858800  0.18105800  1
  O  O9  1  0.71765900  0.85523700  0.31991500  1
  O  O10  1  0.81459800  0.95958700  0.68152400  1
  O  O11  1  0.82505600  0.32166700  0.68368600  1
  O  O12  1  0.67530400  0.53257200  0.31699500  1
  O  O13  1  0.68450100  0.17203000  0.31732400  1
  O  O14  1  0.78323500  0.64228000  0.67991100  1
  O  O15  1  0.71679900  0.85784700  0.82022900  1
  O  O16  1  0.46312300  0.61130900  0.06854900  1
  O  O17  1  0.57971700  0.71697200  0.43146500  1
  O  O18  1  0.56496600  0.07542000  0.43238600  1
  O  O19  1  0.68510900  0.54047700  0.81860900  1
  O  O20  1  0.67482300  0.17854100  0.81645300  1
  O  O21  1  0.41793600  0.92865600  0.06774500  1
  O  O22  1  0.42656600  0.28568100  0.06946600  1
  O  O23  1  0.53498600  0.39086700  0.43109600  1
  O  O24  1  0.46284900  0.61097000  0.56842000  1
  O  O25  1  0.56469200  0.71287900  0.93170200  1
  O  O26  1  0.57920300  0.07138500  0.93268900  1
  O  O27  1  0.33239500  0.82100800  0.18262600  1
  O  O28  1  0.32335600  0.46448100  0.18045500  1
  O  O29  1  0.43347100  0.92515600  0.56734300  1
  O  O30  1  0.43131300  0.28693700  0.56877700  1
  O  O31  1  0.53469400  0.39701900  0.93144700  1
  O  O32  1  0.28668900  0.13843100  0.18142000  1
  O  O33  1  0.21308300  0.35224000  0.31815300  1
  O  O34  1  0.31421900  0.82524000  0.68224200  1
  O  O35  1  0.32561700  0.46750800  0.68138200  1
  O  O36  1  0.17508800  0.67916800  0.31753100  1
  O  O37  1  0.18676600  0.03734600  0.31861800  1
  O  O38  1  0.28662200  0.14033700  0.68175500  1
  O  O39  1  0.21328600  0.35990300  0.81838600  1
  O  O40  1  0.06926200  0.57462500  0.43200800  1
  O  O41  1  0.06525700  0.21289500  0.43160200  1
  O  O42  1  0.18585700  0.67481100  0.81793000  1
  O  O43  1  0.17434700  0.03272500  0.81874300  1
  O  O44  1  0.03819200  0.89851100  0.43120000  1
  O  O45  1  0.06599000  0.57496100  0.93285500  1
  O  O46  1  0.06846200  0.21318100  0.93139700  1
  O  O47  1  0.03738000  0.88911800  0.93159900  1
loop_
_geom_bond_atom_site_label_1
_geom_bond_atom_site_label_2
_geom_bond_distance
_geom_bond_site_symmetry_2
Li0 O32 2.069834 1_655
Li0 O37 2.080060 1_655
Li0 O5 2.118505 1_555
Li0 O13 2.118842 1_555
Li0 O33 2.159303 1_655
Li0 O4 2.201830 1_545
Li1 O23 2.103420 1_555
Li1 O12 2.104951 1_555
Li1 O33 2.108349 1_655
Li1 O40 2.112533 1_655
Li1 O41 2.115232 1_655
Li1 O13 2.135314 1_555
Li2 O26 2.023289 1_555
Li2 O2 2.025138 1_556
Li2 O0 2.153453 1_556
Li2 O46 2.156305 1_655
Li2 O22 2.217068 1_556
Li2 O31 2.225504 1_555
Li3 O47 2.059676 1_654
Li3 O1 2.072839 1_555
Li3 O26 2.126069 1_564
Li3 O21 2.198178 1_555
Li3 O0 2.212082 1_565
Li3 O25 2.227599 1_554
Li4 O43 2.083267 1_655
Li4 O38 2.094941 1_655
Li4 O20 2.110267 1_555
Li4 O11 2.120753 1_555
Li4 O10 2.220225 1_545
Li4 O39 2.229349 1_655
Li5 O17 2.072962 1_555
Li5 O24 2.073560 1_555
Li5 O7 2.121969 1_555
Li5 O40 2.136045 1_655
Li5 O23 2.214097 1_555
Li5 O6 2.218332 1_555
Li6 O46 2.103957 1_655
Li6 O39 2.106812 1_655
Li6 O31 2.108509 1_555
Li6 O20 2.109129 1_555
Li6 O45 2.124810 1_655
Li6 O19 2.130942 1_555
Li7 O7 2.024071 1_555
Li7 O18 2.034929 1_555
Li7 O30 2.143815 1_555
Li7 O23 2.149686 1_555
Li7 O41 2.187442 1_655
Li7 O3 2.242147 1_555
Li8 O44 2.056081 1_655
Li8 O6 2.077588 1_555
Li8 O29 2.142521 1_555
Li8 O3 2.170162 1_565
Li8 O17 2.170997 1_555
Li8 O18 2.176502 1_565
Li9 O22 2.100711 1_555
Li9 O32 2.103073 1_555
Li9 O0 2.103167 1_555
Li9 O4 2.114118 1_545
Li9 O5 2.119757 1_555
Li9 O21 2.124347 1_545
Li10 O16 2.064542 1_555
Li10 O25 2.079101 1_554
Li10 O2 2.111137 1_555
Li10 O45 2.123223 1_654
Li10 O31 2.163834 1_554
Li10 O1 2.212861 1_555
Li11 O28 2.069923 1_555
Li11 O33 2.075654 1_555
Li11 O12 2.155761 1_555
Li11 O5 2.171857 1_555
Li11 O13 2.201132 1_555
Li11 O32 2.222119 1_555
Li12 O30 2.103080 1_555
Li12 O3 2.103810 1_555
Li12 O38 2.108015 1_555
Li12 O11 2.112331 1_555
Li12 O29 2.122634 1_545
Li12 O10 2.131541 1_545
Li13 O27 2.015432 1_555
Li13 O13 2.018868 1_565
Li13 O32 2.158122 1_565
Li13 O37 2.166995 1_565
Li13 O4 2.186513 1_555
Li13 O9 2.220726 1_555
Li14 O12 2.063232 1_555
Li14 O8 2.068697 1_555
Li14 O27 2.116232 1_555
Li14 O36 2.154077 1_555
Li14 O28 2.183639 1_555
Li14 O9 2.223611 1_555
Li15 O35 2.081763 1_555
Li15 O39 2.097251 1_555
Li15 O11 2.108118 1_555
Li15 O20 2.122160 1_555
Li15 O19 2.222948 1_555
Li15 O38 2.225195 1_555
Li16 O44 2.081305 1_555
Li16 O37 2.104283 1_565
Li16 O36 2.105998 1_555
Li16 O17 2.107692 1_555
Li16 O18 2.112756 1_565
Li16 O9 2.117796 1_555
Li17 O20 2.023117 1_555
Li17 O34 2.035550 1_545
Li17 O38 2.141119 1_555
Li17 O10 2.152923 1_545
Li17 O43 2.204548 1_555
Li17 O15 2.231554 1_545
Li18 O21 2.018063 1_555
Li18 O45 2.032633 1_554
Li18 O47 2.147045 1_554
Li18 O16 2.169301 1_555
Li18 O25 2.171736 1_554
Li18 O1 2.188684 1_455
Li19 O19 2.064098 1_555
Li19 O14 2.070390 1_555
Li19 O42 2.123050 1_555
Li19 O35 2.142381 1_555
Li19 O34 2.176998 1_555
Li19 O15 2.249100 1_555
Li20 O22 2.068193 1_555
Li20 O31 2.070720 1_554
Li20 O2 2.172870 1_455
Li20 O45 2.177279 1_554
Li20 O16 2.203325 1_555
Li20 O46 2.224018 1_554
Li21 O47 2.082679 1_555
Li21 O43 2.098005 1_565
Li21 O25 2.105125 1_555
Li21 O42 2.110559 1_555
Li21 O15 2.116768 1_555
Li21 O26 2.117930 1_565
Li22 O3 2.065770 1_455
Li22 O41 2.076944 1_555
Li22 O18 2.120936 1_555
Li22 O44 2.137094 1_545
Li22 O29 2.162567 1_545
Li22 O30 2.235793 1_555
Li23 O40 2.023793 1_555
Li23 O29 2.036880 1_555
Li23 O6 2.155679 1_455
Li23 O24 2.156374 1_555
Li23 O17 2.213485 1_555
Li23 O44 2.217614 1_555
Li24 O28 2.099610 1_555
Li24 O16 2.101204 1_555
Li24 O8 2.104361 1_455
Li24 O1 2.107081 1_455
Li24 O2 2.122042 1_455
Li24 O27 2.124192 1_555
Li25 O30 2.066897 1_555
Li25 O23 2.068724 1_555
Li25 O7 2.171595 1_455
Li25 O40 2.173894 1_555
Li25 O24 2.191149 1_555
Li25 O41 2.237760 1_555
Li26 O9 2.075300 1_455
Li26 O4 2.078008 1_455
Li26 O36 2.122158 1_555
Li26 O27 2.177645 1_555
Li26 O37 2.222821 1_565
Li26 O8 2.225990 1_455
Li27 O46 2.069043 1_555
Li27 O0 2.070678 1_456
Li27 O21 2.125403 1_546
Li27 O26 2.169093 1_555
Li27 O47 2.202797 1_545
Li27 O22 2.211533 1_556
Li28 O24 2.084235 1_555
Li28 O35 2.097107 1_555
Li28 O6 2.102774 1_455
Li28 O34 2.110230 1_555
Li28 O7 2.116733 1_455
Li28 O14 2.117422 1_455
Li29 O5 2.025175 1_555
Li29 O36 2.038294 1_655
Li29 O8 2.149721 1_555
Li29 O12 2.154669 1_555
Li29 O28 2.222020 1_655
Li29 O33 2.222766 1_655
Li30 O10 2.062360 1_455
Li30 O15 2.072496 1_455
Li30 O34 2.120758 1_555
Li30 O43 2.145797 1_565
Li30 O42 2.179823 1_555
Li30 O14 2.246084 1_455
Li31 O11 2.021442 1_455
Li31 O42 2.036994 1_555
Li31 O39 2.143094 1_555
Li31 O19 2.156953 1_455
Li31 O35 2.201508 1_555
Li31 O14 2.228635 1_455
Cr0 O9 1.893515 1_555
Cr0 O17 1.904159 1_555
Cr0 O40 1.972599 1_655
Cr0 O44 1.972816 1_655
Cr0 O36 1.974483 1_655
Cr0 O12 1.993552 1_555
Cr1 O41 1.872009 1_655
Cr1 O13 1.909706 1_555
Cr1 O44 1.941449 1_645
Cr1 O37 1.985202 1_655
Cr1 O9 1.994686 1_545
Cr1 O18 1.998350 1_555
Cr2 O45 1.889787 1_655
Cr2 O19 1.891794 1_555
Cr2 O47 1.940905 1_655
Cr2 O25 1.989174 1_555
Cr2 O42 1.992085 1_655
Cr2 O15 1.992680 1_555
Cr3 O15 1.893480 1_545
Cr3 O26 1.918467 1_555
Cr3 O43 1.959945 1_655
Cr3 O46 1.962054 1_655
Cr3 O47 1.973280 1_645
Cr3 O20 2.004755 1_555
Cr4 O16 1.894940 1_555
Cr4 O27 1.912844 1_555
Cr4 O1 1.946651 1_555
Cr4 O4 1.973769 1_555
Cr4 O8 1.980646 1_555
Cr4 O21 1.992266 1_555
Cr5 O8 1.894155 1_555
Cr5 O2 1.908028 1_555
Cr5 O28 1.957004 1_555
Cr5 O22 1.965023 1_555
Cr5 O16 1.986256 1_555
Cr5 O5 1.997858 1_555
Cr6 O29 1.888606 1_555
Cr6 O10 1.891960 1_555
Cr6 O24 1.940584 1_555
Cr6 O6 1.988851 1_555
Cr6 O34 1.992523 1_555
Cr6 O14 1.994271 1_555
Cr7 O14 1.892180 1_555
Cr7 O7 1.919349 1_555
Cr7 O35 1.959230 1_555
Cr7 O30 1.963657 1_555
Cr7 O24 1.973897 1_555
Cr7 O11 2.004073 1_555
Cr8 O37 1.884823 1_555
Cr8 O18 1.897338 1_555
Cr8 O23 1.963826 1_555
Cr8 O33 1.971359 1_555
Cr8 O13 1.988792 1_555
Cr8 O41 1.990928 1_555
Cr9 O25 1.876552 1_555
Cr9 O42 1.908047 1_555
Cr9 O31 1.954489 1_555
Cr9 O19 1.976341 1_555
Cr9 O39 1.979484 1_555
Cr9 O45 2.002345 1_555
Cr10 O32 1.892043 1_565
Cr10 O21 1.907774 1_555
Cr10 O4 1.953661 1_455
Cr10 O1 1.972797 1_455
Cr10 O0 1.985099 1_465
Cr10 O27 1.993976 1_555
Cr11 O0 1.891378 1_455
Cr11 O5 1.906449 1_455
Cr11 O22 1.957726 1_555
Cr11 O28 1.968004 1_555
Cr11 O32 1.986193 1_555
Cr11 O2 1.999628 1_455
Cr12 O6 1.875957 1_455
Cr12 O34 1.908684 1_555
Cr12 O3 1.955658 1_465
Cr12 O10 1.975867 1_455
Cr12 O38 1.978782 1_565
Cr12 O29 2.001088 1_555
O3 Ti2 1.970983 1_655
O7 Ti2 2.038323 1_655
O11 Ti2 1.964327 1_655
O12 Ti0 1.943037 1_555
O17 Ti0 2.020907 1_555
O20 Ti1 1.963311 1_555
O23 Ti0 1.963040 1_555
O26 Ti1 2.040811 1_555
O30 Ti2 1.974019 1_555
O31 Ti1 1.973400 1_555
O33 Ti0 1.941674 1_555
O35 Ti2 1.969629 1_555
O36 Ti0 1.985675 1_555
O38 Ti2 1.933938 1_555
O39 Ti1 1.933051 1_555
O40 Ti0 1.995782 1_555
O43 Ti1 1.967186 1_555
O46 Ti1 1.975876 1_555
