# generated using pymatgen
data_Sm2Cu2O5
_symmetry_space_group_name_H-M   'P 1'
_cell_length_a   3.62527902
_cell_length_b   10.95922043
_cell_length_c   12.65045110
_cell_angle_alpha   90.00000000
_cell_angle_beta   90.00000000
_cell_angle_gamma   90.00000000
_symmetry_Int_Tables_number   1
_chemical_formula_structural   Sm2Cu2O5
_chemical_formula_sum   'Sm8 Cu8 O20'
_cell_volume   502.60535585
_cell_formula_units_Z   4
loop_
 _symmetry_equiv_pos_site_id
 _symmetry_equiv_pos_as_xyz
  1  'x, y, z'
loop_
 _atom_site_type_symbol
 _atom_site_label
 _atom_site_symmetry_multiplicity
 _atom_site_fract_x
 _atom_site_fract_y
 _atom_site_fract_z
 _atom_site_occupancy
  Sm  Sm0  1  0.21708363  0.04427891  0.66973438  1
  Sm  Sm1  1  0.21231544  0.20667354  0.99701599  1
  Sm  Sm2  1  0.71231544  0.29332646  0.49701599  1
  Sm  Sm3  1  0.71708363  0.45572109  0.16973438  1
  Sm  Sm4  1  0.28291637  0.54427891  0.66973438  1
  Sm  Sm5  1  0.28768456  0.70667354  0.99701599  1
  Sm  Sm6  1  0.78768456  0.79332646  0.49701599  1
  Sm  Sm7  1  0.78291637  0.95572109  0.16973438  1
  Cu  Cu0  1  0.33851329  0.01166084  0.38498932  1
  Cu  Cu1  1  0.15746584  0.23658354  0.28355842  1
  Cu  Cu2  1  0.65746584  0.26341646  0.78355842  1
  Cu  Cu3  1  0.83851329  0.48833916  0.88498932  1
  Cu  Cu4  1  0.16148671  0.51166084  0.38498932  1
  Cu  Cu5  1  0.34253416  0.73658354  0.28355842  1
  Cu  Cu6  1  0.84253416  0.76341646  0.78355842  1
  Cu  Cu7  1  0.66148671  0.98833916  0.88498932  1
  O  O0  1  0.27703636  0.07373695  0.23785242  1
  O  O1  1  0.72047259  0.07309014  0.02151185  1
  O  O2  1  0.37133081  0.12518613  0.83349721  1
  O  O3  1  0.72432978  0.17817957  0.64695241  1
  O  O4  1  0.21357446  0.17423643  0.43124001  1
  O  O5  1  0.71357446  0.32576357  0.93124001  1
  O  O6  1  0.22432978  0.32182043  0.14695241  1
  O  O7  1  0.87133081  0.37481387  0.33349721  1
  O  O8  1  0.22047259  0.42690986  0.52151185  1
  O  O9  1  0.77703636  0.42626305  0.73785242  1
  O  O10  1  0.22296364  0.57373695  0.23785242  1
  O  O11  1  0.77952741  0.57309014  0.02151185  1
  O  O12  1  0.12866919  0.62518613  0.83349721  1
  O  O13  1  0.77567022  0.67817957  0.64695241  1
  O  O14  1  0.28642554  0.67423643  0.43124001  1
  O  O15  1  0.78642554  0.82576357  0.93124001  1
  O  O16  1  0.27567022  0.82182043  0.14695241  1
  O  O17  1  0.62866919  0.87481387  0.33349721  1
  O  O18  1  0.27952741  0.92690986  0.52151185  1
  O  O19  1  0.72296364  0.92626305  0.73785242  1
loop_
_geom_bond_atom_site_label_1
_geom_bond_atom_site_label_2
_geom_bond_distance
_geom_bond_site_symmetry_2
Cu0 O4 1.929235 1_555
Cu0 O17 1.944226 1_545
Cu0 O18 1.972608 1_545
Cu0 O0 1.994268 1_555
Cu1 O0 1.925428 1_555
Cu1 O7 1.941661 1_455
Cu1 O6 1.979339 1_555
Cu1 O4 1.999639 1_555
Cu2 O9 1.925428 1_555
Cu2 O2 1.941661 1_555
Cu2 O3 1.979339 1_555
Cu2 O5 1.999639 1_555
Cu3 O5 1.929235 1_555
Cu3 O12 1.944226 1_655
Cu3 O11 1.972608 1_556
Cu3 O9 1.994268 1_555
Cu4 O14 1.929235 1_555
Cu4 O7 1.944226 1_455
Cu4 O8 1.972608 1_555
Cu4 O10 1.994268 1_555
Cu5 O10 1.925428 1_555
Cu5 O17 1.941661 1_555
Cu5 O16 1.979339 1_555
Cu5 O14 1.999639 1_555
Cu6 O19 1.925428 1_555
Cu6 O12 1.941661 1_655
Cu6 O13 1.979339 1_555
Cu6 O15 1.999639 1_555
Cu7 O15 1.929235 1_555
Cu7 O2 1.944226 1_565
Cu7 O1 1.972608 1_566
Cu7 O19 1.994268 1_555
O0 Sm7 2.371538 1_445
O0 Sm7 2.403903 1_545
O1 Sm7 2.285099 1_545
O1 Sm1 2.327781 1_654
O1 Sm1 2.373390 1_554
O2 Sm0 2.321794 1_555
O2 Sm1 2.325702 1_555
O3 Sm2 2.278607 1_555
O3 Sm0 2.329717 1_655
O3 Sm0 2.370242 1_555
O4 Sm2 2.380104 1_555
O4 Sm2 2.387046 1_455
O5 Sm1 2.380104 1_655
O5 Sm1 2.387046 1_555
O6 Sm1 2.278607 1_554
O6 Sm3 2.329717 1_555
O6 Sm3 2.370242 1_455
O7 Sm3 2.321794 1_555
O7 Sm2 2.325702 1_555
O8 Sm4 2.285099 1_555
O8 Sm2 2.327781 1_555
O8 Sm2 2.373390 1_455
O9 Sm4 2.371538 1_555
O9 Sm4 2.403903 1_655
O10 Sm3 2.371538 1_555
O10 Sm3 2.403903 1_455
O11 Sm3 2.285099 1_555
O11 Sm5 2.327781 1_554
O11 Sm5 2.373390 1_654
O12 Sm4 2.321794 1_555
O12 Sm5 2.325702 1_555
O13 Sm6 2.278607 1_555
O13 Sm4 2.329717 1_555
O13 Sm4 2.370242 1_655
O14 Sm6 2.380104 1_455
O14 Sm6 2.387046 1_555
O15 Sm5 2.380104 1_555
O15 Sm5 2.387046 1_655
O16 Sm5 2.278607 1_554
O16 Sm7 2.329717 1_455
O16 Sm7 2.370242 1_555
O17 Sm7 2.321794 1_555
O17 Sm6 2.325702 1_555
O18 Sm0 2.285099 1_565
O18 Sm6 2.327781 1_455
O18 Sm6 2.373390 1_555
O19 Sm0 2.371538 1_665
O19 Sm0 2.403903 1_565
