# generated using pymatgen
data_Nd7V(Se2O)4
_symmetry_space_group_name_H-M   'P 1'
_cell_length_a   4.04792500
_cell_length_b   14.48293300
_cell_length_c   15.84763100
_cell_angle_alpha   90.00000000
_cell_angle_beta   90.00000000
_cell_angle_gamma   90.00000000
_symmetry_Int_Tables_number   1
_chemical_formula_structural   Nd7V(Se2O)4
_chemical_formula_sum   'Nd14 V2 Se16 O8'
_cell_volume   929.08046646
_cell_formula_units_Z   2
loop_
 _symmetry_equiv_pos_site_id
 _symmetry_equiv_pos_as_xyz
  1  'x, y, z'
loop_
 _atom_site_type_symbol
 _atom_site_label
 _atom_site_symmetry_multiplicity
 _atom_site_fract_x
 _atom_site_fract_y
 _atom_site_fract_z
 _atom_site_occupancy
  Nd  Nd0  1  0.00000000  0.79075200  0.88155100  1
  Nd  Nd1  1  0.50000000  0.99322400  0.81103500  1
  Nd  Nd2  1  0.00000000  0.29075200  0.61844900  1
  Nd  Nd3  1  0.00000000  0.00000000  0.50000000  1
  Nd  Nd4  1  0.50000000  0.49322400  0.68896500  1
  Nd  Nd5  1  0.50000000  0.21967800  0.33617100  1
  Nd  Nd6  1  0.50000000  0.50677600  0.31103500  1
  Nd  Nd7  1  0.00000000  0.20924800  0.11844900  1
  Nd  Nd8  1  0.50000000  0.78032200  0.66382900  1
  Nd  Nd9  1  0.50000000  0.00677600  0.18896500  1
  Nd  Nd10  1  0.00000000  0.50000000  0.00000000  1
  Nd  Nd11  1  0.00000000  0.70924800  0.38155100  1
  Nd  Nd12  1  0.50000000  0.71967800  0.16382900  1
  Nd  Nd13  1  0.50000000  0.28032200  0.83617100  1
  V  V0  1  0.00000000  0.50000000  0.50000000  1
  V  V1  1  0.00000000  0.00000000  0.00000000  1
  Se  Se0  1  0.50000000  0.38181000  0.46851400  1
  Se  Se1  1  0.50000000  0.11819000  0.96851400  1
  Se  Se2  1  0.00000000  0.65601400  0.73557900  1
  Se  Se3  1  0.50000000  0.88181000  0.03148600  1
  Se  Se4  1  0.50000000  0.85418900  0.47183600  1
  Se  Se5  1  0.00000000  0.15601400  0.76442100  1
  Se  Se6  1  0.00000000  0.84398600  0.23557900  1
  Se  Se7  1  0.00000000  0.34398600  0.26442100  1
  Se  Se8  1  0.00000000  0.56979700  0.17259700  1
  Se  Se9  1  0.50000000  0.35418900  0.02816400  1
  Se  Se10  1  0.00000000  0.06979700  0.32740300  1
  Se  Se11  1  0.50000000  0.64581100  0.97183600  1
  Se  Se12  1  0.00000000  0.43020300  0.82740300  1
  Se  Se13  1  0.00000000  0.93020300  0.67259700  1
  Se  Se14  1  0.50000000  0.14581100  0.52816400  1
  Se  Se15  1  0.50000000  0.61819000  0.53148600  1
  O  O0  1  0.00000000  0.54473100  0.38205400  1
  O  O1  1  0.00000000  0.45526900  0.61794600  1
  O  O2  1  0.50000000  0.82753200  0.81195100  1
  O  O3  1  0.00000000  0.04473100  0.11794600  1
  O  O4  1  0.00000000  0.95526900  0.88205400  1
  O  O5  1  0.50000000  0.17246800  0.18804900  1
  O  O6  1  0.50000000  0.32753200  0.68804900  1
  O  O7  1  0.50000000  0.67246800  0.31195100  1
loop_
_geom_bond_atom_site_label_1
_geom_bond_atom_site_label_2
_geom_bond_distance
_geom_bond_site_symmetry_2
Nd0 O2 2.365750 1_455
Nd0 O2 2.365750 1_555
Nd0 O4 2.382702 1_555
Nd0 Se2 3.026446 1_555
Nd0 Se11 3.248098 1_555
Nd0 Se11 3.248098 1_455
Nd0 Se3 3.388443 1_456
Nd0 Se3 3.388443 1_556
Nd1 O4 2.380190 1_655
Nd1 O4 2.380190 1_555
Nd1 O2 2.399750 1_555
Nd1 Se1 3.082857 1_565
Nd1 Se13 3.121339 1_555
Nd1 Se13 3.121339 1_655
Nd1 Se5 3.193865 1_665
Nd1 Se5 3.193865 1_565
Nd2 O6 2.365750 1_455
Nd2 O6 2.365750 1_555
Nd2 O1 2.382702 1_555
Nd2 Se5 3.026446 1_555
Nd2 Se14 3.248098 1_555
Nd2 Se14 3.248098 1_455
Nd2 Se0 3.388443 1_455
Nd2 Se0 3.388443 1_555
Nd3 Se10 2.916069 1_555
Nd3 Se13 2.916069 1_545
Nd3 Se14 2.958921 1_455
Nd3 Se14 2.958921 1_555
Nd3 Se4 2.958921 1_445
Nd3 Se4 2.958921 1_545
Nd4 O1 2.380190 1_655
Nd4 O1 2.380190 1_555
Nd4 O6 2.399750 1_555
Nd4 Se15 3.082857 1_555
Nd4 Se12 3.121339 1_555
Nd4 Se12 3.121339 1_655
Nd4 Se2 3.193865 1_555
Nd4 Se2 3.193865 1_655
Nd5 O5 2.444935 1_555
Nd5 Se7 2.937786 1_555
Nd5 Se7 2.937786 1_655
Nd5 Se10 2.971152 1_555
Nd5 Se10 2.971152 1_655
Nd5 Se0 3.148421 1_555
Nd5 Se14 3.225231 1_555
Nd6 O0 2.380190 1_655
Nd6 O0 2.380190 1_555
Nd6 O7 2.399750 1_555
Nd6 Se0 3.082857 1_555
Nd6 Se8 3.121339 1_655
Nd6 Se8 3.121339 1_555
Nd6 Se7 3.193865 1_555
Nd6 Se7 3.193865 1_655
Nd7 O5 2.365750 1_555
Nd7 O5 2.365750 1_455
Nd7 O3 2.382702 1_555
Nd7 Se7 3.026446 1_555
Nd7 Se9 3.248098 1_555
Nd7 Se9 3.248098 1_455
Nd7 Se1 3.388443 1_454
Nd7 Se1 3.388443 1_554
Nd8 O2 2.444935 1_555
Nd8 Se2 2.937786 1_655
Nd8 Se2 2.937786 1_555
Nd8 Se13 2.971152 1_555
Nd8 Se13 2.971152 1_655
Nd8 Se15 3.148421 1_555
Nd8 Se4 3.225231 1_555
Nd9 O3 2.380190 1_555
Nd9 O3 2.380190 1_655
Nd9 O5 2.399750 1_555
Nd9 Se3 3.082857 1_545
Nd9 Se10 3.121339 1_655
Nd9 Se10 3.121339 1_555
Nd9 Se6 3.193865 1_645
Nd9 Se6 3.193865 1_545
Nd10 Se12 2.916069 1_554
Nd10 Se8 2.916069 1_555
Nd10 Se9 2.958921 1_455
Nd10 Se9 2.958921 1_555
Nd10 Se11 2.958921 1_554
Nd10 Se11 2.958921 1_454
Nd11 O7 2.365750 1_555
Nd11 O7 2.365750 1_455
Nd11 O0 2.382702 1_555
Nd11 Se6 3.026446 1_555
Nd11 Se4 3.248098 1_455
Nd11 Se4 3.248098 1_555
Nd11 Se15 3.388443 1_555
Nd11 Se15 3.388443 1_455
Nd12 O7 2.444935 1_555
Nd12 Se6 2.937786 1_655
Nd12 Se6 2.937786 1_555
Nd12 Se8 2.971152 1_555
Nd12 Se8 2.971152 1_655
Nd12 Se3 3.148421 1_555
Nd12 Se11 3.225231 1_554
Nd13 O6 2.444935 1_555
Nd13 Se5 2.937786 1_555
Nd13 Se5 2.937786 1_655
Nd13 Se12 2.971152 1_555
Nd13 Se12 2.971152 1_655
Nd13 Se1 3.148421 1_555
Nd13 Se9 3.225231 1_556
Se0 V0 2.697304 1_555
Se0 V0 2.697304 1_655
Se1 V1 2.697304 1_556
Se1 V1 2.697304 1_656
Se3 V1 2.697304 1_565
Se3 V1 2.697304 1_665
Se15 V0 2.697304 1_555
Se15 V0 2.697304 1_655
O0 V0 1.978249 1_555
O1 V0 1.978249 1_555
O3 V1 1.978249 1_555
O4 V1 1.978249 1_566
