# generated using pymatgen
data_Ba4Ce2O7
_symmetry_space_group_name_H-M   'P 1'
_cell_length_a   19.19785121
_cell_length_b   11.37933552
_cell_length_c   7.86691282
_cell_angle_alpha   90.00000000
_cell_angle_beta   91.26491590
_cell_angle_gamma   90.00000000
_symmetry_Int_Tables_number   1
_chemical_formula_structural   Ba4Ce2O7
_chemical_formula_sum   'Ba24 Ce12 O42'
_cell_volume   1718.17746079
_cell_formula_units_Z   6
loop_
 _symmetry_equiv_pos_site_id
 _symmetry_equiv_pos_as_xyz
  1  'x, y, z'
loop_
 _atom_site_type_symbol
 _atom_site_label
 _atom_site_symmetry_multiplicity
 _atom_site_fract_x
 _atom_site_fract_y
 _atom_site_fract_z
 _atom_site_occupancy
  Ba  Ba0  1  0.08576084  0.40086655  0.83669486  1
  Ba  Ba1  1  0.08911882  0.75216598  0.97439646  1
  Ba  Ba2  1  0.08576084  0.09913345  0.33669486  1
  Ba  Ba3  1  0.08911882  0.74783402  0.47439646  1
  Ba  Ba4  1  0.24885069  0.94423636  0.69866381  1
  Ba  Ba5  1  0.25414533  0.27190662  0.53129591  1
  Ba  Ba6  1  0.24885069  0.55576364  0.19866381  1
  Ba  Ba7  1  0.25414533  0.22809338  0.03129591  1
  Ba  Ba8  1  0.41968171  0.77922990  0.01606838  1
  Ba  Ba9  1  0.41015059  0.44515911  0.83277318  1
  Ba  Ba10  1  0.41968171  0.72077010  0.51606838  1
  Ba  Ba11  1  0.41015059  0.05484089  0.33277318  1
  Ba  Ba12  1  0.58984941  0.94515911  0.66722682  1
  Ba  Ba13  1  0.58031829  0.27922990  0.48393162  1
  Ba  Ba14  1  0.58984941  0.55484089  0.16722682  1
  Ba  Ba15  1  0.58031829  0.22077010  0.98393162  1
  Ba  Ba16  1  0.74585467  0.77190662  0.96870409  1
  Ba  Ba17  1  0.75114931  0.44423636  0.80133619  1
  Ba  Ba18  1  0.74585467  0.72809338  0.46870409  1
  Ba  Ba19  1  0.75114931  0.05576364  0.30133619  1
  Ba  Ba20  1  0.91088118  0.25216598  0.52560354  1
  Ba  Ba21  1  0.91423916  0.90086655  0.66330514  1
  Ba  Ba22  1  0.91088118  0.24783402  0.02560354  1
  Ba  Ba23  1  0.91423916  0.59913345  0.16330514  1
  Ce  Ce0  1  0.08128616  0.07525197  0.82615641  1
  Ce  Ce1  1  0.08128616  0.42474803  0.32615641  1
  Ce  Ce2  1  0.24084339  0.57755177  0.68928709  1
  Ce  Ce3  1  0.24084339  0.92244823  0.18928709  1
  Ce  Ce4  1  0.41705597  0.07976239  0.82249671  1
  Ce  Ce5  1  0.41705597  0.42023761  0.32249671  1
  Ce  Ce6  1  0.58294403  0.57976239  0.67750329  1
  Ce  Ce7  1  0.58294403  0.92023761  0.17750329  1
  Ce  Ce8  1  0.75915661  0.07755177  0.81071291  1
  Ce  Ce9  1  0.75915661  0.42244823  0.31071291  1
  Ce  Ce10  1  0.91871384  0.57525197  0.67384359  1
  Ce  Ce11  1  0.91871384  0.92474803  0.17384359  1
  O  O0  1  0.00239324  0.20845820  0.78659075  1
  O  O1  1  0.00239324  0.29154180  0.28659075  1
  O  O2  1  0.07808500  0.95908119  0.61193822  1
  O  O3  1  0.07808500  0.54091881  0.11193822  1
  O  O4  1  0.16257401  0.19430723  0.76471513  1
  O  O5  1  0.14792753  0.50490412  0.55179051  1
  O  O6  1  0.16257401  0.30569277  0.26471513  1
  O  O7  1  0.14792753  0.99509588  0.05179051  1
  O  O8  1  0.19567324  0.74428992  0.75483085  1
  O  O9  1  0.23759131  0.45636925  0.89978581  1
  O  O10  1  0.19567324  0.75571008  0.25483085  1
  O  O11  1  0.23759131  0.04363075  0.39978581  1
  O  O12  1  0.33149029  0.50094556  0.52950246  1
  O  O13  1  0.34990644  0.23245579  0.78373430  1
  O  O14  1  0.33149029  0.99905444  0.02950246  1
  O  O15  1  0.34990644  0.26754421  0.28373430  1
  O  O16  1  0.38993209  0.93722237  0.64470405  1
  O  O17  1  0.38993209  0.56277763  0.14470405  1
  O  O18  1  0.48947379  0.65357453  0.81032775  1
  O  O19  1  0.51052621  0.15357453  0.68967225  1
  O  O20  1  0.50000000  0.50000000  0.50000000  1
  O  O21  1  0.48947379  0.84642547  0.31032775  1
  O  O22  1  0.51052621  0.34642547  0.18967225  1
  O  O23  1  0.50000000  0.00000000  0.00000000  1
  O  O24  1  0.61006791  0.43722237  0.85529595  1
  O  O25  1  0.61006791  0.06277763  0.35529595  1
  O  O26  1  0.65009356  0.73245579  0.71626570  1
  O  O27  1  0.66850971  0.00094556  0.97049754  1
  O  O28  1  0.65009356  0.76754421  0.21626570  1
  O  O29  1  0.66850971  0.49905444  0.47049754  1
  O  O30  1  0.76240869  0.95636925  0.60021419  1
  O  O31  1  0.80432676  0.24428992  0.74516915  1
  O  O32  1  0.76240869  0.54363075  0.10021419  1
  O  O33  1  0.80432676  0.25571008  0.24516915  1
  O  O34  1  0.85207247  0.00490412  0.94820949  1
  O  O35  1  0.83742599  0.69430723  0.73528487  1
  O  O36  1  0.85207247  0.49509588  0.44820949  1
  O  O37  1  0.83742599  0.80569277  0.23528487  1
  O  O38  1  0.92191500  0.45908119  0.88806178  1
  O  O39  1  0.92191500  0.04091881  0.38806178  1
  O  O40  1  0.99760676  0.70845820  0.71340925  1
  O  O41  1  0.99760676  0.79154180  0.21340925  1
loop_
_geom_bond_atom_site_label_1
_geom_bond_atom_site_label_2
_geom_bond_distance
_geom_bond_site_symmetry_2
Ba0 O3 2.695233 1_556
Ba0 O0 2.735483 1_555
Ba0 O5 2.822682 1_555
Ba0 O4 2.838483 1_555
Ba0 O9 3.012895 1_555
Ba0 O38 3.248437 1_455
Ba1 O41 2.639807 1_456
Ba1 O3 2.646561 1_556
Ba1 O8 2.707795 1_555
Ba1 O40 2.718468 1_455
Ba1 O10 2.975573 1_556
Ba1 O7 3.042498 1_556
Ba2 O2 2.695233 1_545
Ba2 O1 2.735483 1_555
Ba2 O7 2.822682 1_545
Ba2 O6 2.838483 1_555
Ba2 O11 3.012895 1_555
Ba2 O39 3.248437 1_455
Ba3 O40 2.639807 1_455
Ba3 O2 2.646561 1_555
Ba3 O10 2.707795 1_555
Ba3 O41 2.718468 1_455
Ba3 O8 2.975573 1_555
Ba3 O5 3.042498 1_555
Ba4 O8 2.536568 1_555
Ba4 O11 2.613791 1_565
Ba4 O16 2.751924 1_555
Ba4 O14 3.081841 1_556
Ba4 O2 3.338075 1_555
Ba4 O4 3.339025 1_565
Ba4 O7 3.470432 1_556
Ba5 O15 2.707991 1_555
Ba5 O13 2.713656 1_555
Ba5 O4 2.717478 1_555
Ba5 O6 2.733792 1_555
Ba5 O11 2.811495 1_555
Ba5 O12 2.999797 1_555
Ba5 O5 3.350873 1_555
Ba6 O10 2.536568 1_555
Ba6 O9 2.613791 1_554
Ba6 O17 2.751924 1_555
Ba6 O12 3.081841 1_555
Ba6 O3 3.338075 1_555
Ba6 O6 3.339025 1_555
Ba6 O5 3.470432 1_555
Ba7 O13 2.707991 1_554
Ba7 O15 2.713656 1_555
Ba7 O6 2.717478 1_555
Ba7 O4 2.733792 1_554
Ba7 O9 2.811495 1_554
Ba7 O14 2.999797 1_545
Ba7 O7 3.350873 1_545
Ba8 O18 2.560310 1_554
Ba8 O17 2.728105 1_555
Ba8 O21 2.757132 1_555
Ba8 O23 2.951846 1_565
Ba8 O14 3.023722 1_555
Ba9 O13 2.706511 1_555
Ba9 O18 2.826075 1_555
Ba9 O17 2.829465 1_556
Ba9 O12 2.866428 1_555
Ba9 O20 3.227620 1_555
Ba9 O9 3.368342 1_555
Ba10 O21 2.560310 1_555
Ba10 O16 2.728105 1_555
Ba10 O18 2.757132 1_555
Ba10 O20 2.951846 1_555
Ba10 O12 3.023722 1_555
Ba11 O15 2.706511 1_555
Ba11 O21 2.826075 1_545
Ba11 O16 2.829465 1_545
Ba11 O14 2.866428 1_545
Ba11 O23 3.227620 1_555
Ba11 O11 3.368342 1_555
Ba12 O26 2.706511 1_555
Ba12 O19 2.826075 1_565
Ba12 O25 2.829465 1_565
Ba12 O27 2.866428 1_565
Ba12 O23 3.227620 1_566
Ba12 O30 3.368342 1_555
Ba13 O19 2.560310 1_555
Ba13 O25 2.728105 1_555
Ba13 O22 2.757132 1_555
Ba13 O20 2.951846 1_555
Ba13 O29 3.023722 1_555
Ba14 O28 2.706511 1_555
Ba14 O22 2.826075 1_555
Ba14 O24 2.829465 1_554
Ba14 O29 2.866428 1_555
Ba14 O20 3.227620 1_555
Ba14 O32 3.368342 1_555
Ba15 O22 2.560310 1_556
Ba15 O24 2.728105 1_555
Ba15 O19 2.757132 1_555
Ba15 O23 2.951846 1_556
Ba15 O27 3.023722 1_555
Ba16 O28 2.707991 1_556
Ba16 O26 2.713656 1_555
Ba16 O35 2.717478 1_555
Ba16 O37 2.733792 1_556
Ba16 O32 2.811495 1_556
Ba16 O27 2.999797 1_565
Ba16 O34 3.350873 1_565
Ba17 O31 2.536568 1_555
Ba17 O32 2.613791 1_556
Ba17 O24 2.751924 1_555
Ba17 O29 3.081841 1_555
Ba17 O38 3.338075 1_555
Ba17 O35 3.339025 1_555
Ba17 O36 3.470432 1_555
Ba18 O26 2.707991 1_555
Ba18 O28 2.713656 1_555
Ba18 O37 2.717478 1_555
Ba18 O35 2.733792 1_555
Ba18 O30 2.811495 1_555
Ba18 O29 2.999797 1_555
Ba18 O36 3.350873 1_555
Ba19 O33 2.536568 1_555
Ba19 O30 2.613791 1_545
Ba19 O25 2.751924 1_555
Ba19 O27 3.081841 1_554
Ba19 O39 3.338075 1_555
Ba19 O37 3.339025 1_545
Ba19 O34 3.470432 1_554
Ba20 O1 2.639807 1_655
Ba20 O39 2.646561 1_555
Ba20 O31 2.707795 1_555
Ba20 O0 2.718468 1_655
Ba20 O33 2.975573 1_555
Ba20 O36 3.042498 1_555
Ba21 O39 2.695233 1_565
Ba21 O40 2.735483 1_555
Ba21 O34 2.822682 1_565
Ba21 O35 2.838483 1_555
Ba21 O30 3.012895 1_555
Ba21 O2 3.248437 1_655
Ba22 O0 2.639807 1_654
Ba22 O38 2.646561 1_554
Ba22 O33 2.707795 1_555
Ba22 O1 2.718468 1_655
Ba22 O31 2.975573 1_554
Ba22 O34 3.042498 1_554
Ba23 O38 2.695233 1_554
Ba23 O41 2.735483 1_555
Ba23 O36 2.822682 1_555
Ba23 O37 2.838483 1_555
Ba23 O32 3.012895 1_555
Ba23 O3 3.248437 1_655
Ce0 O4 2.130178 1_555
Ce0 O2 2.141674 1_545
Ce0 O0 2.160474 1_555
Ce0 O7 2.349314 1_546
Ce1 O6 2.130178 1_555
Ce1 O3 2.141674 1_555
Ce1 O1 2.160474 1_555
Ce1 O5 2.349314 1_555
Ce2 O8 2.153510 1_555
Ce2 O9 2.156917 1_555
Ce2 O5 2.224887 1_555
Ce2 O12 2.337724 1_555
Ce3 O10 2.153510 1_555
Ce3 O11 2.156917 1_565
Ce3 O7 2.224887 1_555
Ce3 O14 2.337724 1_555
Ce4 O13 2.180954 1_555
Ce4 O16 2.196865 1_545
Ce4 O19 2.258339 1_555
Ce4 O23 2.282796 1_556
Ce4 O14 2.512361 1_546
Ce5 O15 2.180954 1_555
Ce5 O17 2.196865 1_555
Ce5 O22 2.258339 1_555
Ce5 O20 2.282796 1_555
Ce5 O12 2.512361 1_555
Ce6 O26 2.180954 1_555
Ce6 O24 2.196865 1_555
Ce6 O18 2.258339 1_555
Ce6 O20 2.282796 1_555
Ce6 O29 2.512361 1_555
Ce7 O28 2.180954 1_555
Ce7 O25 2.196865 1_565
Ce7 O21 2.258339 1_555
Ce7 O23 2.282796 1_565
Ce7 O27 2.512361 1_564
Ce8 O31 2.153510 1_555
Ce8 O30 2.156917 1_545
Ce8 O34 2.224887 1_555
Ce8 O27 2.337724 1_555
Ce9 O33 2.153510 1_555
Ce9 O32 2.156917 1_555
Ce9 O36 2.224887 1_555
Ce9 O29 2.337724 1_555
Ce10 O35 2.130178 1_555
Ce10 O38 2.141674 1_555
Ce10 O40 2.160474 1_555
Ce10 O36 2.349314 1_555
Ce11 O37 2.130178 1_555
Ce11 O39 2.141674 1_565
Ce11 O41 2.160474 1_555
Ce11 O34 2.349314 1_564
