# generated using pymatgen
data_Li5Fe5Si7O24
_symmetry_space_group_name_H-M   'P 1'
_cell_length_a   7.86413100
_cell_length_b   7.94624588
_cell_length_c   9.50522826
_cell_angle_alpha   89.03556868
_cell_angle_beta   89.68223595
_cell_angle_gamma   89.50975027
_symmetry_Int_Tables_number   1
_chemical_formula_structural   Li5Fe5Si7O24
_chemical_formula_sum   'Li5 Fe5 Si7 O24'
_cell_volume   593.87018758
_cell_formula_units_Z   1
loop_
 _symmetry_equiv_pos_site_id
 _symmetry_equiv_pos_as_xyz
  1  'x, y, z'
loop_
 _atom_site_type_symbol
 _atom_site_label
 _atom_site_symmetry_multiplicity
 _atom_site_fract_x
 _atom_site_fract_y
 _atom_site_fract_z
 _atom_site_occupancy
  Li  Li0  1  0.30675000  0.58215000  0.73413800  1
  Li  Li1  1  0.74060400  0.49719000  0.25600700  1
  Li  Li2  1  0.52753100  0.25525400  0.27788800  1
  Li  Li3  1  0.02123000  0.23725700  0.98075400  1
  Li  Li4  1  0.23999200  0.00521300  0.00312900  1
  Fe  Fe0  1  0.18277300  0.61537700  0.00069200  1
  Fe  Fe1  1  0.83066500  0.38047600  0.52695200  1
  Fe  Fe2  1  0.11483100  0.32301800  0.25770800  1
  Fe  Fe3  1  0.62222300  0.18028800  0.00085900  1
  Fe  Fe4  1  0.33531200  0.12361100  0.72868400  1
  Si  Si0  1  0.07643800  0.90702200  0.24605900  1
  Si  Si1  1  0.67449900  0.87850500  0.24552400  1
  Si  Si2  1  0.37306600  0.82748600  0.47215400  1
  Si  Si3  1  0.88963100  0.67529400  0.76733900  1
  Si  Si4  1  0.60240300  0.59204200  0.00698500  1
  Si  Si5  1  0.41417500  0.42818000  0.49310500  1
  Si  Si6  1  0.91981900  0.07306600  0.76120400  1
  O  O0  1  0.37719000  0.94630000  0.60729800  1
  O  O1  1  0.87636600  0.87157800  0.28977600  1
  O  O2  1  0.86994900  0.87760900  0.73955600  1
  O  O3  1  0.54882300  0.84948500  0.38045700  1
  O  O4  1  0.20028400  0.86176700  0.37953700  1
  O  O5  1  0.14044000  0.80445400  0.10811200  1
  O  O6  1  0.64623900  0.71401200  0.14357500  1
  O  O7  1  0.74947200  0.62215200  0.88969300  1
  O  O8  1  0.08394900  0.63179000  0.81982900  1
  O  O9  1  0.36679300  0.62812400  0.52737800  1
  O  O10  1  0.41564100  0.62217500  0.93830100  1
  O  O11  1  0.85165600  0.57514000  0.62640600  1
  O  O12  1  0.10696800  0.41691200  0.07543900  1
  O  O13  1  0.60940400  0.39997200  0.43708400  1
  O  O14  1  0.61996400  0.40353500  0.08348500  1
  O  O15  1  0.93021400  0.40912800  0.34894800  1
  O  O16  1  0.31627900  0.34998100  0.35860700  1
  O  O17  1  0.36760300  0.34138700  0.64546500  1
  O  O18  1  0.88270100  0.17942200  0.61898300  1
  O  O19  1  0.81955100  0.15271300  0.89801400  1
  O  O20  1  0.43427400  0.10512400  0.90859100  1
  O  O21  1  0.10379600  0.09951000  0.18706900  1
  O  O22  1  0.11702200  0.09419600  0.81875500  1
  O  O23  1  0.62109100  0.06033500  0.17763800  1
loop_
_geom_bond_atom_site_label_1
_geom_bond_atom_site_label_2
_geom_bond_distance
_geom_bond_site_symmetry_2
Li0 O8 1.967781 1_555
Li0 O9 2.046293 1_555
Li0 O17 2.152616 1_555
Li0 O10 2.155069 1_555
Li1 O15 1.862655 1_555
Li1 O14 2.052680 1_555
Li1 O13 2.138452 1_555
Li1 O6 2.141542 1_555
Li2 O23 1.967432 1_555
Li2 O16 1.974623 1_555
Li2 O13 2.027014 1_555
Li2 O14 2.292973 1_555
Li3 O12 1.835503 1_556
Li3 O19 1.906619 1_455
Li3 O22 2.064536 1_555
Li3 O21 2.322755 1_556
Li4 O20 1.937437 1_554
Li4 O5 2.027988 1_545
Li4 O22 2.114675 1_554
Li4 O21 2.185202 1_555
Fe0 O12 1.822344 1_555
Fe0 O5 1.857432 1_555
Fe0 O8 1.892614 1_554
Fe0 O10 1.922722 1_554
Fe1 O11 1.835475 1_555
Fe1 O18 1.852250 1_555
Fe1 O15 1.871594 1_555
Fe1 O13 1.946482 1_555
Fe2 O15 1.821324 1_455
Fe2 O16 1.872172 1_555
Fe2 O12 1.875891 1_555
Fe2 O21 1.912104 1_555
Fe3 O20 1.832397 1_554
Fe3 O19 1.842915 1_554
Fe3 O23 1.917858 1_555
Fe3 O14 1.952007 1_555
Fe4 O0 1.862109 1_545
Fe4 O20 1.885709 1_555
Fe4 O17 1.908937 1_555
Fe4 O22 1.928308 1_555
O0 Si2 1.607597 1_555
O1 Si1 1.644771 1_555
O1 Si0 1.650440 1_655
O2 Si6 1.621882 1_565
O2 Si3 1.630988 1_555
O3 Si1 1.629369 1_555
O3 Si2 1.638994 1_555
O4 Si0 1.637049 1_555
O4 Si2 1.641450 1_555
O5 Si0 1.630501 1_555
O6 Si1 1.657396 1_555
O6 Si4 1.672385 1_555
O7 Si4 1.618433 1_556
O7 Si3 1.650157 1_555
O8 Si3 1.642335 1_455
O9 Si2 1.661521 1_555
O9 Si5 1.665898 1_555
O10 Si4 1.624824 1_556
O11 Si3 1.600464 1_555
O13 Si5 1.637076 1_555
O14 Si4 1.659066 1_555
O16 Si5 1.630662 1_555
O17 Si5 1.634608 1_555
O18 Si6 1.608921 1_555
O19 Si6 1.649600 1_555
O21 Si0 1.635743 1_545
O22 Si6 1.658153 1_455
O23 Si1 1.625317 1_545
