# generated using pymatgen
data_Li2FeP2O7
_symmetry_space_group_name_H-M   'P 1'
_cell_length_a   7.08346942
_cell_length_b   10.18526740
_cell_length_c   8.92623347
_cell_angle_alpha   114.95168221
_cell_angle_beta   78.09569987
_cell_angle_gamma   109.84392647
_symmetry_Int_Tables_number   1
_chemical_formula_structural   Li2FeP2O7
_chemical_formula_sum   'Li8 Fe4 P8 O28'
_cell_volume   547.71734285
_cell_formula_units_Z   4
loop_
 _symmetry_equiv_pos_site_id
 _symmetry_equiv_pos_as_xyz
  1  'x, y, z'
loop_
 _atom_site_type_symbol
 _atom_site_label
 _atom_site_symmetry_multiplicity
 _atom_site_fract_x
 _atom_site_fract_y
 _atom_site_fract_z
 _atom_site_occupancy
  Li  Li0  1  0.78034900  0.45910800  0.01475900  1
  Li  Li1  1  0.28014900  0.95932400  0.01518200  1
  Li  Li2  1  0.21983200  0.54067500  0.98478800  1
  Li  Li3  1  0.71972500  0.04086500  0.98525100  1
  Li  Li4  1  0.61500000  0.72376900  0.75789200  1
  Li  Li5  1  0.11458300  0.22380900  0.75751100  1
  Li  Li6  1  0.38554400  0.27616500  0.24246500  1
  Li  Li7  1  0.88504600  0.77616300  0.24202600  1
  Fe  Fe0  1  0.40938200  0.59528900  0.33745000  1
  Fe  Fe1  1  0.09043400  0.90456500  0.66230400  1
  Fe  Fe2  1  0.90913000  0.09579500  0.33785200  1
  Fe  Fe3  1  0.59088700  0.40408000  0.66230000  1
  P  P0  1  0.83640300  0.57675200  0.39140300  1
  P  P1  1  0.33616000  0.07656500  0.39134400  1
  P  P2  1  0.16377400  0.42348200  0.60867400  1
  P  P3  1  0.66362000  0.92330800  0.60857300  1
  P  P4  1  0.03018500  0.32956700  0.14276300  1
  P  P5  1  0.52954200  0.82933700  0.14286000  1
  P  P6  1  0.97048900  0.67067900  0.85717200  1
  P  P7  1  0.46980700  0.17038100  0.85723900  1
  O  O0  1  0.50919600  0.22349600  0.43416100  1
  O  O1  1  0.00821200  0.72438000  0.43525900  1
  O  O2  1  0.49166800  0.77580700  0.56482500  1
  O  O3  1  0.99063000  0.27666700  0.56582800  1
  O  O4  1  0.70161200  0.55330700  0.53903300  1
  O  O5  1  0.20165600  0.05429500  0.53957500  1
  O  O6  1  0.29835900  0.44574700  0.46043900  1
  O  O7  1  0.79846900  0.94665000  0.46090400  1
  O  O8  1  0.71374900  0.56443900  0.25745100  1
  O  O9  1  0.21326400  0.06449300  0.25766000  1
  O  O10  1  0.28664500  0.43545900  0.74232300  1
  O  O11  1  0.78616600  0.93550000  0.74252900  1
  O  O12  1  0.07508100  0.82740500  0.84965500  1
  O  O13  1  0.57510700  0.32678300  0.84898800  1
  O  O14  1  0.92473100  0.17326400  0.15122500  1
  O  O15  1  0.42472600  0.67269800  0.15053200  1
  O  O16  1  0.47877600  0.84702500  0.99463200  1
  O  O17  1  0.97903400  0.34693000  0.99446300  1
  O  O18  1  0.52099400  0.15298500  0.00548300  1
  O  O19  1  0.02117600  0.65288900  0.00537000  1
  O  O20  1  0.93791000  0.44100100  0.31178400  1
  O  O21  1  0.43557500  0.93966300  0.31183700  1
  O  O22  1  0.06470600  0.56057200  0.68817300  1
  O  O23  1  0.56246800  0.05924400  0.68822300  1
  O  O24  1  0.74312100  0.61789300  0.84321700  1
  O  O25  1  0.24235700  0.11807000  0.84377000  1
  O  O26  1  0.25761900  0.38171000  0.15614600  1
  O  O27  1  0.75694900  0.88195200  0.15670600  1
loop_
_geom_bond_atom_site_label_1
_geom_bond_atom_site_label_2
_geom_bond_distance
_geom_bond_site_symmetry_2
Li0 O13 1.998559 1_554
Li0 O8 2.006891 1_555
Li0 O17 2.032454 1_554
Li0 O19 2.146469 1_655
Li1 O12 1.995962 1_554
Li1 O9 2.005483 1_565
Li1 O16 2.032376 1_554
Li1 O18 2.146444 1_565
Li2 O15 1.996455 1_556
Li2 O10 2.005366 1_555
Li2 O19 2.031814 1_556
Li2 O17 2.146800 1_455
Li3 O14 1.998656 1_556
Li3 O11 2.006944 1_545
Li3 O18 2.032453 1_556
Li3 O16 2.147260 1_545
Li4 O24 2.051625 1_555
Li4 O11 2.131958 1_555
Li4 O4 2.138760 1_555
Li4 O16 2.171552 1_555
Li4 O2 2.391705 1_555
Li5 O25 2.054466 1_555
Li5 O5 2.130713 1_555
Li5 O10 2.132035 1_555
Li5 O17 2.170226 1_455
Li5 O3 2.388765 1_455
Li6 O26 2.053935 1_555
Li6 O6 2.131548 1_555
Li6 O9 2.132580 1_555
Li6 O18 2.170281 1_555
Li6 O0 2.386352 1_555
Li7 O27 2.050738 1_555
Li7 O8 2.132302 1_555
Li7 O7 2.138887 1_555
Li7 O19 2.170840 1_655
Li7 O1 2.390645 1_655
Fe0 O6 2.094035 1_555
Fe0 O15 2.096217 1_555
Fe0 O2 2.109878 1_555
Fe0 O26 2.160257 1_555
Fe0 O8 2.211865 1_555
Fe1 O5 2.093889 1_565
Fe1 O12 2.098092 1_555
Fe1 O1 2.106618 1_555
Fe1 O25 2.160834 1_565
Fe1 O11 2.211611 1_455
Fe2 O7 2.091088 1_545
Fe2 O14 2.093754 1_555
Fe2 O3 2.113728 1_555
Fe2 O27 2.161980 1_545
Fe2 O9 2.211947 1_655
Fe3 O13 2.092748 1_555
Fe3 O4 2.093231 1_555
Fe3 O0 2.113825 1_555
Fe3 O24 2.161068 1_555
Fe3 O10 2.212851 1_555
O0 P1 1.534068 1_555
O1 P0 1.533885 1_455
O2 P3 1.533621 1_555
O3 P2 1.533759 1_655
O4 P0 1.515524 1_555
O5 P1 1.515361 1_555
O6 P2 1.515603 1_555
O7 P3 1.515642 1_555
O8 P0 1.558307 1_555
O9 P1 1.558523 1_555
O10 P2 1.558556 1_555
O11 P3 1.558344 1_555
O12 P6 1.538991 1_455
O13 P7 1.539171 1_555
O14 P4 1.539133 1_655
O15 P5 1.538921 1_555
O16 P5 1.534209 1_556
O17 P4 1.534206 1_656
O18 P7 1.534030 1_554
O19 P6 1.534281 1_454
O20 P0 1.602778 1_555
O20 P4 1.625957 1_655
O21 P1 1.602941 1_565
O21 P5 1.626159 1_555
O22 P2 1.602956 1_555
O22 P6 1.626092 1_455
O23 P3 1.602702 1_545
O23 P7 1.625819 1_555
O24 P6 1.528675 1_555
O25 P7 1.528778 1_555
O26 P4 1.528629 1_555
O27 P5 1.528862 1_555
