# generated using pymatgen
data_Li5V6O5F19
_symmetry_space_group_name_H-M   'P 1'
_cell_length_a   5.18468617
_cell_length_b   5.38647827
_cell_length_c   16.17766521
_cell_angle_alpha   79.99667953
_cell_angle_beta   89.88711577
_cell_angle_gamma   89.86550603
_symmetry_Int_Tables_number   1
_chemical_formula_structural   Li5V6O5F19
_chemical_formula_sum   'Li5 V6 O5 F19'
_cell_volume   444.92673839
_cell_formula_units_Z   1
loop_
 _symmetry_equiv_pos_site_id
 _symmetry_equiv_pos_as_xyz
  1  'x, y, z'
loop_
 _atom_site_type_symbol
 _atom_site_label
 _atom_site_symmetry_multiplicity
 _atom_site_fract_x
 _atom_site_fract_y
 _atom_site_fract_z
 _atom_site_occupancy
  Li  Li0  1  0.71463600  0.02386400  0.50629500  1
  Li  Li1  1  0.95844400  0.22050600  0.78901600  1
  Li  Li2  1  0.82715300  0.62537300  0.17382100  1
  Li  Li3  1  0.29195300  0.51872000  0.48828500  1
  Li  Li4  1  0.03328600  0.65275500  0.89043100  1
  V  V0  1  0.50871400  0.49188900  0.99993300  1
  V  V1  1  0.02726500  0.36080000  0.33418200  1
  V  V2  1  0.98263400  0.03247500  0.00069900  1
  V  V3  1  0.46584600  0.18881600  0.67178200  1
  V  V4  1  0.52183100  0.80968500  0.32776100  1
  V  V5  1  0.97549200  0.69983300  0.66363900  1
  O  O0  1  0.20947000  0.36014500  0.68772400  1
  O  O1  1  0.28400600  0.54958500  0.35370900  1
  O  O2  1  0.78195400  0.61111300  0.31309400  1
  O  O3  1  0.79142800  0.30362500  0.97901800  1
  O  O4  1  0.78160500  0.94845100  0.64531900  1
  F  F0  1  0.29964500  0.19018400  0.02302100  1
  F  F1  1  0.22038800  0.04470700  0.35457900  1
  F  F2  1  0.71950900  0.10962400  0.32064000  1
  F  F3  1  0.43091500  0.20574600  0.55168700  1
  F  F4  1  0.08275100  0.01643100  0.88586800  1
  F  F5  1  0.07462500  0.37124900  0.22109300  1
  F  F6  1  0.93175700  0.28297800  0.44962100  1
  F  F7  1  0.58536500  0.47631700  0.11163800  1
  F  F8  1  0.61671200  0.12028200  0.77759100  1
  F  F9  1  0.18684600  0.68705600  0.01868600  1
  F  F10  1  0.71631800  0.45675500  0.63983300  1
  F  F11  1  0.91993400  0.58024600  0.78273400  1
  F  F12  1  0.38457400  0.53674600  0.89061200  1
  F  F13  1  0.90851400  0.94516000  0.11267500  1
  F  F14  1  0.09652500  0.71578700  0.55326600  1
  F  F15  1  0.57075500  0.77252200  0.44939100  1
  F  F16  1  0.42450700  0.88431500  0.22032700  1
  F  F17  1  0.28139700  0.86599900  0.69723300  1
  F  F18  1  0.70218200  0.80623900  0.97296700  1
loop_
_geom_bond_atom_site_label_1
_geom_bond_atom_site_label_2
_geom_bond_distance
_geom_bond_site_symmetry_2
Li0 O4 2.242535 1_545
Li1 O0 2.124348 1_655
Li2 O2 2.252823 1_555
Li3 O1 2.154945 1_555
Li4 O3 2.496104 1_455
O0 V3 1.661509 1_555
O0 V5 2.171424 1_455
O1 V1 1.739353 1_555
O1 V4 1.860440 1_555
O2 V4 1.760501 1_555
O2 V1 1.840054 1_655
O3 V2 1.748020 1_556
O3 V0 1.844352 1_555
O4 V5 1.657924 1_555
O4 V3 2.172456 1_565
F0 V2 1.915450 1_455
F0 V0 1.936829 1_554
F1 V1 1.951539 1_555
F1 V4 2.100547 1_545
F2 V4 1.901722 1_545
F2 V1 2.130484 1_655
F3 V3 1.937928 1_555
F3 Li3 1.951829 1_555
F3 Li0 1.975307 1_555
F4 Li1 1.865741 1_455
F4 V2 1.944148 1_456
F4 Li4 1.964863 1_545
F5 V1 1.836603 1_555
F5 Li2 1.933067 1_455
F6 Li0 1.901205 1_555
F6 V1 1.906296 1_655
F6 Li3 2.404771 1_655
F7 V0 1.838665 1_554
F7 Li2 1.875742 1_555
F8 V3 1.860794 1_555
F8 Li1 1.872226 1_555
F9 V0 2.020545 1_554
F9 V2 2.114558 1_465
F9 Li4 2.261296 1_554
F10 V3 1.945127 1_555
F10 V5 1.963107 1_555
F11 Li1 1.932575 1_555
F11 Li4 1.942938 1_655
F11 V5 1.943584 1_555
F12 V0 1.858961 1_555
F12 Li4 1.923987 1_555
F13 V2 1.831001 1_565
F13 Li2 1.879723 1_555
F14 V5 1.879356 1_455
F14 Li3 1.907079 1_555
F15 Li0 1.917622 1_565
F15 V4 1.959873 1_555
F15 Li3 2.015241 1_555
F16 V4 1.787944 1_555
F17 V5 1.947047 1_455
F17 V3 1.966004 1_565
F18 V0 1.952729 1_555
F18 V2 2.000351 1_566
F18 Li4 2.404398 1_655
