# generated using pymatgen
data_Li2Co4O7F
_symmetry_space_group_name_H-M   'P 1'
_cell_length_a   5.70340836
_cell_length_b   5.70340836
_cell_length_c   5.78573842
_cell_angle_alpha   60.45770801
_cell_angle_beta   60.45770801
_cell_angle_gamma   61.05330043
_symmetry_Int_Tables_number   1
_chemical_formula_structural   Li2Co4O7F
_chemical_formula_sum   'Li2 Co4 O7 F1'
_cell_volume   135.04207951
_cell_formula_units_Z   1
loop_
 _symmetry_equiv_pos_site_id
 _symmetry_equiv_pos_as_xyz
  1  'x, y, z'
loop_
 _atom_site_type_symbol
 _atom_site_label
 _atom_site_symmetry_multiplicity
 _atom_site_fract_x
 _atom_site_fract_y
 _atom_site_fract_z
 _atom_site_occupancy
  Li  Li0  1  0.49950200  0.49950200  0.00093000  1
  Li  Li1  1  0.88497600  0.88497600  0.86831800  1
  Co  Co0  1  0.11548400  0.11548400  0.13144900  1
  Co  Co1  1  0.49266100  0.00212900  0.49418200  1
  Co  Co2  1  0.00212900  0.49266100  0.49418200  1
  Co  Co3  1  0.50243800  0.50243800  0.50460900  1
  O  O0  1  0.74101600  0.74101600  0.28649300  1
  O  O1  1  0.75509700  0.29355000  0.70678000  1
  O  O2  1  0.29355000  0.75509700  0.70678000  1
  O  O3  1  0.70875800  0.24774100  0.29085100  1
  O  O4  1  0.25041700  0.25041700  0.28235000  1
  O  O5  1  0.24774100  0.70875800  0.29085100  1
  O  O6  1  0.25732700  0.25732800  0.71398500  1
  F  F0  1  0.74831600  0.74831600  0.72879300  1
loop_
_geom_bond_atom_site_label_1
_geom_bond_atom_site_label_2
_geom_bond_distance
_geom_bond_site_symmetry_2
Li0 O4 2.019666 1_555
Li0 O5 2.059130 1_555
Li0 O3 2.059130 1_555
Li0 O1 2.066036 1_554
Li0 O2 2.066036 1_554
Li1 O2 1.927816 1_655
Li1 O1 1.927816 1_565
Li1 O0 1.984100 1_556
Co0 O3 1.919164 1_455
Co0 O5 1.919164 1_545
Co0 O4 1.960921 1_555
Co0 O6 1.980538 1_554
Co1 O2 1.802771 1_545
Co1 O4 1.865676 1_555
Co1 O3 1.865911 1_555
Co1 O0 1.926764 1_545
Co1 O6 1.946360 1_555
Co1 F0 2.008735 1_545
Co2 O1 1.802771 1_455
Co2 O4 1.865676 1_555
Co2 O5 1.865911 1_555
Co2 O0 1.926764 1_455
Co2 O6 1.946356 1_555
Co2 F0 2.008735 1_455
Co3 O2 1.868219 1_555
Co3 O1 1.868219 1_555
Co3 O0 1.923841 1_555
Co3 O5 1.925163 1_555
Co3 O3 1.925163 1_555
Co3 O6 1.981878 1_555
F0 Li1 1.922415 1_555
F0 Li0 2.012285 1_556
