# generated using pymatgen
data_Na2BiO3
_symmetry_space_group_name_H-M   'P 1'
_cell_length_a   5.98276482
_cell_length_b   5.98276482
_cell_length_c   5.95252810
_cell_angle_alpha   80.19609968
_cell_angle_beta   80.19609968
_cell_angle_gamma   119.79711733
_symmetry_Int_Tables_number   1
_chemical_formula_structural   Na2BiO3
_chemical_formula_sum   'Na4 Bi2 O6'
_cell_volume   173.91052398
_cell_formula_units_Z   2
loop_
 _symmetry_equiv_pos_site_id
 _symmetry_equiv_pos_as_xyz
  1  'x, y, z'
loop_
 _atom_site_type_symbol
 _atom_site_label
 _atom_site_symmetry_multiplicity
 _atom_site_fract_x
 _atom_site_fract_y
 _atom_site_fract_z
 _atom_site_occupancy
  Na  Na0  1  0.84116800  0.15883200  0.50000000  1
  Na  Na1  1  0.15883200  0.84116800  0.50000000  1
  Na  Na2  1  0.50000000  0.50000000  0.50000000  1
  Na  Na3  1  0.00000000  0.00000000  0.00000000  1
  Bi  Bi0  1  0.33313100  0.66686900  0.00000000  1
  Bi  Bi1  1  0.66686900  0.33313100  0.00000000  1
  O  O0  1  0.71400900  0.71400900  0.77476600  1
  O  O1  1  0.92651600  0.56285600  0.21908700  1
  O  O2  1  0.56285600  0.92651600  0.21908700  1
  O  O3  1  0.07348400  0.43714400  0.78091300  1
  O  O4  1  0.43714400  0.07348400  0.78091300  1
  O  O5  1  0.28599100  0.28599100  0.22523400  1
loop_
_geom_bond_atom_site_label_1
_geom_bond_atom_site_label_2
_geom_bond_distance
_geom_bond_site_symmetry_2
Na0 O4 2.450639 1_555
Na0 O1 2.450639 1_555
Na0 O0 2.533366 1_545
Na0 O5 2.533366 1_655
Na0 O3 2.634375 1_655
Na0 O2 2.634375 1_545
Na1 O3 2.450639 1_555
Na1 O2 2.450639 1_555
Na1 O0 2.533366 1_455
Na1 O5 2.533366 1_565
Na1 O4 2.634375 1_565
Na1 O1 2.634375 1_455
Na2 O0 2.398070 1_555
Na2 O5 2.398070 1_555
Na2 O1 2.613032 1_555
Na2 O4 2.613032 1_555
Na2 O2 2.613032 1_555
Na2 O3 2.613032 1_555
Na3 O1 2.496887 1_445
Na3 O2 2.496887 1_445
Na3 O3 2.496887 1_554
Na3 O4 2.496887 1_554
Na3 O0 2.511076 1_444
Na3 O5 2.511076 1_555
Bi0 O1 2.268172 1_455
Bi0 O4 2.268172 1_564
Bi0 O2 2.276220 1_555
Bi0 O3 2.276220 1_554
Bi0 O5 2.293826 1_555
Bi0 O0 2.293826 1_554
Bi1 O2 2.268172 1_545
Bi1 O3 2.268172 1_654
Bi1 O1 2.276220 1_555
Bi1 O4 2.276220 1_554
Bi1 O5 2.293826 1_555
Bi1 O0 2.293826 1_554
