# generated using pymatgen
data_Na2B8O13
_symmetry_space_group_name_H-M   'P 1'
_cell_length_a   7.96858900
_cell_length_b   10.50165400
_cell_length_c   11.86983756
_cell_angle_alpha   80.09621961
_cell_angle_beta   90.00000000
_cell_angle_gamma   90.00000000
_symmetry_Int_Tables_number   1
_chemical_formula_structural   Na2B8O13
_chemical_formula_sum   'Na8 B32 O52'
_cell_volume   978.50564852
_cell_formula_units_Z   4
loop_
 _symmetry_equiv_pos_site_id
 _symmetry_equiv_pos_as_xyz
  1  'x, y, z'
loop_
 _atom_site_type_symbol
 _atom_site_label
 _atom_site_symmetry_multiplicity
 _atom_site_fract_x
 _atom_site_fract_y
 _atom_site_fract_z
 _atom_site_occupancy
  Na  Na0  1  0.00178500  0.46507600  0.11425200  1
  Na  Na1  1  0.49734900  0.96600900  0.11361700  1
  Na  Na2  1  0.61415100  0.28149300  0.42518600  1
  Na  Na3  1  0.78710000  0.78271300  0.37513000  1
  Na  Na4  1  0.11415100  0.71850700  0.57481400  1
  Na  Na5  1  0.28710000  0.21728700  0.62487000  1
  Na  Na6  1  0.50178500  0.53492400  0.88574800  1
  Na  Na7  1  0.99734900  0.03399100  0.88638300  1
  B  B0  1  0.31866300  0.29428800  0.05864500  1
  B  B1  1  0.18166200  0.79441100  0.05841900  1
  B  B2  1  0.60729900  0.65676400  0.10018300  1
  B  B3  1  0.44845700  0.45287800  0.16790300  1
  B  B4  1  0.89292700  0.15704100  0.10046200  1
  B  B5  1  0.05191400  0.95356800  0.16756100  1
  B  B6  1  0.98075400  0.71736400  0.20613900  1
  B  B7  1  0.41377100  0.64886200  0.25672400  1
  B  B8  1  0.52105100  0.21785600  0.20647500  1
  B  B9  1  0.10265500  0.32445900  0.37417500  1
  B  B10  1  0.08563700  0.14898200  0.25678900  1
  B  B11  1  0.91284800  0.51514000  0.36413400  1
  B  B12  1  0.39556100  0.82475700  0.37463300  1
  B  B13  1  0.58714300  0.01723600  0.36423000  1
  B  B14  1  0.15763600  0.48130000  0.49752100  1
  B  B15  1  0.65763600  0.51870000  0.50247900  1
  B  B16  1  0.34311900  0.98184400  0.49793800  1
  B  B17  1  0.84311900  0.01815600  0.50206200  1
  B  B18  1  0.41284800  0.48486000  0.63586600  1
  B  B19  1  0.60265500  0.67554100  0.62582500  1
  B  B20  1  0.08714300  0.98276400  0.63577000  1
  B  B21  1  0.91377100  0.35113800  0.74327600  1
  B  B22  1  0.89556100  0.17524300  0.62536700  1
  B  B23  1  0.48075400  0.28263600  0.79386100  1
  B  B24  1  0.58563700  0.85101800  0.74321100  1
  B  B25  1  0.02105100  0.78214400  0.79352500  1
  B  B26  1  0.94845700  0.54712200  0.83209700  1
  B  B27  1  0.10729900  0.34323600  0.89981700  1
  B  B28  1  0.55191400  0.04643200  0.83243900  1
  B  B29  1  0.39292700  0.84295900  0.89953800  1
  B  B30  1  0.81866300  0.70571200  0.94135500  1
  B  B31  1  0.68166200  0.20558900  0.94158100  1
  O  O0  1  0.71730600  0.73519600  0.02832200  1
  O  O1  1  0.31883300  0.41332800  0.08928500  1
  O  O2  1  0.57470900  0.53207600  0.09299500  1
  O  O3  1  0.78285100  0.23525400  0.02827800  1
  O  O4  1  0.08244700  0.69318100  0.11513300  1
  O  O5  1  0.18144600  0.91333300  0.08917100  1
  O  O6  1  0.92497500  0.03219500  0.09302900  1
  O  O7  1  0.53035900  0.33812900  0.23364600  1
  O  O8  1  0.52401500  0.72036400  0.17787200  1
  O  O9  1  0.41875500  0.19384900  0.11500200  1
  O  O10  1  0.37066800  0.52624700  0.24921100  1
  O  O11  1  0.88518500  0.61968000  0.26505800  1
  O  O12  1  0.96975100  0.83810500  0.23204800  1
  O  O13  1  0.97708300  0.22064600  0.17714600  1
  O  O14  1  0.97938900  0.40100100  0.32068700  1
  O  O15  1  0.12926800  0.02634400  0.24906800  1
  O  O16  1  0.61350700  0.11856700  0.26462400  1
  O  O17  1  0.34885600  0.70877800  0.34277100  1
  O  O18  1  0.52266600  0.89920000  0.32174500  1
  O  O19  1  0.74899800  0.47822900  0.41850200  1
  O  O20  1  0.18653100  0.35812300  0.46854300  1
  O  O21  1  0.15093200  0.20887400  0.34261200  1
  O  O22  1  0.03062500  0.55867400  0.44648300  1
  O  O23  1  0.75049500  0.97883800  0.41844800  1
  O  O24  1  0.31274400  0.85901000  0.46810100  1
  O  O25  1  0.46938700  0.05925200  0.44600300  1
  O  O26  1  0.53062500  0.44132600  0.55351700  1
  O  O27  1  0.68653100  0.64187700  0.53145700  1
  O  O28  1  0.24899800  0.52177100  0.58149800  1
  O  O29  1  0.96938700  0.94074800  0.55399700  1
  O  O30  1  0.84885600  0.29122200  0.65722900  1
  O  O31  1  0.81274400  0.14099000  0.53189900  1
  O  O32  1  0.25049500  0.02116200  0.58155200  1
  O  O33  1  0.47938900  0.59899900  0.67931300  1
  O  O34  1  0.65093200  0.79112600  0.65738800  1
  O  O35  1  0.38518500  0.38032000  0.73494200  1
  O  O36  1  0.87066800  0.47375300  0.75078900  1
  O  O37  1  0.02266600  0.10080000  0.67825500  1
  O  O38  1  0.02401500  0.27963600  0.82212800  1
  O  O39  1  0.03035900  0.66187100  0.76635400  1
  O  O40  1  0.11350700  0.88143300  0.73537600  1
  O  O41  1  0.62926800  0.97365600  0.75093200  1
  O  O42  1  0.58244700  0.30681900  0.88486700  1
  O  O43  1  0.47708300  0.77935400  0.82285400  1
  O  O44  1  0.46975100  0.16189500  0.76795200  1
  O  O45  1  0.07470900  0.46792400  0.90700500  1
  O  O46  1  0.81883300  0.58667200  0.91071500  1
  O  O47  1  0.91875500  0.80615100  0.88499800  1
  O  O48  1  0.21730600  0.26480400  0.97167800  1
  O  O49  1  0.42497500  0.96780500  0.90697100  1
  O  O50  1  0.68144600  0.08666700  0.91082900  1
  O  O51  1  0.28285100  0.76474600  0.97172200  1
loop_
_geom_bond_atom_site_label_1
_geom_bond_atom_site_label_2
_geom_bond_distance
_geom_bond_site_symmetry_2
Na0 O14 2.433449 1_455
Na0 O4 2.481974 1_555
Na0 O45 2.522857 1_554
Na0 O13 2.554595 1_455
Na0 O1 2.611776 1_555
Na0 O11 2.775492 1_455
Na0 O46 2.920890 1_454
Na1 O18 2.457605 1_555
Na1 O9 2.476092 1_565
Na1 O49 2.516653 1_554
Na1 O8 2.569981 1_555
Na1 O5 2.604272 1_555
Na1 O16 2.761185 1_565
Na1 O50 2.915889 1_564
Na2 O19 2.318000 1_555
Na2 O7 2.345943 1_555
Na2 O31 2.375500 1_555
Na2 O26 2.541705 1_555
Na2 O25 2.576911 1_555
Na2 O16 2.771547 1_555
Na3 O23 2.226175 1_555
Na3 O12 2.236373 1_555
Na3 O27 2.308424 1_555
Na3 O11 2.453316 1_555
Na3 O18 2.464044 1_555
Na4 O28 2.318000 1_555
Na4 O39 2.345943 1_555
Na4 O24 2.375500 1_555
Na4 O22 2.541705 1_555
Na4 O29 2.576911 1_455
Na4 O40 2.771547 1_555
Na5 O32 2.226175 1_555
Na5 O44 2.236373 1_555
Na5 O20 2.308424 1_555
Na5 O35 2.453316 1_555
Na5 O37 2.464044 1_555
Na6 O33 2.433449 1_555
Na6 O42 2.481974 1_555
Na6 O2 2.522857 1_556
Na6 O43 2.554595 1_555
Na6 O46 2.611776 1_555
Na6 O35 2.775492 1_555
Na6 O1 2.920890 1_556
Na7 O37 2.457605 1_655
Na7 O47 2.476092 1_545
Na7 O6 2.516653 1_556
Na7 O38 2.569981 1_655
Na7 O50 2.604272 1_555
Na7 O40 2.761185 1_645
Na7 O5 2.915889 1_646
B0 O1 1.360685 1_555
B0 O48 1.386998 1_554
B0 O9 1.397670 1_555
B1 O5 1.360056 1_555
B1 O51 1.384380 1_554
B1 O4 1.400786 1_555
B2 O2 1.351947 1_555
B2 O0 1.390234 1_555
B2 O8 1.395985 1_555
B3 O7 1.470912 1_555
B3 O10 1.471441 1_555
B3 O2 1.496688 1_555
B3 O1 1.497861 1_555
B4 O6 1.353421 1_555
B4 O13 1.390515 1_555
B4 O3 1.391430 1_555
B5 O15 1.467792 1_565
B5 O12 1.471594 1_455
B5 O6 1.495449 1_465
B5 O5 1.498324 1_555
B6 O12 1.358005 1_555
B6 O11 1.369171 1_555
B6 O4 1.407985 1_655
B7 O10 1.350368 1_555
B7 O17 1.388433 1_555
B7 O8 1.403511 1_555
B8 O7 1.358300 1_555
B8 O16 1.363396 1_555
B8 O9 1.414601 1_555
B9 O14 1.355909 1_455
B9 O21 1.384983 1_555
B9 O20 1.400936 1_555
B10 O15 1.352247 1_555
B10 O21 1.387257 1_555
B10 O13 1.401288 1_455
B11 O19 1.478309 1_555
B11 O11 1.480793 1_555
B11 O14 1.482060 1_555
B11 O22 1.482900 1_655
B12 O18 1.364664 1_555
B12 O17 1.386886 1_555
B12 O24 1.390348 1_555
B13 O16 1.463420 1_555
B13 O25 1.471271 1_555
B13 O23 1.477121 1_545
B13 O18 1.506605 1_545
B14 O28 1.360142 1_555
B14 O22 1.371958 1_555
B14 O20 1.413395 1_555
B15 O19 1.360142 1_555
B15 O26 1.371958 1_555
B15 O27 1.413395 1_555
B16 O32 1.356926 1_565
B16 O25 1.371445 1_565
B16 O24 1.416038 1_555
B17 O23 1.356926 1_545
B17 O29 1.371445 1_545
B17 O31 1.416038 1_555
B18 O28 1.478309 1_555
B18 O35 1.480793 1_555
B18 O33 1.482060 1_555
B18 O26 1.482900 1_555
B19 O33 1.355909 1_555
B19 O34 1.384983 1_555
B19 O27 1.400936 1_555
B20 O40 1.463420 1_555
B20 O29 1.471271 1_455
B20 O32 1.477121 1_565
B20 O37 1.506605 1_565
B21 O36 1.350368 1_555
B21 O30 1.388433 1_555
B21 O38 1.403511 1_655
B22 O37 1.364664 1_655
B22 O30 1.386886 1_555
B22 O31 1.390348 1_555
B23 O44 1.358005 1_555
B23 O35 1.369171 1_555
B23 O42 1.407985 1_555
B24 O41 1.352247 1_555
B24 O34 1.387257 1_555
B24 O43 1.401288 1_555
B25 O39 1.358300 1_555
B25 O40 1.363396 1_555
B25 O47 1.414601 1_455
B26 O39 1.470912 1_655
B26 O36 1.471441 1_555
B26 O45 1.496688 1_655
B26 O46 1.497861 1_555
B27 O45 1.351947 1_555
B27 O48 1.390234 1_555
B27 O38 1.395985 1_555
B28 O41 1.467792 1_545
B28 O44 1.471594 1_555
B28 O49 1.495449 1_545
B28 O50 1.498324 1_555
B29 O49 1.353421 1_555
B29 O43 1.390515 1_555
B29 O51 1.391430 1_555
B30 O46 1.360685 1_555
B30 O0 1.386998 1_556
B30 O47 1.397670 1_555
B31 O50 1.360056 1_555
B31 O3 1.384380 1_556
B31 O42 1.400786 1_555
