# generated using pymatgen
data_Li5V5(NiO6)2
_symmetry_space_group_name_H-M   'P 1'
_cell_length_a   5.17025020
_cell_length_b   5.17025020
_cell_length_c   9.89492632
_cell_angle_alpha   85.13371720
_cell_angle_beta   85.13371720
_cell_angle_gamma   119.80842796
_symmetry_Int_Tables_number   1
_chemical_formula_structural   Li5V5(NiO6)2
_chemical_formula_sum   'Li5 V5 Ni2 O12'
_cell_volume   226.20190025
_cell_formula_units_Z   1
loop_
 _symmetry_equiv_pos_site_id
 _symmetry_equiv_pos_as_xyz
  1  'x, y, z'
loop_
 _atom_site_type_symbol
 _atom_site_label
 _atom_site_symmetry_multiplicity
 _atom_site_fract_x
 _atom_site_fract_y
 _atom_site_fract_z
 _atom_site_occupancy
  Li  Li0  1  0.83751800  0.66128300  0.26305000  1
  Li  Li1  1  0.68841600  0.85522300  0.73668100  1
  Li  Li2  1  0.33871700  0.16248200  0.73695000  1
  Li  Li3  1  0.14477700  0.31158400  0.26331900  1
  Li  Li4  1  0.07877000  0.92123000  0.50000000  1
  V  V0  1  0.57697800  0.42302200  0.00000000  1
  V  V1  1  0.42535300  0.57464700  0.50000000  1
  V  V2  1  0.91596200  0.08403800  0.00000000  1
  V  V3  1  0.00339400  0.51440900  0.74026300  1
  V  V4  1  0.48559100  0.99660600  0.25973700  1
  Ni  Ni0  1  0.75340000  0.24660000  0.50000000  1
  Ni  Ni1  1  0.24628900  0.75371100  0.00000000  1
  O  O0  1  0.05516200  0.22902500  0.62075800  1
  O  O1  1  0.77097500  0.94483800  0.37924200  1
  O  O2  1  0.84985000  0.35757600  0.12194300  1
  O  O3  1  0.64242400  0.15015000  0.87805700  1
  O  O4  1  0.71564800  0.53461200  0.62528800  1
  O  O5  1  0.46538800  0.28435200  0.37471200  1
  O  O6  1  0.55152200  0.72976300  0.11713100  1
  O  O7  1  0.27023700  0.44847800  0.88286900  1
  O  O8  1  0.36913500  0.84750100  0.62791200  1
  O  O9  1  0.15249900  0.63086500  0.37208800  1
  O  O10  1  0.21654200  0.05454700  0.11739000  1
  O  O11  1  0.94545300  0.78345800  0.88261000  1
loop_
_geom_bond_atom_site_label_1
_geom_bond_atom_site_label_2
_geom_bond_distance
_geom_bond_site_symmetry_2
Li0 O5 2.065598 1_555
Li0 O1 2.076012 1_555
Li0 O9 2.089227 1_655
Li0 O2 2.208081 1_555
Li0 O10 2.261405 1_665
Li0 O6 2.278715 1_555
Li1 O8 2.031784 1_555
Li1 O0 2.063444 1_665
Li1 O4 2.120893 1_555
Li1 O11 2.171103 1_555
Li1 O3 2.237096 1_565
Li1 O7 2.371153 1_555
Li2 O4 2.065598 1_555
Li2 O0 2.076012 1_555
Li2 O8 2.089227 1_545
Li2 O3 2.208081 1_555
Li2 O11 2.261405 1_445
Li2 O7 2.278715 1_555
Li3 O9 2.031784 1_555
Li3 O1 2.063444 1_445
Li3 O5 2.120893 1_555
Li3 O10 2.171103 1_555
Li3 O2 2.237096 1_455
Li3 O6 2.371153 1_555
Li4 O1 2.113322 1_455
Li4 O0 2.113322 1_565
Li4 O4 2.123890 1_455
Li4 O5 2.123890 1_565
Li4 O8 2.193289 1_555
Li4 O9 2.193289 1_555
Ni0 O0 2.075817 1_655
Ni0 O1 2.075817 1_545
Ni0 O4 2.086507 1_555
Ni0 O5 2.086507 1_555
Ni0 O9 2.204859 1_655
Ni0 O8 2.204859 1_545
Ni1 O10 2.075138 1_565
Ni1 O11 2.075138 1_454
Ni1 O6 2.080710 1_555
Ni1 O7 2.080710 1_554
Ni1 O2 2.199859 1_455
Ni1 O3 2.199859 1_564
O0 V1 2.033136 1_555
O0 V3 2.069301 1_555
O1 V1 2.033136 1_555
O1 V4 2.069301 1_555
O2 V0 2.062761 1_555
O2 V2 2.067137 1_555
O2 V4 2.127707 1_545
O3 V0 2.062761 1_556
O3 V2 2.067137 1_556
O3 V3 2.127707 1_655
O4 V3 1.984944 1_655
O4 V1 2.100822 1_555
O5 V4 1.984944 1_545
O5 V1 2.100822 1_555
O6 V2 2.021563 1_565
O6 V0 2.090280 1_555
O6 V4 2.174168 1_555
O7 V2 2.021563 1_456
O7 V0 2.090280 1_556
O7 V3 2.174168 1_555
O8 V3 1.964268 1_555
O8 V1 2.079604 1_555
O9 V4 1.964268 1_555
O9 V1 2.079604 1_555
O10 V0 2.044284 1_555
O10 V2 2.073507 1_455
O10 V4 2.164210 1_545
O11 V0 2.044284 1_556
O11 V2 2.073507 1_566
O11 V3 2.164210 1_655
