# generated using pymatgen
data_Ni2(SO4)3
_symmetry_space_group_name_H-M   'P 1'
_cell_length_a   8.54126939
_cell_length_b   8.66649285
_cell_length_c   23.73132549
_cell_angle_alpha   90.00000000
_cell_angle_beta   90.00000000
_cell_angle_gamma   90.00000000
_symmetry_Int_Tables_number   1
_chemical_formula_structural   Ni2(SO4)3
_chemical_formula_sum   'Ni16 S24 O96'
_cell_volume   1756.66034938
_cell_formula_units_Z   8
loop_
 _symmetry_equiv_pos_site_id
 _symmetry_equiv_pos_as_xyz
  1  'x, y, z'
loop_
 _atom_site_type_symbol
 _atom_site_label
 _atom_site_symmetry_multiplicity
 _atom_site_fract_x
 _atom_site_fract_y
 _atom_site_fract_z
 _atom_site_occupancy
  Ni  Ni0  1  0.00154653  0.39860471  0.06104966  1
  Ni  Ni1  1  0.00154653  0.10139529  0.56104966  1
  Ni  Ni2  1  0.99412322  0.79852295  0.18161637  1
  Ni  Ni3  1  0.99412322  0.70147705  0.68161637  1
  Ni  Ni4  1  0.50587678  0.29852295  0.18161637  1
  Ni  Ni5  1  0.50587678  0.20147705  0.68161637  1
  Ni  Ni6  1  0.49845347  0.60139529  0.56104966  1
  Ni  Ni7  1  0.49845347  0.89860471  0.06104966  1
  Ni  Ni8  1  0.50154653  0.39860471  0.43895034  1
  Ni  Ni9  1  0.50154653  0.10139529  0.93895034  1
  Ni  Ni10  1  0.49412322  0.70147705  0.81838363  1
  Ni  Ni11  1  0.49412322  0.79852295  0.31838363  1
  Ni  Ni12  1  0.00587678  0.29852295  0.31838363  1
  Ni  Ni13  1  0.00587678  0.20147705  0.81838363  1
  Ni  Ni14  1  0.99845347  0.89860471  0.43895034  1
  Ni  Ni15  1  0.99845347  0.60139529  0.93895034  1
  S  S0  1  0.14234056  0.94823344  0.29974295  1
  S  S1  1  0.14234056  0.55176656  0.79974295  1
  S  S2  1  0.14542763  0.25525994  0.44676282  1
  S  S3  1  0.14542763  0.24474006  0.94676282  1
  S  S4  1  0.20100592  0.09206466  0.11736884  1
  S  S5  1  0.20100592  0.40793534  0.61736884  1
  S  S6  1  0.29899408  0.59206466  0.11736884  1
  S  S7  1  0.29899408  0.90793534  0.61736884  1
  S  S8  1  0.35457237  0.74474006  0.94676282  1
  S  S9  1  0.35457237  0.75525994  0.44676282  1
  S  S10  1  0.35765944  0.44823344  0.29974295  1
  S  S11  1  0.35765944  0.05176656  0.79974295  1
  S  S12  1  0.64234056  0.55176656  0.70025705  1
  S  S13  1  0.64234056  0.94823344  0.20025705  1
  S  S14  1  0.64542763  0.25525994  0.05323718  1
  S  S15  1  0.64542763  0.24474006  0.55323718  1
  S  S16  1  0.70100592  0.09206466  0.38263116  1
  S  S17  1  0.70100592  0.40793534  0.88263116  1
  S  S18  1  0.79899408  0.59206466  0.38263116  1
  S  S19  1  0.79899408  0.90793534  0.88263116  1
  S  S20  1  0.85457237  0.75525994  0.05323718  1
  S  S21  1  0.85457237  0.74474006  0.55323718  1
  S  S22  1  0.85765944  0.44823344  0.20025705  1
  S  S23  1  0.85765944  0.05176656  0.70025705  1
  O  O0  1  0.05568539  0.39090128  0.46337154  1
  O  O1  1  0.05568539  0.10909872  0.96337154  1
  O  O2  1  0.08796085  0.10093564  0.28042232  1
  O  O3  1  0.08796085  0.39906436  0.78042232  1
  O  O4  1  0.08143252  0.11031063  0.47501084  1
  O  O5  1  0.08143252  0.38968937  0.97501084  1
  O  O6  1  0.08488818  0.91001417  0.35669978  1
  O  O7  1  0.08488818  0.58998583  0.85669978  1
  O  O8  1  0.09624145  0.18795274  0.08191258  1
  O  O9  1  0.09624145  0.31204726  0.58191258  1
  O  O10  1  0.08795664  0.82512900  0.26055216  1
  O  O11  1  0.08795664  0.67487100  0.76055216  1
  O  O12  1  0.10070622  0.00156753  0.15623240  1
  O  O13  1  0.10070622  0.49843247  0.65623240  1
  O  O14  1  0.13864272  0.22912412  0.38519523  1
  O  O15  1  0.13864272  0.27087588  0.88519523  1
  O  O16  1  0.18288532  0.44828499  0.29777218  1
  O  O17  1  0.18288532  0.05171501  0.79777218  1
  O  O18  1  0.19275120  0.68766909  0.15133391  1
  O  O19  1  0.19275120  0.81233091  0.65133391  1
  O  O20  1  0.18907700  0.72811925  0.96527420  1
  O  O21  1  0.18907700  0.77188075  0.46527420  1
  O  O22  1  0.21385823  0.01197181  0.57845627  1
  O  O23  1  0.21385823  0.48802819  0.07845627  1
  O  O24  1  0.28614177  0.51197181  0.57845627  1
  O  O25  1  0.28614177  0.98802819  0.07845627  1
  O  O26  1  0.31092300  0.22811925  0.96527420  1
  O  O27  1  0.31092300  0.27188075  0.46527420  1
  O  O28  1  0.30724880  0.18766909  0.15133391  1
  O  O29  1  0.30724880  0.31233091  0.65133391  1
  O  O30  1  0.31711468  0.94828499  0.29777218  1
  O  O31  1  0.31711468  0.55171501  0.79777218  1
  O  O32  1  0.36135728  0.72912412  0.38519523  1
  O  O33  1  0.36135728  0.77087588  0.88519523  1
  O  O34  1  0.39929378  0.99843247  0.65623240  1
  O  O35  1  0.39929378  0.50156753  0.15623240  1
  O  O36  1  0.41204336  0.32512900  0.26055216  1
  O  O37  1  0.41204336  0.17487100  0.76055216  1
  O  O38  1  0.40375855  0.68795274  0.08191258  1
  O  O39  1  0.40375855  0.81204726  0.58191258  1
  O  O40  1  0.41511182  0.08998583  0.85669978  1
  O  O41  1  0.41511182  0.41001417  0.35669978  1
  O  O42  1  0.41856748  0.88968937  0.97501084  1
  O  O43  1  0.41856748  0.61031063  0.47501084  1
  O  O44  1  0.41203915  0.60093564  0.28042232  1
  O  O45  1  0.41203915  0.89906436  0.78042232  1
  O  O46  1  0.44431461  0.60909872  0.96337154  1
  O  O47  1  0.44431461  0.89090128  0.46337154  1
  O  O48  1  0.55568539  0.39090128  0.03662846  1
  O  O49  1  0.55568539  0.10909872  0.53662846  1
  O  O50  1  0.58796085  0.10093564  0.21957768  1
  O  O51  1  0.58796085  0.39906436  0.71957768  1
  O  O52  1  0.58143252  0.11031063  0.02498916  1
  O  O53  1  0.58143252  0.38968937  0.52498916  1
  O  O54  1  0.58488818  0.58998583  0.64330022  1
  O  O55  1  0.58488818  0.91001417  0.14330022  1
  O  O56  1  0.59624145  0.18795274  0.41808742  1
  O  O57  1  0.59624145  0.31204726  0.91808742  1
  O  O58  1  0.58795664  0.82512900  0.23944784  1
  O  O59  1  0.58795664  0.67487100  0.73944784  1
  O  O60  1  0.60070622  0.00156753  0.34376760  1
  O  O61  1  0.60070622  0.49843247  0.84376760  1
  O  O62  1  0.63864272  0.22912412  0.11480477  1
  O  O63  1  0.63864272  0.27087588  0.61480477  1
  O  O64  1  0.68288532  0.44828499  0.20222782  1
  O  O65  1  0.68288532  0.05171501  0.70222782  1
  O  O66  1  0.69275120  0.68766909  0.34866609  1
  O  O67  1  0.69275120  0.81233091  0.84866609  1
  O  O68  1  0.68907700  0.77188075  0.03472580  1
  O  O69  1  0.68907700  0.72811925  0.53472580  1
  O  O70  1  0.71385823  0.48802819  0.42154373  1
  O  O71  1  0.71385823  0.01197181  0.92154373  1
  O  O72  1  0.78614177  0.98802819  0.42154373  1
  O  O73  1  0.78614177  0.51197181  0.92154373  1
  O  O74  1  0.81092300  0.27188075  0.03472580  1
  O  O75  1  0.81092300  0.22811925  0.53472580  1
  O  O76  1  0.80724880  0.18766909  0.34866609  1
  O  O77  1  0.80724880  0.31233091  0.84866609  1
  O  O78  1  0.81711468  0.55171501  0.70222782  1
  O  O79  1  0.81711468  0.94828499  0.20222782  1
  O  O80  1  0.86135728  0.72912412  0.11480477  1
  O  O81  1  0.86135728  0.77087588  0.61480477  1
  O  O82  1  0.89929378  0.50156753  0.34376760  1
  O  O83  1  0.89929378  0.99843247  0.84376760  1
  O  O84  1  0.91204336  0.32512900  0.23944784  1
  O  O85  1  0.91204336  0.17487100  0.73944784  1
  O  O86  1  0.90375855  0.68795274  0.41808742  1
  O  O87  1  0.90375855  0.81204726  0.91808742  1
  O  O88  1  0.91511182  0.41001417  0.14330022  1
  O  O89  1  0.91511182  0.08998583  0.64330022  1
  O  O90  1  0.91856748  0.61031063  0.02498916  1
  O  O91  1  0.91856748  0.88968937  0.52498916  1
  O  O92  1  0.91203915  0.60093564  0.21957768  1
  O  O93  1  0.91203915  0.89906436  0.71957768  1
  O  O94  1  0.94431461  0.60909872  0.53662846  1
  O  O95  1  0.94431461  0.89090128  0.03662846  1
loop_
_geom_bond_atom_site_label_1
_geom_bond_atom_site_label_2
_geom_bond_distance
_geom_bond_site_symmetry_2
Ni0 O23 2.014871 1_555
Ni0 O8 2.057225 1_555
Ni0 O74 2.060907 1_455
Ni0 O88 2.089206 1_455
Ni0 O90 2.144983 1_455
Ni0 O5 2.154194 1_554
Ni1 O22 2.014871 1_555
Ni1 O9 2.057225 1_555
Ni1 O75 2.060907 1_455
Ni1 O89 2.089206 1_455
Ni1 O91 2.144983 1_445
Ni1 O4 2.154194 1_555
Ni2 O80 2.039992 1_555
Ni2 O10 2.050505 1_655
Ni2 O79 2.051732 1_555
Ni2 O92 2.058007 1_555
Ni2 O12 2.070776 1_665
Ni2 O18 2.077896 1_655
Ni3 O81 2.039992 1_555
Ni3 O11 2.050505 1_655
Ni3 O78 2.051732 1_555
Ni3 O93 2.058007 1_555
Ni3 O13 2.070776 1_655
Ni3 O19 2.077896 1_655
Ni4 O62 2.039992 1_555
Ni4 O36 2.050505 1_555
Ni4 O64 2.051732 1_555
Ni4 O50 2.058007 1_555
Ni4 O35 2.070776 1_555
Ni4 O28 2.077896 1_555
Ni5 O63 2.039992 1_555
Ni5 O37 2.050505 1_555
Ni5 O65 2.051732 1_555
Ni5 O51 2.058007 1_555
Ni5 O34 2.070776 1_545
Ni5 O29 2.077896 1_555
Ni6 O24 2.014871 1_555
Ni6 O39 2.057225 1_555
Ni6 O69 2.060907 1_555
Ni6 O54 2.089206 1_555
Ni6 O53 2.144983 1_555
Ni6 O43 2.154194 1_555
Ni7 O25 2.014871 1_555
Ni7 O38 2.057225 1_555
Ni7 O68 2.060907 1_555
Ni7 O55 2.089206 1_555
Ni7 O52 2.144983 1_565
Ni7 O42 2.154194 1_554
Ni8 O70 2.014871 1_555
Ni8 O56 2.057225 1_555
Ni8 O27 2.060907 1_555
Ni8 O41 2.089206 1_555
Ni8 O43 2.144983 1_555
Ni8 O53 2.154194 1_555
Ni9 O71 2.014871 1_555
Ni9 O57 2.057225 1_555
Ni9 O26 2.060907 1_555
Ni9 O40 2.089206 1_555
Ni9 O42 2.144983 1_545
Ni9 O52 2.154194 1_556
Ni10 O33 2.039992 1_555
Ni10 O59 2.050505 1_555
Ni10 O31 2.051732 1_555
Ni10 O45 2.058007 1_555
Ni10 O61 2.070776 1_555
Ni10 O67 2.077896 1_555
Ni11 O32 2.039992 1_555
Ni11 O58 2.050505 1_555
Ni11 O30 2.051732 1_555
Ni11 O44 2.058007 1_555
Ni11 O60 2.070776 1_565
Ni11 O66 2.077896 1_555
Ni12 O14 2.039992 1_555
Ni12 O84 2.050505 1_455
Ni12 O16 2.051732 1_555
Ni12 O2 2.058007 1_555
Ni12 O82 2.070776 1_455
Ni12 O76 2.077896 1_455
Ni13 O15 2.039992 1_555
Ni13 O85 2.050505 1_455
Ni13 O17 2.051732 1_555
Ni13 O3 2.058007 1_555
Ni13 O83 2.070776 1_445
Ni13 O77 2.077896 1_455
Ni14 O72 2.014871 1_555
Ni14 O86 2.057225 1_555
Ni14 O21 2.060907 1_655
Ni14 O6 2.089206 1_655
Ni14 O4 2.144983 1_665
Ni14 O91 2.154194 1_555
Ni15 O73 2.014871 1_555
Ni15 O87 2.057225 1_555
Ni15 O20 2.060907 1_655
Ni15 O7 2.089206 1_655
Ni15 O5 2.144983 1_655
Ni15 O90 2.154194 1_556
O0 S2 1.457661 1_555
O1 S3 1.457661 1_555
O2 S0 1.475577 1_545
O3 S1 1.475577 1_555
O4 S2 1.525189 1_555
O5 S3 1.525189 1_555
O6 S0 1.475636 1_555
O7 S1 1.475636 1_555
O8 S4 1.482998 1_555
O9 S5 1.482998 1_555
O10 S0 1.489631 1_555
O11 S1 1.489631 1_555
O12 S4 1.483117 1_555
O13 S5 1.483117 1_555
O14 S2 1.479669 1_555
O15 S3 1.479669 1_555
O16 S10 1.493525 1_555
O17 S11 1.493525 1_555
O18 S6 1.469579 1_555
O19 S7 1.469579 1_555
O20 S8 1.487222 1_555
O21 S9 1.487222 1_555
O22 S7 1.481373 1_545
O23 S6 1.481373 1_555
O24 S5 1.481373 1_555
O25 S4 1.481373 1_565
O26 S3 1.487222 1_555
O27 S2 1.487222 1_555
O28 S4 1.469579 1_555
O29 S5 1.469579 1_555
O30 S0 1.493525 1_555
O31 S1 1.493525 1_555
O32 S9 1.479669 1_555
O33 S8 1.479669 1_555
O34 S7 1.483117 1_555
O35 S6 1.483117 1_555
O36 S10 1.489631 1_555
O37 S11 1.489631 1_555
O38 S6 1.482998 1_555
O39 S7 1.482998 1_555
O40 S11 1.475636 1_555
O41 S10 1.475636 1_555
O42 S8 1.525189 1_555
O43 S9 1.525189 1_555
O44 S10 1.475577 1_555
O45 S11 1.475577 1_565
O46 S8 1.457661 1_555
O47 S9 1.457661 1_555
O48 S14 1.457661 1_555
O49 S15 1.457661 1_555
O50 S13 1.475577 1_545
O51 S12 1.475577 1_555
O52 S14 1.525189 1_555
O53 S15 1.525189 1_555
O54 S12 1.475636 1_555
O55 S13 1.475636 1_555
O56 S16 1.482998 1_555
O57 S17 1.482998 1_555
O58 S13 1.489631 1_555
O59 S12 1.489631 1_555
O60 S16 1.483117 1_555
O61 S17 1.483117 1_555
O62 S14 1.479669 1_555
O63 S15 1.479669 1_555
O64 S22 1.493525 1_555
O65 S23 1.493525 1_555
O66 S18 1.469579 1_555
O67 S19 1.469579 1_555
O68 S20 1.487222 1_555
O69 S21 1.487222 1_555
O70 S18 1.481373 1_555
O71 S19 1.481373 1_545
O72 S16 1.481373 1_565
O73 S17 1.481373 1_555
O74 S14 1.487222 1_555
O75 S15 1.487222 1_555
O76 S16 1.469579 1_555
O77 S17 1.469579 1_555
O78 S12 1.493525 1_555
O79 S13 1.493525 1_555
O80 S20 1.479669 1_555
O81 S21 1.479669 1_555
O82 S18 1.483117 1_555
O83 S19 1.483117 1_555
O84 S22 1.489631 1_555
O85 S23 1.489631 1_555
O86 S18 1.482998 1_555
O87 S19 1.482998 1_555
O88 S22 1.475636 1_555
O89 S23 1.475636 1_555
O90 S20 1.525189 1_555
O91 S21 1.525189 1_555
O92 S22 1.475577 1_555
O93 S23 1.475577 1_565
O94 S21 1.457661 1_555
O95 S20 1.457661 1_555
