# generated using pymatgen
data_Li5Mn3Cr(PO4)4
_symmetry_space_group_name_H-M   'P 1'
_cell_length_a   4.88127200
_cell_length_b   6.38985421
_cell_length_c   10.58932769
_cell_angle_alpha   92.23939672
_cell_angle_beta   91.61019571
_cell_angle_gamma   90.30276137
_symmetry_Int_Tables_number   1
_chemical_formula_structural   Li5Mn3Cr(PO4)4
_chemical_formula_sum   'Li5 Mn3 Cr1 P4 O16'
_cell_volume   329.89835710
_cell_formula_units_Z   1
loop_
 _symmetry_equiv_pos_site_id
 _symmetry_equiv_pos_as_xyz
  1  'x, y, z'
loop_
 _atom_site_type_symbol
 _atom_site_label
 _atom_site_symmetry_multiplicity
 _atom_site_fract_x
 _atom_site_fract_y
 _atom_site_fract_z
 _atom_site_occupancy
  Li  Li0  1  0.99664500  0.01007000  0.00085600  1
  Li  Li1  1  0.00181400  0.49463800  0.00363800  1
  Li  Li2  1  0.62531900  0.45328400  0.36029100  1
  Li  Li3  1  0.46632200  0.02631800  0.50504000  1
  Li  Li4  1  0.38498500  0.52596300  0.62109300  1
  Mn  Mn0  1  0.93775000  0.76904000  0.71934200  1
  Mn  Mn1  1  0.52957200  0.77477300  0.21069200  1
  Mn  Mn2  1  0.45866700  0.23143600  0.79683600  1
  Cr  Cr0  1  0.09945900  0.23206700  0.28440800  1
  P  P0  1  0.88455700  0.25466200  0.59882600  1
  P  P1  1  0.58596500  0.25507600  0.09030300  1
  P  P2  1  0.40203500  0.74732800  0.90233600  1
  P  P3  1  0.10861100  0.74115500  0.40603000  1
  O  O0  1  0.77707900  0.23904100  0.46120100  1
  O  O1  1  0.79404500  0.73644500  0.38765700  1
  O  O2  1  0.75182500  0.06412200  0.66755100  1
  O  O3  1  0.76399200  0.45591900  0.66698900  1
  O  O4  1  0.70972800  0.05595200  0.15132900  1
  O  O5  1  0.69357200  0.45343200  0.16871000  1
  O  O6  1  0.71747700  0.76054100  0.90119500  1
  O  O7  1  0.72240200  0.26396300  0.95695500  1
  O  O8  1  0.28331500  0.73718700  0.03646700  1
  O  O9  1  0.27220200  0.24704500  0.07315500  1
  O  O10  1  0.28594700  0.55480500  0.81976300  1
  O  O11  1  0.26334400  0.94107500  0.83864300  1
  O  O12  1  0.24769600  0.54854700  0.34262200  1
  O  O13  1  0.24738500  0.93206400  0.34541800  1
  O  O14  1  0.20150500  0.25096200  0.61327400  1
  O  O15  1  0.19237400  0.75699400  0.55123000  1
loop_
_geom_bond_atom_site_label_1
_geom_bond_atom_site_label_2
_geom_bond_distance
_geom_bond_site_symmetry_2
Li0 O9 2.125621 1_655
Li0 O4 2.163239 1_555
Li0 O7 2.164951 1_554
Li0 O11 2.216363 1_644
Li0 O8 2.277768 1_645
Li0 O6 2.297321 1_544
Li1 O7 2.039876 1_454
Li1 O8 2.078351 1_555
Li1 O9 2.201213 1_555
Li1 O5 2.359721 1_455
Li1 O10 2.463182 1_554
Li1 O6 2.464622 1_454
Li2 O0 1.909257 1_555
Li2 O12 1.950539 1_555
Li2 O1 1.991463 1_555
Li2 O5 2.065141 1_555
Li3 O13 2.043044 1_545
Li3 O0 2.105034 1_555
Li3 O2 2.188866 1_555
Li3 O14 2.240385 1_555
Li3 O15 2.251053 1_545
Li4 O15 1.916120 1_555
Li4 O3 1.958157 1_555
Li4 O14 1.965864 1_555
Li4 O10 2.172871 1_555
Mn0 O2 2.179582 1_565
Mn0 O15 2.198734 1_655
Mn0 O3 2.213338 1_555
Mn0 O6 2.234116 1_555
Mn0 O11 2.256207 1_655
Mn0 O10 2.435229 1_655
Mn1 O4 2.121137 1_565
Mn1 O8 2.178081 1_555
Mn1 O13 2.226172 1_555
Mn1 O5 2.240680 1_555
Mn1 O1 2.267482 1_555
Mn1 O12 2.485827 1_555
Mn2 O7 2.102941 1_555
Mn2 O11 2.148628 1_545
Mn2 O10 2.242761 1_555
Mn2 O2 2.253191 1_555
Mn2 O14 2.291969 1_555
Mn2 O3 2.532996 1_555
Cr0 O13 2.167663 1_545
Cr0 O12 2.203444 1_555
Cr0 O9 2.417919 1_555
Cr0 O0 2.478486 1_455
Cr0 O4 2.564009 1_455
O0 P0 1.534339 1_555
O1 P3 1.542313 1_655
O2 P0 1.587188 1_555
O3 P0 1.574952 1_555
O4 P1 1.565868 1_555
O5 P1 1.567782 1_555
O6 P2 1.542038 1_555
O7 P1 1.580952 1_556
O8 P2 1.552576 1_554
O9 P1 1.537564 1_555
O10 P2 1.574726 1_555
O11 P2 1.579351 1_555
O12 P3 1.548013 1_555
O13 P3 1.560711 1_555
O14 P0 1.550768 1_455
O15 P3 1.579117 1_555
