# generated using pymatgen
data_LiNiPO4
_symmetry_space_group_name_H-M   'P 1'
_cell_length_a   4.83951800
_cell_length_b   7.98340200
_cell_length_c   16.71133700
_cell_angle_alpha   90.00000000
_cell_angle_beta   90.00000000
_cell_angle_gamma   90.00000000
_symmetry_Int_Tables_number   1
_chemical_formula_structural   LiNiPO4
_chemical_formula_sum   'Li8 Ni8 P8 O32'
_cell_volume   645.65616952
_cell_formula_units_Z   8
loop_
 _symmetry_equiv_pos_site_id
 _symmetry_equiv_pos_as_xyz
  1  'x, y, z'
loop_
 _atom_site_type_symbol
 _atom_site_label
 _atom_site_symmetry_multiplicity
 _atom_site_fract_x
 _atom_site_fract_y
 _atom_site_fract_z
 _atom_site_occupancy
  Li  Li0  1  0.24789500  0.53614100  0.05578800  1
  Li  Li1  1  0.24789500  0.03614100  0.44421200  1
  Li  Li2  1  0.27116900  0.37706700  0.36420500  1
  Li  Li3  1  0.27116900  0.87706700  0.13579500  1
  Li  Li4  1  0.74789500  0.96385900  0.55578800  1
  Li  Li5  1  0.74789500  0.46385900  0.94421200  1
  Li  Li6  1  0.77116900  0.12293300  0.86420500  1
  Li  Li7  1  0.77116900  0.62293300  0.63579500  1
  Ni  Ni0  1  0.27590900  0.35392900  0.55210600  1
  Ni  Ni1  1  0.27590900  0.85392900  0.94789400  1
  Ni  Ni2  1  0.42386100  0.91924100  0.71931000  1
  Ni  Ni3  1  0.42386100  0.41924100  0.78069000  1
  Ni  Ni4  1  0.77590900  0.14607100  0.05210600  1
  Ni  Ni5  1  0.77590900  0.64607100  0.44789400  1
  Ni  Ni6  1  0.92386100  0.08075900  0.28069000  1
  Ni  Ni7  1  0.92386100  0.58075900  0.21931000  1
  P  P0  1  0.23823000  0.25209800  0.17307000  1
  P  P1  1  0.23823000  0.75209800  0.32693000  1
  P  P2  1  0.24037100  0.24720200  0.93812800  1
  P  P3  1  0.24037100  0.74720200  0.56187200  1
  P  P4  1  0.73823000  0.74790200  0.82693000  1
  P  P5  1  0.73823000  0.24790200  0.67307000  1
  P  P6  1  0.74037100  0.25279800  0.43812800  1
  P  P7  1  0.74037100  0.75279800  0.06187200  1
  O  O0  1  0.03106500  0.26244600  0.64122400  1
  O  O1  1  0.03106500  0.76244600  0.85877600  1
  O  O2  1  0.05535800  0.76149800  0.04369900  1
  O  O3  1  0.05535800  0.26149800  0.45630100  1
  O  O4  1  0.08974500  0.88120800  0.51368400  1
  O  O5  1  0.08974500  0.38120800  0.98631600  1
  O  O6  1  0.20232500  0.27615900  0.84757900  1
  O  O7  1  0.20232500  0.77615900  0.65242100  1
  O  O8  1  0.05594200  0.09726100  0.14493900  1
  O  O9  1  0.05594200  0.59726100  0.35506100  1
  O  O10  1  0.22090800  0.74301500  0.23437100  1
  O  O11  1  0.22090800  0.24301500  0.26562900  1
  O  O12  1  0.10306900  0.42059700  0.14854700  1
  O  O13  1  0.10306900  0.92059700  0.35145300  1
  O  O14  1  0.08624200  0.57932200  0.54151400  1
  O  O15  1  0.08624200  0.07932200  0.95848600  1
  O  O16  1  0.53106500  0.23755400  0.14122400  1
  O  O17  1  0.53106500  0.73755400  0.35877600  1
  O  O18  1  0.55535800  0.23850200  0.95630100  1
  O  O19  1  0.55535800  0.73850200  0.54369900  1
  O  O20  1  0.58974500  0.11879200  0.48631600  1
  O  O21  1  0.58974500  0.61879200  0.01368400  1
  O  O22  1  0.70232500  0.22384100  0.34757900  1
  O  O23  1  0.70232500  0.72384100  0.15242100  1
  O  O24  1  0.55594200  0.90273900  0.85506100  1
  O  O25  1  0.55594200  0.40273900  0.64493900  1
  O  O26  1  0.72090800  0.75698500  0.73437100  1
  O  O27  1  0.72090800  0.25698500  0.76562900  1
  O  O28  1  0.60306900  0.57940300  0.85145300  1
  O  O29  1  0.60306900  0.07940300  0.64854700  1
  O  O30  1  0.58624200  0.42067800  0.45848600  1
  O  O31  1  0.58624200  0.92067800  0.04151400  1
loop_
_geom_bond_atom_site_label_1
_geom_bond_atom_site_label_2
_geom_bond_distance
_geom_bond_site_symmetry_2
Li0 O5 1.861060 1_554
Li0 O21 1.915061 1_555
Li0 O12 1.935206 1_555
Li0 O2 2.036137 1_555
Li1 O4 1.861060 1_545
Li1 O20 1.915061 1_555
Li1 O13 1.935206 1_545
Li1 O3 2.036137 1_555
Li2 O11 1.979442 1_555
Li2 O9 2.049018 1_555
Li2 O3 2.076231 1_555
Li2 O30 2.220052 1_555
Li2 O22 2.434629 1_555
Li3 O10 1.979442 1_555
Li3 O8 2.049018 1_565
Li3 O2 2.076231 1_555
Li3 O31 2.220052 1_555
Li3 O23 2.434629 1_555
Li4 O20 1.861060 1_565
Li4 O4 1.915061 1_655
Li4 O29 1.935206 1_565
Li4 O19 2.036137 1_555
Li5 O21 1.861060 1_556
Li5 O5 1.915061 1_655
Li5 O28 1.935206 1_555
Li5 O18 2.036137 1_555
Li6 O27 1.979442 1_555
Li6 O24 2.049018 1_545
Li6 O18 2.076231 1_555
Li6 O15 2.220052 1_655
Li6 O6 2.434629 1_655
Li7 O26 1.979442 1_555
Li7 O25 2.049018 1_555
Li7 O19 2.076231 1_555
Li7 O14 2.220052 1_655
Li7 O7 2.434629 1_655
Ni0 O14 2.027737 1_555
Ni0 O0 2.038483 1_555
Ni0 O3 2.060842 1_555
Ni0 O25 2.096475 1_555
Ni0 O30 2.233218 1_555
Ni1 O15 2.027737 1_565
Ni1 O1 2.038483 1_555
Ni1 O2 2.060842 1_556
Ni1 O24 2.096475 1_555
Ni1 O31 2.233218 1_556
Ni2 O7 1.924513 1_555
Ni2 O29 1.945636 1_565
Ni2 O26 1.951380 1_555
Ni2 O24 2.360594 1_555
Ni3 O6 1.924513 1_555
Ni3 O28 1.945636 1_555
Ni3 O27 1.951380 1_555
Ni3 O25 2.360594 1_555
Ni4 O31 2.027737 1_545
Ni4 O16 2.038483 1_555
Ni4 O18 2.060842 1_554
Ni4 O8 2.096475 1_655
Ni4 O15 2.233218 1_654
Ni5 O30 2.027737 1_555
Ni5 O17 2.038483 1_555
Ni5 O19 2.060842 1_555
Ni5 O9 2.096475 1_655
Ni5 O14 2.233218 1_655
Ni6 O22 1.924513 1_555
Ni6 O13 1.945636 1_645
Ni6 O11 1.951380 1_655
Ni6 O8 2.360594 1_655
Ni7 O23 1.924513 1_555
Ni7 O12 1.945636 1_655
Ni7 O10 1.951380 1_655
Ni7 O9 2.360594 1_655
O0 P5 1.518258 1_455
O1 P4 1.518258 1_455
O2 P7 1.555894 1_455
O3 P6 1.555894 1_455
O4 P3 1.524594 1_555
O5 P2 1.524594 1_555
O6 P2 1.541785 1_555
O7 P3 1.541785 1_555
O8 P0 1.589736 1_555
O9 P1 1.589736 1_555
O10 P1 1.550751 1_555
O11 P0 1.550751 1_555
O12 P0 1.550923 1_555
O13 P1 1.550923 1_555
O14 P3 1.571115 1_555
O15 P2 1.571115 1_555
O16 P0 1.518258 1_555
O17 P1 1.518258 1_555
O18 P2 1.555894 1_555
O19 P3 1.555894 1_555
O20 P6 1.524594 1_555
O21 P7 1.524594 1_555
O22 P6 1.541785 1_555
O23 P7 1.541785 1_555
O24 P4 1.589736 1_555
O25 P5 1.589736 1_555
O26 P4 1.550751 1_555
O27 P5 1.550751 1_555
O28 P4 1.550923 1_555
O29 P5 1.550923 1_555
O30 P6 1.571115 1_555
O31 P7 1.571115 1_555
