# generated using pymatgen
data_LiMnPO4
_symmetry_space_group_name_H-M   'P 1'
_cell_length_a   5.21209203
_cell_length_b   10.92332119
_cell_length_c   8.46580913
_cell_angle_alpha   90.01952158
_cell_angle_beta   90.00030687
_cell_angle_gamma   90.01088659
_symmetry_Int_Tables_number   1
_chemical_formula_structural   LiMnPO4
_chemical_formula_sum   'Li4 Mn4 P4 O16'
_cell_volume   481.98688237
_cell_formula_units_Z   4
loop_
 _symmetry_equiv_pos_site_id
 _symmetry_equiv_pos_as_xyz
  1  'x, y, z'
loop_
 _atom_site_type_symbol
 _atom_site_label
 _atom_site_symmetry_multiplicity
 _atom_site_fract_x
 _atom_site_fract_y
 _atom_site_fract_z
 _atom_site_occupancy
  Li  Li0  1  0.05542300  0.24738100  0.30196000  1
  Li  Li1  1  0.55527200  0.25259600  0.80170600  1
  Li  Li2  1  0.05521200  0.74756200  0.19831800  1
  Li  Li3  1  0.55521900  0.75252300  0.69819000  1
  Mn  Mn0  1  0.03633900  0.38142200  0.64965800  1
  Mn  Mn1  1  0.03651300  0.88143400  0.85041600  1
  Mn  Mn2  1  0.53664100  0.11870900  0.14949000  1
  Mn  Mn3  1  0.53639500  0.61840200  0.35023000  1
  P  P0  1  0.03081200  0.18157200  0.94483100  1
  P  P1  1  0.53080700  0.31844300  0.44483700  1
  P  P2  1  0.03068200  0.68140900  0.55511900  1
  P  P3  1  0.53081600  0.81859200  0.05520400  1
  O  O0  1  0.95937100  0.06243700  0.85836700  1
  O  O1  1  0.45946500  0.43740900  0.35808100  1
  O  O2  1  0.95923500  0.56238400  0.64170300  1
  O  O3  1  0.45960200  0.93770300  0.14176200  1
  O  O4  1  0.91215400  0.18053900  0.11489700  1
  O  O5  1  0.41207600  0.31972400  0.61489200  1
  O  O6  1  0.91192400  0.68022600  0.38507100  1
  O  O7  1  0.41208500  0.81968000  0.88513200  1
  O  O8  1  0.32617500  0.19870600  0.96149700  1
  O  O9  1  0.82613400  0.30133700  0.46166100  1
  O  O10  1  0.32605100  0.69846700  0.53835800  1
  O  O11  1  0.82615500  0.80143500  0.03844700  1
  O  O12  1  0.41161400  0.20957500  0.35064700  1
  O  O13  1  0.91153500  0.29024300  0.85045900  1
  O  O14  1  0.41152400  0.70990000  0.14958000  1
  O  O15  1  0.91156500  0.79019100  0.64948800  1
loop_
_geom_bond_atom_site_label_1
_geom_bond_atom_site_label_2
_geom_bond_distance
_geom_bond_site_symmetry_2
Li0 O4 1.896738 1_455
Li0 O9 1.898213 1_455
Li0 O12 1.946130 1_555
Li1 O5 1.896560 1_555
Li1 O8 1.898048 1_555
Li1 O13 1.946030 1_555
Li2 O6 1.897095 1_455
Li2 O11 1.898473 1_455
Li2 O14 1.946435 1_555
Li3 O7 1.897049 1_555
Li3 O10 1.898795 1_555
Li3 O15 1.946463 1_555
Mn0 O2 2.018365 1_455
Mn0 O13 2.075050 1_455
Mn0 O5 2.091994 1_555
Mn0 O9 2.120686 1_455
Mn1 O0 2.018797 1_465
Mn1 O15 2.075940 1_455
Mn1 O7 2.091388 1_555
Mn1 O11 2.121383 1_456
Mn2 O3 2.018511 1_545
Mn2 O12 2.075811 1_555
Mn2 O4 2.090985 1_555
Mn2 O8 2.121587 1_554
Mn3 O1 2.018337 1_555
Mn3 O14 2.075902 1_555
Mn3 O6 2.091269 1_555
Mn3 O10 2.121983 1_555
O0 P0 1.538548 1_655
O1 P1 1.538583 1_555
O2 P2 1.538448 1_655
O3 P3 1.538541 1_555
O4 P0 1.567004 1_654
O5 P1 1.567085 1_555
O6 P2 1.567069 1_655
O7 P3 1.567202 1_556
O8 P0 1.557158 1_555
O9 P1 1.557139 1_555
O10 P2 1.557175 1_555
O11 P3 1.557206 1_555
O12 P1 1.560464 1_555
O13 P0 1.560382 1_655
O14 P3 1.560429 1_555
O15 P2 1.560549 1_655
