# generated using pymatgen
data_NaLi5Mn2P2(CO7)2
_symmetry_space_group_name_H-M   'P 1'
_cell_length_a   6.63461200
_cell_length_b   8.65647369
_cell_length_c   9.98593477
_cell_angle_alpha   91.55015372
_cell_angle_beta   90.08113037
_cell_angle_gamma   90.44381063
_symmetry_Int_Tables_number   1
_chemical_formula_structural   NaLi5Mn2P2(CO7)2
_chemical_formula_sum   'Na2 Li10 Mn4 P4 C4 O28'
_cell_volume   573.28779558
_cell_formula_units_Z   2
loop_
 _symmetry_equiv_pos_site_id
 _symmetry_equiv_pos_as_xyz
  1  'x, y, z'
loop_
 _atom_site_type_symbol
 _atom_site_label
 _atom_site_symmetry_multiplicity
 _atom_site_fract_x
 _atom_site_fract_y
 _atom_site_fract_z
 _atom_site_occupancy
  Na  Na0  1  0.25323900  0.08412900  0.12311700  1
  Na  Na1  1  0.99793400  0.25024500  0.87410300  1
  Li  Li0  1  0.25690900  0.08023700  0.62284000  1
  Li  Li1  1  0.02014000  0.26333200  0.38481500  1
  Li  Li2  1  0.47847000  0.26474900  0.38628000  1
  Li  Li3  1  0.48243600  0.26648800  0.88166700  1
  Li  Li4  1  0.52004500  0.73515100  0.11555600  1
  Li  Li5  1  0.98017600  0.73475900  0.11483600  1
  Li  Li6  1  0.51567600  0.73831100  0.61691800  1
  Li  Li7  1  0.98466100  0.73940100  0.61710000  1
  Li  Li8  1  0.74947200  0.91605400  0.37522500  1
  Li  Li9  1  0.74193500  0.91415200  0.87461600  1
  Mn  Mn0  1  0.74672100  0.35821600  0.11529600  1
  Mn  Mn1  1  0.74887400  0.35617700  0.60990200  1
  Mn  Mn2  1  0.25047000  0.64774800  0.38804800  1
  Mn  Mn3  1  0.24947300  0.64359400  0.88758300  1
  P  P0  1  0.24978200  0.41364400  0.15048600  1
  P  P1  1  0.25444100  0.40725500  0.64564300  1
  P  P2  1  0.75029100  0.59472600  0.35363600  1
  P  P3  1  0.74543100  0.59471100  0.85281600  1
  C  C0  1  0.74938500  0.04231800  0.13482800  1
  C  C1  1  0.74799900  0.04191000  0.63299900  1
  C  C2  1  0.25008600  0.95798800  0.37143300  1
  C  C3  1  0.25840800  0.94696200  0.85904500  1
  O  O0  1  0.24811100  0.10694000  0.35564400  1
  O  O1  1  0.27583800  0.09514400  0.84283800  1
  O  O2  1  0.75044400  0.08878000  0.01223500  1
  O  O3  1  0.74959200  0.08904300  0.51116400  1
  O  O4  1  0.74648000  0.14212400  0.23426200  1
  O  O5  1  0.74411500  0.14139600  0.73284200  1
  O  O6  1  0.06097900  0.32242200  0.10153200  1
  O  O7  1  0.43241200  0.32123500  0.09484000  1
  O  O8  1  0.06506700  0.31187700  0.60030300  1
  O  O9  1  0.43431100  0.31183600  0.58919700  1
  O  O10  1  0.25456200  0.41634500  0.30740400  1
  O  O11  1  0.75043800  0.42364400  0.39916900  1
  O  O12  1  0.26716200  0.41599700  0.80186400  1
  O  O13  1  0.73276400  0.42665800  0.90258100  1
  O  O14  1  0.25133200  0.58430000  0.10456800  1
  O  O15  1  0.74962300  0.58894900  0.19674600  1
  O  O16  1  0.25123300  0.57632200  0.59711900  1
  O  O17  1  0.74894500  0.58551700  0.69594600  1
  O  O18  1  0.56683200  0.68872900  0.40612600  1
  O  O19  1  0.93525100  0.68900500  0.40664200  1
  O  O20  1  0.56626900  0.69600400  0.90245100  1
  O  O21  1  0.93394500  0.68423900  0.90639700  1
  O  O22  1  0.25034800  0.86386800  0.26797500  1
  O  O23  1  0.24749300  0.85481000  0.75408600  1
  O  O24  1  0.25202900  0.90351000  0.49126000  1
  O  O25  1  0.25101600  0.88924500  0.97717300  1
  O  O26  1  0.75081700  0.89513200  0.16016200  1
  O  O27  1  0.75013700  0.89467500  0.65868700  1
loop_
_geom_bond_atom_site_label_1
_geom_bond_atom_site_label_2
_geom_bond_distance
_geom_bond_site_symmetry_2
Na0 O25 2.199255 1_544
Na0 O0 2.325371 1_555
Na0 O7 2.387492 1_555
Na0 O22 2.424259 1_545
Na0 O6 2.447985 1_555
Na0 O1 2.807228 1_554
Na1 O1 2.305855 1_655
Na1 O13 2.351091 1_555
Na1 O5 2.368606 1_555
Na1 O6 2.374800 1_656
Na1 O12 2.406169 1_655
Na1 O2 2.574419 1_556
Na1 O8 2.835010 1_655
Li0 O24 1.989536 1_545
Li0 O1 2.200536 1_555
Li0 O9 2.349156 1_555
Li0 O23 2.380399 1_545
Li0 O8 2.398869 1_555
Li1 O0 2.053515 1_555
Li1 O10 2.190398 1_555
Li1 O8 2.200730 1_555
Li1 O11 2.275221 1_455
Li1 O4 2.556376 1_455
Li2 O0 2.058954 1_555
Li2 O9 2.077686 1_555
Li2 O10 2.152240 1_555
Li2 O11 2.261784 1_555
Li2 O4 2.557875 1_555
Li3 O1 2.040839 1_555
Li3 O12 2.105044 1_555
Li3 O13 2.161493 1_555
Li3 O7 2.194562 1_556
Li3 O5 2.518884 1_555
Li4 O26 2.095791 1_555
Li4 O15 2.158925 1_555
Li4 O20 2.168395 1_554
Li4 O14 2.202562 1_555
Li4 O22 2.589731 1_555
Li5 O26 2.109128 1_555
Li5 O21 2.136508 1_554
Li5 O15 2.152080 1_555
Li5 O14 2.230006 1_655
Li5 O22 2.582517 1_655
Li6 O27 2.088267 1_555
Li6 O18 2.164635 1_555
Li6 O17 2.202761 1_555
Li6 O16 2.242654 1_555
Li6 O23 2.453379 1_555
Li6 O24 2.609383 1_555
Li7 O27 2.098624 1_555
Li7 O19 2.158892 1_555
Li7 O17 2.206374 1_555
Li7 O16 2.277075 1_655
Li7 O23 2.408823 1_655
Li7 O24 2.609168 1_655
Li8 O3 1.993784 1_565
Li8 O26 2.150378 1_555
Li8 O18 2.330855 1_555
Li8 O19 2.355934 1_555
Li8 O4 2.441548 1_565
Li9 O2 2.015676 1_566
Li9 O27 2.159078 1_555
Li9 O20 2.235362 1_555
Li9 O21 2.399357 1_555
Li9 O5 2.454475 1_565
Mn0 O6 2.114369 1_655
Mn0 O7 2.116051 1_555
Mn0 O15 2.136054 1_555
Mn0 O13 2.222616 1_554
Mn0 O4 2.242907 1_555
Mn0 O2 2.524045 1_555
Mn1 O9 2.127848 1_555
Mn1 O8 2.137318 1_655
Mn1 O17 2.141796 1_555
Mn1 O11 2.199094 1_555
Mn1 O5 2.255585 1_555
Mn1 O3 2.489256 1_555
Mn2 O19 2.131872 1_455
Mn2 O18 2.132583 1_555
Mn2 O10 2.139025 1_555
Mn2 O16 2.193389 1_555
Mn2 O22 2.249249 1_555
Mn2 O24 2.416676 1_555
Mn3 O12 2.130902 1_555
Mn3 O21 2.133163 1_455
Mn3 O20 2.150864 1_555
Mn3 O14 2.240271 1_556
Mn3 O25 2.284529 1_555
Mn3 O23 2.291833 1_555
C0 O4 1.298708 1_555
C0 O2 1.298888 1_555
C0 O26 1.305784 1_545
C1 O3 1.293681 1_555
C1 O5 1.300133 1_555
C1 O27 1.307059 1_545
C2 O24 1.298059 1_555
C2 O22 1.298325 1_555
C2 O0 1.303394 1_565
C3 O25 1.294296 1_555
C3 O23 1.301455 1_555
C3 O1 1.301521 1_565
O6 P0 1.547155 1_555
O7 P0 1.552325 1_555
O8 P1 1.558000 1_555
O9 P1 1.554379 1_555
O10 P0 1.566787 1_555
O11 P2 1.560916 1_555
O12 P1 1.561932 1_555
O13 P3 1.551659 1_555
O14 P0 1.558570 1_555
O15 P2 1.566137 1_555
O16 P1 1.554340 1_555
O17 P3 1.566578 1_555
O18 P2 1.553225 1_555
O19 P2 1.552859 1_555
O20 P3 1.556200 1_555
O21 P3 1.553014 1_555
