# generated using pymatgen
data_Li2TiO3
_symmetry_space_group_name_H-M   'P 1'
_cell_length_a   5.91507500
_cell_length_b   5.91741812
_cell_length_c   13.22258274
_cell_angle_alpha   102.86810926
_cell_angle_beta   102.60669551
_cell_angle_gamma   90.71761294
_symmetry_Int_Tables_number   1
_chemical_formula_structural   Li2TiO3
_chemical_formula_sum   'Li16 Ti8 O24'
_cell_volume   439.40535121
_cell_formula_units_Z   8
loop_
 _symmetry_equiv_pos_site_id
 _symmetry_equiv_pos_as_xyz
  1  'x, y, z'
loop_
 _atom_site_type_symbol
 _atom_site_label
 _atom_site_symmetry_multiplicity
 _atom_site_fract_x
 _atom_site_fract_y
 _atom_site_fract_z
 _atom_site_occupancy
  Li  Li0  1  0.62322800  0.87646200  0.75160700  1
  Li  Li1  1  0.13272400  0.37533400  0.58212300  1
  Li  Li2  1  0.62988700  0.87061000  0.41393200  1
  Li  Li3  1  0.62715100  0.37373500  0.75019200  1
  Li  Li4  1  0.12102600  0.37631800  0.25239600  1
  Li  Li5  1  0.12384500  0.87160500  0.58306500  1
  Li  Li6  1  0.62665900  0.38327700  0.41460800  1
  Li  Li7  1  0.63049400  0.87789200  0.08147400  1
  Li  Li8  1  0.12304900  0.87894500  0.08376800  1
  Li  Li9  1  0.13114100  0.38160000  0.91271300  1
  Li  Li10  1  0.11104200  0.87205000  0.25219600  1
  Li  Li11  1  0.62679200  0.87676300  0.25005400  1
  Li  Li12  1  0.12101900  0.87449400  0.75104900  1
  Li  Li13  1  0.14105900  0.88031200  0.91255400  1
  Li  Li14  1  0.62806100  0.87857000  0.91488300  1
  Li  Li15  1  0.13269900  0.88206700  0.41203200  1
  Ti  Ti0  1  0.63237700  0.37294100  0.25757700  1
  Ti  Ti1  1  0.61885700  0.37897300  0.90901000  1
  Ti  Ti2  1  0.62562300  0.37507100  0.08332800  1
  Ti  Ti3  1  0.12665100  0.38035000  0.08275800  1
  Ti  Ti4  1  0.63076400  0.37606200  0.58348000  1
  Ti  Ti5  1  0.10773500  0.34729400  0.75723100  1
  Ti  Ti6  1  0.62342800  0.87922000  0.58166100  1
  Ti  Ti7  1  0.14644600  0.40752200  0.40818100  1
  O  O0  1  0.84881700  0.62490700  0.58230000  1
  O  O1  1  0.37535600  0.14861900  0.40775200  1
  O  O2  1  0.86096700  0.61320900  0.24708500  1
  O  O3  1  0.86357200  0.13343000  0.58023700  1
  O  O4  1  0.87647700  0.15604400  0.08336600  1
  O  O5  1  0.35453600  0.60626700  0.41812400  1
  O  O6  1  0.37496100  0.14783500  0.08079700  1
  O  O7  1  0.37668000  0.60316600  0.92442800  1
  O  O8  1  0.84713300  0.59643400  0.92942200  1
  O  O9  1  0.87580900  0.15164000  0.24159100  1
  O  O10  1  0.90037700  0.15059400  0.74649700  1
  O  O11  1  0.37788200  0.15046900  0.74131000  1
  O  O12  1  0.87639300  0.60697100  0.08541100  1
  O  O13  1  0.37510200  0.59896500  0.08288300  1
  O  O14  1  0.39026700  0.14187300  0.91899900  1
  O  O15  1  0.38998200  0.61843400  0.58518400  1
  O  O16  1  0.88027000  0.15252000  0.90780400  1
  O  O17  1  0.86685700  0.11682400  0.42873000  1
  O  O18  1  0.87617600  0.60497500  0.75846600  1
  O  O19  1  0.38523400  0.63465200  0.73641800  1
  O  O20  1  0.40477100  0.12609300  0.58296200  1
  O  O21  1  0.37165700  0.60106800  0.25816700  1
  O  O22  1  0.87512400  0.60059000  0.42452700  1
  O  O23  1  0.40451100  0.15767100  0.23734900  1
loop_
_geom_bond_atom_site_label_1
_geom_bond_atom_site_label_2
_geom_bond_distance
_geom_bond_site_symmetry_2
Li0 O19 1.941050 1_555
Li0 Li14 2.150118 1_555
Li0 O11 2.196506 1_565
Li0 O18 2.212144 1_555
Li0 Ti6 2.251074 1_555
Li0 O10 2.313871 1_565
Li0 O15 2.490497 1_555
Li0 O16 2.511983 1_565
Li1 O15 2.068553 1_555
Li1 O3 2.119902 1_455
Li1 O20 2.196302 1_555
Li1 O0 2.250217 1_455
Li1 Ti7 2.368316 1_555
Li1 Ti5 2.393796 1_555
Li1 O19 2.442514 1_555
Li1 O17 2.468280 1_455
Li2 O17 1.956499 1_565
Li2 O22 2.178518 1_555
Li2 Ti6 2.215727 1_555
Li2 O1 2.246769 1_565
Li2 O5 2.262040 1_555
Li2 O21 2.494317 1_555
Li2 O3 2.502186 1_565
Li3 O11 1.933842 1_555
Li3 O18 1.966356 1_555
Li3 O10 2.101673 1_555
Li3 O19 2.128716 1_555
Li4 O9 1.915341 1_455
Li4 O21 1.956630 1_555
Li4 Ti7 1.998624 1_555
Li4 O2 2.094493 1_455
Li4 O23 2.147245 1_555
Li4 Ti3 2.255960 1_555
Li4 O5 2.421756 1_555
Li4 O4 2.455734 1_455
Li5 O0 2.168970 1_455
Li5 O15 2.186740 1_555
Li5 O3 2.198273 1_465
Li5 O20 2.228954 1_565
Li6 O22 1.903735 1_555
Li6 O1 1.994834 1_555
Li6 Ti0 2.071299 1_555
Li6 O5 2.095890 1_555
Li6 O17 2.147319 1_555
Li6 Ti4 2.237674 1_555
Li6 O0 2.440622 1_555
Li6 O23 2.494063 1_555
Li7 O4 2.175449 1_565
Li7 O12 2.179665 1_555
Li7 O6 2.212966 1_565
Li7 O13 2.229398 1_555
Li8 O12 2.165601 1_455
Li8 O6 2.178897 1_565
Li8 O4 2.208230 1_465
Li8 O13 2.242467 1_555
Li9 O7 1.901584 1_555
Li9 O16 1.977918 1_455
Li9 Ti5 1.994029 1_555
Li9 O14 2.102362 1_555
Li9 O8 2.139507 1_455
Li9 Ti3 2.256033 1_556
Li9 O10 2.422329 1_455
Li9 O13 2.459013 1_556
Li10 O2 2.095747 1_455
Li10 O9 2.183747 1_465
Li10 O21 2.240328 1_555
Li11 O2 2.098337 1_555
Li11 O23 2.145397 1_565
Li11 Li2 2.171386 1_555
Li11 O9 2.218294 1_565
Li11 O21 2.244425 1_555
Li12 O10 2.106933 1_465
Li12 O19 2.135283 1_555
Li12 O18 2.173584 1_455
Li12 O11 2.260278 1_565
Li13 O14 2.098816 1_565
Li13 O7 2.175565 1_555
Li13 O16 2.245685 1_465
Li14 O14 2.111761 1_565
Li14 O8 2.142853 1_555
Li14 O16 2.220402 1_565
Li14 O7 2.235085 1_555
Li15 O5 2.111367 1_555
Li15 O17 2.126225 1_465
Li15 O1 2.137702 1_565
Li15 O22 2.300379 1_455
O0 Ti4 1.950278 1_555
O0 Ti6 2.023148 1_555
O1 Ti7 2.057178 1_555
O2 Ti0 1.997623 1_555
O3 Ti4 2.001862 1_555
O3 Ti6 2.061959 1_545
O3 Ti5 2.514772 1_655
O4 Ti3 1.977971 1_655
O4 Ti2 1.982339 1_555
O5 Ti7 1.655193 1_555
O6 Ti2 1.978867 1_555
O6 Ti3 2.025435 1_555
O7 Ti1 1.976917 1_555
O7 Ti5 2.573767 1_555
O8 Ti1 1.787357 1_555
O9 Ti0 1.972236 1_555
O9 Ti7 2.573305 1_655
O10 Ti5 1.641341 1_655
O11 Ti5 2.009600 1_555
O12 Ti2 1.999605 1_555
O12 Ti3 2.010535 1_655
O13 Ti3 1.945150 1_555
O13 Ti2 2.000013 1_555
O14 Ti1 1.981700 1_555
O15 Ti4 2.033897 1_555
O15 Ti6 2.072931 1_555
O15 Ti7 2.508512 1_555
O16 Ti1 2.059131 1_555
O17 Ti7 2.470009 1_655
O18 Ti5 2.062119 1_655
O19 Ti5 2.448907 1_555
O20 Ti6 1.962916 1_545
O20 Ti4 1.979115 1_555
O21 Ti0 2.062371 1_555
O22 Ti7 2.003739 1_655
O23 Ti0 1.777292 1_555
