# generated using pymatgen
data_Li8MnFe7(BO3)8
_symmetry_space_group_name_H-M   'P 1'
_cell_length_a   5.23984800
_cell_length_b   5.96811297
_cell_length_c   17.70913080
_cell_angle_alpha   89.69182509
_cell_angle_beta   98.00625130
_cell_angle_gamma   114.28704247
_symmetry_Int_Tables_number   1
_chemical_formula_structural   Li8MnFe7(BO3)8
_chemical_formula_sum   'Li8 Mn1 Fe7 B8 O24'
_cell_volume   499.03916328
_cell_formula_units_Z   1
loop_
 _symmetry_equiv_pos_site_id
 _symmetry_equiv_pos_as_xyz
  1  'x, y, z'
loop_
 _atom_site_type_symbol
 _atom_site_label
 _atom_site_symmetry_multiplicity
 _atom_site_fract_x
 _atom_site_fract_y
 _atom_site_fract_z
 _atom_site_occupancy
  Li  Li0  1  0.14644900  0.91247400  0.23174700  1
  Li  Li1  1  0.35488200  0.58881800  0.26661000  1
  Li  Li2  1  0.10050200  0.83393300  0.51827000  1
  Li  Li3  1  0.39773900  0.66203200  0.98283900  1
  Li  Li4  1  0.60016300  0.33663200  0.01637300  1
  Li  Li5  1  0.89631800  0.16307100  0.48302400  1
  Li  Li6  1  0.64881600  0.41274500  0.73356300  1
  Li  Li7  1  0.85156000  0.08763700  0.76706400  1
  Mn  Mn0  1  0.35770300  0.16683100  0.39688000  1
  Fe  Fe0  1  0.59835900  0.90837000  0.14495100  1
  Fe  Fe1  1  0.64843300  0.84111400  0.60557400  1
  Fe  Fe2  1  0.14430800  0.33809400  0.10499700  1
  Fe  Fe3  1  0.90635500  0.59415300  0.35281400  1
  Fe  Fe4  1  0.10237500  0.40977600  0.64527700  1
  Fe  Fe5  1  0.84943300  0.65922300  0.89494400  1
  Fe  Fe6  1  0.39649500  0.08917900  0.85555800  1
  B  B0  1  0.48776900  0.69486400  0.43519800  1
  B  B1  1  0.23536000  0.94185500  0.68494100  1
  B  B2  1  0.01468100  0.80861200  0.06511500  1
  B  B3  1  0.73347200  0.44025000  0.18353700  1
  B  B4  1  0.26464600  0.55894000  0.81564300  1
  B  B5  1  0.98473600  0.19181900  0.93434600  1
  B  B6  1  0.76570400  0.05478300  0.31440900  1
  B  B7  1  0.51471700  0.30894400  0.56695600  1
  O  O0  1  0.54011700  0.96114400  0.25581000  1
  O  O1  1  0.25493600  0.76056700  0.06662500  1
  O  O2  1  0.00059700  0.00062100  0.31525800  1
  O  O3  1  0.99755400  0.94751600  0.12650700  1
  O  O4  1  0.70924800  0.79001800  0.49404600  1
  O  O5  1  0.79350400  0.71085300  0.00607300  1
  O  O6  1  0.50374600  0.55770600  0.37310300  1
  O  O7  1  0.25152800  0.80167500  0.62367100  1
  O  O8  1  0.49458100  0.48958000  0.18211100  1
  O  O9  1  0.24450000  0.73841600  0.43437900  1
  O  O10  1  0.24883400  0.69767400  0.87744600  1
  O  O11  1  0.95593500  0.53598100  0.24247900  1
  O  O12  1  0.04338600  0.46135300  0.75686900  1
  O  O13  1  0.74841700  0.30027300  0.12209900  1
  O  O14  1  0.75381200  0.26006800  0.56767900  1
  O  O15  1  0.50575500  0.51218000  0.81664900  1
  O  O16  1  0.75691000  0.19858600  0.37559300  1
  O  O17  1  0.50150100  0.45054600  0.62807300  1
  O  O18  1  0.20643600  0.28891800  0.99345100  1
  O  O19  1  0.28950900  0.21054100  0.50855100  1
  O  O20  1  0.00095600  0.05257300  0.87284900  1
  O  O21  1  0.99619600  0.99140500  0.68293200  1
  O  O22  1  0.74428100  0.23897600  0.93297500  1
  O  O23  1  0.45678400  0.03868100  0.74413900  1
loop_
_geom_bond_atom_site_label_1
_geom_bond_atom_site_label_2
_geom_bond_distance
_geom_bond_site_symmetry_2
Li0 O2 1.924039 1_565
Li0 O0 1.945387 1_555
Li0 O3 1.962353 1_455
Li0 O11 2.069911 1_455
Li1 O8 1.948621 1_555
Li1 O11 1.965265 1_455
Li1 O6 1.976139 1_555
Li1 O0 2.046768 1_555
Li2 O4 1.941622 1_455
Li2 O9 1.943344 1_555
Li2 O7 1.964012 1_555
Li2 O19 2.067491 1_565
Li3 O1 1.946268 1_556
Li3 O5 1.954784 1_556
Li3 O10 1.965742 1_555
Li3 O18 2.051947 1_555
Li4 O22 1.942469 1_554
Li4 O18 1.945972 1_554
Li4 O13 1.971104 1_555
Li4 O5 2.057543 1_555
Li5 O19 1.947070 1_655
Li5 O14 1.953700 1_555
Li5 O16 1.983422 1_555
Li5 O4 2.051644 1_545
Li6 O15 1.939495 1_555
Li6 O12 1.949156 1_655
Li6 O17 1.968170 1_555
Li6 O23 2.057070 1_555
Li7 O23 1.949184 1_555
Li7 O21 1.950854 1_545
Li7 O20 1.971826 1_655
Li7 O12 2.054151 1_655
Mn0 O2 2.075993 1_555
Mn0 O19 2.094205 1_555
Mn0 O16 2.108641 1_555
Mn0 O6 2.194422 1_555
Mn0 O9 2.484769 1_545
Fe0 O1 1.988052 1_555
Fe0 O0 2.073444 1_555
Fe0 O3 2.079438 1_555
Fe0 O13 2.195037 1_565
Fe0 O8 2.437138 1_555
Fe1 O21 1.993760 1_555
Fe1 O7 2.065314 1_555
Fe1 O4 2.087379 1_555
Fe1 O17 2.187244 1_555
Fe1 O14 2.440598 1_565
Fe2 O8 2.000247 1_555
Fe2 O13 2.057897 1_455
Fe2 O18 2.087634 1_554
Fe2 O3 2.183475 1_445
Fe2 O1 2.458468 1_555
Fe3 O9 2.003154 1_655
Fe3 O11 2.056402 1_555
Fe3 O6 2.111797 1_555
Fe3 O16 2.215008 1_555
Fe3 O2 2.378997 1_665
Fe4 O14 1.998542 1_455
Fe4 O17 2.069759 1_555
Fe4 O12 2.085812 1_555
Fe4 O7 2.190348 1_555
Fe4 O21 2.435432 1_445
Fe5 O15 1.988239 1_555
Fe5 O5 2.072513 1_556
Fe5 O10 2.076852 1_655
Fe5 O20 2.199525 1_665
Fe5 O22 2.448688 1_555
Fe6 O22 1.994197 1_555
Fe6 O20 2.059274 1_555
Fe6 O23 2.083802 1_555
Fe6 O10 2.189745 1_545
Fe6 O15 2.465356 1_555
B0 O4 1.372112 1_555
B0 O9 1.399990 1_555
B0 O6 1.406414 1_555
B1 O23 1.376682 1_565
B1 O21 1.396963 1_455
B1 O7 1.406441 1_555
B2 O5 1.374611 1_455
B2 O1 1.398301 1_555
B2 O3 1.405476 1_455
B3 O11 1.376365 1_555
B3 O8 1.395875 1_555
B3 O13 1.405391 1_555
B4 O12 1.371714 1_555
B4 O15 1.399292 1_555
B4 O10 1.407742 1_555
B5 O18 1.376561 1_655
B5 O22 1.396556 1_555
B5 O20 1.406241 1_655
B6 O0 1.381147 1_545
B6 O2 1.393436 1_655
B6 O16 1.403259 1_555
B7 O19 1.379731 1_555
B7 O14 1.396755 1_555
B7 O17 1.403310 1_555
