# generated using pymatgen
data_Ti3O4
_symmetry_space_group_name_H-M   'P 1'
_cell_length_a   5.01045847
_cell_length_b   5.01062970
_cell_length_c   3.01417371
_cell_angle_alpha   90.00000000
_cell_angle_beta   90.00000000
_cell_angle_gamma   108.70194093
_symmetry_Int_Tables_number   1
_chemical_formula_structural   Ti3O4
_chemical_formula_sum   'Ti3 O4'
_cell_volume   71.67694302
_cell_formula_units_Z   1
loop_
 _symmetry_equiv_pos_site_id
 _symmetry_equiv_pos_as_xyz
  1  'x, y, z'
loop_
 _atom_site_type_symbol
 _atom_site_label
 _atom_site_symmetry_multiplicity
 _atom_site_fract_x
 _atom_site_fract_y
 _atom_site_fract_z
 _atom_site_occupancy
  Ti  Ti0  1  0.00000000  -0.00000000  0.50000000  1
  Ti  Ti1  1  0.50000000  -0.00000000  -0.00000000  1
  Ti  Ti2  1  0.00000000  0.50000000  -0.00000000  1
  O  O0  1  0.76498988  0.76501167  0.00000000  1
  O  O1  1  0.25714818  0.74288016  0.50000000  1
  O  O2  1  0.23501012  0.23498833  0.00000000  1
  O  O3  1  0.74285182  0.25711984  0.50000000  1
loop_
_geom_bond_atom_site_label_1
_geom_bond_atom_site_label_2
_geom_bond_distance
_geom_bond_site_symmetry_2
O0 Ti1 2.037582 1_565
O0 Ti2 2.037766 1_655
O0 Ti0 2.038403 1_665
O0 Ti0 2.038403 1_664
O1 Ti0 2.093883 1_565
O1 Ti1 2.099142 1_565
O1 Ti1 2.099142 1_566
O1 Ti2 2.099254 1_555
O1 Ti2 2.099254 1_556
O2 Ti1 2.037582 1_555
O2 Ti2 2.037766 1_555
O2 Ti0 2.038403 1_555
O2 Ti0 2.038403 1_554
O3 Ti0 2.093883 1_655
O3 Ti1 2.099142 1_555
O3 Ti1 2.099142 1_556
O3 Ti2 2.099254 1_655
O3 Ti2 2.099254 1_656
