# generated using pymatgen
data_Mn6O5F7
_symmetry_space_group_name_H-M   'P 1'
_cell_length_a   5.11292100
_cell_length_b   5.76146183
_cell_length_c   14.52533042
_cell_angle_alpha   90.89496334
_cell_angle_beta   93.43635181
_cell_angle_gamma   90.11610399
_symmetry_Int_Tables_number   1
_chemical_formula_structural   Mn6O5F7
_chemical_formula_sum   'Mn12 O10 F14'
_cell_volume   427.06239474
_cell_formula_units_Z   2
loop_
 _symmetry_equiv_pos_site_id
 _symmetry_equiv_pos_as_xyz
  1  'x, y, z'
loop_
 _atom_site_type_symbol
 _atom_site_label
 _atom_site_symmetry_multiplicity
 _atom_site_fract_x
 _atom_site_fract_y
 _atom_site_fract_z
 _atom_site_occupancy
  Mn  Mn0  1  0.04526100  0.87808800  0.99550000  1
  Mn  Mn1  1  0.51435200  0.13366800  0.83371600  1
  Mn  Mn2  1  0.96707900  0.93892300  0.65789200  1
  Mn  Mn3  1  0.50886400  0.88432600  0.49751100  1
  Mn  Mn4  1  0.99162200  0.11623900  0.33807000  1
  Mn  Mn5  1  0.47582500  0.90577200  0.16690600  1
  Mn  Mn6  1  0.00815200  0.42092300  0.83943500  1
  Mn  Mn7  1  0.54223400  0.57163800  0.99475800  1
  Mn  Mn8  1  0.51889000  0.45943400  0.33740100  1
  Mn  Mn9  1  0.03882600  0.55250000  0.50429500  1
  Mn  Mn10  1  0.48186300  0.55986300  0.66764600  1
  Mn  Mn11  1  0.94562700  0.58496200  0.16134700  1
  O  O0  1  0.26334000  0.78127400  0.58670200  1
  O  O1  1  0.73462600  0.80471200  0.07988900  1
  O  O2  1  0.85643400  0.63234100  0.92421400  1
  O  O3  1  0.33440900  0.64438500  0.42533500  1
  O  O4  1  0.23173800  0.65234700  0.07201200  1
  O  O5  1  0.66000400  0.66446800  0.23800500  1
  O  O6  1  0.76429500  0.64692400  0.58979100  1
  O  O7  1  0.84010400  0.38363200  0.40731800  1
  O  O8  1  0.68093000  0.36982700  0.76454600  1
  O  O9  1  0.34746100  0.37030700  0.90686000  1
  F  F0  1  0.65206500  0.89590100  0.75005300  1
  F  F1  1  0.37122000  0.88617300  0.91210200  1
  F  F2  1  0.82150600  0.87414300  0.42236200  1
  F  F3  1  0.15924700  0.89763800  0.24380500  1
  F  F4  1  0.18259500  0.63287800  0.74730700  1
  F  F5  1  0.73639800  0.34290800  0.08268000  1
  F  F6  1  0.21679400  0.31659200  0.59533300  1
  F  F7  1  0.16874500  0.40349300  0.25391600  1
  F  F8  1  0.68991600  0.11553600  0.57482600  1
  F  F9  1  0.86864800  0.11839900  0.91995900  1
  F  F10  1  0.64799400  0.16786400  0.25671200  1
  F  F11  1  0.34137300  0.15080600  0.40936500  1
  F  F12  1  0.24863300  0.09629900  0.07952200  1
  F  F13  1  0.14293200  0.14481700  0.76290700  1
loop_
_geom_bond_atom_site_label_1
_geom_bond_atom_site_label_2
_geom_bond_distance
_geom_bond_site_symmetry_2
Mn0 O4 1.938785 1_556
Mn0 O2 1.959019 1_455
Mn0 O1 2.109657 1_456
Mn1 O8 1.930474 1_555
Mn1 O9 1.945217 1_555
Mn2 O0 2.086329 1_655
Mn2 O6 2.168353 1_555
Mn3 O3 1.908771 1_555
Mn3 O0 1.955191 1_555
Mn3 O6 2.286435 1_555
Mn4 O7 2.008758 1_555
Mn5 O5 1.954414 1_555
Mn5 O1 1.966763 1_555
Mn5 O4 2.304953 1_555
Mn6 O2 1.916610 1_455
Mn6 O8 1.959312 1_455
Mn6 O9 1.965003 1_555
Mn7 O9 1.940093 1_555
Mn7 O2 1.989801 1_555
Mn7 O1 2.024080 1_556
Mn7 O4 2.048405 1_556
Mn8 O7 1.932928 1_555
Mn8 O3 1.939736 1_555
Mn8 O5 2.043323 1_555
Mn9 O7 1.935140 1_455
Mn9 O6 1.999843 1_455
Mn9 O3 2.025636 1_555
Mn9 O0 2.065838 1_555
Mn10 O6 1.956095 1_555
Mn10 O8 2.024033 1_555
Mn10 O0 2.037924 1_555
Mn11 O5 1.940119 1_555
Mn11 O1 2.016462 1_555
Mn11 O4 2.053171 1_655
F0 Mn1 1.975762 1_565
F0 Mn2 2.171373 1_555
F0 Mn10 2.394651 1_555
F1 Mn1 2.002897 1_565
F1 Mn0 2.119117 1_555
F1 Mn7 2.332067 1_555
F2 Mn3 1.989411 1_555
F2 Mn4 2.092189 1_565
F2 Mn9 2.450265 1_655
F3 Mn5 2.021857 1_555
F3 Mn4 2.070449 1_465
F3 Mn11 2.374995 1_455
F4 Mn10 2.014153 1_555
F4 Mn6 2.065729 1_555
F4 Mn2 2.432697 1_455
F5 Mn11 2.047582 1_555
F5 Mn7 2.063748 1_554
F6 Mn9 2.083478 1_555
F6 Mn10 2.163373 1_555
F6 Mn2 2.716636 1_445
F7 Mn11 2.016760 1_455
F7 Mn8 2.122413 1_555
F7 Mn4 2.289799 1_455
F8 Mn3 1.927763 1_545
F8 Mn2 2.082937 1_545
F9 Mn0 1.967257 1_645
F9 Mn1 2.142558 1_555
F9 Mn6 2.252432 1_655
F10 Mn4 2.082318 1_555
F10 Mn5 2.133576 1_545
F10 Mn8 2.160345 1_555
F11 Mn4 2.019912 1_455
F11 Mn3 2.159895 1_545
F11 Mn8 2.289873 1_555
F12 Mn0 1.986442 1_544
F12 Mn5 2.009314 1_545
F13 Mn6 2.069329 1_555
F13 Mn2 2.077769 1_445
F13 Mn1 2.106360 1_555
