# generated using pymatgen
data_Y13Ho3O24
_symmetry_space_group_name_H-M   'P 1'
_cell_length_a   9.17039750
_cell_length_b   9.17109612
_cell_length_c   9.17400289
_cell_angle_alpha   109.47669727
_cell_angle_beta   109.46590802
_cell_angle_gamma   109.45092970
_symmetry_Int_Tables_number   1
_chemical_formula_structural   Y13Ho3O24
_chemical_formula_sum   'Y13 Ho3 O24'
_cell_volume   594.09267816
_cell_formula_units_Z   1
loop_
 _symmetry_equiv_pos_site_id
 _symmetry_equiv_pos_as_xyz
  1  'x, y, z'
loop_
 _atom_site_type_symbol
 _atom_site_label
 _atom_site_symmetry_multiplicity
 _atom_site_fract_x
 _atom_site_fract_y
 _atom_site_fract_z
 _atom_site_occupancy
  Y  Y0  1  0.03193943  0.78171552  0.74987117  1
  Y  Y1  1  0.50021699  0.00026193  0.00044596  1
  Y  Y2  1  0.21731594  0.25020859  0.96785892  1
  Y  Y3  1  0.28238244  0.74945357  0.53218006  1
  Y  Y4  1  0.25033766  0.96771445  0.21800043  1
  Y  Y5  1  0.24987795  0.46741070  0.71739519  1
  Y  Y6  1  0.99948029  0.00004637  0.49995313  1
  Y  Y7  1  0.53299577  0.28288732  0.74960898  1
  Y  Y8  1  0.46727009  0.71738845  0.25021409  1
  Y  Y9  1  0.74973951  0.53204825  0.28233690  1
  Y  Y10  1  0.74992899  0.03283707  0.78216609  1
  Y  Y11  1  0.78266468  0.74978341  0.03210096  1
  Y  Y12  1  0.96759538  0.21797962  0.25010072  1
  Ho  Ho0  1  0.50015802  0.49973442  0.49993743  1
  Ho  Ho1  1  0.99992593  0.49995861  0.99950029  1
  Ho  Ho2  1  0.71746811  0.25056461  0.46769593  1
  O  O0  1  0.23827632  0.51116630  0.96832037  1
  O  O1  1  0.26104336  0.72929856  0.77186592  1
  O  O2  1  0.72841526  0.95770200  0.98900339  1
  O  O3  1  0.03122999  0.76051660  0.48897067  1
  O  O4  1  0.53209449  0.54285338  0.76981207  1
  O  O5  1  0.22701144  0.73778881  0.26981073  1
  O  O6  1  0.54283126  0.76972638  0.53184279  1
  O  O7  1  0.95741304  0.98898098  0.72835425  1
  O  O8  1  0.23037724  0.46782489  0.45725910  1
  O  O9  1  0.98931227  0.72707579  0.95741062  1
  O  O10  1  0.27084206  0.22838553  0.73926630  1
  O  O11  1  0.51244279  0.97010842  0.24131778  1
  O  O12  1  0.72883480  0.77136716  0.26025583  1
  O  O13  1  0.48902116  0.03166729  0.76055020  1
  O  O14  1  0.76966884  0.53040969  0.54239605  1
  O  O15  1  0.01044816  0.27316389  0.04250976  1
  O  O16  1  0.45797954  0.23028568  0.46810521  1
  O  O17  1  0.04267223  0.01115716  0.27201727  1
  O  O18  1  0.77305412  0.26223476  0.72879148  1
  O  O19  1  0.46790896  0.45713671  0.23013455  1
  O  O20  1  0.96738833  0.23949113  0.51105986  1
  O  O21  1  0.27156364  0.04229837  0.01101860  1
  O  O22  1  0.76195673  0.48868531  0.03162016  1
  O  O23  1  0.73891779  0.27068332  0.22893979  1
loop_
_geom_bond_atom_site_label_1
_geom_bond_atom_site_label_2
_geom_bond_distance
_geom_bond_site_symmetry_2
Ho0 O16 2.268995 1_555
Ho0 O8 2.270553 1_555
Ho0 O19 2.270886 1_555
Ho0 O4 2.271255 1_555
Ho0 O14 2.271896 1_555
Ho0 O6 2.272665 1_555
Ho1 O9 2.267907 1_555
Ho1 O15 2.268651 1_656
Ho1 O0 2.270827 1_655
Ho1 O22 2.271226 1_556
Ho1 O5 2.273720 1_656
Ho1 O18 2.274687 1_555
Ho2 O18 2.233304 1_555
Ho2 O20 2.235064 1_555
Ho2 O14 2.252977 1_555
Ho2 O11 2.253540 1_545
Ho2 O23 2.324404 1_555
Ho2 O16 2.325691 1_555
O0 Y5 2.246589 1_555
O0 Y8 2.269029 1_556
O0 Y2 2.334743 1_555
O1 Y5 2.242898 1_555
O1 Y0 2.267307 1_555
O1 Y1 2.283190 1_566
O1 Y3 2.332652 1_555
O2 Y11 2.245730 1_556
O2 Y10 2.268312 1_565
O2 Y1 2.281604 1_566
O2 Y12 2.333439 1_566
O3 Y3 2.246323 1_555
O3 Y9 2.266050 1_455
O3 Y6 2.284419 1_465
O3 Y0 2.333487 1_555
O4 Y11 2.244330 1_556
O4 Y5 2.272443 1_555
O4 Y7 2.331990 1_555
O5 Y3 2.245071 1_555
O5 Y4 2.270215 1_555
O5 Y8 2.331913 1_555
O6 Y10 2.247011 1_565
O6 Y8 2.268070 1_555
O6 Y3 2.334242 1_555
O7 Y10 2.242567 1_565
O7 Y0 2.268214 1_655
O7 Y6 2.281248 1_565
O7 Y2 2.333351 1_665
O8 Y12 2.244004 1_455
O8 Y3 2.268983 1_555
O8 Y5 2.334391 1_555
O9 Y0 2.242952 1_655
O9 Y11 2.266534 1_556
O9 Y4 2.337729 1_656
O10 Y7 2.248192 1_555
O10 Y2 2.269466 1_555
O10 Y6 2.284767 1_455
O10 Y5 2.330427 1_555
O11 Y8 2.249294 1_555
O11 Y1 2.288036 1_565
O11 Y4 2.332940 1_555
O12 Y8 2.244676 1_555
O12 Y11 2.267452 1_555
O12 Y6 2.283498 1_565
O12 Y9 2.333631 1_555
O13 Y7 2.245741 1_555
O13 Y3 2.269494 1_545
O13 Y1 2.286664 1_556
O13 Y10 2.330100 1_555
O14 Y0 2.247473 1_655
O14 Y9 2.336818 1_555
O15 Y12 2.246450 1_455
O15 Y2 2.268902 1_554
O15 Y10 2.334440 1_454
O16 Y4 2.244758 1_545
O16 Y7 2.267040 1_555
O17 Y4 2.243565 1_545
O17 Y12 2.268046 1_455
O17 Y6 2.281915 1_455
O17 Y11 2.335181 1_445
O18 Y10 2.273733 1_555
O18 Y7 2.335045 1_555
O19 Y2 2.244353 1_554
O19 Y9 2.270262 1_555
O19 Y8 2.334008 1_555
O20 Y5 2.269396 1_655
O20 Y6 2.284834 1_555
O20 Y12 2.336381 1_555
O21 Y2 2.245868 1_554
O21 Y4 2.266100 1_545
O21 Y1 2.281178 1_555
O21 Y0 2.335689 1_544
O22 Y9 2.247779 1_555
O22 Y7 2.268983 1_554
O22 Y11 2.336564 1_555
O23 Y9 2.240892 1_555
O23 Y12 2.266121 1_555
O23 Y1 2.279441 1_555
