# generated using pymatgen
data_Li4Co7(OF7)2
_symmetry_space_group_name_H-M   'P 1'
_cell_length_a   5.10191200
_cell_length_b   5.95271382
_cell_length_c   10.50236407
_cell_angle_alpha   92.41001904
_cell_angle_beta   91.05269493
_cell_angle_gamma   90.96187707
_symmetry_Int_Tables_number   1
_chemical_formula_structural   Li4Co7(OF7)2
_chemical_formula_sum   'Li4 Co7 O2 F14'
_cell_volume   318.57399153
_cell_formula_units_Z   1
loop_
 _symmetry_equiv_pos_site_id
 _symmetry_equiv_pos_as_xyz
  1  'x, y, z'
loop_
 _atom_site_type_symbol
 _atom_site_label
 _atom_site_symmetry_multiplicity
 _atom_site_fract_x
 _atom_site_fract_y
 _atom_site_fract_z
 _atom_site_occupancy
  Li  Li0  1  0.54288700  0.23575900  0.08101200  1
  Li  Li1  1  0.02469600  0.74245800  0.40674500  1
  Li  Li2  1  0.97530400  0.25754200  0.59325500  1
  Li  Li3  1  0.45711300  0.76424100  0.91898800  1
  Co  Co0  1  0.00000000  0.50000000  0.00000000  1
  Co  Co1  1  0.49518700  0.74610100  0.24245600  1
  Co  Co2  1  0.98812600  0.23366600  0.25826000  1
  Co  Co3  1  0.50000000  0.00000000  0.50000000  1
  Co  Co4  1  0.50000000  0.50000000  0.50000000  1
  Co  Co5  1  0.01187400  0.76633400  0.74174000  1
  Co  Co6  1  0.50481300  0.25389900  0.75754400  1
  O  O0  1  0.66228000  0.74604500  0.41274900  1
  O  O1  1  0.33772000  0.25395500  0.58725100  1
  F  F0  1  0.29542000  0.71188600  0.07560500  1
  F  F1  1  0.18248400  0.25460200  0.09103100  1
  F  F2  1  0.70967900  0.01825400  0.17937100  1
  F  F3  1  0.75748400  0.48618700  0.16476400  1
  F  F4  1  0.22552200  0.49567500  0.33217800  1
  F  F5  1  0.21899400  0.98017400  0.32989900  1
  F  F6  1  0.78774300  0.24704100  0.43061700  1
  F  F7  1  0.21225700  0.75295900  0.56938300  1
  F  F8  1  0.78100600  0.01982600  0.67010100  1
  F  F9  1  0.77447800  0.50432500  0.66782200  1
  F  F10  1  0.24251600  0.51381300  0.83523600  1
  F  F11  1  0.29032100  0.98174600  0.82062900  1
  F  F12  1  0.81751600  0.74539800  0.90896900  1
  F  F13  1  0.70458000  0.28811400  0.92439500  1
loop_
_geom_bond_atom_site_label_1
_geom_bond_atom_site_label_2
_geom_bond_distance
_geom_bond_site_symmetry_2
Li1 O0 1.851697 1_455
Li2 O1 1.851697 1_655
Co0 F1 2.011245 1_555
Co0 F12 2.011245 1_454
Co0 F0 2.073885 1_555
Co0 F13 2.073885 1_454
Co0 F10 2.149234 1_554
Co0 F3 2.149234 1_455
Co1 O0 1.967089 1_555
Co1 F0 2.012036 1_555
Co1 F2 2.078086 1_565
Co1 F5 2.185477 1_555
Co1 F3 2.203150 1_555
Co1 F4 2.258296 1_555
Co2 F2 2.038403 1_555
Co2 F1 2.040009 1_655
Co2 F4 2.074213 1_655
Co2 F5 2.086388 1_645
Co2 F6 2.094465 1_555
Co2 F3 2.179329 1_555
Co3 O1 1.940068 1_555
Co3 O0 1.940068 1_545
Co3 F6 2.214865 1_555
Co3 F7 2.214865 1_545
Co3 F8 2.267876 1_555
Co3 F5 2.267876 1_545
Co4 O1 1.941741 1_555
Co4 O0 1.941741 1_555
Co4 F9 2.229902 1_555
Co4 F4 2.229902 1_555
Co4 F7 2.230421 1_555
Co4 F6 2.230421 1_555
Co5 F11 2.038403 1_555
Co5 F12 2.040009 1_455
Co5 F9 2.074213 1_455
Co5 F8 2.086388 1_465
Co5 F7 2.094465 1_555
Co5 F10 2.179329 1_555
Co6 O1 1.967089 1_555
Co6 F13 2.012036 1_555
Co6 F11 2.078086 1_545
Co6 F8 2.185477 1_555
Co6 F10 2.203150 1_555
Co6 F9 2.258296 1_555
F0 Li3 1.888790 1_554
F1 Li0 1.848696 1_555
F2 Li0 1.893347 1_555
F3 Li0 1.998549 1_555
F4 Li1 1.950487 1_555
F5 Li1 1.927366 1_555
F6 Li2 1.940646 1_555
F7 Li1 1.940646 1_555
F8 Li2 1.927366 1_555
F9 Li2 1.950487 1_555
F10 Li3 1.998549 1_555
F11 Li3 1.893347 1_555
F12 Li3 1.848696 1_555
F13 Li0 1.888790 1_556
