# generated using pymatgen
data_In2Ag
_symmetry_space_group_name_H-M   'P 1'
_cell_length_a   5.97139439
_cell_length_b   5.97139439
_cell_length_c   5.97139439
_cell_angle_alpha   102.20513079
_cell_angle_beta   102.20513079
_cell_angle_gamma   125.25211643
_symmetry_Int_Tables_number   1
_chemical_formula_structural   In2Ag
_chemical_formula_sum   'In4 Ag2'
_cell_volume   154.40892455
_cell_formula_units_Z   2
loop_
 _symmetry_equiv_pos_site_id
 _symmetry_equiv_pos_as_xyz
  1  'x, y, z'
loop_
 _atom_site_type_symbol
 _atom_site_label
 _atom_site_symmetry_multiplicity
 _atom_site_fract_x
 _atom_site_fract_y
 _atom_site_fract_z
 _atom_site_occupancy
  In  In0  1  0.14904500  0.64904500  0.79809000  1
  In  In1  1  0.64904500  0.85095500  0.50000000  1
  In  In2  1  0.35095500  0.14904500  0.50000000  1
  In  In3  1  0.85095500  0.35095500  0.20191000  1
  Ag  Ag0  1  0.00000000  0.00000000  0.00000000  1
  Ag  Ag1  1  0.50000000  0.50000000  0.00000000  1
loop_
_geom_bond_atom_site_label_1
_geom_bond_atom_site_label_2
_geom_bond_distance
_geom_bond_site_symmetry_2
In0 In3 3.161391 1_455
In0 In3 3.481931 1_456
In0 In3 3.481931 1_566
In0 In2 3.540571 1_565
In0 In2 3.540571 1_455
In0 In1 3.540571 1_445
In0 In1 3.540571 1_555
In1 In2 3.161391 1_565
In1 In2 3.481931 1_665
In1 In2 3.481931 1_555
In1 In3 3.540571 1_565
In1 In3 3.540571 1_455
In2 In3 3.540571 1_445
In2 In3 3.540571 1_555
Ag0 Ag1 2.745623 1_445
Ag0 Ag1 2.745623 1_555
Ag0 In3 2.859393 1_455
Ag0 In0 2.859393 1_544
Ag0 In1 2.859393 1_444
Ag0 In2 2.859393 1_555
Ag1 In2 2.859393 1_554
Ag1 In1 2.859393 1_555
Ag1 In3 2.859393 1_555
Ag1 In0 2.859393 1_554
