# generated using pymatgen
data_Ni2(SO4)3
_symmetry_space_group_name_H-M   'P 1'
_cell_length_a   8.93641559
_cell_length_b   8.93641559
_cell_length_c   8.93641620
_cell_angle_alpha   55.39898714
_cell_angle_beta   55.39898714
_cell_angle_gamma   55.39899046
_symmetry_Int_Tables_number   1
_chemical_formula_structural   Ni2(SO4)3
_chemical_formula_sum   'Ni4 S6 O24'
_cell_volume   450.70056902
_cell_formula_units_Z   2
loop_
 _symmetry_equiv_pos_site_id
 _symmetry_equiv_pos_as_xyz
  1  'x, y, z'
loop_
 _atom_site_type_symbol
 _atom_site_label
 _atom_site_symmetry_multiplicity
 _atom_site_fract_x
 _atom_site_fract_y
 _atom_site_fract_z
 _atom_site_occupancy
  Ni  Ni0  1  0.14305400  0.14305400  0.14305400  1
  Ni  Ni1  1  0.34755000  0.34755000  0.34755000  1
  Ni  Ni2  1  0.65245000  0.65245000  0.65245000  1
  Ni  Ni3  1  0.85694600  0.85694600  0.85694600  1
  S  S0  1  0.74596400  0.04297900  0.45889500  1
  S  S1  1  0.95702100  0.54110500  0.25403600  1
  S  S2  1  0.54110500  0.25403600  0.95702100  1
  S  S3  1  0.45889500  0.74596400  0.04297900  1
  S  S4  1  0.04297900  0.45889500  0.74596400  1
  S  S5  1  0.25403600  0.95702100  0.54110500  1
  O  O0  1  0.52766500  0.21571200  0.14976800  1
  O  O1  1  0.21571200  0.14976800  0.52766500  1
  O  O2  1  0.79555000  0.01766600  0.60488800  1
  O  O3  1  0.87107700  0.13120100  0.25936600  1
  O  O4  1  0.14976800  0.52766500  0.21571200  1
  O  O5  1  0.74063400  0.12892300  0.86879900  1
  O  O6  1  0.98233400  0.39511200  0.20445000  1
  O  O7  1  0.53789400  0.16945900  0.49228100  1
  O  O8  1  0.83054100  0.50771900  0.46210600  1
  O  O9  1  0.39511200  0.20445000  0.98233400  1
  O  O10  1  0.86879900  0.74063400  0.12892300  1
  O  O11  1  0.50771900  0.46210600  0.83054100  1
  O  O12  1  0.49228100  0.53789400  0.16945900  1
  O  O13  1  0.13120100  0.25936600  0.87107700  1
  O  O14  1  0.60488800  0.79555000  0.01766600  1
  O  O15  1  0.16945900  0.49228100  0.53789400  1
  O  O16  1  0.46210600  0.83054100  0.50771900  1
  O  O17  1  0.01766600  0.60488800  0.79555000  1
  O  O18  1  0.25936600  0.87107700  0.13120100  1
  O  O19  1  0.85023200  0.47233500  0.78428800  1
  O  O20  1  0.12892300  0.86879900  0.74063400  1
  O  O21  1  0.20445000  0.98233400  0.39511200  1
  O  O22  1  0.78428800  0.85023200  0.47233500  1
  O  O23  1  0.47233500  0.78428800  0.85023200  1
loop_
_geom_bond_atom_site_label_1
_geom_bond_atom_site_label_2
_geom_bond_distance
_geom_bond_site_symmetry_2
Ni0 O9 2.066878 1_554
Ni0 O6 2.066878 1_455
Ni0 O21 2.066878 1_545
Ni0 O3 2.072950 1_455
Ni0 O18 2.072950 1_545
Ni0 O13 2.072950 1_554
Ni1 O1 2.020647 1_555
Ni1 O4 2.020648 1_555
Ni1 O0 2.020648 1_555
Ni1 O12 2.045819 1_555
Ni1 O7 2.045819 1_555
Ni1 O15 2.045819 1_555
Ni2 O22 2.020647 1_555
Ni2 O19 2.020648 1_555
Ni2 O23 2.020648 1_555
Ni2 O11 2.045819 1_555
Ni2 O16 2.045819 1_555
Ni2 O8 2.045819 1_555
Ni3 O14 2.066878 1_556
Ni3 O17 2.066878 1_655
Ni3 O2 2.066878 1_565
Ni3 O20 2.072950 1_655
Ni3 O5 2.072950 1_565
Ni3 O10 2.072950 1_556
O0 S2 1.496798 1_554
O1 S5 1.496798 1_545
O2 S0 1.468745 1_555
O3 S0 1.480331 1_555
O4 S1 1.496798 1_455
O5 S2 1.480331 1_555
O6 S1 1.468745 1_555
O7 S0 1.479860 1_555
O8 S1 1.479860 1_555
O9 S2 1.468745 1_555
O10 S1 1.480331 1_555
O11 S2 1.479860 1_555
O12 S3 1.479860 1_555
O13 S4 1.480331 1_555
O14 S3 1.468745 1_555
O15 S4 1.479860 1_555
O16 S5 1.479860 1_555
O17 S4 1.468745 1_555
O18 S3 1.480331 1_555
O19 S4 1.496798 1_655
O20 S5 1.480331 1_555
O21 S5 1.468745 1_555
O22 S0 1.496798 1_565
O23 S3 1.496798 1_556
