# generated using pymatgen
data_HoTa3O9
_symmetry_space_group_name_H-M   'P 1'
_cell_length_a   6.46385200
_cell_length_b   7.63338800
_cell_length_c   12.58638400
_cell_angle_alpha   90.00000000
_cell_angle_beta   90.00000000
_cell_angle_gamma   90.00000000
_symmetry_Int_Tables_number   1
_chemical_formula_structural   HoTa3O9
_chemical_formula_sum   'Ho4 Ta12 O36'
_cell_volume   621.02590938
_cell_formula_units_Z   4
loop_
 _symmetry_equiv_pos_site_id
 _symmetry_equiv_pos_as_xyz
  1  'x, y, z'
loop_
 _atom_site_type_symbol
 _atom_site_label
 _atom_site_symmetry_multiplicity
 _atom_site_fract_x
 _atom_site_fract_y
 _atom_site_fract_z
 _atom_site_occupancy
  Ho  Ho0  1  0.05623900  0.25000000  0.46341600  1
  Ho  Ho1  1  0.44376100  0.75000000  0.96341600  1
  Ho  Ho2  1  0.55623900  0.25000000  0.03658400  1
  Ho  Ho3  1  0.94376100  0.75000000  0.53658400  1
  Ta  Ta0  1  0.00000000  0.00000000  0.00000000  1
  Ta  Ta1  1  0.00000000  0.50000000  0.00000000  1
  Ta  Ta2  1  0.20492600  0.00301300  0.71286100  1
  Ta  Ta3  1  0.20492600  0.49698700  0.71286100  1
  Ta  Ta4  1  0.29507400  0.50301300  0.21286100  1
  Ta  Ta5  1  0.29507400  0.99698700  0.21286100  1
  Ta  Ta6  1  0.50000000  0.00000000  0.50000000  1
  Ta  Ta7  1  0.50000000  0.50000000  0.50000000  1
  Ta  Ta8  1  0.70492600  0.00301300  0.78713900  1
  Ta  Ta9  1  0.70492600  0.49698700  0.78713900  1
  Ta  Ta10  1  0.79507400  0.50301300  0.28713900  1
  Ta  Ta11  1  0.79507400  0.99698700  0.28713900  1
  O  O0  1  0.01623200  0.04285300  0.84290100  1
  O  O1  1  0.01623200  0.45714700  0.84290100  1
  O  O2  1  0.07960900  0.75000000  0.97471400  1
  O  O3  1  0.10338000  0.03695700  0.33238100  1
  O  O4  1  0.10338000  0.46304300  0.33238100  1
  O  O5  1  0.16452500  0.25000000  0.67003200  1
  O  O6  1  0.20371000  0.75000000  0.69573900  1
  O  O7  1  0.20534900  0.53561000  0.53666800  1
  O  O8  1  0.20534900  0.96439000  0.53666800  1
  O  O9  1  0.29465100  0.03561000  0.03666800  1
  O  O10  1  0.29465100  0.46439000  0.03666800  1
  O  O11  1  0.29629000  0.25000000  0.19573900  1
  O  O12  1  0.33547500  0.75000000  0.17003200  1
  O  O13  1  0.39662000  0.53695700  0.83238100  1
  O  O14  1  0.39662000  0.96304300  0.83238100  1
  O  O15  1  0.42039100  0.25000000  0.47471400  1
  O  O16  1  0.48376800  0.54285300  0.34290100  1
  O  O17  1  0.48376800  0.95714700  0.34290100  1
  O  O18  1  0.51623200  0.04285300  0.65709900  1
  O  O19  1  0.51623200  0.45714700  0.65709900  1
  O  O20  1  0.57960900  0.75000000  0.52528600  1
  O  O21  1  0.60338000  0.03695700  0.16761900  1
  O  O22  1  0.60338000  0.46304300  0.16761900  1
  O  O23  1  0.66452500  0.25000000  0.82996800  1
  O  O24  1  0.70371000  0.75000000  0.80426100  1
  O  O25  1  0.70534900  0.53561000  0.96333200  1
  O  O26  1  0.70534900  0.96439000  0.96333200  1
  O  O27  1  0.79465100  0.03561000  0.46333200  1
  O  O28  1  0.79465100  0.46439000  0.46333200  1
  O  O29  1  0.79629000  0.25000000  0.30426100  1
  O  O30  1  0.83547500  0.75000000  0.32996800  1
  O  O31  1  0.89662000  0.53695700  0.66761900  1
  O  O32  1  0.89662000  0.96304300  0.66761900  1
  O  O33  1  0.92039100  0.25000000  0.02528600  1
  O  O34  1  0.98376800  0.54285300  0.15709900  1
  O  O35  1  0.98376800  0.95714700  0.15709900  1
loop_
_geom_bond_atom_site_label_1
_geom_bond_atom_site_label_2
_geom_bond_distance
_geom_bond_site_symmetry_2
Ho0 O3 2.336141 1_555
Ho0 O4 2.336141 1_555
Ho0 O27 2.353133 1_455
Ho0 O28 2.353133 1_455
Ho0 O15 2.358116 1_555
Ho0 O7 2.555807 1_555
Ho0 O8 2.555807 1_545
Ho0 O29 2.614587 1_455
Ho0 O5 2.693097 1_555
Ho1 O13 2.336141 1_555
Ho1 O14 2.336141 1_555
Ho1 O25 2.353133 1_555
Ho1 O26 2.353133 1_555
Ho1 O2 2.358116 1_555
Ho1 O9 2.555807 1_566
Ho1 O10 2.555807 1_556
Ho1 O24 2.614587 1_555
Ho1 O12 2.693097 1_556
Ho2 O22 2.336141 1_555
Ho2 O21 2.336141 1_555
Ho2 O9 2.353133 1_555
Ho2 O10 2.353133 1_555
Ho2 O33 2.358116 1_555
Ho2 O26 2.555807 1_544
Ho2 O25 2.555807 1_554
Ho2 O11 2.614587 1_555
Ho2 O23 2.693097 1_554
Ho3 O32 2.336141 1_555
Ho3 O31 2.336141 1_555
Ho3 O7 2.353133 1_655
Ho3 O8 2.353133 1_655
Ho3 O20 2.358116 1_555
Ho3 O28 2.555807 1_555
Ho3 O27 2.555807 1_565
Ho3 O6 2.614587 1_655
Ho3 O30 2.693097 1_555
O0 Ta0 2.006928 1_556
O0 Ta2 2.063741 1_555
O0 Ta8 2.152710 1_455
O1 Ta1 2.006928 1_556
O1 Ta3 2.063741 1_555
O1 Ta9 2.152710 1_455
O2 Ta1 2.001967 1_556
O2 Ta0 2.001967 1_566
O3 Ta5 1.972665 1_545
O3 Ta11 2.094940 1_445
O4 Ta4 1.972665 1_555
O4 Ta10 2.094940 1_455
O5 Ta3 1.978212 1_555
O5 Ta2 1.978212 1_555
O6 Ta2 1.943348 1_565
O6 Ta3 1.943348 1_555
O7 Ta7 1.978463 1_555
O7 Ta3 2.237146 1_555
O8 Ta6 1.978463 1_565
O8 Ta2 2.237146 1_565
O9 Ta0 1.978463 1_555
O9 Ta5 2.237146 1_545
O10 Ta1 1.978463 1_555
O10 Ta4 2.237146 1_555
O11 Ta5 1.943348 1_545
O11 Ta4 1.943348 1_555
O12 Ta5 1.978212 1_555
O12 Ta4 1.978212 1_555
O13 Ta3 1.972665 1_555
O13 Ta9 2.094940 1_555
O14 Ta2 1.972665 1_565
O14 Ta8 2.094940 1_565
O15 Ta7 2.001967 1_555
O15 Ta6 2.001967 1_555
O16 Ta7 2.006928 1_555
O16 Ta4 2.063741 1_555
O16 Ta10 2.152710 1_555
O17 Ta6 2.006928 1_565
O17 Ta5 2.063741 1_555
O17 Ta11 2.152710 1_555
O18 Ta6 2.006928 1_555
O18 Ta8 2.063741 1_555
O18 Ta2 2.152710 1_555
O19 Ta7 2.006928 1_555
O19 Ta9 2.063741 1_555
O19 Ta3 2.152710 1_555
O20 Ta7 2.001967 1_555
O20 Ta6 2.001967 1_565
O21 Ta11 1.972665 1_545
O21 Ta5 2.094940 1_545
O22 Ta10 1.972665 1_555
O22 Ta4 2.094940 1_555
O23 Ta9 1.978212 1_555
O23 Ta8 1.978212 1_555
O24 Ta8 1.943348 1_565
O24 Ta9 1.943348 1_555
O25 Ta1 1.978463 1_656
O25 Ta9 2.237146 1_555
O26 Ta0 1.978463 1_666
O26 Ta8 2.237146 1_565
O27 Ta6 1.978463 1_555
O27 Ta11 2.237146 1_545
O28 Ta7 1.978463 1_555
O28 Ta10 2.237146 1_555
O29 Ta11 1.943348 1_545
O29 Ta10 1.943348 1_555
O30 Ta11 1.978212 1_555
O30 Ta10 1.978212 1_555
O31 Ta9 1.972665 1_555
O31 Ta3 2.094940 1_655
O32 Ta8 1.972665 1_565
O32 Ta2 2.094940 1_665
O33 Ta1 2.001967 1_655
O33 Ta0 2.001967 1_655
O34 Ta1 2.006928 1_655
O34 Ta10 2.063741 1_555
O34 Ta4 2.152710 1_655
O35 Ta0 2.006928 1_665
O35 Ta11 2.063741 1_555
O35 Ta5 2.152710 1_655
