# generated using pymatgen
data_Na6Cr2P(CO4)4
_symmetry_space_group_name_H-M   'P 1'
_cell_length_a   9.90528897
_cell_length_b   9.90528897
_cell_length_c   9.90528897
_cell_angle_alpha   60.00000000
_cell_angle_beta   60.00000000
_cell_angle_gamma   60.00000000
_symmetry_Int_Tables_number   1
_chemical_formula_structural   Na6Cr2P(CO4)4
_chemical_formula_sum   'Na12 Cr4 P2 C8 O32'
_cell_volume   687.20522312
_cell_formula_units_Z   2
loop_
 _symmetry_equiv_pos_site_id
 _symmetry_equiv_pos_as_xyz
  1  'x, y, z'
loop_
 _atom_site_type_symbol
 _atom_site_label
 _atom_site_symmetry_multiplicity
 _atom_site_fract_x
 _atom_site_fract_y
 _atom_site_fract_z
 _atom_site_occupancy
  Na  Na0  1  0.29435600  0.70564400  0.29435600  1
  Na  Na1  1  0.70564400  0.70564400  0.29435600  1
  Na  Na2  1  0.70564400  0.29435600  0.29435600  1
  Na  Na3  1  0.54435600  0.95564400  0.54435600  1
  Na  Na4  1  0.29435600  0.70564400  0.70564400  1
  Na  Na5  1  0.29435600  0.29435600  0.70564400  1
  Na  Na6  1  0.95564400  0.95564400  0.54435600  1
  Na  Na7  1  0.95564400  0.54435600  0.54435600  1
  Na  Na8  1  0.70564400  0.29435600  0.70564400  1
  Na  Na9  1  0.54435600  0.54435600  0.95564400  1
  Na  Na10  1  0.54435600  0.95564400  0.95564400  1
  Na  Na11  1  0.95564400  0.54435600  0.95564400  1
  Cr  Cr0  1  0.12500000  0.12500000  0.12500000  1
  Cr  Cr1  1  0.12500000  0.62500000  0.12500000  1
  Cr  Cr2  1  0.62500000  0.12500000  0.12500000  1
  Cr  Cr3  1  0.12500000  0.12500000  0.62500000  1
  P  P0  1  0.75000000  0.75000000  0.75000000  1
  P  P1  1  0.50000000  0.50000000  0.50000000  1
  C  C0  1  0.90925900  0.90925900  0.27222300  1
  C  C1  1  0.34074100  0.34074100  0.34074100  1
  C  C2  1  0.34074100  0.97777700  0.34074100  1
  C  C3  1  0.97777700  0.34074100  0.34074100  1
  C  C4  1  0.27222300  0.90925900  0.90925900  1
  C  C5  1  0.90925900  0.90925900  0.90925900  1
  C  C6  1  0.90925900  0.27222300  0.90925900  1
  C  C7  1  0.34074100  0.34074100  0.97777700  1
  O  O0  1  0.02515900  0.93383100  0.27451600  1
  O  O1  1  0.93383100  0.76649400  0.27451600  1
  O  O2  1  0.76649400  0.02515900  0.27451600  1
  O  O3  1  0.48350600  0.31616900  0.22484100  1
  O  O4  1  0.94312000  0.68562700  0.68562700  1
  O  O5  1  0.48350600  0.97548400  0.31616900  1
  O  O6  1  0.31616900  0.97548400  0.22484100  1
  O  O7  1  0.68562700  0.94312000  0.68562700  1
  O  O8  1  0.68562700  0.68562700  0.68562700  1
  O  O9  1  0.22484100  0.48350600  0.31616900  1
  O  O10  1  0.31616900  0.22484100  0.48350600  1
  O  O11  1  0.68562700  0.68562700  0.94312000  1
  O  O12  1  0.97548400  0.48350600  0.22484100  1
  O  O13  1  0.22484100  0.97548400  0.48350600  1
  O  O14  1  0.97548400  0.22484100  0.31616900  1
  O  O15  1  0.27451600  0.93383100  0.76649400  1
  O  O16  1  0.97548400  0.31616900  0.48350600  1
  O  O17  1  0.27451600  0.02515900  0.93383100  1
  O  O18  1  0.02515900  0.27451600  0.76649400  1
  O  O19  1  0.27451600  0.76649400  0.02515900  1
  O  O20  1  0.56437300  0.56437300  0.30688000  1
  O  O21  1  0.93383100  0.02515900  0.76649400  1
  O  O22  1  0.02515900  0.76649400  0.93383100  1
  O  O23  1  0.56437300  0.56437300  0.56437300  1
  O  O24  1  0.56437300  0.30688000  0.56437300  1
  O  O25  1  0.93383100  0.27451600  0.02515900  1
  O  O26  1  0.76649400  0.27451600  0.93383100  1
  O  O27  1  0.30688000  0.56437300  0.56437300  1
  O  O28  1  0.76649400  0.93383100  0.02515900  1
  O  O29  1  0.48350600  0.22484100  0.97548400  1
  O  O30  1  0.31616900  0.48350600  0.97548400  1
  O  O31  1  0.22484100  0.31616900  0.97548400  1
loop_
_geom_bond_atom_site_label_1
_geom_bond_atom_site_label_2
_geom_bond_distance
_geom_bond_site_symmetry_2
Na0 O27 2.354260 1_555
Na0 O20 2.354260 1_555
Na0 O9 2.500640 1_555
Na0 O6 2.500640 1_555
Na0 O19 2.512047 1_555
Na0 O0 2.512047 1_555
Na1 O23 2.354263 1_555
Na1 O20 2.354268 1_555
Na1 O5 2.500640 1_555
Na1 O12 2.500640 1_555
Na1 O28 2.512047 1_555
Na1 O1 2.512047 1_555
Na2 O24 2.354260 1_555
Na2 O20 2.354260 1_555
Na2 O3 2.500640 1_555
Na2 O14 2.500640 1_555
Na2 O2 2.512047 1_555
Na2 O25 2.512047 1_555
Na3 O8 2.354263 1_555
Na3 O7 2.354268 1_555
Na3 O15 2.500640 1_555
Na3 O2 2.500640 1_565
Na3 O5 2.512047 1_555
Na3 O10 2.512047 1_565
Na4 O23 2.354263 1_555
Na4 O27 2.354268 1_555
Na4 O13 2.500640 1_555
Na4 O30 2.500640 1_555
Na4 O22 2.512047 1_555
Na4 O15 2.512047 1_555
Na5 O24 2.354260 1_555
Na5 O27 2.354260 1_555
Na5 O10 2.500640 1_555
Na5 O31 2.500640 1_555
Na5 O18 2.512047 1_555
Na5 O17 2.512047 1_555
Na6 O7 2.354260 1_555
Na6 O4 2.354260 1_555
Na6 O0 2.500640 1_655
Na6 O21 2.500640 1_565
Na6 O14 2.512047 1_565
Na6 O13 2.512047 1_655
Na7 O8 2.354263 1_555
Na7 O4 2.354268 1_555
Na7 O1 2.500640 1_555
Na7 O18 2.500640 1_655
Na7 O16 2.512047 1_555
Na7 O9 2.512047 1_655
Na8 O23 2.354263 1_555
Na8 O24 2.354268 1_555
Na8 O16 2.500640 1_555
Na8 O29 2.500640 1_555
Na8 O21 2.512047 1_555
Na8 O26 2.512047 1_555
Na9 O8 2.354263 1_555
Na9 O11 2.354268 1_555
Na9 O26 2.500640 1_555
Na9 O19 2.500640 1_556
Na9 O30 2.512047 1_555
Na9 O3 2.512047 1_556
Na10 O7 2.354260 1_555
Na10 O11 2.354260 1_555
Na10 O17 2.500640 1_565
Na10 O28 2.500640 1_556
Na10 O6 2.512047 1_556
Na10 O29 2.512047 1_565
Na11 O11 2.354260 1_555
Na11 O4 2.354260 1_555
Na11 O25 2.500640 1_556
Na11 O22 2.500640 1_655
Na11 O31 2.512047 1_655
Na11 O12 2.512047 1_556
Cr0 O14 2.088224 1_455
Cr0 O6 2.088224 1_545
Cr0 O31 2.088224 1_554
Cr0 O25 2.088224 1_455
Cr0 O0 2.088224 1_545
Cr0 O17 2.088224 1_554
Cr1 O9 2.088224 1_555
Cr1 O19 2.088224 1_555
Cr1 O1 2.088224 1_455
Cr1 O30 2.088224 1_554
Cr1 O22 2.088224 1_554
Cr1 O12 2.088224 1_455
Cr2 O3 2.088224 1_555
Cr2 O2 2.088224 1_555
Cr2 O26 2.088224 1_554
Cr2 O5 2.088224 1_545
Cr2 O28 2.088224 1_545
Cr2 O29 2.088224 1_554
Cr3 O10 2.088224 1_555
Cr3 O18 2.088224 1_555
Cr3 O15 2.088224 1_545
Cr3 O16 2.088224 1_455
Cr3 O21 2.088224 1_455
Cr3 O13 2.088224 1_545
C0 O1 1.299514 1_555
C0 O2 1.299514 1_565
C0 O0 1.299514 1_655
C1 O9 1.299514 1_555
C1 O10 1.299514 1_555
C1 O3 1.299514 1_555
C2 O6 1.299514 1_555
C2 O13 1.299514 1_555
C2 O5 1.299514 1_555
C3 O14 1.299514 1_555
C3 O12 1.299514 1_555
C3 O16 1.299514 1_555
C4 O15 1.299514 1_555
C4 O19 1.299514 1_556
C4 O17 1.299514 1_565
C5 O21 1.299514 1_565
C5 O22 1.299514 1_655
C5 O28 1.299514 1_556
C6 O26 1.299514 1_555
C6 O18 1.299514 1_655
C6 O25 1.299514 1_556
C7 O31 1.299514 1_555
C7 O29 1.299514 1_555
C7 O30 1.299514 1_555
O4 P0 1.561884 1_555
O7 P0 1.561884 1_555
O8 P0 1.561876 1_555
O11 P0 1.561884 1_555
O20 P1 1.561884 1_555
O23 P1 1.561876 1_555
O24 P1 1.561884 1_555
O27 P1 1.561884 1_555
