# generated using pymatgen
data_KMnP3HO10
_symmetry_space_group_name_H-M   'P 1'
_cell_length_a   8.49980728
_cell_length_b   9.85347167
_cell_length_c   12.02826970
_cell_angle_alpha   105.53534742
_cell_angle_beta   88.94288255
_cell_angle_gamma   113.99001637
_symmetry_Int_Tables_number   1
_chemical_formula_structural   KMnP3HO10
_chemical_formula_sum   'K4 Mn4 P12 H4 O40'
_cell_volume   882.05706707
_cell_formula_units_Z   4
loop_
 _symmetry_equiv_pos_site_id
 _symmetry_equiv_pos_as_xyz
  1  'x, y, z'
loop_
 _atom_site_type_symbol
 _atom_site_label
 _atom_site_symmetry_multiplicity
 _atom_site_fract_x
 _atom_site_fract_y
 _atom_site_fract_z
 _atom_site_occupancy
  K  K0  1  0.19146300  0.25796100  0.61288500  1
  K  K1  1  0.69033900  0.25638600  0.11346400  1
  K  K2  1  0.30838400  0.74229200  0.88703500  1
  K  K3  1  0.80981400  0.74355600  0.38676000  1
  Mn  Mn0  1  0.74987800  0.99975000  0.75005900  1
  Mn  Mn1  1  0.24970100  0.00021000  0.25015200  1
  Mn  Mn2  1  0.99984800  0.49993300  0.49995700  1
  Mn  Mn3  1  0.50101700  0.50038600  0.00030400  1
  P  P0  1  0.03743900  0.21389300  0.29256900  1
  P  P1  1  0.53821400  0.21376500  0.79252300  1
  P  P2  1  0.46185800  0.78628200  0.20739400  1
  P  P3  1  0.96212900  0.78622900  0.70746100  1
  P  P4  1  0.42283700  0.70353000  0.58812300  1
  P  P5  1  0.92327000  0.70365400  0.08787200  1
  P  P6  1  0.07729700  0.29627600  0.91167000  1
  P  P7  1  0.57697700  0.29651200  0.41208800  1
  P  P8  1  0.76647600  0.78478200  0.91418800  1
  P  P9  1  0.26623100  0.78449600  0.41408900  1
  P  P10  1  0.73358800  0.21505400  0.58567900  1
  P  P11  1  0.23379500  0.21570500  0.08608200  1
  H  H0  1  0.50071800  0.50192100  0.50008300  1
  H  H1  1  0.99934800  0.49710900  0.99974800  1
  H  H2  1  0.74816200  0.99832100  0.24996500  1
  H  H3  1  0.25090400  0.00074400  0.75000900  1
  O  O0  1  0.14478700  0.28301200  0.19211300  1
  O  O1  1  0.64442200  0.28239500  0.69183500  1
  O  O2  1  0.35577900  0.71743000  0.30807000  1
  O  O3  1  0.85540000  0.71736200  0.80804000  1
  O  O4  1  0.02453300  0.63091100  0.00401800  1
  O  O5  1  0.52490600  0.63119600  0.50392600  1
  O  O6  1  0.47589700  0.36945500  0.49618100  1
  O  O7  1  0.97506200  0.36880800  0.99578900  1
  O  O8  1  0.11436900  0.11348800  0.32817500  1
  O  O9  1  0.61485500  0.11291400  0.82771600  1
  O  O10  1  0.38526700  0.88692500  0.17219000  1
  O  O11  1  0.88501100  0.88681600  0.67223300  1
  O  O12  1  0.38836300  0.81982800  0.52616900  1
  O  O13  1  0.88856400  0.82050900  0.02626800  1
  O  O14  1  0.11152900  0.18016500  0.97390000  1
  O  O15  1  0.61141100  0.17955500  0.47366600  1
  O  O16  1  0.07594700  0.35927000  0.39241800  1
  O  O17  1  0.57616400  0.35876900  0.89233800  1
  O  O18  1  0.42443200  0.64129300  0.10765100  1
  O  O19  1  0.92396300  0.64112500  0.60756200  1
  O  O20  1  0.53038000  0.81349900  0.70304700  1
  O  O21  1  0.03024200  0.81361800  0.20316900  1
  O  O22  1  0.96944500  0.18617300  0.79688800  1
  O  O23  1  0.46933500  0.18661700  0.29701800  1
  O  O24  1  0.25041200  0.58796100  0.60950200  1
  O  O25  1  0.75009100  0.58897500  0.10964800  1
  O  O26  1  0.24969600  0.41186500  0.89037900  1
  O  O27  1  0.75003100  0.41109000  0.39023000  1
  O  O28  1  0.75820500  0.93166500  0.90834700  1
  O  O29  1  0.25815300  0.93148100  0.40847500  1
  O  O30  1  0.74158300  0.06803600  0.59145100  1
  O  O31  1  0.24192600  0.06870300  0.09168700  1
  O  O32  1  0.34838500  0.12518000  0.74076400  1
  O  O33  1  0.84813400  0.12552100  0.24054500  1
  O  O34  1  0.15172600  0.87471100  0.75918100  1
  O  O35  1  0.65175800  0.87502300  0.25937900  1
  O  O36  1  0.90921800  0.34660800  0.58644800  1
  O  O37  1  0.40950800  0.34697700  0.08645800  1
  O  O38  1  0.59080900  0.65324500  0.91359000  1
  O  O39  1  0.09061500  0.65308000  0.41337300  1
loop_
_geom_bond_atom_site_label_1
_geom_bond_atom_site_label_2
_geom_bond_distance
_geom_bond_site_symmetry_2
K0 O6 2.750181 1_555
K0 O32 2.903362 1_555
K0 O36 2.915532 1_455
K0 O22 2.925580 1_455
K0 O24 3.093736 1_555
K0 O26 3.228727 1_555
K0 O8 3.300976 1_555
K1 O7 2.760602 1_554
K1 O33 2.887204 1_555
K1 O23 2.913037 1_555
K1 O37 2.918334 1_555
K1 O25 3.118670 1_555
K1 O27 3.221579 1_555
K1 O9 3.311279 1_554
K2 O4 2.748500 1_556
K2 O34 2.898921 1_555
K2 O38 2.919887 1_555
K2 O20 2.924297 1_555
K2 O26 3.098349 1_555
K2 O24 3.229749 1_555
K2 O10 3.305970 1_556
K3 O5 2.757907 1_555
K3 O35 2.895643 1_555
K3 O21 2.911296 1_655
K3 O39 2.916356 1_655
K3 O27 3.116184 1_555
K3 O25 3.225201 1_555
K3 O11 3.307970 1_555
Mn0 O20 1.966575 1_555
Mn0 O22 1.967591 1_565
Mn0 O11 1.968646 1_555
Mn0 O9 1.968790 1_565
Mn0 O28 2.192674 1_555
Mn0 O30 2.197380 1_565
Mn1 O23 1.967867 1_555
Mn1 O21 1.967949 1_545
Mn1 O8 1.973038 1_555
Mn1 O10 1.974455 1_545
Mn1 O31 2.196111 1_555
Mn1 O29 2.196766 1_545
Mn2 O16 1.936588 1_655
Mn2 O19 1.939356 1_555
Mn2 O39 1.955127 1_655
Mn2 O36 1.955550 1_555
Mn2 O27 2.233847 1_555
Mn2 O24 2.239091 1_655
Mn3 O18 1.939658 1_555
Mn3 O17 1.940388 1_554
Mn3 O38 1.953558 1_554
Mn3 O37 1.953748 1_555
Mn3 O25 2.226845 1_555
Mn3 O26 2.245802 1_554
H0 O5 1.192831 1_555
H0 O6 1.222301 1_555
H1 O7 1.182800 1_555
H1 O4 1.233416 1_656
H2 O35 1.192072 1_555
H2 O33 1.229755 1_565
H3 O32 1.202417 1_555
H3 O34 1.218078 1_545
O0 P11 1.599404 1_555
O0 P0 1.628259 1_555
O1 P10 1.601397 1_555
O1 P1 1.625110 1_555
O2 P9 1.601254 1_555
O2 P2 1.625435 1_555
O3 P8 1.600349 1_555
O3 P3 1.626566 1_555
O4 P5 1.534366 1_455
O5 P4 1.539500 1_555
O6 P7 1.535742 1_555
O7 P6 1.541062 1_655
O8 P0 1.533992 1_555
O9 P1 1.533938 1_555
O10 P2 1.531871 1_555
O11 P3 1.534619 1_555
O12 P9 1.588286 1_555
O12 P4 1.641005 1_555
O13 P8 1.587007 1_554
O13 P5 1.644131 1_555
O14 P11 1.589370 1_556
O14 P6 1.640537 1_555
O15 P10 1.587411 1_555
O15 P7 1.643737 1_555
O16 P0 1.520923 1_555
O17 P1 1.519071 1_555
O18 P2 1.519206 1_555
O19 P3 1.519968 1_555
O20 P4 1.536036 1_555
O21 P5 1.537701 1_455
O22 P6 1.535953 1_655
O23 P7 1.537416 1_555
O24 P4 1.515475 1_555
O25 P5 1.517893 1_555
O26 P6 1.515036 1_555
O27 P7 1.517143 1_555
O28 P8 1.497319 1_555
O29 P9 1.496765 1_555
O30 P10 1.497360 1_555
O31 P11 1.497097 1_555
O32 P1 1.534160 1_555
O33 P0 1.531281 1_655
O34 P3 1.532367 1_455
O35 P2 1.535454 1_555
O36 P10 1.526257 1_555
O37 P11 1.526422 1_555
O38 P8 1.526800 1_555
O39 P9 1.525699 1_555
