# generated using pymatgen
data_Li3FeSiO5
_symmetry_space_group_name_H-M   'P 1'
_cell_length_a   5.02564300
_cell_length_b   5.79972214
_cell_length_c   6.51497294
_cell_angle_alpha   104.53543208
_cell_angle_beta   97.86718993
_cell_angle_gamma   106.62286451
_symmetry_Int_Tables_number   1
_chemical_formula_structural   Li3FeSiO5
_chemical_formula_sum   'Li6 Fe2 Si2 O10'
_cell_volume   171.61875686
_cell_formula_units_Z   2
loop_
 _symmetry_equiv_pos_site_id
 _symmetry_equiv_pos_as_xyz
  1  'x, y, z'
loop_
 _atom_site_type_symbol
 _atom_site_label
 _atom_site_symmetry_multiplicity
 _atom_site_fract_x
 _atom_site_fract_y
 _atom_site_fract_z
 _atom_site_occupancy
  Li  Li0  1  0.70238200  0.40017400  0.39771500  1
  Li  Li1  1  0.50000000  0.00000000  0.00000000  1
  Li  Li2  1  0.50000000  0.50000000  0.00000000  1
  Li  Li3  1  0.29761800  0.59982600  0.60228500  1
  Li  Li4  1  0.10912600  0.20134400  0.18620300  1
  Li  Li5  1  0.89087400  0.79865600  0.81379700  1
  Fe  Fe0  1  0.69642100  0.88997200  0.39045600  1
  Fe  Fe1  1  0.30357900  0.11002800  0.60954400  1
  Si  Si0  1  0.09650000  0.69190500  0.19169200  1
  Si  Si1  1  0.90350000  0.30809500  0.80830800  1
  O  O0  1  0.83595800  0.83680700  0.12024100  1
  O  O1  1  0.83551600  0.37370700  0.08185200  1
  O  O2  1  0.62532000  0.98881300  0.71198800  1
  O  O3  1  0.63012300  0.42710800  0.70519400  1
  O  O4  1  0.37468000  0.01118700  0.28801200  1
  O  O5  1  0.36987700  0.57289200  0.29480600  1
  O  O6  1  0.16404200  0.16319300  0.87975900  1
  O  O7  1  0.16448400  0.62629300  0.91814800  1
  O  O8  1  0.98995200  0.25288000  0.53774000  1
  O  O9  1  0.01004800  0.74712000  0.46226000  1
loop_
_geom_bond_atom_site_label_1
_geom_bond_atom_site_label_2
_geom_bond_distance
_geom_bond_site_symmetry_2
Li0 O9 2.057599 1_655
Li0 O3 2.060021 1_555
Li0 O8 2.094584 1_555
Li0 O1 2.232278 1_555
Li0 O4 2.248420 1_555
Li0 O5 2.287680 1_555
Li1 O4 2.051220 1_555
Li1 O2 2.051220 1_544
Li1 O7 2.215381 1_544
Li1 O1 2.215381 1_555
Li1 O0 2.298821 1_545
Li1 O6 2.298821 1_554
Li2 O0 2.064686 1_555
Li2 O6 2.064686 1_554
Li2 O7 2.078613 1_554
Li2 O1 2.078613 1_555
Li2 O5 2.095167 1_555
Li2 O3 2.095167 1_554
Li3 O8 2.057599 1_455
Li3 O5 2.060021 1_555
Li3 O9 2.094584 1_555
Li3 O7 2.232278 1_555
Li3 O2 2.248420 1_555
Li3 O3 2.287680 1_555
Li4 O6 2.018682 1_554
Li4 O1 2.055236 1_455
Li4 O5 2.055866 1_555
Li4 O0 2.064238 1_445
Li4 O4 2.098644 1_555
Li4 O8 2.414049 1_455
Li5 O0 2.018682 1_556
Li5 O7 2.055236 1_655
Li5 O3 2.055866 1_555
Li5 O6 2.064238 1_665
Li5 O2 2.098644 1_555
Li5 O9 2.414049 1_655
Fe0 O0 1.968555 1_555
Fe0 O5 1.970146 1_555
Fe0 O9 2.032099 1_655
Fe0 O4 2.035850 1_565
Fe0 O8 2.085478 1_565
Fe0 O2 2.136285 1_555
Fe1 O6 1.968555 1_555
Fe1 O3 1.970146 1_555
Fe1 O8 2.032099 1_455
Fe1 O2 2.035850 1_545
Fe1 O9 2.085478 1_545
Fe1 O4 2.136285 1_555
O0 Si0 1.815639 1_655
O1 Si0 1.825764 1_655
O1 Si1 1.827074 1_554
O2 Si1 1.863502 1_565
O3 Si1 1.827014 1_555
O4 Si0 1.863502 1_545
O5 Si0 1.827014 1_555
O6 Si1 1.815639 1_455
O7 Si1 1.825764 1_455
O7 Si0 1.827074 1_556
O8 Si1 1.845128 1_555
O9 Si0 1.845128 1_555
