# generated using pymatgen
data_Ba2YCl7
_symmetry_space_group_name_H-M   'P 1'
_cell_length_a   13.87961700
_cell_length_b   7.17174300
_cell_length_c   12.48632850
_cell_angle_alpha   84.80776461
_cell_angle_beta   90.00000000
_cell_angle_gamma   90.00000000
_symmetry_Int_Tables_number   1
_chemical_formula_structural   Ba2YCl7
_chemical_formula_sum   'Ba8 Y4 Cl28'
_cell_volume   1237.80216510
_cell_formula_units_Z   4
loop_
 _symmetry_equiv_pos_site_id
 _symmetry_equiv_pos_as_xyz
  1  'x, y, z'
loop_
 _atom_site_type_symbol
 _atom_site_label
 _atom_site_symmetry_multiplicity
 _atom_site_fract_x
 _atom_site_fract_y
 _atom_site_fract_z
 _atom_site_occupancy
  Ba  Ba0  1  0.54189800  0.76169000  0.73875400  1
  Ba  Ba1  1  0.13914500  0.73133800  0.62097600  1
  Ba  Ba2  1  0.78245400  0.74421000  0.12204700  1
  Ba  Ba3  1  0.37283600  0.70659800  0.22700900  1
  Ba  Ba4  1  0.87283600  0.29340200  0.77299100  1
  Ba  Ba5  1  0.28245400  0.25579000  0.87795300  1
  Ba  Ba6  1  0.63914500  0.26866200  0.37902400  1
  Ba  Ba7  1  0.04189800  0.23831000  0.26124600  1
  Y  Y0  1  0.84493200  0.81040000  0.54471600  1
  Y  Y1  1  0.07623900  0.79196500  0.04098200  1
  Y  Y2  1  0.57623900  0.20803500  0.95901800  1
  Y  Y3  1  0.34493200  0.18960000  0.45528400  1
  Cl  Cl0  1  0.70319900  0.96483800  0.88996600  1
  Cl  Cl1  1  0.43880800  0.94587700  0.98195800  1
  Cl  Cl2  1  0.49527800  0.96237700  0.50090700  1
  Cl  Cl3  1  0.14990400  0.88616300  0.85315300  1
  Cl  Cl4  1  0.23405800  0.91477200  0.39294000  1
  Cl  Cl5  1  0.77227000  0.89472900  0.35437400  1
  Cl  Cl6  1  0.91364000  0.79245500  0.74300200  1
  Cl  Cl7  1  0.01148400  0.76934100  0.24179900  1
  Cl  Cl8  1  0.33466400  0.61511600  0.72912500  1
  Cl  Cl9  1  0.58786600  0.62120400  0.22592200  1
  Cl  Cl10  1  0.70463100  0.56733600  0.60400100  1
  Cl  Cl11  1  0.70377700  0.47969500  0.90552600  1
  Cl  Cl12  1  0.95542000  0.51755800  0.52830100  1
  Cl  Cl13  1  0.45055000  0.46881800  0.99125800  1
  Cl  Cl14  1  0.95055000  0.53118200  0.00874200  1
  Cl  Cl15  1  0.45542000  0.48244200  0.47169900  1
  Cl  Cl16  1  0.20377700  0.52030500  0.09447400  1
  Cl  Cl17  1  0.20463100  0.43266400  0.39599900  1
  Cl  Cl18  1  0.08786600  0.37879600  0.77407800  1
  Cl  Cl19  1  0.83466400  0.38488400  0.27087500  1
  Cl  Cl20  1  0.51148400  0.23065900  0.75820100  1
  Cl  Cl21  1  0.41364000  0.20754500  0.25699800  1
  Cl  Cl22  1  0.27227000  0.10527100  0.64562600  1
  Cl  Cl23  1  0.73405800  0.08522800  0.60706000  1
  Cl  Cl24  1  0.64990400  0.11383700  0.14684700  1
  Cl  Cl25  1  0.99527800  0.03762300  0.49909300  1
  Cl  Cl26  1  0.93880800  0.05412300  0.01804200  1
  Cl  Cl27  1  0.20319900  0.03516200  0.11003400  1
loop_
_geom_bond_atom_site_label_1
_geom_bond_atom_site_label_2
_geom_bond_distance
_geom_bond_site_symmetry_2
Ba0 Cl8 3.068485 1_555
Ba0 Cl10 3.209355 1_555
Ba0 Cl2 3.245996 1_555
Ba0 Cl0 3.346278 1_555
Ba0 Cl20 3.420078 1_565
Ba0 Cl11 3.565432 1_555
Ba0 Cl1 3.706744 1_555
Ba0 Cl23 3.809302 1_565
Ba0 Cl20 3.817568 1_555
Ba0 Cl13 3.842012 1_555
Ba1 Cl18 3.111073 1_555
Ba1 Cl8 3.111091 1_555
Ba1 Cl3 3.200352 1_555
Ba1 Cl12 3.242445 1_455
Ba1 Cl25 3.243973 1_465
Ba1 Cl22 3.293934 1_565
Ba1 Cl4 3.300819 1_555
Ba1 Cl6 3.525754 1_455
Ba1 Cl17 3.794034 1_555
Ba2 Cl9 3.089942 1_555
Ba2 Cl19 3.122914 1_555
Ba2 Cl5 3.188626 1_555
Ba2 Cl14 3.189088 1_555
Ba2 Cl24 3.264388 1_565
Ba2 Cl26 3.288396 1_565
Ba2 Cl0 3.358760 1_554
Ba2 Cl7 3.524507 1_655
Ba2 Cl11 3.609527 1_554
Ba3 Cl9 3.046998 1_555
Ba3 Cl16 3.229512 1_555
Ba3 Cl4 3.285065 1_555
Ba3 Cl1 3.492163 1_554
Ba3 Cl15 3.513395 1_555
Ba3 Cl27 3.550571 1_565
Ba3 Cl17 3.607232 1_555
Ba3 Cl21 3.609460 1_555
Ba3 Cl21 3.689401 1_565
Ba3 Cl13 3.693945 1_554
Ba4 Cl18 3.046998 1_655
Ba4 Cl11 3.229512 1_555
Ba4 Cl23 3.285065 1_555
Ba4 Cl26 3.492163 1_556
Ba4 Cl12 3.513395 1_555
Ba4 Cl0 3.550571 1_545
Ba4 Cl10 3.607232 1_555
Ba4 Cl6 3.609460 1_555
Ba4 Cl6 3.689401 1_545
Ba4 Cl14 3.693945 1_556
Ba5 Cl18 3.089942 1_555
Ba5 Cl8 3.122914 1_555
Ba5 Cl22 3.188626 1_555
Ba5 Cl13 3.189088 1_555
Ba5 Cl3 3.264388 1_545
Ba5 Cl1 3.288396 1_545
Ba5 Cl27 3.358760 1_556
Ba5 Cl20 3.524507 1_555
Ba5 Cl16 3.609527 1_556
Ba6 Cl9 3.111073 1_555
Ba6 Cl19 3.111091 1_555
Ba6 Cl24 3.200352 1_555
Ba6 Cl15 3.242445 1_555
Ba6 Cl2 3.243973 1_545
Ba6 Cl5 3.293934 1_545
Ba6 Cl23 3.300819 1_555
Ba6 Cl21 3.525754 1_555
Ba6 Cl10 3.794034 1_555
Ba7 Cl19 3.068485 1_455
Ba7 Cl17 3.209355 1_555
Ba7 Cl25 3.245996 1_455
Ba7 Cl27 3.346278 1_555
Ba7 Cl7 3.420078 1_545
Ba7 Cl16 3.565432 1_555
Ba7 Cl26 3.706744 1_455
Ba7 Cl4 3.809302 1_545
Ba7 Cl7 3.817568 1_555
Ba7 Cl14 3.842012 1_455
Cl0 Y2 2.676345 1_565
Cl1 Y2 2.675440 1_565
Cl2 Y3 2.677041 1_565
Cl3 Y1 2.591411 1_556
Cl4 Y3 2.671458 1_565
Cl5 Y0 2.602171 1_555
Cl6 Y0 2.645416 1_555
Cl7 Y1 2.654784 1_555
Cl10 Y0 2.673052 1_555
Cl11 Y2 2.672059 1_555
Cl12 Y0 2.623438 1_555
Cl13 Y2 2.615256 1_555
Cl14 Y1 2.615256 1_655
Cl15 Y3 2.623438 1_555
Cl16 Y1 2.672059 1_555
Cl17 Y3 2.673052 1_555
Cl20 Y2 2.654784 1_555
Cl21 Y3 2.645416 1_555
Cl22 Y3 2.602171 1_555
Cl23 Y0 2.671458 1_545
Cl24 Y2 2.591411 1_554
Cl25 Y0 2.677041 1_545
Cl26 Y1 2.675440 1_645
Cl27 Y1 2.676345 1_545
