# generated using pymatgen
data_LiSbO3
_symmetry_space_group_name_H-M   'P 1'
_cell_length_a   6.02070400
_cell_length_b   6.02070400
_cell_length_c   6.02070400
_cell_angle_alpha   90.00000000
_cell_angle_beta   90.00000000
_cell_angle_gamma   90.00000000
_symmetry_Int_Tables_number   1
_chemical_formula_structural   LiSbO3
_chemical_formula_sum   'Li4 Sb4 O12'
_cell_volume   218.24375668
_cell_formula_units_Z   4
loop_
 _symmetry_equiv_pos_site_id
 _symmetry_equiv_pos_as_xyz
  1  'x, y, z'
loop_
 _atom_site_type_symbol
 _atom_site_label
 _atom_site_symmetry_multiplicity
 _atom_site_fract_x
 _atom_site_fract_y
 _atom_site_fract_z
 _atom_site_occupancy
  Li  Li0  1  0.87189600  0.87189600  0.87189600  1
  Li  Li1  1  0.62810400  0.12810400  0.37189600  1
  Li  Li2  1  0.37189600  0.62810400  0.12810400  1
  Li  Li3  1  0.12810400  0.37189600  0.62810400  1
  Sb  Sb0  1  0.09210700  0.90789300  0.40789300  1
  Sb  Sb1  1  0.40789300  0.09210700  0.90789300  1
  Sb  Sb2  1  0.59210700  0.59210700  0.59210700  1
  Sb  Sb3  1  0.90789300  0.40789300  0.09210700  1
  O  O0  1  0.98495700  0.22298900  0.36240900  1
  O  O1  1  0.13759100  0.01504300  0.72298900  1
  O  O2  1  0.22298900  0.36240900  0.98495700  1
  O  O3  1  0.27701100  0.63759100  0.48495700  1
  O  O4  1  0.36240900  0.98495700  0.22298900  1
  O  O5  1  0.51504300  0.77701100  0.86240900  1
  O  O6  1  0.48495700  0.27701100  0.63759100  1
  O  O7  1  0.63759100  0.48495700  0.27701100  1
  O  O8  1  0.72298900  0.13759100  0.01504300  1
  O  O9  1  0.77701100  0.86240900  0.51504300  1
  O  O10  1  0.86240900  0.51504300  0.77701100  1
  O  O11  1  0.01504300  0.72298900  0.13759100  1
loop_
_geom_bond_atom_site_label_1
_geom_bond_atom_site_label_2
_geom_bond_distance
_geom_bond_site_symmetry_2
Li0 O1 2.026199 1_665
Li0 O8 2.026199 1_566
Li0 O11 2.026199 1_656
Li0 O10 2.223892 1_555
Li0 O5 2.223892 1_555
Li0 O9 2.223892 1_555
Li1 O4 2.026199 1_545
Li1 O9 2.026199 1_545
Li1 O6 2.026199 1_555
Li1 O7 2.223892 1_555
Li1 O0 2.223892 1_555
Li1 O8 2.223892 1_555
Li2 O5 2.026199 1_554
Li2 O2 2.026199 1_554
Li2 O7 2.026199 1_555
Li2 O3 2.223892 1_555
Li2 O4 2.223892 1_555
Li2 O11 2.223892 1_555
Li3 O0 2.026199 1_455
Li3 O10 2.026199 1_455
Li3 O3 2.026199 1_555
Li3 O6 2.223892 1_555
Li3 O2 2.223892 1_555
Li3 O1 2.223892 1_555
O0 Sb0 2.022414 1_645
O0 Sb3 2.025602 1_555
O1 Sb0 2.022414 1_545
O1 Sb1 2.025602 1_555
O2 Sb3 2.022414 1_456
O2 Sb1 2.025602 1_555
O3 Sb2 2.022414 1_555
O3 Sb0 2.025602 1_555
O4 Sb1 2.022414 1_564
O4 Sb0 2.025602 1_555
O5 Sb1 2.022414 1_565
O5 Sb2 2.025602 1_555
O6 Sb2 2.022414 1_555
O6 Sb1 2.025602 1_555
O7 Sb2 2.022414 1_555
O7 Sb3 2.025602 1_555
O8 Sb1 2.022414 1_554
O8 Sb3 2.025602 1_555
O9 Sb0 2.022414 1_655
O9 Sb2 2.025602 1_555
O10 Sb3 2.022414 1_556
O10 Sb2 2.025602 1_555
O11 Sb3 2.022414 1_455
O11 Sb0 2.025602 1_555
