# generated using pymatgen
data_Li4CrTe2WO12
_symmetry_space_group_name_H-M   'P 1'
_cell_length_a   7.53269800
_cell_length_b   7.53696125
_cell_length_c   7.54239659
_cell_angle_alpha   87.04850089
_cell_angle_beta   86.96132984
_cell_angle_gamma   86.87373528
_symmetry_Int_Tables_number   1
_chemical_formula_structural   Li4CrTe2WO12
_chemical_formula_sum   'Li8 Cr2 Te4 W2 O24'
_cell_volume   426.46349447
_cell_formula_units_Z   2
loop_
 _symmetry_equiv_pos_site_id
 _symmetry_equiv_pos_as_xyz
  1  'x, y, z'
loop_
 _atom_site_type_symbol
 _atom_site_label
 _atom_site_symmetry_multiplicity
 _atom_site_fract_x
 _atom_site_fract_y
 _atom_site_fract_z
 _atom_site_occupancy
  Li  Li0  1  0.30438200  0.28154500  0.27633800  1
  Li  Li1  1  0.30436000  0.78149900  0.77647500  1
  Li  Li2  1  0.76634800  0.29371200  0.79135600  1
  Li  Li3  1  0.76629700  0.79351900  0.29128000  1
  Li  Li4  1  0.74870800  0.75616300  0.76600600  1
  Li  Li5  1  0.74874400  0.25624700  0.26591900  1
  Li  Li6  1  0.30854800  0.79986700  0.29536000  1
  Li  Li7  1  0.30843400  0.29992400  0.79543900  1
  Cr  Cr0  1  0.50001100  0.00388900  0.50473100  1
  Cr  Cr1  1  0.50000900  0.50375000  0.00465600  1
  Te  Te0  1  0.50253000  0.49828500  0.50106100  1
  Te  Te1  1  0.50253500  0.99822900  0.00101500  1
  Te  Te2  1  0.00108300  0.50404800  0.00416500  1
  Te  Te3  1  0.00099700  0.00393500  0.50404000  1
  W  W0  1  0.00434200  0.49981800  0.49916900  1
  W  W1  1  0.00435700  0.99978100  0.99918800  1
  O  O0  1  0.42629500  0.25896700  0.55294100  1
  O  O1  1  0.42624200  0.75899500  0.05292300  1
  O  O2  1  0.75258400  0.42789400  0.55567500  1
  O  O3  1  0.75256900  0.92777700  0.05558600  1
  O  O4  1  0.05956600  0.42398800  0.73656700  1
  O  O5  1  0.05942200  0.92419900  0.23729000  1
  O  O6  1  0.43146700  0.55021600  0.74259400  1
  O  O7  1  0.43161700  0.05026800  0.24277300  1
  O  O8  1  0.93151000  0.23892400  0.06559700  1
  O  O9  1  0.93182800  0.73961000  0.56553200  1
  O  O10  1  0.75262700  0.54470900  0.92441900  1
  O  O11  1  0.75328800  0.04465600  0.42461600  1
  O  O12  1  0.24785300  0.42812700  0.05402800  1
  O  O13  1  0.24721500  0.92834600  0.55385900  1
  O  O14  1  0.05821000  0.75938900  0.91788200  1
  O  O15  1  0.05802000  0.25865900  0.41793900  1
  O  O16  1  0.54974500  0.42966100  0.25842700  1
  O  O17  1  0.54963200  0.92966900  0.75833300  1
  O  O18  1  0.92816900  0.56913100  0.25650800  1
  O  O19  1  0.92832500  0.06907600  0.75588000  1
  O  O20  1  0.24475200  0.56229800  0.43269700  1
  O  O21  1  0.24475200  0.06239800  0.93283800  1
  O  O22  1  0.55246200  0.74071800  0.43568700  1
  O  O23  1  0.55256300  0.24052100  0.93561100  1
loop_
_geom_bond_atom_site_label_1
_geom_bond_atom_site_label_2
_geom_bond_distance
_geom_bond_site_symmetry_2
Li0 O7 1.964345 1_555
Li0 O12 2.011709 1_555
Li0 O15 2.102403 1_555
Li0 O16 2.205342 1_555
Li0 O0 2.318242 1_555
Li0 O20 2.483399 1_555
Li1 O6 1.964323 1_555
Li1 O13 2.015634 1_555
Li1 O14 2.099760 1_555
Li1 O17 2.204959 1_555
Li1 O1 2.317064 1_556
Li1 O21 2.484350 1_565
Li2 O23 1.943600 1_555
Li2 O2 2.004085 1_555
Li2 O19 2.052685 1_555
Li2 O10 2.181709 1_555
Li2 O4 2.472108 1_655
Li2 O8 2.474994 1_556
Li3 O22 1.943832 1_555
Li3 O3 2.004412 1_555
Li3 O18 2.050018 1_555
Li3 O11 2.183818 1_565
Li3 O5 2.472215 1_655
Li3 O9 2.475932 1_555
Li4 O17 1.936415 1_555
Li4 O10 1.941883 1_555
Li4 O9 1.996024 1_555
Li4 O3 2.597312 1_556
Li5 O16 1.935499 1_555
Li5 O11 1.943946 1_555
Li5 O8 1.993847 1_555
Li6 O1 2.020109 1_555
Li6 O20 2.088075 1_555
Li6 O5 2.108227 1_555
Li6 O7 2.157138 1_565
Li6 O22 2.182425 1_555
Li6 O13 2.236649 1_555
Li7 O0 2.021112 1_555
Li7 O21 2.087792 1_555
Li7 O4 2.107158 1_555
Li7 O6 2.156508 1_555
Li7 O23 2.183462 1_555
Li7 O12 2.235511 1_556
Cr0 O11 2.005507 1_555
Cr0 O17 2.013483 1_545
Cr0 O0 2.017611 1_555
Cr0 O13 2.027145 1_545
Cr0 O7 2.075696 1_555
Cr0 O22 2.088224 1_545
Cr1 O10 2.001323 1_554
Cr1 O16 2.014664 1_555
Cr1 O1 2.018978 1_555
Cr1 O12 2.023004 1_555
Cr1 O6 2.076839 1_554
Cr1 O23 2.088739 1_554
O0 Te0 1.937214 1_555
O1 Te1 1.936797 1_555
O2 Te0 1.987405 1_555
O2 W0 2.018550 1_655
O3 Te1 1.987278 1_555
O3 W1 2.018830 1_654
O4 W0 1.911389 1_555
O4 Te2 2.152670 1_556
O5 W1 1.915599 1_554
O5 Te3 2.145814 1_565
O6 Te0 1.925008 1_555
O7 Te1 1.926563 1_545
O8 W1 1.938204 1_644
O8 Te2 2.115512 1_655
O9 W0 1.942097 1_655
O9 Te3 2.109008 1_665
O10 Te2 1.999043 1_656
O11 Te3 1.992940 1_655
O12 Te2 1.964716 1_555
O13 Te3 1.960156 1_565
O14 W1 1.957349 1_555
O14 Te2 2.060106 1_556
O15 W0 1.962345 1_555
O15 Te3 2.055241 1_555
O16 Te0 1.936869 1_555
O17 Te1 1.936960 1_556
O18 W0 1.982958 1_655
O18 Te2 2.029939 1_655
O19 W1 1.987102 1_645
O19 Te3 2.026131 1_655
O20 W0 1.930039 1_555
O20 Te0 2.060932 1_555
O21 W1 1.930042 1_545
O21 Te1 2.060761 1_546
O22 Te0 1.919844 1_555
O23 Te1 1.919049 1_546
