# generated using pymatgen
data_Li2V(Si2O5)3
_symmetry_space_group_name_H-M   'P 1'
_cell_length_a   7.24411496
_cell_length_b   7.24411496
_cell_length_c   14.93444464
_cell_angle_alpha   78.28704194
_cell_angle_beta   78.28704194
_cell_angle_gamma   59.52635880
_symmetry_Int_Tables_number   1
_chemical_formula_structural   Li2V(Si2O5)3
_chemical_formula_sum   'Li4 V2 Si12 O30'
_cell_volume   656.72713401
_cell_formula_units_Z   2
loop_
 _symmetry_equiv_pos_site_id
 _symmetry_equiv_pos_as_xyz
  1  'x, y, z'
loop_
 _atom_site_type_symbol
 _atom_site_label
 _atom_site_symmetry_multiplicity
 _atom_site_fract_x
 _atom_site_fract_y
 _atom_site_fract_z
 _atom_site_occupancy
  Li  Li0  1  0.50920500  0.84846600  0.05039300  1
  Li  Li1  1  0.05253700  0.38188700  0.16330300  1
  Li  Li2  1  0.84846600  0.50920500  0.55039300  1
  Li  Li3  1  0.38188700  0.05253700  0.66330300  1
  V  V0  1  0.79324100  0.29870100  0.09704300  1
  V  V1  1  0.29870100  0.79324100  0.59704300  1
  Si  Si0  1  0.54432700  0.63811700  0.25462100  1
  Si  Si1  1  0.01932400  0.08383800  0.43169700  1
  Si  Si2  1  0.63811700  0.54432700  0.75462100  1
  Si  Si3  1  0.08383800  0.01932400  0.93169700  1
  Si  Si4  1  0.35100200  0.17865900  0.44868300  1
  Si  Si5  1  0.62758800  0.00919400  0.25254300  1
  Si  Si6  1  0.17865900  0.35100200  0.94868300  1
  Si  Si7  1  0.00919400  0.62758800  0.75254300  1
  Si  Si8  1  0.07786900  0.90614500  0.24497900  1
  Si  Si9  1  0.55429800  0.43712700  0.46037100  1
  Si  Si10  1  0.90614500  0.07786900  0.74497900  1
  Si  Si11  1  0.43712700  0.55429800  0.96037100  1
  O  O0  1  0.55038100  0.56116400  0.04154800  1
  O  O1  1  0.05790400  0.06477500  0.15019400  1
  O  O2  1  0.06951300  0.03586300  0.32538800  1
  O  O3  1  0.74934400  0.46543000  0.19562600  1
  O  O4  1  0.57850000  0.57744000  0.36286600  1
  O  O5  1  0.56116400  0.55038100  0.54154800  1
  O  O6  1  0.99622000  0.42561500  0.03603800  1
  O  O7  1  0.06477500  0.05790400  0.65019400  1
  O  O8  1  0.53567800  0.87383900  0.21610400  1
  O  O9  1  0.03586300  0.06951300  0.82538800  1
  O  O10  1  0.46543000  0.74934400  0.69562600  1
  O  O11  1  0.09197700  0.26378200  0.44043900  1
  O  O12  1  0.57744000  0.57850000  0.86286600  1
  O  O13  1  0.42561500  0.99622000  0.53603800  1
  O  O14  1  0.48789300  0.10055300  0.34916000  1
  O  O15  1  0.87383900  0.53567800  0.71610400  1
  O  O16  1  0.60784100  0.19838900  0.16975300  1
  O  O17  1  0.88225500  0.84310500  0.26996600  1
  O  O18  1  0.26378200  0.09197700  0.94043900  1
  O  O19  1  0.34832100  0.39673300  0.46676300  1
  O  O20  1  0.10055300  0.48789300  0.84916000  1
  O  O21  1  0.30704100  0.67756500  0.24068200  1
  O  O22  1  0.19838900  0.60784100  0.66975300  1
  O  O23  1  0.84310500  0.88225500  0.76996600  1
  O  O24  1  0.76219500  0.19171700  0.46394600  1
  O  O25  1  0.15528300  0.86107800  0.49498600  1
  O  O26  1  0.39673300  0.34832100  0.96676300  1
  O  O27  1  0.67756500  0.30704100  0.74068200  1
  O  O28  1  0.19171700  0.76219500  0.96394600  1
  O  O29  1  0.86107800  0.15528300  0.99498600  1
loop_
_geom_bond_atom_site_label_1
_geom_bond_atom_site_label_2
_geom_bond_distance
_geom_bond_site_symmetry_2
Li0 O0 1.975848 1_555
Li0 O18 2.407765 1_564
Li0 O8 2.570670 1_555
Li1 O3 1.939904 1_455
Li1 O6 1.954093 1_455
Li1 O1 2.325053 1_555
Li2 O5 1.975848 1_555
Li2 O11 2.407765 1_655
Li2 O15 2.570670 1_555
Li3 O10 1.939904 1_545
Li3 O13 1.954093 1_545
Li3 O7 2.325053 1_555
O0 Si11 1.617106 1_554
O0 V0 1.989090 1_555
O1 Si8 1.612246 1_545
O1 V0 1.988458 1_455
O2 Si1 1.623315 1_555
O2 Si8 1.643082 1_545
O3 Si0 1.605829 1_555
O3 V0 1.967198 1_555
O4 Si0 1.622168 1_555
O4 Si9 1.631104 1_555
O5 Si9 1.617106 1_555
O5 V1 1.989090 1_555
O6 Si6 1.613224 1_654
O6 V0 2.079558 1_555
O7 Si10 1.612246 1_455
O7 V1 1.988458 1_545
O8 Si5 1.651306 1_565
O8 Si0 1.660724 1_555
O9 Si3 1.623315 1_555
O9 Si10 1.643082 1_455
O10 Si2 1.605829 1_555
O10 V1 1.967198 1_555
O11 Si1 1.669162 1_555
O11 Si4 1.675018 1_555
O12 Si2 1.622168 1_555
O12 Si11 1.631104 1_555
O13 Si4 1.613224 1_565
O13 V1 2.079558 1_555
O14 Si5 1.630846 1_555
O14 Si4 1.639079 1_555
O15 Si7 1.651306 1_655
O15 Si2 1.660724 1_555
O16 Si5 1.616335 1_555
O16 V0 1.894304 1_555
O17 Si8 1.651759 1_655
O17 Si5 1.653838 1_565
O18 Si3 1.669162 1_555
O18 Si6 1.675018 1_555
O19 Si9 1.641599 1_555
O19 Si4 1.645857 1_555
O20 Si7 1.630846 1_555
O20 Si6 1.639079 1_555
O21 Si0 1.643963 1_555
O21 Si8 1.647341 1_555
O22 Si7 1.616335 1_555
O22 V1 1.894304 1_555
O23 Si10 1.651759 1_565
O23 Si7 1.653838 1_655
O24 Si1 1.619987 1_655
O24 Si9 1.646193 1_555
O25 Si1 1.616814 1_565
O25 V1 1.861434 1_555
O26 Si11 1.641599 1_555
O26 Si6 1.645857 1_555
O27 Si2 1.643963 1_555
O27 Si10 1.647341 1_555
O28 Si3 1.619987 1_565
O28 Si11 1.646193 1_555
O29 Si3 1.616814 1_655
O29 V0 1.861434 1_556
