# generated using pymatgen
data_Li2Fe3(CoO4)3
_symmetry_space_group_name_H-M   'P 1'
_cell_length_a   5.85011900
_cell_length_b   5.97753623
_cell_length_c   6.71085889
_cell_angle_alpha   105.18809406
_cell_angle_beta   103.27992519
_cell_angle_gamma   90.03682628
_symmetry_Int_Tables_number   1
_chemical_formula_structural   Li2Fe3(CoO4)3
_chemical_formula_sum   'Li2 Fe3 Co3 O12'
_cell_volume   219.95830958
_cell_formula_units_Z   1
loop_
 _symmetry_equiv_pos_site_id
 _symmetry_equiv_pos_as_xyz
  1  'x, y, z'
loop_
 _atom_site_type_symbol
 _atom_site_label
 _atom_site_symmetry_multiplicity
 _atom_site_fract_x
 _atom_site_fract_y
 _atom_site_fract_z
 _atom_site_occupancy
  Li  Li0  1  0.68623100  0.68192800  0.68132700  1
  Li  Li1  1  0.31376900  0.31807200  0.31867300  1
  Fe  Fe0  1  0.83299000  0.84598700  0.32549500  1
  Fe  Fe1  1  0.50000000  0.50000000  0.00000000  1
  Fe  Fe2  1  0.16701000  0.15401300  0.67450500  1
  Co  Co0  1  0.33397200  0.83359300  0.33067800  1
  Co  Co1  1  0.00000000  0.50000000  0.00000000  1
  Co  Co2  1  0.66602800  0.16640700  0.66932200  1
  O  O0  1  0.24466300  0.72712300  0.02983400  1
  O  O1  1  0.75570100  0.70955100  0.00726300  1
  O  O2  1  0.42796800  0.93214500  0.63710300  1
  O  O3  1  0.09123100  0.60650900  0.30141400  1
  O  O4  1  0.89326300  0.94235000  0.64560000  1
  O  O5  1  0.56802200  0.61235400  0.31571000  1
  O  O6  1  0.43197800  0.38764600  0.68429000  1
  O  O7  1  0.10673700  0.05765000  0.35440000  1
  O  O8  1  0.90876900  0.39349100  0.69858600  1
  O  O9  1  0.57203200  0.06785500  0.36289700  1
  O  O10  1  0.24429900  0.29044900  0.99273700  1
  O  O11  1  0.75533700  0.27287700  0.97016600  1
loop_
_geom_bond_atom_site_label_1
_geom_bond_atom_site_label_2
_geom_bond_distance
_geom_bond_site_symmetry_2
Li0 O4 2.067415 1_555
Li0 O1 2.092615 1_556
Li0 O2 2.153453 1_555
Li0 O8 2.172373 1_555
Li0 O6 2.309914 1_555
Li0 O5 2.314475 1_555
Li1 O7 2.067415 1_555
Li1 O10 2.092615 1_554
Li1 O9 2.153453 1_555
Li1 O3 2.172373 1_555
Li1 O5 2.309914 1_555
Li1 O6 2.314475 1_555
Fe0 O7 1.982208 1_665
Fe0 O1 2.018338 1_555
Fe0 O4 2.018462 1_555
Fe0 O9 2.038801 1_565
Fe0 O5 2.063942 1_555
Fe0 O3 2.085987 1_655
Fe1 O1 1.934204 1_555
Fe1 O10 1.934204 1_554
Fe1 O6 1.991225 1_554
Fe1 O5 1.991225 1_555
Fe1 O11 2.027840 1_554
Fe1 O0 2.027840 1_555
Fe2 O4 1.982208 1_445
Fe2 O10 2.018338 1_555
Fe2 O7 2.018462 1_555
Fe2 O2 2.038801 1_545
Fe2 O6 2.063942 1_555
Fe2 O8 2.085987 1_455
Co0 O7 1.890519 1_565
Co0 O0 1.896251 1_555
Co0 O3 1.904576 1_555
Co0 O5 1.905171 1_555
Co0 O9 1.909890 1_565
Co0 O2 1.929618 1_555
Co1 O3 1.900132 1_555
Co1 O8 1.900132 1_454
Co1 O1 1.901642 1_455
Co1 O10 1.901642 1_554
Co1 O0 1.911891 1_555
Co1 O11 1.911891 1_454
Co2 O4 1.890519 1_545
Co2 O11 1.896251 1_555
Co2 O8 1.904576 1_555
Co2 O6 1.905171 1_555
Co2 O2 1.909890 1_545
Co2 O9 1.929618 1_555
