# generated using pymatgen
data_VNi5(PO4)6
_symmetry_space_group_name_H-M   'P 1'
_cell_length_a   8.25071512
_cell_length_b   8.25071512
_cell_length_c   8.25071524
_cell_angle_alpha   61.32182983
_cell_angle_beta   61.32182985
_cell_angle_gamma   61.32182762
_symmetry_Int_Tables_number   1
_chemical_formula_structural   VNi5(PO4)6
_chemical_formula_sum   'V1 Ni5 P6 O24'
_cell_volume   408.95365097
_cell_formula_units_Z   1
loop_
 _symmetry_equiv_pos_site_id
 _symmetry_equiv_pos_as_xyz
  1  'x, y, z'
loop_
 _atom_site_type_symbol
 _atom_site_label
 _atom_site_symmetry_multiplicity
 _atom_site_fract_x
 _atom_site_fract_y
 _atom_site_fract_z
 _atom_site_occupancy
  V  V0  1  0.85681317  0.85681317  0.85681317  1
  Ni  Ni0  1  0.00029457  0.00029457  0.00029457  1
  Ni  Ni1  1  0.36116705  0.36116705  0.36116705  1
  Ni  Ni2  1  0.50112432  0.50112432  0.50112432  1
  Ni  Ni3  1  0.14134886  0.14134886  0.14134886  1
  Ni  Ni4  1  0.64027603  0.64027603  0.64027603  1
  P  P0  1  0.75021126  0.04191626  0.45356381  1
  P  P1  1  0.04191626  0.45356381  0.75021126  1
  P  P2  1  0.45356381  0.75021126  0.04191626  1
  P  P3  1  0.54153633  0.25305660  0.95847450  1
  P  P4  1  0.95847450  0.54153633  0.25305660  1
  P  P5  1  0.25305660  0.95847450  0.54153633  1
  O  O0  1  0.88331558  0.49009431  0.68423631  1
  O  O1  1  0.49009431  0.68423631  0.88331558  1
  O  O2  1  0.68423631  0.88331558  0.49009431  1
  O  O3  1  0.91299956  0.05656887  0.25494001  1
  O  O4  1  0.82955728  0.98186983  0.61932341  1
  O  O5  1  0.59402114  0.24000183  0.45662230  1
  O  O6  1  0.05656887  0.25494001  0.91299956  1
  O  O7  1  0.24000183  0.45662230  0.59402114  1
  O  O8  1  0.38267188  0.19120745  0.98614007  1
  O  O9  1  0.45662230  0.59402114  0.24000183  1
  O  O10  1  0.74695756  0.08774260  0.93104005  1
  O  O11  1  0.98614007  0.38267188  0.19120745  1
  O  O12  1  0.98186983  0.61932341  0.82955728  1
  O  O13  1  0.25494001  0.91299956  0.05656887  1
  O  O14  1  0.55844598  0.41401947  0.75459842  1
  O  O15  1  0.61932341  0.82955728  0.98186983  1
  O  O16  1  0.75459842  0.55844598  0.41401947  1
  O  O17  1  0.93104005  0.74695756  0.08774260  1
  O  O18  1  0.41401947  0.75459842  0.55844598  1
  O  O19  1  0.19120745  0.98614007  0.38267188  1
  O  O20  1  0.08774260  0.93104005  0.74695756  1
  O  O21  1  0.30812349  0.11794917  0.51776067  1
  O  O22  1  0.51776067  0.30812349  0.11794917  1
  O  O23  1  0.11794917  0.51776067  0.30812349  1
loop_
_geom_bond_atom_site_label_1
_geom_bond_atom_site_label_2
_geom_bond_distance
_geom_bond_site_symmetry_2
Ni0 O13 2.076413 1_545
Ni0 O6 2.076413 1_554
Ni0 O3 2.076413 1_455
Ni0 O10 2.125848 1_454
Ni0 O17 2.125848 1_445
Ni0 O20 2.125848 1_544
Ni1 O23 1.923420 1_555
Ni1 O22 1.923420 1_555
Ni1 O21 1.923420 1_555
Ni1 O5 2.040567 1_555
Ni1 O7 2.040567 1_555
Ni1 O9 2.040567 1_555
Ni2 O5 2.065955 1_555
Ni2 O7 2.065955 1_555
Ni2 O9 2.065955 1_555
Ni2 O18 2.072299 1_555
Ni2 O16 2.072299 1_555
Ni2 O14 2.072299 1_555
Ni3 O11 1.899177 1_455
Ni3 O19 1.899177 1_545
Ni3 O8 1.899177 1_554
Ni3 O13 1.964237 1_545
Ni3 O6 1.964237 1_554
Ni3 O3 1.964237 1_455
Ni4 O0 1.889416 1_555
Ni4 O2 1.889416 1_555
Ni4 O1 1.889416 1_555
Ni4 O18 1.933612 1_555
Ni4 O16 1.933612 1_555
Ni4 O14 1.933612 1_555
O0 P1 1.499050 1_655
O1 P2 1.499050 1_556
O2 P0 1.499050 1_565
O3 P0 1.535366 1_555
O4 P0 1.562748 1_565
O4 V0 1.792885 1_555
O5 P0 1.522944 1_555
O6 P1 1.535366 1_555
O7 P1 1.522944 1_555
O8 P3 1.507839 1_555
O9 P2 1.522944 1_555
O10 P3 1.579103 1_555
O10 V0 1.938185 1_545
O11 P4 1.507839 1_555
O12 P1 1.562748 1_655
O12 V0 1.792885 1_555
O13 P2 1.535366 1_555
O14 P3 1.556029 1_555
O15 P2 1.562748 1_556
O15 V0 1.792885 1_555
O16 P4 1.556029 1_555
O17 P4 1.579103 1_555
O17 V0 1.938185 1_554
O18 P5 1.556029 1_555
O19 P5 1.507839 1_555
O20 P5 1.579103 1_555
O20 V0 1.938185 1_455
O21 P5 1.488852 1_545
O22 P3 1.488852 1_554
O23 P4 1.488852 1_455
