# generated using pymatgen
data_Ba6Li2Ti7Nb9O42
_symmetry_space_group_name_H-M   'P 1'
_cell_length_a   9.31530161
_cell_length_b   9.31530161
_cell_length_c   11.79164099
_cell_angle_alpha   89.95738506
_cell_angle_beta   89.95738506
_cell_angle_gamma   119.86934410
_symmetry_Int_Tables_number   1
_chemical_formula_structural   Ba6Li2Ti7Nb9O42
_chemical_formula_sum   'Ba6 Li2 Ti7 Nb9 O42'
_cell_volume   887.29599406
_cell_formula_units_Z   1
loop_
 _symmetry_equiv_pos_site_id
 _symmetry_equiv_pos_as_xyz
  1  'x, y, z'
loop_
 _atom_site_type_symbol
 _atom_site_label
 _atom_site_symmetry_multiplicity
 _atom_site_fract_x
 _atom_site_fract_y
 _atom_site_fract_z
 _atom_site_occupancy
  Ba  Ba0  1  0.40286000  0.40286000  0.75462300  1
  Ba  Ba1  1  0.58878700  0.58878700  0.24819800  1
  Ba  Ba2  1  0.59353300  0.99973200  0.75402100  1
  Ba  Ba3  1  0.40472300  0.00472000  0.24978000  1
  Ba  Ba4  1  0.00472000  0.40472300  0.24978000  1
  Ba  Ba5  1  0.99973200  0.59353300  0.75402100  1
  Li  Li0  1  0.99947200  0.99947200  0.76553500  1
  Li  Li1  1  0.00504800  0.00504800  0.25771900  1
  Ti  Ti0  1  0.25224300  0.25224300  0.08810400  1
  Ti  Ti1  1  0.24925300  0.24925300  0.40525900  1
  Ti  Ti2  1  0.75023900  0.75023900  0.91058400  1
  Ti  Ti3  1  0.75038400  0.99920000  0.40975600  1
  Ti  Ti4  1  0.00347400  0.25009900  0.91344800  1
  Ti  Ti5  1  0.25009900  0.00347400  0.91344800  1
  Ti  Ti6  1  0.99920000  0.75038400  0.40975600  1
  Nb  Nb0  1  0.74647400  0.74647400  0.58953900  1
  Nb  Nb1  1  0.33314500  0.66252200  0.99454200  1
  Nb  Nb2  1  0.33319200  0.66698900  0.49147900  1
  Nb  Nb3  1  0.75011000  0.00149200  0.08879500  1
  Nb  Nb4  1  0.00136100  0.25219300  0.59017800  1
  Nb  Nb5  1  0.25219300  0.00136100  0.59017800  1
  Nb  Nb6  1  0.66252200  0.33314500  0.99454200  1
  Nb  Nb7  1  0.66698900  0.33319200  0.49147900  1
  Nb  Nb8  1  0.00149200  0.75011000  0.08879500  1
  O  O0  1  0.19933700  0.19933700  0.92609800  1
  O  O1  1  0.20429800  0.20429800  0.57414500  1
  O  O2  1  0.20684800  0.20684800  0.24874500  1
  O  O3  1  0.31147600  0.47993400  0.39870700  1
  O  O4  1  0.31319300  0.48025100  0.09805600  1
  O  O5  1  0.79836000  0.79836000  0.75039800  1
  O  O6  1  0.79954100  0.79954100  0.42332300  1
  O  O7  1  0.79473400  0.79473400  0.07489000  1
  O  O8  1  0.16765700  0.48024200  0.89730800  1
  O  O9  1  0.16842200  0.48415000  0.60160200  1
  O  O10  1  0.52068600  0.68868400  0.89897300  1
  O  O11  1  0.51521700  0.68419100  0.60176100  1
  O  O12  1  0.51616200  0.83057100  0.10114900  1
  O  O13  1  0.52065300  0.83261800  0.39900200  1
  O  O14  1  0.16704700  0.68823400  0.39895600  1
  O  O15  1  0.16807700  0.68269200  0.10291800  1
  O  O16  1  0.80254500  0.99942700  0.92337500  1
  O  O17  1  0.79528100  0.00008600  0.57432900  1
  O  O18  1  0.80012700  0.00047200  0.25041300  1
  O  O19  1  0.31062900  0.83246200  0.90277600  1
  O  O20  1  0.31525000  0.83136900  0.60136700  1
  O  O21  1  0.00024300  0.19879200  0.42322400  1
  O  O22  1  0.00019100  0.20300100  0.07482200  1
  O  O23  1  0.00152100  0.20192100  0.75073600  1
  O  O24  1  0.68269200  0.16807700  0.10291800  1
  O  O25  1  0.68823400  0.16704700  0.39895600  1
  O  O26  1  0.20192100  0.00152100  0.75073600  1
  O  O27  1  0.19879200  0.00024300  0.42322400  1
  O  O28  1  0.20300100  0.00019100  0.07482200  1
  O  O29  1  0.83246200  0.31062900  0.90277600  1
  O  O30  1  0.83136900  0.31525000  0.60136700  1
  O  O31  1  0.48415000  0.16842200  0.60160200  1
  O  O32  1  0.48024200  0.16765700  0.89730800  1
  O  O33  1  0.47993400  0.31147600  0.39870700  1
  O  O34  1  0.48025100  0.31319300  0.09805600  1
  O  O35  1  0.83261800  0.52065300  0.39900200  1
  O  O36  1  0.83057100  0.51616200  0.10114900  1
  O  O37  1  0.68419100  0.51521700  0.60176100  1
  O  O38  1  0.68868300  0.52068600  0.89897300  1
  O  O39  1  0.00047200  0.80012700  0.25041300  1
  O  O40  1  0.00008600  0.79528100  0.57432900  1
  O  O41  1  0.99942700  0.80254500  0.92337500  1
loop_
_geom_bond_atom_site_label_1
_geom_bond_atom_site_label_2
_geom_bond_distance
_geom_bond_site_symmetry_2
Ba0 O0 2.772278 1_555
Ba0 O1 2.824082 1_555
Ba0 O38 2.879182 1_555
Ba0 O10 2.879189 1_555
Ba0 O11 2.910415 1_555
Ba0 O37 2.910415 1_555
Ba0 O32 3.117728 1_555
Ba0 O8 3.117728 1_555
Ba0 O31 3.201470 1_555
Ba0 O9 3.201470 1_555
Ba0 O26 3.242370 1_555
Ba0 O23 3.242370 1_555
Ba1 O7 2.803499 1_555
Ba1 O6 2.854096 1_555
Ba1 O4 2.858569 1_555
Ba1 O34 2.858569 1_555
Ba1 O3 2.869231 1_555
Ba1 O33 2.869231 1_555
Ba1 O12 3.170287 1_555
Ba1 O36 3.170287 1_555
Ba1 O35 3.188139 1_555
Ba1 O13 3.188139 1_555
Ba1 O39 3.326201 1_655
Ba1 O18 3.326201 1_565
Ba2 O16 2.791056 1_555
Ba2 O17 2.830092 1_565
Ba2 O32 2.839189 1_565
Ba2 O31 2.886356 1_565
Ba2 O19 2.889398 1_555
Ba2 O20 2.895070 1_555
Ba2 O10 3.132080 1_555
Ba2 O29 3.163995 1_565
Ba2 O11 3.204591 1_555
Ba2 O30 3.207404 1_565
Ba2 O5 3.275083 1_555
Ba2 O23 3.295872 1_665
Ba3 O28 2.777746 1_555
Ba3 O27 2.789050 1_555
Ba3 O24 2.843251 1_555
Ba3 O25 2.896322 1_555
Ba3 O12 2.908582 1_545
Ba3 O13 2.924999 1_545
Ba3 O33 3.123357 1_555
Ba3 O34 3.151137 1_555
Ba3 O14 3.189473 1_545
Ba3 O15 3.206851 1_545
Ba3 O2 3.224897 1_555
Ba3 O39 3.265635 1_545
Ba4 O22 2.777746 1_555
Ba4 O21 2.789050 1_555
Ba4 O15 2.843251 1_555
Ba4 O14 2.896322 1_555
Ba4 O36 2.908582 1_455
Ba4 O35 2.924999 1_455
Ba4 O3 3.123357 1_555
Ba4 O4 3.151137 1_555
Ba4 O25 3.189473 1_455
Ba4 O24 3.206851 1_455
Ba4 O2 3.224897 1_555
Ba4 O18 3.265635 1_455
Ba5 O41 2.791056 1_555
Ba5 O40 2.830092 1_655
Ba5 O8 2.839189 1_655
Ba5 O9 2.886356 1_655
Ba5 O29 2.889398 1_555
Ba5 O30 2.895070 1_555
Ba5 O38 3.132087 1_555
Ba5 O19 3.163995 1_655
Ba5 O37 3.204591 1_555
Ba5 O20 3.207404 1_655
Ba5 O5 3.275083 1_555
Ba5 O26 3.295872 1_665
Li0 O26 1.884406 1_665
Li0 O23 1.884406 1_665
Li0 O5 1.885848 1_555
Li0 O41 2.612153 1_555
Li0 O16 2.612153 1_555
Li1 O2 1.886352 1_555
Li1 O18 1.890064 1_455
Li1 O39 1.890064 1_545
Nb0 O11 1.937160 1_555
Nb0 O37 1.937160 1_555
Nb0 O5 1.958336 1_555
Nb0 O6 2.020864 1_555
Nb0 O17 2.179344 1_565
Nb0 O40 2.179344 1_655
Nb1 O10 1.988450 1_555
Nb1 O8 1.993110 1_555
Nb1 O19 2.012313 1_555
Nb1 O4 2.022266 1_556
Nb1 O12 2.070064 1_556
Nb1 O15 2.077981 1_556
Nb2 O3 1.981388 1_555
Nb2 O13 1.982432 1_555
Nb2 O14 1.982943 1_555
Nb2 O20 2.075860 1_555
Nb2 O11 2.079617 1_555
Nb2 O9 2.081539 1_555
Nb3 O24 1.949647 1_555
Nb3 O12 1.961799 1_545
Nb3 O18 1.963346 1_555
Nb3 O16 2.012880 1_544
Nb3 O22 2.149655 1_655
Nb3 O7 2.169568 1_545
Nb4 O9 1.939134 1_555
Nb4 O30 1.948405 1_455
Nb4 O23 1.950142 1_555
Nb4 O21 2.029659 1_555
Nb4 O1 2.155961 1_555
Nb4 O17 2.178550 1_455
Nb5 O31 1.939134 1_555
Nb5 O20 1.948405 1_545
Nb5 O26 1.950142 1_555
Nb5 O27 2.029659 1_555
Nb5 O1 2.155961 1_555
Nb5 O40 2.178550 1_545
Nb6 O38 1.988453 1_555
Nb6 O32 1.993110 1_555
Nb6 O29 2.012313 1_555
Nb6 O34 2.022266 1_556
Nb6 O36 2.070064 1_556
Nb6 O24 2.077981 1_556
Nb7 O33 1.981388 1_555
Nb7 O35 1.982432 1_555
Nb7 O25 1.982943 1_555
Nb7 O30 2.075860 1_555
Nb7 O37 2.079617 1_555
Nb7 O31 2.081539 1_555
Nb8 O15 1.949647 1_555
Nb8 O36 1.961799 1_455
Nb8 O39 1.963346 1_555
Nb8 O41 2.012880 1_454
Nb8 O28 2.149655 1_565
Nb8 O7 2.169568 1_455
O0 Ti0 1.973818 1_556
O0 Ti5 2.105795 1_555
O0 Ti4 2.105795 1_555
O1 Ti1 2.034558 1_555
O2 Ti1 1.888095 1_555
O2 Ti0 1.940416 1_555
O3 Ti1 1.928372 1_555
O4 Ti0 1.909626 1_555
O5 Ti2 1.940873 1_555
O6 Ti6 2.131293 1_555
O6 Ti3 2.131293 1_555
O7 Ti2 1.982052 1_554
O8 Ti4 1.924710 1_555
O10 Ti2 1.923372 1_555
O13 Ti3 1.922689 1_555
O14 Ti6 1.922892 1_455
O16 Ti2 2.126614 1_555
O16 Ti4 2.148387 1_665
O17 Ti3 1.984603 1_545
O18 Ti3 1.933489 1_545
O19 Ti5 1.940718 1_565
O21 Ti1 2.135291 1_555
O21 Ti3 2.142434 1_445
O22 Ti4 1.949262 1_554
O22 Ti0 2.162328 1_555
O23 Ti4 1.968789 1_555
O25 Ti3 1.922892 1_545
O26 Ti5 1.968789 1_555
O27 Ti1 2.135291 1_555
O27 Ti6 2.142434 1_445
O28 Ti5 1.949262 1_554
O28 Ti0 2.162328 1_555
O29 Ti4 1.940718 1_655
O32 Ti5 1.924710 1_555
O33 Ti1 1.928372 1_555
O34 Ti0 1.909626 1_555
O35 Ti6 1.922689 1_555
O38 Ti2 1.923369 1_555
O39 Ti6 1.933489 1_455
O40 Ti6 1.984603 1_455
O41 Ti2 2.126614 1_555
O41 Ti5 2.148387 1_665
