# generated using pymatgen
data_LiMnF3
_symmetry_space_group_name_H-M   'P 1'
_cell_length_a   5.89076100
_cell_length_b   9.33973100
_cell_length_c   10.06838700
_cell_angle_alpha   90.00000000
_cell_angle_beta   90.00000000
_cell_angle_gamma   90.00000000
_symmetry_Int_Tables_number   1
_chemical_formula_structural   LiMnF3
_chemical_formula_sum   'Li8 Mn8 F24'
_cell_volume   553.94375564
_cell_formula_units_Z   8
loop_
 _symmetry_equiv_pos_site_id
 _symmetry_equiv_pos_as_xyz
  1  'x, y, z'
loop_
 _atom_site_type_symbol
 _atom_site_label
 _atom_site_symmetry_multiplicity
 _atom_site_fract_x
 _atom_site_fract_y
 _atom_site_fract_z
 _atom_site_occupancy
  Li  Li0  1  0.54884600  0.42031800  0.20334700  1
  Li  Li1  1  0.04884600  0.57968200  0.20334700  1
  Li  Li2  1  0.04884600  0.07968200  0.29665300  1
  Li  Li3  1  0.54884600  0.92031800  0.29665300  1
  Li  Li4  1  0.45115400  0.07968200  0.70334700  1
  Li  Li5  1  0.95115400  0.92031800  0.70334700  1
  Li  Li6  1  0.95115400  0.42031800  0.79665300  1
  Li  Li7  1  0.45115400  0.57968200  0.79665300  1
  Mn  Mn0  1  0.25000000  0.28225400  0.00000000  1
  Mn  Mn1  1  0.75000000  0.09372000  0.00000000  1
  Mn  Mn2  1  0.25000000  0.90628000  0.00000000  1
  Mn  Mn3  1  0.75000000  0.71774600  0.00000000  1
  Mn  Mn4  1  0.75000000  0.59372000  0.50000000  1
  Mn  Mn5  1  0.25000000  0.78225400  0.50000000  1
  Mn  Mn6  1  0.75000000  0.21774600  0.50000000  1
  Mn  Mn7  1  0.25000000  0.40628000  0.50000000  1
  F  F0  1  0.08565500  0.08735700  0.10377800  1
  F  F1  1  0.58565500  0.91264300  0.10377800  1
  F  F2  1  0.56939300  0.25068700  0.09910700  1
  F  F3  1  0.06939300  0.74931300  0.09910700  1
  F  F4  1  0.23474100  0.43017500  0.15383500  1
  F  F5  1  0.73474100  0.56982500  0.15383500  1
  F  F6  1  0.23474100  0.93017500  0.34616500  1
  F  F7  1  0.73474100  0.06982500  0.34616500  1
  F  F8  1  0.06939300  0.24931300  0.40089300  1
  F  F9  1  0.56939300  0.75068700  0.40089300  1
  F  F10  1  0.08565500  0.58735700  0.39622200  1
  F  F11  1  0.58565500  0.41264300  0.39622200  1
  F  F12  1  0.91434500  0.41264300  0.60377800  1
  F  F13  1  0.41434500  0.58735700  0.60377800  1
  F  F14  1  0.43060700  0.24931300  0.59910700  1
  F  F15  1  0.93060700  0.75068700  0.59910700  1
  F  F16  1  0.26525900  0.93017500  0.65383500  1
  F  F17  1  0.76525900  0.06982500  0.65383500  1
  F  F18  1  0.26525900  0.43017500  0.84616500  1
  F  F19  1  0.76525900  0.56982500  0.84616500  1
  F  F20  1  0.93060700  0.25068700  0.90089300  1
  F  F21  1  0.43060700  0.74931300  0.90089300  1
  F  F22  1  0.41434500  0.08735700  0.89622200  1
  F  F23  1  0.91434500  0.91264300  0.89622200  1
loop_
_geom_bond_atom_site_label_1
_geom_bond_atom_site_label_2
_geom_bond_distance
_geom_bond_site_symmetry_2
F0 Li2 1.955323 1_555
F0 Mn2 2.211156 1_545
F0 Mn1 2.237157 1_455
F0 Mn0 2.311376 1_555
F1 Li3 1.955323 1_555
F1 Mn1 2.211156 1_565
F1 Mn2 2.237157 1_555
F1 Mn3 2.311376 1_555
F2 Li0 1.904256 1_555
F2 Mn1 2.068055 1_555
F2 Mn0 2.150010 1_555
F3 Li1 1.904256 1_555
F3 Mn2 2.068055 1_555
F3 Mn3 2.150010 1_455
F4 Li1 1.843225 1_555
F4 Li0 1.918504 1_555
F4 Mn0 2.077435 1_555
F5 Li0 1.843225 1_555
F5 Li1 1.918504 1_655
F5 Mn3 2.077435 1_555
F6 Li2 1.843225 1_565
F6 Li3 1.918504 1_555
F6 Mn5 2.077435 1_555
F7 Li3 1.843225 1_545
F7 Li2 1.918504 1_655
F7 Mn6 2.077435 1_555
F8 Li2 1.904256 1_555
F8 Mn7 2.068055 1_555
F8 Mn6 2.150010 1_455
F9 Li3 1.904256 1_555
F9 Mn4 2.068055 1_555
F9 Mn5 2.150010 1_555
F10 Li1 1.955323 1_555
F10 Mn7 2.211156 1_555
F10 Mn4 2.237157 1_455
F10 Mn5 2.311376 1_555
F11 Li0 1.955323 1_555
F11 Mn4 2.211156 1_555
F11 Mn7 2.237157 1_555
F11 Mn6 2.311376 1_555
F12 Li6 1.955323 1_555
F12 Mn4 2.211156 1_555
F12 Mn7 2.237157 1_655
F12 Mn6 2.311376 1_555
F13 Li7 1.955323 1_555
F13 Mn7 2.211156 1_555
F13 Mn4 2.237157 1_555
F13 Mn5 2.311376 1_555
F14 Li4 1.904256 1_555
F14 Mn7 2.068055 1_555
F14 Mn6 2.150010 1_555
F15 Li5 1.904256 1_555
F15 Mn4 2.068055 1_555
F15 Mn5 2.150010 1_655
F16 Li4 1.843225 1_565
F16 Li5 1.918504 1_455
F16 Mn5 2.077435 1_555
F17 Li5 1.843225 1_545
F17 Li4 1.918504 1_555
F17 Mn6 2.077435 1_555
F18 Li7 1.843225 1_555
F18 Li6 1.918504 1_455
F18 Mn0 2.077435 1_556
F19 Li6 1.843225 1_555
F19 Li7 1.918504 1_555
F19 Mn3 2.077435 1_556
F20 Li6 1.904256 1_555
F20 Mn1 2.068055 1_556
F20 Mn0 2.150010 1_656
F21 Li7 1.904256 1_555
F21 Mn2 2.068055 1_556
F21 Mn3 2.150010 1_556
F22 Li4 1.955323 1_555
F22 Mn2 2.211156 1_546
F22 Mn1 2.237157 1_556
F22 Mn0 2.311376 1_556
F23 Li5 1.955323 1_555
F23 Mn1 2.211156 1_566
F23 Mn2 2.237157 1_656
F23 Mn3 2.311376 1_556
