# generated using pymatgen
data_Li4Mn3Fe2Ni3O16
_symmetry_space_group_name_H-M   'P 1'
_cell_length_a   5.78387100
_cell_length_b   5.79115772
_cell_length_c   9.46148645
_cell_angle_alpha   89.89390337
_cell_angle_beta   90.52390276
_cell_angle_gamma   119.68650046
_symmetry_Int_Tables_number   1
_chemical_formula_structural   Li4Mn3Fe2Ni3O16
_chemical_formula_sum   'Li4 Mn3 Fe2 Ni3 O16'
_cell_volume   275.30688735
_cell_formula_units_Z   1
loop_
 _symmetry_equiv_pos_site_id
 _symmetry_equiv_pos_as_xyz
  1  'x, y, z'
loop_
 _atom_site_type_symbol
 _atom_site_label
 _atom_site_symmetry_multiplicity
 _atom_site_fract_x
 _atom_site_fract_y
 _atom_site_fract_z
 _atom_site_occupancy
  Li  Li0  1  0.33543400  0.67463000  0.88763100  1
  Li  Li1  1  0.00164700  0.99866000  0.99608000  1
  Li  Li2  1  0.00240500  0.99490600  0.49797500  1
  Li  Li3  1  0.67134200  0.33158900  0.39548400  1
  Mn  Mn0  1  0.17049500  0.33972600  0.21400600  1
  Mn  Mn1  1  0.66098800  0.83215900  0.21541200  1
  Mn  Mn2  1  0.82789000  0.16773500  0.71444900  1
  Fe  Fe0  1  0.32075700  0.65678100  0.49390200  1
  Fe  Fe1  1  0.66201100  0.34122400  0.98935300  1
  Ni  Ni0  1  0.16847500  0.82856900  0.21562800  1
  Ni  Ni1  1  0.33932500  0.17174100  0.71583200  1
  Ni  Ni2  1  0.83037900  0.66084100  0.71323400  1
  O  O0  1  0.15978200  0.31755400  0.60470700  1
  O  O1  1  0.48684600  0.51824800  0.33264200  1
  O  O2  1  0.33562000  0.66302500  0.10698300  1
  O  O3  1  0.99982200  0.00473600  0.30948800  1
  O  O4  1  0.98198300  0.98555500  0.80915500  1
  O  O5  1  0.67616500  0.83727700  0.60193900  1
  O  O6  1  0.03527800  0.49680500  0.34313600  1
  O  O7  1  0.47901500  0.95849000  0.33727300  1
  O  O8  1  0.83525900  0.16227400  0.10317200  1
  O  O9  1  0.15491900  0.82850000  0.60376700  1
  O  O10  1  0.52073500  0.04248300  0.83491500  1
  O  O11  1  0.96215300  0.48209100  0.83360900  1
  O  O12  1  0.68305200  0.34517400  0.60618700  1
  O  O13  1  0.32821800  0.18380900  0.09487300  1
  O  O14  1  0.52899400  0.49511800  0.83283500  1
  O  O15  1  0.84071200  0.68000100  0.10417500  1
loop_
_geom_bond_atom_site_label_1
_geom_bond_atom_site_label_2
_geom_bond_distance
_geom_bond_site_symmetry_2
Li0 O10 1.918319 1_565
Li0 O11 1.939919 1_455
Li0 O14 1.941202 1_555
Li0 O2 2.076367 1_556
Li1 O4 1.770556 1_455
Li1 O13 1.885869 1_566
Li1 O15 1.904449 1_456
Li1 O8 1.942987 1_466
Li2 O3 1.784332 1_465
Li2 O9 1.879101 1_555
Li2 O0 1.909232 1_565
Li2 O5 1.919859 1_455
Li3 O6 1.901062 1_655
Li3 O1 1.946613 1_555
Li3 O7 1.954935 1_545
Li3 O12 1.994469 1_555
Mn0 O6 1.912620 1_555
Mn0 O3 1.914959 1_455
Mn0 O2 1.918960 1_555
Mn0 O13 1.938165 1_555
Mn0 O1 1.941582 1_555
Mn0 O8 1.976983 1_455
Mn1 O3 1.913942 1_565
Mn1 O2 1.922496 1_555
Mn1 O1 1.936194 1_555
Mn1 O7 1.939180 1_555
Mn1 O15 1.973686 1_555
Mn1 O8 1.975322 1_565
Mn2 O4 1.903582 1_545
Mn2 O12 1.907876 1_555
Mn2 O10 1.933634 1_555
Mn2 O11 1.944121 1_555
Mn2 O5 1.972983 1_545
Mn2 O0 1.974650 1_655
Fe0 O9 1.989064 1_555
Fe0 O0 2.005942 1_555
Fe0 O6 2.016460 1_555
Fe0 O5 2.049470 1_555
Fe0 O7 2.125545 1_555
Fe0 O1 2.165434 1_555
Fe1 O13 1.960530 1_556
Fe1 O15 2.019018 1_556
Fe1 O14 2.057344 1_555
Fe1 O8 2.059732 1_556
Fe1 O10 2.093611 1_555
Fe1 O11 2.118993 1_555
Ni0 O7 1.934855 1_555
Ni0 O3 1.945750 1_465
Ni0 O15 1.948667 1_455
Ni0 O2 1.962190 1_555
Ni0 O6 2.069453 1_555
Ni0 O13 2.125834 1_565
Ni1 O10 1.919360 1_555
Ni1 O0 1.934481 1_555
Ni1 O14 1.971449 1_555
Ni1 O4 2.009095 1_445
Ni1 O12 2.023228 1_555
Ni1 O9 2.024889 1_545
Ni2 O4 1.867409 1_555
Ni2 O12 1.881995 1_555
Ni2 O14 1.901371 1_555
Ni2 O11 1.926360 1_555
Ni2 O9 1.940494 1_655
Ni2 O5 1.957037 1_555
