# generated using pymatgen
data_V3O5F
_symmetry_space_group_name_H-M   'P 1'
_cell_length_a   2.90529527
_cell_length_b   6.44291656
_cell_length_c   10.24665426
_cell_angle_alpha   71.70835122
_cell_angle_beta   90.00000000
_cell_angle_gamma   90.00000000
_symmetry_Int_Tables_number   1
_chemical_formula_structural   V3O5F
_chemical_formula_sum   'V6 O10 F2'
_cell_volume   182.11120936
_cell_formula_units_Z   2
loop_
 _symmetry_equiv_pos_site_id
 _symmetry_equiv_pos_as_xyz
  1  'x, y, z'
loop_
 _atom_site_type_symbol
 _atom_site_label
 _atom_site_symmetry_multiplicity
 _atom_site_fract_x
 _atom_site_fract_y
 _atom_site_fract_z
 _atom_site_occupancy
  V  V0  1  0.00000000  0.99590060  0.01768594  1
  V  V1  1  0.50000000  0.80826436  0.34432898  1
  V  V2  1  0.50000000  0.50527446  0.99536638  1
  V  V3  1  -0.00000000  0.34936294  0.32317027  1
  V  V4  1  -0.00000000  0.66779390  0.67135192  1
  V  V5  1  0.50000000  0.17743059  0.64708263  1
  O  O0  1  0.50000000  0.93333627  0.14101546  1
  O  O1  1  -0.00000000  0.29644497  0.99855640  1
  O  O2  1  -0.00000000  0.70645036  0.00088583  1
  O  O3  1  -0.00000000  0.36556014  0.66475111  1
  O  O4  1  0.50000000  0.39613877  0.19710957  1
  O  O5  1  0.50000000  0.73648414  0.53201651  1
  O  O6  1  0.50000000  0.26350671  0.46115675  1
  O  O7  1  0.50000000  0.60019853  0.79961412  1
  O  O8  1  -0.00000000  0.63083624  0.33461174  1
  O  O9  1  -0.00000000  0.96993383  0.66858207  1
  F  F0  1  -0.00000000  0.03037935  0.33383757  1
  F  F1  1  0.50000000  0.06670385  0.86887976  1
loop_
_geom_bond_atom_site_label_1
_geom_bond_atom_site_label_2
_geom_bond_distance
_geom_bond_site_symmetry_2
O0 V0 1.884116 1_655
O0 V0 1.884116 1_555
O0 V1 1.983848 1_555
O1 V0 1.884077 1_546
O1 V2 1.973307 1_455
O1 V2 1.973307 1_555
O2 V0 1.925880 1_555
O2 V2 1.959446 1_454
O2 V2 1.959446 1_554
O3 V5 1.936466 1_555
O3 V5 1.936466 1_455
O3 V4 1.969542 1_555
O4 V3 1.903981 1_555
O4 V3 1.903981 1_655
O4 V2 1.963493 1_554
O5 V1 1.831439 1_555
O5 V4 1.986911 1_555
O5 V4 1.986911 1_655
O6 V5 1.809374 1_555
O6 V3 1.980996 1_655
O6 V3 1.980996 1_555
O7 V2 1.904539 1_555
O7 V4 1.915162 1_555
O7 V4 1.915162 1_655
O8 V3 1.853649 1_555
O8 V1 1.870387 1_455
O8 V1 1.870387 1_555
O9 V4 1.937942 1_555
O9 V5 1.939358 1_565
O9 V5 1.939358 1_465
F0 V1 2.018200 1_445
F0 V1 2.018200 1_545
F0 V3 2.023542 1_555
F1 V0 2.050995 1_646
F1 V0 2.050995 1_546
F1 V5 2.157843 1_555
