# generated using pymatgen
data_Rb2Ge2O5
_symmetry_space_group_name_H-M   'P 1'
_cell_length_a   7.04290837
_cell_length_b   7.04290837
_cell_length_c   15.26020180
_cell_angle_alpha   89.76407557
_cell_angle_beta   89.76407557
_cell_angle_gamma   77.53178446
_symmetry_Int_Tables_number   1
_chemical_formula_structural   Rb2Ge2O5
_chemical_formula_sum   'Rb8 Ge8 O20'
_cell_volume   739.08289493
_cell_formula_units_Z   4
loop_
 _symmetry_equiv_pos_site_id
 _symmetry_equiv_pos_as_xyz
  1  'x, y, z'
loop_
 _atom_site_type_symbol
 _atom_site_label
 _atom_site_symmetry_multiplicity
 _atom_site_fract_x
 _atom_site_fract_y
 _atom_site_fract_z
 _atom_site_occupancy
  Rb  Rb0  1  0.93067500  0.72088400  0.08256600  1
  Rb  Rb1  1  0.72088400  0.93067500  0.58256600  1
  Rb  Rb2  1  0.70434300  0.44316700  0.39638100  1
  Rb  Rb3  1  0.44316700  0.70434300  0.89638100  1
  Rb  Rb4  1  0.55683300  0.29565700  0.10361900  1
  Rb  Rb5  1  0.29565700  0.55683300  0.60361900  1
  Rb  Rb6  1  0.27911600  0.06932500  0.41743400  1
  Rb  Rb7  1  0.06932500  0.27911600  0.91743400  1
  Ge  Ge0  1  0.78928800  0.94735000  0.30507200  1
  Ge  Ge1  1  0.94735000  0.78928800  0.80507200  1
  Ge  Ge2  1  0.43799300  0.79498200  0.17887500  1
  Ge  Ge3  1  0.79498200  0.43799300  0.67887500  1
  Ge  Ge4  1  0.20501800  0.56200700  0.32112500  1
  Ge  Ge5  1  0.56200700  0.20501800  0.82112500  1
  Ge  Ge6  1  0.05265000  0.21071200  0.19492800  1
  Ge  Ge7  1  0.21071200  0.05265000  0.69492800  1
  O  O0  1  0.00870300  0.76625200  0.30967700  1
  O  O1  1  0.76625200  0.00870300  0.80967700  1
  O  O2  1  0.64916700  0.86815000  0.22031800  1
  O  O3  1  0.86815000  0.64916700  0.72031800  1
  O  O4  1  0.98971100  0.31558600  0.09539700  1
  O  O5  1  0.31558600  0.98971100  0.59539700  1
  O  O6  1  0.49152100  0.71270400  0.07480200  1
  O  O7  1  0.71270400  0.49152100  0.57480200  1
  O  O8  1  0.39850000  0.60150000  0.25000000  1
  O  O9  1  0.84411800  0.15588200  0.25000000  1
  O  O10  1  0.15588200  0.84411800  0.75000000  1
  O  O11  1  0.60150000  0.39850000  0.75000000  1
  O  O12  1  0.28729600  0.50847900  0.42519800  1
  O  O13  1  0.50847900  0.28729600  0.92519800  1
  O  O14  1  0.68441400  0.01028900  0.40460300  1
  O  O15  1  0.01028900  0.68441400  0.90460300  1
  O  O16  1  0.13185000  0.35083300  0.27968200  1
  O  O17  1  0.35083300  0.13185000  0.77968200  1
  O  O18  1  0.23374800  0.99129700  0.19032300  1
  O  O19  1  0.99129700  0.23374800  0.69032300  1
loop_
_geom_bond_atom_site_label_1
_geom_bond_atom_site_label_2
_geom_bond_distance
_geom_bond_site_symmetry_2
Ge0 O14 1.704091 1_565
Ge0 O0 1.780121 1_655
Ge0 O2 1.792195 1_555
Ge0 O9 1.801239 1_565
Ge1 O15 1.704091 1_655
Ge1 O1 1.780121 1_565
Ge1 O3 1.792195 1_555
Ge1 O10 1.801239 1_655
Ge2 O6 1.705443 1_555
Ge2 O18 1.775537 1_555
Ge2 O2 1.794124 1_555
Ge2 O8 1.805907 1_555
Ge3 O7 1.705443 1_555
Ge3 O19 1.775537 1_555
Ge3 O3 1.794124 1_555
Ge3 O11 1.805907 1_555
Ge4 O12 1.705443 1_555
Ge4 O0 1.775537 1_555
Ge4 O16 1.794124 1_555
Ge4 O8 1.805907 1_555
Ge5 O13 1.705443 1_555
Ge5 O1 1.775537 1_555
Ge5 O17 1.794124 1_555
Ge5 O11 1.805907 1_555
Ge6 O4 1.704091 1_455
Ge6 O18 1.780121 1_545
Ge6 O16 1.792195 1_555
Ge6 O9 1.801239 1_455
Ge7 O5 1.704091 1_545
Ge7 O19 1.780121 1_455
Ge7 O17 1.792195 1_555
Ge7 O10 1.801239 1_545
O2 Rb0 2.919112 1_555
O2 Rb4 3.432160 1_565
O3 Rb1 2.919112 1_555
O3 Rb5 3.432160 1_655
O4 Rb7 2.772489 1_654
O4 Rb0 2.800508 1_555
O4 Rb4 3.084090 1_555
O5 Rb6 2.772489 1_565
O5 Rb1 2.800508 1_555
O5 Rb5 3.084090 1_555
O6 Rb3 2.747795 1_554
O6 Rb4 2.905149 1_555
O6 Rb0 3.108622 1_555
O7 Rb2 2.747795 1_555
O7 Rb5 2.905149 1_555
O7 Rb1 3.108622 1_555
O8 Rb2 3.139289 1_555
O8 Rb4 3.139289 1_555
O9 Rb2 3.035104 1_555
O9 Rb4 3.035104 1_555
O10 Rb3 3.035104 1_555
O10 Rb5 3.035104 1_555
O11 Rb3 3.139289 1_555
O11 Rb5 3.139289 1_555
O12 Rb5 2.747795 1_555
O12 Rb2 2.905149 1_555
O12 Rb6 3.108622 1_555
O13 Rb4 2.747795 1_556
O13 Rb3 2.905149 1_555
O13 Rb7 3.108622 1_555
O14 Rb1 2.772489 1_545
O14 Rb6 2.800508 1_555
O14 Rb2 3.084090 1_555
O15 Rb0 2.772489 1_456
O15 Rb7 2.800508 1_555
O15 Rb3 3.084090 1_555
O16 Rb6 2.919112 1_555
O16 Rb2 3.432160 1_455
O17 Rb7 2.919112 1_555
O17 Rb3 3.432160 1_545
