# generated using pymatgen
data_CrBi8O15
_symmetry_space_group_name_H-M   'P 1'
_cell_length_a   12.07080100
_cell_length_b   9.80200500
_cell_length_c   14.06205420
_cell_angle_alpha   76.07575345
_cell_angle_beta   90.00000000
_cell_angle_gamma   90.00000000
_symmetry_Int_Tables_number   1
_chemical_formula_structural   CrBi8O15
_chemical_formula_sum   'Cr4 Bi32 O60'
_cell_volume   1614.90380258
_cell_formula_units_Z   4
loop_
 _symmetry_equiv_pos_site_id
 _symmetry_equiv_pos_as_xyz
  1  'x, y, z'
loop_
 _atom_site_type_symbol
 _atom_site_label
 _atom_site_symmetry_multiplicity
 _atom_site_fract_x
 _atom_site_fract_y
 _atom_site_fract_z
 _atom_site_occupancy
  Cr  Cr0  1  0.25000000  0.35526900  0.48177700  1
  Cr  Cr1  1  0.25000000  0.73149100  0.75519000  1
  Cr  Cr2  1  0.75000000  0.64473100  0.51822300  1
  Cr  Cr3  1  0.75000000  0.26850900  0.24481000  1
  Bi  Bi0  1  0.75000000  0.34421000  0.73608400  1
  Bi  Bi1  1  0.41127500  0.66310700  0.51806800  1
  Bi  Bi2  1  0.57325800  0.65922700  0.24478200  1
  Bi  Bi3  1  0.75000000  0.66469200  0.02341800  1
  Bi  Bi4  1  0.58872500  0.33689300  0.48193200  1
  Bi  Bi5  1  0.07123700  0.67185100  0.01143000  1
  Bi  Bi6  1  0.55967400  0.95141300  0.38924200  1
  Bi  Bi7  1  0.57915000  0.01910100  0.87658300  1
  Bi  Bi8  1  0.91127500  0.33689300  0.48193200  1
  Bi  Bi9  1  0.05967400  0.04858700  0.61075800  1
  Bi  Bi10  1  0.39976400  0.31229800  0.23908100  1
  Bi  Bi11  1  0.75000000  0.96214400  0.12627200  1
  Bi  Bi12  1  0.25000000  0.65579000  0.26391600  1
  Bi  Bi13  1  0.42876300  0.67185100  0.01143000  1
  Bi  Bi14  1  0.60023600  0.68770200  0.76091900  1
  Bi  Bi15  1  0.89976400  0.68770200  0.76091900  1
  Bi  Bi16  1  0.92085000  0.01910100  0.87658300  1
  Bi  Bi17  1  0.57123700  0.32814900  0.98857000  1
  Bi  Bi18  1  0.92674200  0.65922700  0.24478200  1
  Bi  Bi19  1  0.92876300  0.32814900  0.98857000  1
  Bi  Bi20  1  0.42674200  0.34077300  0.75521800  1
  Bi  Bi21  1  0.25000000  0.33530800  0.97658200  1
  Bi  Bi22  1  0.25000000  0.99072800  0.35329200  1
  Bi  Bi23  1  0.94032600  0.95141300  0.38924200  1
  Bi  Bi24  1  0.42085000  0.98089900  0.12341700  1
  Bi  Bi25  1  0.44032600  0.04858700  0.61075800  1
  Bi  Bi26  1  0.25000000  0.03785600  0.87372800  1
  Bi  Bi27  1  0.08872500  0.66310700  0.51806800  1
  Bi  Bi28  1  0.07915000  0.98089900  0.12341700  1
  Bi  Bi29  1  0.10023600  0.31229800  0.23908100  1
  Bi  Bi30  1  0.07325800  0.34077300  0.75521800  1
  Bi  Bi31  1  0.75000000  0.00927200  0.64670800  1
  O  O0  1  0.47694100  0.74375400  0.37537000  1
  O  O1  1  0.58131800  0.88490200  0.19763000  1
  O  O2  1  0.75000000  0.30243400  0.12235700  1
  O  O3  1  0.25000000  0.46879000  0.19063000  1
  O  O4  1  0.75000000  0.09338100  0.28735100  1
  O  O5  1  0.75000000  0.81174300  0.52666500  1
  O  O6  1  0.86321800  0.33600100  0.28459100  1
  O  O7  1  0.57646400  0.60955000  0.09765400  1
  O  O8  1  0.75000000  0.80644700  0.75874900  1
  O  O9  1  0.63678200  0.33600100  0.28459100  1
  O  O10  1  0.25000000  0.19355300  0.24125100  1
  O  O11  1  0.60326100  0.28146600  0.83104100  1
  O  O12  1  0.75000000  0.10207800  0.76994500  1
  O  O13  1  0.25000000  0.69756600  0.87764300  1
  O  O14  1  0.92766500  0.10323800  0.01664700  1
  O  O15  1  0.13710400  0.43848300  0.42566500  1
  O  O16  1  0.75000000  0.63711900  0.40158400  1
  O  O17  1  0.41868200  0.11509800  0.80237000  1
  O  O18  1  0.54724900  0.12432300  0.47907700  1
  O  O19  1  0.63710400  0.56151700  0.57433500  1
  O  O20  1  0.07233500  0.89676200  0.98335300  1
  O  O21  1  0.36321800  0.66399900  0.71540900  1
  O  O22  1  0.89673900  0.28146600  0.83104100  1
  O  O23  1  0.36289600  0.43848300  0.42566500  1
  O  O24  1  0.07646400  0.39045000  0.90234600  1
  O  O25  1  0.93125700  0.93417800  0.70042200  1
  O  O26  1  0.91868200  0.88490200  0.19763000  1
  O  O27  1  0.42353600  0.39045000  0.90234600  1
  O  O28  1  0.56798800  0.71483400  0.90197900  1
  O  O29  1  0.95275100  0.12432300  0.47907700  1
  O  O30  1  0.43201200  0.28516600  0.09802100  1
  O  O31  1  0.06798800  0.28516600  0.09802100  1
  O  O32  1  0.25000000  0.28501700  0.82232800  1
  O  O33  1  0.75000000  0.71498300  0.17767200  1
  O  O34  1  0.93201200  0.71483400  0.90197900  1
  O  O35  1  0.75000000  0.89261800  0.98843100  1
  O  O36  1  0.08131800  0.11509800  0.80237000  1
  O  O37  1  0.13678200  0.66399900  0.71540900  1
  O  O38  1  0.97694100  0.25624600  0.62463000  1
  O  O39  1  0.04724900  0.87567700  0.52092300  1
  O  O40  1  0.42766500  0.89676200  0.98335300  1
  O  O41  1  0.02305900  0.74375400  0.37537000  1
  O  O42  1  0.92353600  0.60955000  0.09765400  1
  O  O43  1  0.25000000  0.18825700  0.47333500  1
  O  O44  1  0.45275100  0.87567700  0.52092300  1
  O  O45  1  0.75000000  0.26967900  0.53541800  1
  O  O46  1  0.25000000  0.73032100  0.46458200  1
  O  O47  1  0.10326100  0.71853400  0.16895900  1
  O  O48  1  0.06874300  0.06582200  0.29957800  1
  O  O49  1  0.57233500  0.10323800  0.01664700  1
  O  O50  1  0.86289600  0.56151700  0.57433500  1
  O  O51  1  0.43125700  0.06582200  0.29957800  1
  O  O52  1  0.52305900  0.25624600  0.62463000  1
  O  O53  1  0.25000000  0.36288100  0.59841600  1
  O  O54  1  0.25000000  0.89792200  0.23005500  1
  O  O55  1  0.25000000  0.90661900  0.71264900  1
  O  O56  1  0.25000000  0.10738200  0.01156900  1
  O  O57  1  0.75000000  0.53121000  0.80937000  1
  O  O58  1  0.56874300  0.93417800  0.70042200  1
  O  O59  1  0.39673900  0.71853400  0.16895900  1
loop_
_geom_bond_atom_site_label_1
_geom_bond_atom_site_label_2
_geom_bond_distance
_geom_bond_site_symmetry_2
Cr0 O53 1.659719 1_555
Cr0 O43 1.669600 1_555
Cr0 O15 1.683815 1_555
Cr0 O23 1.683815 1_555
Cr1 O21 1.672238 1_555
Cr1 O37 1.672238 1_555
Cr1 O13 1.673343 1_555
Cr1 O55 1.676416 1_555
Cr2 O16 1.659719 1_555
Cr2 O5 1.669600 1_555
Cr2 O19 1.683815 1_555
Cr2 O50 1.683815 1_555
Cr3 O6 1.672238 1_555
Cr3 O9 1.672238 1_555
Cr3 O2 1.673343 1_555
Cr3 O4 1.676416 1_555
Bi0 O22 2.214353 1_555
Bi0 O11 2.214353 1_555
Bi0 O12 2.305594 1_555
Bi0 O57 2.308886 1_555
Bi1 O0 2.125159 1_555
Bi1 O46 2.133302 1_555
Bi1 O44 2.152663 1_555
Bi2 O1 2.153242 1_555
Bi2 O7 2.236938 1_555
Bi2 O33 2.343611 1_555
Bi2 O59 2.390913 1_555
Bi2 O0 2.478414 1_555
Bi3 O35 2.168961 1_554
Bi3 O33 2.337250 1_555
Bi3 O42 2.344821 1_555
Bi3 O7 2.344821 1_555
Bi3 O34 2.753315 1_554
Bi3 O28 2.753315 1_554
Bi4 O52 2.125159 1_555
Bi4 O45 2.133302 1_555
Bi4 O18 2.152663 1_555
Bi5 O20 2.144135 1_554
Bi5 O42 2.159934 1_455
Bi5 O34 2.249120 1_454
Bi5 O47 2.398683 1_555
Bi5 O13 2.833872 1_554
Bi6 O51 2.137679 1_565
Bi6 O44 2.232510 1_555
Bi6 O0 2.317242 1_555
Bi6 O18 2.349754 1_565
Bi7 O17 2.292109 1_555
Bi7 O49 2.312564 1_556
Bi7 O40 2.483805 1_545
Bi7 O11 2.513135 1_555
Bi7 O12 2.564420 1_555
Bi7 O35 2.706549 1_545
Bi7 O58 2.799565 1_545
Bi8 O38 2.125159 1_555
Bi8 O45 2.133302 1_555
Bi8 O29 2.152663 1_555
Bi9 O25 2.137679 1_445
Bi9 O29 2.232510 1_455
Bi9 O38 2.317242 1_455
Bi9 O39 2.349754 1_545
Bi10 O30 2.100187 1_555
Bi10 O10 2.146306 1_555
Bi10 O3 2.362670 1_555
Bi10 O51 2.390798 1_555
Bi11 O35 2.203927 1_554
Bi11 O26 2.315233 1_555
Bi11 O1 2.315233 1_555
Bi11 O33 2.355634 1_555
Bi11 O14 2.803952 1_565
Bi11 O49 2.803952 1_565
Bi12 O59 2.214353 1_555
Bi12 O47 2.214353 1_555
Bi12 O54 2.305594 1_555
Bi12 O3 2.308886 1_555
Bi13 O40 2.144135 1_554
Bi13 O7 2.159934 1_555
Bi13 O28 2.249120 1_554
Bi13 O59 2.398683 1_555
Bi13 O13 2.833872 1_554
Bi14 O28 2.100187 1_555
Bi14 O8 2.146306 1_555
Bi14 O57 2.362670 1_555
Bi14 O58 2.390798 1_555
Bi15 O34 2.100187 1_555
Bi15 O8 2.146306 1_555
Bi15 O57 2.362670 1_555
Bi15 O25 2.390798 1_555
Bi16 O36 2.292109 1_655
Bi16 O14 2.312564 1_556
Bi16 O20 2.483805 1_645
Bi16 O22 2.513135 1_555
Bi16 O12 2.564420 1_555
Bi16 O35 2.706549 1_545
Bi16 O25 2.799565 1_545
Bi17 O49 2.144135 1_556
Bi17 O27 2.159934 1_555
Bi17 O30 2.249120 1_556
Bi17 O11 2.398683 1_555
Bi17 O2 2.833872 1_556
Bi18 O26 2.153242 1_555
Bi18 O42 2.236938 1_555
Bi18 O33 2.343611 1_555
Bi18 O47 2.390913 1_655
Bi18 O41 2.478414 1_655
Bi19 O14 2.144135 1_556
Bi19 O24 2.159934 1_655
Bi19 O31 2.249120 1_656
Bi19 O22 2.398683 1_555
Bi19 O2 2.833872 1_556
Bi20 O17 2.153242 1_555
Bi20 O27 2.236938 1_555
Bi20 O32 2.343611 1_555
Bi20 O11 2.390913 1_555
Bi20 O52 2.478414 1_555
Bi21 O56 2.168961 1_556
Bi21 O32 2.337250 1_555
Bi21 O27 2.344821 1_555
Bi21 O24 2.344821 1_555
Bi21 O30 2.753315 1_556
Bi21 O31 2.753315 1_556
Bi22 O54 2.142290 1_555
Bi22 O10 2.219750 1_565
Bi22 O51 2.373126 1_565
Bi22 O48 2.373126 1_565
Bi22 O46 2.653662 1_555
Bi22 O43 2.858549 1_565
Bi23 O48 2.137679 1_665
Bi23 O39 2.232510 1_655
Bi23 O41 2.317242 1_655
Bi23 O29 2.349754 1_565
Bi24 O1 2.292109 1_555
Bi24 O40 2.312564 1_554
Bi24 O49 2.483805 1_565
Bi24 O59 2.513135 1_555
Bi24 O54 2.564420 1_555
Bi24 O56 2.706549 1_565
Bi24 O51 2.799565 1_565
Bi25 O58 2.137679 1_545
Bi25 O18 2.232510 1_555
Bi25 O52 2.317242 1_555
Bi25 O44 2.349754 1_545
Bi26 O56 2.203927 1_556
Bi26 O36 2.315233 1_555
Bi26 O17 2.315233 1_555
Bi26 O32 2.355634 1_555
Bi26 O40 2.803952 1_545
Bi26 O20 2.803952 1_545
Bi27 O41 2.125159 1_555
Bi27 O46 2.133302 1_555
Bi27 O39 2.152663 1_555
Bi28 O26 2.292109 1_455
Bi28 O20 2.312564 1_554
Bi28 O14 2.483805 1_465
Bi28 O47 2.513135 1_555
Bi28 O54 2.564420 1_555
Bi28 O56 2.706549 1_565
Bi28 O48 2.799565 1_565
Bi29 O31 2.100187 1_555
Bi29 O10 2.146306 1_555
Bi29 O3 2.362670 1_555
Bi29 O48 2.390798 1_555
Bi30 O36 2.153242 1_555
Bi30 O24 2.236938 1_555
Bi30 O32 2.343611 1_555
Bi30 O22 2.390913 1_455
Bi30 O38 2.478414 1_455
Bi31 O12 2.142290 1_555
Bi31 O8 2.219750 1_545
Bi31 O58 2.373126 1_545
Bi31 O25 2.373126 1_545
Bi31 O45 2.653662 1_555
Bi31 O5 2.858549 1_545
