# generated using pymatgen
data_Ba(ZnAs)2
_symmetry_space_group_name_H-M   'P 1'
_cell_length_a   4.26304984
_cell_length_b   10.05250841
_cell_length_c   10.90195991
_cell_angle_alpha   90.00000000
_cell_angle_beta   90.00000000
_cell_angle_gamma   90.00000000
_symmetry_Int_Tables_number   1
_chemical_formula_structural   Ba(ZnAs)2
_chemical_formula_sum   'Ba4 Zn8 As8'
_cell_volume   467.19634428
_cell_formula_units_Z   4
loop_
 _symmetry_equiv_pos_site_id
 _symmetry_equiv_pos_as_xyz
  1  'x, y, z'
loop_
 _atom_site_type_symbol
 _atom_site_label
 _atom_site_symmetry_multiplicity
 _atom_site_fract_x
 _atom_site_fract_y
 _atom_site_fract_z
 _atom_site_occupancy
  Ba  Ba0  1  0.25000000  0.74715373  0.67308217  1
  Ba  Ba1  1  0.75000000  0.25284627  0.32691783  1
  Ba  Ba2  1  0.25000000  0.24715373  0.82691783  1
  Ba  Ba3  1  0.75000000  0.75284627  0.17308217  1
  Zn  Zn0  1  0.75000000  0.40026262  0.05035083  1
  Zn  Zn1  1  0.25000000  0.59973738  0.94964917  1
  Zn  Zn2  1  0.25000000  0.09973738  0.55035083  1
  Zn  Zn3  1  0.75000000  0.90026262  0.44964917  1
  Zn  Zn4  1  0.75000000  0.95293416  0.88241040  1
  Zn  Zn5  1  0.25000000  0.04706584  0.11758960  1
  Zn  Zn6  1  0.75000000  0.45293416  0.61758960  1
  Zn  Zn7  1  0.25000000  0.54706584  0.38241040  1
  As  As0  1  0.75000000  0.64862653  0.45915260  1
  As  As1  1  0.25000000  0.35137447  0.54084740  1
  As  As2  1  0.25000000  0.85137347  0.95915260  1
  As  As3  1  0.75000000  0.14862653  0.04084740  1
  As  As4  1  0.75000000  0.52186944  0.84114645  1
  As  As5  1  0.25000000  0.47813056  0.15885355  1
  As  As6  1  0.75000000  0.02186944  0.65885355  1
  As  As7  1  0.25000000  0.97813056  0.34114645  1
loop_
_geom_bond_atom_site_label_1
_geom_bond_atom_site_label_2
_geom_bond_distance
_geom_bond_site_symmetry_2
Ba0 Zn1 3.359613 1_555
Ba0 Zn3 3.584092 1_555
Ba0 Zn3 3.584092 1_455
Ba0 Zn6 3.695546 1_455
Ba0 Zn6 3.695546 1_555
Ba0 Zn4 3.745727 1_555
Ba0 Zn4 3.745727 1_455
Ba0 Zn7 3.753338 1_555
Ba0 Zn2 3.788495 1_565
Ba1 Zn0 3.359613 1_555
Ba1 Zn2 3.584092 1_555
Ba1 Zn2 3.584092 1_655
Ba1 Zn7 3.695546 1_555
Ba1 Zn7 3.695546 1_655
Ba1 Zn5 3.745727 1_555
Ba1 Zn5 3.745727 1_655
Ba1 Zn6 3.753338 1_555
Ba1 Zn3 3.788495 1_545
Ba2 Zn2 3.359613 1_555
Ba2 Zn0 3.584092 1_556
Ba2 Zn0 3.584092 1_456
Ba2 Zn4 3.695546 1_545
Ba2 Zn4 3.695546 1_445
Ba2 Zn6 3.745727 1_555
Ba2 Zn6 3.745727 1_455
Ba2 Zn5 3.753338 1_556
Ba2 Zn1 3.788495 1_555
Ba3 Zn3 3.359613 1_555
Ba3 Zn1 3.584092 1_554
Ba3 Zn1 3.584092 1_654
Ba3 Zn5 3.695546 1_665
Ba3 Zn5 3.695546 1_565
Ba3 Zn7 3.745727 1_655
Ba3 Zn7 3.745727 1_555
Ba3 Zn4 3.753338 1_554
Ba3 Zn0 3.788495 1_555
As0 Zn7 2.507127 1_655
As0 Zn7 2.507127 1_555
As0 Zn3 2.531695 1_555
As0 Zn6 2.617890 1_555
As0 Ba3 3.289997 1_555
As0 Ba0 3.311160 1_655
As0 Ba0 3.311160 1_555
As1 Zn6 2.507122 1_555
As1 Zn6 2.507122 1_455
As1 Zn2 2.531705 1_555
As1 Zn7 2.617882 1_555
As1 Ba2 3.290000 1_555
As1 Ba1 3.311163 1_555
As1 Ba1 3.311163 1_455
As2 Zn4 2.507127 1_455
As2 Zn4 2.507127 1_555
As2 Zn1 2.531695 1_555
As2 Zn5 2.617890 1_566
As2 Ba0 3.289997 1_555
As2 Ba3 3.311160 1_456
As2 Ba3 3.311160 1_556
As3 Zn5 2.507127 1_655
As3 Zn5 2.507127 1_555
As3 Zn0 2.531695 1_555
As3 Zn4 2.617890 1_544
As3 Ba1 3.289997 1_555
As3 Ba2 3.311160 1_654
As3 Ba2 3.311160 1_554
As4 Zn6 2.533810 1_555
As4 Zn1 2.560343 1_555
As4 Zn1 2.560343 1_655
As4 Zn0 2.587693 1_556
As4 Ba2 3.491962 1_555
As4 Ba2 3.491962 1_655
As4 Ba0 3.609599 1_655
As4 Ba0 3.609599 1_555
As5 Zn7 2.533810 1_555
As5 Zn0 2.560343 1_455
As5 Zn0 2.560343 1_555
As5 Zn1 2.587693 1_554
As5 Ba3 3.491962 1_555
As5 Ba3 3.491962 1_455
As5 Ba1 3.609599 1_455
As5 Ba1 3.609599 1_555
As6 Zn4 2.533810 1_545
As6 Zn2 2.560343 1_555
As6 Zn2 2.560343 1_655
As6 Zn3 2.587693 1_545
As6 Ba0 3.491962 1_645
As6 Ba0 3.491962 1_545
As6 Ba2 3.609599 1_555
As6 Ba2 3.609599 1_655
As7 Zn5 2.533810 1_565
As7 Zn3 2.560343 1_455
As7 Zn3 2.560343 1_555
As7 Zn2 2.587693 1_565
As7 Ba1 3.491962 1_465
As7 Ba1 3.491962 1_565
As7 Ba3 3.609599 1_455
As7 Ba3 3.609599 1_555
