# generated using pymatgen
data_NaLi2MnPCO7
_symmetry_space_group_name_H-M   'P 1'
_cell_length_a   6.66311800
_cell_length_b   8.72096950
_cell_length_c   10.07064483
_cell_angle_alpha   89.13554056
_cell_angle_beta   89.97911427
_cell_angle_gamma   89.95662561
_symmetry_Int_Tables_number   1
_chemical_formula_structural   NaLi2MnPCO7
_chemical_formula_sum   'Na4 Li8 Mn4 P4 C4 O28'
_cell_volume   585.12676957
_cell_formula_units_Z   4
loop_
 _symmetry_equiv_pos_site_id
 _symmetry_equiv_pos_as_xyz
  1  'x, y, z'
loop_
 _atom_site_type_symbol
 _atom_site_label
 _atom_site_symmetry_multiplicity
 _atom_site_fract_x
 _atom_site_fract_y
 _atom_site_fract_z
 _atom_site_occupancy
  Na  Na0  1  0.74687000  0.08373800  0.87980000  1
  Na  Na1  1  0.74981300  0.08262000  0.37872200  1
  Na  Na2  1  0.00072600  0.25360700  0.62368600  1
  Na  Na3  1  0.49928800  0.74646900  0.37662700  1
  Li  Li0  1  0.51151000  0.26515100  0.61830400  1
  Li  Li1  1  0.98832400  0.26397000  0.11998800  1
  Li  Li2  1  0.51222600  0.26444500  0.11841000  1
  Li  Li3  1  0.48879300  0.73687800  0.88028700  1
  Li  Li4  1  0.01183000  0.73642400  0.88175800  1
  Li  Li5  1  0.01088300  0.73565200  0.38171600  1
  Li  Li6  1  0.25196400  0.91553300  0.62334900  1
  Li  Li7  1  0.24618400  0.91646200  0.12130300  1
  Mn  Mn0  1  0.25043500  0.35911200  0.88988100  1
  Mn  Mn1  1  0.25361100  0.36009400  0.38729100  1
  Mn  Mn2  1  0.75349200  0.64141600  0.61288600  1
  Mn  Mn3  1  0.75072900  0.64228900  0.11048800  1
  P  P0  1  0.74597100  0.41256600  0.85230800  1
  P  P1  1  0.75495000  0.40927400  0.34914400  1
  P  P2  1  0.25448800  0.59644400  0.65126800  1
  P  P3  1  0.24614100  0.59292200  0.14799600  1
  C  C0  1  0.25164900  0.04377500  0.86801900  1
  C  C1  1  0.24390500  0.04796600  0.36483200  1
  C  C2  1  0.74389800  0.94487800  0.63423500  1
  C  C3  1  0.75179700  0.94857200  0.13169400  1
  O  O0  1  0.72720900  0.09333000  0.64317700  1
  O  O1  1  0.75086400  0.09809100  0.13959300  1
  O  O2  1  0.24961800  0.09722800  0.98816500  1
  O  O3  1  0.25189900  0.09856300  0.48627000  1
  O  O4  1  0.25458300  0.13905300  0.76656000  1
  O  O5  1  0.25437200  0.14441300  0.26454900  1
  O  O6  1  0.93477700  0.32119800  0.89900400  1
  O  O7  1  0.56366500  0.32095300  0.90791100  1
  O  O8  1  0.93948300  0.31359800  0.39462000  1
  O  O9  1  0.56788900  0.32176700  0.40289300  1
  O  O10  1  0.73609300  0.41586500  0.69713100  1
  O  O11  1  0.26492400  0.42915900  0.59897500  1
  O  O12  1  0.74774800  0.41387100  0.19330000  1
  O  O13  1  0.24884600  0.42351600  0.09910500  1
  O  O14  1  0.74866600  0.58132900  0.89944200  1
  O  O15  1  0.24754200  0.58628700  0.80684600  1
  O  O16  1  0.76520700  0.57603600  0.39950600  1
  O  O17  1  0.23611500  0.58454800  0.30298800  1
  O  O18  1  0.43674300  0.69491300  0.60703300  1
  O  O19  1  0.06914800  0.68638200  0.59848300  1
  O  O20  1  0.43327800  0.68625300  0.10231500  1
  O  O21  1  0.06554700  0.68683400  0.09337800  1
  O  O22  1  0.75324300  0.85874200  0.74044300  1
  O  O23  1  0.75486300  0.86310800  0.23851200  1
  O  O24  1  0.75212500  0.88138700  0.51866500  1
  O  O25  1  0.74915500  0.88270300  0.01724200  1
  O  O26  1  0.25038400  0.89745700  0.84743000  1
  O  O27  1  0.22653800  0.90315700  0.34247500  1
loop_
_geom_bond_atom_site_label_1
_geom_bond_atom_site_label_2
_geom_bond_distance
_geom_bond_site_symmetry_2
Na0 O25 2.217336 1_546
Na0 O0 2.386795 1_555
Na0 O7 2.421486 1_555
Na0 O22 2.429910 1_545
Na0 O6 2.431000 1_555
Na0 O1 2.621307 1_556
Na1 O24 2.234188 1_545
Na1 O8 2.386243 1_555
Na1 O23 2.396056 1_545
Na1 O1 2.409935 1_555
Na1 O9 2.426852 1_555
Na1 O0 2.670469 1_555
Na2 O0 2.304133 1_455
Na2 O11 2.344579 1_555
Na2 O10 2.384415 1_455
Na2 O8 2.392845 1_455
Na2 O4 2.425949 1_555
Na2 O3 2.568195 1_555
Na2 O6 2.876816 1_455
Na3 O27 2.295836 1_555
Na3 O16 2.321147 1_555
Na3 O17 2.378077 1_555
Na3 O18 2.393302 1_555
Na3 O23 2.414020 1_555
Na3 O24 2.514798 1_555
Na3 O20 2.854056 1_555
Li0 O0 2.087914 1_555
Li0 O10 2.152293 1_555
Li0 O11 2.184377 1_555
Li0 O9 2.249057 1_555
Li0 O4 2.514090 1_555
Li0 O3 2.633384 1_555
Li1 O1 2.151687 1_555
Li1 O12 2.201982 1_555
Li1 O13 2.233401 1_655
Li1 O6 2.301263 1_554
Li1 O5 2.510443 1_655
Li1 O2 2.638343 1_654
Li2 O1 2.160089 1_555
Li2 O12 2.182505 1_555
Li2 O7 2.195983 1_554
Li2 O13 2.242873 1_555
Li2 O5 2.483551 1_555
Li2 O2 2.640466 1_554
Li3 O26 2.139425 1_555
Li3 O14 2.205564 1_555
Li3 O15 2.211139 1_555
Li3 O20 2.302422 1_556
Li3 O22 2.484668 1_555
Li3 O25 2.566553 1_556
Li4 O26 2.146307 1_555
Li4 O15 2.185417 1_555
Li4 O21 2.197602 1_556
Li4 O14 2.220814 1_455
Li4 O22 2.466807 1_455
Li4 O25 2.568995 1_456
Li5 O27 2.083327 1_555
Li5 O17 2.155233 1_555
Li5 O16 2.155262 1_455
Li5 O19 2.252293 1_555
Li5 O23 2.485147 1_455
Li5 O24 2.556930 1_455
Li6 O3 2.094533 1_565
Li6 O26 2.259787 1_555
Li6 O18 2.291402 1_555
Li6 O19 2.357800 1_555
Li6 O4 2.442343 1_565
Li7 O2 2.054189 1_564
Li7 O27 2.232415 1_555
Li7 O21 2.357746 1_555
Li7 O20 2.372533 1_555
Li7 O5 2.474414 1_565
Mn0 O7 2.120626 1_555
Mn0 O6 2.131078 1_455
Mn0 O15 2.138853 1_555
Mn0 O13 2.188790 1_556
Mn0 O4 2.301738 1_555
Mn0 O2 2.475404 1_555
Mn1 O17 2.124990 1_555
Mn1 O9 2.125827 1_555
Mn1 O8 2.133328 1_455
Mn1 O11 2.225296 1_555
Mn1 O5 2.266285 1_555
Mn1 O3 2.475319 1_555
Mn2 O10 2.133618 1_555
Mn2 O19 2.144249 1_655
Mn2 O18 2.161775 1_555
Mn2 O16 2.232854 1_555
Mn2 O24 2.284779 1_555
Mn2 O22 2.305590 1_555
Mn3 O21 2.140040 1_655
Mn3 O12 2.148020 1_555
Mn3 O20 2.150779 1_555
Mn3 O14 2.198668 1_554
Mn3 O25 2.284381 1_555
Mn3 O23 2.333789 1_555
C0 O26 1.295889 1_545
C0 O2 1.303250 1_555
C0 O4 1.307358 1_555
C1 O27 1.291416 1_545
C1 O5 1.306394 1_555
C1 O3 1.307493 1_555
C2 O24 1.297507 1_555
C2 O22 1.299194 1_555
C2 O0 1.303792 1_565
C3 O25 1.295685 1_555
C3 O23 1.299584 1_555
C3 O1 1.307582 1_565
O6 P0 1.557666 1_555
O7 P0 1.554000 1_555
O8 P1 1.550838 1_555
O9 P1 1.554800 1_555
O10 P0 1.563972 1_555
O11 P2 1.559975 1_555
O12 P1 1.570107 1_555
O13 P3 1.564389 1_555
O14 P0 1.553347 1_555
O15 P2 1.568606 1_555
O16 P1 1.548999 1_555
O17 P3 1.562882 1_555
O18 P2 1.549280 1_555
O19 P2 1.552189 1_555
O20 P3 1.555232 1_555
O21 P3 1.551349 1_555
