# generated using pymatgen
data_VPO5
_symmetry_space_group_name_H-M   'P 1'
_cell_length_a   6.23487000
_cell_length_b   10.61502900
_cell_length_c   12.58010800
_cell_angle_alpha   90.00000000
_cell_angle_beta   90.00000000
_cell_angle_gamma   90.00000000
_symmetry_Int_Tables_number   1
_chemical_formula_structural   VPO5
_chemical_formula_sum   'V8 P8 O40'
_cell_volume   832.59338713
_cell_formula_units_Z   8
loop_
 _symmetry_equiv_pos_site_id
 _symmetry_equiv_pos_as_xyz
  1  'x, y, z'
loop_
 _atom_site_type_symbol
 _atom_site_label
 _atom_site_symmetry_multiplicity
 _atom_site_fract_x
 _atom_site_fract_y
 _atom_site_fract_z
 _atom_site_occupancy
  V  V0  1  0.00060100  0.49703300  0.11572900  1
  V  V1  1  0.27334000  0.25345700  0.25020000  1
  V  V2  1  0.77334000  0.75345700  0.24980000  1
  V  V3  1  0.50060100  0.99703300  0.38427100  1
  V  V4  1  0.49939900  0.49703300  0.61572900  1
  V  V5  1  0.22666000  0.25345700  0.75020000  1
  V  V6  1  0.72666000  0.75345700  0.74980000  1
  V  V7  1  0.99939900  0.99703300  0.88427100  1
  P  P0  1  0.83724500  0.75961800  0.00296500  1
  P  P1  1  0.49593300  0.51767600  0.18607300  1
  P  P2  1  0.99593300  0.01767600  0.31392700  1
  P  P3  1  0.33724500  0.25961800  0.49703500  1
  P  P4  1  0.66275500  0.75961800  0.50296500  1
  P  P5  1  0.00406700  0.51767600  0.68607300  1
  P  P6  1  0.50406700  0.01767600  0.81392700  1
  P  P7  1  0.16275500  0.25961800  0.99703500  1
  O  O0  1  0.02356500  0.38337500  0.00680600  1
  O  O1  1  0.98045700  0.64494600  0.01344800  1
  O  O2  1  0.30497800  0.24971700  0.09774400  1
  O  O3  1  0.69615200  0.78150900  0.10314200  1
  O  O4  1  0.69321000  0.49362100  0.11420700  1
  O  O5  1  0.29988400  0.54420700  0.11426600  1
  O  O6  1  0.03679300  0.39645000  0.21578700  1
  O  O7  1  0.95883000  0.64637800  0.22122100  1
  O  O8  1  0.95392900  0.90053000  0.24371500  1
  O  O9  1  0.04183600  0.13452500  0.24254500  1
  O  O10  1  0.54183600  0.63452500  0.25745500  1
  O  O11  1  0.45392900  0.40053000  0.25628500  1
  O  O12  1  0.45883000  0.14637800  0.27877900  1
  O  O13  1  0.53679300  0.89645000  0.28421300  1
  O  O14  1  0.79988400  0.04420700  0.38573400  1
  O  O15  1  0.19321000  0.99362100  0.38579300  1
  O  O16  1  0.19615200  0.28150900  0.39685800  1
  O  O17  1  0.80497800  0.74971700  0.40225600  1
  O  O18  1  0.48045700  0.14494600  0.48655200  1
  O  O19  1  0.52356500  0.88337500  0.49319400  1
  O  O20  1  0.47643500  0.38337500  0.50680600  1
  O  O21  1  0.51954300  0.64494600  0.51344800  1
  O  O22  1  0.19502200  0.24971700  0.59774400  1
  O  O23  1  0.80384800  0.78150900  0.60314200  1
  O  O24  1  0.80679000  0.49362100  0.61420700  1
  O  O25  1  0.20011600  0.54420700  0.61426600  1
  O  O26  1  0.46320700  0.39645000  0.71578700  1
  O  O27  1  0.54117000  0.64637800  0.72122100  1
  O  O28  1  0.54607100  0.90053000  0.74371500  1
  O  O29  1  0.45816400  0.13452500  0.74254500  1
  O  O30  1  0.95816400  0.63452500  0.75745500  1
  O  O31  1  0.04607100  0.40053000  0.75628500  1
  O  O32  1  0.04117000  0.14637800  0.77877900  1
  O  O33  1  0.96320700  0.89645000  0.78421300  1
  O  O34  1  0.70011600  0.04420700  0.88573400  1
  O  O35  1  0.30679000  0.99362100  0.88579300  1
  O  O36  1  0.30384800  0.28150900  0.89685800  1
  O  O37  1  0.69502200  0.74971700  0.90225600  1
  O  O38  1  0.01954300  0.14494600  0.98655200  1
  O  O39  1  0.97643500  0.88337500  0.99319400  1
loop_
_geom_bond_atom_site_label_1
_geom_bond_atom_site_label_2
_geom_bond_distance
_geom_bond_site_symmetry_2
O0 P7 1.579243 1_554
O0 V0 1.831317 1_555
O1 P0 1.515377 1_555
O1 V0 2.033864 1_655
O2 P7 1.549990 1_554
O2 V1 1.928439 1_555
O3 P0 1.554369 1_555
O3 V2 1.929820 1_555
O4 P1 1.547726 1_555
O4 V0 1.916981 1_655
O5 P1 1.545785 1_555
O5 V0 1.932101 1_555
O6 V0 1.665927 1_555
O6 V1 2.160212 1_555
O7 V2 1.660943 1_555
O7 V0 2.083796 1_655
O8 P2 1.547602 1_565
O8 V2 1.926374 1_555
O9 P2 1.557814 1_455
O9 V1 1.920024 1_555
O10 P1 1.557814 1_555
O10 V2 1.920024 1_555
O11 P1 1.547602 1_555
O11 V1 1.926374 1_555
O12 V1 1.660943 1_555
O12 V3 2.083796 1_545
O13 V3 1.665927 1_555
O13 V2 2.160212 1_555
O14 P2 1.545785 1_555
O14 V3 1.932101 1_545
O15 P2 1.547726 1_465
O15 V3 1.916981 1_555
O16 P3 1.554369 1_555
O16 V1 1.929820 1_555
O17 P4 1.549990 1_555
O17 V2 1.928439 1_555
O18 P3 1.515377 1_555
O18 V3 2.033864 1_545
O19 P4 1.579243 1_555
O19 V3 1.831317 1_555
O20 P3 1.579243 1_555
O20 V4 1.831317 1_555
O21 P4 1.515377 1_555
O21 V4 2.033864 1_555
O22 P3 1.549990 1_555
O22 V5 1.928439 1_555
O23 P4 1.554369 1_555
O23 V6 1.929820 1_555
O24 P5 1.547726 1_655
O24 V4 1.916981 1_555
O25 P5 1.545785 1_555
O25 V4 1.932101 1_555
O26 V4 1.665927 1_555
O26 V5 2.160212 1_555
O27 V6 1.660943 1_555
O27 V4 2.083796 1_555
O28 P6 1.547602 1_565
O28 V6 1.926374 1_555
O29 P6 1.557814 1_555
O29 V5 1.920024 1_555
O30 P5 1.557814 1_655
O30 V6 1.920024 1_555
O31 P5 1.547602 1_555
O31 V5 1.926374 1_555
O32 V5 1.660943 1_555
O32 V7 2.083796 1_445
O33 V7 1.665927 1_555
O33 V6 2.160212 1_555
O34 P6 1.545785 1_555
O34 V7 1.932101 1_545
O35 P6 1.547726 1_565
O35 V7 1.916981 1_455
O36 P7 1.554369 1_555
O36 V5 1.929820 1_555
O37 P0 1.549990 1_556
O37 V6 1.928439 1_555
O38 P7 1.515377 1_555
O38 V7 2.033864 1_445
O39 P0 1.579243 1_556
O39 V7 1.831317 1_555
