# generated using pymatgen
data_AlBiO3
_symmetry_space_group_name_H-M   'P 1'
_cell_length_a   5.09450500
_cell_length_b   7.20713700
_cell_length_c   8.68303679
_cell_angle_alpha   63.00781439
_cell_angle_beta   90.00000000
_cell_angle_gamma   90.00000000
_symmetry_Int_Tables_number   1
_chemical_formula_structural   AlBiO3
_chemical_formula_sum   'Al4 Bi4 O12'
_cell_volume   284.08445567
_cell_formula_units_Z   4
loop_
 _symmetry_equiv_pos_site_id
 _symmetry_equiv_pos_as_xyz
  1  'x, y, z'
loop_
 _atom_site_type_symbol
 _atom_site_label
 _atom_site_symmetry_multiplicity
 _atom_site_fract_x
 _atom_site_fract_y
 _atom_site_fract_z
 _atom_site_occupancy
  Al  Al0  1  0.74017600  0.90654300  0.51217500  1
  Al  Al1  1  0.75982400  0.90654300  0.01217500  1
  Al  Al2  1  0.24017600  0.09345700  0.98782500  1
  Al  Al3  1  0.25982400  0.09345700  0.48782500  1
  Bi  Bi0  1  0.22414100  0.70927800  0.88086300  1
  Bi  Bi1  1  0.27585900  0.70927800  0.38086300  1
  Bi  Bi2  1  0.72414100  0.29072200  0.61913700  1
  Bi  Bi3  1  0.77585900  0.29072200  0.11913700  1
  O  O0  1  0.54547200  0.97436400  0.65593800  1
  O  O1  1  0.07425400  0.83172400  0.61087500  1
  O  O2  1  0.95452800  0.97436400  0.15593800  1
  O  O3  1  0.64586200  0.65346600  0.52860200  1
  O  O4  1  0.42574600  0.83172400  0.11087500  1
  O  O5  1  0.14586200  0.34653400  0.97139800  1
  O  O6  1  0.85413800  0.65346600  0.02860200  1
  O  O7  1  0.57425400  0.16827600  0.88912500  1
  O  O8  1  0.35413800  0.34653400  0.47139800  1
  O  O9  1  0.04547200  0.02563600  0.84406200  1
  O  O10  1  0.92574600  0.16827600  0.38912500  1
  O  O11  1  0.45452800  0.02563600  0.34406200  1
loop_
_geom_bond_atom_site_label_1
_geom_bond_atom_site_label_2
_geom_bond_distance
_geom_bond_site_symmetry_2
Al0 O0 1.826184 1_555
Al0 O3 1.828081 1_555
Al0 O1 1.871478 1_655
Al0 O10 1.940136 1_565
Al0 O11 1.961611 1_565
Al1 O2 1.826184 1_555
Al1 O6 1.828081 1_555
Al1 O4 1.871478 1_555
Al1 O7 1.940136 1_564
Al1 O9 1.961611 1_664
Al2 O9 1.826184 1_555
Al2 O5 1.828081 1_555
Al2 O7 1.871478 1_555
Al2 O4 1.940136 1_546
Al2 O2 1.961611 1_446
Al3 O11 1.826184 1_555
Al3 O8 1.828081 1_555
Al3 O10 1.871478 1_455
Al3 O1 1.940136 1_545
Al3 O0 1.961611 1_545
Bi0 O6 2.211830 1_456
Bi0 O1 2.231531 1_555
Bi0 O9 2.338340 1_565
Bi0 O5 2.397134 1_555
Bi0 O0 2.599461 1_555
Bi0 O4 2.724404 1_556
Bi1 O3 2.211830 1_555
Bi1 O4 2.231531 1_555
Bi1 O11 2.338340 1_565
Bi1 O8 2.397134 1_555
Bi1 O2 2.599461 1_455
Bi1 O1 2.724404 1_555
Bi2 O8 2.211830 1_555
Bi2 O7 2.231531 1_555
Bi2 O0 2.338340 1_545
Bi2 O3 2.397134 1_555
Bi2 O9 2.599461 1_655
Bi2 O10 2.724404 1_555
Bi3 O5 2.211830 1_654
Bi3 O10 2.231531 1_555
Bi3 O2 2.338340 1_545
Bi3 O6 2.397134 1_555
Bi3 O11 2.599461 1_555
Bi3 O7 2.724404 1_554
