# generated using pymatgen
data_Ba3Co2(NO2)12
_symmetry_space_group_name_H-M   'P 1'
_cell_length_a   10.91483500
_cell_length_b   10.91483500
_cell_length_c   10.91483500
_cell_angle_alpha   90.00000000
_cell_angle_beta   90.00000000
_cell_angle_gamma   90.00000000
_symmetry_Int_Tables_number   1
_chemical_formula_structural   Ba3Co2(NO2)12
_chemical_formula_sum   'Ba6 Co4 N24 O48'
_cell_volume   1300.32383884
_cell_formula_units_Z   2
loop_
 _symmetry_equiv_pos_site_id
 _symmetry_equiv_pos_as_xyz
  1  'x, y, z'
loop_
 _atom_site_type_symbol
 _atom_site_label
 _atom_site_symmetry_multiplicity
 _atom_site_fract_x
 _atom_site_fract_y
 _atom_site_fract_z
 _atom_site_occupancy
  Ba  Ba0  1  0.50000000  0.00000000  0.50000000  1
  Ba  Ba1  1  0.50000000  0.50000000  0.00000000  1
  Ba  Ba2  1  0.00000000  0.50000000  0.50000000  1
  Ba  Ba3  1  0.00000000  0.50000000  0.00000000  1
  Ba  Ba4  1  0.00000000  0.00000000  0.50000000  1
  Ba  Ba5  1  0.50000000  0.00000000  0.00000000  1
  Co  Co0  1  0.75000000  0.75000000  0.25000000  1
  Co  Co1  1  0.75000000  0.25000000  0.75000000  1
  Co  Co2  1  0.25000000  0.75000000  0.75000000  1
  Co  Co3  1  0.25000000  0.25000000  0.25000000  1
  N  N0  1  0.75321700  0.56637400  0.24678300  1
  N  N1  1  0.75321700  0.75321700  0.43362600  1
  N  N2  1  0.56637400  0.75321700  0.24678300  1
  N  N3  1  0.75321700  0.43362600  0.75321700  1
  N  N4  1  0.75321700  0.24678300  0.56637400  1
  N  N5  1  0.56637400  0.24678300  0.75321700  1
  N  N6  1  0.24678300  0.56637400  0.75321700  1
  N  N7  1  0.24678300  0.75321700  0.56637400  1
  N  N8  1  0.43362600  0.75321700  0.75321700  1
  N  N9  1  0.24678300  0.43362600  0.24678300  1
  N  N10  1  0.24678300  0.24678300  0.43362600  1
  N  N11  1  0.43362600  0.24678300  0.24678300  1
  N  N12  1  0.74678300  0.93362600  0.25321700  1
  N  N13  1  0.74678300  0.74678300  0.06637400  1
  N  N14  1  0.93362600  0.74678300  0.25321700  1
  N  N15  1  0.74678300  0.06637400  0.74678300  1
  N  N16  1  0.74678300  0.25321700  0.93362600  1
  N  N17  1  0.93362600  0.25321700  0.74678300  1
  N  N18  1  0.25321700  0.93362600  0.74678300  1
  N  N19  1  0.25321700  0.74678300  0.93362600  1
  N  N20  1  0.06637400  0.74678300  0.74678300  1
  N  N21  1  0.25321700  0.06637400  0.25321700  1
  N  N22  1  0.25321700  0.25321700  0.06637400  1
  N  N23  1  0.06637400  0.25321700  0.25321700  1
  O  O0  1  0.82653800  0.50831400  0.31210300  1
  O  O1  1  0.68789700  0.50831400  0.17346200  1
  O  O2  1  0.68789700  0.82653800  0.49168600  1
  O  O3  1  0.82653800  0.68789700  0.49168600  1
  O  O4  1  0.50831400  0.68789700  0.17346200  1
  O  O5  1  0.50831400  0.82653800  0.31210300  1
  O  O6  1  0.82653800  0.49168600  0.68789700  1
  O  O7  1  0.68789700  0.49168600  0.82653800  1
  O  O8  1  0.68789700  0.17346200  0.50831400  1
  O  O9  1  0.82653800  0.31210300  0.50831400  1
  O  O10  1  0.50831400  0.31210300  0.82653800  1
  O  O11  1  0.50831400  0.17346200  0.68789700  1
  O  O12  1  0.17346200  0.50831400  0.68789700  1
  O  O13  1  0.31210300  0.50831400  0.82653800  1
  O  O14  1  0.31210300  0.82653800  0.50831400  1
  O  O15  1  0.17346200  0.68789700  0.50831400  1
  O  O16  1  0.49168600  0.68789700  0.82653800  1
  O  O17  1  0.49168600  0.82653800  0.68789700  1
  O  O18  1  0.17346200  0.49168600  0.31210300  1
  O  O19  1  0.31210300  0.49168600  0.17346200  1
  O  O20  1  0.31210300  0.17346200  0.49168600  1
  O  O21  1  0.17346200  0.31210300  0.49168600  1
  O  O22  1  0.49168600  0.31210300  0.17346200  1
  O  O23  1  0.49168600  0.17346200  0.31210300  1
  O  O24  1  0.67346200  0.99168600  0.18789700  1
  O  O25  1  0.81210300  0.99168600  0.32653800  1
  O  O26  1  0.81210300  0.67346200  0.00831400  1
  O  O27  1  0.67346200  0.81210300  0.00831400  1
  O  O28  1  0.99168600  0.81210300  0.32653800  1
  O  O29  1  0.99168600  0.67346200  0.18789700  1
  O  O30  1  0.67346200  0.00831400  0.81210300  1
  O  O31  1  0.81210300  0.00831400  0.67346200  1
  O  O32  1  0.81210300  0.32653800  0.99168600  1
  O  O33  1  0.67346200  0.18789700  0.99168600  1
  O  O34  1  0.99168600  0.18789700  0.67346200  1
  O  O35  1  0.99168600  0.32653800  0.81210300  1
  O  O36  1  0.32653800  0.99168600  0.81210300  1
  O  O37  1  0.18789700  0.99168600  0.67346200  1
  O  O38  1  0.18789700  0.67346200  0.99168600  1
  O  O39  1  0.32653800  0.81210300  0.99168600  1
  O  O40  1  0.00831400  0.81210300  0.67346200  1
  O  O41  1  0.00831400  0.67346200  0.81210300  1
  O  O42  1  0.32653800  0.00831400  0.18789700  1
  O  O43  1  0.18789700  0.00831400  0.32653800  1
  O  O44  1  0.18789700  0.32653800  0.00831400  1
  O  O45  1  0.32653800  0.18789700  0.00831400  1
  O  O46  1  0.00831400  0.18789700  0.32653800  1
  O  O47  1  0.00831400  0.32653800  0.18789700  1
loop_
_geom_bond_atom_site_label_1
_geom_bond_atom_site_label_2
_geom_bond_distance
_geom_bond_site_symmetry_2
Ba0 O11 2.792651 1_555
Ba0 O8 2.792651 1_555
Ba0 O2 2.792651 1_545
Ba0 O17 2.792651 1_545
Ba0 O14 2.792651 1_545
Ba0 O5 2.792651 1_545
Ba0 O20 2.792651 1_555
Ba0 O23 2.792651 1_555
Ba1 O4 2.792651 1_555
Ba1 O1 2.792651 1_555
Ba1 O16 2.792651 1_554
Ba1 O7 2.792651 1_554
Ba1 O13 2.792651 1_554
Ba1 O10 2.792651 1_554
Ba1 O19 2.792651 1_555
Ba1 O22 2.792651 1_555
Ba2 O15 2.792651 1_555
Ba2 O12 2.792651 1_555
Ba2 O6 2.792651 1_455
Ba2 O3 2.792651 1_455
Ba2 O0 2.792651 1_455
Ba2 O9 2.792651 1_455
Ba2 O21 2.792651 1_555
Ba2 O18 2.792651 1_555
Ba3 O47 2.792651 1_555
Ba3 O38 2.792651 1_554
Ba3 O29 2.792651 1_455
Ba3 O44 2.792651 1_555
Ba3 O26 2.792651 1_455
Ba3 O35 2.792651 1_454
Ba3 O32 2.792651 1_454
Ba3 O41 2.792651 1_554
Ba4 O46 2.792651 1_555
Ba4 O34 2.792651 1_455
Ba4 O43 2.792651 1_555
Ba4 O37 2.792651 1_545
Ba4 O28 2.792651 1_445
Ba4 O31 2.792651 1_455
Ba4 O25 2.792651 1_445
Ba4 O40 2.792651 1_545
Ba5 O42 2.792651 1_555
Ba5 O45 2.792651 1_555
Ba5 O24 2.792651 1_545
Ba5 O33 2.792651 1_554
Ba5 O30 2.792651 1_554
Ba5 O27 2.792651 1_545
Ba5 O39 2.792651 1_544
Ba5 O36 2.792651 1_544
Co0 N1 2.004863 1_555
Co0 N14 2.004863 1_555
Co0 N12 2.004863 1_555
Co0 N13 2.004863 1_555
Co0 N2 2.004863 1_555
Co0 N0 2.004863 1_555
Co1 N3 2.004863 1_555
Co1 N17 2.004863 1_555
Co1 N16 2.004863 1_555
Co1 N15 2.004863 1_555
Co1 N4 2.004863 1_555
Co1 N5 2.004863 1_555
Co2 N8 2.004863 1_555
Co2 N19 2.004863 1_555
Co2 N18 2.004863 1_555
Co2 N20 2.004863 1_555
Co2 N7 2.004863 1_555
Co2 N6 2.004863 1_555
Co3 N9 2.004863 1_555
Co3 N10 2.004863 1_555
Co3 N11 2.004863 1_555
Co3 N22 2.004863 1_555
Co3 N23 2.004863 1_555
Co3 N21 2.004863 1_555
N0 O1 1.245135 1_555
N0 O0 1.245135 1_555
N1 O3 1.245135 1_555
N1 O2 1.245135 1_555
N2 O4 1.245135 1_555
N2 O5 1.245135 1_555
N3 O6 1.245135 1_555
N3 O7 1.245135 1_555
N4 O8 1.245135 1_555
N4 O9 1.245135 1_555
N5 O11 1.245135 1_555
N5 O10 1.245135 1_555
N6 O12 1.245135 1_555
N6 O13 1.245135 1_555
N7 O15 1.245135 1_555
N7 O14 1.245135 1_555
N8 O17 1.245135 1_555
N8 O16 1.245135 1_555
N9 O18 1.245135 1_555
N9 O19 1.245135 1_555
N10 O21 1.245135 1_555
N10 O20 1.245135 1_555
N11 O23 1.245135 1_555
N11 O22 1.245135 1_555
N12 O24 1.245135 1_555
N12 O25 1.245135 1_555
N13 O26 1.245135 1_555
N13 O27 1.245135 1_555
N14 O29 1.245135 1_555
N14 O28 1.245135 1_555
N15 O30 1.245135 1_555
N15 O31 1.245135 1_555
N16 O33 1.245135 1_555
N16 O32 1.245135 1_555
N17 O34 1.245135 1_555
N17 O35 1.245135 1_555
N18 O37 1.245135 1_555
N18 O36 1.245135 1_555
N19 O38 1.245135 1_555
N19 O39 1.245135 1_555
N20 O41 1.245135 1_555
N20 O40 1.245135 1_555
N21 O42 1.245135 1_555
N21 O43 1.245135 1_555
N22 O44 1.245135 1_555
N22 O45 1.245135 1_555
N23 O46 1.245135 1_555
N23 O47 1.245135 1_555
