# generated using pymatgen
data_Li4Ti2Co3Sn3O16
_symmetry_space_group_name_H-M   'P 1'
_cell_length_a   6.10320027
_cell_length_b   6.11419106
_cell_length_c   9.66839314
_cell_angle_alpha   89.99400111
_cell_angle_beta   89.83732575
_cell_angle_gamma   120.07958431
_symmetry_Int_Tables_number   1
_chemical_formula_structural   Li4Ti2Co3Sn3O16
_chemical_formula_sum   'Li4 Ti2 Co3 Sn3 O16'
_cell_volume   312.19812780
_cell_formula_units_Z   1
loop_
 _symmetry_equiv_pos_site_id
 _symmetry_equiv_pos_as_xyz
  1  'x, y, z'
loop_
 _atom_site_type_symbol
 _atom_site_label
 _atom_site_symmetry_multiplicity
 _atom_site_fract_x
 _atom_site_fract_y
 _atom_site_fract_z
 _atom_site_occupancy
  Li  Li0  1  0.34811400  0.67403100  0.89187900  1
  Li  Li1  1  0.96530900  0.98277700  0.98801800  1
  Li  Li2  1  0.97979800  0.98972500  0.49745100  1
  Li  Li3  1  0.66597800  0.33305200  0.40082700  1
  Ti  Ti0  1  0.35494800  0.67779900  0.49783100  1
  Ti  Ti1  1  0.68377800  0.34195200  0.99187400  1
  Co  Co0  1  0.65795500  0.82898100  0.21642200  1
  Co  Co1  1  0.83507100  0.65619600  0.71828600  1
  Co  Co2  1  0.83504200  0.17890400  0.71804800  1
  Sn  Sn0  1  0.17254800  0.83053100  0.21470800  1
  Sn  Sn1  1  0.17263700  0.34207300  0.21474300  1
  Sn  Sn2  1  0.34293600  0.17150500  0.71120000  1
  O  O0  1  0.16621400  0.82937100  0.59406100  1
  O  O1  1  0.02669200  0.51324200  0.34191900  1
  O  O2  1  0.33643800  0.66836400  0.09734200  1
  O  O3  1  0.99671100  0.99824400  0.30989400  1
  O  O4  1  0.98918400  0.99426500  0.80123000  1
  O  O5  1  0.16560000  0.33641000  0.59415100  1
  O  O6  1  0.47273300  0.95656000  0.35296500  1
  O  O7  1  0.47308100  0.51632600  0.35281200  1
  O  O8  1  0.33225100  0.16617800  0.09090400  1
  O  O9  1  0.65454100  0.82750800  0.59712400  1
  O  O10  1  0.52892800  0.48257600  0.84596200  1
  O  O11  1  0.52927900  0.04636100  0.84574000  1
  O  O12  1  0.68258100  0.34179200  0.60557900  1
  O  O13  1  0.83704800  0.65676500  0.08793100  1
  O  O14  1  0.95773300  0.47866400  0.84082700  1
  O  O15  1  0.83687200  0.18014900  0.08810900  1
loop_
_geom_bond_atom_site_label_1
_geom_bond_atom_site_label_2
_geom_bond_distance
_geom_bond_site_symmetry_2
Li0 O2 1.987248 1_556
Li0 O10 2.019261 1_555
Li0 O11 2.019361 1_565
Li0 O14 2.121578 1_455
Li1 O4 1.809918 1_555
Li1 O13 1.987553 1_556
Li1 O15 1.987815 1_566
Li1 O8 2.181272 1_666
Li2 O3 1.815275 1_555
Li2 O9 1.966817 1_555
Li2 O5 2.061575 1_665
Li2 O0 2.062078 1_655
Li3 O12 1.981859 1_555
Li3 O1 1.986525 1_655
Li3 O7 2.045141 1_555
Li3 O6 2.045959 1_545
Co0 O3 2.007058 1_555
Co0 O2 2.054718 1_555
Co0 O7 2.120199 1_555
Co0 O6 2.122460 1_555
Co0 O15 2.232274 1_565
Co0 O13 2.234511 1_555
Co1 O4 1.963699 1_555
Co1 O14 1.990403 1_555
Co1 O12 1.990418 1_555
Co1 O10 2.034748 1_555
Co1 O0 2.118750 1_655
Co1 O9 2.201659 1_555
Co2 O4 1.968497 1_545
Co2 O14 1.989667 1_555
Co2 O12 1.993637 1_555
Co2 O11 2.033258 1_555
Co2 O5 2.114473 1_655
Co2 O9 2.198143 1_545
O0 Ti0 2.028660 1_555
O0 Sn2 2.137213 1_565
O1 Sn1 2.080642 1_555
O1 Sn0 2.081061 1_555
O1 Ti0 2.301129 1_555
O2 Sn0 2.063783 1_555
O2 Sn1 2.064396 1_555
O3 Sn0 2.036623 1_655
O3 Sn1 2.037140 1_665
O4 Sn2 2.058451 1_665
O5 Ti0 2.033503 1_555
O5 Sn2 2.137589 1_555
O6 Ti0 2.036930 1_555
O6 Sn0 2.082338 1_555
O7 Ti0 2.041692 1_555
O7 Sn1 2.082140 1_555
O8 Ti1 2.086024 1_554
O8 Sn0 2.140594 1_545
O8 Sn1 2.140794 1_555
O9 Ti0 1.853437 1_555
O10 Ti1 2.108189 1_555
O10 Sn2 2.109106 1_555
O11 Sn2 2.109838 1_555
O11 Ti1 2.109864 1_555
O12 Sn2 2.061107 1_555
O13 Ti1 1.908648 1_554
O13 Sn0 2.158187 1_655
O14 Ti1 2.052298 1_555
O15 Ti1 1.910178 1_554
O15 Sn1 2.158561 1_655
