# generated using pymatgen
data_Na3Li3Mn2P2(CO7)2
_symmetry_space_group_name_H-M   'P 1'
_cell_length_a   8.82284515
_cell_length_b   6.75749956
_cell_length_c   5.16105478
_cell_angle_alpha   90.86539843
_cell_angle_beta   88.82108977
_cell_angle_gamma   85.65978600
_symmetry_Int_Tables_number   1
_chemical_formula_structural   Na3Li3Mn2P2(CO7)2
_chemical_formula_sum   'Na3 Li3 Mn2 P2 C2 O14'
_cell_volume   306.71380611
_cell_formula_units_Z   1
loop_
 _symmetry_equiv_pos_site_id
 _symmetry_equiv_pos_as_xyz
  1  'x, y, z'
loop_
 _atom_site_type_symbol
 _atom_site_label
 _atom_site_symmetry_multiplicity
 _atom_site_fract_x
 _atom_site_fract_y
 _atom_site_fract_z
 _atom_site_occupancy
  Na  Na0  1  0.08438700  0.21011900  0.74345500  1
  Na  Na1  1  0.24522600  0.51755500  0.24796400  1
  Na  Na2  1  0.75135000  0.49152700  0.75423700  1
  Li  Li0  1  0.29503700  0.05478600  0.21562700  1
  Li  Li1  1  0.71438700  0.95125100  0.77834100  1
  Li  Li2  1  0.90680100  0.80599200  0.26238800  1
  Mn  Mn0  1  0.35948200  0.75823000  0.77854700  1
  Mn  Mn1  1  0.65009100  0.23534500  0.22320500  1
  P  P0  1  0.42210000  0.24458200  0.71274000  1
  P  P1  1  0.58495100  0.75079900  0.28913500  1
  C  C0  1  0.03590100  0.76229200  0.73773900  1
  C  C1  1  0.95441500  0.23714700  0.26051900  1
  O  O0  1  0.10096900  0.23671800  0.28150800  1
  O  O1  1  0.06257600  0.75280200  0.98343600  1
  O  O2  1  0.14854200  0.76655000  0.56978300  1
  O  O3  1  0.32696600  0.07823300  0.82323900  1
  O  O4  1  0.33801200  0.44479000  0.80000600  1
  O  O5  1  0.42875400  0.23009800  0.40939500  1
  O  O6  1  0.41943200  0.78094600  0.18766200  1
  O  O7  1  0.58770600  0.22133500  0.81105300  1
  O  O8  1  0.57585800  0.76860700  0.59186300  1
  O  O9  1  0.66265100  0.54794000  0.20439900  1
  O  O10  1  0.68859700  0.91054900  0.18075800  1
  O  O11  1  0.86656200  0.23659700  0.46669000  1
  O  O12  1  0.89129000  0.23504700  0.03569500  1
  O  O13  1  0.89795600  0.77016200  0.65061500  1
loop_
_geom_bond_atom_site_label_1
_geom_bond_atom_site_label_2
_geom_bond_distance
_geom_bond_site_symmetry_2
Na0 O12 2.246969 1_456
Na0 O3 2.302843 1_555
Na0 O0 2.395908 1_555
Na0 O11 2.415456 1_455
Na0 O0 2.787583 1_556
Na1 O0 2.370190 1_555
Na1 O2 2.440790 1_555
Na1 O6 2.457281 1_555
Na1 O4 2.466545 1_554
Na1 O5 2.591848 1_555
Na1 O1 2.599276 1_554
Na2 O11 2.408106 1_555
Na2 O13 2.423820 1_555
Na2 O7 2.429390 1_555
Na2 O9 2.451285 1_556
Na2 O8 2.503476 1_555
Na2 O12 2.542505 1_556
Li0 O5 2.004916 1_555
Li0 O3 2.049051 1_554
Li0 O0 2.050266 1_555
Li0 O6 2.080300 1_545
Li1 O8 2.045535 1_555
Li1 O13 2.046177 1_555
Li1 O7 2.069509 1_565
Li1 O10 2.109076 1_556
Li2 O1 1.979642 1_654
Li2 O13 2.022486 1_555
Li2 O10 2.054142 1_555
Mn0 O8 2.127044 1_555
Mn0 O4 2.145069 1_555
Mn0 O2 2.167074 1_555
Mn0 O3 2.167921 1_565
Mn0 O6 2.193187 1_556
Mn1 O9 2.127193 1_555
Mn1 O5 2.161588 1_555
Mn1 O10 2.202306 1_545
Mn1 O7 2.210570 1_554
Mn1 O11 2.308198 1_555
Mn1 O12 2.319426 1_555
C0 O1 1.296117 1_555
C0 O13 1.303730 1_455
C0 O2 1.307487 1_555
C1 O12 1.297706 1_555
C1 O0 1.299561 1_655
C1 O11 1.303708 1_555
O3 P0 1.560714 1_555
O4 P0 1.549043 1_555
O5 P0 1.566776 1_555
O6 P1 1.561427 1_555
O7 P0 1.554080 1_555
O8 P1 1.565152 1_555
O9 P1 1.538726 1_555
O10 P1 1.568768 1_555
