# generated using pymatgen
data_LiMnSi3O8
_symmetry_space_group_name_H-M   'P 1'
_cell_length_a   7.09077850
_cell_length_b   7.81122702
_cell_length_c   12.23886636
_cell_angle_alpha   84.40850273
_cell_angle_beta   102.50019353
_cell_angle_gamma   109.25673523
_symmetry_Int_Tables_number   1
_chemical_formula_structural   LiMnSi3O8
_chemical_formula_sum   'Li4 Mn4 Si12 O32'
_cell_volume   624.53547479
_cell_formula_units_Z   4
loop_
 _symmetry_equiv_pos_site_id
 _symmetry_equiv_pos_as_xyz
  1  'x, y, z'
loop_
 _atom_site_type_symbol
 _atom_site_label
 _atom_site_symmetry_multiplicity
 _atom_site_fract_x
 _atom_site_fract_y
 _atom_site_fract_z
 _atom_site_occupancy
  Li  Li0  1  0.21179100  0.23144400  0.40864300  1
  Li  Li1  1  0.71171600  0.73137900  0.90854200  1
  Li  Li2  1  0.28823900  0.26863000  0.09145700  1
  Li  Li3  1  0.78813800  0.76853100  0.59135600  1
  Mn  Mn0  1  0.01195400  0.08240900  0.86302100  1
  Mn  Mn1  1  0.98815000  0.91744300  0.13693600  1
  Mn  Mn2  1  0.51193200  0.58260500  0.36262000  1
  Mn  Mn3  1  0.48809500  0.41740400  0.63732800  1
  Si  Si0  1  0.00966500  0.49672100  0.27370700  1
  Si  Si1  1  0.50968900  0.99668600  0.77370400  1
  Si  Si2  1  0.49034400  0.00332800  0.22631100  1
  Si  Si3  1  0.99031900  0.50328100  0.72629600  1
  Si  Si4  1  0.99219600  0.82661900  0.37175200  1
  Si  Si5  1  0.49222100  0.32657700  0.87184200  1
  Si  Si6  1  0.50781000  0.67345200  0.12814600  1
  Si  Si7  1  0.00779300  0.17338400  0.62824500  1
  Si  Si8  1  0.81533500  0.24493200  0.07822000  1
  Si  Si9  1  0.31534700  0.74486900  0.57817700  1
  Si  Si10  1  0.68464300  0.25513000  0.42183500  1
  Si  Si11  1  0.18466200  0.75506300  0.92178500  1
  O  O0  1  0.22464000  0.47857500  0.34034700  1
  O  O1  1  0.72463500  0.97859700  0.84034200  1
  O  O2  1  0.27541600  0.02144900  0.15966600  1
  O  O3  1  0.77534000  0.52140700  0.65964700  1
  O  O4  1  0.19002200  0.81331900  0.46546500  1
  O  O5  1  0.69001900  0.31333300  0.96548600  1
  O  O6  1  0.30995900  0.68665000  0.03451700  1
  O  O7  1  0.80994400  0.18665500  0.53454300  1
  O  O8  1  0.84229000  0.38733500  0.34808600  1
  O  O9  1  0.34223600  0.88740000  0.84799700  1
  O  O10  1  0.65775400  0.11263400  0.15201600  1
  O  O11  1  0.15771200  0.61268400  0.65193300  1
  O  O12  1  0.78654700  0.72325100  0.42193700  1
  O  O13  1  0.28664700  0.22328400  0.92208000  1
  O  O14  1  0.71338700  0.77672200  0.07791000  1
  O  O15  1  0.21342100  0.27670500  0.57803100  1
  O  O16  1  0.96960300  0.14350700  0.05251300  1
  O  O17  1  0.46961800  0.64340200  0.55262600  1
  O  O18  1  0.53036400  0.35658800  0.44738700  1
  O  O19  1  0.03041200  0.85651400  0.94750900  1
  O  O20  1  0.00220200  0.71048400  0.26158300  1
  O  O21  1  0.50217100  0.21045300  0.76163300  1
  O  O22  1  0.49782400  0.78956700  0.23835400  1
  O  O23  1  0.99783200  0.28953900  0.73841100  1
  O  O24  1  0.95208400  0.42858200  0.14666700  1
  O  O25  1  0.45200500  0.92863100  0.64658600  1
  O  O26  1  0.54798700  0.07136800  0.35342300  1
  O  O27  1  0.04788600  0.57143700  0.85333400  1
  O  O28  1  0.01725500  0.02402700  0.31528100  1
  O  O29  1  0.51714900  0.52396500  0.81528600  1
  O  O30  1  0.48285300  0.47606600  0.18473300  1
  O  O31  1  0.98274500  0.97598400  0.68474600  1
loop_
_geom_bond_atom_site_label_1
_geom_bond_atom_site_label_2
_geom_bond_distance
_geom_bond_site_symmetry_2
Li0 O0 2.008961 1_555
Li0 O28 2.009406 1_555
Li0 O18 2.110286 1_555
Li0 O15 2.133706 1_555
Li1 O29 2.008810 1_555
Li1 O1 2.009097 1_555
Li1 O19 2.111140 1_655
Li1 O14 2.133555 1_556
Li2 O2 2.008995 1_555
Li2 O30 2.009141 1_555
Li2 O16 2.110747 1_455
Li2 O13 2.133815 1_554
Li3 O3 2.008957 1_555
Li3 O31 2.009906 1_555
Li3 O17 2.109937 1_555
Li3 O12 2.134191 1_555
Mn0 O1 1.895949 1_445
Mn0 O13 1.912853 1_555
Mn0 O19 1.984458 1_545
Mn0 O23 2.124513 1_455
Mn0 O31 2.353478 1_445
Mn0 O16 2.511611 1_456
Mn1 O2 1.895715 1_665
Mn1 O14 1.912806 1_555
Mn1 O16 1.985415 1_565
Mn1 O20 2.123785 1_655
Mn1 O28 2.354970 1_665
Mn1 O19 2.510179 1_654
Mn2 O0 1.896153 1_555
Mn2 O12 1.912624 1_555
Mn2 O18 1.986669 1_555
Mn2 O22 2.120905 1_555
Mn2 O30 2.349585 1_555
Mn2 O17 2.516851 1_555
Mn3 O3 1.895807 1_555
Mn3 O15 1.912997 1_555
Mn3 O17 1.986285 1_555
Mn3 O21 2.121114 1_555
Mn3 O29 2.350516 1_555
Mn3 O18 2.516006 1_555
O0 Si0 1.609567 1_555
O1 Si1 1.609226 1_555
O2 Si2 1.609228 1_555
O3 Si3 1.609570 1_555
O4 Si9 1.617878 1_555
O4 Si4 1.634135 1_455
O5 Si8 1.617872 1_556
O5 Si5 1.633439 1_555
O6 Si11 1.617831 1_554
O6 Si6 1.633519 1_555
O7 Si10 1.617846 1_555
O7 Si7 1.634122 1_655
O8 Si0 1.616944 1_655
O8 Si10 1.619998 1_555
O9 Si1 1.616435 1_555
O9 Si11 1.620362 1_555
O10 Si2 1.616279 1_555
O10 Si8 1.620346 1_555
O11 Si3 1.616930 1_455
O11 Si9 1.619947 1_555
O12 Si4 1.634021 1_555
O13 Si5 1.633833 1_555
O14 Si6 1.633808 1_555
O15 Si7 1.634026 1_555
O16 Si8 1.640859 1_555
O17 Si9 1.640383 1_555
O18 Si10 1.640387 1_555
O19 Si11 1.640974 1_555
O20 Si0 1.679134 1_555
O20 Si4 1.722853 1_455
O21 Si1 1.679308 1_545
O21 Si5 1.723060 1_555
O22 Si2 1.679175 1_565
O22 Si6 1.723104 1_555
O23 Si3 1.679093 1_555
O23 Si7 1.722796 1_655
O24 Si0 1.615733 1_655
O24 Si8 1.632458 1_555
O25 Si1 1.616361 1_555
O25 Si9 1.632757 1_555
O26 Si2 1.616270 1_555
O26 Si10 1.632771 1_555
O27 Si3 1.615762 1_455
O27 Si11 1.632381 1_555
O28 Si4 1.597424 1_445
O29 Si5 1.597768 1_555
O30 Si6 1.597869 1_555
O31 Si7 1.597510 1_665
