# generated using pymatgen
data_Li2CrCo3O8
_symmetry_space_group_name_H-M   'P 1'
_cell_length_a   5.69932965
_cell_length_b   5.68304606
_cell_length_c   9.31741139
_cell_angle_alpha   90.37387087
_cell_angle_beta   89.81359586
_cell_angle_gamma   119.90552558
_symmetry_Int_Tables_number   1
_chemical_formula_structural   Li2CrCo3O8
_chemical_formula_sum   'Li4 Cr2 Co6 O16'
_cell_volume   261.59790777
_cell_formula_units_Z   2
loop_
 _symmetry_equiv_pos_site_id
 _symmetry_equiv_pos_as_xyz
  1  'x, y, z'
loop_
 _atom_site_type_symbol
 _atom_site_label
 _atom_site_symmetry_multiplicity
 _atom_site_fract_x
 _atom_site_fract_y
 _atom_site_fract_z
 _atom_site_occupancy
  Li  Li0  1  0.33153600  0.66398400  0.89185800  1
  Li  Li1  1  0.00053600  0.99987000  0.99842100  1
  Li  Li2  1  0.99946300  0.99933300  0.49842100  1
  Li  Li3  1  0.66846400  0.33244800  0.39185800  1
  Cr  Cr0  1  0.33545900  0.67209500  0.48543700  1
  Cr  Cr1  1  0.66454100  0.33663600  0.98543600  1
  Co  Co0  1  0.17019500  0.83009400  0.21485200  1
  Co  Co1  1  0.16949600  0.33609900  0.21219800  1
  Co  Co2  1  0.66411000  0.83067400  0.21211500  1
  Co  Co3  1  0.33589000  0.16656400  0.71211500  1
  Co  Co4  1  0.82980500  0.65990000  0.71485200  1
  Co  Co5  1  0.83050400  0.16660300  0.71219800  1
  O  O0  1  0.16771300  0.84428900  0.60637900  1
  O  O1  1  0.03897800  0.51524200  0.33395200  1
  O  O2  1  0.33432700  0.66573800  0.10800900  1
  O  O3  1  0.00011500  0.00040700  0.31044200  1
  O  O4  1  0.99988500  0.00029000  0.81044200  1
  O  O5  1  0.16242300  0.32450400  0.60817700  1
  O  O6  1  0.48536100  0.96208800  0.33316900  1
  O  O7  1  0.48082600  0.51972300  0.33237600  1
  O  O8  1  0.32372100  0.16774200  0.10653700  1
  O  O9  1  0.67627900  0.84402000  0.60653700  1
  O  O10  1  0.51463900  0.47672700  0.83316900  1
  O  O11  1  0.51917400  0.03889700  0.83237600  1
  O  O12  1  0.66567300  0.33141100  0.60800900  1
  O  O13  1  0.83228700  0.67657700  0.10637900  1
  O  O14  1  0.96102200  0.47626400  0.83395200  1
  O  O15  1  0.83757700  0.16208100  0.10817700  1
loop_
_geom_bond_atom_site_label_1
_geom_bond_atom_site_label_2
_geom_bond_distance
_geom_bond_site_symmetry_2
Li0 O10 1.901741 1_555
Li0 O14 1.908391 1_455
Li0 O11 1.931317 1_565
Li0 O2 2.014003 1_556
Li1 O4 1.751513 1_465
Li1 O8 1.888114 1_566
Li1 O13 1.888924 1_456
Li1 O15 1.895639 1_466
Li2 O3 1.751514 1_665
Li2 O9 1.888109 1_555
Li2 O0 1.888928 1_655
Li2 O5 1.895643 1_665
Li3 O6 1.901742 1_545
Li3 O1 1.908391 1_655
Li3 O7 1.931317 1_555
Li3 O12 2.014003 1_555
Cr0 O0 2.013198 1_555
Cr0 O6 2.019267 1_555
Cr0 O9 2.026894 1_555
Cr0 O1 2.034497 1_555
Cr0 O7 2.040018 1_555
Cr0 O5 2.064500 1_555
Cr1 O13 2.013207 1_556
Cr1 O10 2.019260 1_555
Cr1 O8 2.026899 1_556
Cr1 O14 2.034490 1_555
Cr1 O11 2.040012 1_555
Cr1 O15 2.064505 1_556
Co0 O3 1.894302 1_565
Co0 O2 1.895142 1_555
Co0 O6 1.913894 1_555
Co0 O1 1.917962 1_555
Co0 O8 1.952310 1_565
Co0 O13 1.953793 1_455
Co1 O8 1.864916 1_555
Co1 O3 1.894728 1_555
Co1 O2 1.896661 1_555
Co1 O1 1.900352 1_555
Co1 O15 1.905237 1_455
Co1 O7 1.908547 1_555
Co2 O13 1.864355 1_555
Co2 O3 1.896042 1_665
Co2 O2 1.896165 1_555
Co2 O6 1.899468 1_555
Co2 O15 1.903513 1_565
Co2 O7 1.909740 1_555
Co3 O0 1.864359 1_545
Co3 O4 1.896042 1_455
Co3 O12 1.896165 1_555
Co3 O10 1.899469 1_555
Co3 O5 1.903513 1_555
Co3 O11 1.909740 1_555
Co4 O4 1.894290 1_565
Co4 O12 1.895146 1_555
Co4 O10 1.913895 1_555
Co4 O14 1.917966 1_555
Co4 O9 1.952301 1_555
Co4 O0 1.953792 1_655
Co5 O9 1.864920 1_545
Co5 O4 1.894737 1_555
Co5 O12 1.896661 1_555
Co5 O14 1.900353 1_555
Co5 O5 1.905236 1_655
Co5 O11 1.908546 1_555
