# generated using pymatgen
data_Li10V3Cr5O16
_symmetry_space_group_name_H-M   'P 1'
_cell_length_a   5.93901000
_cell_length_b   6.01278477
_cell_length_c   9.85111294
_cell_angle_alpha   89.82590342
_cell_angle_beta   89.82370569
_cell_angle_gamma   60.84032882
_symmetry_Int_Tables_number   1
_chemical_formula_structural   Li10V3Cr5O16
_chemical_formula_sum   'Li10 V3 Cr5 O16'
_cell_volume   307.19805475
_cell_formula_units_Z   1
loop_
 _symmetry_equiv_pos_site_id
 _symmetry_equiv_pos_as_xyz
  1  'x, y, z'
loop_
 _atom_site_type_symbol
 _atom_site_label
 _atom_site_symmetry_multiplicity
 _atom_site_fract_x
 _atom_site_fract_y
 _atom_site_fract_z
 _atom_site_occupancy
  Li  Li0  1  0.02102600  0.98795200  0.01234300  1
  Li  Li1  1  0.35537900  0.32354300  0.22576900  1
  Li  Li2  1  0.62547700  0.19758800  0.44132000  1
  Li  Li3  1  0.21532200  0.59400800  0.44561500  1
  Li  Li4  1  0.19661100  0.19184700  0.43949800  1
  Li  Li5  1  0.81601500  0.79739300  0.94194500  1
  Li  Li6  1  0.68011400  0.63681200  0.72480300  1
  Li  Li7  1  0.41305100  0.78137800  0.94765100  1
  Li  Li8  1  0.80999600  0.37549500  0.94212000  1
  Li  Li9  1  0.01558500  0.97475600  0.51405400  1
  V  V0  1  0.66388500  0.14861900  0.71096000  1
  V  V1  1  0.18807700  0.14807200  0.71164700  1
  V  V2  1  0.84948500  0.32641400  0.21105800  1
  Cr  Cr0  1  0.17770100  0.64589800  0.71385900  1
  Cr  Cr1  1  0.34828300  0.31452900  0.97286600  1
  Cr  Cr2  1  0.84960300  0.82088900  0.21335600  1
  Cr  Cr3  1  0.68290900  0.64987300  0.47125700  1
  Cr  Cr4  1  0.35601000  0.82108900  0.21422800  1
  O  O0  1  0.18393300  0.66019200  0.09442000  1
  O  O1  1  0.49365800  0.47947400  0.83777400  1
  O  O2  1  0.68694300  0.14523200  0.08679800  1
  O  O3  1  0.33771200  0.32926500  0.59222000  1
  O  O4  1  0.03170500  0.47694700  0.84015900  1
  O  O5  1  0.49643100  0.00736900  0.84489200  1
  O  O6  1  0.85084500  0.80584400  0.59382600  1
  O  O7  1  0.19522600  0.14342200  0.09212200  1
  O  O8  1  0.53008600  0.96645900  0.33813600  1
  O  O9  1  0.34753800  0.80538200  0.59127000  1
  O  O10  1  0.99181500  0.51303600  0.33892100  1
  O  O11  1  0.67809700  0.66814600  0.09713800  1
  O  O12  1  0.51746900  0.51030400  0.33754700  1
  O  O13  1  0.84658800  0.30874900  0.58361600  1
  O  O14  1  0.02361800  0.97861000  0.32424200  1
  O  O15  1  0.00965000  0.97563100  0.82225900  1
loop_
_geom_bond_atom_site_label_1
_geom_bond_atom_site_label_2
_geom_bond_distance
_geom_bond_site_symmetry_2
Li0 O7 1.874512 1_565
Li0 O15 1.876953 1_554
Li0 O2 1.880373 1_465
Li0 O0 1.900193 1_555
Li1 O12 2.113696 1_555
Li1 O8 2.175659 1_545
Li1 O0 2.189087 1_555
Li1 O10 2.190520 1_455
Li1 O7 2.198003 1_555
Li1 O2 2.199151 1_555
Li2 O12 1.951671 1_555
Li2 O8 2.016158 1_545
Li2 O3 2.104844 1_555
Li2 O13 2.237968 1_555
Li2 O14 2.369285 1_645
Li2 O6 2.552525 1_545
Li3 O12 1.928244 1_555
Li3 O10 1.935266 1_455
Li3 O3 2.003253 1_555
Li3 O9 2.298102 1_555
Li3 O14 2.345101 1_555
Li3 O6 2.396826 1_455
Li4 O10 1.974205 1_455
Li4 O8 2.033861 1_545
Li4 O3 2.082903 1_555
Li4 O14 2.299633 1_545
Li4 O13 2.322723 1_455
Li4 O9 2.529021 1_545
Li5 O5 1.944015 1_565
Li5 O4 1.989328 1_655
Li5 O11 2.053666 1_556
Li5 O15 2.246373 1_655
Li5 O2 2.333922 1_566
Li5 O0 2.442804 1_656
Li6 O1 2.089659 1_555
Li6 O4 2.151168 1_655
Li6 O6 2.171210 1_555
Li6 O9 2.171639 1_555
Li6 O13 2.216012 1_555
Li6 O5 2.278900 1_565
Li7 O5 1.939243 1_565
Li7 O1 1.964165 1_555
Li7 O11 2.018354 1_556
Li7 O0 2.328243 1_556
Li7 O7 2.387697 1_566
Li7 O15 2.431557 1_555
Li8 O1 1.959720 1_555
Li8 O4 1.971202 1_655
Li8 O11 2.169733 1_556
Li8 O2 2.334504 1_556
Li8 O15 2.410667 1_645
Li8 O7 2.502462 1_656
Li9 O14 1.870682 1_555
Li9 O13 1.884110 1_465
Li9 O9 1.884262 1_555
Li9 O6 1.888138 1_455
Cr0 O15 2.035982 1_555
Cr0 O4 2.043492 1_555
Cr0 O1 2.046812 1_555
Cr0 O3 2.051185 1_555
Cr0 O6 2.068652 1_455
Cr0 O9 2.079280 1_555
Cr1 O7 2.040193 1_556
Cr1 O5 2.048963 1_555
Cr1 O1 2.078329 1_555
Cr1 O2 2.086390 1_556
Cr1 O4 2.101393 1_555
Cr1 O0 2.176542 1_556
Cr2 O11 2.029012 1_555
Cr2 O14 2.031991 1_655
Cr2 O10 2.034405 1_555
Cr2 O8 2.061954 1_555
Cr2 O0 2.090909 1_655
Cr2 O2 2.108935 1_565
Cr3 O12 2.054959 1_555
Cr3 O6 2.063483 1_555
Cr3 O10 2.064720 1_555
Cr3 O9 2.101558 1_555
Cr3 O13 2.104035 1_555
Cr3 O8 2.115558 1_555
Cr4 O11 2.028278 1_555
Cr4 O12 2.033342 1_555
Cr4 O14 2.034610 1_555
Cr4 O8 2.053688 1_555
Cr4 O7 2.074720 1_565
Cr4 O0 2.085943 1_555
O1 V0 2.141895 1_555
O2 V2 2.158079 1_555
O3 V0 2.063099 1_555
O3 V1 2.071260 1_555
O4 V1 2.143338 1_555
O5 V0 2.063819 1_555
O5 V1 2.071391 1_555
O6 V0 2.142125 1_565
O7 V2 2.142677 1_455
O9 V1 2.157589 1_565
O10 V2 2.121255 1_555
O11 V2 2.114808 1_555
O12 V2 2.128851 1_555
O13 V0 2.163450 1_555
O13 V1 2.176299 1_655
O14 V2 2.138104 1_465
O15 V0 2.103896 1_465
O15 V1 2.107617 1_565
