# generated using pymatgen
data_AuC4(N2O)2
_symmetry_space_group_name_H-M   'P 1'
_cell_length_a   8.96011300
_cell_length_b   6.69935600
_cell_length_c   6.82073309
_cell_angle_alpha   75.89896042
_cell_angle_beta   90.00000000
_cell_angle_gamma   90.00000000
_symmetry_Int_Tables_number   1
_chemical_formula_structural   AuC4(N2O)2
_chemical_formula_sum   'Au2 C8 N8 O4'
_cell_volume   397.09100321
_cell_formula_units_Z   2
loop_
 _symmetry_equiv_pos_site_id
 _symmetry_equiv_pos_as_xyz
  1  'x, y, z'
loop_
 _atom_site_type_symbol
 _atom_site_label
 _atom_site_symmetry_multiplicity
 _atom_site_fract_x
 _atom_site_fract_y
 _atom_site_fract_z
 _atom_site_occupancy
  Au  Au0  1  0.00000000  0.00000000  0.00000000  1
  Au  Au1  1  0.50000000  0.00000000  0.50000000  1
  C  C0  1  0.41574700  0.11313900  0.72350200  1
  C  C1  1  0.91574700  0.88686100  0.77649800  1
  C  C2  1  0.58425300  0.88686100  0.27649800  1
  C  C3  1  0.08425300  0.11313900  0.22350200  1
  C  C4  1  0.64699300  0.23506000  0.44147100  1
  C  C5  1  0.14699300  0.76494000  0.05852900  1
  C  C6  1  0.35300700  0.76494000  0.55852900  1
  C  C7  1  0.85300700  0.23506000  0.94147100  1
  N  N0  1  0.36548700  0.17613600  0.85440900  1
  N  N1  1  0.86548700  0.82386400  0.64559100  1
  N  N2  1  0.63451300  0.82386400  0.14559100  1
  N  N3  1  0.13451300  0.17613600  0.35440900  1
  N  N4  1  0.73206100  0.37040500  0.40668000  1
  N  N5  1  0.23206100  0.62959500  0.09332000  1
  N  N6  1  0.26793900  0.62959500  0.59332000  1
  N  N7  1  0.76793900  0.37040500  0.90668000  1
  O  O0  1  0.94474300  0.54832000  0.47642400  1
  O  O1  1  0.44474300  0.45168000  0.02357600  1
  O  O2  1  0.05525700  0.45168000  0.52357600  1
  O  O3  1  0.55525700  0.54832000  0.97642400  1
loop_
_geom_bond_atom_site_label_1
_geom_bond_atom_site_label_2
_geom_bond_distance
_geom_bond_site_symmetry_2
Au0 C3 2.007824 1_555
Au0 C1 2.007824 1_444
Au0 C7 2.016822 1_454
Au0 C5 2.016822 1_545
Au1 C2 2.007824 1_545
Au1 C0 2.007824 1_555
Au1 C6 2.016822 1_545
Au1 C4 2.016822 1_555
C0 N0 1.166951 1_555
C1 N1 1.166951 1_555
C2 N2 1.166951 1_555
C3 N3 1.166951 1_555
C4 N4 1.163871 1_555
C5 N5 1.163871 1_555
C6 N6 1.163871 1_555
C7 N7 1.163871 1_555
O0 O2 1.183920 1_655
O1 O3 1.183920 1_554
