# generated using pymatgen
data_LiCoPO4
_symmetry_space_group_name_H-M   'P 1'
_cell_length_a   5.03672772
_cell_length_b   5.03674389
_cell_length_c   15.94061453
_cell_angle_alpha   88.44977606
_cell_angle_beta   91.55056910
_cell_angle_gamma   110.16436679
_symmetry_Int_Tables_number   1
_chemical_formula_structural   LiCoPO4
_chemical_formula_sum   'Li4 Co4 P4 O16'
_cell_volume   379.39987108
_cell_formula_units_Z   4
loop_
 _symmetry_equiv_pos_site_id
 _symmetry_equiv_pos_as_xyz
  1  'x, y, z'
loop_
 _atom_site_type_symbol
 _atom_site_label
 _atom_site_symmetry_multiplicity
 _atom_site_fract_x
 _atom_site_fract_y
 _atom_site_fract_z
 _atom_site_occupancy
  Li  Li0  1  0.29921400  0.75004000  0.74286200  1
  Li  Li1  1  0.24996700  0.70079100  0.24286500  1
  Li  Li2  1  0.74996700  0.29929500  0.75711500  1
  Li  Li3  1  0.70071200  0.25003900  0.25711000  1
  Co  Co0  1  0.91940000  0.60551600  0.58232800  1
  Co  Co1  1  0.39447800  0.08059500  0.08232700  1
  Co  Co2  1  0.60556700  0.91941200  0.91766800  1
  Co  Co3  1  0.08058600  0.39443400  0.41766900  1
  P  P0  1  0.25009900  0.27793800  0.62901600  1
  P  P1  1  0.27798300  0.25013700  0.87099000  1
  P  P2  1  0.72206000  0.74989900  0.12901800  1
  P  P3  1  0.74986000  0.72201900  0.37098900  1
  O  O0  1  0.08234400  0.39034800  0.69083800  1
  O  O1  1  0.60965400  0.91765000  0.19083900  1
  O  O2  1  0.39037600  0.08234100  0.80917200  1
  O  O3  1  0.91766000  0.60962300  0.30917200  1
  O  O4  1  0.95485700  0.18137400  0.86352900  1
  O  O5  1  0.81862700  0.04514400  0.36352900  1
  O  O6  1  0.18132900  0.95477600  0.63649100  1
  O  O7  1  0.04522400  0.81866200  0.13649200  1
  O  O8  1  0.43508600  0.56936100  0.85289700  1
  O  O9  1  0.43064000  0.56491900  0.35289700  1
  O  O10  1  0.56935800  0.43503200  0.64709600  1
  O  O11  1  0.56496300  0.43063600  0.14709400  1
  O  O12  1  0.15594000  0.36429700  0.54077300  1
  O  O13  1  0.63570200  0.84405900  0.04077200  1
  O  O14  1  0.36439300  0.15604900  0.95922800  1
  O  O15  1  0.84395400  0.63561500  0.45922800  1
loop_
_geom_bond_atom_site_label_1
_geom_bond_atom_site_label_2
_geom_bond_distance
_geom_bond_site_symmetry_2
Li0 O2 1.915483 1_565
Li0 O0 1.957293 1_555
Li0 O6 2.136371 1_555
Li0 O8 2.156650 1_555
Li1 O3 1.915480 1_455
Li1 O1 1.957279 1_555
Li1 O7 2.136382 1_555
Li1 O9 2.156595 1_555
Li2 O0 1.915537 1_655
Li2 O2 1.957242 1_555
Li2 O4 2.137406 1_555
Li2 O10 2.155967 1_555
Li3 O1 1.915527 1_545
Li3 O3 1.957240 1_555
Li3 O5 2.137472 1_555
Li3 O11 2.155926 1_555
Co0 O10 1.979515 1_555
Co0 O6 2.000247 1_655
Co0 O15 2.000308 1_555
Co0 O12 2.102026 1_655
Co0 O0 2.296721 1_655
Co1 O11 1.979499 1_555
Co1 O7 2.000254 1_545
Co1 O14 2.000293 1_554
Co1 O13 2.102030 1_545
Co1 O1 2.296769 1_545
Co2 O8 1.979569 1_555
Co2 O4 2.000243 1_565
Co2 O13 2.000303 1_556
Co2 O14 2.102254 1_565
Co2 O2 2.296585 1_565
Co3 O9 1.979596 1_555
Co3 O5 2.000239 1_455
Co3 O12 2.000304 1_555
Co3 O15 2.102257 1_455
Co3 O3 2.296586 1_455
O0 P0 1.552648 1_555
O1 P2 1.552612 1_555
O2 P1 1.552699 1_555
O3 P3 1.552711 1_555
O4 P1 1.544665 1_655
O5 P3 1.544662 1_545
O6 P0 1.544855 1_565
O7 P2 1.544863 1_455
O8 P1 1.550683 1_555
O9 P3 1.550654 1_555
O10 P0 1.550784 1_555
O11 P2 1.550800 1_555
O12 P0 1.570281 1_555
O13 P2 1.570323 1_555
O14 P1 1.570169 1_555
O15 P3 1.570184 1_555
