# generated using pymatgen
data_Li2MnP2O7
_symmetry_space_group_name_H-M   'P 1'
_cell_length_a   6.90942800
_cell_length_b   5.13502100
_cell_length_c   16.30491357
_cell_angle_alpha   89.42202892
_cell_angle_beta   90.00000000
_cell_angle_gamma   90.00000000
_symmetry_Int_Tables_number   1
_chemical_formula_structural   Li2MnP2O7
_chemical_formula_sum   'Li8 Mn4 P8 O28'
_cell_volume   578.46984397
_cell_formula_units_Z   4
loop_
 _symmetry_equiv_pos_site_id
 _symmetry_equiv_pos_as_xyz
  1  'x, y, z'
loop_
 _atom_site_type_symbol
 _atom_site_label
 _atom_site_symmetry_multiplicity
 _atom_site_fract_x
 _atom_site_fract_y
 _atom_site_fract_z
 _atom_site_occupancy
  Li  Li0  1  0.46955000  0.25689300  0.25818400  1
  Li  Li1  1  0.03045000  0.25689300  0.75818400  1
  Li  Li2  1  0.70459400  0.23305400  0.99277500  1
  Li  Li3  1  0.79540600  0.23305400  0.49277500  1
  Li  Li4  1  0.20459400  0.76694600  0.50722500  1
  Li  Li5  1  0.29540600  0.76694600  0.00722500  1
  Li  Li6  1  0.96955000  0.74310700  0.24181600  1
  Li  Li7  1  0.53045000  0.74310700  0.74181600  1
  Mn  Mn0  1  0.07910700  0.24383000  0.13107900  1
  Mn  Mn1  1  0.42089300  0.24383000  0.63107900  1
  Mn  Mn2  1  0.57910700  0.75617000  0.36892100  1
  Mn  Mn3  1  0.92089300  0.75617000  0.86892100  1
  P  P0  1  0.28688600  0.24922700  0.42718900  1
  P  P1  1  0.21311400  0.24922700  0.92718900  1
  P  P2  1  0.90490100  0.24358600  0.33440500  1
  P  P3  1  0.59509900  0.24358600  0.83440500  1
  P  P4  1  0.40490100  0.75641400  0.16559500  1
  P  P5  1  0.09509900  0.75641400  0.66559500  1
  P  P6  1  0.78688600  0.75077300  0.07281100  1
  P  P7  1  0.71311400  0.75077300  0.57281100  1
  O  O0  1  0.81752500  0.45509700  0.07590200  1
  O  O1  1  0.68247500  0.45509700  0.57590200  1
  O  O2  1  0.75108600  0.40770300  0.37703500  1
  O  O3  1  0.74891400  0.40770300  0.87703500  1
  O  O4  1  0.01071500  0.37813400  0.26297100  1
  O  O5  1  0.48928500  0.37813400  0.76297100  1
  O  O6  1  0.05467900  0.19421800  0.41184100  1
  O  O7  1  0.44532100  0.19421800  0.91184100  1
  O  O8  1  0.19071100  0.12402200  0.01239500  1
  O  O9  1  0.30928900  0.12402200  0.51239500  1
  O  O10  1  0.39656100  0.10415600  0.36057600  1
  O  O11  1  0.10343900  0.10415600  0.86057600  1
  O  O12  1  0.32993300  0.02762500  0.18722900  1
  O  O13  1  0.17006700  0.02762500  0.68722900  1
  O  O14  1  0.82993300  0.97237500  0.31277100  1
  O  O15  1  0.67006700  0.97237500  0.81277100  1
  O  O16  1  0.89656100  0.89584400  0.13942400  1
  O  O17  1  0.60343900  0.89584400  0.63942400  1
  O  O18  1  0.69071100  0.87597800  0.48760500  1
  O  O19  1  0.80928900  0.87597800  0.98760500  1
  O  O20  1  0.55467900  0.80578200  0.08815900  1
  O  O21  1  0.94532100  0.80578200  0.58815900  1
  O  O22  1  0.51071500  0.62186600  0.23702900  1
  O  O23  1  0.98928500  0.62186600  0.73702900  1
  O  O24  1  0.25108600  0.59229700  0.12296500  1
  O  O25  1  0.24891400  0.59229700  0.62296500  1
  O  O26  1  0.31752500  0.54490300  0.42409800  1
  O  O27  1  0.18247500  0.54490300  0.92409800  1
loop_
_geom_bond_atom_site_label_1
_geom_bond_atom_site_label_2
_geom_bond_distance
_geom_bond_site_symmetry_2
Li0 O10 1.905324 1_555
Li0 O12 1.918998 1_555
Li0 O22 1.923343 1_555
Li1 O11 1.905324 1_555
Li1 O13 1.918998 1_555
Li1 O23 1.923343 1_455
Li2 O0 1.943483 1_556
Li2 O19 1.973720 1_545
Li2 O3 2.103614 1_555
Li2 O7 2.235105 1_555
Li3 O1 1.943483 1_555
Li3 O18 1.973720 1_545
Li3 O2 2.103614 1_555
Li3 O6 2.235105 1_655
Li4 O26 1.943483 1_555
Li4 O9 1.973720 1_565
Li4 O25 2.103614 1_555
Li4 O21 2.235105 1_455
Li5 O27 1.943483 1_554
Li5 O8 1.973720 1_565
Li5 O24 2.103614 1_555
Li5 O20 2.235105 1_555
Li6 O16 1.905324 1_555
Li6 O14 1.918998 1_555
Li6 O4 1.923343 1_655
Li7 O17 1.905324 1_555
Li7 O15 1.918998 1_555
Li7 O5 1.923343 1_555
Mn0 O24 2.150960 1_555
Mn0 O8 2.177584 1_555
Mn0 O16 2.190325 1_445
Mn0 O12 2.248058 1_555
Mn0 O0 2.287628 1_455
Mn0 O4 2.313751 1_555
Mn1 O25 2.150960 1_555
Mn1 O9 2.177584 1_555
Mn1 O17 2.190325 1_545
Mn1 O13 2.248058 1_555
Mn1 O1 2.287628 1_555
Mn1 O5 2.313751 1_555
Mn2 O2 2.150960 1_555
Mn2 O18 2.177584 1_555
Mn2 O10 2.190325 1_565
Mn2 O14 2.248058 1_555
Mn2 O26 2.287628 1_555
Mn2 O22 2.313751 1_555
Mn3 O3 2.150960 1_555
Mn3 O19 2.177584 1_555
Mn3 O11 2.190325 1_665
Mn3 O15 2.248058 1_555
Mn3 O27 2.287628 1_655
Mn3 O23 2.313751 1_555
O0 P6 1.533315 1_555
O1 P7 1.533315 1_555
O2 P2 1.527959 1_555
O3 P3 1.527959 1_555
O4 P2 1.533698 1_455
O5 P3 1.533698 1_555
O6 P0 1.648635 1_555
O6 P2 1.650125 1_455
O7 P1 1.648635 1_555
O7 P3 1.650125 1_555
O8 P1 1.532772 1_554
O9 P0 1.532772 1_555
O10 P0 1.524849 1_555
O11 P1 1.524849 1_555
O12 P4 1.530421 1_545
O13 P5 1.530421 1_545
O14 P2 1.530421 1_565
O15 P3 1.530421 1_565
O16 P6 1.524849 1_555
O17 P7 1.524849 1_555
O18 P7 1.532772 1_555
O19 P6 1.532772 1_556
O20 P6 1.648635 1_555
O20 P4 1.650125 1_555
O21 P7 1.648635 1_555
O21 P5 1.650125 1_655
O22 P4 1.533698 1_555
O23 P5 1.533698 1_655
O24 P4 1.527959 1_555
O25 P5 1.527959 1_555
O26 P0 1.533315 1_555
O27 P1 1.533315 1_555
