# generated using pymatgen
data_Dy2WO6
_symmetry_space_group_name_H-M   'P 1'
_cell_length_a   5.21875940
_cell_length_b   9.05048439
_cell_length_c   9.88835073
_cell_angle_alpha   90.00000000
_cell_angle_beta   90.00000000
_cell_angle_gamma   90.00000000
_symmetry_Int_Tables_number   1
_chemical_formula_structural   Dy2WO6
_chemical_formula_sum   'Dy8 W4 O24'
_cell_volume   467.04955298
_cell_formula_units_Z   4
loop_
 _symmetry_equiv_pos_site_id
 _symmetry_equiv_pos_as_xyz
  1  'x, y, z'
loop_
 _atom_site_type_symbol
 _atom_site_label
 _atom_site_symmetry_multiplicity
 _atom_site_fract_x
 _atom_site_fract_y
 _atom_site_fract_z
 _atom_site_occupancy
  Dy  Dy0  1  0.01924416  0.39654334  0.03422950  1
  Dy  Dy1  1  0.03794354  0.28049779  0.62787436  1
  Dy  Dy2  1  0.46205646  0.71950221  0.12787436  1
  Dy  Dy3  1  0.48075584  0.60345666  0.53422950  1
  Dy  Dy4  1  0.51924416  0.10345666  0.96577050  1
  Dy  Dy5  1  0.53794354  0.21950221  0.37212564  1
  Dy  Dy6  1  0.96205646  0.78049779  0.87212564  1
  Dy  Dy7  1  0.98075584  0.89654334  0.46577050  1
  W  W0  1  0.03939182  0.00476675  0.15278728  1
  W  W1  1  0.46060818  0.99523325  0.65278728  1
  W  W2  1  0.53939182  0.49523325  0.84721272  1
  W  W3  1  0.96060818  0.50476675  0.34721272  1
  O  O0  1  0.08327282  0.65622452  0.46975015  1
  O  O1  1  0.17577066  0.54700177  0.20273480  1
  O  O2  1  0.18120941  0.86255932  0.68082039  1
  O  O3  1  0.19317975  0.85988640  0.26422694  1
  O  O4  1  0.23090133  0.38617306  0.43249403  1
  O  O5  1  0.25165321  0.08990075  0.50607700  1
  O  O6  1  0.24834679  0.91009925  0.00607700  1
  O  O7  1  0.26909867  0.61382694  0.93249403  1
  O  O8  1  0.30682025  0.14011360  0.76422694  1
  O  O9  1  0.31879059  0.13744068  0.18082039  1
  O  O10  1  0.32422934  0.45299823  0.70273480  1
  O  O11  1  0.41672718  0.34377548  0.96975015  1
  O  O12  1  0.58327282  0.84377548  0.53024985  1
  O  O13  1  0.67577066  0.95299823  0.79726520  1
  O  O14  1  0.68120941  0.63744068  0.31917961  1
  O  O15  1  0.69317975  0.64011360  0.73577306  1
  O  O16  1  0.73090133  0.11382694  0.56750597  1
  O  O17  1  0.75165321  0.41009925  0.49392300  1
  O  O18  1  0.74834679  0.58990075  0.99392300  1
  O  O19  1  0.76909867  0.88617306  0.06750597  1
  O  O20  1  0.80682025  0.35988640  0.23577306  1
  O  O21  1  0.81879059  0.36255932  0.81917961  1
  O  O22  1  0.82422934  0.04700177  0.29726520  1
  O  O23  1  0.91672718  0.15622452  0.03024985  1
loop_
_geom_bond_atom_site_label_1
_geom_bond_atom_site_label_2
_geom_bond_distance
_geom_bond_site_symmetry_2
Dy0 O11 2.222073 1_554
Dy0 O23 2.240183 1_455
Dy0 O18 2.284724 1_454
Dy0 O1 2.301722 1_555
Dy0 O20 2.304522 1_455
Dy0 O21 2.389753 1_454
Dy0 O7 2.565048 1_554
Dy1 O16 2.280217 1_455
Dy1 O10 2.284197 1_555
Dy1 O17 2.315719 1_455
Dy1 O8 2.324044 1_555
Dy1 O21 2.331988 1_455
Dy1 O4 2.379361 1_555
Dy1 O5 2.381181 1_555
Dy2 O19 2.280217 1_555
Dy2 O1 2.284197 1_555
Dy2 O18 2.315719 1_554
Dy2 O3 2.324044 1_555
Dy2 O14 2.331988 1_555
Dy2 O7 2.379361 1_554
Dy2 O6 2.381181 1_555
Dy3 O0 2.222073 1_555
Dy3 O12 2.240183 1_555
Dy3 O17 2.284724 1_555
Dy3 O10 2.301722 1_555
Dy3 O15 2.304522 1_555
Dy3 O14 2.389753 1_555
Dy3 O4 2.565048 1_555
Dy4 O23 2.222073 1_556
Dy4 O11 2.240183 1_555
Dy4 O6 2.284724 1_546
Dy4 O13 2.301722 1_545
Dy4 O8 2.304522 1_555
Dy4 O9 2.389753 1_556
Dy4 O19 2.565048 1_546
Dy5 O4 2.280217 1_555
Dy5 O22 2.284197 1_555
Dy5 O5 2.315719 1_555
Dy5 O20 2.324044 1_555
Dy5 O9 2.331988 1_555
Dy5 O16 2.379361 1_555
Dy5 O17 2.381181 1_555
Dy6 O7 2.280217 1_655
Dy6 O13 2.284197 1_555
Dy6 O6 2.315719 1_656
Dy6 O15 2.324044 1_555
Dy6 O2 2.331988 1_655
Dy6 O19 2.379361 1_556
Dy6 O18 2.381181 1_555
Dy7 O12 2.222073 1_555
Dy7 O0 2.240183 1_655
Dy7 O5 2.284724 1_665
Dy7 O22 2.301722 1_565
Dy7 O3 2.304522 1_655
Dy7 O2 2.389753 1_655
Dy7 O16 2.565048 1_565
O0 W3 1.938299 1_455
O1 W3 1.856882 1_455
O2 W1 1.909129 1_555
O3 W0 1.891503 1_565
O4 W3 1.962895 1_455
O5 W1 2.006948 1_545
O6 W0 2.006948 1_565
O7 W2 1.962895 1_555
O8 W1 1.891503 1_545
O9 W0 1.909129 1_555
O10 W2 1.856882 1_555
O11 W2 1.938299 1_555
O12 W1 1.938299 1_555
O13 W1 1.856882 1_555
O14 W3 1.909129 1_555
O15 W2 1.891503 1_555
O16 W1 1.962895 1_545
O17 W3 2.006948 1_555
O18 W2 2.006948 1_555
O19 W0 1.962895 1_665
O20 W3 1.891503 1_555
O21 W2 1.909129 1_555
O22 W0 1.856882 1_655
O23 W0 1.938299 1_655
