# generated using pymatgen
data_Li4Cr(WO4)3
_symmetry_space_group_name_H-M   'P 1'
_cell_length_a   8.63672100
_cell_length_b   5.02265400
_cell_length_c   5.14736494
_cell_angle_alpha   89.62382213
_cell_angle_beta   90.00000000
_cell_angle_gamma   90.00000000
_symmetry_Int_Tables_number   1
_chemical_formula_structural   Li4Cr(WO4)3
_chemical_formula_sum   'Li4 Cr1 W3 O12'
_cell_volume   223.28407613
_cell_formula_units_Z   1
loop_
 _symmetry_equiv_pos_site_id
 _symmetry_equiv_pos_as_xyz
  1  'x, y, z'
loop_
 _atom_site_type_symbol
 _atom_site_label
 _atom_site_symmetry_multiplicity
 _atom_site_fract_x
 _atom_site_fract_y
 _atom_site_fract_z
 _atom_site_occupancy
  Li  Li0  1  0.29935600  0.00000000  0.00000000  1
  Li  Li1  1  0.16124400  0.50000000  0.00000000  1
  Li  Li2  1  0.69238700  0.00000000  0.50000000  1
  Li  Li3  1  0.81608000  0.50000000  0.50000000  1
  Cr  Cr0  1  0.90380400  0.00000000  0.00000000  1
  W  W0  1  0.39256000  0.50000000  0.50000000  1
  W  W1  1  0.60434700  0.50000000  0.00000000  1
  W  W2  1  0.07456300  0.00000000  0.50000000  1
  O  O0  1  0.74125800  0.25801300  0.84967800  1
  O  O1  1  0.41748600  0.30037900  0.82253000  1
  O  O2  1  0.07545400  0.19879900  0.82024500  1
  O  O3  1  0.57235100  0.70713300  0.68535100  1
  O  O4  1  0.91398600  0.79589800  0.66934000  1
  O  O5  1  0.23675400  0.75471700  0.63867700  1
  O  O6  1  0.23675400  0.24528300  0.36132300  1
  O  O7  1  0.91398600  0.20410200  0.33066000  1
  O  O8  1  0.57235100  0.29286700  0.31464900  1
  O  O9  1  0.07545400  0.80120100  0.17975500  1
  O  O10  1  0.41748600  0.69962100  0.17747000  1
  O  O11  1  0.74125800  0.74198700  0.15032200  1
loop_
_geom_bond_atom_site_label_1
_geom_bond_atom_site_label_2
_geom_bond_distance
_geom_bond_site_symmetry_2
Li0 O10 2.033098 1_545
Li0 O1 2.033098 1_554
Li0 O5 2.302011 1_544
Li0 O6 2.302011 1_555
Li0 O2 2.362305 1_554
Li0 O9 2.362305 1_545
Li1 O2 1.926692 1_554
Li1 O9 1.926692 1_555
Li1 O6 2.343054 1_555
Li1 O5 2.343054 1_554
Li1 O1 2.597989 1_554
Li1 O10 2.597989 1_555
Li2 O3 2.032327 1_545
Li2 O8 2.032327 1_555
Li2 O11 2.264482 1_545
Li2 O0 2.264482 1_555
Li2 O4 2.337075 1_545
Li2 O7 2.337075 1_555
Li3 O7 1.923689 1_555
Li3 O4 1.923689 1_555
Li3 O11 2.259606 1_555
Li3 O0 2.259606 1_555
Li3 O8 2.537071 1_555
Li3 O3 2.537071 1_555
Cr0 O4 1.994603 1_544
Cr0 O7 1.994603 1_555
Cr0 O2 2.009669 1_654
Cr0 O9 2.009669 1_645
Cr0 O0 2.058096 1_554
Cr0 O11 2.058096 1_545
O0 W1 1.867220 1_556
O1 W0 1.945751 1_555
O1 W1 2.111005 1_556
O2 W2 1.932861 1_555
O3 W1 1.939002 1_556
O3 W0 2.101625 1_555
O4 W2 1.929333 1_665
O5 W0 1.992251 1_555
O5 W2 1.994488 1_565
O6 W0 1.992251 1_555
O6 W2 1.994488 1_555
O7 W2 1.929333 1_655
O8 W1 1.939002 1_555
O8 W0 2.101625 1_555
O9 W2 1.932861 1_565
O10 W0 1.945751 1_555
O10 W1 2.111005 1_555
O11 W1 1.867220 1_555
