# generated using pymatgen
data_VO2
_symmetry_space_group_name_H-M   'P 1'
_cell_length_a   5.65480571
_cell_length_b   6.18814840
_cell_length_c   6.17970626
_cell_angle_alpha   95.25226392
_cell_angle_beta   92.71077858
_cell_angle_gamma   87.32850794
_symmetry_Int_Tables_number   1
_chemical_formula_structural   VO2
_chemical_formula_sum   'V6 O12'
_cell_volume   214.90177308
_cell_formula_units_Z   6
loop_
 _symmetry_equiv_pos_site_id
 _symmetry_equiv_pos_as_xyz
  1  'x, y, z'
loop_
 _atom_site_type_symbol
 _atom_site_label
 _atom_site_symmetry_multiplicity
 _atom_site_fract_x
 _atom_site_fract_y
 _atom_site_fract_z
 _atom_site_occupancy
  V  V0  1  0.75131100  0.42067400  0.94408000  1
  V  V1  1  0.24904000  0.94381700  0.42014200  1
  V  V2  1  0.75088000  0.04978300  0.57345300  1
  V  V3  1  0.24876300  0.57292500  0.04952300  1
  V  V4  1  0.00000500  0.99678400  0.99678100  1
  V  V5  1  0.49999700  0.49683900  0.49684000  1
  O  O0  1  0.30515600  0.88309300  0.11029700  1
  O  O1  1  0.78574000  0.38074900  0.61267900  1
  O  O2  1  0.21426200  0.61295500  0.38102200  1
  O  O3  1  0.69484200  0.11054400  0.88333100  1
  O  O4  1  0.93801700  0.02293600  0.30607100  1
  O  O5  1  0.41641000  0.52556200  0.80835000  1
  O  O6  1  0.93844900  0.68669200  0.97045600  1
  O  O7  1  0.41635200  0.18495600  0.46822000  1
  O  O8  1  0.58352900  0.46810600  0.18521900  1
  O  O9  1  0.06190300  0.97062500  0.68747600  1
  O  O10  1  0.58371100  0.80860700  0.52544900  1
  O  O11  1  0.06163300  0.30685700  0.02311400  1
loop_
_geom_bond_atom_site_label_1
_geom_bond_atom_site_label_2
_geom_bond_distance
_geom_bond_site_symmetry_2
O0 V1 1.955198 1_555
O0 V4 1.956359 1_554
O0 V3 1.959709 1_555
O1 V5 1.875081 1_555
O1 V0 2.057591 1_555
O1 V2 2.057770 1_555
O2 V5 1.875056 1_555
O2 V1 2.057056 1_555
O2 V3 2.058262 1_555
O3 V2 1.955329 1_555
O3 V4 1.956424 1_645
O3 V0 1.959552 1_555
O4 V1 1.922384 1_645
O4 V4 1.950299 1_644
O4 V2 1.994096 1_555
O5 V3 1.798228 1_556
O5 V5 1.994086 1_555
O5 V0 2.132167 1_555
O6 V3 1.918407 1_656
O6 V4 1.956922 1_655
O6 V0 1.988267 1_555
O7 V1 1.798314 1_545
O7 V5 1.998628 1_555
O7 V2 2.129977 1_555
O8 V0 1.798505 1_554
O8 V5 1.994663 1_555
O8 V3 2.131307 1_555
O9 V2 1.922341 1_465
O9 V4 1.950276 1_555
O9 V1 1.993849 1_555
O10 V2 1.798026 1_565
O10 V5 1.998048 1_555
O10 V1 2.130893 1_555
O11 V0 1.918505 1_454
O11 V4 1.956896 1_544
O11 V3 1.988499 1_555
