# generated using pymatgen
data_LiMnPO4
_symmetry_space_group_name_H-M   'P 1'
_cell_length_a   5.23979821
_cell_length_b   7.98116210
_cell_length_c   9.02257031
_cell_angle_alpha   92.77205205
_cell_angle_beta   92.74625636
_cell_angle_gamma   77.25880538
_symmetry_Int_Tables_number   1
_chemical_formula_structural   LiMnPO4
_chemical_formula_sum   'Li4 Mn4 P4 O16'
_cell_volume   367.33052441
_cell_formula_units_Z   4
loop_
 _symmetry_equiv_pos_site_id
 _symmetry_equiv_pos_as_xyz
  1  'x, y, z'
loop_
 _atom_site_type_symbol
 _atom_site_label
 _atom_site_symmetry_multiplicity
 _atom_site_fract_x
 _atom_site_fract_y
 _atom_site_fract_z
 _atom_site_occupancy
  Li  Li0  1  0.13184600  0.97002300  0.35218900  1
  Li  Li1  1  0.86792000  0.02977300  0.64813600  1
  Li  Li2  1  0.17483400  0.43425100  0.23354600  1
  Li  Li3  1  0.82495000  0.56585700  0.76643500  1
  Mn  Mn0  1  0.31049100  0.68067100  0.56172400  1
  Mn  Mn1  1  0.68962800  0.31898500  0.43818800  1
  Mn  Mn2  1  0.23946500  0.18549400  0.91045200  1
  Mn  Mn3  1  0.76080000  0.81462200  0.08945400  1
  P  P0  1  0.24356900  0.27936800  0.58105000  1
  P  P1  1  0.75640900  0.72054700  0.41894100  1
  P  P2  1  0.23843200  0.79125600  0.88552900  1
  P  P3  1  0.76167400  0.20884300  0.11450500  1
  O  O0  1  0.06359500  0.17126700  0.49612700  1
  O  O1  1  0.93641900  0.82856400  0.50392900  1
  O  O2  1  0.00649900  0.28537000  0.09101200  1
  O  O3  1  0.99356700  0.71472800  0.90889000  1
  O  O4  1  0.11702000  0.34905500  0.72991000  1
  O  O5  1  0.88298500  0.65100100  0.27006800  1
  O  O6  1  0.26597000  0.43041300  0.47854900  1
  O  O7  1  0.73377200  0.56943300  0.52134100  1
  O  O8  1  0.14428900  0.96455700  0.80411200  1
  O  O9  1  0.85582900  0.03561500  0.19601000  1
  O  O10  1  0.43159400  0.66503900  0.78341700  1
  O  O11  1  0.56849700  0.33541900  0.21635100  1
  O  O12  1  0.37368100  0.82614800  0.03569100  1
  O  O13  1  0.62641500  0.17366500  0.96435800  1
  O  O14  1  0.52737400  0.17562600  0.60137100  1
  O  O15  1  0.47247500  0.82440900  0.39871700  1
loop_
_geom_bond_atom_site_label_1
_geom_bond_atom_site_label_2
_geom_bond_distance
_geom_bond_site_symmetry_2
Li0 O15 1.942400 1_555
Li0 O9 1.973200 1_465
Li0 O0 1.995902 1_565
Li0 O1 2.234149 1_455
Li1 O14 1.943269 1_555
Li1 O8 1.972704 1_645
Li1 O1 1.997247 1_545
Li1 O0 2.236706 1_655
Li2 O2 2.012355 1_555
Li2 O11 2.049927 1_555
Li2 O5 2.065430 1_455
Li2 O6 2.239304 1_555
Li3 O3 2.012678 1_555
Li3 O10 2.048685 1_555
Li3 O4 2.066363 1_655
Li3 O7 2.240113 1_555
Mn0 O10 2.070454 1_555
Mn0 O1 2.109050 1_455
Mn0 O6 2.156565 1_555
Mn0 O15 2.216270 1_555
Mn0 O7 2.240016 1_555
Mn1 O11 2.071992 1_555
Mn1 O0 2.108401 1_655
Mn1 O7 2.157337 1_555
Mn1 O14 2.216225 1_555
Mn1 O6 2.242035 1_555
Mn2 O13 2.044969 1_555
Mn2 O2 2.101255 1_556
Mn2 O8 2.111163 1_545
Mn2 O4 2.122571 1_555
Mn3 O12 2.045971 1_555
Mn3 O3 2.100757 1_554
Mn3 O9 2.112029 1_565
Mn3 O5 2.123184 1_555
O0 P0 1.564121 1_555
O1 P1 1.564065 1_555
O2 P3 1.564552 1_455
O3 P2 1.564518 1_655
O4 P0 1.550277 1_555
O5 P1 1.550184 1_555
O6 P0 1.582085 1_555
O7 P1 1.582295 1_555
O8 P2 1.568006 1_555
O9 P3 1.567919 1_555
O10 P2 1.561362 1_555
O11 P3 1.561350 1_555
O12 P2 1.540758 1_554
O13 P3 1.541216 1_556
O14 P0 1.541437 1_555
O15 P1 1.542235 1_555
