# generated using pymatgen
data_RbN3
_symmetry_space_group_name_H-M   'P 1'
_cell_length_a   5.82992666
_cell_length_b   5.83083352
_cell_length_c   5.83083319
_cell_angle_alpha   99.74607738
_cell_angle_beta   114.54608736
_cell_angle_gamma   114.54607683
_symmetry_Int_Tables_number   1
_chemical_formula_structural   RbN3
_chemical_formula_sum   'Rb2 N6'
_cell_volume   149.35040345
_cell_formula_units_Z   2
loop_
 _symmetry_equiv_pos_site_id
 _symmetry_equiv_pos_as_xyz
  1  'x, y, z'
loop_
 _atom_site_type_symbol
 _atom_site_label
 _atom_site_symmetry_multiplicity
 _atom_site_fract_x
 _atom_site_fract_y
 _atom_site_fract_z
 _atom_site_occupancy
  Rb  Rb0  1  -0.00000000  0.75000100  0.74999900  1
  Rb  Rb1  1  -0.00000000  0.24999900  0.25000100  1
  N  N0  1  0.50000000  -0.00000000  0.50000000  1
  N  N1  1  0.50000000  0.50000000  -0.00000000  1
  N  N2  1  0.76537664  0.63268732  0.13268732  1
  N  N3  1  0.50000000  0.13263898  0.36736102  1
  N  N4  1  0.50000000  0.86736102  0.63263898  1
  N  N5  1  0.23462336  0.36731268  0.86731268  1
loop_
_geom_bond_atom_site_label_1
_geom_bond_atom_site_label_2
_geom_bond_distance
_geom_bond_site_symmetry_2
N0 N4 1.182705 1_545
N0 N3 1.182705 1_555
N1 N5 1.182827 1_554
N1 N2 1.182827 1_555
N2 Rb0 3.097295 1_655
N2 Rb1 3.097295 1_665
N2 Rb1 3.097302 1_655
N2 Rb0 3.097302 1_654
N3 Rb0 3.097110 1_544
N3 Rb0 3.097111 1_655
N3 Rb1 3.097112 1_555
N3 Rb1 3.097112 1_655
N4 Rb1 3.097110 1_666
N4 Rb1 3.097111 1_555
N4 Rb0 3.097112 1_655
N4 Rb0 3.097112 1_555
N5 Rb1 3.097295 1_555
N5 Rb0 3.097295 1_545
N5 Rb0 3.097302 1_555
N5 Rb1 3.097302 1_556
