# generated using pymatgen
data_Ba4Bi3O11
_symmetry_space_group_name_H-M   'P 1'
_cell_length_a   6.21683050
_cell_length_b   6.21683050
_cell_length_c   8.93525200
_cell_angle_alpha   90.00000000
_cell_angle_beta   90.00000000
_cell_angle_gamma   90.00636046
_symmetry_Int_Tables_number   1
_chemical_formula_structural   Ba4Bi3O11
_chemical_formula_sum   'Ba4 Bi3 O11'
_cell_volume   345.33838724
_cell_formula_units_Z   1
loop_
 _symmetry_equiv_pos_site_id
 _symmetry_equiv_pos_as_xyz
  1  'x, y, z'
loop_
 _atom_site_type_symbol
 _atom_site_label
 _atom_site_symmetry_multiplicity
 _atom_site_fract_x
 _atom_site_fract_y
 _atom_site_fract_z
 _atom_site_occupancy
  Ba  Ba0  1  0.50748700  0.95347900  0.25547100  1
  Ba  Ba1  1  0.50748700  0.95347900  0.74452900  1
  Ba  Ba2  1  0.04652100  0.49251300  0.74452900  1
  Ba  Ba3  1  0.04652100  0.49251300  0.25547100  1
  Bi  Bi0  1  0.00914800  0.99085200  0.00000000  1
  Bi  Bi1  1  0.01029500  0.98970500  0.50000000  1
  Bi  Bi2  1  0.51934800  0.48065200  0.50000000  1
  O  O0  1  0.00995800  0.99004200  0.24935700  1
  O  O1  1  0.00995800  0.99004200  0.75064300  1
  O  O2  1  0.25270000  0.24616200  0.50000000  1
  O  O3  1  0.76353900  0.23646100  0.50000000  1
  O  O4  1  0.10153400  0.30499900  0.00000000  1
  O  O5  1  0.50785800  0.49214200  0.26878800  1
  O  O6  1  0.50785800  0.49214200  0.73121200  1
  O  O7  1  0.69500100  0.89846600  0.00000000  1
  O  O8  1  0.75383800  0.74730000  0.50000000  1
  O  O9  1  0.23987300  0.76012700  0.00000000  1
  O  O10  1  0.26107400  0.73892600  0.50000000  1
loop_
_geom_bond_atom_site_label_1
_geom_bond_atom_site_label_2
_geom_bond_distance
_geom_bond_site_symmetry_2
Ba0 O7 2.585870 1_555
Ba0 O5 2.870522 1_555
Ba0 O8 2.960214 1_555
Ba0 O10 2.983174 1_555
Ba0 O9 3.069705 1_555
Ba0 O0 3.101901 1_555
Ba0 O0 3.132487 1_655
Ba0 O3 3.225242 1_565
Ba0 O2 3.254889 1_565
Ba0 O5 3.350890 1_565
Ba1 O7 2.585870 1_556
Ba1 O6 2.870522 1_555
Ba1 O8 2.960214 1_555
Ba1 O10 2.983174 1_555
Ba1 O9 3.069705 1_556
Ba1 O1 3.101901 1_555
Ba1 O1 3.132487 1_655
Ba1 O3 3.225242 1_565
Ba1 O2 3.254889 1_565
Ba1 O6 3.350890 1_565
Ba2 O4 2.585870 1_556
Ba2 O6 2.870522 1_555
Ba2 O2 2.960214 1_555
Ba2 O10 2.983174 1_555
Ba2 O9 3.069705 1_556
Ba2 O1 3.101901 1_555
Ba2 O1 3.132487 1_545
Ba2 O3 3.225242 1_455
Ba2 O8 3.254889 1_455
Ba2 O6 3.350890 1_455
Ba3 O4 2.585870 1_555
Ba3 O5 2.870522 1_555
Ba3 O2 2.960214 1_555
Ba3 O10 2.983174 1_555
Ba3 O9 3.069705 1_555
Ba3 O0 3.101901 1_555
Ba3 O0 3.132487 1_545
Ba3 O3 3.225242 1_455
Ba3 O8 3.254889 1_455
Ba3 O5 3.350890 1_455
Bi0 O9 2.028630 1_555
Bi0 O4 2.035640 1_565
Bi0 O7 2.035640 1_455
Bi0 O0 2.228079 1_555
Bi0 O1 2.228079 1_554
Bi1 O3 2.169581 1_465
Bi1 O8 2.193727 1_455
Bi1 O2 2.193727 1_565
Bi1 O10 2.204953 1_555
Bi1 O1 2.239560 1_555
Bi1 O0 2.239560 1_555
Bi2 O6 2.068406 1_555
Bi2 O5 2.068406 1_555
Bi2 O3 2.147028 1_555
Bi2 O2 2.207394 1_555
Bi2 O8 2.207394 1_555
Bi2 O10 2.270852 1_555
