# generated using pymatgen
data_Li5NiO4
_symmetry_space_group_name_H-M   'P 1'
_cell_length_a   5.15795100
_cell_length_b   9.42174600
_cell_length_c   15.68748800
_cell_angle_alpha   90.00000000
_cell_angle_beta   90.00000000
_cell_angle_gamma   90.00000000
_symmetry_Int_Tables_number   1
_chemical_formula_structural   Li5NiO4
_chemical_formula_sum   'Li40 Ni8 O32'
_cell_volume   762.36335151
_cell_formula_units_Z   8
loop_
 _symmetry_equiv_pos_site_id
 _symmetry_equiv_pos_as_xyz
  1  'x, y, z'
loop_
 _atom_site_type_symbol
 _atom_site_label
 _atom_site_symmetry_multiplicity
 _atom_site_fract_x
 _atom_site_fract_y
 _atom_site_fract_z
 _atom_site_occupancy
  Li  Li0  1  0.91809700  0.93105200  0.43388400  1
  Li  Li1  1  0.58190300  0.93105200  0.93388400  1
  Li  Li2  1  0.09670700  0.92160100  0.25267000  1
  Li  Li3  1  0.40329300  0.92160100  0.75267000  1
  Li  Li4  1  0.09338700  0.82908900  0.00255900  1
  Li  Li5  1  0.40661300  0.82908900  0.50255900  1
  Li  Li6  1  0.59619500  0.82343300  0.32920300  1
  Li  Li7  1  0.90380500  0.82343300  0.82920300  1
  Li  Li8  1  0.42916600  0.80460500  0.14294400  1
  Li  Li9  1  0.07083400  0.80460500  0.64294400  1
  Li  Li10  1  0.92916600  0.69539500  0.14294400  1
  Li  Li11  1  0.57083400  0.69539500  0.64294400  1
  Li  Li12  1  0.40380500  0.67656700  0.82920300  1
  Li  Li13  1  0.09619500  0.67656700  0.32920300  1
  Li  Li14  1  0.59338700  0.67091100  0.00255900  1
  Li  Li15  1  0.90661300  0.67091100  0.50255900  1
  Li  Li16  1  0.59670700  0.57839900  0.25267000  1
  Li  Li17  1  0.90329300  0.57839900  0.75267000  1
  Li  Li18  1  0.08190300  0.56894800  0.93388400  1
  Li  Li19  1  0.41809700  0.56894800  0.43388400  1
  Li  Li20  1  0.91809700  0.43105200  0.06611600  1
  Li  Li21  1  0.58190300  0.43105200  0.56611600  1
  Li  Li22  1  0.09670700  0.42160100  0.24733000  1
  Li  Li23  1  0.40329300  0.42160100  0.74733000  1
  Li  Li24  1  0.40661300  0.32908900  0.99744100  1
  Li  Li25  1  0.09338700  0.32908900  0.49744100  1
  Li  Li26  1  0.59619500  0.32343300  0.17079700  1
  Li  Li27  1  0.90380500  0.32343300  0.67079700  1
  Li  Li28  1  0.42916600  0.30460500  0.35705600  1
  Li  Li29  1  0.07083400  0.30460500  0.85705600  1
  Li  Li30  1  0.92916600  0.19539500  0.35705600  1
  Li  Li31  1  0.57083400  0.19539500  0.85705600  1
  Li  Li32  1  0.40380500  0.17656700  0.67079700  1
  Li  Li33  1  0.09619500  0.17656700  0.17079700  1
  Li  Li34  1  0.90661300  0.17091100  0.99744100  1
  Li  Li35  1  0.59338700  0.17091100  0.49744100  1
  Li  Li36  1  0.90329300  0.07839900  0.74733000  1
  Li  Li37  1  0.59670700  0.07839900  0.24733000  1
  Li  Li38  1  0.08190300  0.06894800  0.56611600  1
  Li  Li39  1  0.41809700  0.06894800  0.06611600  1
  Ni  Ni0  1  0.82969800  0.96042900  0.12135500  1
  Ni  Ni1  1  0.67030200  0.96042900  0.62135500  1
  Ni  Ni2  1  0.32969800  0.53957100  0.12135500  1
  Ni  Ni3  1  0.17030200  0.53957100  0.62135500  1
  Ni  Ni4  1  0.82969800  0.46042900  0.37864500  1
  Ni  Ni5  1  0.67030200  0.46042900  0.87864500  1
  Ni  Ni6  1  0.32969800  0.03957100  0.37864500  1
  Ni  Ni7  1  0.17030200  0.03957100  0.87864500  1
  O  O0  1  0.18303500  0.95268400  0.12383500  1
  O  O1  1  0.31696500  0.95268400  0.62383500  1
  O  O2  1  0.72761500  0.86395500  0.21924800  1
  O  O3  1  0.77238500  0.86395500  0.71924800  1
  O  O4  1  0.69018700  0.85430500  0.03617100  1
  O  O5  1  0.80981300  0.85430500  0.53617100  1
  O  O6  1  0.27223000  0.85171600  0.87505800  1
  O  O7  1  0.22777000  0.85171600  0.37505800  1
  O  O8  1  0.77223000  0.64828400  0.87505800  1
  O  O9  1  0.72777000  0.64828400  0.37505800  1
  O  O10  1  0.19018700  0.64569500  0.03617100  1
  O  O11  1  0.30981300  0.64569500  0.53617100  1
  O  O12  1  0.22761500  0.63604500  0.21924800  1
  O  O13  1  0.27238500  0.63604500  0.71924800  1
  O  O14  1  0.68303500  0.54731600  0.12383500  1
  O  O15  1  0.81696500  0.54731600  0.62383500  1
  O  O16  1  0.31696500  0.45268400  0.87616500  1
  O  O17  1  0.18303500  0.45268400  0.37616500  1
  O  O18  1  0.72761500  0.36395500  0.28075200  1
  O  O19  1  0.77238500  0.36395500  0.78075200  1
  O  O20  1  0.80981300  0.35430500  0.96382900  1
  O  O21  1  0.69018700  0.35430500  0.46382900  1
  O  O22  1  0.22777000  0.35171600  0.12494200  1
  O  O23  1  0.27223000  0.35171600  0.62494200  1
  O  O24  1  0.77223000  0.14828400  0.62494200  1
  O  O25  1  0.72777000  0.14828400  0.12494200  1
  O  O26  1  0.19018700  0.14569500  0.46382900  1
  O  O27  1  0.30981300  0.14569500  0.96382900  1
  O  O28  1  0.27238500  0.13604500  0.78075200  1
  O  O29  1  0.22761500  0.13604500  0.28075200  1
  O  O30  1  0.68303500  0.04731600  0.37616500  1
  O  O31  1  0.81696500  0.04731600  0.87616500  1
loop_
_geom_bond_atom_site_label_1
_geom_bond_atom_site_label_2
_geom_bond_distance
_geom_bond_site_symmetry_2
Li0 O5 1.846519 1_555
Li0 O30 1.868100 1_565
Li0 O7 1.990389 1_655
Li1 O4 1.846519 1_556
Li1 O31 1.868100 1_565
Li1 O6 1.990389 1_555
Li2 O2 2.047970 1_455
Li2 O0 2.090184 1_555
Li2 O7 2.139343 1_555
Li2 O29 2.175352 1_565
Li3 O3 2.047970 1_555
Li3 O1 2.090184 1_555
Li3 O6 2.139343 1_555
Li3 O28 2.175352 1_565
Li4 O10 1.874282 1_555
Li4 O4 2.158604 1_455
Li4 O6 2.212932 1_554
Li4 O0 2.278024 1_555
Li5 O11 1.874282 1_555
Li5 O5 2.158604 1_555
Li5 O7 2.212932 1_555
Li5 O1 2.278024 1_555
Li6 O2 1.892246 1_555
Li6 O9 1.923858 1_555
Li6 O7 2.049313 1_555
Li6 O30 2.278775 1_565
Li7 O3 1.892246 1_555
Li7 O8 1.923858 1_555
Li7 O6 2.049313 1_655
Li7 O31 2.278775 1_565
Li8 O0 1.909988 1_555
Li8 O2 2.028606 1_555
Li8 O4 2.199433 1_555
Li8 O12 2.244049 1_555
Li9 O1 1.909988 1_555
Li9 O3 2.028606 1_455
Li9 O5 2.199433 1_455
Li9 O13 2.244049 1_555
Li10 O14 1.909988 1_555
Li10 O12 2.028606 1_655
Li10 O10 2.199433 1_655
Li10 O2 2.244049 1_555
Li11 O15 1.909988 1_555
Li11 O13 2.028606 1_555
Li11 O11 2.199433 1_555
Li11 O3 2.244049 1_555
Li12 O13 1.892246 1_555
Li12 O6 1.923858 1_555
Li12 O8 2.049313 1_555
Li12 O16 2.278775 1_555
Li13 O12 1.892246 1_555
Li13 O7 1.923858 1_555
Li13 O9 2.049313 1_455
Li13 O17 2.278775 1_555
Li14 O4 1.874282 1_555
Li14 O10 2.158604 1_555
Li14 O8 2.212932 1_554
Li14 O14 2.278024 1_555
Li15 O5 1.874282 1_555
Li15 O11 2.158604 1_655
Li15 O9 2.212932 1_555
Li15 O15 2.278024 1_555
Li16 O12 2.047970 1_555
Li16 O14 2.090184 1_555
Li16 O9 2.139343 1_555
Li16 O18 2.175352 1_555
Li17 O13 2.047970 1_655
Li17 O15 2.090184 1_555
Li17 O8 2.139343 1_555
Li17 O19 2.175352 1_555
Li18 O10 1.846519 1_556
Li18 O16 1.868100 1_555
Li18 O8 1.990389 1_455
Li19 O11 1.846519 1_555
Li19 O17 1.868100 1_555
Li19 O9 1.990389 1_555
Li20 O20 1.846519 1_554
Li20 O14 1.868100 1_555
Li20 O22 1.990389 1_655
Li21 O21 1.846519 1_555
Li21 O15 1.868100 1_555
Li21 O23 1.990389 1_555
Li22 O18 2.047970 1_455
Li22 O17 2.090184 1_555
Li22 O22 2.139343 1_555
Li22 O12 2.175352 1_555
Li23 O19 2.047970 1_555
Li23 O16 2.090184 1_555
Li23 O23 2.139343 1_555
Li23 O13 2.175352 1_555
Li24 O27 1.874282 1_555
Li24 O20 2.158604 1_555
Li24 O22 2.212932 1_556
Li24 O16 2.278024 1_555
Li25 O26 1.874282 1_555
Li25 O21 2.158604 1_455
Li25 O23 2.212932 1_555
Li25 O17 2.278024 1_555
Li26 O18 1.892246 1_555
Li26 O25 1.923858 1_555
Li26 O22 2.049313 1_555
Li26 O14 2.278775 1_555
Li27 O19 1.892246 1_555
Li27 O24 1.923858 1_555
Li27 O23 2.049313 1_655
Li27 O15 2.278775 1_555
Li28 O17 1.909988 1_555
Li28 O18 2.028606 1_555
Li28 O21 2.199433 1_555
Li28 O29 2.244049 1_555
Li29 O16 1.909988 1_555
Li29 O19 2.028606 1_455
Li29 O20 2.199433 1_455
Li29 O28 2.244049 1_555
Li30 O30 1.909988 1_555
Li30 O29 2.028606 1_655
Li30 O26 2.199433 1_655
Li30 O18 2.244049 1_555
Li31 O31 1.909988 1_555
Li31 O28 2.028606 1_555
Li31 O27 2.199433 1_555
Li31 O19 2.244049 1_555
Li32 O28 1.892246 1_555
Li32 O23 1.923858 1_555
Li32 O24 2.049313 1_555
Li32 O1 2.278775 1_545
Li33 O29 1.892246 1_555
Li33 O22 1.923858 1_555
Li33 O25 2.049313 1_455
Li33 O0 2.278775 1_545
Li34 O20 1.874282 1_555
Li34 O27 2.158604 1_655
Li34 O25 2.212932 1_556
Li34 O31 2.278024 1_555
Li35 O21 1.874282 1_555
Li35 O26 2.158604 1_555
Li35 O24 2.212932 1_555
Li35 O30 2.278024 1_555
Li36 O28 2.047970 1_655
Li36 O31 2.090184 1_555
Li36 O24 2.139343 1_555
Li36 O3 2.175352 1_545
Li37 O29 2.047970 1_555
Li37 O30 2.090184 1_555
Li37 O25 2.139343 1_555
Li37 O2 2.175352 1_545
Li38 O26 1.846519 1_555
Li38 O1 1.868100 1_545
Li38 O24 1.990389 1_455
Li39 O27 1.846519 1_554
Li39 O0 1.868100 1_545
Li39 O25 1.990389 1_555
Ni0 O4 1.817503 1_555
Ni0 O0 1.824370 1_655
Ni0 O25 1.847212 1_565
Ni0 O2 1.860591 1_555
Ni1 O5 1.817503 1_555
Ni1 O1 1.824370 1_555
Ni1 O24 1.847212 1_565
Ni1 O3 1.860591 1_555
Ni2 O10 1.817503 1_555
Ni2 O14 1.824370 1_555
Ni2 O22 1.847212 1_555
Ni2 O12 1.860591 1_555
Ni3 O11 1.817503 1_555
Ni3 O15 1.824370 1_455
Ni3 O23 1.847212 1_555
Ni3 O13 1.860591 1_555
Ni4 O21 1.817503 1_555
Ni4 O17 1.824370 1_655
Ni4 O9 1.847212 1_555
Ni4 O18 1.860591 1_555
Ni5 O20 1.817503 1_555
Ni5 O16 1.824370 1_555
Ni5 O8 1.847212 1_555
Ni5 O19 1.860591 1_555
Ni6 O26 1.817503 1_555
Ni6 O30 1.824370 1_555
Ni6 O7 1.847212 1_545
Ni6 O29 1.860591 1_555
Ni7 O27 1.817503 1_555
Ni7 O31 1.824370 1_455
Ni7 O6 1.847212 1_545
Ni7 O28 1.860591 1_555
