# generated using pymatgen
data_Li2Co3NiO8
_symmetry_space_group_name_H-M   'P 1'
_cell_length_a   5.71120593
_cell_length_b   5.71120593
_cell_length_c   5.71120570
_cell_angle_alpha   59.77463428
_cell_angle_beta   59.77463428
_cell_angle_gamma   59.77463152
_symmetry_Int_Tables_number   1
_chemical_formula_structural   Li2Co3NiO8
_chemical_formula_sum   'Li2 Co3 Ni1 O8'
_cell_volume   131.05105852
_cell_formula_units_Z   1
loop_
 _symmetry_equiv_pos_site_id
 _symmetry_equiv_pos_as_xyz
  1  'x, y, z'
loop_
 _atom_site_type_symbol
 _atom_site_label
 _atom_site_symmetry_multiplicity
 _atom_site_fract_x
 _atom_site_fract_y
 _atom_site_fract_z
 _atom_site_occupancy
  Li  Li0  1  0.87616400  0.87616400  0.87616400  1
  Li  Li1  1  0.50183600  0.50183600  0.50183600  1
  Co  Co0  1  0.50082800  0.50082800  0.98958900  1
  Co  Co1  1  0.50082800  0.98958900  0.50082800  1
  Co  Co2  1  0.98958900  0.50082800  0.50082800  1
  Ni  Ni0  1  0.11862000  0.11862000  0.11862000  1
  O  O0  1  0.73599600  0.73599600  0.73599600  1
  O  O1  1  0.28547600  0.75475800  0.75475800  1
  O  O2  1  0.75475800  0.28547600  0.75475800  1
  O  O3  1  0.75475800  0.75475800  0.28547600  1
  O  O4  1  0.25391300  0.25391300  0.71609300  1
  O  O5  1  0.25391300  0.71609300  0.25391300  1
  O  O6  1  0.71609300  0.25391300  0.25391300  1
  O  O7  1  0.25722700  0.25722700  0.25722700  1
loop_
_geom_bond_atom_site_label_1
_geom_bond_atom_site_label_2
_geom_bond_distance
_geom_bond_site_symmetry_2
Li0 O3 1.909565 1_556
Li0 O1 1.909565 1_655
Li0 O2 1.909565 1_565
Li0 O0 1.964219 1_555
Li1 O6 2.009179 1_555
Li1 O5 2.009179 1_555
Li1 O4 2.009179 1_555
Li1 O2 2.051002 1_555
Li1 O1 2.051002 1_555
Li1 O3 2.051002 1_555
Co0 O1 1.822448 1_555
Co0 O2 1.822448 1_555
Co0 O0 1.898597 1_555
Co0 O5 1.938755 1_556
Co0 O6 1.938755 1_556
Co0 O7 1.968314 1_556
Co1 O3 1.822448 1_555
Co1 O1 1.822448 1_555
Co1 O0 1.898597 1_555
Co1 O4 1.938755 1_565
Co1 O6 1.938755 1_565
Co1 O7 1.968313 1_565
Co2 O3 1.822448 1_555
Co2 O2 1.822448 1_555
Co2 O0 1.898597 1_555
Co2 O4 1.938755 1_655
Co2 O5 1.938755 1_655
Co2 O7 1.968313 1_655
Ni0 O4 1.871723 1_554
Ni0 O5 1.871723 1_545
Ni0 O6 1.871723 1_455
Ni0 O7 1.942344 1_555
