# generated using pymatgen
data_Li5Mn17(SiO16)2
_symmetry_space_group_name_H-M   'P 1'
_cell_length_a   8.63365284
_cell_length_b   8.42886272
_cell_length_c   8.34877170
_cell_angle_alpha   90.63866292
_cell_angle_beta   90.04809229
_cell_angle_gamma   90.34428479
_symmetry_Int_Tables_number   1
_chemical_formula_structural   Li5Mn17(SiO16)2
_chemical_formula_sum   'Li5 Mn17 Si2 O32'
_cell_volume   607.50680591
_cell_formula_units_Z   1
loop_
 _symmetry_equiv_pos_site_id
 _symmetry_equiv_pos_as_xyz
  1  'x, y, z'
loop_
 _atom_site_type_symbol
 _atom_site_label
 _atom_site_symmetry_multiplicity
 _atom_site_fract_x
 _atom_site_fract_y
 _atom_site_fract_z
 _atom_site_occupancy
  Li  Li0  1  0.00000800  0.50149500  0.50507600  1
  Li  Li1  1  0.49201600  0.49826000  0.99357300  1
  Li  Li2  1  0.49813300  0.01169800  0.50301000  1
  Li  Li3  1  0.75641800  0.24612100  0.75393500  1
  Li  Li4  1  0.00208400  0.00676000  0.99766100  1
  Mn  Mn0  1  0.12875900  0.87389400  0.37876600  1
  Mn  Mn1  1  0.13649100  0.62197400  0.11605100  1
  Mn  Mn2  1  0.24798500  0.74776000  0.74211900  1
  Mn  Mn3  1  0.24245500  0.24822600  0.25144500  1
  Mn  Mn4  1  0.37569600  0.36330800  0.62403200  1
  Mn  Mn5  1  0.36456300  0.12162200  0.87367900  1
  Mn  Mn6  1  0.37528600  0.62627500  0.37429800  1
  Mn  Mn7  1  0.36650600  0.87687800  0.12564200  1
  Mn  Mn8  1  0.62725200  0.37041100  0.37543200  1
  Mn  Mn9  1  0.62657900  0.12607900  0.12611500  1
  Mn  Mn10  1  0.62624200  0.62157300  0.62674800  1
  Mn  Mn11  1  0.62618100  0.87808700  0.87345800  1
  Mn  Mn12  1  0.75426500  0.74623200  0.24987100  1
  Mn  Mn13  1  0.87797000  0.13568200  0.38208400  1
  Mn  Mn14  1  0.87521600  0.37561200  0.12291700  1
  Mn  Mn15  1  0.87790200  0.87850000  0.63397400  1
  Mn  Mn16  1  0.88166400  0.62327400  0.86884000  1
  Si  Si0  1  0.11335000  0.13205100  0.63661700  1
  Si  Si1  1  0.12068000  0.37018200  0.86417500  1
  O  O0  1  0.10745700  0.12595300  0.41450000  1
  O  O1  1  0.13040700  0.57834200  0.86075300  1
  O  O2  1  0.13474500  0.38743000  0.08462300  1
  O  O3  1  0.15180600  0.63349100  0.37694700  1
  O  O4  1  0.10766400  0.91457900  0.63438200  1
  O  O5  1  0.11239200  0.15510500  0.85295100  1
  O  O6  1  0.11584500  0.34518700  0.64651700  1
  O  O7  1  0.14494300  0.85577400  0.12459100  1
  O  O8  1  0.32596100  0.12542900  0.63661000  1
  O  O9  1  0.36707400  0.64646100  0.13596700  1
  O  O10  1  0.35382100  0.88569300  0.35579400  1
  O  O11  1  0.36976000  0.10237800  0.11000100  1
  O  O12  1  0.34026300  0.35579400  0.85642000  1
  O  O13  1  0.39125700  0.60745800  0.60880900  1
  O  O14  1  0.40080300  0.36345100  0.39271200  1
  O  O15  1  0.37283200  0.89005800  0.89380500  1
  O  O16  1  0.62238000  0.37327900  0.60341300  1
  O  O17  1  0.60209800  0.88680400  0.11956500  1
  O  O18  1  0.61799100  0.10897500  0.89440600  1
  O  O19  1  0.65453500  0.88313100  0.63761900  1
  O  O20  1  0.60737100  0.60756600  0.38611100  1
  O  O21  1  0.62201500  0.35892400  0.14181500  1
  O  O22  1  0.64545700  0.14131800  0.36396100  1
  O  O23  1  0.62282000  0.64466100  0.85511900  1
  O  O24  1  0.84940000  0.38960600  0.35638400  1
  O  O25  1  0.87953700  0.85561200  0.86283400  1
  O  O26  1  0.86181400  0.64625800  0.63569400  1
  O  O27  1  0.90823500  0.38592900  0.88580900  1
  O  O28  1  0.88257900  0.14479000  0.14948300  1
  O  O29  1  0.90170100  0.87205600  0.39718900  1
  O  O30  1  0.90177100  0.11285000  0.61967900  1
  O  O31  1  0.89956900  0.61379100  0.10610700  1
loop_
_geom_bond_atom_site_label_1
_geom_bond_atom_site_label_2
_geom_bond_distance
_geom_bond_site_symmetry_2
Li0 O24 2.019337 1_455
Li0 O26 2.022770 1_455
Li0 O3 2.027581 1_555
Li0 O6 2.044250 1_555
Li1 O9 2.030405 1_556
Li1 O23 2.037521 1_555
Li1 O21 2.053457 1_556
Li1 O12 2.101819 1_555
Li2 O10 2.035540 1_545
Li2 O22 2.042846 1_555
Li2 O19 2.074337 1_545
Li2 O8 2.090153 1_555
Li3 O30 2.020962 1_555
Li3 O16 2.027232 1_555
Li3 O18 2.038621 1_555
Li3 O27 2.066148 1_555
Li4 O5 1.987804 1_555
Li4 O25 1.989827 1_445
Li4 O28 2.002122 1_456
Li4 O7 2.076197 1_546
Mn0 O10 1.954755 1_555
Mn0 O29 1.966475 1_455
Mn0 O3 2.037149 1_555
Mn0 O7 2.130604 1_555
Mn0 O0 2.151113 1_565
Mn0 O4 2.165676 1_555
Mn1 O7 1.972073 1_555
Mn1 O2 1.991340 1_555
Mn1 O9 2.006780 1_555
Mn1 O31 2.047833 1_455
Mn1 O1 2.159419 1_554
Mn1 O3 2.183104 1_555
Mn2 O1 2.016546 1_555
Mn2 O15 2.037764 1_555
Mn2 O13 2.039079 1_555
Mn2 O4 2.073808 1_555
Mn3 O11 2.024805 1_555
Mn3 O14 2.039382 1_555
Mn3 O2 2.056362 1_555
Mn3 O0 2.072028 1_555
Mn4 O14 1.943559 1_555
Mn4 O12 1.966036 1_555
Mn4 O8 2.051841 1_555
Mn4 O13 2.066814 1_555
Mn4 O16 2.138098 1_555
Mn4 O6 2.255865 1_555
Mn5 O15 1.962626 1_545
Mn5 O11 1.981948 1_556
Mn5 O12 1.992974 1_555
Mn5 O8 2.007464 1_555
Mn5 O18 2.198015 1_555
Mn5 O5 2.203962 1_555
Mn6 O3 1.930910 1_555
Mn6 O13 1.970835 1_555
Mn6 O9 2.000155 1_555
Mn6 O20 2.013302 1_555
Mn6 O10 2.202675 1_555
Mn6 O14 2.234537 1_555
Mn7 O11 1.906681 1_565
Mn7 O7 1.920090 1_555
Mn7 O10 1.925329 1_555
Mn7 O15 1.940771 1_554
Mn7 O9 1.945060 1_555
Mn7 O17 2.035935 1_555
Mn8 O16 1.903749 1_555
Mn8 O24 1.930635 1_555
Mn8 O22 1.939629 1_555
Mn8 O21 1.952211 1_555
Mn8 O14 1.961093 1_555
Mn8 O20 2.008327 1_555
Mn9 O18 1.939569 1_554
Mn9 O21 1.966166 1_555
Mn9 O22 1.994912 1_555
Mn9 O17 2.026724 1_545
Mn9 O28 2.223148 1_555
Mn9 O11 2.228888 1_555
Mn10 O23 1.914635 1_555
Mn10 O20 2.017570 1_555
Mn10 O13 2.036841 1_555
Mn10 O26 2.044435 1_555
Mn10 O16 2.099783 1_555
Mn10 O19 2.217512 1_555
Mn11 O18 1.953732 1_565
Mn11 O23 1.971799 1_555
Mn11 O19 1.985223 1_555
Mn11 O17 2.065895 1_556
Mn11 O15 2.196892 1_555
Mn11 O25 2.198488 1_555
Mn12 O29 2.051794 1_555
Mn12 O31 2.061568 1_555
Mn12 O20 2.069421 1_555
Mn12 O17 2.087682 1_555
Mn13 O28 1.944735 1_555
Mn13 O0 2.001776 1_655
Mn13 O30 2.005577 1_555
Mn13 O22 2.013889 1_555
Mn13 O24 2.168921 1_555
Mn13 O29 2.237664 1_545
Mn14 O28 1.962026 1_555
Mn14 O24 1.964369 1_555
Mn14 O27 2.002992 1_554
Mn14 O31 2.023742 1_555
Mn14 O21 2.195648 1_555
Mn14 O2 2.265398 1_655
Mn15 O25 1.922601 1_555
Mn15 O19 1.929361 1_555
Mn15 O26 1.961838 1_555
Mn15 O29 1.987859 1_555
Mn15 O30 1.989709 1_565
Mn15 O4 2.005047 1_655
Mn16 O25 1.959742 1_555
Mn16 O26 1.965691 1_555
Mn16 O31 1.989313 1_556
Mn16 O27 2.021551 1_555
Mn16 O1 2.183909 1_655
Mn16 O23 2.246038 1_555
O0 Si0 1.855190 1_555
O1 Si1 1.756608 1_555
O2 Si1 1.848421 1_554
O4 Si0 1.833291 1_565
O5 Si0 1.814423 1_555
O5 Si1 1.815209 1_555
O6 Si0 1.797473 1_555
O6 Si1 1.827428 1_555
O8 Si0 1.836793 1_555
O12 Si1 1.901516 1_555
O27 Si1 1.848618 1_655
O30 Si0 1.838076 1_655
