# generated using pymatgen
data_Mn3OF5
_symmetry_space_group_name_H-M   'P 1'
_cell_length_a   5.89765112
_cell_length_b   5.89765112
_cell_length_c   7.35380962
_cell_angle_alpha   74.12782447
_cell_angle_beta   74.12782447
_cell_angle_gamma   73.15757183
_symmetry_Int_Tables_number   1
_chemical_formula_structural   Mn3OF5
_chemical_formula_sum   'Mn6 O2 F10'
_cell_volume   230.17545910
_cell_formula_units_Z   2
loop_
 _symmetry_equiv_pos_site_id
 _symmetry_equiv_pos_as_xyz
  1  'x, y, z'
loop_
 _atom_site_type_symbol
 _atom_site_label
 _atom_site_symmetry_multiplicity
 _atom_site_fract_x
 _atom_site_fract_y
 _atom_site_fract_z
 _atom_site_occupancy
  Mn  Mn0  1  0.33704100  0.33704100  0.16679400  1
  Mn  Mn1  1  0.00000000  0.00000000  0.00000000  1
  Mn  Mn2  1  0.31212500  0.31212500  0.65277600  1
  Mn  Mn3  1  0.00000000  0.00000000  0.50000000  1
  Mn  Mn4  1  0.66295900  0.66295900  0.83320600  1
  Mn  Mn5  1  0.68787500  0.68787500  0.34722400  1
  O  O0  1  0.91837900  0.91837900  0.28596300  1
  O  O1  1  0.08162100  0.08162100  0.71403700  1
  F  F0  1  0.29754500  0.70245500  0.00000000  1
  F  F1  1  0.63770900  0.02108000  0.65224000  1
  F  F2  1  0.54616700  0.54616700  0.64157800  1
  F  F3  1  0.22824800  0.22824800  0.96357100  1
  F  F4  1  0.77175200  0.77175200  0.03642900  1
  F  F5  1  0.45383300  0.45383300  0.35842200  1
  F  F6  1  0.02108000  0.63770900  0.65224000  1
  F  F7  1  0.70245500  0.29754500  0.00000000  1
  F  F8  1  0.36229100  0.97892000  0.34776000  1
  F  F9  1  0.97892000  0.36229100  0.34776000  1
loop_
_geom_bond_atom_site_label_1
_geom_bond_atom_site_label_2
_geom_bond_distance
_geom_bond_site_symmetry_2
Mn1 O0 1.978021 1_445
Mn1 O1 1.978021 1_554
Mn2 O1 2.073645 1_555
Mn3 O1 1.975860 1_555
Mn3 O0 1.975860 1_445
Mn5 O0 2.073645 1_555
F0 Mn1 2.091487 1_565
F0 Mn0 2.150030 1_555
F0 Mn4 2.150030 1_554
F1 Mn3 2.109014 1_655
F1 Mn4 2.154703 1_545
F1 Mn2 2.173255 1_555
F2 Mn4 2.066764 1_555
F2 Mn5 2.123255 1_555
F2 Mn2 2.190188 1_555
F3 Mn0 2.084305 1_556
F3 Mn1 2.086009 1_556
F3 Mn2 2.148955 1_555
F4 Mn4 2.084305 1_554
F4 Mn1 2.086009 1_665
F4 Mn5 2.148955 1_555
F5 Mn0 2.066764 1_555
F5 Mn2 2.123255 1_555
F5 Mn5 2.190188 1_555
F6 Mn3 2.109014 1_565
F6 Mn4 2.154703 1_455
F6 Mn2 2.173255 1_555
F7 Mn1 2.091487 1_655
F7 Mn0 2.150030 1_555
F7 Mn4 2.150030 1_554
F8 Mn3 2.109014 1_565
F8 Mn0 2.154703 1_565
F8 Mn5 2.173255 1_555
F9 Mn3 2.109014 1_655
F9 Mn0 2.154703 1_655
F9 Mn5 2.173255 1_555
