# generated using pymatgen
data_Li3V2(CO3)4
_symmetry_space_group_name_H-M   'P 1'
_cell_length_a   5.34934603
_cell_length_b   6.49228233
_cell_length_c   8.53285609
_cell_angle_alpha   83.95106952
_cell_angle_beta   72.87091469
_cell_angle_gamma   66.36959190
_symmetry_Int_Tables_number   1
_chemical_formula_structural   Li3V2(CO3)4
_chemical_formula_sum   'Li3 V2 C4 O12'
_cell_volume   259.42366053
_cell_formula_units_Z   1
loop_
 _symmetry_equiv_pos_site_id
 _symmetry_equiv_pos_as_xyz
  1  'x, y, z'
loop_
 _atom_site_type_symbol
 _atom_site_label
 _atom_site_symmetry_multiplicity
 _atom_site_fract_x
 _atom_site_fract_y
 _atom_site_fract_z
 _atom_site_occupancy
  Li  Li0  1  0.25380100  0.53019500  0.15229400  1
  Li  Li1  1  0.15369300  0.06160900  0.32565500  1
  Li  Li2  1  0.53982500  0.93285000  0.69003600  1
  V  V0  1  0.88198000  0.99558600  0.99771700  1
  V  V1  1  0.63709100  0.50545300  0.50906600  1
  C  C0  1  0.73653700  0.39964700  0.20791600  1
  C  C1  1  0.72875100  0.88505700  0.30541000  1
  C  C2  1  0.91684600  0.11733300  0.69923300  1
  C  C3  1  0.33851900  0.60569400  0.79291100  1
  O  O0  1  0.74925600  0.33868000  0.06904700  1
  O  O1  1  0.98024800  0.88885100  0.24568600  1
  O  O2  1  0.56141400  0.94922100  0.21181400  1
  O  O3  1  0.95184800  0.39576900  0.25502300  1
  O  O4  1  0.49069000  0.47169100  0.32160000  1
  O  O5  1  0.64720500  0.81738500  0.45479500  1
  O  O6  1  0.90977200  0.19557000  0.55022500  1
  O  O7  1  0.59444500  0.60652000  0.74827100  1
  O  O8  1  0.26239100  0.55973500  0.67238100  1
  O  O9  1  0.70151900  0.07967200  0.79410500  1
  O  O10  1  0.13167300  0.07397600  0.75294400  1
  O  O11  1  0.17591500  0.64996200  0.93936100  1
loop_
_geom_bond_atom_site_label_1
_geom_bond_atom_site_label_2
_geom_bond_distance
_geom_bond_site_symmetry_2
Li0 O11 1.991950 1_554
Li0 O3 2.067345 1_455
Li0 O4 2.100948 1_555
Li0 O1 2.273953 1_455
Li0 O0 2.347406 1_555
Li1 O2 1.964317 1_545
Li1 O1 1.988194 1_445
Li1 O6 2.024730 1_455
Li1 O3 2.113178 1_455
Li2 O10 1.924632 1_565
Li2 O9 1.933163 1_565
Li2 O7 2.046524 1_555
Li2 O5 2.052757 1_555
C0 O0 1.263001 1_555
C0 O3 1.317617 1_555
C0 O4 1.319219 1_555
C1 O2 1.290233 1_555
C1 O1 1.300126 1_555
C1 O5 1.310038 1_555
C2 O10 1.278137 1_655
C2 O9 1.294872 1_555
C2 O6 1.323961 1_555
C3 O11 1.278981 1_555
C3 O7 1.310595 1_555
C3 O8 1.312024 1_555
O0 V0 2.144642 1_544
O1 V0 2.299483 1_554
O2 V0 2.195723 1_554
O3 V1 2.292428 1_555
O4 V1 2.041958 1_555
O5 V1 2.047935 1_555
O6 V1 2.024559 1_555
O7 V1 2.129943 1_555
O8 V1 1.993903 1_555
O9 V0 2.148029 1_545
O10 V0 2.254555 1_445
O11 V0 2.168210 1_455
