# generated using pymatgen
data_Na3MnBSO7
_symmetry_space_group_name_H-M   'P 1'
_cell_length_a   5.32009649
_cell_length_b   9.12021403
_cell_length_c   13.90067501
_cell_angle_alpha   89.99933457
_cell_angle_beta   90.00301095
_cell_angle_gamma   89.42379555
_symmetry_Int_Tables_number   1
_chemical_formula_structural   Na3MnBSO7
_chemical_formula_sum   'Na12 Mn4 B4 S4 O28'
_cell_volume   674.43246313
_cell_formula_units_Z   4
loop_
 _symmetry_equiv_pos_site_id
 _symmetry_equiv_pos_as_xyz
  1  'x, y, z'
loop_
 _atom_site_type_symbol
 _atom_site_label
 _atom_site_symmetry_multiplicity
 _atom_site_fract_x
 _atom_site_fract_y
 _atom_site_fract_z
 _atom_site_occupancy
  Na  Na0  1  0.74556900  0.06292500  0.12499200  1
  Na  Na1  1  0.74557700  0.06296100  0.62500800  1
  Na  Na2  1  0.25445000  0.93706300  0.37499700  1
  Na  Na3  1  0.25445600  0.93705500  0.87499600  1
  Na  Na4  1  0.24389800  0.23181000  0.49529100  1
  Na  Na5  1  0.24405900  0.23179100  0.99530000  1
  Na  Na6  1  0.24390000  0.23181900  0.25470700  1
  Na  Na7  1  0.24399800  0.23176700  0.75470200  1
  Na  Na8  1  0.75616100  0.76817800  0.24528100  1
  Na  Na9  1  0.75600200  0.76824900  0.74529800  1
  Na  Na10  1  0.75615100  0.76820900  0.00471400  1
  Na  Na11  1  0.75597200  0.76822900  0.50470700  1
  Mn  Mn0  1  0.76559300  0.33883000  0.87503900  1
  Mn  Mn1  1  0.23411900  0.66110700  0.62497200  1
  Mn  Mn2  1  0.76532700  0.33897200  0.37498400  1
  Mn  Mn3  1  0.23471700  0.66112700  0.12495800  1
  B  B0  1  0.73593100  0.06298700  0.37499800  1
  B  B1  1  0.73600500  0.06301000  0.87500500  1
  B  B2  1  0.26405200  0.93697500  0.12500700  1
  B  B3  1  0.26400700  0.93699500  0.62500200  1
  S  S0  1  0.70848500  0.41861000  0.12499400  1
  S  S1  1  0.70839200  0.41863100  0.62500200  1
  S  S2  1  0.29153500  0.58135800  0.37501000  1
  S  S3  1  0.29164400  0.58137400  0.87499800  1
  O  O0  1  0.28641400  0.08598200  0.12500600  1
  O  O1  1  0.28646900  0.08599400  0.62500400  1
  O  O2  1  0.71354100  0.91398000  0.37499400  1
  O  O3  1  0.71351600  0.91401300  0.87500700  1
  O  O4  1  0.96839100  0.13482800  0.37500000  1
  O  O5  1  0.96853700  0.13478400  0.87501000  1
  O  O6  1  0.03158700  0.86512800  0.12500200  1
  O  O7  1  0.03147000  0.86523300  0.62499900  1
  O  O8  1  0.52412200  0.15747200  0.37499300  1
  O  O9  1  0.52426600  0.15751500  0.87500400  1
  O  O10  1  0.47593100  0.84254200  0.12500600  1
  O  O11  1  0.47570300  0.84247900  0.62500300  1
  O  O12  1  0.42904400  0.44491000  0.12501400  1
  O  O13  1  0.42897800  0.44492800  0.62500900  1
  O  O14  1  0.57095300  0.55505600  0.37498700  1
  O  O15  1  0.57105000  0.55509900  0.87499500  1
  O  O16  1  0.16233000  0.43672000  0.37500100  1
  O  O17  1  0.16249000  0.43671800  0.87501600  1
  O  O18  1  0.83761900  0.56327700  0.12500200  1
  O  O19  1  0.83753400  0.56329600  0.62498900  1
  O  O20  1  0.78054400  0.33084300  0.03857600  1
  O  O21  1  0.78048300  0.33087300  0.53857300  1
  O  O22  1  0.78063800  0.33083600  0.21140800  1
  O  O23  1  0.78060900  0.33083400  0.71139500  1
  O  O24  1  0.21938100  0.66914700  0.28859000  1
  O  O25  1  0.21939900  0.66917600  0.78861000  1
  O  O26  1  0.21946800  0.66915600  0.46141700  1
  O  O27  1  0.21953100  0.66914300  0.96142500  1
loop_
_geom_bond_atom_site_label_1
_geom_bond_atom_site_label_2
_geom_bond_distance
_geom_bond_site_symmetry_2
Na0 O6 2.348282 1_645
Na0 O0 2.449676 1_555
Na0 O10 2.481056 1_545
Na0 O22 2.730793 1_555
Na0 O20 2.730796 1_555
Na0 O0 2.887130 1_655
Na1 O7 2.347377 1_645
Na1 O1 2.449410 1_555
Na1 O11 2.482529 1_545
Na1 O23 2.730291 1_555
Na1 O21 2.730834 1_555
Na1 O1 2.887361 1_655
Na2 O4 2.348199 1_465
Na2 O2 2.449354 1_555
Na2 O8 2.481356 1_565
Na2 O26 2.730733 1_555
Na2 O24 2.730779 1_555
Na2 O2 2.887489 1_455
Na3 O5 2.347472 1_465
Na3 O3 2.449162 1_555
Na3 O9 2.482166 1_565
Na3 O25 2.730344 1_555
Na3 O27 2.730806 1_555
Na3 O3 2.887623 1_455
Na4 O1 2.250525 1_555
Na4 O8 2.336340 1_555
Na4 O4 2.398445 1_455
Na4 O16 2.541714 1_555
Na4 O21 2.685494 1_455
Na4 O13 2.835000 1_555
Na5 O0 2.250301 1_556
Na5 O9 2.336102 1_555
Na5 O5 2.398570 1_455
Na5 O17 2.541774 1_555
Na5 O20 2.685929 1_456
Na5 O12 2.834792 1_556
Na6 O0 2.250520 1_555
Na6 O8 2.336114 1_555
Na6 O4 2.398595 1_455
Na6 O16 2.541751 1_555
Na6 O22 2.684602 1_455
Na6 O12 2.834767 1_555
Na7 O1 2.250120 1_555
Na7 O9 2.336183 1_555
Na7 O5 2.398556 1_455
Na7 O17 2.542214 1_555
Na7 O23 2.685394 1_455
Na7 O13 2.834898 1_555
Na8 O2 2.250518 1_555
Na8 O10 2.336076 1_555
Na8 O6 2.398047 1_655
Na8 O18 2.541516 1_555
Na8 O24 2.684471 1_655
Na8 O14 2.835197 1_555
Na9 O3 2.250202 1_555
Na9 O11 2.336161 1_555
Na9 O7 2.398495 1_655
Na9 O19 2.542203 1_555
Na9 O25 2.685467 1_655
Na9 O15 2.834811 1_555
Na10 O3 2.250426 1_554
Na10 O10 2.336254 1_555
Na10 O6 2.397968 1_655
Na10 O18 2.541756 1_555
Na10 O27 2.685354 1_654
Na10 O15 2.834998 1_554
Na11 O2 2.250105 1_555
Na11 O11 2.336245 1_555
Na11 O7 2.398500 1_655
Na11 O19 2.541790 1_555
Na11 O26 2.685943 1_655
Na11 O14 2.835248 1_555
Mn0 O9 2.103700 1_555
Mn0 O5 2.142058 1_555
Mn0 O15 2.218238 1_555
Mn0 O20 2.275801 1_556
Mn0 O23 2.277312 1_555
Mn0 O17 2.300760 1_655
Mn1 O11 2.104957 1_555
Mn1 O7 2.141911 1_555
Mn1 O13 2.218282 1_555
Mn1 O26 2.276015 1_555
Mn1 O25 2.277195 1_555
Mn1 O19 2.298951 1_455
Mn2 O8 2.104636 1_555
Mn2 O4 2.143146 1_555
Mn2 O14 2.216334 1_555
Mn2 O22 2.276463 1_555
Mn2 O21 2.276594 1_555
Mn2 O16 2.300773 1_655
Mn3 O10 2.104051 1_555
Mn3 O6 2.142194 1_555
Mn3 O12 2.217293 1_555
Mn3 O27 2.275798 1_554
Mn3 O24 2.277212 1_555
Mn3 O18 2.301608 1_455
B0 O2 1.365379 1_545
B0 O4 1.405362 1_555
B0 O8 1.411671 1_555
B1 O3 1.365339 1_545
B1 O5 1.405411 1_555
B1 O9 1.411486 1_555
B2 O0 1.365364 1_565
B2 O6 1.405411 1_555
B2 O10 1.411680 1_555
B3 O1 1.365344 1_565
B3 O7 1.405382 1_555
B3 O11 1.411365 1_555
O12 S0 1.503496 1_555
O13 S1 1.503350 1_555
O14 S2 1.503378 1_555
O15 S3 1.503278 1_555
O16 S2 1.493598 1_555
O17 S3 1.493617 1_555
O18 S0 1.493656 1_555
O19 S1 1.493660 1_555
O20 S0 1.491522 1_555
O21 S1 1.491644 1_555
O22 S0 1.491589 1_555
O23 S1 1.491552 1_555
O24 S2 1.491731 1_555
O25 S3 1.491558 1_555
O26 S2 1.491560 1_555
O27 S3 1.491704 1_555
