# generated using pymatgen
data_Hf3N4
_symmetry_space_group_name_H-M   'P 1'
_cell_length_a   9.75732786
_cell_length_b   10.65892137
_cell_length_c   3.22583835
_cell_angle_alpha   90.00000000
_cell_angle_beta   90.00000000
_cell_angle_gamma   90.00000000
_symmetry_Int_Tables_number   1
_chemical_formula_structural   Hf3N4
_chemical_formula_sum   'Hf12 N16'
_cell_volume   335.49554474
_cell_formula_units_Z   4
loop_
 _symmetry_equiv_pos_site_id
 _symmetry_equiv_pos_as_xyz
  1  'x, y, z'
loop_
 _atom_site_type_symbol
 _atom_site_label
 _atom_site_symmetry_multiplicity
 _atom_site_fract_x
 _atom_site_fract_y
 _atom_site_fract_z
 _atom_site_occupancy
  Hf  Hf0  1  0.06941974  0.12467310  0.75299057  1
  Hf  Hf1  1  0.10602315  0.59322620  0.75303017  1
  Hf  Hf2  1  0.22710293  0.85344600  0.75299914  1
  Hf  Hf3  1  0.27289707  0.35344600  0.25299914  1
  Hf  Hf4  1  0.39397685  0.09322620  0.25303017  1
  Hf  Hf5  1  0.43058026  0.62467310  0.25299057  1
  Hf  Hf6  1  0.56941974  0.37532690  0.75299057  1
  Hf  Hf7  1  0.60602315  0.90677380  0.75303017  1
  Hf  Hf8  1  0.72710293  0.64655400  0.75299914  1
  Hf  Hf9  1  0.77289707  0.14655400  0.25299914  1
  Hf  Hf10  1  0.89397685  0.40677380  0.25303017  1
  Hf  Hf11  1  0.93058026  0.87532690  0.25299057  1
  N  N0  1  0.00854063  0.77539126  0.75298815  1
  N  N1  1  0.10346002  0.47032329  0.25302597  1
  N  N2  1  0.14119650  0.98206525  0.25298675  1
  N  N3  1  0.23856265  0.71479866  0.25298126  1
  N  N4  1  0.26143735  0.21479866  0.75298126  1
  N  N5  1  0.35880350  0.48206525  0.75298675  1
  N  N6  1  0.39653998  0.97032329  0.75302597  1
  N  N7  1  0.49145937  0.27539126  0.25298815  1
  N  N8  1  0.50854063  0.72460874  0.75298815  1
  N  N9  1  0.60346002  0.02967671  0.25302597  1
  N  N10  1  0.64119650  0.51793475  0.25298675  1
  N  N11  1  0.73856265  0.78520134  0.25298126  1
  N  N12  1  0.76143735  0.28520134  0.75298126  1
  N  N13  1  0.85880350  0.01793475  0.75298675  1
  N  N14  1  0.89653998  0.52967671  0.75302597  1
  N  N15  1  0.99145937  0.22460874  0.25298815  1
loop_
_geom_bond_atom_site_label_1
_geom_bond_atom_site_label_2
_geom_bond_distance
_geom_bond_site_symmetry_2
Hf0 N15 2.077207 1_456
Hf0 N15 2.077219 1_455
Hf0 N4 2.105500 1_555
Hf0 N2 2.324327 1_546
Hf0 N2 2.324344 1_545
Hf0 N13 2.348965 1_455
Hf1 N1 2.078033 1_556
Hf1 N1 2.078054 1_555
Hf1 N14 2.153311 1_455
Hf1 N0 2.162141 1_555
Hf1 N3 2.439800 1_556
Hf1 N3 2.440009 1_555
Hf1 N5 2.736295 1_555
Hf2 N6 2.070079 1_555
Hf2 N3 2.190390 1_556
Hf2 N3 2.190475 1_555
Hf2 N2 2.276724 1_556
Hf2 N2 2.276780 1_555
Hf2 N0 2.289127 1_555
Hf3 N1 2.070079 1_555
Hf3 N4 2.190390 1_555
Hf3 N4 2.190475 1_554
Hf3 N5 2.276724 1_555
Hf3 N5 2.276780 1_554
Hf3 N7 2.289127 1_555
Hf4 N6 2.078033 1_545
Hf4 N6 2.078054 1_544
Hf4 N9 2.153311 1_555
Hf4 N7 2.162141 1_555
Hf4 N4 2.439800 1_555
Hf4 N4 2.440009 1_554
Hf4 N2 2.736295 1_545
Hf5 N8 2.077207 1_555
Hf5 N8 2.077219 1_554
Hf5 N3 2.105500 1_555
Hf5 N5 2.324327 1_555
Hf5 N5 2.324344 1_554
Hf5 N10 2.348965 1_555
Hf6 N7 2.077207 1_556
Hf6 N7 2.077219 1_555
Hf6 N12 2.105500 1_555
Hf6 N10 2.324327 1_556
Hf6 N10 2.324344 1_555
Hf6 N5 2.348965 1_555
Hf7 N9 2.078033 1_566
Hf7 N9 2.078054 1_565
Hf7 N6 2.153311 1_555
Hf7 N8 2.162141 1_555
Hf7 N11 2.439800 1_556
Hf7 N11 2.440009 1_555
Hf7 N13 2.736295 1_565
Hf8 N14 2.070079 1_555
Hf8 N11 2.190390 1_556
Hf8 N11 2.190475 1_555
Hf8 N10 2.276724 1_556
Hf8 N10 2.276780 1_555
Hf8 N8 2.289127 1_555
Hf9 N9 2.070079 1_555
Hf9 N12 2.190390 1_555
Hf9 N12 2.190475 1_554
Hf9 N13 2.276724 1_555
Hf9 N13 2.276780 1_554
Hf9 N15 2.289127 1_555
Hf10 N14 2.078033 1_555
Hf10 N14 2.078054 1_554
Hf10 N1 2.153311 1_655
Hf10 N15 2.162141 1_555
Hf10 N12 2.439800 1_555
Hf10 N12 2.440009 1_554
Hf10 N10 2.736295 1_555
Hf11 N0 2.077207 1_655
Hf11 N0 2.077219 1_654
Hf11 N11 2.105500 1_555
Hf11 N13 2.324327 1_565
Hf11 N13 2.324344 1_564
Hf11 N2 2.348965 1_655
