# generated using pymatgen
data_LiVWO6
_symmetry_space_group_name_H-M   'P 1'
_cell_length_a   5.13011700
_cell_length_b   6.81761983
_cell_length_c   7.35261304
_cell_angle_alpha   66.02613931
_cell_angle_beta   70.78036998
_cell_angle_gamma   79.15582039
_symmetry_Int_Tables_number   1
_chemical_formula_structural   LiVWO6
_chemical_formula_sum   'Li2 V2 W2 O12'
_cell_volume   221.43637494
_cell_formula_units_Z   2
loop_
 _symmetry_equiv_pos_site_id
 _symmetry_equiv_pos_as_xyz
  1  'x, y, z'
loop_
 _atom_site_type_symbol
 _atom_site_label
 _atom_site_symmetry_multiplicity
 _atom_site_fract_x
 _atom_site_fract_y
 _atom_site_fract_z
 _atom_site_occupancy
  Li  Li0  1  0.00000000  0.00000000  0.00000000  1
  Li  Li1  1  0.50000000  0.00000000  0.50000000  1
  V  V0  1  0.04605800  0.35417600  0.22785300  1
  V  V1  1  0.95394200  0.64582400  0.77214700  1
  W  W0  1  0.45145100  0.64041700  0.26711600  1
  W  W1  1  0.54854900  0.35958300  0.73288400  1
  O  O0  1  0.17076600  0.71970700  0.15174900  1
  O  O1  1  0.31453000  0.30837300  0.33694000  1
  O  O2  1  0.75727900  0.56231600  0.06255600  1
  O  O3  1  0.25783500  0.56486000  0.56610400  1
  O  O4  1  0.56053800  0.89088100  0.22443800  1
  O  O5  1  0.04836700  0.88348900  0.72158000  1
  O  O6  1  0.95163300  0.11651100  0.27842000  1
  O  O7  1  0.43946200  0.10911900  0.77556200  1
  O  O8  1  0.24272100  0.43768400  0.93744400  1
  O  O9  1  0.74216500  0.43514000  0.43389600  1
  O  O10  1  0.68547000  0.69162700  0.66306000  1
  O  O11  1  0.82923400  0.28029300  0.84825100  1
loop_
_geom_bond_atom_site_label_1
_geom_bond_atom_site_label_2
_geom_bond_distance
_geom_bond_site_symmetry_2
Li0 O0 1.986201 1_545
Li0 O11 1.986201 1_454
Li0 O7 2.354439 1_554
Li0 O4 2.354439 1_445
Li0 O6 2.407495 1_455
Li0 O5 2.407495 1_544
Li1 O1 2.170880 1_555
Li1 O10 2.170880 1_545
Li1 O7 2.340648 1_555
Li1 O4 2.340648 1_545
Li1 O6 2.410195 1_555
Li1 O5 2.410195 1_545
O0 W0 1.795505 1_555
O0 V0 2.482691 1_555
O1 V0 1.731967 1_555
O1 W0 2.301736 1_555
O2 V1 1.926468 1_554
O2 W0 1.946813 1_555
O2 V0 2.162959 1_655
O3 V1 1.957305 1_455
O3 W0 1.979729 1_555
O3 W1 2.170412 1_555
O4 W0 1.770865 1_555
O5 V1 1.638748 1_455
O6 V0 1.638748 1_655
O7 W1 1.770865 1_555
O8 V0 1.926468 1_556
O8 W1 1.946813 1_555
O8 V1 2.162959 1_455
O9 V0 1.957305 1_655
O9 W1 1.979729 1_555
O9 W0 2.170412 1_555
O10 V1 1.731967 1_555
O10 W1 2.301736 1_555
O11 W1 1.795505 1_555
O11 V1 2.482691 1_555
