# generated using pymatgen
data_LiFeCoO4
_symmetry_space_group_name_H-M   'P 1'
_cell_length_a   5.85516300
_cell_length_b   5.85516300
_cell_length_c   8.12284200
_cell_angle_alpha   90.00000000
_cell_angle_beta   90.00000000
_cell_angle_gamma   90.00000000
_symmetry_Int_Tables_number   1
_chemical_formula_structural   LiFeCoO4
_chemical_formula_sum   'Li4 Fe4 Co4 O16'
_cell_volume   278.47485420
_cell_formula_units_Z   4
loop_
 _symmetry_equiv_pos_site_id
 _symmetry_equiv_pos_as_xyz
  1  'x, y, z'
loop_
 _atom_site_type_symbol
 _atom_site_label
 _atom_site_symmetry_multiplicity
 _atom_site_fract_x
 _atom_site_fract_y
 _atom_site_fract_z
 _atom_site_occupancy
  Li  Li0  1  0.00000000  0.23673800  0.00000000  1
  Li  Li1  1  0.00000000  0.76326200  0.50000000  1
  Li  Li2  1  0.23673800  0.00000000  0.25000000  1
  Li  Li3  1  0.76326200  0.00000000  0.75000000  1
  Fe  Fe0  1  0.25389100  0.25389100  0.62500000  1
  Fe  Fe1  1  0.25389100  0.74610900  0.87500000  1
  Fe  Fe2  1  0.74610900  0.25389100  0.37500000  1
  Fe  Fe3  1  0.74610900  0.74610900  0.12500000  1
  Co  Co0  1  0.24062200  0.50000000  0.25000000  1
  Co  Co1  1  0.50000000  0.24062200  0.00000000  1
  Co  Co2  1  0.50000000  0.75937800  0.50000000  1
  Co  Co3  1  0.75937800  0.50000000  0.75000000  1
  O  O0  1  0.02019200  0.27044500  0.25715100  1
  O  O1  1  0.02019200  0.72955500  0.24284900  1
  O  O2  1  0.27044500  0.02019200  0.99284900  1
  O  O3  1  0.27044500  0.97980800  0.50715100  1
  O  O4  1  0.26587700  0.48146300  0.01921200  1
  O  O5  1  0.26587700  0.51853700  0.48078800  1
  O  O6  1  0.48146300  0.26587700  0.23078800  1
  O  O7  1  0.48146300  0.73412300  0.26921200  1
  O  O8  1  0.51853700  0.26587700  0.76921200  1
  O  O9  1  0.51853700  0.73412300  0.73078800  1
  O  O10  1  0.73412300  0.51853700  0.51921200  1
  O  O11  1  0.73412300  0.48146300  0.98078800  1
  O  O12  1  0.72955500  0.02019200  0.00715100  1
  O  O13  1  0.72955500  0.97980800  0.49284900  1
  O  O14  1  0.97980800  0.27044500  0.74284900  1
  O  O15  1  0.97980800  0.72955500  0.75715100  1
loop_
_geom_bond_atom_site_label_1
_geom_bond_atom_site_label_2
_geom_bond_distance
_geom_bond_site_symmetry_2
Li0 O2 2.029395 1_554
Li0 O12 2.029395 1_455
Li0 O0 2.101428 1_555
Li0 O14 2.101428 1_454
Li0 O4 2.121568 1_555
Li0 O11 2.121568 1_454
Li1 O3 2.029395 1_555
Li1 O13 2.029395 1_455
Li1 O15 2.101428 1_455
Li1 O1 2.101428 1_555
Li1 O10 2.121568 1_455
Li1 O5 2.121568 1_555
Li2 O0 2.029395 1_555
Li2 O1 2.029395 1_545
Li2 O2 2.101428 1_554
Li2 O3 2.101428 1_545
Li2 O6 2.121568 1_555
Li2 O7 2.121568 1_545
Li3 O14 2.029395 1_555
Li3 O15 2.029395 1_545
Li3 O12 2.101428 1_556
Li3 O13 2.101428 1_545
Li3 O8 2.121568 1_555
Li3 O9 2.121568 1_545
Fe0 O14 1.871134 1_455
Fe0 O3 1.871134 1_545
Fe0 O5 1.943765 1_555
Fe0 O8 1.943765 1_555
Fe1 O2 1.871134 1_565
Fe1 O15 1.871134 1_455
Fe1 O4 1.943765 1_556
Fe1 O9 1.943765 1_555
Fe2 O13 1.871134 1_545
Fe2 O0 1.871134 1_655
Fe2 O6 1.943765 1_555
Fe2 O10 1.943765 1_555
Fe3 O1 1.871134 1_655
Fe3 O12 1.871134 1_565
Fe3 O7 1.943765 1_555
Fe3 O11 1.943765 1_554
Co0 O1 1.864327 1_555
Co0 O0 1.864327 1_555
Co0 O4 1.883607 1_555
Co0 O5 1.883607 1_555
Co0 O7 1.972837 1_555
Co0 O6 1.972837 1_555
Co1 O12 1.864327 1_555
Co1 O2 1.864327 1_554
Co1 O8 1.883607 1_554
Co1 O6 1.883607 1_555
Co1 O11 1.972837 1_554
Co1 O4 1.972837 1_555
Co2 O13 1.864327 1_555
Co2 O3 1.864327 1_555
Co2 O9 1.883607 1_555
Co2 O7 1.883607 1_555
Co2 O10 1.972837 1_555
Co2 O5 1.972837 1_555
Co3 O15 1.864327 1_555
Co3 O14 1.864327 1_555
Co3 O10 1.883607 1_555
Co3 O11 1.883607 1_555
Co3 O9 1.972837 1_555
Co3 O8 1.972837 1_555
