# generated using pymatgen
data_Li5V3P8O29
_symmetry_space_group_name_H-M   'P 1'
_cell_length_a   9.74293300
_cell_length_b   9.77628290
_cell_length_c   14.03992479
_cell_angle_alpha   90.21956148
_cell_angle_beta   89.93610914
_cell_angle_gamma   119.68972407
_symmetry_Int_Tables_number   1
_chemical_formula_structural   Li5V3P8O29
_chemical_formula_sum   'Li10 V6 P16 O58'
_cell_volume   1161.72916575
_cell_formula_units_Z   2
loop_
 _symmetry_equiv_pos_site_id
 _symmetry_equiv_pos_as_xyz
  1  'x, y, z'
loop_
 _atom_site_type_symbol
 _atom_site_label
 _atom_site_symmetry_multiplicity
 _atom_site_fract_x
 _atom_site_fract_y
 _atom_site_fract_z
 _atom_site_occupancy
  Li  Li0  1  0.23427200  0.91206600  0.05561200  1
  Li  Li1  1  0.66692700  0.90547700  0.56363000  1
  Li  Li2  1  0.32957200  0.66083900  0.88566400  1
  Li  Li3  1  0.68206100  0.77021200  0.05846100  1
  Li  Li4  1  0.08682300  0.32416600  0.05996700  1
  Li  Li5  1  0.76587200  0.66514000  0.44430600  1
  Li  Li6  1  0.23928700  0.33971400  0.56345800  1
  Li  Li7  1  0.32597400  0.08966800  0.44209600  1
  Li  Li8  1  0.99815900  0.00358700  0.98119600  1
  Li  Li9  1  0.00065400  0.00273300  0.50892200  1
  V  V0  1  0.56487700  0.56443000  0.24414100  1
  V  V1  1  0.43722900  0.43399300  0.75482300  1
  V  V2  1  0.99973900  0.56688200  0.74595200  1
  V  V3  1  0.99628000  0.43466500  0.25316300  1
  V  V4  1  0.43535100  0.99850600  0.24995600  1
  V  V5  1  0.56711400  0.00352300  0.74766900  1
  P  P0  1  0.21949300  0.90748500  0.83976100  1
  P  P1  1  0.08159700  0.77641800  0.34312100  1
  P  P2  1  0.68672700  0.91114000  0.34505500  1
  P  P3  1  0.32899000  0.66518900  0.12780200  1
  P  P4  1  0.33475500  0.66317500  0.62970100  1
  P  P5  1  0.68525700  0.77990600  0.84269800  1
  P  P6  1  0.77386500  0.68758200  0.65972800  1
  P  P7  1  0.08743400  0.31261700  0.84717800  1
  P  P8  1  0.91873000  0.69220800  0.15504300  1
  P  P9  1  0.22851100  0.31582500  0.34307100  1
  P  P10  1  0.30737100  0.22210300  0.15911100  1
  P  P11  1  0.66512300  0.33526000  0.36907200  1
  P  P12  1  0.67387000  0.33626000  0.86958300  1
  P  P13  1  0.30717500  0.08571900  0.65672100  1
  P  P14  1  0.91966600  0.22153200  0.66080600  1
  P  P15  1  0.77971700  0.08538100  0.16203300  1
  O  O0  1  0.22055000  0.00956100  0.56640000  1
  O  O1  1  0.25413300  0.91471500  0.34127100  1
  O  O2  1  0.00938600  0.78746800  0.07099300  1
  O  O3  1  0.07740300  0.73699700  0.83128800  1
  O  O4  1  0.37120100  0.89560000  0.82962000  1
  O  O5  1  0.32260000  0.81157800  0.16697800  1
  O  O6  1  0.52909100  0.91089300  0.32852100  1
  O  O7  1  0.79599500  0.99490500  0.08090900  1
  O  O8  1  0.65710600  0.92141800  0.83156300  1
  O  O9  1  0.19100300  0.66682500  0.67960500  1
  O  O10  1  0.08018000  0.61710000  0.32993700  1
  O  O11  1  0.48904900  0.81242200  0.66476800  1
  O  O12  1  0.32147400  0.65945500  0.02043200  1
  O  O13  1  0.32304300  0.64995800  0.52400800  1
  O  O14  1  0.48626700  0.67428100  0.16287200  1
  O  O15  1  0.09528400  0.47467800  0.83265700  1
  O  O16  1  0.18527900  0.51341900  0.17068500  1
  O  O17  1  0.65794500  0.74067200  0.33180700  1
  O  O18  1  0.79400700  0.79305300  0.75268000  1
  O  O19  1  0.78564400  0.78322900  0.57239200  1
  O  O20  1  0.77404700  0.79230800  0.93190400  1
  O  O21  1  0.52077400  0.62993000  0.83337700  1
  O  O22  1  0.33218100  0.51401300  0.67386000  1
  O  O23  1  0.74622200  0.66041800  0.15563200  1
  O  O24  1  0.38229800  0.47011800  0.32848600  1
  O  O25  1  0.08588100  0.34392800  0.33229900  1
  O  O26  1  0.99934600  0.79733500  0.24926900  1
  O  O27  1  0.99171600  0.78522600  0.42720400  1
  O  O28  1  0.01331500  0.20631400  0.58082800  1
  O  O29  1  0.91642600  0.65798200  0.66298700  1
  O  O30  1  0.61823100  0.53362000  0.66730700  1
  O  O31  1  0.25734000  0.34384200  0.83920700  1
  O  O32  1  0.67309400  0.48750600  0.32885100  1
  O  O33  1  0.46511000  0.37997000  0.17045600  1
  O  O34  1  0.20628900  0.21450100  0.07761300  1
  O  O35  1  0.22064600  0.23022300  0.43413300  1
  O  O36  1  0.21088800  0.19783900  0.25748200  1
  O  O37  1  0.34004000  0.25623300  0.66223300  1
  O  O38  1  0.82059700  0.47723500  0.81747500  1
  O  O39  1  0.91959500  0.53580200  0.17143800  1
  O  O40  1  0.53025600  0.34721500  0.82491700  1
  O  O41  1  0.68184500  0.35030700  0.97419200  1
  O  O42  1  0.67550200  0.33799400  0.47455600  1
  O  O43  1  0.51189000  0.18742000  0.33018000  1
  O  O44  1  0.92634800  0.38251900  0.66901400  1
  O  O45  1  0.81106100  0.33085700  0.31921000  1
  O  O46  1  0.34250700  0.08352200  0.15911700  1
  O  O47  1  0.20135900  0.99785000  0.74908200  1
  O  O48  1  0.20562600  0.98393400  0.92915300  1
  O  O49  1  0.46156000  0.07920100  0.67069000  1
  O  O50  1  0.66416000  0.18803300  0.82457400  1
  O  O51  1  0.62143500  0.08262800  0.17103200  1
  O  O52  1  0.91836300  0.25891500  0.16243600  1
  O  O53  1  0.00933200  0.22739000  0.93695800  1
  O  O54  1  0.98863800  0.19912100  0.75991100  1
  O  O55  1  0.74648600  0.08477800  0.65780600  1
  O  O56  1  0.76406000  0.97590600  0.43886200  1
  O  O57  1  0.80372600  0.01283000  0.26090600  1
loop_
_geom_bond_atom_site_label_1
_geom_bond_atom_site_label_2
_geom_bond_distance
_geom_bond_site_symmetry_2
Li0 O2 1.920473 1_555
Li0 O48 1.982113 1_554
Li0 O46 2.065728 1_565
Li0 O5 2.236673 1_555
Li1 O56 1.948926 1_555
Li1 O55 2.015022 1_565
Li1 O19 2.037676 1_555
Li1 O11 2.071234 1_555
Li2 O12 1.893510 1_556
Li2 O21 2.157168 1_555
Li2 O15 2.225919 1_555
Li2 O4 2.267618 1_555
Li3 O7 1.933092 1_555
Li3 O20 1.953119 1_554
Li3 O23 2.020386 1_555
Li3 O14 2.213485 1_555
Li4 O53 1.931472 1_554
Li4 O34 1.950496 1_555
Li4 O52 2.033498 1_455
Li4 O16 2.232244 1_555
Li5 O27 1.928630 1_555
Li5 O19 2.090076 1_555
Li5 O32 2.210683 1_555
Li5 O17 2.219806 1_555
Li6 O28 1.940210 1_555
Li6 O35 2.066119 1_555
Li6 O37 2.087629 1_555
Li6 O22 2.140211 1_555
Li7 O0 1.980847 1_555
Li7 O1 2.053517 1_545
Li7 O35 2.086158 1_555
Li7 O43 2.225683 1_555
Li8 O53 2.226907 1_655
Li8 O48 2.244317 1_645
Li8 O20 2.244489 1_545
Li8 O7 2.382405 1_546
Li8 O34 2.457411 1_656
Li8 O2 2.513005 1_646
Li9 O28 2.176522 1_555
Li9 O0 2.259972 1_555
Li9 O19 2.311878 1_445
Li9 O27 2.375632 1_445
Li9 O56 2.398771 1_445
Li9 O35 2.435897 1_555
O0 P13 1.499133 1_555
O1 P1 1.550224 1_555
O1 V4 2.000574 1_555
O2 P8 1.493730 1_455
O3 P0 1.556212 1_555
O3 V2 1.874581 1_455
O4 P0 1.545324 1_555
O4 V5 2.022340 1_565
O5 P3 1.561000 1_555
O5 V4 1.975220 1_555
O6 P2 1.552355 1_555
O6 V4 1.889149 1_555
O7 P15 1.495202 1_565
O8 P5 1.546372 1_555
O8 V5 1.872735 1_565
O9 P4 1.581422 1_555
O9 V2 1.869322 1_455
O10 P1 1.561049 1_555
O10 V3 1.885225 1_455
O11 P4 1.566685 1_555
O11 V5 2.000321 1_565
O12 P3 1.508805 1_555
O13 P4 1.488638 1_555
O14 P3 1.569976 1_555
O14 V0 1.966714 1_555
O15 P7 1.562049 1_555
O15 V2 2.000791 1_455
O16 P3 1.572086 1_555
O16 V3 1.980439 1_455
O17 P2 1.557368 1_555
O17 V0 1.935049 1_555
O18 P6 1.610790 1_555
O18 P5 1.612394 1_555
O19 P6 1.514346 1_555
O20 P5 1.492992 1_555
O21 P5 1.551274 1_555
O21 V1 1.997364 1_555
O22 P4 1.575492 1_555
O22 V1 1.937566 1_555
O23 P8 1.550506 1_555
O23 V0 1.976895 1_555
O24 P9 1.524814 1_555
O24 V0 1.948258 1_555
O25 P9 1.551913 1_555
O25 V3 1.886870 1_455
O26 P1 1.608423 1_655
O26 P8 1.617270 1_555
O27 P1 1.496500 1_655
O28 P14 1.498804 1_455
O29 P6 1.553529 1_555
O29 V2 1.880183 1_555
O30 P6 1.521874 1_555
O30 V1 1.967525 1_555
O31 P7 1.531427 1_555
O31 V1 1.930118 1_555
O32 P11 1.559516 1_555
O32 V0 1.971497 1_555
O33 P10 1.555070 1_555
O33 V0 1.875800 1_555
O34 P10 1.487963 1_555
O35 P9 1.511704 1_555
O36 P9 1.611708 1_555
O36 P10 1.620538 1_555
O37 P13 1.535478 1_555
O37 V1 1.990453 1_555
O38 P12 1.591223 1_555
O38 V2 1.819430 1_555
O39 P8 1.551314 1_555
O39 V3 1.895990 1_555
O40 P12 1.585394 1_555
O40 V1 1.811015 1_555
O41 P12 1.473133 1_555
O42 P11 1.483785 1_555
O43 P11 1.572975 1_555
O43 V4 1.964003 1_545
O44 P14 1.546501 1_555
O44 V2 1.907051 1_555
O45 P11 1.603687 1_555
O45 V3 1.826364 1_555
O46 P10 1.553101 1_555
O46 V4 1.972583 1_545
O47 P0 1.611291 1_555
O47 P13 1.615735 1_565
O48 P0 1.498155 1_555
O49 P13 1.549429 1_555
O49 V5 1.880267 1_555
O50 P12 1.538020 1_555
O50 V5 1.900380 1_555
O51 P15 1.534057 1_555
O51 V4 1.927869 1_545
O52 P15 1.559711 1_555
O52 V3 1.960690 1_555
O53 P7 1.496656 1_555
O54 P14 1.608077 1_555
O54 P7 1.610296 1_655
O55 P14 1.549591 1_555
O55 V5 1.975988 1_555
O56 P2 1.492125 1_555
O57 P2 1.602170 1_545
O57 P15 1.630164 1_555
