# generated using pymatgen
data_Li4V3Co2Sb3O16
_symmetry_space_group_name_H-M   'P 1'
_cell_length_a   6.14499154
_cell_length_b   6.14499154
_cell_length_c   9.86087804
_cell_angle_alpha   89.55625905
_cell_angle_beta   89.55625905
_cell_angle_gamma   59.93121956
_symmetry_Int_Tables_number   1
_chemical_formula_structural   Li4V3Co2Sb3O16
_chemical_formula_sum   'Li4 V3 Co2 Sb3 O16'
_cell_volume   322.23300818
_cell_formula_units_Z   1
loop_
 _symmetry_equiv_pos_site_id
 _symmetry_equiv_pos_as_xyz
  1  'x, y, z'
loop_
 _atom_site_type_symbol
 _atom_site_label
 _atom_site_symmetry_multiplicity
 _atom_site_fract_x
 _atom_site_fract_y
 _atom_site_fract_z
 _atom_site_occupancy
  Li  Li0  1  0.66454300  0.66454300  0.12247900  1
  Li  Li1  1  0.98933500  0.98933500  0.00913700  1
  Li  Li2  1  0.99231000  0.99231000  0.49517300  1
  Li  Li3  1  0.32794100  0.32794100  0.60000700  1
  V  V0  1  0.83188300  0.83188300  0.78379700  1
  V  V1  1  0.17117500  0.66346700  0.28518600  1
  V  V2  1  0.66346700  0.17117500  0.28518600  1
  Co  Co0  1  0.67292500  0.67292500  0.48086900  1
  Co  Co1  1  0.34360100  0.34360100  0.02387800  1
  Sb  Sb0  1  0.33780800  0.83177900  0.78473400  1
  Sb  Sb1  1  0.83177900  0.33780800  0.78473400  1
  Sb  Sb2  1  0.17065000  0.17065000  0.28486700  1
  O  O0  1  0.31532100  0.84623800  0.39840800  1
  O  O1  1  0.51408700  0.51408700  0.66926800  1
  O  O2  1  0.66184100  0.66184100  0.89868500  1
  O  O3  1  0.00493200  0.00493200  0.67941700  1
  O  O4  1  0.00703200  0.00703200  0.18684600  1
  O  O5  1  0.84623800  0.31532100  0.39840800  1
  O  O6  1  0.51274900  0.96854300  0.67471100  1
  O  O7  1  0.96854300  0.51274900  0.67471100  1
  O  O8  1  0.15424400  0.15424400  0.89801500  1
  O  O9  1  0.84283100  0.84283100  0.39216100  1
  O  O10  1  0.03474400  0.48102100  0.16503700  1
  O  O11  1  0.48102100  0.03474400  0.16503700  1
  O  O12  1  0.32771400  0.32771400  0.39802900  1
  O  O13  1  0.15899100  0.69030600  0.89236400  1
  O  O14  1  0.48260100  0.48260100  0.16867600  1
  O  O15  1  0.69030600  0.15899100  0.89236400  1
loop_
_geom_bond_atom_site_label_1
_geom_bond_atom_site_label_2
_geom_bond_distance
_geom_bond_site_symmetry_2
Li0 O14 1.986033 1_555
Li0 O11 2.014857 1_565
Li0 O10 2.014857 1_655
Li0 O2 2.207250 1_554
Li1 O4 1.764142 1_665
Li1 O15 1.970741 1_564
Li1 O13 1.970741 1_654
Li1 O8 2.061346 1_664
Li2 O3 1.822969 1_665
Li2 O9 1.895698 1_555
Li2 O5 1.963305 1_565
Li2 O0 1.963305 1_655
Li3 O12 1.991703 1_555
Li3 O6 2.045550 1_545
Li3 O7 2.045550 1_455
Li3 O1 2.102061 1_555
Co0 O9 2.002347 1_555
Co0 O5 2.072051 1_555
Co0 O0 2.072051 1_555
Co0 O6 2.480987 1_555
Co0 O7 2.480987 1_555
Co0 O1 2.501044 1_555
Co1 O14 2.065611 1_555
Co1 O10 2.150347 1_555
Co1 O11 2.150347 1_555
Co1 O15 2.250739 1_554
Co1 O13 2.250739 1_554
Co1 O8 2.376932 1_554
O0 Sb2 2.054961 1_565
O0 V1 2.079461 1_555
O1 Sb1 2.043811 1_555
O1 Sb0 2.043811 1_555
O2 Sb1 2.061730 1_555
O2 Sb0 2.061730 1_555
O2 V0 2.127097 1_555
O3 Sb1 2.056600 1_455
O3 Sb0 2.056600 1_545
O3 V0 2.102432 1_445
O4 Sb2 1.999787 1_555
O4 V1 2.065056 1_545
O4 V2 2.065056 1_455
O5 Sb2 2.054961 1_655
O5 V2 2.079461 1_555
O6 Sb0 1.977915 1_555
O6 V0 2.019043 1_555
O7 Sb1 1.977915 1_555
O7 V0 2.019043 1_555
O8 Sb0 2.054664 1_545
O8 Sb1 2.054664 1_455
O9 V1 2.038413 1_655
O9 V2 2.038413 1_565
O10 Sb2 2.028666 1_555
O10 V1 2.083582 1_555
O11 Sb2 2.028666 1_555
O11 V2 2.083582 1_555
O12 Sb2 2.018679 1_555
O12 V2 2.100598 1_555
O12 V1 2.100598 1_555
O13 Sb0 2.003623 1_555
O13 V0 2.051810 1_455
O14 V1 2.017884 1_555
O14 V2 2.017884 1_555
O15 Sb1 2.003623 1_555
O15 V0 2.051810 1_545
