# generated using pymatgen
data_Ba2La2O5
_symmetry_space_group_name_H-M   'P 1'
_cell_length_a   6.60855000
_cell_length_b   6.67676500
_cell_length_c   17.44935600
_cell_angle_alpha   90.00000000
_cell_angle_beta   90.00000000
_cell_angle_gamma   90.00000000
_symmetry_Int_Tables_number   1
_chemical_formula_structural   Ba2La2O5
_chemical_formula_sum   'Ba8 La8 O20'
_cell_volume   769.93076601
_cell_formula_units_Z   4
loop_
 _symmetry_equiv_pos_site_id
 _symmetry_equiv_pos_as_xyz
  1  'x, y, z'
loop_
 _atom_site_type_symbol
 _atom_site_label
 _atom_site_symmetry_multiplicity
 _atom_site_fract_x
 _atom_site_fract_y
 _atom_site_fract_z
 _atom_site_occupancy
  Ba  Ba0  1  0.03444900  0.51969900  0.11020400  1
  Ba  Ba1  1  0.03444900  0.51969900  0.38979600  1
  Ba  Ba2  1  0.53444900  0.98030100  0.11020400  1
  Ba  Ba3  1  0.53444900  0.98030100  0.38979600  1
  Ba  Ba4  1  0.46555100  0.01969900  0.61020400  1
  Ba  Ba5  1  0.46555100  0.01969900  0.88979600  1
  Ba  Ba6  1  0.96555100  0.48030100  0.61020400  1
  Ba  Ba7  1  0.96555100  0.48030100  0.88979600  1
  La  La0  1  0.50000000  0.50000000  0.00000000  1
  La  La1  1  0.50000000  0.50000000  0.50000000  1
  La  La2  1  0.44916000  0.55176900  0.75000000  1
  La  La3  1  0.94916000  0.94823100  0.75000000  1
  La  La4  1  0.00000000  0.00000000  0.50000000  1
  La  La5  1  0.00000000  0.00000000  0.00000000  1
  La  La6  1  0.05084000  0.05176900  0.25000000  1
  La  La7  1  0.55084000  0.44823100  0.25000000  1
  O  O0  1  0.44802900  0.59300500  0.13966200  1
  O  O1  1  0.44802900  0.59300500  0.36033800  1
  O  O2  1  0.09535200  0.62865400  0.75000000  1
  O  O3  1  0.21193700  0.71278100  0.52325500  1
  O  O4  1  0.21193700  0.71278100  0.97674500  1
  O  O5  1  0.71193600  0.78721900  0.52325500  1
  O  O6  1  0.71193600  0.78721900  0.97674500  1
  O  O7  1  0.59535200  0.87134600  0.75000000  1
  O  O8  1  0.94802900  0.90699500  0.13966200  1
  O  O9  1  0.94802900  0.90699500  0.36033800  1
  O  O10  1  0.05197100  0.09300500  0.63966200  1
  O  O11  1  0.05197100  0.09300500  0.86033800  1
  O  O12  1  0.40464800  0.12865400  0.25000000  1
  O  O13  1  0.28806300  0.21278100  0.02325500  1
  O  O14  1  0.28806300  0.21278100  0.47674500  1
  O  O15  1  0.78806400  0.28721900  0.02325500  1
  O  O16  1  0.78806400  0.28721900  0.47674500  1
  O  O17  1  0.90464800  0.37134600  0.25000000  1
  O  O18  1  0.55197100  0.40699500  0.63966200  1
  O  O19  1  0.55197100  0.40699500  0.86033800  1
loop_
_geom_bond_atom_site_label_1
_geom_bond_atom_site_label_2
_geom_bond_distance
_geom_bond_site_symmetry_2
Ba0 O8 2.697626 1_455
Ba0 O15 2.713387 1_455
Ba0 O17 2.769002 1_455
Ba0 O0 2.823821 1_555
Ba0 O4 2.908765 1_554
Ba0 O13 3.051271 1_555
Ba1 O9 2.697626 1_455
Ba1 O16 2.713387 1_455
Ba1 O17 2.769002 1_455
Ba1 O1 2.823821 1_555
Ba1 O3 2.908765 1_555
Ba1 O14 3.051271 1_555
Ba2 O0 2.697626 1_555
Ba2 O13 2.713391 1_565
Ba2 O12 2.769002 1_565
Ba2 O8 2.823821 1_555
Ba2 O6 2.908762 1_554
Ba2 O15 3.051274 1_565
Ba3 O1 2.697626 1_555
Ba3 O14 2.713391 1_565
Ba3 O12 2.769002 1_565
Ba3 O9 2.823821 1_555
Ba3 O5 2.908762 1_555
Ba3 O16 3.051274 1_565
Ba4 O18 2.697626 1_555
Ba4 O5 2.713387 1_545
Ba4 O7 2.769002 1_545
Ba4 O10 2.823821 1_555
Ba4 O14 2.908765 1_555
Ba4 O3 3.051271 1_545
Ba5 O19 2.697626 1_555
Ba5 O6 2.713387 1_545
Ba5 O7 2.769002 1_545
Ba5 O11 2.823821 1_555
Ba5 O13 2.908765 1_556
Ba5 O4 3.051271 1_545
Ba6 O10 2.697626 1_655
Ba6 O3 2.713391 1_655
Ba6 O2 2.769002 1_655
Ba6 O18 2.823821 1_555
Ba6 O16 2.908762 1_555
Ba6 O5 3.051274 1_555
Ba7 O11 2.697626 1_655
Ba7 O4 2.713391 1_655
Ba7 O2 2.769002 1_655
Ba7 O19 2.823821 1_555
Ba7 O15 2.908762 1_556
Ba7 O6 3.051274 1_555
La0 O6 2.409121 1_554
La0 O13 2.409124 1_555
La0 O4 2.409774 1_554
La0 O15 2.409779 1_555
La0 O0 2.538227 1_555
La0 O19 2.538227 1_554
La1 O5 2.409121 1_555
La1 O14 2.409124 1_555
La1 O3 2.409774 1_555
La1 O16 2.409779 1_555
La1 O18 2.538227 1_555
La1 O1 2.538227 1_555
La2 O19 2.258953 1_555
La2 O18 2.258953 1_555
La2 O7 2.342270 1_555
La2 O2 2.393847 1_555
La3 O11 2.258953 1_665
La3 O10 2.258953 1_665
La3 O2 2.342270 1_655
La3 O7 2.393847 1_555
La4 O16 2.409121 1_455
La4 O3 2.409124 1_545
La4 O14 2.409774 1_555
La4 O5 2.409779 1_445
La4 O10 2.538227 1_555
La4 O9 2.538227 1_445
La5 O15 2.409121 1_455
La5 O4 2.409124 1_544
La5 O13 2.409774 1_555
La5 O6 2.409779 1_444
La5 O8 2.538227 1_445
La5 O11 2.538227 1_554
La6 O9 2.258953 1_445
La6 O8 2.258953 1_445
La6 O17 2.342270 1_455
La6 O12 2.393847 1_555
La7 O1 2.258953 1_555
La7 O0 2.258953 1_555
La7 O12 2.342270 1_555
La7 O17 2.393847 1_555
