# generated using pymatgen
data_Li2VNiO4
_symmetry_space_group_name_H-M   'P 1'
_cell_length_a   5.88963945
_cell_length_b   5.89864885
_cell_length_c   5.89277632
_cell_angle_alpha   60.45182610
_cell_angle_beta   89.00692257
_cell_angle_gamma   119.19302263
_symmetry_Int_Tables_number   1
_chemical_formula_structural   Li2VNiO4
_chemical_formula_sum   'Li4 V2 Ni2 O8'
_cell_volume   146.23638849
_cell_formula_units_Z   2
loop_
 _symmetry_equiv_pos_site_id
 _symmetry_equiv_pos_as_xyz
  1  'x, y, z'
loop_
 _atom_site_type_symbol
 _atom_site_label
 _atom_site_symmetry_multiplicity
 _atom_site_fract_x
 _atom_site_fract_y
 _atom_site_fract_z
 _atom_site_occupancy
  Li  Li0  1  0.00000000  0.00000000  0.50000000  1
  Li  Li1  1  0.50000000  0.50000000  0.50000000  1
  Li  Li2  1  0.50000000  0.50000000  0.00000000  1
  Li  Li3  1  0.50000000  0.00000000  0.50000000  1
  V  V0  1  0.00000000  0.99999900  0.00000000  1
  V  V1  1  0.00000000  0.50000000  0.50000000  1
  Ni  Ni0  1  0.00000000  0.50000200  0.00000000  1
  Ni  Ni1  1  0.50000000  0.00000100  0.00000000  1
  O  O0  1  0.22911200  0.99329500  0.77667700  1
  O  O1  1  0.22995000  0.50675400  0.26421700  1
  O  O2  1  0.77005000  0.49324500  0.73578300  1
  O  O3  1  0.77088700  0.00670500  0.22332300  1
  O  O4  1  0.23084900  0.98177800  0.25215000  1
  O  O5  1  0.76606800  0.51853100  0.25062000  1
  O  O6  1  0.23393200  0.48146900  0.74938000  1
  O  O7  1  0.76915100  0.01822100  0.74785000  1
loop_
_geom_bond_atom_site_label_1
_geom_bond_atom_site_label_2
_geom_bond_distance
_geom_bond_site_symmetry_2
Li0 O7 2.054699 1_455
Li0 O4 2.054704 1_545
Li0 O0 2.131976 1_545
Li0 O3 2.131980 1_455
Li0 O1 2.142211 1_555
Li0 O2 2.142216 1_445
Li1 O6 2.054696 1_555
Li1 O5 2.054696 1_555
Li1 O1 2.132033 1_555
Li1 O2 2.132033 1_555
Li1 O3 2.142128 1_565
Li1 O0 2.142128 1_545
Li2 O5 2.172787 1_555
Li2 O6 2.172787 1_554
Li2 O7 2.185470 1_564
Li2 O4 2.185474 1_545
Li2 O1 2.234409 1_555
Li2 O2 2.234413 1_554
Li3 O7 2.174035 1_555
Li3 O4 2.174035 1_545
Li3 O5 2.186714 1_555
Li3 O6 2.186714 1_545
Li3 O3 2.233791 1_555
Li3 O0 2.233795 1_545
Ni0 O5 2.080110 1_455
Ni0 O6 2.080127 1_554
Ni0 O1 2.083644 1_555
Ni0 O2 2.083646 1_454
Ni0 O0 2.085860 1_554
Ni0 O3 2.085878 1_455
Ni1 O4 2.080099 1_545
Ni1 O7 2.080111 1_554
Ni1 O3 2.083590 1_555
Ni1 O0 2.083594 1_544
Ni1 O2 2.085885 1_554
Ni1 O1 2.085897 1_545
O0 V0 1.896331 1_556
O1 V1 1.895732 1_555
O2 V1 1.895728 1_655
O3 V0 1.896344 1_645
O4 V0 2.030509 1_555
O4 V1 2.031250 1_555
O5 V0 2.029919 1_655
O5 V1 2.031852 1_655
O6 V0 2.029927 1_546
O6 V1 2.031852 1_555
O7 V0 2.030509 1_646
O7 V1 2.031254 1_655
