# generated using pymatgen
data_CdSeO4
_symmetry_space_group_name_H-M   'P 1'
_cell_length_a   7.18139100
_cell_length_b   6.71796100
_cell_length_c   8.32914252
_cell_angle_alpha   52.93053665
_cell_angle_beta   90.00000000
_cell_angle_gamma   90.00000000
_symmetry_Int_Tables_number   1
_chemical_formula_structural   CdSeO4
_chemical_formula_sum   'Cd4 Se4 O16'
_cell_volume   320.62523230
_cell_formula_units_Z   4
loop_
 _symmetry_equiv_pos_site_id
 _symmetry_equiv_pos_as_xyz
  1  'x, y, z'
loop_
 _atom_site_type_symbol
 _atom_site_label
 _atom_site_symmetry_multiplicity
 _atom_site_fract_x
 _atom_site_fract_y
 _atom_site_fract_z
 _atom_site_occupancy
  Cd  Cd0  1  0.85555600  0.80962500  0.77971000  1
  Cd  Cd1  1  0.35555600  0.19037500  0.72029000  1
  Cd  Cd2  1  0.64444400  0.80962500  0.27971000  1
  Cd  Cd3  1  0.14444400  0.19037500  0.22029000  1
  Se  Se0  1  0.83598200  0.30990700  0.80376700  1
  Se  Se1  1  0.33598200  0.69009300  0.69623300  1
  Se  Se2  1  0.66401800  0.30990700  0.30376700  1
  Se  Se3  1  0.16401800  0.69009300  0.19623300  1
  O  O0  1  0.89839900  0.34761800  0.97817000  1
  O  O1  1  0.65013700  0.11848600  0.89634900  1
  O  O2  1  0.29149500  0.39222800  0.89100600  1
  O  O3  1  0.49555100  0.83185000  0.74466700  1
  O  O4  1  0.79149500  0.60777200  0.60899400  1
  O  O5  1  0.99555100  0.16815000  0.75533300  1
  O  O6  1  0.15013700  0.88151400  0.60365100  1
  O  O7  1  0.39839900  0.65238200  0.52183000  1
  O  O8  1  0.60160100  0.34761800  0.47817000  1
  O  O9  1  0.84986300  0.11848600  0.39634900  1
  O  O10  1  0.00444900  0.83185000  0.24466700  1
  O  O11  1  0.20850500  0.39222800  0.39100600  1
  O  O12  1  0.50444900  0.16815000  0.25533300  1
  O  O13  1  0.70850500  0.60777200  0.10899400  1
  O  O14  1  0.34986300  0.88151400  0.10365100  1
  O  O15  1  0.10160100  0.65238200  0.02183000  1
loop_
_geom_bond_atom_site_label_1
_geom_bond_atom_site_label_2
_geom_bond_distance
_geom_bond_site_symmetry_2
Cd0 O15 2.395131 1_656
Cd0 O13 2.447962 1_556
Cd0 O6 2.450548 1_655
Cd0 O5 2.502710 1_565
Cd0 O0 2.505027 1_555
Cd0 O4 2.529206 1_555
Cd0 O9 2.552517 1_565
Cd0 O3 2.595942 1_555
Cd1 O8 2.395131 1_555
Cd1 O11 2.447962 1_555
Cd1 O1 2.450548 1_555
Cd1 O3 2.502710 1_545
Cd1 O7 2.505027 1_555
Cd1 O2 2.529206 1_555
Cd1 O14 2.552517 1_546
Cd1 O5 2.595942 1_455
Cd2 O7 2.395131 1_555
Cd2 O4 2.447962 1_555
Cd2 O14 2.450548 1_555
Cd2 O12 2.502710 1_565
Cd2 O8 2.505027 1_555
Cd2 O13 2.529206 1_555
Cd2 O1 2.552517 1_564
Cd2 O10 2.595942 1_655
Cd3 O0 2.395131 1_454
Cd3 O2 2.447962 1_554
Cd3 O9 2.450548 1_455
Cd3 O10 2.502710 1_545
Cd3 O15 2.505027 1_555
Cd3 O11 2.529206 1_555
Cd3 O6 2.552517 1_545
Cd3 O12 2.595942 1_555
O0 Se0 1.678955 1_555
O1 Se0 1.683469 1_555
O2 Se1 1.680618 1_555
O3 Se1 1.686995 1_555
O4 Se0 1.680618 1_555
O5 Se0 1.686995 1_555
O6 Se1 1.683469 1_555
O7 Se1 1.678955 1_555
O8 Se2 1.678955 1_555
O9 Se2 1.683469 1_555
O10 Se3 1.686995 1_555
O11 Se3 1.680618 1_555
O12 Se2 1.686995 1_555
O13 Se2 1.680618 1_555
O14 Se3 1.683469 1_555
O15 Se3 1.678955 1_555
