# generated using pymatgen
data_Li4Mn3Cr3O12
_symmetry_space_group_name_H-M   'P 1'
_cell_length_a   8.94034700
_cell_length_b   5.07949300
_cell_length_c   5.16647554
_cell_angle_alpha   71.44959915
_cell_angle_beta   90.00000000
_cell_angle_gamma   90.00000000
_symmetry_Int_Tables_number   1
_chemical_formula_structural   Li4Mn3Cr3O12
_chemical_formula_sum   'Li4 Mn3 Cr3 O12'
_cell_volume   222.43221654
_cell_formula_units_Z   1
loop_
 _symmetry_equiv_pos_site_id
 _symmetry_equiv_pos_as_xyz
  1  'x, y, z'
loop_
 _atom_site_type_symbol
 _atom_site_label
 _atom_site_symmetry_multiplicity
 _atom_site_fract_x
 _atom_site_fract_y
 _atom_site_fract_z
 _atom_site_occupancy
  Li  Li0  1  0.66967000  0.00000000  0.00000000  1
  Li  Li1  1  0.33033000  0.00000000  0.00000000  1
  Li  Li2  1  0.83196500  0.50000000  0.00000000  1
  Li  Li3  1  0.16803500  0.50000000  0.00000000  1
  Mn  Mn0  1  0.50000000  0.00000000  0.50000000  1
  Mn  Mn1  1  0.83611300  0.00000000  0.50000000  1
  Mn  Mn2  1  0.16388700  0.00000000  0.50000000  1
  Cr  Cr0  1  0.66620300  0.50000000  0.50000000  1
  Cr  Cr1  1  0.00000000  0.50000000  0.50000000  1
  Cr  Cr2  1  0.33379700  0.50000000  0.50000000  1
  O  O0  1  0.68321300  0.76878000  0.72012300  1
  O  O1  1  0.00000000  0.76473800  0.71220500  1
  O  O2  1  0.31678700  0.76878000  0.72012300  1
  O  O3  1  0.50000000  0.25017200  0.70954900  1
  O  O4  1  0.83078900  0.25985500  0.71050500  1
  O  O5  1  0.16921100  0.25985500  0.71050500  1
  O  O6  1  0.50000000  0.74982800  0.29045100  1
  O  O7  1  0.83078900  0.74014500  0.28949500  1
  O  O8  1  0.16921100  0.74014500  0.28949500  1
  O  O9  1  0.68321300  0.23122000  0.27987700  1
  O  O10  1  0.00000000  0.23526200  0.28779500  1
  O  O11  1  0.31678700  0.23122000  0.27987700  1
loop_
_geom_bond_atom_site_label_1
_geom_bond_atom_site_label_2
_geom_bond_distance
_geom_bond_site_symmetry_2
Li0 O9 2.136700 1_555
Li0 O0 2.136700 1_544
Li0 O4 2.190443 1_554
Li0 O7 2.190443 1_545
Li0 O6 2.225830 1_545
Li0 O3 2.225830 1_554
Li1 O2 2.136700 1_544
Li1 O11 2.136700 1_555
Li1 O5 2.190443 1_554
Li1 O8 2.190443 1_545
Li1 O6 2.225830 1_545
Li1 O3 2.225830 1_554
Li2 O9 2.113603 1_555
Li2 O0 2.113603 1_554
Li2 O4 2.210415 1_554
Li2 O7 2.210415 1_555
Li2 O10 2.236918 1_655
Li2 O1 2.236918 1_654
Li3 O11 2.113603 1_555
Li3 O2 2.113603 1_554
Li3 O5 2.210415 1_554
Li3 O8 2.210415 1_555
Li3 O10 2.236918 1_555
Li3 O1 2.236918 1_554
Mn0 O6 1.913699 1_545
Mn0 O3 1.913699 1_555
Mn0 O9 2.122710 1_555
Mn0 O2 2.122710 1_545
Mn0 O0 2.122710 1_545
Mn0 O11 2.122710 1_555
Mn1 O0 1.921335 1_545
Mn1 O9 1.921335 1_555
Mn1 O7 1.959765 1_545
Mn1 O4 1.959765 1_555
Mn1 O1 1.985762 1_645
Mn1 O10 1.985762 1_655
Mn2 O2 1.921335 1_545
Mn2 O11 1.921335 1_555
Mn2 O8 1.959765 1_545
Mn2 O5 1.959765 1_555
Mn2 O10 1.985762 1_555
Mn2 O1 1.985762 1_545
Cr0 O7 1.997957 1_555
Cr0 O4 1.997957 1_555
Cr0 O6 2.028849 1_555
Cr0 O3 2.028849 1_555
Cr0 O0 2.041657 1_555
Cr0 O9 2.041657 1_555
Cr1 O1 1.987049 1_555
Cr1 O10 1.987049 1_555
Cr1 O7 2.028602 1_455
Cr1 O8 2.028602 1_555
Cr1 O4 2.028602 1_455
Cr1 O5 2.028602 1_555
Cr2 O5 1.997957 1_555
Cr2 O8 1.997957 1_555
Cr2 O6 2.028849 1_555
Cr2 O3 2.028849 1_555
Cr2 O2 2.041657 1_555
Cr2 O11 2.041657 1_555
