# generated using pymatgen
data_Li3CuF6
_symmetry_space_group_name_H-M   'P 1'
_cell_length_a   7.42767100
_cell_length_b   7.42767100
_cell_length_c   7.42767100
_cell_angle_alpha   90.00000000
_cell_angle_beta   90.00000000
_cell_angle_gamma   90.00000000
_symmetry_Int_Tables_number   1
_chemical_formula_structural   Li3CuF6
_chemical_formula_sum   'Li12 Cu4 F24'
_cell_volume   409.78681126
_cell_formula_units_Z   4
loop_
 _symmetry_equiv_pos_site_id
 _symmetry_equiv_pos_as_xyz
  1  'x, y, z'
loop_
 _atom_site_type_symbol
 _atom_site_label
 _atom_site_symmetry_multiplicity
 _atom_site_fract_x
 _atom_site_fract_y
 _atom_site_fract_z
 _atom_site_occupancy
  Li  Li0  1  0.00000000  0.00000000  0.50000000  1
  Li  Li1  1  0.25000000  0.75000000  0.75000000  1
  Li  Li2  1  0.50000000  0.50000000  0.50000000  1
  Li  Li3  1  0.00000000  0.50000000  0.00000000  1
  Li  Li4  1  0.25000000  0.25000000  0.25000000  1
  Li  Li5  1  0.75000000  0.25000000  0.75000000  1
  Li  Li6  1  0.50000000  0.00000000  0.00000000  1
  Li  Li7  1  0.50000000  0.50000000  0.00000000  1
  Li  Li8  1  0.75000000  0.75000000  0.25000000  1
  Li  Li9  1  0.00000000  0.00000000  0.00000000  1
  Li  Li10  1  0.50000000  0.00000000  0.50000000  1
  Li  Li11  1  0.00000000  0.50000000  0.50000000  1
  Cu  Cu0  1  0.25000000  0.75000000  0.25000000  1
  Cu  Cu1  1  0.75000000  0.25000000  0.25000000  1
  Cu  Cu2  1  0.25000000  0.25000000  0.75000000  1
  Cu  Cu3  1  0.75000000  0.75000000  0.75000000  1
  F  F0  1  0.19578700  0.67936400  0.49279300  1
  F  F1  1  0.99279300  0.69578700  0.82063600  1
  F  F2  1  0.17936400  0.00720700  0.69578700  1
  F  F3  1  0.32063600  0.49279300  0.80421300  1
  F  F4  1  0.99279300  0.30421300  0.17936400  1
  F  F5  1  0.49279300  0.19578700  0.67936400  1
  F  F6  1  0.50720700  0.80421300  0.67936400  1
  F  F7  1  0.30421300  0.17936400  0.99279300  1
  F  F8  1  0.80421300  0.32063600  0.49279300  1
  F  F9  1  0.30421300  0.82063600  0.00720700  1
  F  F10  1  0.17936400  0.99279300  0.30421300  1
  F  F11  1  0.67936400  0.50720700  0.80421300  1
  F  F12  1  0.82063600  0.99279300  0.69578700  1
  F  F13  1  0.32063600  0.50720700  0.19578700  1
  F  F14  1  0.69578700  0.82063600  0.99279300  1
  F  F15  1  0.19578700  0.32063600  0.50720700  1
  F  F16  1  0.69578700  0.17936400  0.00720700  1
  F  F17  1  0.49279300  0.80421300  0.32063600  1
  F  F18  1  0.50720700  0.19578700  0.32063600  1
  F  F19  1  0.00720700  0.30421300  0.82063600  1
  F  F20  1  0.67936400  0.49279300  0.19578700  1
  F  F21  1  0.82063600  0.00720700  0.30421300  1
  F  F22  1  0.00720700  0.69578700  0.17936400  1
  F  F23  1  0.80421300  0.67936400  0.50720700  1
loop_
_geom_bond_atom_site_label_1
_geom_bond_atom_site_label_2
_geom_bond_distance
_geom_bond_site_symmetry_2
Cu0 F17 1.920838 1_555
Cu0 F0 1.920838 1_555
Cu0 F9 1.920838 1_555
Cu0 F22 1.920838 1_555
Cu0 F13 1.920838 1_555
Cu0 F10 1.920838 1_555
Cu1 F8 1.920838 1_555
Cu1 F20 1.920838 1_555
Cu1 F16 1.920838 1_555
Cu1 F18 1.920838 1_555
Cu1 F21 1.920838 1_555
Cu1 F4 1.920838 1_555
Cu2 F3 1.920838 1_555
Cu2 F5 1.920838 1_555
Cu2 F2 1.920838 1_555
Cu2 F15 1.920838 1_555
Cu2 F19 1.920838 1_555
Cu2 F7 1.920838 1_555
Cu3 F1 1.920838 1_555
Cu3 F6 1.920838 1_555
Cu3 F12 1.920838 1_555
Cu3 F14 1.920838 1_555
Cu3 F11 1.920838 1_555
Cu3 F23 1.920838 1_555
F0 Li11 1.972965 1_555
F0 Li1 2.021691 1_555
F0 Li2 2.623650 1_555
F1 Li3 1.972965 1_656
F1 Li1 2.021691 1_655
F1 Li9 2.623650 1_666
F2 Li0 1.972965 1_555
F2 Li1 2.021691 1_545
F2 Li9 2.623650 1_556
F3 Li7 1.972965 1_556
F3 Li1 2.021691 1_555
F3 Li2 2.623650 1_555
F4 Li3 1.972965 1_655
F4 Li4 2.021691 1_655
F4 Li9 2.623650 1_655
F5 Li10 1.972965 1_555
F5 Li5 2.021691 1_555
F5 Li2 2.623650 1_555
F6 Li10 1.972965 1_565
F6 Li1 2.021691 1_555
F6 Li2 2.623650 1_555
F7 Li6 1.972965 1_556
F7 Li4 2.021691 1_556
F7 Li9 2.623650 1_556
F8 Li11 1.972965 1_655
F8 Li5 2.021691 1_555
F8 Li2 2.623650 1_555
F9 Li6 1.972965 1_565
F9 Li1 2.021691 1_554
F9 Li9 2.623650 1_565
F10 Li0 1.972965 1_565
F10 Li4 2.021691 1_565
F10 Li9 2.623650 1_565
F11 Li7 1.972965 1_556
F11 Li5 2.021691 1_555
F11 Li2 2.623650 1_555
F12 Li0 1.972965 1_665
F12 Li5 2.021691 1_565
F12 Li9 2.623650 1_666
F13 Li7 1.972965 1_555
F13 Li4 2.021691 1_555
F13 Li2 2.623650 1_555
F14 Li6 1.972965 1_566
F14 Li8 2.021691 1_556
F14 Li9 2.623650 1_666
F15 Li11 1.972965 1_555
F15 Li4 2.021691 1_555
F15 Li2 2.623650 1_555
F16 Li6 1.972965 1_555
F16 Li5 2.021691 1_554
F16 Li9 2.623650 1_655
F17 Li10 1.972965 1_565
F17 Li8 2.021691 1_555
F17 Li2 2.623650 1_555
F18 Li10 1.972965 1_555
F18 Li4 2.021691 1_555
F18 Li2 2.623650 1_555
F19 Li3 1.972965 1_556
F19 Li5 2.021691 1_455
F19 Li9 2.623650 1_556
F20 Li7 1.972965 1_555
F20 Li8 2.021691 1_555
F20 Li2 2.623650 1_555
F21 Li0 1.972965 1_655
F21 Li8 2.021691 1_545
F21 Li9 2.623650 1_655
F22 Li3 1.972965 1_555
F22 Li8 2.021691 1_455
F22 Li9 2.623650 1_565
F23 Li11 1.972965 1_655
F23 Li8 2.021691 1_555
F23 Li2 2.623650 1_555
