# generated using pymatgen
data_Li5Mn3(FeO5)2
_symmetry_space_group_name_H-M   'P 1'
_cell_length_a   5.22235300
_cell_length_b   5.23426869
_cell_length_c   7.81613418
_cell_angle_alpha   103.63820450
_cell_angle_beta   108.37758060
_cell_angle_gamma   99.41813047
_symmetry_Int_Tables_number   1
_chemical_formula_structural   Li5Mn3(FeO5)2
_chemical_formula_sum   'Li5 Mn3 Fe2 O10'
_cell_volume   190.36892146
_cell_formula_units_Z   1
loop_
 _symmetry_equiv_pos_site_id
 _symmetry_equiv_pos_as_xyz
  1  'x, y, z'
loop_
 _atom_site_type_symbol
 _atom_site_label
 _atom_site_symmetry_multiplicity
 _atom_site_fract_x
 _atom_site_fract_y
 _atom_site_fract_z
 _atom_site_occupancy
  Li  Li0  1  0.07906300  0.78931800  0.58546600  1
  Li  Li1  1  0.71924800  0.60515500  0.21811600  1
  Li  Li2  1  0.50000000  0.50000000  0.50000000  1
  Li  Li3  1  0.28075200  0.39484500  0.78188400  1
  Li  Li4  1  0.92093700  0.21068200  0.41453400  1
  Mn  Mn0  1  0.50000000  0.00000000  0.00000000  1
  Mn  Mn1  1  0.10500300  0.30239500  0.10288200  1
  Mn  Mn2  1  0.89499700  0.69760500  0.89711800  1
  Fe  Fe0  1  0.30285900  0.89756000  0.31208500  1
  Fe  Fe1  1  0.69714100  0.10244000  0.68791500  1
  O  O0  1  0.91262200  0.92576700  0.14349800  1
  O  O1  1  0.28462200  0.67654700  0.04084600  1
  O  O2  1  0.68587900  0.86458400  0.44968400  1
  O  O3  1  0.53014200  0.76893100  0.77184700  1
  O  O4  1  0.11258800  0.54345800  0.33471500  1
  O  O5  1  0.88741200  0.45654200  0.66528500  1
  O  O6  1  0.46985800  0.23106900  0.22815300  1
  O  O7  1  0.31412100  0.13541600  0.55031600  1
  O  O8  1  0.71537800  0.32345300  0.95915400  1
  O  O9  1  0.08737800  0.07423300  0.85650200  1
loop_
_geom_bond_atom_site_label_1
_geom_bond_atom_site_label_2
_geom_bond_distance
_geom_bond_site_symmetry_2
Li0 O7 2.140964 1_565
Li0 O2 2.141398 1_455
Li0 O4 2.151434 1_555
Li0 O5 2.181879 1_455
Li0 O9 2.268195 1_565
Li0 O3 2.382136 1_555
Li1 O2 2.065813 1_555
Li1 O4 2.080837 1_655
Li1 O0 2.110577 1_555
Li1 O8 2.197383 1_554
Li1 O6 2.199700 1_555
Li1 O1 2.397917 1_555
Li2 O5 2.110723 1_555
Li2 O4 2.110723 1_555
Li2 O2 2.174184 1_555
Li2 O7 2.174184 1_555
Li2 O3 2.197070 1_555
Li2 O6 2.197070 1_555
Li3 O7 2.065813 1_555
Li3 O5 2.080837 1_455
Li3 O9 2.110577 1_555
Li3 O1 2.197383 1_556
Li3 O3 2.199700 1_555
Li3 O8 2.397917 1_555
Li4 O2 2.140964 1_545
Li4 O7 2.141398 1_655
Li4 O5 2.151434 1_555
Li4 O4 2.181879 1_655
Li4 O0 2.268195 1_545
Li4 O6 2.382136 1_555
Mn0 O6 1.972277 1_555
Mn0 O3 1.972277 1_544
Mn0 O8 2.022754 1_554
Mn0 O1 2.022754 1_545
Mn0 O0 2.237841 1_545
Mn0 O9 2.237841 1_554
Mn1 O4 1.933214 1_555
Mn1 O9 1.977600 1_554
Mn1 O6 1.989334 1_555
Mn1 O8 2.026045 1_454
Mn1 O0 2.201026 1_445
Mn1 O1 2.254724 1_555
Mn2 O5 1.933214 1_555
Mn2 O0 1.977600 1_556
Mn2 O3 1.989334 1_555
Mn2 O1 2.026045 1_656
Mn2 O9 2.201026 1_665
Mn2 O8 2.254724 1_555
Fe0 O7 1.958173 1_565
Fe0 O2 2.007879 1_555
Fe0 O4 2.028956 1_555
Fe0 O0 2.099597 1_455
Fe0 O1 2.126493 1_555
Fe0 O6 2.154278 1_565
Fe1 O2 1.958173 1_545
Fe1 O7 2.007879 1_555
Fe1 O5 2.028956 1_555
Fe1 O9 2.099597 1_655
Fe1 O8 2.126493 1_555
Fe1 O3 2.154278 1_545
