# generated using pymatgen
data_Li7Mn4P9O32
_symmetry_space_group_name_H-M   'P 1'
_cell_length_a   13.58603700
_cell_length_b   13.58603700
_cell_length_c   6.60293800
_cell_angle_alpha   90.00000000
_cell_angle_beta   90.00000000
_cell_angle_gamma   90.00000000
_symmetry_Int_Tables_number   1
_chemical_formula_structural   Li7Mn4P9O32
_chemical_formula_sum   'Li14 Mn8 P18 O64'
_cell_volume   1218.77294623
_cell_formula_units_Z   2
loop_
 _symmetry_equiv_pos_site_id
 _symmetry_equiv_pos_as_xyz
  1  'x, y, z'
loop_
 _atom_site_type_symbol
 _atom_site_label
 _atom_site_symmetry_multiplicity
 _atom_site_fract_x
 _atom_site_fract_y
 _atom_site_fract_z
 _atom_site_occupancy
  Li  Li0  1  0.00000000  0.00000000  0.00000000  1
  Li  Li1  1  0.00000000  0.50000000  0.13798700  1
  Li  Li2  1  0.00000000  0.50000000  0.63798700  1
  Li  Li3  1  0.09176800  0.74188600  0.83746200  1
  Li  Li4  1  0.24188600  0.59176800  0.33746200  1
  Li  Li5  1  0.25811400  0.09176800  0.16253800  1
  Li  Li6  1  0.40823200  0.24188600  0.66253800  1
  Li  Li7  1  0.50000000  0.50000000  0.50000000  1
  Li  Li8  1  0.50000000  0.00000000  0.36201300  1
  Li  Li9  1  0.50000000  0.00000000  0.86201300  1
  Li  Li10  1  0.59176800  0.75811400  0.66253800  1
  Li  Li11  1  0.74188600  0.90823200  0.16253800  1
  Li  Li12  1  0.75811400  0.40823200  0.33746200  1
  Li  Li13  1  0.90823200  0.25811400  0.83746200  1
  Mn  Mn0  1  0.11988600  0.19838200  0.61497400  1
  Mn  Mn1  1  0.19838200  0.88011400  0.38502600  1
  Mn  Mn2  1  0.30161800  0.38011400  0.11497400  1
  Mn  Mn3  1  0.38011400  0.69838200  0.88502600  1
  Mn  Mn4  1  0.61988600  0.30161800  0.88502600  1
  Mn  Mn5  1  0.69838200  0.61988600  0.11497400  1
  Mn  Mn6  1  0.80161800  0.11988600  0.38502600  1
  Mn  Mn7  1  0.88011400  0.80161800  0.61497400  1
  P  P0  1  0.00000000  0.00000000  0.50000000  1
  P  P1  1  0.06221900  0.69173000  0.38752300  1
  P  P2  1  0.10803400  0.24484900  0.12776900  1
  P  P3  1  0.19173000  0.56221900  0.88752300  1
  P  P4  1  0.24484900  0.89196600  0.87223100  1
  P  P5  1  0.25515100  0.39196600  0.62776900  1
  P  P6  1  0.30827000  0.06221900  0.61247700  1
  P  P7  1  0.39196600  0.74484900  0.37223100  1
  P  P8  1  0.43778100  0.19173000  0.11247700  1
  P  P9  1  0.50000000  0.50000000  0.00000000  1
  P  P10  1  0.56221900  0.80827000  0.11247700  1
  P  P11  1  0.60803400  0.25515100  0.37223100  1
  P  P12  1  0.69173000  0.93778100  0.61247700  1
  P  P13  1  0.74484900  0.60803400  0.62776900  1
  P  P14  1  0.75515100  0.10803400  0.87223100  1
  P  P15  1  0.80827000  0.43778100  0.88752300  1
  P  P16  1  0.89196600  0.75515100  0.12776900  1
  P  P17  1  0.93778100  0.30827000  0.38752300  1
  O  O0  1  0.00320700  0.72074000  0.18312000  1
  O  O1  1  0.01512700  0.74289600  0.57115100  1
  O  O2  1  0.06264400  0.06537600  0.64389000  1
  O  O3  1  0.06537600  0.93735600  0.35611000  1
  O  O4  1  0.06609800  0.58040600  0.39779900  1
  O  O5  1  0.08040600  0.56609800  0.89779900  1
  O  O6  1  0.09304200  0.19048500  0.92969300  1
  O  O7  1  0.14440600  0.17605600  0.29336200  1
  O  O8  1  0.16572300  0.73408400  0.34897200  1
  O  O9  1  0.16426200  0.34273300  0.10954800  1
  O  O10  1  0.15726700  0.33573800  0.60954800  1
  O  O11  1  0.17605600  0.85559400  0.70663800  1
  O  O12  1  0.19048500  0.90695800  0.07030700  1
  O  O13  1  0.22074000  0.50320700  0.68312000  1
  O  O14  1  0.23408400  0.66572300  0.84897200  1
  O  O15  1  0.24289600  0.51512700  0.07115100  1
  O  O16  1  0.25710400  0.01512700  0.42884900  1
  O  O17  1  0.26591600  0.16572300  0.65102800  1
  O  O18  1  0.27926000  0.00320700  0.81688000  1
  O  O19  1  0.30951500  0.40695800  0.42969300  1
  O  O20  1  0.32394400  0.35559400  0.79336200  1
  O  O21  1  0.34273300  0.83573800  0.89045200  1
  O  O22  1  0.33573800  0.84273300  0.39045200  1
  O  O23  1  0.33427700  0.23408400  0.15102800  1
  O  O24  1  0.35559400  0.67605600  0.20663800  1
  O  O25  1  0.40695800  0.69048500  0.57030700  1
  O  O26  1  0.41959400  0.06609800  0.60220100  1
  O  O27  1  0.43390200  0.08040600  0.10220100  1
  O  O28  1  0.43462400  0.43735600  0.14389000  1
  O  O29  1  0.43735600  0.56537600  0.85611000  1
  O  O30  1  0.48487300  0.24289600  0.92884900  1
  O  O31  1  0.49679300  0.22074000  0.31688000  1
  O  O32  1  0.50320700  0.77926000  0.31688000  1
  O  O33  1  0.51512700  0.75710400  0.92884900  1
  O  O34  1  0.56264400  0.43462400  0.85611000  1
  O  O35  1  0.56537600  0.56264400  0.14389000  1
  O  O36  1  0.56609800  0.91959400  0.10220100  1
  O  O37  1  0.58040600  0.93390200  0.60220100  1
  O  O38  1  0.59304200  0.30951500  0.57030700  1
  O  O39  1  0.64440600  0.32394400  0.20663800  1
  O  O40  1  0.66572300  0.76591600  0.15102800  1
  O  O41  1  0.66426200  0.15726700  0.39045200  1
  O  O42  1  0.65726700  0.16426200  0.89045200  1
  O  O43  1  0.67605600  0.64440600  0.79336200  1
  O  O44  1  0.69048500  0.59304200  0.42969300  1
  O  O45  1  0.72074000  0.99679300  0.81688000  1
  O  O46  1  0.73408400  0.83427700  0.65102800  1
  O  O47  1  0.74289600  0.98487300  0.42884900  1
  O  O48  1  0.75710400  0.48487300  0.07115100  1
  O  O49  1  0.76591600  0.33427700  0.84897200  1
  O  O50  1  0.77926000  0.49679300  0.68312000  1
  O  O51  1  0.80951500  0.09304200  0.07030700  1
  O  O52  1  0.82394400  0.14440600  0.70663800  1
  O  O53  1  0.84273300  0.66426200  0.60954800  1
  O  O54  1  0.83573800  0.65726700  0.10954800  1
  O  O55  1  0.83427700  0.26591600  0.34897200  1
  O  O56  1  0.85559400  0.82394400  0.29336200  1
  O  O57  1  0.90695800  0.80951500  0.92969300  1
  O  O58  1  0.91959400  0.43390200  0.89779900  1
  O  O59  1  0.93390200  0.41959400  0.39779900  1
  O  O60  1  0.93462400  0.06264400  0.35611000  1
  O  O61  1  0.93735600  0.93462400  0.64389000  1
  O  O62  1  0.98487300  0.25710400  0.57115100  1
  O  O63  1  0.99679300  0.27926000  0.18312000  1
loop_
_geom_bond_atom_site_label_1
_geom_bond_atom_site_label_2
_geom_bond_distance
_geom_bond_site_symmetry_2
Li0 O60 2.653714 1_455
Li0 O2 2.653714 1_554
Li0 O61 2.653714 1_444
Li0 O3 2.653714 1_545
Li1 O58 2.124849 1_454
Li1 O5 2.124849 1_554
Li1 O59 2.223235 1_455
Li1 O4 2.223235 1_555
Li2 O59 2.124849 1_455
Li2 O4 2.124849 1_555
Li2 O58 2.223235 1_455
Li2 O5 2.223235 1_555
Li3 O1 2.043643 1_555
Li3 O11 2.108096 1_555
Li3 O14 2.194300 1_555
Li3 O5 2.426180 1_555
Li3 O0 2.596029 1_556
Li4 O15 2.043643 1_555
Li4 O24 2.108096 1_555
Li4 O8 2.194300 1_555
Li4 O4 2.426180 1_555
Li4 O13 2.596029 1_555
Li5 O16 2.043643 1_555
Li5 O7 2.108096 1_555
Li5 O23 2.194300 1_555
Li5 O27 2.426180 1_555
Li5 O18 2.596029 1_554
Li6 O30 2.043643 1_555
Li6 O20 2.108096 1_555
Li6 O17 2.194300 1_555
Li6 O26 2.426180 1_555
Li6 O31 2.596029 1_555
Li7 O34 2.653714 1_555
Li7 O28 2.653714 1_555
Li7 O29 2.653714 1_555
Li7 O35 2.653714 1_555
Li8 O37 2.124849 1_545
Li8 O26 2.124849 1_555
Li8 O36 2.223235 1_545
Li8 O27 2.223235 1_555
Li9 O36 2.124849 1_546
Li9 O27 2.124849 1_556
Li9 O37 2.223235 1_545
Li9 O26 2.223235 1_555
Li10 O33 2.043643 1_555
Li10 O43 2.108096 1_555
Li10 O46 2.194300 1_555
Li10 O37 2.426180 1_555
Li10 O32 2.596029 1_555
Li11 O47 2.043643 1_555
Li11 O56 2.108096 1_555
Li11 O40 2.194300 1_555
Li11 O36 2.426180 1_555
Li11 O45 2.596029 1_554
Li12 O48 2.043643 1_555
Li12 O39 2.108096 1_555
Li12 O55 2.194300 1_555
Li12 O59 2.426180 1_555
Li12 O50 2.596029 1_555
Li13 O62 2.043643 1_555
Li13 O52 2.108096 1_555
Li13 O49 2.194300 1_555
Li13 O58 2.426180 1_555
Li13 O63 2.596029 1_556
Mn0 O10 1.934327 1_555
Mn0 O2 1.976511 1_555
Mn0 O62 2.021098 1_455
Mn0 O17 2.046871 1_555
Mn0 O6 2.112556 1_555
Mn0 O7 2.170850 1_555
Mn1 O22 1.934327 1_555
Mn1 O3 1.976511 1_555
Mn1 O16 2.021098 1_565
Mn1 O8 2.046871 1_555
Mn1 O12 2.112556 1_555
Mn1 O11 2.170850 1_555
Mn2 O9 1.934327 1_555
Mn2 O28 1.976511 1_555
Mn2 O15 2.021098 1_555
Mn2 O23 2.046871 1_555
Mn2 O19 2.112556 1_555
Mn2 O20 2.170850 1_554
Mn3 O21 1.934327 1_555
Mn3 O29 1.976511 1_555
Mn3 O33 2.021098 1_555
Mn3 O14 2.046871 1_555
Mn3 O25 2.112556 1_555
Mn3 O24 2.170850 1_556
Mn4 O42 1.934327 1_555
Mn4 O34 1.976511 1_555
Mn4 O30 2.021098 1_555
Mn4 O49 2.046871 1_555
Mn4 O38 2.112556 1_555
Mn4 O39 2.170850 1_556
Mn5 O54 1.934327 1_555
Mn5 O35 1.976511 1_555
Mn5 O48 2.021098 1_555
Mn5 O40 2.046871 1_555
Mn5 O44 2.112556 1_555
Mn5 O43 2.170850 1_554
Mn6 O41 1.934327 1_555
Mn6 O60 1.976511 1_555
Mn6 O47 2.021098 1_545
Mn6 O55 2.046871 1_555
Mn6 O51 2.112556 1_555
Mn6 O52 2.170850 1_555
Mn7 O53 1.934327 1_555
Mn7 O61 1.976511 1_555
Mn7 O1 2.021098 1_655
Mn7 O46 2.046871 1_555
Mn7 O57 2.112556 1_555
Mn7 O56 2.170850 1_555
O0 P1 1.618551 1_555
O0 P16 1.623651 1_455
O1 P1 1.537101 1_555
O2 P0 1.554326 1_555
O3 P0 1.554326 1_565
O4 P1 1.514890 1_555
O5 P3 1.514890 1_555
O6 P2 1.515771 1_556
O7 P2 1.520931 1_555
O8 P1 1.540562 1_555
O9 P2 1.538362 1_555
O10 P5 1.538362 1_555
O11 P4 1.520931 1_555
O12 P4 1.515771 1_554
O13 P3 1.618551 1_555
O13 P5 1.623651 1_555
O14 P3 1.540562 1_555
O15 P3 1.537101 1_554
O16 P6 1.537101 1_555
O17 P6 1.540562 1_555
O18 P6 1.618551 1_555
O18 P4 1.623651 1_545
O19 P5 1.515771 1_555
O20 P5 1.520931 1_555
O21 P4 1.538362 1_555
O22 P7 1.538362 1_555
O23 P8 1.540562 1_555
O24 P7 1.520931 1_555
O25 P7 1.515771 1_555
O26 P6 1.514890 1_555
O27 P8 1.514890 1_555
O28 P9 1.554326 1_555
O29 P9 1.554326 1_556
O30 P8 1.537101 1_556
O31 P8 1.618551 1_555
O31 P11 1.623651 1_555
O32 P10 1.618551 1_555
O32 P7 1.623651 1_555
O33 P10 1.537101 1_556
O34 P9 1.554326 1_556
O35 P9 1.554326 1_555
O36 P10 1.514890 1_555
O37 P12 1.514890 1_555
O38 P11 1.515771 1_555
O39 P11 1.520931 1_555
O40 P10 1.540562 1_555
O41 P11 1.538362 1_555
O42 P14 1.538362 1_555
O43 P13 1.520931 1_555
O44 P13 1.515771 1_555
O45 P12 1.618551 1_555
O45 P14 1.623651 1_565
O46 P12 1.540562 1_555
O47 P12 1.537101 1_555
O48 P15 1.537101 1_554
O49 P15 1.540562 1_555
O50 P15 1.618551 1_555
O50 P13 1.623651 1_555
O51 P14 1.515771 1_554
O52 P14 1.520931 1_555
O53 P13 1.538362 1_555
O54 P16 1.538362 1_555
O55 P17 1.540562 1_555
O56 P16 1.520931 1_555
O57 P16 1.515771 1_556
O58 P15 1.514890 1_555
O59 P17 1.514890 1_555
O60 P0 1.554326 1_655
O61 P0 1.554326 1_665
O62 P17 1.537101 1_555
O63 P17 1.618551 1_555
O63 P2 1.623651 1_655
