# generated using pymatgen
data_Li6MnFe5(BO3)6
_symmetry_space_group_name_H-M   'P 1'
_cell_length_a   6.28056700
_cell_length_b   8.23583000
_cell_length_c   8.24281345
_cell_angle_alpha   60.07769431
_cell_angle_beta   90.00000000
_cell_angle_gamma   90.00000000
_symmetry_Int_Tables_number   1
_chemical_formula_structural   Li6MnFe5(BO3)6
_chemical_formula_sum   'Li6 Mn1 Fe5 B6 O18'
_cell_volume   369.53179038
_cell_formula_units_Z   1
loop_
 _symmetry_equiv_pos_site_id
 _symmetry_equiv_pos_as_xyz
  1  'x, y, z'
loop_
 _atom_site_type_symbol
 _atom_site_label
 _atom_site_symmetry_multiplicity
 _atom_site_fract_x
 _atom_site_fract_y
 _atom_site_fract_z
 _atom_site_occupancy
  Li  Li0  1  0.74950500  0.71516400  0.30205600  1
  Li  Li1  1  0.25049500  0.71516400  0.30205600  1
  Li  Li2  1  0.75059700  0.98417900  0.71410600  1
  Li  Li3  1  0.24940300  0.98417900  0.71410600  1
  Li  Li4  1  0.25071600  0.30168600  0.98378500  1
  Li  Li5  1  0.74928400  0.30168600  0.98378500  1
  Mn  Mn0  1  0.00000000  0.62677100  0.01284200  1
  Fe  Fe0  1  0.50000000  0.63304000  0.00720500  1
  Fe  Fe1  1  0.00000000  0.35923900  0.63293600  1
  Fe  Fe2  1  0.50000000  0.36005900  0.63171400  1
  Fe  Fe3  1  0.00000000  0.00793700  0.35899300  1
  Fe  Fe4  1  0.50000000  0.00801900  0.36033600  1
  B  B0  1  0.00000000  0.00209600  0.99826000  1
  B  B1  1  0.50000000  0.99985600  0.00007000  1
  B  B2  1  0.74824900  0.66657800  0.66551200  1
  B  B3  1  0.25175100  0.66657800  0.66551200  1
  B  B4  1  0.74844700  0.33209100  0.33501500  1
  B  B5  1  0.25155300  0.33209100  0.33501500  1
  O  O0  1  0.50000000  0.89063900  0.19428900  1
  O  O1  1  0.00000000  0.89068100  0.19262300  1
  O  O2  1  0.75009200  0.86076000  0.55754700  1
  O  O3  1  0.24990800  0.86076000  0.55754700  1
  O  O4  1  0.00000000  0.92040500  0.88626500  1
  O  O5  1  0.50000000  0.91503700  0.89075200  1
  O  O6  1  0.74992200  0.55823800  0.57980800  1
  O  O7  1  0.25007800  0.55823800  0.57980800  1
  O  O8  1  0.74609700  0.58079800  0.85920700  1
  O  O9  1  0.25390300  0.58079800  0.85920700  1
  O  O10  1  0.74667800  0.52669300  0.22091200  1
  O  O11  1  0.25332200  0.52669300  0.22091200  1
  O  O12  1  0.00000000  0.19651100  0.91640800  1
  O  O13  1  0.50000000  0.19416700  0.91520600  1
  O  O14  1  0.74961500  0.21840200  0.25461800  1
  O  O15  1  0.25038500  0.21840200  0.25461800  1
  O  O16  1  0.25002800  0.25318500  0.52848500  1
  O  O17  1  0.74997200  0.25318500  0.52848500  1
loop_
_geom_bond_atom_site_label_1
_geom_bond_atom_site_label_2
_geom_bond_distance
_geom_bond_site_symmetry_2
Li0 O10 1.973023 1_555
Li0 O6 1.989971 1_555
Li0 O0 2.013078 1_555
Li0 O1 2.019278 1_655
Li1 O11 1.973023 1_555
Li1 O7 1.989971 1_555
Li1 O0 2.013078 1_555
Li1 O1 2.019278 1_555
Li2 O17 1.966622 1_565
Li2 O4 1.999908 1_655
Li2 O2 2.001798 1_555
Li2 O5 2.023441 1_555
Li3 O16 1.966622 1_565
Li3 O4 1.999908 1_555
Li3 O3 2.001798 1_555
Li3 O5 2.023441 1_555
Li4 O15 1.981554 1_556
Li4 O9 1.996004 1_555
Li4 O12 2.004539 1_555
Li4 O13 2.013530 1_555
Li5 O14 1.981554 1_556
Li5 O8 1.996004 1_555
Li5 O12 2.004539 1_655
Li5 O13 2.013530 1_555
Mn0 O4 2.102290 1_554
Mn0 O11 2.177581 1_555
Mn0 O10 2.177581 1_455
Mn0 O9 2.183660 1_554
Mn0 O8 2.183660 1_454
Fe0 O5 2.022674 1_554
Fe0 O8 2.141480 1_554
Fe0 O9 2.141480 1_554
Fe0 O10 2.175131 1_555
Fe0 O11 2.175131 1_555
Fe1 O12 2.032660 1_555
Fe1 O7 2.151439 1_555
Fe1 O6 2.151439 1_455
Fe1 O16 2.172627 1_555
Fe1 O17 2.172627 1_455
Fe2 O13 2.035198 1_555
Fe2 O6 2.148058 1_555
Fe2 O7 2.148058 1_555
Fe2 O17 2.170429 1_555
Fe2 O16 2.170429 1_555
Fe3 O1 2.033324 1_545
Fe3 O2 2.152260 1_445
Fe3 O3 2.152260 1_545
Fe3 O14 2.174828 1_455
Fe3 O15 2.174828 1_555
Fe4 O0 2.031727 1_545
Fe4 O3 2.147945 1_545
Fe4 O2 2.147945 1_545
Fe4 O14 2.170936 1_555
Fe4 O15 2.170936 1_555
B0 O4 1.387262 1_545
B0 O12 1.393267 1_555
B0 O1 1.393584 1_546
B1 O5 1.388495 1_554
B1 O13 1.390506 1_564
B1 O0 1.391179 1_555
B2 O8 1.386757 1_555
B2 O6 1.387145 1_555
B2 O2 1.389185 1_555
B3 O9 1.386757 1_555
B3 O7 1.387145 1_555
B3 O3 1.389185 1_555
B4 O17 1.389848 1_555
B4 O14 1.391030 1_555
B4 O10 1.396260 1_555
B5 O16 1.389848 1_555
B5 O15 1.391030 1_555
B5 O11 1.396260 1_555
