# generated using pymatgen
data_Na3Ni2P2(CO7)2
_symmetry_space_group_name_H-M   'P 1'
_cell_length_a   10.27133845
_cell_length_b   10.51778248
_cell_length_c   6.49256100
_cell_angle_alpha   90.00000000
_cell_angle_beta   90.00000000
_cell_angle_gamma   59.52190645
_symmetry_Int_Tables_number   1
_chemical_formula_structural   Na3Ni2P2(CO7)2
_chemical_formula_sum   'Na6 Ni4 P4 C4 O28'
_cell_volume   604.48484717
_cell_formula_units_Z   2
loop_
 _symmetry_equiv_pos_site_id
 _symmetry_equiv_pos_as_xyz
  1  'x, y, z'
loop_
 _atom_site_type_symbol
 _atom_site_label
 _atom_site_symmetry_multiplicity
 _atom_site_fract_x
 _atom_site_fract_y
 _atom_site_fract_z
 _atom_site_occupancy
  Na  Na0  1  0.00267300  0.24811600  0.03864800  1
  Na  Na1  1  0.49665000  0.25695900  0.98710400  1
  Na  Na2  1  0.49634800  0.25598400  0.51544500  1
  Na  Na3  1  0.50267300  0.74811600  0.46135200  1
  Na  Na4  1  0.99634800  0.75598400  0.98455500  1
  Na  Na5  1  0.99665000  0.75695900  0.51289600  1
  Ni  Ni0  1  0.27820200  0.06829000  0.74560000  1
  Ni  Ni1  1  0.21508500  0.43225900  0.24991600  1
  Ni  Ni2  1  0.77820200  0.56829000  0.75440000  1
  Ni  Ni3  1  0.71508500  0.93225900  0.25008400  1
  P  P0  1  0.35265200  0.07032100  0.25155300  1
  P  P1  1  0.14335300  0.42810800  0.75018500  1
  P  P2  1  0.85265200  0.57032100  0.24844700  1
  P  P3  1  0.64335300  0.92810800  0.74981500  1
  C  C0  1  0.81775600  0.09982400  0.25241400  1
  C  C1  1  0.31775600  0.59982400  0.24758600  1
  C  C2  1  0.68468700  0.39444900  0.74646500  1
  C  C3  1  0.18468700  0.89444900  0.75353500  1
  O  O0  1  0.09830200  0.03716700  0.76078600  1
  O  O1  1  0.26761500  0.06363800  0.06022900  1
  O  O2  1  0.27603500  0.04992000  0.44426800  1
  O  O3  1  0.14191500  0.28218300  0.75680800  1
  O  O4  1  0.02005900  0.44073300  0.24608100  1
  O  O5  1  0.47782200  0.06251800  0.75001700  1
  O  O6  1  0.35787000  0.21541700  0.25556800  1
  O  O7  1  0.23080600  0.44051600  0.93683600  1
  O  O8  1  0.22929600  0.43954500  0.56191200  1
  O  O9  1  0.67247400  0.14637300  0.25206900  1
  O  O10  1  0.17247400  0.64637300  0.24793100  1
  O  O11  1  0.40264700  0.45617400  0.24881900  1
  O  O12  1  0.63459200  0.30677100  0.74871800  1
  O  O13  1  0.13459200  0.80677100  0.75128200  1
  O  O14  1  0.86816500  0.18539800  0.25324400  1
  O  O15  1  0.36816500  0.68539800  0.24675600  1
  O  O16  1  0.59830200  0.53716700  0.73921400  1
  O  O17  1  0.82814800  0.35147300  0.75300700  1
  O  O18  1  0.32814800  0.85147300  0.74699300  1
  O  O19  1  0.77603500  0.54992000  0.05573200  1
  O  O20  1  0.76761500  0.56363800  0.43977100  1
  O  O21  1  0.64191500  0.78218300  0.74319200  1
  O  O22  1  0.52005900  0.94073300  0.25391900  1
  O  O23  1  0.97782200  0.56251800  0.74998300  1
  O  O24  1  0.85787000  0.71541700  0.24443200  1
  O  O25  1  0.73080600  0.94051600  0.56316400  1
  O  O26  1  0.72929600  0.93954500  0.93808800  1
  O  O27  1  0.90264700  0.95617400  0.25118100  1
loop_
_geom_bond_atom_site_label_1
_geom_bond_atom_site_label_2
_geom_bond_distance
_geom_bond_site_symmetry_2
Na0 O14 2.282460 1_455
Na0 O1 2.415292 1_555
Na0 O17 2.420269 1_454
Na0 O3 2.458069 1_554
Na0 O4 2.513357 1_555
Na0 O0 2.632738 1_554
Na0 O19 2.830479 1_455
Na1 O12 2.330330 1_555
Na1 O9 2.333005 1_556
Na1 O6 2.427499 1_556
Na1 O7 2.437648 1_555
Na1 O11 2.481445 1_556
Na1 O5 2.643943 1_555
Na2 O12 2.316215 1_555
Na2 O9 2.325972 1_555
Na2 O6 2.380682 1_555
Na2 O8 2.443417 1_555
Na2 O11 2.510104 1_555
Na2 O5 2.624688 1_555
Na3 O15 2.282460 1_555
Na3 O20 2.415292 1_555
Na3 O18 2.420269 1_555
Na3 O21 2.458069 1_555
Na3 O22 2.513357 1_555
Na3 O16 2.632738 1_555
Na3 O2 2.830479 1_565
Na4 O13 2.316215 1_655
Na4 O10 2.325972 1_656
Na4 O24 2.380682 1_556
Na4 O26 2.443417 1_555
Na4 O27 2.510104 1_556
Na4 O23 2.624688 1_555
Na5 O13 2.330330 1_655
Na5 O10 2.333005 1_655
Na5 O24 2.427499 1_555
Na5 O25 2.437648 1_555
Na5 O27 2.481445 1_555
Na5 O23 2.643943 1_555
Ni0 O3 1.957375 1_555
Ni0 O2 1.967169 1_555
Ni0 O5 2.020454 1_555
Ni0 O0 2.035899 1_555
Ni0 O1 2.047544 1_556
Ni0 O18 2.068063 1_545
Ni1 O4 1.959636 1_555
Ni1 O6 1.990161 1_555
Ni1 O8 2.035140 1_555
Ni1 O7 2.044425 1_554
Ni1 O10 2.064800 1_555
Ni1 O11 2.065512 1_555
Ni2 O21 1.957375 1_555
Ni2 O19 1.967169 1_556
Ni2 O23 2.020454 1_555
Ni2 O16 2.035899 1_555
Ni2 O20 2.047544 1_555
Ni2 O17 2.068063 1_555
Ni3 O22 1.959636 1_555
Ni3 O24 1.990161 1_555
Ni3 O26 2.035140 1_554
Ni3 O25 2.044425 1_555
Ni3 O9 2.064800 1_565
Ni3 O27 2.065512 1_555
C0 O14 1.245366 1_555
C0 O27 1.306411 1_545
C0 O9 1.313531 1_555
C1 O15 1.245366 1_555
C1 O11 1.306411 1_555
C1 O10 1.313531 1_555
C2 O12 1.263615 1_555
C2 O16 1.300630 1_555
C2 O17 1.304519 1_555
C3 O13 1.263615 1_555
C3 O0 1.300630 1_565
C3 O18 1.304519 1_555
O1 P0 1.540501 1_555
O2 P0 1.549896 1_555
O3 P1 1.542951 1_555
O4 P2 1.561148 1_455
O5 P3 1.565582 1_545
O6 P0 1.554178 1_555
O7 P1 1.552863 1_555
O8 P1 1.547783 1_555
O19 P2 1.549896 1_555
O20 P2 1.540501 1_555
O21 P3 1.542951 1_555
O22 P0 1.561148 1_565
O23 P1 1.565582 1_655
O24 P2 1.554178 1_555
O25 P3 1.552863 1_555
O26 P3 1.547783 1_555
