# generated using pymatgen
data_Li2TiCo2O5
_symmetry_space_group_name_H-M   'P 1'
_cell_length_a   7.90750393
_cell_length_b   7.90750393
_cell_length_c   5.11582338
_cell_angle_alpha   84.18918119
_cell_angle_beta   84.18918119
_cell_angle_gamma   142.53162867
_symmetry_Int_Tables_number   1
_chemical_formula_structural   Li2TiCo2O5
_chemical_formula_sum   'Li4 Ti2 Co4 O10'
_cell_volume   184.67261132
_cell_formula_units_Z   2
loop_
 _symmetry_equiv_pos_site_id
 _symmetry_equiv_pos_as_xyz
  1  'x, y, z'
loop_
 _atom_site_type_symbol
 _atom_site_label
 _atom_site_symmetry_multiplicity
 _atom_site_fract_x
 _atom_site_fract_y
 _atom_site_fract_z
 _atom_site_occupancy
  Li  Li0  1  0.74969100  0.25030900  0.75000000  1
  Li  Li1  1  0.55217900  0.44782100  0.75000000  1
  Li  Li2  1  0.25030900  0.74969100  0.25000000  1
  Li  Li3  1  0.44782100  0.55217900  0.25000000  1
  Ti  Ti0  1  0.64764500  0.35235500  0.25000000  1
  Ti  Ti1  1  0.35235500  0.64764500  0.75000000  1
  Co  Co0  1  0.15153200  0.84846800  0.75000000  1
  Co  Co1  1  0.95117000  0.04883000  0.75000000  1
  Co  Co2  1  0.84846800  0.15153200  0.25000000  1
  Co  Co3  1  0.04883000  0.95117000  0.25000000  1
  O  O0  1  0.58845700  0.88590800  0.98312500  1
  O  O1  1  0.88590800  0.58845700  0.48312500  1
  O  O2  1  0.00000000  0.50000000  0.00000000  1
  O  O3  1  0.68399900  0.79614700  0.50999700  1
  O  O4  1  0.79614700  0.68399900  0.00999700  1
  O  O5  1  0.41154300  0.11409200  0.01687500  1
  O  O6  1  0.20385300  0.31600100  0.99000300  1
  O  O7  1  0.11409200  0.41154300  0.51687500  1
  O  O8  1  0.50000000  0.00000000  0.50000000  1
  O  O9  1  0.31600100  0.20385300  0.49000300  1
loop_
_geom_bond_atom_site_label_1
_geom_bond_atom_site_label_2
_geom_bond_distance
_geom_bond_site_symmetry_2
Li0 O2 2.066932 1_656
Li0 O8 2.066932 1_555
Li0 O0 2.124964 1_545
Li0 O7 2.124964 1_655
Li0 O1 2.136610 1_555
Li0 O5 2.136610 1_556
Li1 O9 2.069339 1_555
Li1 O4 2.069339 1_556
Li1 O5 2.090292 1_556
Li1 O1 2.090292 1_555
Li1 O6 2.163163 1_555
Li1 O3 2.163163 1_555
Li2 O2 2.066932 1_555
Li2 O8 2.066932 1_565
Li2 O1 2.124964 1_455
Li2 O5 2.124964 1_565
Li2 O7 2.136610 1_555
Li2 O0 2.136610 1_554
Li3 O3 2.069339 1_555
Li3 O6 2.069339 1_554
Li3 O7 2.090292 1_555
Li3 O0 2.090292 1_554
Li3 O9 2.163163 1_555
Li3 O4 2.163163 1_555
Co0 O2 2.097448 1_556
Co0 O8 2.097448 1_565
Co0 O4 2.109303 1_456
Co0 O9 2.109303 1_565
Co0 O1 2.190199 1_455
Co0 O5 2.190199 1_566
Co1 O3 2.069890 1_545
Co1 O6 2.069890 1_655
Co1 O7 2.106937 1_655
Co1 O0 2.106937 1_545
Co1 O4 2.207646 1_546
Co1 O9 2.207646 1_655
Co2 O2 2.097448 1_655
Co2 O8 2.097448 1_555
Co2 O3 2.109303 1_545
Co2 O6 2.109303 1_654
Co2 O0 2.190199 1_544
Co2 O7 2.190199 1_655
Co3 O4 2.069890 1_455
Co3 O9 2.069890 1_565
Co3 O5 2.106937 1_565
Co3 O1 2.106937 1_455
Co3 O6 2.207646 1_564
Co3 O3 2.207646 1_455
O0 Ti1 1.944196 1_555
O1 Ti0 1.944196 1_555
O2 Ti0 2.138781 1_455
O2 Ti1 2.138781 1_554
O3 Ti1 1.982809 1_555
O4 Ti0 1.982809 1_555
O5 Ti0 1.944196 1_555
O6 Ti1 1.982809 1_555
O7 Ti1 1.944196 1_555
O8 Ti1 2.138781 1_545
O8 Ti0 2.138781 1_555
O9 Ti0 1.982809 1_555
