# generated using pymatgen
data_Li3MnCr4O8
_symmetry_space_group_name_H-M   'P 1'
_cell_length_a   6.09592673
_cell_length_b   6.09592673
_cell_length_c   5.92213919
_cell_angle_alpha   61.20883515
_cell_angle_beta   61.20883515
_cell_angle_gamma   58.45453860
_symmetry_Int_Tables_number   1
_chemical_formula_structural   Li3MnCr4O8
_chemical_formula_sum   'Li3 Mn1 Cr4 O8'
_cell_volume   156.40093478
_cell_formula_units_Z   1
loop_
 _symmetry_equiv_pos_site_id
 _symmetry_equiv_pos_as_xyz
  1  'x, y, z'
loop_
 _atom_site_type_symbol
 _atom_site_label
 _atom_site_symmetry_multiplicity
 _atom_site_fract_x
 _atom_site_fract_y
 _atom_site_fract_z
 _atom_site_occupancy
  Li  Li0  1  0.00000000  0.50000000  0.50000000  1
  Li  Li1  1  0.00000000  0.00000000  0.50000000  1
  Li  Li2  1  0.50000000  0.00000000  0.50000000  1
  Mn  Mn0  1  0.50000000  0.50000000  0.00000000  1
  Cr  Cr0  1  0.50000000  0.50000000  0.50000000  1
  Cr  Cr1  1  0.00000000  0.00000000  0.00000000  1
  Cr  Cr2  1  0.00000000  0.50000000  0.00000000  1
  Cr  Cr3  1  0.50000000  0.00000000  0.00000000  1
  O  O0  1  0.74692500  0.74692500  0.76923700  1
  O  O1  1  0.74138800  0.22576900  0.76419900  1
  O  O2  1  0.22576900  0.74138800  0.76419900  1
  O  O3  1  0.23200200  0.23200200  0.77998100  1
  O  O4  1  0.76799800  0.76799800  0.22001900  1
  O  O5  1  0.77423100  0.25861200  0.23580100  1
  O  O6  1  0.25861200  0.77423100  0.23580100  1
  O  O7  1  0.25307500  0.25307500  0.23076300  1
loop_
_geom_bond_atom_site_label_1
_geom_bond_atom_site_label_2
_geom_bond_distance
_geom_bond_site_symmetry_2
Li0 O3 2.156464 1_555
Li0 O4 2.156464 1_455
Li0 O0 2.168101 1_455
Li0 O7 2.168101 1_555
Li0 O6 2.364339 1_555
Li0 O1 2.364339 1_455
Li1 O6 2.062885 1_545
Li1 O2 2.062885 1_545
Li1 O1 2.062885 1_455
Li1 O5 2.062885 1_455
Li1 O7 2.248079 1_555
Li1 O0 2.248079 1_445
Li2 O4 2.156464 1_545
Li2 O3 2.156464 1_555
Li2 O0 2.168101 1_545
Li2 O7 2.168101 1_555
Li2 O5 2.364339 1_555
Li2 O2 2.364339 1_545
Mn0 O5 2.145997 1_555
Mn0 O6 2.145997 1_555
Mn0 O1 2.145997 1_554
Mn0 O2 2.145997 1_554
Mn0 O0 2.192477 1_554
Mn0 O7 2.192477 1_555
Cr0 O6 2.128908 1_555
Cr0 O5 2.128908 1_555
Cr0 O2 2.128908 1_555
Cr0 O1 2.128908 1_555
Cr0 O3 2.379369 1_555
Cr0 O4 2.379369 1_555
Cr1 O3 2.059341 1_554
Cr1 O4 2.059341 1_445
Cr1 O1 2.080516 1_454
Cr1 O2 2.080516 1_544
Cr1 O5 2.080516 1_455
Cr1 O6 2.080516 1_545
Cr2 O0 2.032958 1_454
Cr2 O7 2.032958 1_555
Cr2 O3 2.055409 1_554
Cr2 O4 2.055409 1_455
Cr2 O5 2.073146 1_455
Cr2 O2 2.073146 1_554
Cr3 O7 2.032958 1_555
Cr3 O0 2.032958 1_544
Cr3 O3 2.055409 1_554
Cr3 O4 2.055409 1_545
Cr3 O6 2.073146 1_545
Cr3 O1 2.073146 1_554
