# generated using pymatgen
data_Er2GeO5
_symmetry_space_group_name_H-M   'P 1'
_cell_length_a   7.00448600
_cell_length_b   6.73355500
_cell_length_c   9.23742114
_cell_angle_alpha   75.49144404
_cell_angle_beta   90.00000000
_cell_angle_gamma   90.00000000
_symmetry_Int_Tables_number   1
_chemical_formula_structural   Er2GeO5
_chemical_formula_sum   'Er8 Ge4 O20'
_cell_volume   421.78996324
_cell_formula_units_Z   4
loop_
 _symmetry_equiv_pos_site_id
 _symmetry_equiv_pos_as_xyz
  1  'x, y, z'
loop_
 _atom_site_type_symbol
 _atom_site_label
 _atom_site_symmetry_multiplicity
 _atom_site_fract_x
 _atom_site_fract_y
 _atom_site_fract_z
 _atom_site_occupancy
  Er  Er0  1  0.36397800  0.45780200  0.86438600  1
  Er  Er1  1  0.13602200  0.95780200  0.86438600  1
  Er  Er2  1  0.37227700  0.27087800  0.52772800  1
  Er  Er3  1  0.87227700  0.22912200  0.47227200  1
  Er  Er4  1  0.12772300  0.77087800  0.52772800  1
  Er  Er5  1  0.62772300  0.72912200  0.47227200  1
  Er  Er6  1  0.86397800  0.04219800  0.13561400  1
  Er  Er7  1  0.63602200  0.54219800  0.13561400  1
  Ge  Ge0  1  0.90713100  0.47378900  0.80189100  1
  Ge  Ge1  1  0.59286900  0.97378900  0.80189100  1
  Ge  Ge2  1  0.40713100  0.02621100  0.19810900  1
  Ge  Ge3  1  0.09286900  0.52621100  0.19810900  1
  O  O0  1  0.80180500  0.01013300  0.89188400  1
  O  O1  1  0.06527400  0.27844200  0.89349800  1
  O  O2  1  0.41311600  0.17353500  0.78321400  1
  O  O3  1  0.69819500  0.51013300  0.89188400  1
  O  O4  1  0.63749200  0.00880600  0.60529900  1
  O  O5  1  0.11470100  0.06943100  0.61036900  1
  O  O6  1  0.43472600  0.77844200  0.89349800  1
  O  O7  1  0.08688400  0.67353500  0.78321400  1
  O  O8  1  0.86250800  0.50880600  0.60529900  1
  O  O9  1  0.38529900  0.56943100  0.61036900  1
  O  O10  1  0.61470100  0.43056900  0.38963100  1
  O  O11  1  0.13749200  0.49119400  0.39470100  1
  O  O12  1  0.91311600  0.32646500  0.21678600  1
  O  O13  1  0.56527400  0.22155800  0.10650200  1
  O  O14  1  0.88529900  0.93056900  0.38963100  1
  O  O15  1  0.36250800  0.99119400  0.39470100  1
  O  O16  1  0.30180500  0.48986700  0.10811600  1
  O  O17  1  0.58688400  0.82646500  0.21678600  1
  O  O18  1  0.93472600  0.72155800  0.10650200  1
  O  O19  1  0.19819500  0.98986700  0.10811600  1
loop_
_geom_bond_atom_site_label_1
_geom_bond_atom_site_label_2
_geom_bond_distance
_geom_bond_site_symmetry_2
Er0 O2 2.250269 1_555
Er0 O9 2.282424 1_555
Er0 O6 2.295711 1_555
Er0 O16 2.355589 1_556
Er0 O3 2.390377 1_555
Er0 O1 2.397036 1_555
Er0 O7 2.427707 1_555
Er0 O13 2.781723 1_556
Er1 O7 2.250269 1_555
Er1 O5 2.282424 1_565
Er1 O1 2.295711 1_565
Er1 O19 2.355589 1_556
Er1 O0 2.390377 1_465
Er1 O6 2.397036 1_555
Er1 O2 2.427707 1_565
Er1 O18 2.781723 1_456
Er2 O10 2.231514 1_555
Er2 O5 2.271340 1_555
Er2 O2 2.303504 1_555
Er2 O9 2.324096 1_555
Er2 O11 2.345624 1_555
Er2 O15 2.494178 1_545
Er2 O4 2.538699 1_555
Er3 O5 2.231514 1_655
Er3 O10 2.271340 1_555
Er3 O12 2.303504 1_555
Er3 O14 2.324096 1_545
Er3 O4 2.345624 1_555
Er3 O8 2.494178 1_555
Er3 O11 2.538699 1_655
Er4 O14 2.231514 1_455
Er4 O9 2.271340 1_555
Er4 O7 2.303504 1_555
Er4 O5 2.324096 1_565
Er4 O15 2.345624 1_555
Er4 O11 2.494178 1_555
Er4 O8 2.538699 1_455
Er5 O9 2.231514 1_555
Er5 O14 2.271340 1_555
Er5 O17 2.303504 1_555
Er5 O10 2.324096 1_555
Er5 O8 2.345624 1_555
Er5 O4 2.494178 1_565
Er5 O15 2.538699 1_555
Er6 O12 2.250269 1_555
Er6 O14 2.282424 1_545
Er6 O18 2.295711 1_545
Er6 O0 2.355589 1_554
Er6 O19 2.390377 1_645
Er6 O13 2.397036 1_555
Er6 O17 2.427707 1_545
Er6 O1 2.781723 1_654
Er7 O17 2.250269 1_555
Er7 O10 2.282424 1_555
Er7 O13 2.295711 1_555
Er7 O3 2.355589 1_554
Er7 O16 2.390377 1_555
Er7 O18 2.397036 1_555
Er7 O12 2.427707 1_555
Er7 O6 2.781723 1_554
Ge0 O3 1.730517 1_555
Ge0 O1 1.765109 1_655
Ge0 O8 1.799059 1_555
Ge0 O7 1.818736 1_655
Ge1 O0 1.730517 1_565
Ge1 O6 1.765109 1_555
Ge1 O4 1.799059 1_565
Ge1 O2 1.818736 1_565
Ge2 O19 1.730517 1_545
Ge2 O13 1.765109 1_555
Ge2 O15 1.799059 1_545
Ge2 O17 1.818736 1_545
Ge3 O16 1.730517 1_555
Ge3 O18 1.765109 1_455
Ge3 O11 1.799059 1_555
Ge3 O12 1.818736 1_455
