# generated using pymatgen
data_Li4Mn3Co2Sb3O16
_symmetry_space_group_name_H-M   'P 1'
_cell_length_a   6.18074910
_cell_length_b   6.18074910
_cell_length_c   9.81489374
_cell_angle_alpha   89.30552553
_cell_angle_beta   89.30552553
_cell_angle_gamma   59.10335092
_symmetry_Int_Tables_number   1
_chemical_formula_structural   Li4Mn3Co2Sb3O16
_chemical_formula_sum   'Li4 Mn3 Co2 Sb3 O16'
_cell_volume   321.70737083
_cell_formula_units_Z   1
loop_
 _symmetry_equiv_pos_site_id
 _symmetry_equiv_pos_as_xyz
  1  'x, y, z'
loop_
 _atom_site_type_symbol
 _atom_site_label
 _atom_site_symmetry_multiplicity
 _atom_site_fract_x
 _atom_site_fract_y
 _atom_site_fract_z
 _atom_site_occupancy
  Li  Li0  1  0.66299300  0.66299300  0.12425400  1
  Li  Li1  1  0.98725900  0.98725900  0.00728500  1
  Li  Li2  1  0.99525800  0.99525800  0.49385600  1
  Li  Li3  1  0.32656700  0.32656700  0.60327500  1
  Mn  Mn0  1  0.83163200  0.83163200  0.78303900  1
  Mn  Mn1  1  0.16918900  0.66329100  0.28492600  1
  Mn  Mn2  1  0.66329100  0.16918900  0.28492600  1
  Co  Co0  1  0.67302700  0.67302700  0.48847000  1
  Co  Co1  1  0.34311100  0.34311100  0.01862700  1
  Sb  Sb0  1  0.33795600  0.83112500  0.78478900  1
  Sb  Sb1  1  0.83112500  0.33795600  0.78478900  1
  Sb  Sb2  1  0.17191400  0.17191400  0.28493700  1
  O  O0  1  0.32061900  0.84908800  0.39830800  1
  O  O1  1  0.51400100  0.51400100  0.66783900  1
  O  O2  1  0.65300900  0.65300900  0.90334400  1
  O  O3  1  0.01230300  0.01230300  0.67751800  1
  O  O4  1  0.01070800  0.01070800  0.18527800  1
  O  O5  1  0.84908800  0.32061900  0.39830800  1
  O  O6  1  0.51151900  0.96341900  0.67027300  1
  O  O7  1  0.96341900  0.51151900  0.67027300  1
  O  O8  1  0.15423800  0.15423800  0.89830500  1
  O  O9  1  0.84650500  0.84650500  0.38866200  1
  O  O10  1  0.03513400  0.48103600  0.16325700  1
  O  O11  1  0.48103600  0.03513400  0.16325700  1
  O  O12  1  0.32532700  0.32532700  0.40077400  1
  O  O13  1  0.16408300  0.68719700  0.89367800  1
  O  O14  1  0.47827700  0.47827700  0.17629300  1
  O  O15  1  0.68719700  0.16408300  0.89367800  1
loop_
_geom_bond_atom_site_label_1
_geom_bond_atom_site_label_2
_geom_bond_distance
_geom_bond_site_symmetry_2
Li0 O10 2.013996 1_655
Li0 O11 2.013996 1_565
Li0 O14 2.044038 1_555
Li0 O2 2.172358 1_554
Li1 O4 1.768560 1_665
Li1 O13 1.953539 1_654
Li1 O15 1.953539 1_564
Li1 O8 2.077194 1_664
Li2 O3 1.814457 1_665
Li2 O9 1.915917 1_555
Li2 O5 1.961807 1_565
Li2 O0 1.961807 1_655
Li3 O12 1.987756 1_555
Li3 O6 2.030882 1_545
Li3 O7 2.030882 1_455
Li3 O1 2.121229 1_555
Mn0 O6 2.044312 1_555
Mn0 O7 2.044312 1_555
Mn0 O13 2.084485 1_655
Mn0 O15 2.084485 1_565
Mn0 O3 2.188867 1_665
Mn0 O2 2.240655 1_555
Mn1 O14 1.957227 1_555
Mn1 O9 1.988973 1_455
Mn1 O4 2.083059 1_565
Mn1 O10 2.096812 1_555
Mn1 O12 2.118093 1_555
Mn1 O0 2.143171 1_555
Mn2 O14 1.957227 1_555
Mn2 O9 1.988973 1_545
Mn2 O4 2.083059 1_655
Mn2 O11 2.096812 1_555
Mn2 O12 2.118093 1_555
Mn2 O5 2.143171 1_555
Co0 O5 2.073829 1_555
Co0 O0 2.073829 1_555
Co0 O9 2.094926 1_555
Co0 O7 2.365664 1_555
Co0 O6 2.365664 1_555
Co0 O1 2.437164 1_555
Co1 O14 2.137757 1_555
Co1 O11 2.159289 1_555
Co1 O10 2.159289 1_555
Co1 O13 2.191842 1_554
Co1 O15 2.191842 1_554
Co1 O8 2.363588 1_554
O0 Sb2 2.037584 1_565
O1 Sb0 2.043856 1_555
O1 Sb1 2.043856 1_555
O2 Sb0 2.044524 1_555
O2 Sb1 2.044524 1_555
O3 Sb0 2.030222 1_545
O3 Sb1 2.030222 1_455
O4 Sb2 2.002269 1_555
O5 Sb2 2.037584 1_655
O6 Sb0 1.982927 1_555
O7 Sb1 1.982927 1_555
O8 Sb0 2.052661 1_545
O8 Sb1 2.052661 1_455
O10 Sb2 2.025281 1_555
O11 Sb2 2.025281 1_555
O12 Sb2 2.016537 1_555
O13 Sb0 2.004836 1_555
O15 Sb1 2.004836 1_555
