# generated using pymatgen
data_BaB2H10O9
_symmetry_space_group_name_H-M   'P 1'
_cell_length_a   8.79567300
_cell_length_b   6.73617100
_cell_length_c   17.93017569
_cell_angle_alpha   85.37403816
_cell_angle_beta   90.00000000
_cell_angle_gamma   90.00000000
_symmetry_Int_Tables_number   1
_chemical_formula_structural   BaB2H10O9
_chemical_formula_sum   'Ba4 B8 H40 O36'
_cell_volume   1058.88713579
_cell_formula_units_Z   4
loop_
 _symmetry_equiv_pos_site_id
 _symmetry_equiv_pos_as_xyz
  1  'x, y, z'
loop_
 _atom_site_type_symbol
 _atom_site_label
 _atom_site_symmetry_multiplicity
 _atom_site_fract_x
 _atom_site_fract_y
 _atom_site_fract_z
 _atom_site_occupancy
  Ba  Ba0  1  0.50707400  0.11671000  0.79444700  1
  Ba  Ba1  1  0.00707400  0.88329000  0.70555300  1
  Ba  Ba2  1  0.49292600  0.88329000  0.20555300  1
  Ba  Ba3  1  0.99292600  0.11671000  0.29444700  1
  B  B0  1  0.29378000  0.82907400  0.02670900  1
  B  B1  1  0.79378000  0.17092600  0.47329100  1
  B  B2  1  0.70622000  0.17092600  0.97329100  1
  B  B3  1  0.20622000  0.82907400  0.52670900  1
  B  B4  1  0.35309300  0.34287600  0.28061500  1
  B  B5  1  0.85309300  0.65712400  0.21938500  1
  B  B6  1  0.64690700  0.65712400  0.71938500  1
  B  B7  1  0.14690700  0.34287600  0.78061500  1
  H  H0  1  0.76200200  0.23919400  0.60820000  1
  H  H1  1  0.26200200  0.76080600  0.89180000  1
  H  H2  1  0.23799800  0.76080600  0.39180000  1
  H  H3  1  0.73799800  0.23919400  0.10820000  1
  H  H4  1  0.76779500  0.50345600  0.38180800  1
  H  H5  1  0.26779500  0.49654400  0.11819200  1
  H  H6  1  0.23220500  0.49654400  0.61819200  1
  H  H7  1  0.73220500  0.50345600  0.88180800  1
  H  H8  1  0.38828000  0.71938600  0.48167800  1
  H  H9  1  0.88828000  0.28061400  0.01832200  1
  H  H10  1  0.61172000  0.28061400  0.51832200  1
  H  H11  1  0.11172000  0.71938600  0.98167800  1
  H  H12  1  0.68321600  0.49612400  0.37781100  1
  H  H13  1  0.18321600  0.50387600  0.12218900  1
  H  H14  1  0.31678400  0.50387600  0.62218900  1
  H  H15  1  0.81678400  0.49612400  0.87781100  1
  H  H16  1  0.21201800  0.68874600  0.31408300  1
  H  H17  1  0.71201800  0.31125400  0.18591700  1
  H  H18  1  0.78798200  0.31125400  0.68591700  1
  H  H19  1  0.28798200  0.68874600  0.81408300  1
  H  H20  1  0.57436400  0.36716900  0.28952500  1
  H  H21  1  0.07436400  0.63283100  0.21047500  1
  H  H22  1  0.42563600  0.63283100  0.71047500  1
  H  H23  1  0.92563600  0.36716900  0.78952500  1
  H  H24  1  0.24531100  0.40636500  0.37035100  1
  H  H25  1  0.74531100  0.59363500  0.12964900  1
  H  H26  1  0.75468900  0.59363500  0.62964900  1
  H  H27  1  0.25468900  0.40636500  0.87035100  1
  H  H28  1  0.66108100  0.90760300  0.55057800  1
  H  H29  1  0.16108100  0.09239700  0.94942200  1
  H  H30  1  0.33891900  0.09239700  0.44942200  1
  H  H31  1  0.83891900  0.90760300  0.05057800  1
  H  H32  1  0.32092200  0.00275700  0.63376900  1
  H  H33  1  0.82092200  0.99724300  0.86623100  1
  H  H34  1  0.67907800  0.99724300  0.36623100  1
  H  H35  1  0.17907800  0.00275700  0.13376900  1
  H  H36  1  0.36925200  0.00915700  0.37247400  1
  H  H37  1  0.86925200  0.99084300  0.12752600  1
  H  H38  1  0.63074800  0.99084300  0.62752600  1
  H  H39  1  0.13074800  0.00915700  0.87247400  1
  O  O0  1  0.67173400  0.04363300  0.31184100  1
  O  O1  1  0.17173400  0.95636700  0.18815900  1
  O  O2  1  0.32826600  0.95636700  0.68815900  1
  O  O3  1  0.82826600  0.04363300  0.81184100  1
  O  O4  1  0.34951600  0.20758400  0.23018000  1
  O  O5  1  0.84951600  0.79241600  0.26982000  1
  O  O6  1  0.65048400  0.79241600  0.76982000  1
  O  O7  1  0.15048400  0.20758400  0.73018000  1
  O  O8  1  0.39514800  0.12062400  0.40189200  1
  O  O9  1  0.89514800  0.87937600  0.09810800  1
  O  O10  1  0.60485200  0.87937600  0.59810800  1
  O  O11  1  0.10485200  0.12062400  0.90189200  1
  O  O12  1  0.48515500  0.45253700  0.29327700  1
  O  O13  1  0.98515500  0.54746300  0.20672300  1
  O  O14  1  0.51484500  0.54746300  0.70672300  1
  O  O15  1  0.01484500  0.45253700  0.79327700  1
  O  O16  1  0.27208200  0.81326000  0.83821700  1
  O  O17  1  0.77208200  0.18674000  0.66178300  1
  O  O18  1  0.72791800  0.18674000  0.16178300  1
  O  O19  1  0.22791800  0.81326000  0.33821700  1
  O  O20  1  0.26588500  0.01112900  0.53648900  1
  O  O21  1  0.76588500  0.98887100  0.96351100  1
  O  O22  1  0.73411500  0.98887100  0.46351100  1
  O  O23  1  0.23411500  0.01112900  0.03648900  1
  O  O24  1  0.22127900  0.69155500  0.98191800  1
  O  O25  1  0.72127900  0.30844500  0.51808200  1
  O  O26  1  0.77872100  0.30844500  0.01808200  1
  O  O27  1  0.27872100  0.69155500  0.48191800  1
  O  O28  1  0.22011300  0.40782200  0.31717200  1
  O  O29  1  0.72011300  0.59217800  0.18282800  1
  O  O30  1  0.77988700  0.59217800  0.68282800  1
  O  O31  1  0.27988700  0.40782200  0.81717200  1
  O  O32  1  0.57149600  0.20235500  0.93867600  1
  O  O33  1  0.07149600  0.79764500  0.56132400  1
  O  O34  1  0.42850400  0.79764500  0.06132400  1
  O  O35  1  0.92850400  0.20235500  0.43867600  1
loop_
_geom_bond_atom_site_label_1
_geom_bond_atom_site_label_2
_geom_bond_distance
_geom_bond_site_symmetry_2
Ba0 O6 2.591083 1_545
Ba0 O32 2.753584 1_555
Ba0 O2 2.757547 1_545
Ba0 O31 2.851913 1_555
Ba0 O3 2.880280 1_555
Ba0 O16 2.967759 1_545
Ba0 O14 3.187784 1_555
Ba1 O7 2.591083 1_565
Ba1 O33 2.753584 1_555
Ba1 O3 2.757547 1_465
Ba1 O30 2.851913 1_455
Ba1 O2 2.880280 1_555
Ba1 O17 2.967759 1_465
Ba1 O15 3.187784 1_555
Ba2 O4 2.591083 1_565
Ba2 O34 2.753584 1_555
Ba2 O0 2.757547 1_565
Ba2 O29 2.851913 1_555
Ba2 O1 2.880280 1_555
Ba2 O18 2.967759 1_565
Ba2 O12 3.187784 1_555
Ba3 O5 2.591083 1_545
Ba3 O35 2.753584 1_555
Ba3 O1 2.757547 1_645
Ba3 O28 2.851913 1_655
Ba3 O0 2.880280 1_555
Ba3 O19 2.967759 1_645
Ba3 O13 3.187784 1_555
B0 O34 1.346490 1_555
B0 O23 1.358230 1_565
B0 O24 1.424700 1_554
B1 O35 1.346490 1_555
B1 O22 1.358230 1_545
B1 O25 1.424700 1_555
B2 O32 1.346490 1_555
B2 O21 1.358230 1_545
B2 O26 1.424700 1_556
B3 O33 1.346490 1_555
B3 O20 1.358230 1_565
B3 O27 1.424700 1_555
B4 O4 1.335012 1_555
B4 O12 1.404820 1_555
B4 O28 1.426665 1_555
B5 O5 1.335012 1_555
B5 O13 1.404820 1_555
B5 O29 1.426665 1_555
B6 O6 1.335012 1_555
B6 O14 1.404820 1_555
B6 O30 1.426665 1_555
B7 O7 1.335012 1_555
B7 O15 1.404820 1_555
B7 O31 1.426665 1_555
H0 O17 1.000499 1_555
H1 O16 1.000499 1_555
H2 O19 1.000499 1_555
H3 O18 1.000499 1_555
H8 O27 0.981655 1_555
H9 O26 0.981655 1_555
H10 O25 0.981655 1_555
H11 O24 0.981655 1_555
H12 H4 0.749384 1_555
H13 H5 0.749384 1_555
H14 H6 0.749384 1_555
H15 H7 0.749384 1_555
H16 O19 0.984303 1_555
H17 O18 0.984303 1_555
H18 O17 0.984303 1_555
H19 O16 0.984303 1_555
H20 O12 0.978332 1_555
H21 O13 0.978332 1_455
H22 O14 0.978332 1_555
H23 O15 0.978332 1_655
H24 O28 0.978206 1_555
H25 O29 0.978206 1_555
H26 O30 0.978206 1_555
H27 O31 0.978206 1_555
H28 O10 0.990403 1_555
H29 O11 0.990403 1_555
H30 O8 0.990403 1_555
H31 O9 0.990403 1_555
H32 O2 1.001861 1_545
H33 O3 1.001861 1_565
H34 O0 1.001861 1_565
H35 O1 1.001861 1_545
H36 O8 0.978663 1_555
H37 O9 0.978663 1_555
H38 O10 0.978663 1_555
H39 O11 0.978663 1_555
