# generated using pymatgen
data_Li2Ti2FeO6
_symmetry_space_group_name_H-M   'P 1'
_cell_length_a   5.22078897
_cell_length_b   5.22076632
_cell_length_c   10.41042009
_cell_angle_alpha   90.01370469
_cell_angle_beta   89.98742914
_cell_angle_gamma   120.67932206
_symmetry_Int_Tables_number   1
_chemical_formula_structural   Li2Ti2FeO6
_chemical_formula_sum   'Li4 Ti4 Fe2 O12'
_cell_volume   244.03690116
_cell_formula_units_Z   2
loop_
 _symmetry_equiv_pos_site_id
 _symmetry_equiv_pos_as_xyz
  1  'x, y, z'
loop_
 _atom_site_type_symbol
 _atom_site_label
 _atom_site_symmetry_multiplicity
 _atom_site_fract_x
 _atom_site_fract_y
 _atom_site_fract_z
 _atom_site_occupancy
  Li  Li0  1  0.17433400  0.67430200  0.75001200  1
  Li  Li1  1  0.32554500  0.82556800  0.25001200  1
  Li  Li2  1  0.67444200  0.17441300  0.74998700  1
  Li  Li3  1  0.82565300  0.32568700  0.24998700  1
  Ti  Ti0  1  0.16024700  0.83987500  0.50011400  1
  Ti  Ti1  1  0.33993800  0.66029900  0.99991100  1
  Ti  Ti2  1  0.66008100  0.33970700  0.00009400  1
  Ti  Ti3  1  0.83973900  0.16013400  0.49987500  1
  Fe  Fe0  1  0.00002700  0.00001800  0.00000000  1
  Fe  Fe1  1  0.50000200  0.50001600  0.50000100  1
  O  O0  1  0.00219900  0.63393300  0.10728700  1
  O  O1  1  0.99780500  0.36605800  0.89271200  1
  O  O2  1  0.13382400  0.50220400  0.39267600  1
  O  O3  1  0.49763100  0.86625200  0.60735200  1
  O  O4  1  0.14286400  0.14299800  0.59980100  1
  O  O5  1  0.35699900  0.35717300  0.09980300  1
  O  O6  1  0.64301300  0.64283100  0.90020300  1
  O  O7  1  0.36634800  0.99761300  0.89261400  1
  O  O8  1  0.85713500  0.85700200  0.40019800  1
  O  O9  1  0.50235700  0.13374000  0.39265100  1
  O  O10  1  0.86616800  0.49779400  0.60732200  1
  O  O11  1  0.63365000  0.00238000  0.10738700  1
loop_
_geom_bond_atom_site_label_1
_geom_bond_atom_site_label_2
_geom_bond_distance
_geom_bond_site_symmetry_2
Li0 O10 2.032659 1_455
Li0 O1 2.033002 1_455
Li0 O7 2.081024 1_555
Li0 O3 2.081432 1_555
Li1 O11 2.031872 1_565
Li1 O9 2.032134 1_565
Li1 O2 2.081800 1_555
Li1 O0 2.082136 1_555
Li2 O7 2.031852 1_545
Li2 O3 2.032072 1_545
Li2 O10 2.081859 1_555
Li2 O1 2.082190 1_555
Li3 O2 2.032669 1_655
Li3 O0 2.033012 1_655
Li3 O11 2.080993 1_555
Li3 O9 2.081458 1_555
Fe0 O5 2.117395 1_555
Fe0 O6 2.117531 1_444
Fe0 O1 2.218837 1_454
Fe0 O0 2.218918 1_545
Fe0 O7 2.220606 1_544
Fe0 O11 2.220764 1_455
Fe1 O8 2.117413 1_555
Fe1 O4 2.117481 1_555
Fe1 O2 2.219562 1_555
Fe1 O10 2.219566 1_555
Fe1 O3 2.219934 1_555
Fe1 O9 2.220072 1_555
O0 Ti2 1.998838 1_455
O0 Ti1 2.032023 1_554
O1 Ti1 1.998937 1_655
O1 Ti2 2.032021 1_556
O2 Ti3 1.998552 1_455
O2 Ti0 2.031943 1_555
O3 Ti3 1.999876 1_565
O3 Ti0 2.030056 1_555
O4 Ti0 1.932713 1_545
O4 Ti3 1.933878 1_455
O5 Ti2 1.932878 1_555
O5 Ti1 1.933520 1_554
O6 Ti1 1.932846 1_555
O6 Ti2 1.933523 1_556
O7 Ti2 1.999576 1_566
O7 Ti1 2.030039 1_555
O8 Ti3 1.932728 1_565
O8 Ti0 1.933743 1_655
O9 Ti0 1.999772 1_545
O9 Ti3 2.029934 1_555
O10 Ti0 1.998624 1_655
O10 Ti3 2.031935 1_555
O11 Ti1 1.999485 1_544
O11 Ti2 2.030032 1_555
