# generated using pymatgen
data_V6O7F5
_symmetry_space_group_name_H-M   'P 1'
_cell_length_a   4.75274000
_cell_length_b   5.59910383
_cell_length_c   7.77784625
_cell_angle_alpha   84.98136714
_cell_angle_beta   89.13495172
_cell_angle_gamma   87.14415107
_symmetry_Int_Tables_number   1
_chemical_formula_structural   V6O7F5
_chemical_formula_sum   'V6 O7 F5'
_cell_volume   205.91537260
_cell_formula_units_Z   1
loop_
 _symmetry_equiv_pos_site_id
 _symmetry_equiv_pos_as_xyz
  1  'x, y, z'
loop_
 _atom_site_type_symbol
 _atom_site_label
 _atom_site_symmetry_multiplicity
 _atom_site_fract_x
 _atom_site_fract_y
 _atom_site_fract_z
 _atom_site_occupancy
  V  V0  1  0.50548700  0.82108300  0.67279000  1
  V  V1  1  0.46873500  0.47886900  0.99167900  1
  V  V2  1  0.54597500  0.19192900  0.32505400  1
  V  V3  1  0.98340000  0.34339000  0.67379700  1
  V  V4  1  0.98529600  0.65833500  0.33497200  1
  V  V5  1  0.01891300  0.00534800  0.99846200  1
  O  O0  1  0.80700300  0.37878000  0.43481500  1
  O  O1  1  0.70659800  0.19543500  0.10301700  1
  O  O2  1  0.69095800  0.53166000  0.76559400  1
  O  O3  1  0.68757100  0.89093900  0.42886000  1
  O  O4  1  0.30737300  0.45255300  0.24679600  1
  O  O5  1  0.30005900  0.79689100  0.89505100  1
  O  O6  1  0.19395700  0.29047800  0.89307800  1
  F  F0  1  0.80111600  0.69935500  0.09746900  1
  F  F1  1  0.80350000  0.03032800  0.76675200  1
  F  F2  1  0.30078200  0.13693700  0.56643100  1
  F  F3  1  0.20148200  0.96122800  0.23736000  1
  F  F4  1  0.19179800  0.63646200  0.56802500  1
loop_
_geom_bond_atom_site_label_1
_geom_bond_atom_site_label_2
_geom_bond_distance
_geom_bond_site_symmetry_2
O0 V4 1.915925 1_555
O0 V2 1.918333 1_555
O0 V3 2.040391 1_555
O1 V2 1.876524 1_555
O1 V5 1.988704 1_654
O1 V1 2.038817 1_554
O2 V3 1.873108 1_555
O2 V0 1.896397 1_555
O2 V1 2.044288 1_555
O3 V2 1.900064 1_565
O3 V4 2.045299 1_555
O3 V0 2.087049 1_555
O4 V2 1.867206 1_555
O4 V4 2.017894 1_455
O4 V1 2.112182 1_554
O5 V5 1.941924 1_565
O5 V0 1.970099 1_555
O5 V1 2.004994 1_555
O6 V1 1.927519 1_555
O6 V5 1.948205 1_555
O6 V3 1.982839 1_455
F0 V4 2.045958 1_555
F0 V5 2.126421 1_664
F0 V1 2.260066 1_554
F1 V3 2.057975 1_555
F1 V0 2.063795 1_545
F1 V5 2.076780 1_655
F2 V3 2.065443 1_455
F2 V0 2.086951 1_545
F2 V2 2.201359 1_555
F3 V5 2.052688 1_564
F3 V4 2.105492 1_455
F3 V2 2.283215 1_565
F4 V3 2.061956 1_455
F4 V4 2.065634 1_455
F4 V0 2.071928 1_555
