# generated using pymatgen
data_Li9(FeO4)2
_symmetry_space_group_name_H-M   'P 1'
_cell_length_a   6.47797509
_cell_length_b   6.47797509
_cell_length_c   4.69459555
_cell_angle_alpha   89.71485303
_cell_angle_beta   89.71485303
_cell_angle_gamma   89.63994794
_symmetry_Int_Tables_number   1
_chemical_formula_structural   Li9(FeO4)2
_chemical_formula_sum   'Li9 Fe2 O8'
_cell_volume   196.99602575
_cell_formula_units_Z   1
loop_
 _symmetry_equiv_pos_site_id
 _symmetry_equiv_pos_as_xyz
  1  'x, y, z'
loop_
 _atom_site_type_symbol
 _atom_site_label
 _atom_site_symmetry_multiplicity
 _atom_site_fract_x
 _atom_site_fract_y
 _atom_site_fract_z
 _atom_site_occupancy
  Li  Li0  1  0.95058000  0.04942000  0.50000000  1
  Li  Li1  1  0.75160800  0.75175400  0.43811000  1
  Li  Li2  1  0.73288100  0.72724100  0.92714500  1
  Li  Li3  1  0.53438300  0.46561700  0.50000000  1
  Li  Li4  1  0.46403000  0.95558800  0.99589300  1
  Li  Li5  1  0.27276000  0.26711900  0.07285500  1
  Li  Li6  1  0.24824600  0.24839200  0.56189000  1
  Li  Li7  1  0.04441200  0.53597000  0.00410700  1
  Li  Li8  1  0.03163500  0.96836500  0.00000000  1
  Fe  Fe0  1  0.74671300  0.25328700  0.00000000  1
  Fe  Fe1  1  0.24939600  0.75060400  0.50000000  1
  O  O0  1  0.99318200  0.77024100  0.71170900  1
  O  O1  1  0.75818000  0.49884500  0.18933200  1
  O  O2  1  0.75365500  0.98970500  0.17200700  1
  O  O3  1  0.50529200  0.74391600  0.68657000  1
  O  O4  1  0.50115500  0.24182000  0.81066800  1
  O  O5  1  0.25608400  0.49470800  0.31343000  1
  O  O6  1  0.22975900  0.00681800  0.28829100  1
  O  O7  1  0.01029500  0.24634500  0.82799300  1
loop_
_geom_bond_atom_site_label_1
_geom_bond_atom_site_label_2
_geom_bond_distance
_geom_bond_site_symmetry_2
Li0 O7 2.044416 1_655
Li0 O2 2.044416 1_545
Li0 O0 2.076841 1_545
Li0 O6 2.076841 1_655
Li1 O3 1.972574 1_555
Li1 O2 1.979332 1_555
Li1 O1 2.016843 1_555
Li1 O0 2.033951 1_555
Li2 O3 1.863916 1_555
Li2 O1 1.926594 1_556
Li2 O0 1.982414 1_555
Li2 O2 2.062570 1_556
Li3 O5 2.015591 1_555
Li3 O3 2.015591 1_555
Li3 O4 2.062758 1_555
Li3 O1 2.062758 1_555
Li4 O3 2.017853 1_555
Li4 O4 2.059008 1_565
Li4 O2 2.067596 1_556
Li4 O6 2.067607 1_566
Li5 O5 1.863916 1_555
Li5 O4 1.926589 1_554
Li5 O6 1.982415 1_555
Li5 O7 2.062575 1_554
Li6 O5 1.972574 1_555
Li6 O7 1.979332 1_555
Li6 O4 2.016843 1_555
Li6 O6 2.033951 1_555
Li7 O5 2.017853 1_555
Li7 O1 2.059008 1_455
Li7 O7 2.067596 1_554
Li7 O0 2.067607 1_454
Li8 O0 1.888294 1_454
Li8 O6 1.888294 1_565
Li8 O2 1.974176 1_455
Li8 O7 1.974176 1_564
Fe0 O1 1.828155 1_555
Fe0 O4 1.828155 1_554
Fe0 O7 1.885533 1_654
Fe0 O2 1.885533 1_545
Fe1 O5 1.878863 1_555
Fe1 O3 1.878863 1_555
Fe1 O0 1.934152 1_455
Fe1 O6 1.934152 1_565
