# generated using pymatgen
data_Li2(CoO2)3
_symmetry_space_group_name_H-M   'P 1'
_cell_length_a   4.88170219
_cell_length_b   4.88170219
_cell_length_c   5.05179632
_cell_angle_alpha   80.68184326
_cell_angle_beta   80.68184326
_cell_angle_gamma   119.91929439
_symmetry_Int_Tables_number   1
_chemical_formula_structural   Li2(CoO2)3
_chemical_formula_sum   'Li2 Co3 O6'
_cell_volume   98.73636750
_cell_formula_units_Z   1
loop_
 _symmetry_equiv_pos_site_id
 _symmetry_equiv_pos_as_xyz
  1  'x, y, z'
loop_
 _atom_site_type_symbol
 _atom_site_label
 _atom_site_symmetry_multiplicity
 _atom_site_fract_x
 _atom_site_fract_y
 _atom_site_fract_z
 _atom_site_occupancy
  Li  Li0  1  0.33403100  0.66596900  0.00000000  1
  Li  Li1  1  0.66596900  0.33403100  0.00000000  1
  Co  Co0  1  0.50000000  0.50000000  0.50000000  1
  Co  Co1  1  0.16487800  0.83512200  0.50000000  1
  Co  Co2  1  0.83512200  0.16487800  0.50000000  1
  O  O0  1  0.75781200  0.75781200  0.70933600  1
  O  O1  1  0.56272500  0.90293700  0.29424500  1
  O  O2  1  0.24218800  0.24218800  0.29066400  1
  O  O3  1  0.09706300  0.43727500  0.70575500  1
  O  O4  1  0.90293700  0.56272500  0.29424500  1
  O  O5  1  0.43727400  0.09706300  0.70575500  1
loop_
_geom_bond_atom_site_label_1
_geom_bond_atom_site_label_2
_geom_bond_distance
_geom_bond_site_symmetry_2
Li0 O0 2.124801 1_554
Li0 O2 2.124801 1_555
Li0 O4 2.139788 1_455
Li0 O5 2.139790 1_564
Li0 O1 2.144784 1_555
Li0 O3 2.144784 1_554
Li1 O0 2.124801 1_554
Li1 O2 2.124801 1_555
Li1 O3 2.139788 1_654
Li1 O1 2.139788 1_545
Li1 O4 2.144784 1_555
Li1 O5 2.144785 1_554
Co0 O0 1.888972 1_555
Co0 O2 1.888972 1_555
Co0 O5 1.917634 1_555
Co0 O4 1.917636 1_555
Co0 O1 1.917636 1_555
Co0 O3 1.917636 1_555
Co1 O3 1.885597 1_555
Co1 O1 1.885597 1_555
Co1 O0 1.910952 1_455
Co1 O2 1.910952 1_565
Co1 O5 1.914570 1_565
Co1 O4 1.914572 1_455
Co2 O4 1.885597 1_555
Co2 O5 1.885602 1_555
Co2 O0 1.910952 1_545
Co2 O2 1.910952 1_655
Co2 O3 1.914572 1_655
Co2 O1 1.914572 1_545
