# generated using pymatgen
data_Ho2WO6
_symmetry_space_group_name_H-M   'P 1'
_cell_length_a   5.31342495
_cell_length_b   7.59055420
_cell_length_c   11.31610264
_cell_angle_alpha   75.44261548
_cell_angle_beta   90.00000000
_cell_angle_gamma   90.00000000
_symmetry_Int_Tables_number   1
_chemical_formula_structural   Ho2WO6
_chemical_formula_sum   'Ho8 W4 O24'
_cell_volume   441.74717753
_cell_formula_units_Z   4
loop_
 _symmetry_equiv_pos_site_id
 _symmetry_equiv_pos_as_xyz
  1  'x, y, z'
loop_
 _atom_site_type_symbol
 _atom_site_label
 _atom_site_symmetry_multiplicity
 _atom_site_fract_x
 _atom_site_fract_y
 _atom_site_fract_z
 _atom_site_occupancy
  Ho  Ho0  1  0.73745327  -0.00000000  0.75000000  1
  Ho  Ho1  1  0.26254673  -0.00000000  0.25000000  1
  Ho  Ho2  1  0.18755985  0.79802770  0.57789860  1
  Ho  Ho3  1  0.81244015  0.79802770  0.07789860  1
  Ho  Ho4  1  0.68277326  0.50000000  0.75000000  1
  Ho  Ho5  1  0.31722674  0.50000000  0.25000000  1
  Ho  Ho6  1  0.18755985  0.20197230  0.92210140  1
  Ho  Ho7  1  0.81244015  0.20197230  0.42210140  1
  W  W0  1  0.25358785  0.72123587  0.88681111  1
  W  W1  1  0.74641215  0.72123587  0.38681111  1
  W  W2  1  0.25358785  0.27876413  0.61318889  1
  W  W3  1  0.74641215  0.27876413  0.11318889  1
  O  O0  1  0.03768056  0.93815911  0.89602366  1
  O  O1  1  0.52494887  0.85168518  0.93037165  1
  O  O2  1  0.96231944  0.93815911  0.39602366  1
  O  O3  1  0.46301881  0.78656758  0.72807438  1
  O  O4  1  0.47505113  0.85168518  0.43037165  1
  O  O5  1  0.98447275  0.71002672  0.77143217  1
  O  O6  1  0.53698119  0.78656758  0.22807438  1
  O  O7  1  0.84897536  0.63377319  0.54894668  1
  O  O8  1  0.35946578  0.48884251  0.88762623  1
  O  O9  1  0.01552725  0.71002672  0.27143217  1
  O  O10  1  0.35946578  0.51115749  0.61237377  1
  O  O11  1  0.84897536  0.36622681  0.95105332  1
  O  O12  1  0.15102464  0.63377319  0.04894668  1
  O  O13  1  0.64053422  0.48884251  0.38762623  1
  O  O14  1  0.98447275  0.28997328  0.72856783  1
  O  O15  1  0.64053422  0.51115749  0.11237377  1
  O  O16  1  0.15102464  0.36622681  0.45105332  1
  O  O17  1  0.46301881  0.21343242  0.77192562  1
  O  O18  1  0.01552725  0.28997328  0.22856783  1
  O  O19  1  0.52494887  0.14831482  0.56962835  1
  O  O20  1  0.53698119  0.21343242  0.27192562  1
  O  O21  1  0.03768056  0.06184089  0.60397634  1
  O  O22  1  0.47505113  0.14831482  0.06962835  1
  O  O23  1  0.96231944  0.06184089  0.10397634  1
loop_
_geom_bond_atom_site_label_1
_geom_bond_atom_site_label_2
_geom_bond_distance
_geom_bond_site_symmetry_2
Ho0 O3 2.239322 1_545
Ho0 O17 2.239322 1_555
Ho0 O0 2.259576 1_645
Ho0 O21 2.259576 1_655
Ho0 O1 2.356546 1_545
Ho0 O19 2.356546 1_555
Ho0 O14 2.521474 1_555
Ho0 O5 2.521474 1_545
Ho1 O20 2.239322 1_555
Ho1 O6 2.239322 1_545
Ho1 O2 2.259576 1_445
Ho1 O23 2.259576 1_455
Ho1 O4 2.356546 1_545
Ho1 O22 2.356546 1_555
Ho1 O9 2.521474 1_545
Ho1 O18 2.521474 1_555
Ho2 O4 2.223629 1_555
Ho2 O3 2.227879 1_555
Ho2 O21 2.242390 1_565
Ho2 O7 2.259137 1_455
Ho2 O10 2.302389 1_555
Ho2 O5 2.381497 1_455
Ho2 O2 2.387274 1_455
Ho3 O1 2.223629 1_554
Ho3 O6 2.227879 1_555
Ho3 O23 2.242390 1_565
Ho3 O12 2.259137 1_655
Ho3 O15 2.302389 1_555
Ho3 O9 2.381497 1_655
Ho3 O0 2.387274 1_654
Ho4 O10 2.305952 1_555
Ho4 O8 2.305952 1_555
Ho4 O5 2.316142 1_555
Ho4 O14 2.316142 1_555
Ho4 O11 2.413681 1_555
Ho4 O7 2.413681 1_555
Ho4 O17 2.425940 1_555
Ho4 O3 2.425940 1_555
Ho5 O13 2.305952 1_555
Ho5 O15 2.305952 1_555
Ho5 O18 2.316142 1_555
Ho5 O9 2.316142 1_555
Ho5 O16 2.413681 1_555
Ho5 O12 2.413681 1_555
Ho5 O20 2.425940 1_555
Ho5 O6 2.425940 1_555
Ho6 O22 2.223629 1_556
Ho6 O17 2.227879 1_555
Ho6 O0 2.242390 1_545
Ho6 O11 2.259137 1_455
Ho6 O8 2.302389 1_555
Ho6 O14 2.381497 1_455
Ho6 O23 2.387274 1_456
Ho7 O19 2.223629 1_555
Ho7 O20 2.227879 1_555
Ho7 O2 2.242390 1_545
Ho7 O16 2.259137 1_655
Ho7 O13 2.302389 1_555
Ho7 O18 2.381497 1_655
Ho7 O21 2.387274 1_655
O0 W0 2.030869 1_555
O1 W0 1.883550 1_555
O2 W1 2.030869 1_555
O3 W0 2.064719 1_555
O4 W1 1.883550 1_555
O5 W0 1.952552 1_655
O6 W1 2.064719 1_555
O7 W1 1.868607 1_555
O8 W0 1.849344 1_555
O9 W1 1.952552 1_455
O10 W2 1.849344 1_555
O11 W3 1.868607 1_556
O12 W0 1.868607 1_554
O13 W1 1.849344 1_555
O14 W2 1.952552 1_655
O15 W3 1.849344 1_555
O16 W2 1.868607 1_555
O17 W2 2.064719 1_555
O18 W3 1.952552 1_455
O19 W2 1.883550 1_555
O20 W3 2.064719 1_555
O21 W2 2.030869 1_555
O22 W3 1.883550 1_555
O23 W3 2.030869 1_555
