# generated using pymatgen
data_Li3MnV(PO4)3
_symmetry_space_group_name_H-M   'P 1'
_cell_length_a   9.03845014
_cell_length_b   9.03845014
_cell_length_c   9.03844985
_cell_angle_alpha   56.40658592
_cell_angle_beta   56.40658592
_cell_angle_gamma   56.40658119
_symmetry_Int_Tables_number   1
_chemical_formula_structural   Li3MnV(PO4)3
_chemical_formula_sum   'Li6 Mn2 V2 P6 O24'
_cell_volume   478.73157752
_cell_formula_units_Z   2
loop_
 _symmetry_equiv_pos_site_id
 _symmetry_equiv_pos_as_xyz
  1  'x, y, z'
loop_
 _atom_site_type_symbol
 _atom_site_label
 _atom_site_symmetry_multiplicity
 _atom_site_fract_x
 _atom_site_fract_y
 _atom_site_fract_z
 _atom_site_occupancy
  Li  Li0  1  0.91591500  0.66529500  0.27140200  1
  Li  Li1  1  0.66529500  0.27140200  0.91591500  1
  Li  Li2  1  0.27140200  0.91591500  0.66529500  1
  Li  Li3  1  0.72859800  0.08408500  0.33470500  1
  Li  Li4  1  0.33470500  0.72859800  0.08408500  1
  Li  Li5  1  0.08408500  0.33470500  0.72859800  1
  Mn  Mn0  1  0.65016400  0.65016400  0.65016400  1
  Mn  Mn1  1  0.34983600  0.34983600  0.34983600  1
  V  V0  1  0.14903400  0.14903400  0.14903400  1
  V  V1  1  0.85096600  0.85096600  0.85096600  1
  P  P0  1  0.24171300  0.54325200  0.96344300  1
  P  P1  1  0.96344300  0.24171300  0.54325200  1
  P  P2  1  0.54325200  0.96344300  0.24171300  1
  P  P3  1  0.45674800  0.03655700  0.75828700  1
  P  P4  1  0.03655700  0.75828700  0.45674800  1
  P  P5  1  0.75828700  0.45674800  0.03655700  1
  O  O0  1  0.19866500  0.55612500  0.14920700  1
  O  O1  1  0.45288400  0.49976300  0.83976800  1
  O  O2  1  0.83976800  0.45288400  0.49976300  1
  O  O3  1  0.14920700  0.19866500  0.55612500  1
  O  O4  1  0.55612500  0.14920700  0.19866500  1
  O  O5  1  0.17848800  0.38808400  0.01231600  1
  O  O6  1  0.85884400  0.11659700  0.74165400  1
  O  O7  1  0.01231600  0.17848800  0.38808400  1
  O  O8  1  0.49976300  0.83976800  0.45288400  1
  O  O9  1  0.74165400  0.85884400  0.11659700  1
  O  O10  1  0.38808400  0.01231600  0.17848800  1
  O  O11  1  0.11659700  0.74165400  0.85884400  1
  O  O12  1  0.88340300  0.25834600  0.14115600  1
  O  O13  1  0.61191600  0.98768400  0.82151200  1
  O  O14  1  0.25834600  0.14115600  0.88340300  1
  O  O15  1  0.50023700  0.16023200  0.54711600  1
  O  O16  1  0.98768400  0.82151200  0.61191600  1
  O  O17  1  0.14115600  0.88340300  0.25834600  1
  O  O18  1  0.82151200  0.61191600  0.98768400  1
  O  O19  1  0.44387500  0.85079300  0.80133500  1
  O  O20  1  0.85079300  0.80133500  0.44387500  1
  O  O21  1  0.16023200  0.54711600  0.50023700  1
  O  O22  1  0.54711600  0.50023700  0.16023200  1
  O  O23  1  0.80133500  0.44387500  0.85079300  1
loop_
_geom_bond_atom_site_label_1
_geom_bond_atom_site_label_2
_geom_bond_distance
_geom_bond_site_symmetry_2
Li0 O2 1.981149 1_555
Li0 O0 2.004167 1_655
Li0 O9 2.044476 1_555
Li0 O20 2.143207 1_555
Li1 O1 1.981148 1_555
Li1 O4 2.004167 1_556
Li1 O6 2.044476 1_555
Li1 O23 2.143207 1_555
Li2 O8 1.981149 1_555
Li2 O3 2.004167 1_565
Li2 O11 2.044476 1_555
Li2 O19 2.143207 1_555
Li3 O15 1.981149 1_555
Li3 O20 2.004167 1_545
Li3 O12 2.044476 1_555
Li3 O4 2.143207 1_555
Li4 O22 1.981148 1_555
Li4 O19 2.004167 1_554
Li4 O17 2.044476 1_555
Li4 O0 2.143207 1_555
Li5 O21 1.981149 1_555
Li5 O23 2.004167 1_455
Li5 O14 2.044476 1_555
Li5 O3 2.143207 1_555
Mn0 O2 2.164986 1_555
Mn0 O8 2.164986 1_555
Mn0 O1 2.164986 1_555
Mn0 O19 2.193829 1_555
Mn0 O23 2.193829 1_555
Mn0 O20 2.193829 1_555
Mn1 O21 2.164986 1_555
Mn1 O15 2.164986 1_555
Mn1 O22 2.164986 1_555
Mn1 O4 2.193829 1_555
Mn1 O0 2.193829 1_555
Mn1 O3 2.193829 1_555
O0 P0 1.557946 1_554
O1 P0 1.530381 1_555
O2 P1 1.530381 1_555
O3 P1 1.557946 1_455
O4 P2 1.557946 1_545
O5 P0 1.552617 1_554
O5 V0 1.893194 1_555
O6 P1 1.565672 1_555
O6 V1 2.057157 1_545
O7 P1 1.552617 1_455
O7 V0 1.893194 1_555
O8 P2 1.530381 1_555
O9 P2 1.565671 1_555
O9 V1 2.057157 1_554
O10 P2 1.552617 1_545
O10 V0 1.893194 1_555
O11 P0 1.565671 1_555
O11 V1 2.057157 1_455
O12 P5 1.565671 1_555
O12 V0 2.057157 1_655
O13 P3 1.552617 1_565
O13 V1 1.893194 1_555
O14 P3 1.565671 1_555
O14 V0 2.057157 1_556
O15 P3 1.530381 1_555
O16 P4 1.552617 1_655
O16 V1 1.893194 1_555
O17 P4 1.565672 1_555
O17 V0 2.057157 1_565
O18 P5 1.552617 1_556
O18 V1 1.893194 1_555
O19 P3 1.557946 1_565
O20 P4 1.557946 1_655
O21 P4 1.530381 1_555
O22 P5 1.530381 1_555
O23 P5 1.557946 1_556
