# generated using pymatgen
data_TaCrO4
_symmetry_space_group_name_H-M   'P 1'
_cell_length_a   4.50064300
_cell_length_b   11.95069600
_cell_length_c   5.03035400
_cell_angle_alpha   89.99993227
_cell_angle_beta   89.99985528
_cell_angle_gamma   89.99997289
_symmetry_Int_Tables_number   1
_chemical_formula_structural   TaCrO4
_chemical_formula_sum   'Ta4 Cr4 O16'
_cell_volume   270.56169615
_cell_formula_units_Z   4
loop_
 _symmetry_equiv_pos_site_id
 _symmetry_equiv_pos_as_xyz
  1  'x, y, z'
loop_
 _atom_site_type_symbol
 _atom_site_label
 _atom_site_symmetry_multiplicity
 _atom_site_fract_x
 _atom_site_fract_y
 _atom_site_fract_z
 _atom_site_occupancy
  Ta  Ta0  1  0.00000000  0.42425600  0.24999900  1
  Ta  Ta1  1  0.00000200  0.57574400  0.75000000  1
  Ta  Ta2  1  0.50000000  0.07574200  0.74999800  1
  Ta  Ta3  1  0.50000100  0.92425700  0.25000000  1
  Cr  Cr0  1  0.99999700  0.17804800  0.25000100  1
  Cr  Cr1  1  0.00000300  0.82195200  0.75000700  1
  Cr  Cr2  1  0.49999800  0.67805000  0.25000000  1
  Cr  Cr3  1  0.49999600  0.32194700  0.75000500  1
  O  O0  1  0.23320900  0.30980500  0.41896400  1
  O  O1  1  0.23321000  0.69019500  0.91896400  1
  O  O2  1  0.24132700  0.44412800  0.91817200  1
  O  O3  1  0.24132600  0.55587300  0.41817200  1
  O  O4  1  0.25867200  0.05587300  0.41817200  1
  O  O5  1  0.25867400  0.94412700  0.91817300  1
  O  O6  1  0.26679200  0.19019600  0.91896400  1
  O  O7  1  0.26679100  0.80980500  0.41896400  1
  O  O8  1  0.73320800  0.19019600  0.58103300  1
  O  O9  1  0.73320900  0.80980500  0.08103600  1
  O  O10  1  0.74132800  0.05587400  0.08182600  1
  O  O11  1  0.74132600  0.94412600  0.58182600  1
  O  O12  1  0.75867200  0.44412700  0.58182600  1
  O  O13  1  0.75867500  0.55587300  0.08182700  1
  O  O14  1  0.76679300  0.30980600  0.08103400  1
  O  O15  1  0.76679000  0.69019500  0.58103600  1
loop_
_geom_bond_atom_site_label_1
_geom_bond_atom_site_label_2
_geom_bond_distance
_geom_bond_site_symmetry_2
Cr0 O10 2.050070 1_555
Cr0 O4 2.050083 1_655
Cr0 O8 2.058086 1_555
Cr0 O6 2.058122 1_654
Cr0 O14 2.074463 1_555
Cr0 O0 2.074466 1_655
Cr1 O5 2.050065 1_555
Cr1 O11 2.050101 1_455
Cr1 O9 2.058086 1_456
Cr1 O7 2.058127 1_555
Cr1 O1 2.074440 1_555
Cr1 O15 2.074485 1_455
Cr2 O3 2.050093 1_555
Cr2 O13 2.050109 1_555
Cr2 O1 2.058102 1_554
Cr2 O15 2.058113 1_555
Cr2 O7 2.074436 1_555
Cr2 O9 2.074444 1_555
Cr3 O2 2.050110 1_555
Cr3 O12 2.050143 1_555
Cr3 O14 2.058094 1_556
Cr3 O0 2.058117 1_555
Cr3 O6 2.074381 1_555
Cr3 O8 2.074427 1_555
O0 Ta0 1.922200 1_555
O1 Ta1 1.922198 1_555
O2 Ta0 2.005570 1_556
O2 Ta1 2.090294 1_555
O3 Ta1 2.005566 1_555
O3 Ta0 2.090310 1_555
O4 Ta2 2.005570 1_555
O4 Ta3 2.090303 1_545
O5 Ta3 2.005572 1_556
O5 Ta2 2.090292 1_565
O6 Ta2 1.922225 1_555
O7 Ta3 1.922207 1_555
O8 Ta2 1.922222 1_555
O9 Ta3 1.922203 1_555
O10 Ta2 2.005576 1_554
O10 Ta3 2.090311 1_545
O11 Ta3 2.005562 1_555
O11 Ta2 2.090296 1_565
O12 Ta0 2.005572 1_655
O12 Ta1 2.090322 1_655
O13 Ta1 2.005569 1_654
O13 Ta0 2.090303 1_655
O14 Ta0 1.922189 1_655
O15 Ta1 1.922206 1_655
