# generated using pymatgen
data_Li2FePCO7
_symmetry_space_group_name_H-M   'P 1'
_cell_length_a   5.08550200
_cell_length_b   8.49207002
_cell_length_c   12.79722427
_cell_angle_alpha   96.39994969
_cell_angle_beta   93.65228487
_cell_angle_gamma   94.72934369
_symmetry_Int_Tables_number   1
_chemical_formula_structural   Li2FePCO7
_chemical_formula_sum   'Li8 Fe4 P4 C4 O28'
_cell_volume   545.86791591
_cell_formula_units_Z   4
loop_
 _symmetry_equiv_pos_site_id
 _symmetry_equiv_pos_as_xyz
  1  'x, y, z'
loop_
 _atom_site_type_symbol
 _atom_site_label
 _atom_site_symmetry_multiplicity
 _atom_site_fract_x
 _atom_site_fract_y
 _atom_site_fract_z
 _atom_site_occupancy
  Li  Li0  1  0.74980000  0.20443000  0.43921400  1
  Li  Li1  1  0.59574900  0.25060000  0.20679400  1
  Li  Li2  1  0.72143500  0.27134300  0.98186700  1
  Li  Li3  1  0.75710700  0.94587500  0.78336100  1
  Li  Li4  1  0.61925600  0.29861400  0.66707700  1
  Li  Li5  1  0.34955200  0.80664900  0.19829400  1
  Li  Li6  1  0.22222400  0.78005200  0.42635000  1
  Li  Li7  1  0.25838900  0.77826500  0.93002800  1
  Fe  Fe0  1  0.79430500  0.68087600  0.08657500  1
  Fe  Fe1  1  0.76754400  0.68968700  0.58895300  1
  Fe  Fe2  1  0.15920300  0.37324500  0.33032300  1
  Fe  Fe3  1  0.16913100  0.36654900  0.82928800  1
  P  P0  1  0.68985200  0.60426800  0.33098500  1
  P  P1  1  0.70356900  0.60061400  0.83161900  1
  P  P2  1  0.25877500  0.44957800  0.08554300  1
  P  P3  1  0.23228600  0.45099700  0.58555900  1
  C  C0  1  0.72058100  0.96909600  0.08219400  1
  C  C1  1  0.65345600  0.96951400  0.57322300  1
  C  C2  1  0.21718200  0.07905700  0.32732100  1
  C  C3  1  0.29147400  0.08522300  0.84378900  1
  O  O0  1  0.95123900  0.91828900  0.09942800  1
  O  O1  1  0.79913500  0.44087400  0.29584100  1
  O  O2  1  0.85583000  0.68728800  0.43019700  1
  O  O3  1  0.87068600  0.93070800  0.62222100  1
  O  O4  1  0.81354400  0.44041000  0.79185400  1
  O  O5  1  0.87271300  0.68007700  0.93188000  1
  O  O6  1  0.69622000  0.70871100  0.23937800  1
  O  O7  1  0.67683200  0.11383600  0.08213500  1
  O  O8  1  0.71970700  0.71679300  0.74737800  1
  O  O9  1  0.61778400  0.11304600  0.56120000  1
  O  O10  1  0.55540600  0.47493100  0.06051800  1
  O  O11  1  0.41794500  0.19223700  0.33712300  1
  O  O12  1  0.53380800  0.48505800  0.57015600  1
  O  O13  1  0.46090200  0.21425400  0.85244500  1
  O  O14  1  0.52354900  0.85200300  0.06548400  1
  O  O15  1  0.39429800  0.57464700  0.35726300  1
  O  O16  1  0.48369300  0.84772300  0.54069800  1
  O  O17  1  0.40912600  0.56924500  0.85761600  1
  O  O18  1  0.25491400  0.93369300  0.32316300  1
  O  O19  1  0.24359800  0.34239000  0.17543100  1
  O  O20  1  0.37260200  0.94877600  0.84637800  1
  O  O21  1  0.22307700  0.33866300  0.67412200  1
  O  O22  1  0.15154900  0.61249900  0.12142500  1
  O  O23  1  0.98530600  0.13426700  0.32123000  1
  O  O24  1  0.08683200  0.36205600  0.48280000  1
  O  O25  1  0.10779800  0.60658300  0.61692200  1
  O  O26  1  0.04395600  0.11467900  0.83044200  1
  O  O27  1  0.09094500  0.37050500  0.98535900  1
loop_
_geom_bond_atom_site_label_1
_geom_bond_atom_site_label_2
_geom_bond_distance
_geom_bond_site_symmetry_2
Li0 O9 1.951318 1_555
Li0 O23 2.053440 1_555
Li0 O11 2.055698 1_555
Li0 O24 2.091420 1_655
Li1 O7 1.952838 1_555
Li1 O1 2.035443 1_555
Li1 O11 2.036542 1_555
Li1 O19 2.045543 1_555
Li2 O7 1.963842 1_556
Li2 O27 1.990545 1_655
Li2 O13 2.041847 1_555
Li2 O10 2.162421 1_556
Li3 O8 1.939289 1_555
Li3 O26 1.973977 1_665
Li3 O20 2.163092 1_555
Li3 O3 2.169669 1_555
Li4 O9 1.959585 1_555
Li4 O4 2.037185 1_555
Li4 O21 2.076629 1_555
Li4 O12 2.171781 1_555
Li5 O18 1.936072 1_555
Li5 O22 1.984545 1_555
Li5 O14 2.025166 1_555
Li5 O6 2.073023 1_555
Li6 O16 1.917896 1_555
Li6 O18 1.962141 1_555
Li6 O2 1.968033 1_455
Li6 O15 2.143953 1_555
Li7 O20 1.966235 1_555
Li7 O5 2.069634 1_455
Li7 O14 2.129868 1_556
Li7 O17 2.131948 1_555
Fe0 O22 1.991272 1_655
Fe0 O10 2.028270 1_555
Fe0 O6 2.041850 1_555
Fe0 O5 2.043561 1_554
Fe0 O0 2.091121 1_555
Fe0 O14 2.109667 1_555
Fe1 O25 1.949125 1_655
Fe1 O12 2.005055 1_555
Fe1 O8 2.047084 1_555
Fe1 O3 2.060556 1_555
Fe1 O2 2.106664 1_555
Fe1 O16 2.157976 1_555
Fe2 O15 1.988040 1_555
Fe2 O1 2.001136 1_455
Fe2 O24 2.019666 1_555
Fe2 O19 2.047699 1_555
Fe2 O11 2.109626 1_555
Fe2 O23 2.133648 1_455
Fe3 O4 2.009143 1_455
Fe3 O17 2.010478 1_555
Fe3 O21 2.012364 1_555
Fe3 O27 2.058338 1_555
Fe3 O13 2.075566 1_555
Fe3 O26 2.182671 1_555
C0 O7 1.267111 1_565
C0 O0 1.297098 1_555
C0 O14 1.341455 1_555
C1 O9 1.271603 1_565
C1 O16 1.303566 1_555
C1 O3 1.319104 1_555
C2 O18 1.260640 1_545
C2 O23 1.305383 1_455
C2 O11 1.333006 1_555
C3 O20 1.264750 1_545
C3 O26 1.307769 1_555
C3 O13 1.326806 1_555
O1 P0 1.567267 1_555
O2 P0 1.545083 1_555
O4 P1 1.558845 1_555
O5 P1 1.553119 1_555
O6 P0 1.547234 1_555
O8 P1 1.541864 1_555
O10 P2 1.564578 1_555
O12 P3 1.565851 1_555
O15 P0 1.567291 1_555
O17 P1 1.562457 1_555
O19 P2 1.546252 1_555
O21 P3 1.561135 1_555
O22 P2 1.561106 1_555
O24 P3 1.552241 1_555
O25 P3 1.536118 1_555
O27 P2 1.548303 1_556
