# generated using pymatgen
data_Li2Ti3MnO8
_symmetry_space_group_name_H-M   'P 1'
_cell_length_a   5.96842600
_cell_length_b   10.33775300
_cell_length_c   9.93601800
_cell_angle_alpha   89.99991552
_cell_angle_beta   89.99984247
_cell_angle_gamma   89.99945963
_symmetry_Int_Tables_number   1
_chemical_formula_structural   Li2Ti3MnO8
_chemical_formula_sum   'Li8 Ti12 Mn4 O32'
_cell_volume   613.05344117
_cell_formula_units_Z   4
loop_
 _symmetry_equiv_pos_site_id
 _symmetry_equiv_pos_as_xyz
  1  'x, y, z'
loop_
 _atom_site_type_symbol
 _atom_site_label
 _atom_site_symmetry_multiplicity
 _atom_site_fract_x
 _atom_site_fract_y
 _atom_site_fract_z
 _atom_site_occupancy
  Li  Li0  1  0.99999700  0.33335100  0.88871400  1
  Li  Li1  1  0.49998900  0.83335400  0.88871100  1
  Li  Li2  1  0.49999100  0.16666500  0.38871400  1
  Li  Li3  1  0.00000500  0.66665900  0.38871000  1
  Li  Li4  1  0.99999900  0.99999700  0.99906300  1
  Li  Li5  1  0.49999200  0.49999400  0.99906500  1
  Li  Li6  1  0.00000500  0.00001300  0.49906600  1
  Li  Li7  1  0.49999600  0.50001200  0.49906500  1
  Ti  Ti0  1  0.75270500  0.41575800  0.21575200  1
  Ti  Ti1  1  0.25269900  0.91574900  0.21575600  1
  Ti  Ti2  1  0.99999600  0.16849300  0.21571400  1
  Ti  Ti3  1  0.49998000  0.66847700  0.21570400  1
  Ti  Ti4  1  0.24729400  0.41576100  0.21573000  1
  Ti  Ti5  1  0.74730200  0.91575000  0.21573500  1
  Ti  Ti6  1  0.25270700  0.08424300  0.71574200  1
  Ti  Ti7  1  0.75270300  0.58423200  0.71572700  1
  Ti  Ti8  1  0.50000300  0.33150200  0.71573800  1
  Ti  Ti9  1  0.00002100  0.83151200  0.71572800  1
  Ti  Ti10  1  0.74729600  0.08424500  0.71573400  1
  Ti  Ti11  1  0.24730500  0.58423500  0.71572200  1
  Mn  Mn0  1  0.50020800  0.83343300  0.49673500  1
  Mn  Mn1  1  0.99985500  0.66666900  0.99665100  1
  Mn  Mn2  1  0.99994000  0.33335100  0.49677000  1
  Mn  Mn3  1  0.50000500  0.16661000  0.99683100  1
  O  O0  1  0.99998700  0.33332800  0.10624700  1
  O  O1  1  0.49999400  0.83333500  0.10624600  1
  O  O2  1  0.49999600  0.16668200  0.60624500  1
  O  O3  1  0.99998800  0.66667900  0.60624900  1
  O  O4  1  0.99998700  0.99999800  0.31612100  1
  O  O5  1  0.49999400  0.49999800  0.31612500  1
  O  O6  1  0.99998900  0.00000800  0.81612300  1
  O  O7  1  0.49999600  0.50001400  0.81612300  1
  O  O8  1  0.73249500  0.42250200  0.60863900  1
  O  O9  1  0.23250400  0.92250500  0.60863900  1
  O  O10  1  0.99998400  0.15502300  0.60864700  1
  O  O11  1  0.49999700  0.65502600  0.60864800  1
  O  O12  1  0.23248200  0.07750900  0.10864700  1
  O  O13  1  0.73247800  0.57751500  0.10864000  1
  O  O14  1  0.26749100  0.42250700  0.60864400  1
  O  O15  1  0.76750000  0.92250800  0.60864200  1
  O  O16  1  0.49998900  0.34498100  0.10865200  1
  O  O17  1  0.99998000  0.84498700  0.10864200  1
  O  O18  1  0.76750200  0.07751100  0.10864300  1
  O  O19  1  0.26748800  0.57751300  0.10863500  1
  O  O20  1  0.77455000  0.25818200  0.32463900  1
  O  O21  1  0.27455200  0.75818800  0.32463300  1
  O  O22  1  0.99998500  0.48363000  0.32463200  1
  O  O23  1  0.49999300  0.98364000  0.32463000  1
  O  O24  1  0.22542500  0.25818300  0.32463700  1
  O  O25  1  0.72543500  0.75819000  0.32463900  1
  O  O26  1  0.27455300  0.24183200  0.82463300  1
  O  O27  1  0.77455300  0.74183200  0.82463600  1
  O  O28  1  0.49999200  0.01638000  0.82463200  1
  O  O29  1  0.99998500  0.51638000  0.82462800  1
  O  O30  1  0.72543000  0.24183200  0.82463900  1
  O  O31  1  0.22542600  0.74183200  0.82463600  1
loop_
_geom_bond_atom_site_label_1
_geom_bond_atom_site_label_2
_geom_bond_distance
_geom_bond_site_symmetry_2
Li0 O29 1.996380 1_555
Li0 O26 1.996423 1_655
Li0 O30 1.996475 1_555
Li0 O0 2.161412 1_556
Li1 O28 1.996329 1_565
Li1 O27 1.996457 1_555
Li1 O31 1.996470 1_555
Li1 O1 2.161432 1_556
Li2 O23 1.996337 1_545
Li2 O20 1.996422 1_555
Li2 O24 1.996456 1_555
Li2 O2 2.161392 1_555
Li3 O22 1.996357 1_455
Li3 O21 1.996429 1_555
Li3 O25 1.996520 1_455
Li3 O3 2.161471 1_455
Li4 O6 1.817695 1_565
Li4 O12 1.937260 1_666
Li4 O18 1.937291 1_566
Li4 O17 1.937343 1_556
Li5 O7 1.817715 1_555
Li5 O13 1.937261 1_556
Li5 O19 1.937287 1_556
Li5 O16 1.937413 1_556
Li6 O4 1.817745 1_445
Li6 O9 1.937238 1_545
Li6 O15 1.937274 1_445
Li6 O10 1.937357 1_455
Li7 O5 1.817695 1_555
Li7 O8 1.937252 1_555
Li7 O14 1.937291 1_555
Li7 O11 1.937402 1_555
Mn0 O15 2.151591 1_555
Mn0 O9 2.153369 1_555
Mn0 O11 2.153605 1_555
Mn0 O23 2.309853 1_555
Mn0 O25 2.309967 1_555
Mn0 O21 2.311523 1_555
Mn1 O13 2.152732 1_556
Mn1 O17 2.153220 1_556
Mn1 O19 2.153840 1_656
Mn1 O27 2.309357 1_555
Mn1 O29 2.309823 1_555
Mn1 O31 2.310296 1_655
Mn2 O8 2.152392 1_555
Mn2 O10 2.152721 1_555
Mn2 O14 2.152926 1_655
Mn2 O20 2.310547 1_555
Mn2 O22 2.310596 1_555
Mn2 O24 2.310875 1_655
Mn3 O18 2.152103 1_556
Mn3 O12 2.152256 1_556
Mn3 O16 2.152817 1_556
Mn3 O28 2.310708 1_555
Mn3 O30 2.311295 1_555
Mn3 O26 2.311430 1_555
O0 Ti2 2.021561 1_555
O0 Ti0 2.021927 1_555
O0 Ti4 2.021947 1_655
O1 Ti3 2.021713 1_555
O1 Ti5 2.021905 1_555
O1 Ti1 2.021940 1_555
O2 Ti8 2.021572 1_555
O2 Ti10 2.021953 1_555
O2 Ti6 2.021964 1_555
O3 Ti9 2.021610 1_655
O3 Ti7 2.021880 1_555
O3 Ti11 2.021972 1_655
O4 Ti5 2.006964 1_555
O4 Ti1 2.006970 1_655
O4 Ti2 2.007328 1_565
O5 Ti0 2.006964 1_555
O5 Ti4 2.007027 1_555
O5 Ti3 2.007254 1_555
O6 Ti10 2.006952 1_555
O6 Ti6 2.007024 1_655
O6 Ti9 2.007281 1_645
O7 Ti11 2.006931 1_555
O7 Ti7 2.006972 1_555
O7 Ti8 2.007375 1_555
O8 Ti7 1.985458 1_555
O8 Ti8 1.985661 1_555
O9 Ti9 1.985536 1_555
O9 Ti6 1.985606 1_565
O10 Ti10 1.985453 1_555
O10 Ti6 1.985656 1_655
O11 Ti11 1.985451 1_555
O11 Ti7 1.985547 1_555
O12 Ti2 1.985377 1_455
O12 Ti1 1.985830 1_545
O13 Ti3 1.985303 1_555
O13 Ti0 1.985824 1_555
O14 Ti11 1.985378 1_555
O14 Ti8 1.985734 1_555
O15 Ti10 1.985537 1_565
O15 Ti9 1.985685 1_655
O16 Ti4 1.985435 1_555
O16 Ti0 1.985651 1_555
O17 Ti5 1.985373 1_555
O17 Ti1 1.985682 1_655
O18 Ti2 1.985438 1_555
O18 Ti5 1.985744 1_545
O19 Ti3 1.985331 1_555
O19 Ti4 1.985679 1_555
O20 Ti0 1.959869 1_555
O20 Ti2 1.959974 1_555
O21 Ti1 1.959688 1_555
O21 Ti3 1.960029 1_555
O22 Ti0 1.959821 1_555
O22 Ti4 1.960046 1_655
O23 Ti1 1.959921 1_555
O23 Ti5 1.960086 1_555
O24 Ti2 1.959914 1_455
O24 Ti4 1.960007 1_555
O25 Ti5 1.959835 1_555
O25 Ti3 1.960199 1_555
O26 Ti8 1.959743 1_555
O26 Ti6 1.960008 1_555
O27 Ti9 1.959937 1_655
O27 Ti7 1.960203 1_555
O28 Ti6 1.959854 1_555
O28 Ti10 1.959996 1_555
O29 Ti7 1.959860 1_555
O29 Ti11 1.960075 1_655
O30 Ti8 1.959674 1_555
O30 Ti10 1.960073 1_555
O31 Ti9 1.959671 1_555
O31 Ti11 1.960213 1_555
