# generated using pymatgen
data_Fe5O7F3
_symmetry_space_group_name_H-M   'P 1'
_cell_length_a   4.65677700
_cell_length_b   4.65662800
_cell_length_c   15.91422520
_cell_angle_alpha   73.03147535
_cell_angle_beta   90.00000000
_cell_angle_gamma   90.00000000
_symmetry_Int_Tables_number   1
_chemical_formula_structural   Fe5O7F3
_chemical_formula_sum   'Fe10 O14 F6'
_cell_volume   330.07426960
_cell_formula_units_Z   2
loop_
 _symmetry_equiv_pos_site_id
 _symmetry_equiv_pos_as_xyz
  1  'x, y, z'
loop_
 _atom_site_type_symbol
 _atom_site_label
 _atom_site_symmetry_multiplicity
 _atom_site_fract_x
 _atom_site_fract_y
 _atom_site_fract_z
 _atom_site_occupancy
  Fe  Fe0  1  0.25087100  0.99626600  0.99934300  1
  Fe  Fe1  1  0.23589700  0.23305400  0.79431200  1
  Fe  Fe2  1  0.23040600  0.41934600  0.60035500  1
  Fe  Fe3  1  0.26957900  0.55890900  0.40633500  1
  Fe  Fe4  1  0.23236600  0.78694500  0.20076600  1
  Fe  Fe5  1  0.73042100  0.55890900  0.90633500  1
  Fe  Fe6  1  0.74912900  0.99626600  0.49934300  1
  Fe  Fe7  1  0.76763400  0.78694500  0.70076600  1
  Fe  Fe8  1  0.76410300  0.23305400  0.29431200  1
  Fe  Fe9  1  0.76959400  0.41934600  0.10035500  1
  O  O0  1  0.04853700  0.11437300  0.69783400  1
  O  O1  1  0.05153000  0.29715600  0.50303600  1
  O  O2  1  0.07357700  0.50524700  0.30333000  1
  O  O3  1  0.06553000  0.71986100  0.09620900  1
  O  O4  1  0.55248600  0.69076700  0.00122800  1
  O  O5  1  0.57386900  0.27824400  0.40089100  1
  O  O6  1  0.55981100  0.50829500  0.19622700  1
  O  O7  1  0.94847000  0.29715600  0.00303600  1
  O  O8  1  0.92642300  0.50524700  0.80333000  1
  O  O9  1  0.93447000  0.71986100  0.59620900  1
  O  O10  1  0.95146300  0.11437300  0.19783400  1
  O  O11  1  0.42613100  0.27824400  0.90089100  1
  O  O12  1  0.44751400  0.69076700  0.50122800  1
  O  O13  1  0.44018900  0.50829500  0.69622700  1
  F  F0  1  0.04039200  0.89730400  0.89747300  1
  F  F1  1  0.54097600  0.89443700  0.80177400  1
  F  F2  1  0.54715400  0.09979600  0.60088600  1
  F  F3  1  0.95960800  0.89730400  0.39747300  1
  F  F4  1  0.45284600  0.09979600  0.10088600  1
  F  F5  1  0.45902400  0.89443700  0.30177400  1
loop_
_geom_bond_atom_site_label_1
_geom_bond_atom_site_label_2
_geom_bond_distance
_geom_bond_site_symmetry_2
Fe0 O3 1.902585 1_556
Fe0 O11 1.908988 1_565
Fe0 O4 1.993123 1_556
Fe0 O7 1.999440 1_466
Fe1 O8 1.951986 1_455
Fe1 O13 1.953607 1_555
Fe1 O11 1.978440 1_555
Fe1 O0 1.979727 1_555
Fe2 O9 1.951390 1_455
Fe2 O13 1.955157 1_555
Fe2 O0 1.963343 1_555
Fe2 O1 1.982583 1_555
Fe2 O12 1.986059 1_555
Fe3 O5 1.946700 1_555
Fe3 O1 1.946828 1_555
Fe3 O2 1.954929 1_555
Fe3 O12 1.971136 1_555
Fe4 O2 1.918834 1_555
Fe4 O3 1.942497 1_555
Fe4 O10 1.999131 1_465
Fe4 O6 2.017113 1_555
Fe5 O11 1.946700 1_555
Fe5 O7 1.946828 1_556
Fe5 O8 1.954929 1_555
Fe5 O4 1.971136 1_556
Fe6 O9 1.902585 1_555
Fe6 O5 1.908988 1_565
Fe6 O12 1.993123 1_555
Fe6 O1 1.999440 1_665
Fe7 O8 1.918834 1_555
Fe7 O9 1.942497 1_555
Fe7 O0 1.999131 1_665
Fe7 O13 2.017113 1_555
Fe8 O2 1.951986 1_655
Fe8 O6 1.953607 1_555
Fe8 O5 1.978440 1_555
Fe8 O10 1.979727 1_555
Fe9 O3 1.951390 1_655
Fe9 O6 1.955157 1_555
Fe9 O10 1.963343 1_555
Fe9 O7 1.982583 1_555
Fe9 O4 1.986059 1_555
F0 Fe0 2.058486 1_555
F0 Fe5 2.111125 1_455
F0 Fe1 2.114319 1_565
F1 Fe1 2.099879 1_565
F1 Fe7 2.101954 1_555
F1 Fe5 2.114438 1_555
F2 Fe6 2.045282 1_545
F2 Fe7 2.086012 1_545
F2 Fe2 2.093478 1_555
F3 Fe6 2.058486 1_555
F3 Fe3 2.111125 1_655
F3 Fe8 2.114319 1_565
F4 Fe0 2.045282 1_544
F4 Fe4 2.086012 1_545
F4 Fe9 2.093478 1_555
F5 Fe8 2.099879 1_565
F5 Fe4 2.101954 1_555
F5 Fe3 2.114438 1_555
