# generated using pymatgen
data_Ni(PO3)3
_symmetry_space_group_name_H-M   'P 1'
_cell_length_a   6.96507500
_cell_length_b   7.00855985
_cell_length_c   7.35158153
_cell_angle_alpha   76.84019951
_cell_angle_beta   85.10443892
_cell_angle_gamma   84.47456972
_symmetry_Int_Tables_number   1
_chemical_formula_structural   Ni(PO3)3
_chemical_formula_sum   'Ni2 P6 O18'
_cell_volume   347.07517548
_cell_formula_units_Z   2
loop_
 _symmetry_equiv_pos_site_id
 _symmetry_equiv_pos_as_xyz
  1  'x, y, z'
loop_
 _atom_site_type_symbol
 _atom_site_label
 _atom_site_symmetry_multiplicity
 _atom_site_fract_x
 _atom_site_fract_y
 _atom_site_fract_z
 _atom_site_occupancy
  Ni  Ni0  1  0.15589300  0.56634700  0.14491900  1
  Ni  Ni1  1  0.84410700  0.43365300  0.85508100  1
  P  P0  1  0.14150600  0.25240600  0.54886800  1
  P  P1  1  0.28859200  0.86067700  0.76661600  1
  P  P2  1  0.36151800  0.44548500  0.78171400  1
  P  P3  1  0.63848200  0.55451500  0.21828600  1
  P  P4  1  0.71140800  0.13932300  0.23338400  1
  P  P5  1  0.85849400  0.74759400  0.45113200  1
  O  O0  1  0.04033500  0.71106100  0.33653400  1
  O  O1  1  0.14559500  0.30924600  0.33955400  1
  O  O2  1  0.14657700  0.81912600  0.93626300  1
  O  O3  1  0.20110200  0.41311900  0.93578900  1
  O  O4  1  0.20205700  0.01641200  0.59362400  1
  O  O5  1  0.32217400  0.34026100  0.61733000  1
  O  O6  1  0.33263000  0.67727100  0.67098900  1
  O  O7  1  0.43254100  0.60367300  0.17615400  1
  O  O8  1  0.53051900  0.07127900  0.17386800  1
  O  O9  1  0.46948100  0.92872100  0.82613200  1
  O  O10  1  0.56745900  0.39632700  0.82384600  1
  O  O11  1  0.66737000  0.32272900  0.32901100  1
  O  O12  1  0.67782600  0.65973900  0.38267000  1
  O  O13  1  0.79794300  0.98358800  0.40637600  1
  O  O14  1  0.79889800  0.58688100  0.06421100  1
  O  O15  1  0.85342300  0.18087400  0.06373700  1
  O  O16  1  0.85440500  0.69075400  0.66044600  1
  O  O17  1  0.95966500  0.28893900  0.66346600  1
loop_
_geom_bond_atom_site_label_1
_geom_bond_atom_site_label_2
_geom_bond_distance
_geom_bond_site_symmetry_2
Ni0 O0 1.990146 1_555
Ni0 O7 2.008470 1_555
Ni0 O1 2.032928 1_555
Ni0 O3 2.054307 1_554
Ni0 O2 2.062350 1_554
Ni1 O17 1.990146 1_555
Ni1 O10 2.008470 1_555
Ni1 O16 2.032928 1_555
Ni1 O14 2.054307 1_556
Ni1 O15 2.062350 1_556
O0 P5 1.494353 1_455
O1 P0 1.497652 1_555
O2 P1 1.515980 1_555
O3 P2 1.516127 1_555
O4 P1 1.595015 1_545
O4 P0 1.631970 1_555
O5 P2 1.606433 1_555
O5 P0 1.616896 1_555
O6 P1 1.593526 1_555
O6 P2 1.644671 1_555
O7 P3 1.484653 1_555
O8 P4 1.520206 1_555
O9 P1 1.520206 1_555
O10 P2 1.484653 1_555
O11 P4 1.593526 1_555
O11 P3 1.644671 1_555
O12 P3 1.606433 1_555
O12 P5 1.616896 1_555
O13 P4 1.595015 1_565
O13 P5 1.631970 1_555
O14 P3 1.516127 1_555
O15 P4 1.515980 1_555
O16 P5 1.497652 1_555
O17 P0 1.494353 1_655
