# generated using pymatgen
data_Li3V4O11F
_symmetry_space_group_name_H-M   'P 1'
_cell_length_a   4.98162200
_cell_length_b   5.08934309
_cell_length_c   9.04380778
_cell_angle_alpha   95.27118074
_cell_angle_beta   89.63485271
_cell_angle_gamma   110.68631989
_symmetry_Int_Tables_number   1
_chemical_formula_structural   Li3V4O11F
_chemical_formula_sum   'Li3 V4 O11 F1'
_cell_volume   213.51580510
_cell_formula_units_Z   1
loop_
 _symmetry_equiv_pos_site_id
 _symmetry_equiv_pos_as_xyz
  1  'x, y, z'
loop_
 _atom_site_type_symbol
 _atom_site_label
 _atom_site_symmetry_multiplicity
 _atom_site_fract_x
 _atom_site_fract_y
 _atom_site_fract_z
 _atom_site_occupancy
  Li  Li0  1  0.41015600  0.83614100  0.11930900  1
  Li  Li1  1  0.10132100  0.65331700  0.39303100  1
  Li  Li2  1  0.61437300  0.17134700  0.87205800  1
  V  V0  1  0.49006000  0.25869700  0.38431100  1
  V  V1  1  0.96300700  0.75037700  0.88314300  1
  V  V2  1  0.07035400  0.18797500  0.13850000  1
  V  V3  1  0.56575200  0.75511000  0.64173100  1
  O  O0  1  0.47708600  0.99089300  0.49183400  1
  O  O1  1  0.32100800  0.49748900  0.22596500  1
  O  O2  1  0.99777200  0.50772800  0.98877500  1
  O  O3  1  0.75848400  0.92065800  0.00836500  1
  O  O4  1  0.84590900  0.02482600  0.71682200  1
  O  O5  1  0.72512100  0.58593800  0.48278100  1
  O  O6  1  0.27172600  0.78096900  0.75022500  1
  O  O7  1  0.73371800  0.23485800  0.24899200  1
  O  O8  1  0.14272500  0.98070100  0.26863600  1
  O  O9  1  0.27149500  0.09470500  0.99090900  1
  O  O10  1  0.65456600  0.51881800  0.76949400  1
  F  F0  1  0.21329800  0.39417200  0.50503500  1
loop_
_geom_bond_atom_site_label_1
_geom_bond_atom_site_label_2
_geom_bond_distance
_geom_bond_site_symmetry_2
Li0 O3 1.931987 1_555
Li0 O1 1.964020 1_555
Li0 O9 2.119063 1_564
Li0 O8 2.151032 1_555
Li0 O7 2.316742 1_565
Li0 O2 2.376983 1_454
Li1 O5 1.966300 1_455
Li1 O8 2.045227 1_555
Li1 O1 2.116946 1_555
Li1 O0 2.172855 1_555
Li1 O7 2.520175 1_455
Li2 O9 1.951402 1_555
Li2 O10 2.019053 1_555
Li2 O4 2.062068 1_555
Li2 O3 2.147130 1_546
Li2 O2 2.253109 1_555
Li2 O6 2.302328 1_545
O0 V0 1.728548 1_565
O0 V3 2.038090 1_555
O1 V2 1.749344 1_555
O1 V0 2.301121 1_555
O2 V1 1.684528 1_555
O2 V2 2.332235 1_656
O3 V1 1.870934 1_554
O3 V2 1.971179 1_665
O4 V3 1.667496 1_545
O4 V1 2.350882 1_545
O5 V0 1.816844 1_555
O5 V3 1.918070 1_555
O6 V3 1.794335 1_555
O6 V1 1.917318 1_455
O7 V0 1.744584 1_555
O7 V2 2.021214 1_655
O8 V2 1.769220 1_565
O8 V0 2.027708 1_565
O9 V2 1.792643 1_556
O9 V1 2.045750 1_445
O10 V1 1.823302 1_555
O10 V3 1.901251 1_555
F0 Li1 1.961915 1_555
F0 V0 2.020495 1_555
F0 V3 2.305907 1_555
