# generated using pymatgen
data_V3OF11
_symmetry_space_group_name_H-M   'P 1'
_cell_length_a   5.27322200
_cell_length_b   5.45595621
_cell_length_c   14.76270475
_cell_angle_alpha   79.68173723
_cell_angle_beta   89.94826471
_cell_angle_gamma   89.92085009
_symmetry_Int_Tables_number   1
_chemical_formula_structural   V3OF11
_chemical_formula_sum   'V6 O2 F22'
_cell_volume   417.86070323
_cell_formula_units_Z   2
loop_
 _symmetry_equiv_pos_site_id
 _symmetry_equiv_pos_as_xyz
  1  'x, y, z'
loop_
 _atom_site_type_symbol
 _atom_site_label
 _atom_site_symmetry_multiplicity
 _atom_site_fract_x
 _atom_site_fract_y
 _atom_site_fract_z
 _atom_site_occupancy
  V  V0  1  0.00503700  0.99808700  0.00131800  1
  V  V1  1  0.50821500  0.84469500  0.33373600  1
  V  V2  1  0.00007400  0.66675900  0.66627600  1
  V  V3  1  0.51006300  0.49991200  0.99395500  1
  V  V4  1  0.02553300  0.37469500  0.32977200  1
  V  V5  1  0.50019700  0.16667500  0.66637700  1
  O  O0  1  0.58089600  0.54500000  0.88565100  1
  O  O1  1  0.20468800  0.62528700  0.31047100  1
  F  F0  1  0.19828500  0.97651800  0.64193500  1
  F  F1  1  0.29820800  0.80323000  0.97553600  1
  F  F2  1  0.69852700  0.85664200  0.69115000  1
  F  F3  1  0.08134000  0.95632100  0.11869900  1
  F  F4  1  0.41261700  0.78392000  0.45058100  1
  F  F5  1  0.08554000  0.62467000  0.78409700  1
  F  F6  1  0.57750600  0.87213700  0.21523700  1
  F  F7  1  0.91342100  0.70602600  0.54929800  1
  F  F8  1  0.30183200  0.47676500  0.64211800  1
  F  F9  1  0.20759500  0.30361800  0.97570800  1
  F  F10  1  0.79237800  0.69365000  0.02644100  1
  F  F11  1  0.71364100  0.53025000  0.35729600  1
  F  F12  1  0.80150600  0.35600100  0.69158800  1
  F  F13  1  0.40802500  0.45851800  0.11551900  1
  F  F14  1  0.07235800  0.27347700  0.44953700  1
  F  F15  1  0.41318400  0.12395400  0.78413400  1
  F  F16  1  0.90712600  0.36489500  0.21805400  1
  F  F17  1  0.58496000  0.20882300  0.54916100  1
  F  F18  1  0.91167300  0.04161400  0.88451200  1
  F  F19  1  0.28983600  0.14254700  0.30878300  1
  F  F20  1  0.70334000  0.19745400  0.02605600  1
  F  F21  1  0.79239800  0.02786000  0.35700200  1
loop_
_geom_bond_atom_site_label_1
_geom_bond_atom_site_label_2
_geom_bond_distance
_geom_bond_site_symmetry_2
O0 V3 1.616991 1_555
O1 V4 1.645146 1_555
O1 V1 2.065513 1_555
F0 V2 1.965820 1_555
F0 V5 1.970002 1_565
F1 V0 1.950498 1_556
F1 V3 1.973545 1_555
F2 V5 1.965447 1_565
F2 V2 1.966543 1_655
F3 V0 1.753904 1_555
F4 V1 1.770174 1_555
F5 V2 1.771794 1_555
F6 V1 1.766741 1_555
F7 V2 1.762253 1_655
F8 V2 1.964845 1_555
F8 V5 1.965571 1_555
F9 V0 1.959856 1_546
F9 V3 1.967829 1_555
F10 V3 1.936697 1_554
F10 V0 1.984365 1_655
F11 V4 1.925832 1_655
F11 V1 2.004865 1_555
F12 V5 1.968081 1_555
F12 V2 1.971784 1_655
F13 V3 1.847853 1_554
F14 V4 1.772737 1_555
F15 V5 1.772185 1_555
F16 V4 1.773786 1_655
F17 V5 1.761640 1_555
F18 V0 1.768264 1_646
F19 V4 1.943623 1_555
F19 V1 1.970732 1_545
F20 V3 1.924205 1_554
F20 V0 1.996003 1_645
F21 V1 1.868251 1_545
F21 V4 2.233125 1_655
