# generated using pymatgen
data_RbCrO2
_symmetry_space_group_name_H-M   'P 1'
_cell_length_a   6.45790220
_cell_length_b   6.45790220
_cell_length_c   6.45790218
_cell_angle_alpha   27.92711904
_cell_angle_beta   27.92711904
_cell_angle_gamma   27.92711973
_symmetry_Int_Tables_number   1
_chemical_formula_structural   RbCrO2
_chemical_formula_sum   'Rb1 Cr1 O2'
_cell_volume   52.17321079
_cell_formula_units_Z   1
loop_
 _symmetry_equiv_pos_site_id
 _symmetry_equiv_pos_as_xyz
  1  'x, y, z'
loop_
 _atom_site_type_symbol
 _atom_site_label
 _atom_site_symmetry_multiplicity
 _atom_site_fract_x
 _atom_site_fract_y
 _atom_site_fract_z
 _atom_site_occupancy
  Rb  Rb0  1  0.00000000  0.00000000  0.00000000  1
  Cr  Cr0  1  0.50000000  0.50000000  0.50000000  1
  O  O0  1  0.21982426  0.21982426  0.21982426  1
  O  O1  1  0.78017574  0.78017574  0.78017574  1
loop_
_geom_bond_atom_site_label_1
_geom_bond_atom_site_label_2
_geom_bond_distance
_geom_bond_site_symmetry_2
Cr0 O0 2.053313 1_556
Cr0 O1 2.053313 1_554
Cr0 O0 2.053313 1_565
Cr0 O0 2.053313 1_655
Cr0 O1 2.053313 1_545
Cr0 O1 2.053313 1_455
O0 Rb0 2.774594 1_556
O0 Rb0 2.774594 1_655
O0 Rb0 2.774594 1_565
O1 Rb0 2.774594 1_665
O1 Rb0 2.774594 1_566
O1 Rb0 2.774594 1_656
