# generated using pymatgen
data_Fe4OF7
_symmetry_space_group_name_H-M   'P 1'
_cell_length_a   4.80746700
_cell_length_b   6.50481700
_cell_length_c   9.61058664
_cell_angle_alpha   89.79312731
_cell_angle_beta   90.00000000
_cell_angle_gamma   90.00000000
_symmetry_Int_Tables_number   1
_chemical_formula_structural   Fe4OF7
_chemical_formula_sum   'Fe8 O2 F14'
_cell_volume   300.53735676
_cell_formula_units_Z   2
loop_
 _symmetry_equiv_pos_site_id
 _symmetry_equiv_pos_as_xyz
  1  'x, y, z'
loop_
 _atom_site_type_symbol
 _atom_site_label
 _atom_site_symmetry_multiplicity
 _atom_site_fract_x
 _atom_site_fract_y
 _atom_site_fract_z
 _atom_site_occupancy
  Fe  Fe0  1  0.98556200  0.39403500  0.63453000  1
  Fe  Fe1  1  0.98605200  0.86954100  0.62852300  1
  Fe  Fe2  1  0.01725600  0.37635100  0.13260000  1
  Fe  Fe3  1  0.00109200  0.87300100  0.12156800  1
  Fe  Fe4  1  0.48556200  0.60596500  0.36547000  1
  Fe  Fe5  1  0.48605200  0.13045900  0.37147700  1
  Fe  Fe6  1  0.51725600  0.62364900  0.86740000  1
  Fe  Fe7  1  0.50109200  0.12699900  0.87843200  1
  O  O0  1  0.80839500  0.61169500  0.71781900  1
  O  O1  1  0.30839500  0.38830500  0.28218100  1
  F  F0  1  0.79683900  0.63060000  0.22902600  1
  F  F1  1  0.80264900  0.11750100  0.22784000  1
  F  F2  1  0.79970500  0.14239800  0.72264200  1
  F  F3  1  0.71494600  0.38634300  0.47345800  1
  F  F4  1  0.68455000  0.86021000  0.46762300  1
  F  F5  1  0.70543100  0.37171700  0.98163300  1
  F  F6  1  0.69752200  0.87665200  0.97605900  1
  F  F7  1  0.29970500  0.85760200  0.27735800  1
  F  F8  1  0.29683900  0.36940000  0.77097400  1
  F  F9  1  0.30264900  0.88249900  0.77216000  1
  F  F10  1  0.19752200  0.12334800  0.02394100  1
  F  F11  1  0.21494600  0.61365700  0.52654200  1
  F  F12  1  0.18455000  0.13979000  0.53237700  1
  F  F13  1  0.20543100  0.62828300  0.01836700  1
loop_
_geom_bond_atom_site_label_1
_geom_bond_atom_site_label_2
_geom_bond_distance
_geom_bond_site_symmetry_2
Fe0 O0 1.838191 1_555
Fe1 O0 2.066079 1_555
Fe2 O1 2.008091 1_555
Fe4 O1 1.838191 1_555
Fe5 O1 2.066079 1_555
Fe6 O0 2.008091 1_555
F0 Fe4 1.995761 1_555
F0 Fe3 2.122546 1_655
F0 Fe2 2.174376 1_655
F1 Fe5 2.056726 1_555
F1 Fe3 2.120012 1_645
F1 Fe2 2.173981 1_655
F2 Fe0 2.045655 1_555
F2 Fe7 2.076421 1_555
F2 Fe1 2.186906 1_545
F3 Fe0 2.022844 1_555
F3 Fe4 2.079267 1_555
F3 Fe5 2.225700 1_555
F4 Fe1 2.120490 1_555
F4 Fe4 2.150769 1_555
F4 Fe5 2.200682 1_565
F5 Fe2 2.086516 1_656
F5 Fe7 2.119930 1_555
F5 Fe6 2.167079 1_555
F6 Fe3 2.021331 1_656
F6 Fe7 2.100698 1_565
F6 Fe6 2.135981 1_555
F7 Fe4 2.045655 1_555
F7 Fe3 2.076421 1_555
F7 Fe5 2.186906 1_565
F8 Fe0 1.995761 1_455
F8 Fe7 2.122546 1_555
F8 Fe6 2.174376 1_555
F9 Fe1 2.056726 1_455
F9 Fe7 2.120012 1_565
F9 Fe6 2.173981 1_555
F10 Fe7 2.021331 1_554
F10 Fe3 2.100698 1_545
F10 Fe2 2.135981 1_555
F11 Fe4 2.022844 1_555
F11 Fe0 2.079267 1_455
F11 Fe1 2.225700 1_455
F12 Fe5 2.120490 1_555
F12 Fe0 2.150769 1_455
F12 Fe1 2.200682 1_445
F13 Fe6 2.086516 1_554
F13 Fe3 2.119930 1_555
F13 Fe2 2.167079 1_555
