# generated using pymatgen
data_Li2VF6
_symmetry_space_group_name_H-M   'P 1'
_cell_length_a   8.40838317
_cell_length_b   8.40838317
_cell_length_c   5.61415600
_cell_angle_alpha   90.00000000
_cell_angle_beta   90.00000000
_cell_angle_gamma   141.45194514
_symmetry_Int_Tables_number   1
_chemical_formula_structural   Li2VF6
_chemical_formula_sum   'Li4 V2 F12'
_cell_volume   247.35264684
_cell_formula_units_Z   2
loop_
 _symmetry_equiv_pos_site_id
 _symmetry_equiv_pos_as_xyz
  1  'x, y, z'
loop_
 _atom_site_type_symbol
 _atom_site_label
 _atom_site_symmetry_multiplicity
 _atom_site_fract_x
 _atom_site_fract_y
 _atom_site_fract_z
 _atom_site_occupancy
  Li  Li0  1  0.86512000  0.13488000  0.75000000  1
  Li  Li1  1  0.16605900  0.83394100  0.75000000  1
  Li  Li2  1  0.83394100  0.16605900  0.25000000  1
  Li  Li3  1  0.13488000  0.86512000  0.25000000  1
  V  V0  1  0.37847500  0.62152500  0.25000000  1
  V  V1  1  0.62152500  0.37847500  0.75000000  1
  F  F0  1  0.51063000  0.48937000  0.75000000  1
  F  F1  1  0.62868300  0.88616800  0.02048300  1
  F  F2  1  0.62868300  0.88616800  0.47951700  1
  F  F3  1  0.11383200  0.37131700  0.02048300  1
  F  F4  1  0.11383200  0.37131700  0.47951700  1
  F  F5  1  0.26014800  0.73985200  0.25000000  1
  F  F6  1  0.73985200  0.26014800  0.75000000  1
  F  F7  1  0.37131700  0.11383200  0.97951700  1
  F  F8  1  0.88616800  0.62868300  0.52048300  1
  F  F9  1  0.88616800  0.62868300  0.97951700  1
  F  F10  1  0.37131700  0.11383200  0.52048300  1
  F  F11  1  0.48937000  0.51063000  0.25000000  1
loop_
_geom_bond_atom_site_label_1
_geom_bond_atom_site_label_2
_geom_bond_distance
_geom_bond_site_symmetry_2
F0 V1 1.760369 1_555
F1 V0 1.927542 1_555
F1 Li2 1.955604 1_565
F1 Li0 2.031890 1_564
F2 V0 1.927542 1_555
F2 Li2 1.955604 1_565
F2 Li0 2.031890 1_565
F3 V0 1.927542 1_555
F3 Li2 1.955604 1_455
F3 Li0 2.031890 1_454
F4 V0 1.927542 1_555
F4 Li2 1.955604 1_455
F4 Li0 2.031890 1_455
F5 V0 1.878346 1_555
F5 Li3 1.988529 1_555
F6 V1 1.878346 1_555
F6 Li0 1.988529 1_555
F7 V1 1.927542 1_555
F7 Li1 1.955604 1_545
F7 Li3 2.031890 1_546
F8 V1 1.927542 1_555
F8 Li1 1.955604 1_655
F8 Li3 2.031890 1_655
F9 V1 1.927542 1_555
F9 Li1 1.955604 1_655
F9 Li3 2.031890 1_656
F10 V1 1.927542 1_555
F10 Li1 1.955604 1_545
F10 Li3 2.031890 1_545
F11 V0 1.760369 1_555
