# generated using pymatgen
data_SrLi4NiO4
_symmetry_space_group_name_H-M   'P 1'
_cell_length_a   5.16963800
_cell_length_b   9.59320600
_cell_length_c   17.87890200
_cell_angle_alpha   90.00000000
_cell_angle_beta   90.00000000
_cell_angle_gamma   90.00000000
_symmetry_Int_Tables_number   1
_chemical_formula_structural   SrLi4NiO4
_chemical_formula_sum   'Sr8 Li32 Ni8 O32'
_cell_volume   886.67557920
_cell_formula_units_Z   8
loop_
 _symmetry_equiv_pos_site_id
 _symmetry_equiv_pos_as_xyz
  1  'x, y, z'
loop_
 _atom_site_type_symbol
 _atom_site_label
 _atom_site_symmetry_multiplicity
 _atom_site_fract_x
 _atom_site_fract_y
 _atom_site_fract_z
 _atom_site_occupancy
  Sr  Sr0  1  0.23763300  0.87642600  0.51726000  1
  Sr  Sr1  1  0.26236700  0.87642600  0.01726000  1
  Sr  Sr2  1  0.73763300  0.62357400  0.51726000  1
  Sr  Sr3  1  0.76236700  0.62357400  0.01726000  1
  Sr  Sr4  1  0.23763300  0.37642600  0.98274000  1
  Sr  Sr5  1  0.26236700  0.37642600  0.48274000  1
  Sr  Sr6  1  0.76236700  0.12357400  0.48274000  1
  Sr  Sr7  1  0.73763300  0.12357400  0.98274000  1
  Li  Li0  1  0.69211300  0.85256900  0.40787800  1
  Li  Li1  1  0.80788700  0.85256900  0.90787800  1
  Li  Li2  1  0.59316000  0.95406600  0.28286800  1
  Li  Li3  1  0.90684000  0.95406600  0.78286800  1
  Li  Li4  1  0.00760000  0.82973200  0.31904700  1
  Li  Li5  1  0.49240000  0.82973200  0.81904700  1
  Li  Li6  1  0.22677900  0.81213800  0.19015200  1
  Li  Li7  1  0.27322100  0.81213800  0.69015200  1
  Li  Li8  1  0.72677900  0.68786200  0.19015200  1
  Li  Li9  1  0.77322100  0.68786200  0.69015200  1
  Li  Li10  1  0.50760000  0.67026800  0.31904700  1
  Li  Li11  1  0.99240000  0.67026800  0.81904700  1
  Li  Li12  1  0.09316000  0.54593400  0.28286800  1
  Li  Li13  1  0.40684000  0.54593400  0.78286800  1
  Li  Li14  1  0.30788700  0.64743100  0.90787800  1
  Li  Li15  1  0.19211300  0.64743100  0.40787800  1
  Li  Li16  1  0.69211300  0.35256900  0.09212200  1
  Li  Li17  1  0.80788700  0.35256900  0.59212200  1
  Li  Li18  1  0.59316000  0.45406600  0.21713200  1
  Li  Li19  1  0.90684000  0.45406600  0.71713200  1
  Li  Li20  1  0.00760000  0.32973200  0.18095300  1
  Li  Li21  1  0.49240000  0.32973200  0.68095300  1
  Li  Li22  1  0.27322100  0.31213800  0.80984800  1
  Li  Li23  1  0.22677900  0.31213800  0.30984800  1
  Li  Li24  1  0.72677900  0.18786200  0.30984800  1
  Li  Li25  1  0.77322100  0.18786200  0.80984800  1
  Li  Li26  1  0.99240000  0.17026800  0.68095300  1
  Li  Li27  1  0.50760000  0.17026800  0.18095300  1
  Li  Li28  1  0.40684000  0.04593400  0.71713200  1
  Li  Li29  1  0.09316000  0.04593400  0.21713200  1
  Li  Li30  1  0.30788700  0.14743100  0.59212200  1
  Li  Li31  1  0.19211300  0.14743100  0.09212200  1
  Ni  Ni0  1  0.73415400  0.95378300  0.12789000  1
  Ni  Ni1  1  0.76584600  0.95378300  0.62789000  1
  Ni  Ni2  1  0.23415400  0.54621700  0.12789000  1
  Ni  Ni3  1  0.26584600  0.54621700  0.62789000  1
  Ni  Ni4  1  0.73415400  0.45378300  0.37211000  1
  Ni  Ni5  1  0.76584600  0.45378300  0.87211000  1
  Ni  Ni6  1  0.23415400  0.04621700  0.37211000  1
  Ni  Ni7  1  0.26584600  0.04621700  0.87211000  1
  O  O0  1  0.35491700  0.98078100  0.14030100  1
  O  O1  1  0.14508300  0.98078100  0.64030100  1
  O  O2  1  0.76259100  0.87814700  0.02131700  1
  O  O3  1  0.73740900  0.87814700  0.52131700  1
  O  O4  1  0.87716700  0.86378200  0.21708200  1
  O  O5  1  0.62283300  0.86378200  0.71708200  1
  O  O6  1  0.34665800  0.84149100  0.36911000  1
  O  O7  1  0.15334200  0.84149100  0.86911000  1
  O  O8  1  0.84665800  0.65850900  0.36911000  1
  O  O9  1  0.65334200  0.65850900  0.86911000  1
  O  O10  1  0.37716700  0.63621800  0.21708200  1
  O  O11  1  0.12283300  0.63621800  0.71708200  1
  O  O12  1  0.23740900  0.62185300  0.52131700  1
  O  O13  1  0.26259100  0.62185300  0.02131700  1
  O  O14  1  0.85491700  0.51921900  0.14030100  1
  O  O15  1  0.64508300  0.51921900  0.64030100  1
  O  O16  1  0.35491700  0.48078100  0.35969900  1
  O  O17  1  0.14508300  0.48078100  0.85969900  1
  O  O18  1  0.73740900  0.37814700  0.97868300  1
  O  O19  1  0.76259100  0.37814700  0.47868300  1
  O  O20  1  0.87716700  0.36378200  0.28291800  1
  O  O21  1  0.62283300  0.36378200  0.78291800  1
  O  O22  1  0.34665800  0.34149100  0.13089000  1
  O  O23  1  0.15334200  0.34149100  0.63089000  1
  O  O24  1  0.65334200  0.15850900  0.63089000  1
  O  O25  1  0.84665800  0.15850900  0.13089000  1
  O  O26  1  0.37716700  0.13621800  0.28291800  1
  O  O27  1  0.12283300  0.13621800  0.78291800  1
  O  O28  1  0.26259100  0.12185300  0.47868300  1
  O  O29  1  0.23740900  0.12185300  0.97868300  1
  O  O30  1  0.85491700  0.01921900  0.35969900  1
  O  O31  1  0.64508300  0.01921900  0.85969900  1
loop_
_geom_bond_atom_site_label_1
_geom_bond_atom_site_label_2
_geom_bond_distance
_geom_bond_site_symmetry_2
Li0 O6 1.918614 1_555
Li0 O30 2.001552 1_565
Li0 O3 2.056330 1_555
Li0 O8 2.141146 1_555
Li1 O7 1.918614 1_655
Li1 O31 2.001552 1_565
Li1 O2 2.056330 1_556
Li1 O9 2.141146 1_555
Li2 O30 2.026994 1_565
Li2 O4 2.071040 1_555
Li2 O26 2.073714 1_565
Li2 O6 2.273258 1_555
Li3 O31 2.026994 1_565
Li3 O5 2.071040 1_555
Li3 O27 2.073714 1_665
Li3 O7 2.273258 1_655
Li4 O4 1.970984 1_455
Li4 O6 1.971348 1_555
Li4 O8 2.047305 1_455
Li4 O30 2.110836 1_465
Li5 O5 1.970984 1_555
Li5 O7 1.971348 1_555
Li5 O9 2.047305 1_555
Li5 O31 2.110836 1_565
Li6 O10 1.919471 1_555
Li6 O4 1.934903 1_455
Li6 O0 1.962283 1_555
Li7 O11 1.919471 1_555
Li7 O5 1.934903 1_555
Li7 O1 1.962283 1_555
Li8 O4 1.919471 1_555
Li8 O10 1.934903 1_555
Li8 O14 1.962283 1_555
Li9 O5 1.919471 1_555
Li9 O11 1.934903 1_655
Li9 O15 1.962283 1_555
Li10 O10 1.970984 1_555
Li10 O8 1.971348 1_555
Li10 O6 2.047305 1_555
Li10 O16 2.110836 1_555
Li11 O11 1.970984 1_655
Li11 O9 1.971348 1_555
Li11 O7 2.047305 1_655
Li11 O17 2.110836 1_655
Li12 O16 2.026994 1_555
Li12 O10 2.071040 1_555
Li12 O20 2.073714 1_455
Li12 O8 2.273258 1_455
Li13 O17 2.026994 1_555
Li13 O11 2.071040 1_555
Li13 O21 2.073714 1_555
Li13 O9 2.273258 1_555
Li14 O9 1.918614 1_555
Li14 O17 2.001552 1_555
Li14 O13 2.056330 1_556
Li14 O7 2.141146 1_555
Li15 O8 1.918614 1_455
Li15 O16 2.001552 1_555
Li15 O12 2.056330 1_555
Li15 O6 2.141146 1_555
Li16 O22 1.918614 1_555
Li16 O14 2.001552 1_555
Li16 O18 2.056330 1_554
Li16 O25 2.141146 1_555
Li17 O23 1.918614 1_655
Li17 O15 2.001552 1_555
Li17 O19 2.056330 1_555
Li17 O24 2.141146 1_555
Li18 O14 2.026994 1_555
Li18 O20 2.071040 1_555
Li18 O10 2.073714 1_555
Li18 O22 2.273258 1_555
Li19 O15 2.026994 1_555
Li19 O21 2.071040 1_555
Li19 O11 2.073714 1_655
Li19 O23 2.273258 1_655
Li20 O20 1.970984 1_455
Li20 O22 1.971348 1_555
Li20 O25 2.047305 1_455
Li20 O14 2.110836 1_455
Li21 O21 1.970984 1_555
Li21 O23 1.971348 1_555
Li21 O24 2.047305 1_555
Li21 O15 2.110836 1_555
Li22 O27 1.919471 1_555
Li22 O21 1.934903 1_555
Li22 O17 1.962283 1_555
Li23 O26 1.919471 1_555
Li23 O20 1.934903 1_455
Li23 O16 1.962283 1_555
Li24 O20 1.919471 1_555
Li24 O26 1.934903 1_555
Li24 O30 1.962283 1_555
Li25 O21 1.919471 1_555
Li25 O27 1.934903 1_655
Li25 O31 1.962283 1_555
Li26 O27 1.970984 1_655
Li26 O24 1.971348 1_555
Li26 O23 2.047305 1_655
Li26 O1 2.110836 1_645
Li27 O26 1.970984 1_555
Li27 O25 1.971348 1_555
Li27 O22 2.047305 1_555
Li27 O0 2.110836 1_545
Li28 O1 2.026994 1_545
Li28 O27 2.071040 1_555
Li28 O5 2.073714 1_545
Li28 O24 2.273258 1_555
Li29 O0 2.026994 1_545
Li29 O26 2.071040 1_555
Li29 O4 2.073714 1_445
Li29 O25 2.273258 1_455
Li30 O24 1.918614 1_555
Li30 O1 2.001552 1_545
Li30 O28 2.056330 1_555
Li30 O23 2.141146 1_555
Li31 O25 1.918614 1_455
Li31 O0 2.001552 1_545
Li31 O29 2.056330 1_554
Li31 O22 2.141146 1_555
Ni0 O4 1.958311 1_555
Ni0 O0 1.989962 1_555
Ni0 O2 2.044181 1_555
Ni0 O25 2.048988 1_565
Ni1 O5 1.958311 1_555
Ni1 O1 1.989962 1_655
Ni1 O3 2.044181 1_555
Ni1 O24 2.048988 1_565
Ni2 O10 1.958311 1_555
Ni2 O14 1.989962 1_455
Ni2 O13 2.044181 1_555
Ni2 O22 2.048988 1_555
Ni3 O11 1.958311 1_555
Ni3 O15 1.989962 1_555
Ni3 O12 2.044181 1_555
Ni3 O23 2.048988 1_555
Ni4 O20 1.958311 1_555
Ni4 O16 1.989962 1_555
Ni4 O19 2.044181 1_555
Ni4 O8 2.048988 1_555
Ni5 O21 1.958311 1_555
Ni5 O17 1.989962 1_655
Ni5 O18 2.044181 1_555
Ni5 O9 2.048988 1_555
Ni6 O26 1.958311 1_555
Ni6 O30 1.989962 1_455
Ni6 O28 2.044181 1_555
Ni6 O6 2.048988 1_545
Ni7 O27 1.958311 1_555
Ni7 O31 1.989962 1_555
Ni7 O29 2.044181 1_555
Ni7 O7 2.048988 1_545
O0 Sr1 2.463818 1_555
O1 Sr0 2.463818 1_555
O2 Sr3 2.443248 1_555
O2 Sr7 2.456767 1_564
O2 Sr1 2.584732 1_655
O2 Sr1 2.587047 1_555
O3 Sr2 2.443248 1_555
O3 Sr6 2.456767 1_565
O3 Sr0 2.584732 1_555
O3 Sr0 2.587047 1_655
O6 Sr0 2.728720 1_555
O7 Sr1 2.728720 1_556
O8 Sr2 2.728720 1_555
O9 Sr3 2.728720 1_556
O12 Sr0 2.443248 1_555
O12 Sr5 2.456767 1_555
O12 Sr2 2.584732 1_455
O12 Sr2 2.587047 1_555
O13 Sr1 2.443248 1_555
O13 Sr4 2.456767 1_554
O13 Sr3 2.584732 1_555
O13 Sr3 2.587047 1_455
O14 Sr3 2.463818 1_555
O15 Sr2 2.463818 1_555
O16 Sr5 2.463818 1_555
O17 Sr4 2.463818 1_555
O18 Sr7 2.443248 1_555
O18 Sr3 2.456767 1_556
O18 Sr4 2.584732 1_555
O18 Sr4 2.587047 1_655
O19 Sr6 2.443248 1_555
O19 Sr2 2.456767 1_555
O19 Sr5 2.584732 1_655
O19 Sr5 2.587047 1_555
O22 Sr4 2.728720 1_554
O23 Sr5 2.728720 1_555
O24 Sr6 2.728720 1_555
O25 Sr7 2.728720 1_554
O28 Sr5 2.443248 1_555
O28 Sr0 2.456767 1_545
O28 Sr6 2.584732 1_555
O28 Sr6 2.587047 1_455
O29 Sr4 2.443248 1_555
O29 Sr1 2.456767 1_546
O29 Sr7 2.584732 1_455
O29 Sr7 2.587047 1_555
O30 Sr6 2.463818 1_555
O31 Sr7 2.463818 1_555
