# generated using pymatgen
data_Dy2(SeO4)3
_symmetry_space_group_name_H-M   'P 1'
_cell_length_a   9.61018922
_cell_length_b   9.67347927
_cell_length_c   13.14608906
_cell_angle_alpha   90.00000000
_cell_angle_beta   90.00000000
_cell_angle_gamma   90.00000000
_symmetry_Int_Tables_number   1
_chemical_formula_structural   Dy2(SeO4)3
_chemical_formula_sum   'Dy8 Se12 O48'
_cell_volume   1222.11257904
_cell_formula_units_Z   4
loop_
 _symmetry_equiv_pos_site_id
 _symmetry_equiv_pos_as_xyz
  1  'x, y, z'
loop_
 _atom_site_type_symbol
 _atom_site_label
 _atom_site_symmetry_multiplicity
 _atom_site_fract_x
 _atom_site_fract_y
 _atom_site_fract_z
 _atom_site_occupancy
  Dy  Dy0  1  0.24982715  0.96112138  0.12047405  1
  Dy  Dy1  1  0.75017285  0.46112138  0.12047405  1
  Dy  Dy2  1  0.25017285  0.46112138  0.37952595  1
  Dy  Dy3  1  0.74982715  0.96112138  0.37952595  1
  Dy  Dy4  1  0.25017285  0.03887862  0.62047405  1
  Dy  Dy5  1  0.74982715  0.53887862  0.62047405  1
  Dy  Dy6  1  0.24982715  0.53887862  0.87952595  1
  Dy  Dy7  1  0.75017285  0.03887862  0.87952595  1
  Se  Se0  1  0.03295842  0.25000000  0.00000000  1
  Se  Se1  1  0.96704158  0.75000000  0.00000000  1
  Se  Se2  1  0.39777985  0.61503158  0.14632725  1
  Se  Se3  1  0.60222015  0.11503158  0.14632725  1
  Se  Se4  1  0.10222015  0.11503158  0.35367275  1
  Se  Se5  1  0.89777985  0.61503158  0.35367275  1
  Se  Se6  1  0.46704158  0.75000000  0.50000000  1
  Se  Se7  1  0.53295842  0.25000000  0.50000000  1
  Se  Se8  1  0.10222015  0.38496842  0.64632725  1
  Se  Se9  1  0.89777985  0.88496842  0.64632725  1
  Se  Se10  1  0.39777985  0.88496842  0.85367275  1
  Se  Se11  1  0.60222015  0.38496842  0.85367275  1
  O  O0  1  0.65779051  0.08693710  0.03018896  1
  O  O1  1  0.34220949  0.58693710  0.03018896  1
  O  O2  1  0.86811665  0.63955335  0.06047465  1
  O  O3  1  0.13188335  0.13955335  0.06047465  1
  O  O4  1  0.06458406  0.82991658  0.08378301  1
  O  O5  1  0.93541594  0.32991658  0.08378301  1
  O  O6  1  0.43269325  0.09795649  0.15102452  1
  O  O7  1  0.56730675  0.59795649  0.15102452  1
  O  O8  1  0.35720061  0.77261517  0.18189625  1
  O  O9  1  0.64279939  0.27261517  0.18189625  1
  O  O10  1  0.32469728  0.50152305  0.22217814  1
  O  O11  1  0.67530272  0.00152305  0.22217814  1
  O  O12  1  0.17530272  0.00152305  0.27782186  1
  O  O13  1  0.82469728  0.50152305  0.27782186  1
  O  O14  1  0.85720061  0.77261517  0.31810375  1
  O  O15  1  0.14279939  0.27261517  0.31810375  1
  O  O16  1  0.06730675  0.59795649  0.34897548  1
  O  O17  1  0.93269325  0.09795649  0.34897548  1
  O  O18  1  0.43541594  0.32991658  0.41621699  1
  O  O19  1  0.56458406  0.82991658  0.41621699  1
  O  O20  1  0.36811665  0.63955335  0.43952535  1
  O  O21  1  0.63188335  0.13955335  0.43952535  1
  O  O22  1  0.15779051  0.08693710  0.46981104  1
  O  O23  1  0.84220949  0.58693710  0.46981104  1
  O  O24  1  0.15779051  0.41306290  0.53018896  1
  O  O25  1  0.84220949  0.91306290  0.53018896  1
  O  O26  1  0.63188335  0.36044665  0.56047465  1
  O  O27  1  0.36811665  0.86044665  0.56047465  1
  O  O28  1  0.43541594  0.17008342  0.58378301  1
  O  O29  1  0.56458406  0.67008342  0.58378301  1
  O  O30  1  0.06730675  0.90204351  0.65102452  1
  O  O31  1  0.93269325  0.40204351  0.65102452  1
  O  O32  1  0.14279939  0.22738483  0.68189625  1
  O  O33  1  0.85720061  0.72738483  0.68189625  1
  O  O34  1  0.17530272  0.49847695  0.72217814  1
  O  O35  1  0.82469728  0.99847695  0.72217814  1
  O  O36  1  0.32469728  0.99847695  0.77782186  1
  O  O37  1  0.67530272  0.49847695  0.77782186  1
  O  O38  1  0.35720061  0.72738483  0.81810375  1
  O  O39  1  0.64279939  0.22738483  0.81810375  1
  O  O40  1  0.43269325  0.40204351  0.84897548  1
  O  O41  1  0.56730675  0.90204351  0.84897548  1
  O  O42  1  0.06458406  0.67008342  0.91621699  1
  O  O43  1  0.93541594  0.17008342  0.91621699  1
  O  O44  1  0.13188335  0.36044665  0.93952535  1
  O  O45  1  0.86811665  0.86044665  0.93952535  1
  O  O46  1  0.34220949  0.91306290  0.96981104  1
  O  O47  1  0.65779051  0.41306290  0.96981104  1
loop_
_geom_bond_atom_site_label_1
_geom_bond_atom_site_label_2
_geom_bond_distance
_geom_bond_site_symmetry_2
Dy0 O3 2.210464 1_565
Dy0 O46 2.219736 1_554
Dy0 O12 2.223602 1_565
Dy0 O6 2.236466 1_565
Dy0 O4 2.238912 1_555
Dy0 O8 2.245431 1_555
Dy1 O2 2.210464 1_555
Dy1 O47 2.219736 1_554
Dy1 O13 2.223602 1_555
Dy1 O7 2.236466 1_555
Dy1 O5 2.238912 1_555
Dy1 O9 2.245431 1_555
Dy2 O20 2.210464 1_555
Dy2 O24 2.219736 1_555
Dy2 O10 2.223602 1_555
Dy2 O16 2.236466 1_555
Dy2 O18 2.238912 1_555
Dy2 O15 2.245431 1_555
Dy3 O21 2.210464 1_565
Dy3 O25 2.219736 1_555
Dy3 O11 2.223602 1_565
Dy3 O17 2.236466 1_565
Dy3 O19 2.238912 1_555
Dy3 O14 2.245431 1_555
Dy4 O27 2.210464 1_545
Dy4 O22 2.219736 1_555
Dy4 O36 2.223602 1_545
Dy4 O30 2.236466 1_545
Dy4 O28 2.238912 1_555
Dy4 O32 2.245431 1_555
Dy5 O26 2.210464 1_555
Dy5 O23 2.219736 1_555
Dy5 O37 2.223602 1_555
Dy5 O31 2.236466 1_555
Dy5 O29 2.238912 1_555
Dy5 O33 2.245431 1_555
Dy6 O44 2.210464 1_555
Dy6 O1 2.219736 1_556
Dy6 O34 2.223602 1_555
Dy6 O40 2.236466 1_555
Dy6 O42 2.238912 1_555
Dy6 O38 2.245431 1_555
Dy7 O45 2.210464 1_545
Dy7 O0 2.219736 1_556
Dy7 O35 2.223602 1_545
Dy7 O41 2.236466 1_545
Dy7 O43 2.238912 1_555
Dy7 O39 2.245431 1_555
O0 Se3 1.640143 1_555
O1 Se2 1.640143 1_555
O2 Se1 1.636253 1_555
O3 Se0 1.636253 1_555
O4 Se1 1.639965 1_455
O5 Se0 1.639965 1_655
O6 Se3 1.638701 1_555
O7 Se2 1.638701 1_555
O8 Se2 1.641482 1_555
O9 Se3 1.641482 1_555
O10 Se2 1.641105 1_555
O11 Se3 1.641105 1_555
O12 Se4 1.641105 1_555
O13 Se5 1.641105 1_555
O14 Se5 1.641482 1_555
O15 Se4 1.641482 1_555
O16 Se5 1.638701 1_455
O17 Se4 1.638701 1_655
O18 Se7 1.639965 1_555
O19 Se6 1.639965 1_555
O20 Se6 1.636253 1_555
O21 Se7 1.636253 1_555
O22 Se4 1.640143 1_555
O23 Se5 1.640143 1_555
O24 Se8 1.640143 1_555
O25 Se9 1.640143 1_555
O26 Se7 1.636253 1_555
O27 Se6 1.636253 1_555
O28 Se7 1.639965 1_555
O29 Se6 1.639965 1_555
O30 Se9 1.638701 1_455
O31 Se8 1.638701 1_655
O32 Se8 1.641482 1_555
O33 Se9 1.641482 1_555
O34 Se8 1.641105 1_555
O35 Se9 1.641105 1_555
O36 Se10 1.641105 1_555
O37 Se11 1.641105 1_555
O38 Se10 1.641482 1_555
O39 Se11 1.641482 1_555
O40 Se11 1.638701 1_555
O41 Se10 1.638701 1_555
O42 Se1 1.639965 1_456
O43 Se0 1.639965 1_656
O44 Se0 1.636253 1_556
O45 Se1 1.636253 1_556
O46 Se10 1.640143 1_555
O47 Se11 1.640143 1_555
