# generated using pymatgen
data_Li9Mn4(BO3)8
_symmetry_space_group_name_H-M   'P 1'
_cell_length_a   5.21371000
_cell_length_b   8.79872362
_cell_length_c   9.71670665
_cell_angle_alpha   89.07092770
_cell_angle_beta   86.32864910
_cell_angle_gamma   89.00391356
_symmetry_Int_Tables_number   1
_chemical_formula_structural   Li9Mn4(BO3)8
_chemical_formula_sum   'Li9 Mn4 B8 O24'
_cell_volume   444.71120002
_cell_formula_units_Z   1
loop_
 _symmetry_equiv_pos_site_id
 _symmetry_equiv_pos_as_xyz
  1  'x, y, z'
loop_
 _atom_site_type_symbol
 _atom_site_label
 _atom_site_symmetry_multiplicity
 _atom_site_fract_x
 _atom_site_fract_y
 _atom_site_fract_z
 _atom_site_occupancy
  Li  Li0  1  0.86580800  0.01669100  0.68116200  1
  Li  Li1  1  0.70483400  0.53448400  0.38456500  1
  Li  Li2  1  0.89932400  0.05550800  0.14537000  1
  Li  Li3  1  0.82099400  0.34945400  0.61893300  1
  Li  Li4  1  0.62701200  0.57120600  0.83750100  1
  Li  Li5  1  0.33003500  0.47293200  0.60768600  1
  Li  Li6  1  0.38336500  0.43398400  0.15736200  1
  Li  Li7  1  0.22182800  0.96802600  0.88826400  1
  Li  Li8  1  0.19252300  0.68651000  0.37211300  1
  Mn  Mn0  1  0.11831300  0.29836500  0.87695100  1
  Mn  Mn1  1  0.60923600  0.20529300  0.37617700  1
  Mn  Mn2  1  0.38530500  0.79569500  0.62302700  1
  Mn  Mn3  1  0.89474100  0.70970200  0.12097200  1
  B  B0  1  0.84873000  0.67836300  0.61037500  1
  B  B1  1  0.84673800  0.36786000  0.13864500  1
  B  B2  1  0.67799800  0.21331700  0.88514200  1
  B  B3  1  0.68191900  0.86392300  0.36377600  1
  B  B4  1  0.33024700  0.14964200  0.63825100  1
  B  B5  1  0.33842200  0.78964700  0.11421600  1
  B  B6  1  0.15845300  0.63652100  0.86635100  1
  B  B7  1  0.17111300  0.29461100  0.38559500  1
  O  O0  1  0.91831900  0.65970600  0.93035600  1
  O  O1  1  0.91728200  0.33387800  0.40596100  1
  O  O2  1  0.89056600  0.11493600  0.89405700  1
  O  O3  1  0.76491500  0.36062900  0.85547700  1
  O  O4  1  0.85405000  0.74678400  0.31790300  1
  O  O5  1  0.76091800  0.01068900  0.34166600  1
  O  O6  1  0.68104700  0.55898400  0.60530800  1
  O  O7  1  0.75257300  0.82047000  0.64613600  1
  O  O8  1  0.75032900  0.51203000  0.16684600  1
  O  O9  1  0.68215300  0.24954400  0.17982800  1
  O  O10  1  0.57888600  0.17919000  0.57780200  1
  O  O11  1  0.58699300  0.82954000  0.10148400  1
  O  O12  1  0.42813100  0.17265800  0.89559400  1
  O  O13  1  0.45271700  0.81717400  0.42621700  1
  O  O14  1  0.26704700  0.49338200  0.84329100  1
  O  O15  1  0.31418300  0.75451300  0.82069900  1
  O  O16  1  0.26451000  0.14964900  0.36075600  1
  O  O17  1  0.23771200  0.01019800  0.66500800  1
  O  O18  1  0.37269800  0.39913300  0.39057600  1
  O  O19  1  0.17188400  0.27757300  0.67577400  1
  O  O20  1  0.24704000  0.64500000  0.15430900  1
  O  O21  1  0.12983000  0.88497300  0.08651000  1
  O  O22  1  0.10956100  0.65466300  0.57905400  1
  O  O23  1  0.08393300  0.33326700  0.07384300  1
loop_
_geom_bond_atom_site_label_1
_geom_bond_atom_site_label_2
_geom_bond_distance
_geom_bond_site_symmetry_2
Li0 O7 1.877600 1_545
Li0 O17 1.935222 1_655
Li0 O2 2.266988 1_555
Li0 O10 2.315645 1_555
Li1 O1 2.082116 1_555
Li1 O4 2.112074 1_555
Li1 O18 2.115853 1_555
Li1 O8 2.125640 1_555
Li1 O6 2.154628 1_555
Li2 O21 1.974837 1_645
Li2 O5 2.030629 1_555
Li2 O9 2.052237 1_555
Li2 O2 2.492105 1_554
Li3 O6 1.976472 1_555
Li3 O19 2.032176 1_655
Li3 O10 2.036461 1_555
Li3 O1 2.104026 1_555
Li3 O3 2.301781 1_555
Li4 O3 1.984848 1_555
Li4 O0 1.991612 1_555
Li4 O14 2.006031 1_555
Li4 O6 2.259771 1_555
Li4 O15 2.285226 1_555
Li5 O22 1.979432 1_555
Li5 O6 1.991274 1_555
Li5 O19 2.003691 1_555
Li5 O18 2.213777 1_555
Li5 O14 2.301339 1_555
Li6 O20 1.976947 1_555
Li6 O23 2.028488 1_555
Li6 O8 2.052040 1_555
Li6 O9 2.247697 1_555
Li6 O18 2.279062 1_555
Li7 O15 2.039661 1_555
Li7 O21 2.079161 1_556
Li7 O12 2.117806 1_565
Li7 O2 2.137572 1_465
Li7 O17 2.191442 1_565
Li8 O13 1.898312 1_555
Li8 O4 1.936575 1_455
Li8 O22 2.045342 1_555
Li8 O20 2.153484 1_555
Mn0 O14 1.910026 1_555
Mn0 O3 1.936224 1_455
Mn0 O23 1.939012 1_556
Mn0 O12 1.958122 1_555
Mn0 O19 1.967876 1_555
Mn0 O2 2.018669 1_455
Mn1 O16 1.886773 1_555
Mn1 O5 1.899287 1_555
Mn1 O9 1.955567 1_555
Mn1 O10 1.965440 1_555
Mn1 O1 2.019044 1_555
Mn1 O18 2.088505 1_555
Mn2 O13 1.928943 1_555
Mn2 O7 1.958487 1_555
Mn2 O15 1.961850 1_555
Mn2 O22 1.986736 1_555
Mn2 O17 2.062743 1_565
Mn2 O6 2.571183 1_555
Mn3 O0 1.906437 1_554
Mn3 O11 1.922426 1_555
Mn3 O8 1.941138 1_555
Mn3 O4 1.943933 1_555
Mn3 O20 1.958740 1_655
Mn3 O21 1.997275 1_655
B0 O7 1.380386 1_555
B0 O6 1.381723 1_555
B0 O22 1.387307 1_655
B1 O8 1.381423 1_555
B1 O23 1.382702 1_655
B1 O9 1.397777 1_555
B2 O12 1.354066 1_555
B2 O3 1.400015 1_555
B2 O2 1.400564 1_555
B3 O13 1.371662 1_555
B3 O5 1.371698 1_565
B3 O4 1.413463 1_555
B4 O17 1.341596 1_555
B4 O10 1.415033 1_555
B4 O19 1.422720 1_555
B5 O11 1.346084 1_555
B5 O21 1.398988 1_555
B5 O20 1.407047 1_555
B6 O0 1.375279 1_455
B6 O15 1.379154 1_555
B6 O14 1.387468 1_555
B7 O1 1.364808 1_455
B7 O16 1.376792 1_555
B7 O18 1.412195 1_555
