# generated using pymatgen
data_CoSnO3
_symmetry_space_group_name_H-M   'P 1'
_cell_length_a   5.39492200
_cell_length_b   5.42276600
_cell_length_c   7.81053000
_cell_angle_alpha   90.00000000
_cell_angle_beta   90.00000000
_cell_angle_gamma   90.00000000
_symmetry_Int_Tables_number   1
_chemical_formula_structural   CoSnO3
_chemical_formula_sum   'Co4 Sn4 O12'
_cell_volume   228.50017619
_cell_formula_units_Z   4
loop_
 _symmetry_equiv_pos_site_id
 _symmetry_equiv_pos_as_xyz
  1  'x, y, z'
loop_
 _atom_site_type_symbol
 _atom_site_label
 _atom_site_symmetry_multiplicity
 _atom_site_fract_x
 _atom_site_fract_y
 _atom_site_fract_z
 _atom_site_occupancy
  Co  Co0  1  0.02742200  0.01348700  0.75000000  1
  Co  Co1  1  0.52742200  0.48651300  0.75000000  1
  Co  Co2  1  0.47257800  0.51348700  0.25000000  1
  Co  Co3  1  0.97257800  0.98651300  0.25000000  1
  Sn  Sn0  1  0.50000000  0.00000000  0.00000000  1
  Sn  Sn1  1  0.50000000  0.00000000  0.50000000  1
  Sn  Sn2  1  0.00000000  0.50000000  0.00000000  1
  Sn  Sn3  1  0.00000000  0.50000000  0.50000000  1
  O  O0  1  0.59391900  0.87506800  0.25000000  1
  O  O1  1  0.83182700  0.83477800  0.56675500  1
  O  O2  1  0.83182700  0.83477800  0.93324500  1
  O  O3  1  0.33182700  0.66522200  0.56675500  1
  O  O4  1  0.33182700  0.66522200  0.93324500  1
  O  O5  1  0.09391900  0.62493200  0.25000000  1
  O  O6  1  0.90608100  0.37506800  0.75000000  1
  O  O7  1  0.66817300  0.33477800  0.06675500  1
  O  O8  1  0.66817300  0.33477800  0.43324500  1
  O  O9  1  0.16817300  0.16522200  0.06675500  1
  O  O10  1  0.16817300  0.16522200  0.43324500  1
  O  O11  1  0.40608100  0.12493200  0.75000000  1
loop_
_geom_bond_atom_site_label_1
_geom_bond_atom_site_label_2
_geom_bond_distance
_geom_bond_site_symmetry_2
Co0 O1 2.025114 1_445
Co0 O2 2.025114 1_445
Co0 O6 2.067160 1_455
Co0 O11 2.130353 1_555
Co1 O3 2.025114 1_555
Co1 O4 2.025114 1_555
Co1 O11 2.067160 1_555
Co1 O6 2.130353 1_555
Co2 O8 2.025114 1_555
Co2 O7 2.025114 1_555
Co2 O0 2.067160 1_555
Co2 O5 2.130353 1_555
Co3 O10 2.025114 1_665
Co3 O9 2.025114 1_665
Co3 O5 2.067160 1_655
Co3 O0 2.130353 1_555
O0 Sn1 2.128022 1_565
O0 Sn0 2.128022 1_565
O1 Sn1 2.068657 1_565
O1 Sn3 2.095416 1_655
O2 Sn0 2.068657 1_566
O2 Sn2 2.095416 1_656
O3 Sn3 2.068657 1_555
O3 Sn1 2.095416 1_565
O4 Sn2 2.068657 1_556
O4 Sn0 2.095416 1_566
O5 Sn3 2.128022 1_555
O5 Sn2 2.128022 1_555
O6 Sn2 2.128022 1_656
O6 Sn3 2.128022 1_655
O7 Sn2 2.068657 1_655
O7 Sn0 2.095416 1_555
O8 Sn3 2.068657 1_655
O8 Sn1 2.095416 1_555
O9 Sn0 2.068657 1_555
O9 Sn2 2.095416 1_555
O10 Sn1 2.068657 1_555
O10 Sn3 2.095416 1_555
O11 Sn0 2.128022 1_556
O11 Sn1 2.128022 1_555
