# generated using pymatgen
data_PbS
_symmetry_space_group_name_H-M   'P 1'
_cell_length_a   4.21913274
_cell_length_b   4.21913274
_cell_length_c   11.22175405
_cell_angle_alpha   86.02958962
_cell_angle_beta   86.02958962
_cell_angle_gamma   89.98143014
_symmetry_Int_Tables_number   1
_chemical_formula_structural   PbS
_chemical_formula_sum   'Pb2 S2'
_cell_volume   198.79963105
_cell_formula_units_Z   2
loop_
 _symmetry_equiv_pos_site_id
 _symmetry_equiv_pos_as_xyz
  1  'x, y, z'
loop_
 _atom_site_type_symbol
 _atom_site_label
 _atom_site_symmetry_multiplicity
 _atom_site_fract_x
 _atom_site_fract_y
 _atom_site_fract_z
 _atom_site_occupancy
  Pb  Pb0  1  0.77363462  0.77363462  0.37221101  1
  Pb  Pb1  1  0.22636538  0.22636538  0.62778899  1
  S  S0  1  0.27048795  0.27048795  0.38973238  1
  S  S1  1  0.72951205  0.72951205  0.61026762  1
loop_
_geom_bond_atom_site_label_1
_geom_bond_atom_site_label_2
_geom_bond_distance
_geom_bond_site_symmetry_2
Pb0 S1 2.658579 1_555
Pb0 S0 2.989305 1_565
Pb0 S0 2.989305 1_655
Pb0 S0 2.989799 1_555
Pb0 S0 2.990741 1_665
Pb1 S0 2.658579 1_555
Pb1 S1 2.989305 1_455
Pb1 S1 2.989305 1_545
Pb1 S1 2.989799 1_555
Pb1 S1 2.990741 1_445
