# generated using pymatgen
data_Li4Mn2Co3Te3O16
_symmetry_space_group_name_H-M   'P 1'
_cell_length_a   6.13420300
_cell_length_b   6.20318139
_cell_length_c   9.96986661
_cell_angle_alpha   92.14455280
_cell_angle_beta   89.76938796
_cell_angle_gamma   118.70553417
_symmetry_Int_Tables_number   1
_chemical_formula_structural   Li4Mn2Co3Te3O16
_chemical_formula_sum   'Li4 Mn2 Co3 Te3 O16'
_cell_volume   332.46940212
_cell_formula_units_Z   1
loop_
 _symmetry_equiv_pos_site_id
 _symmetry_equiv_pos_as_xyz
  1  'x, y, z'
loop_
 _atom_site_type_symbol
 _atom_site_label
 _atom_site_symmetry_multiplicity
 _atom_site_fract_x
 _atom_site_fract_y
 _atom_site_fract_z
 _atom_site_occupancy
  Li  Li0  1  0.32948200  0.64022700  0.12626400  1
  Li  Li1  1  0.02693900  0.02023400  0.00669700  1
  Li  Li2  1  0.00056900  0.99258400  0.49287000  1
  Li  Li3  1  0.69068500  0.33526500  0.60044000  1
  Mn  Mn0  1  0.32652200  0.68936100  0.48832000  1
  Mn  Mn1  1  0.62897900  0.29740600  0.02686700  1
  Co  Co0  1  0.18277500  0.85964600  0.78657200  1
  Co  Co1  1  0.82287900  0.65551200  0.28172500  1
  Co  Co2  1  0.32476500  0.15336800  0.28416100  1
  Te  Te0  1  0.67651900  0.85203800  0.78820400  1
  Te  Te1  1  0.18297200  0.36924700  0.78030800  1
  Te  Te2  1  0.82050900  0.15589200  0.28497500  1
  O  O0  1  0.68738100  0.86124400  0.39380600  1
  O  O1  1  0.50588900  0.53200900  0.67234900  1
  O  O2  1  0.36628100  0.69174500  0.89729000  1
  O  O3  1  0.97080600  0.98319200  0.67602700  1
  O  O4  1  0.98364200  0.99867100  0.18559700  1
  O  O5  1  0.13346700  0.31309900  0.39222600  1
  O  O6  1  0.50957100  0.97511300  0.67561700  1
  O  O7  1  0.05200800  0.53305300  0.66255200  1
  O  O8  1  0.80460000  0.14237500  0.91117200  1
  O  O9  1  0.16975500  0.86499900  0.38449100  1
  O  O10  1  0.93919000  0.43687900  0.15950600  1
  O  O11  1  0.51748900  0.00464100  0.17292900  1
  O  O12  1  0.66897100  0.31786400  0.39368400  1
  O  O13  1  0.84595600  0.71986300  0.89154600  1
  O  O14  1  0.49201100  0.43199500  0.16559100  1
  O  O15  1  0.33969000  0.17278100  0.91037600  1
loop_
_geom_bond_atom_site_label_1
_geom_bond_atom_site_label_2
_geom_bond_distance
_geom_bond_site_symmetry_2
Li0 O11 2.019343 1_565
Li0 O14 2.023448 1_555
Li0 O10 2.134645 1_455
Li0 O2 2.312055 1_554
Li1 O4 1.802667 1_445
Li1 O15 1.951270 1_554
Li1 O13 1.971118 1_444
Li1 O8 2.097220 1_454
Li2 O3 1.834734 1_455
Li2 O9 1.893927 1_555
Li2 O0 1.944626 1_455
Li2 O5 2.051859 1_565
Li3 O7 2.035500 1_655
Li3 O12 2.061606 1_555
Li3 O6 2.126388 1_545
Li3 O1 2.131993 1_555
Mn0 O9 2.069356 1_555
Mn0 O0 2.171606 1_555
Mn0 O5 2.225876 1_555
Mn0 O7 2.308076 1_555
Mn0 O6 2.397274 1_555
Mn0 O1 2.590670 1_555
Mn1 O15 1.930572 1_554
Mn1 O14 1.973286 1_555
Mn1 O8 2.077998 1_554
Mn1 O10 2.114568 1_555
Mn1 O11 2.209803 1_555
Mn1 O13 2.712687 1_554
Co0 O15 2.063284 1_565
Co0 O6 2.101769 1_555
Co0 O13 2.108450 1_455
Co0 O3 2.127129 1_455
Co0 O7 2.129798 1_555
Co0 O2 2.189207 1_555
Co1 O0 2.114930 1_555
Co1 O9 2.127841 1_655
Co1 O4 2.133263 1_555
Co1 O14 2.139592 1_555
Co1 O10 2.152204 1_555
Co1 O12 2.188862 1_555
Co2 O9 1.896538 1_545
Co2 O14 1.969016 1_555
Co2 O4 2.069343 1_445
Co2 O11 2.106937 1_555
Co2 O5 2.132229 1_555
Co2 O12 2.134755 1_555
O0 Te2 1.972901 1_565
O1 Te0 2.052510 1_555
O1 Te1 2.060241 1_555
O2 Te0 2.009895 1_555
O2 Te1 2.074064 1_555
O3 Te0 1.952566 1_555
O3 Te1 2.310895 1_665
O4 Te2 1.947152 1_565
O5 Te2 1.979868 1_455
O6 Te0 1.927702 1_555
O7 Te1 1.984243 1_555
O8 Te0 1.961420 1_545
O8 Te1 2.458690 1_655
O10 Te2 2.017365 1_555
O11 Te2 1.961180 1_555
O12 Te2 1.963627 1_555
O13 Te0 1.924709 1_555
O15 Te1 2.311882 1_555
