# generated using pymatgen
data_Li32Mn13Cr3O48
_symmetry_space_group_name_H-M   'P 1'
_cell_length_a   4.99965500
_cell_length_b   8.67740719
_cell_length_c   19.46287182
_cell_angle_alpha   98.24454675
_cell_angle_beta   94.78860529
_cell_angle_gamma   89.75367923
_symmetry_Int_Tables_number   1
_chemical_formula_structural   Li32Mn13Cr3O48
_chemical_formula_sum   'Li32 Mn13 Cr3 O48'
_cell_volume   832.70938591
_cell_formula_units_Z   1
loop_
 _symmetry_equiv_pos_site_id
 _symmetry_equiv_pos_as_xyz
  1  'x, y, z'
loop_
 _atom_site_type_symbol
 _atom_site_label
 _atom_site_symmetry_multiplicity
 _atom_site_fract_x
 _atom_site_fract_y
 _atom_site_fract_z
 _atom_site_occupancy
  Li  Li0  1  0.99158500  0.16844800  0.24944300  1
  Li  Li1  1  0.87548600  0.37457900  0.37512200  1
  Li  Li2  1  0.74971000  0.25003600  0.00007300  1
  Li  Li3  1  0.74574700  0.92039800  0.00054000  1
  Li  Li4  1  0.99147500  0.16825900  0.75017700  1
  Li  Li5  1  0.75554200  0.57977400  0.49993100  1
  Li  Li6  1  0.87463300  0.37464800  0.87481800  1
  Li  Li7  1  0.75135900  0.25026300  0.49996100  1
  Li  Li8  1  0.74480100  0.92055800  0.50088400  1
  Li  Li9  1  0.62476400  0.12508800  0.12501600  1
  Li  Li10  1  0.75615600  0.57988800  0.00011100  1
  Li  Li11  1  0.50711500  0.33158900  0.25043300  1
  Li  Li12  1  0.62713400  0.12443300  0.62483100  1
  Li  Li13  1  0.50033000  0.00027300  0.24996700  1
  Li  Li14  1  0.49398100  0.66845900  0.24990700  1
  Li  Li15  1  0.50867800  0.33433800  0.75057600  1
  Li  Li16  1  0.37699600  0.87430700  0.37485100  1
  Li  Li17  1  0.50014200  0.00006800  0.75004700  1
  Li  Li18  1  0.25006400  0.75017300  0.00007700  1
  Li  Li19  1  0.49021700  0.66561000  0.74922700  1
  Li  Li20  1  0.24497200  0.41999100  0.00019600  1
  Li  Li21  1  0.37285200  0.87560400  0.87518400  1
  Li  Li22  1  0.25506700  0.08083100  0.49949100  1
  Li  Li23  1  0.24972600  0.74967000  0.50002300  1
  Li  Li24  1  0.12488200  0.62504700  0.12502700  1
  Li  Li25  1  0.24229900  0.41923900  0.49964600  1
  Li  Li26  1  0.00613500  0.83138500  0.24995100  1
  Li  Li27  1  0.25411800  0.07967600  0.99948500  1
  Li  Li28  1  0.12521400  0.62445300  0.62513100  1
  Li  Li29  1  0.00014900  0.49986800  0.24993200  1
  Li  Li30  1  0.00874900  0.83160400  0.74992600  1
  Li  Li31  1  0.00078400  0.50010500  0.74987900  1
  Mn  Mn0  1  0.87281200  0.70715500  0.37436500  1
  Mn  Mn1  1  0.87701400  0.04278200  0.87572100  1
  Mn  Mn2  1  0.62570000  0.79141100  0.12502000  1
  Mn  Mn3  1  0.62458500  0.45845000  0.12500400  1
  Mn  Mn4  1  0.62509000  0.79152600  0.62510600  1
  Mn  Mn5  1  0.62614100  0.46015300  0.62569600  1
  Mn  Mn6  1  0.37490100  0.54165000  0.37500100  1
  Mn  Mn7  1  0.37548100  0.21014500  0.37557900  1
  Mn  Mn8  1  0.37348000  0.54002800  0.87434400  1
  Mn  Mn9  1  0.37492700  0.20845300  0.87495700  1
  Mn  Mn10  1  0.12462700  0.95848600  0.12495500  1
  Mn  Mn11  1  0.12578100  0.29142800  0.12495000  1
  Mn  Mn12  1  0.12285300  0.95707700  0.62435600  1
  Cr  Cr0  1  0.88091700  0.04023800  0.37491400  1
  Cr  Cr1  1  0.86816500  0.70902500  0.87513700  1
  Cr  Cr2  1  0.13198100  0.29016200  0.62492700  1
  O  O0  1  0.96359200  0.10697700  0.06909400  1
  O  O1  1  0.92837900  0.78520000  0.06899700  1
  O  O2  1  0.92756000  0.42747600  0.06795900  1
  O  O3  1  0.96190700  0.10269900  0.56817500  1
  O  O4  1  0.82183800  0.96474100  0.18099000  1
  O  O5  1  0.82270400  0.32249400  0.18196000  1
  O  O6  1  0.92830200  0.78429500  0.56909400  1
  O  O7  1  0.92602100  0.42652300  0.56808600  1
  O  O8  1  0.78649400  0.64293300  0.18084900  1
  O  O9  1  0.71176300  0.85341000  0.31833900  1
  O  O10  1  0.82116600  0.96491500  0.68105200  1
  O  O11  1  0.82201600  0.32327000  0.68197300  1
  O  O12  1  0.67804200  0.53434400  0.31897600  1
  O  O13  1  0.67572400  0.17655500  0.31782100  1
  O  O14  1  0.78766500  0.64413400  0.68114600  1
  O  O15  1  0.71957700  0.85660800  0.81924400  1
  O  O16  1  0.46385700  0.60676000  0.06900600  1
  O  O17  1  0.57089100  0.71478400  0.43094000  1
  O  O18  1  0.57168500  0.07369900  0.43209100  1
  O  O19  1  0.67441900  0.53318400  0.81871200  1
  O  O20  1  0.67715900  0.17751300  0.81800900  1
  O  O21  1  0.42781100  0.92741800  0.06807800  1
  O  O22  1  0.42854500  0.28528800  0.06904300  1
  O  O23  1  0.53732700  0.39405200  0.43104400  1
  O  O24  1  0.46350600  0.60745400  0.56910000  1
  O  O25  1  0.57187600  0.71280400  0.93099100  1
  O  O26  1  0.57255400  0.07244300  0.93192800  1
  O  O27  1  0.32246500  0.82258200  0.18192300  1
  O  O28  1  0.32178100  0.46469700  0.18093400  1
  O  O29  1  0.42751300  0.92768300  0.56806800  1
  O  O30  1  0.42631100  0.28730700  0.56923700  1
  O  O31  1  0.53638300  0.39273000  0.93094500  1
  O  O32  1  0.28613300  0.14309000  0.18090900  1
  O  O33  1  0.21325900  0.35739300  0.31903100  1
  O  O34  1  0.32297000  0.82251200  0.68206000  1
  O  O35  1  0.32618400  0.46725200  0.68155900  1
  O  O36  1  0.17726900  0.67767700  0.31800300  1
  O  O37  1  0.17605300  0.03727800  0.31899000  1
  O  O38  1  0.28154800  0.14336300  0.68085700  1
  O  O39  1  0.21208800  0.35592300  0.81889800  1
  O  O40  1  0.07263500  0.57236500  0.43197000  1
  O  O41  1  0.07586200  0.21712300  0.43160000  1
  O  O42  1  0.17936100  0.67681300  0.81786000  1
  O  O43  1  0.17903300  0.03522600  0.81903500  1
  O  O44  1  0.03204700  0.89315500  0.43082000  1
  O  O45  1  0.07365300  0.57429800  0.93199200  1
  O  O46  1  0.07179800  0.21580200  0.93092800  1
  O  O47  1  0.03795500  0.89692600  0.93178800  1
loop_
_geom_bond_atom_site_label_1
_geom_bond_atom_site_label_2
_geom_bond_distance
_geom_bond_site_symmetry_2
Li0 O37 2.050055 1_655
Li0 O32 2.058466 1_655
Li0 O5 2.129191 1_555
Li0 O13 2.143130 1_555
Li0 O4 2.183699 1_545
Li0 O33 2.208835 1_655
Li1 O41 2.076976 1_655
Li1 O23 2.079325 1_555
Li1 O33 2.079627 1_655
Li1 O12 2.081626 1_555
Li1 O40 2.104561 1_655
Li1 O13 2.114972 1_555
Li2 O2 2.034522 1_555
Li2 O26 2.036618 1_554
Li2 O31 2.169735 1_554
Li2 O22 2.170642 1_555
Li2 O0 2.171659 1_555
Li2 O46 2.176127 1_654
Li3 O47 2.052324 1_654
Li3 O1 2.054565 1_555
Li3 O26 2.139197 1_564
Li3 O21 2.140881 1_555
Li3 O0 2.177320 1_565
Li3 O25 2.224997 1_554
Li4 O38 2.051971 1_655
Li4 O43 2.057319 1_655
Li4 O20 2.129274 1_555
Li4 O11 2.145627 1_555
Li4 O10 2.188455 1_545
Li4 O39 2.191300 1_655
Li5 O24 2.057735 1_555
Li5 O17 2.064627 1_555
Li5 O7 2.135856 1_555
Li5 O40 2.142874 1_655
Li5 O23 2.176300 1_555
Li5 O6 2.200358 1_555
Li6 O46 2.074732 1_655
Li6 O39 2.076281 1_655
Li6 O19 2.079284 1_555
Li6 O31 2.082035 1_555
Li6 O20 2.100788 1_555
Li6 O45 2.122917 1_655
Li7 O7 2.023973 1_555
Li7 O18 2.032861 1_555
Li7 O23 2.174830 1_555
Li7 O41 2.175265 1_655
Li7 O3 2.180133 1_555
Li7 O30 2.190743 1_555
Li8 O44 2.051727 1_655
Li8 O6 2.059060 1_555
Li8 O29 2.133626 1_555
Li8 O3 2.138978 1_565
Li8 O18 2.148162 1_565
Li8 O17 2.217227 1_555
Li9 O22 2.079855 1_555
Li9 O32 2.081024 1_555
Li9 O0 2.082192 1_555
Li9 O4 2.082632 1_545
Li9 O21 2.104043 1_545
Li9 O5 2.104504 1_555
Li10 O25 2.053727 1_554
Li10 O16 2.054899 1_555
Li10 O2 2.128251 1_555
Li10 O45 2.147580 1_654
Li10 O31 2.190528 1_554
Li10 O1 2.201900 1_555
Li11 O33 2.056716 1_555
Li11 O28 2.062032 1_555
Li11 O13 2.133619 1_555
Li11 O5 2.142819 1_555
Li11 O12 2.180565 1_555
Li11 O32 2.204146 1_555
Li12 O3 2.073334 1_555
Li12 O10 2.073653 1_545
Li12 O29 2.102622 1_545
Li12 O30 2.102702 1_555
Li12 O11 2.108646 1_555
Li12 O38 2.112367 1_555
Li13 O13 2.022807 1_555
Li13 O27 2.037553 1_545
Li13 O32 2.171444 1_555
Li13 O4 2.172209 1_545
Li13 O9 2.179963 1_545
Li13 O37 2.184437 1_555
Li14 O8 2.057765 1_555
Li14 O12 2.059424 1_555
Li14 O27 2.140776 1_555
Li14 O36 2.142228 1_555
Li14 O9 2.166801 1_555
Li14 O28 2.192934 1_555
Li15 O35 2.048834 1_555
Li15 O39 2.063377 1_555
Li15 O11 2.134796 1_555
Li15 O19 2.143613 1_555
Li15 O20 2.145159 1_555
Li15 O38 2.234054 1_555
Li16 O9 2.071597 1_555
Li16 O17 2.071896 1_555
Li16 O36 2.102695 1_555
Li16 O37 2.106558 1_565
Li16 O44 2.108989 1_555
Li16 O18 2.112537 1_565
Li17 O20 2.033694 1_555
Li17 O34 2.034879 1_545
Li17 O10 2.170364 1_545
Li17 O43 2.170612 1_555
Li17 O38 2.185586 1_555
Li17 O15 2.188492 1_545
Li18 O45 2.024703 1_554
Li18 O21 2.034329 1_555
Li18 O1 2.171962 1_455
Li18 O16 2.172308 1_555
Li18 O25 2.175664 1_554
Li18 O47 2.179729 1_554
Li19 O19 2.055768 1_555
Li19 O14 2.063460 1_555
Li19 O42 2.125401 1_555
Li19 O35 2.133405 1_555
Li19 O34 2.140088 1_555
Li19 O15 2.242001 1_555
Li20 O31 2.056395 1_554
Li20 O22 2.058824 1_555
Li20 O2 2.141499 1_455
Li20 O45 2.144461 1_554
Li20 O16 2.183073 1_555
Li20 O46 2.199947 1_554
Li21 O43 2.073055 1_565
Li21 O47 2.073232 1_555
Li21 O25 2.100733 1_555
Li21 O26 2.103232 1_565
Li21 O42 2.106748 1_555
Li21 O15 2.116313 1_555
Li22 O41 2.046662 1_555
Li22 O3 2.055059 1_455
Li22 O18 2.133787 1_555
Li22 O29 2.144189 1_545
Li22 O44 2.196430 1_545
Li22 O30 2.215272 1_555
Li23 O40 2.033924 1_555
Li23 O29 2.039273 1_555
Li23 O24 2.167347 1_555
Li23 O17 2.171941 1_555
Li23 O6 2.172705 1_455
Li23 O44 2.184796 1_555
Li24 O8 2.079185 1_455
Li24 O1 2.080800 1_455
Li24 O28 2.081522 1_555
Li24 O16 2.083935 1_555
Li24 O27 2.104221 1_555
Li24 O2 2.105135 1_455
Li25 O30 2.054055 1_555
Li25 O23 2.061213 1_555
Li25 O40 2.127377 1_555
Li25 O7 2.146028 1_455
Li25 O41 2.164430 1_555
Li25 O24 2.202406 1_555
Li26 O4 2.054100 1_455
Li26 O9 2.055705 1_455
Li26 O36 2.138447 1_555
Li26 O27 2.140024 1_555
Li26 O8 2.197028 1_455
Li26 O37 2.202995 1_565
Li27 O0 2.057905 1_456
Li27 O46 2.060651 1_555
Li27 O21 2.141124 1_546
Li27 O26 2.142998 1_555
Li27 O47 2.143949 1_545
Li27 O22 2.213619 1_556
Li28 O35 2.076086 1_555
Li28 O14 2.077770 1_455
Li28 O6 2.079752 1_455
Li28 O24 2.081181 1_555
Li28 O34 2.108201 1_555
Li28 O7 2.111295 1_455
Li29 O5 2.034206 1_455
Li29 O36 2.037068 1_555
Li29 O33 2.167639 1_555
Li29 O8 2.171992 1_455
Li29 O28 2.172814 1_555
Li29 O12 2.174999 1_455
Li30 O15 2.048524 1_455
Li30 O10 2.059160 1_455
Li30 O34 2.129424 1_555
Li30 O42 2.142691 1_555
Li30 O43 2.190004 1_565
Li30 O14 2.191798 1_455
Li31 O42 2.032645 1_555
Li31 O11 2.033008 1_455
Li31 O14 2.171854 1_455
Li31 O39 2.172458 1_555
Li31 O35 2.178215 1_555
Li31 O19 2.188675 1_455
Mn0 O9 1.920814 1_555
Mn0 O12 1.932024 1_555
Mn0 O17 1.936793 1_555
Mn0 O36 1.944418 1_655
Mn0 O40 1.949910 1_655
Mn0 O44 1.949998 1_655
Mn1 O47 1.918554 1_645
Mn1 O46 1.931894 1_655
Mn1 O43 1.938589 1_655
Mn1 O26 1.942666 1_555
Mn1 O15 1.948046 1_545
Mn1 O20 1.950924 1_555
Mn2 O8 1.932280 1_555
Mn2 O1 1.933854 1_555
Mn2 O16 1.942546 1_555
Mn2 O4 1.942908 1_555
Mn2 O21 1.944723 1_555
Mn2 O27 1.946554 1_555
Mn3 O16 1.933125 1_555
Mn3 O28 1.933224 1_555
Mn3 O8 1.940241 1_555
Mn3 O22 1.941597 1_555
Mn3 O5 1.945114 1_555
Mn3 O2 1.947088 1_555
Mn4 O14 1.931117 1_555
Mn4 O6 1.935453 1_555
Mn4 O24 1.938253 1_555
Mn4 O34 1.942478 1_555
Mn4 O10 1.942931 1_555
Mn4 O29 1.946051 1_555
Mn5 O35 1.920206 1_555
Mn5 O14 1.933145 1_555
Mn5 O24 1.937422 1_555
Mn5 O11 1.937428 1_555
Mn5 O7 1.942508 1_555
Mn5 O30 1.952466 1_555
Mn6 O23 1.932203 1_555
Mn6 O12 1.935283 1_555
Mn6 O33 1.939271 1_555
Mn6 O17 1.941138 1_555
Mn6 O40 1.943136 1_555
Mn6 O36 1.944923 1_555
Mn7 O41 1.920793 1_555
Mn7 O23 1.933387 1_555
Mn7 O33 1.935732 1_555
Mn7 O18 1.938357 1_555
Mn7 O13 1.945759 1_555
Mn7 O37 1.952691 1_555
Mn8 O19 1.921581 1_555
Mn8 O39 1.933671 1_555
Mn8 O42 1.935326 1_555
Mn8 O31 1.937959 1_555
Mn8 O45 1.943113 1_555
Mn8 O25 1.950208 1_555
Mn9 O39 1.932340 1_555
Mn9 O46 1.934558 1_555
Mn9 O31 1.939197 1_555
Mn9 O43 1.941343 1_555
Mn9 O20 1.942846 1_555
Mn9 O26 1.944487 1_555
Mn10 O0 1.933194 1_465
Mn10 O4 1.934435 1_455
Mn10 O32 1.941137 1_565
Mn10 O1 1.942801 1_455
Mn10 O27 1.944304 1_555
Mn10 O21 1.945984 1_555
Mn11 O32 1.932145 1_555
Mn11 O22 1.932831 1_555
Mn11 O0 1.940645 1_455
Mn11 O28 1.942333 1_555
Mn11 O2 1.946315 1_455
Mn11 O5 1.947132 1_455
Mn12 O3 1.918458 1_465
Mn12 O6 1.930345 1_455
Mn12 O10 1.937216 1_455
Mn12 O29 1.944346 1_555
Mn12 O34 1.950454 1_555
Mn12 O38 1.951242 1_565
Cr0 O37 1.903287 1_655
Cr0 O44 1.906970 1_645
Cr0 O13 1.965354 1_555
Cr0 O41 1.967424 1_655
Cr0 O9 1.974907 1_545
Cr0 O18 1.975778 1_555
Cr1 O15 1.905714 1_555
Cr1 O25 1.906676 1_555
Cr1 O45 1.953868 1_655
Cr1 O19 1.956287 1_555
Cr1 O47 1.983650 1_655
Cr1 O42 1.984457 1_655
Cr2 O30 1.897146 1_555
Cr2 O38 1.902730 1_555
Cr2 O7 1.964452 1_455
Cr2 O35 1.966572 1_555
Cr2 O11 1.977080 1_455
Cr2 O3 1.982165 1_455
