# generated using pymatgen
data_Na3H(SO4)2
_symmetry_space_group_name_H-M   'P 1'
_cell_length_a   8.74542800
_cell_length_b   9.23234022
_cell_length_c   9.79006967
_cell_angle_alpha   90.00033057
_cell_angle_beta   90.11934301
_cell_angle_gamma   108.56150304
_symmetry_Int_Tables_number   1
_chemical_formula_structural   Na3H(SO4)2
_chemical_formula_sum   'Na12 H4 S8 O32'
_cell_volume   749.33828733
_cell_formula_units_Z   4
loop_
 _symmetry_equiv_pos_site_id
 _symmetry_equiv_pos_as_xyz
  1  'x, y, z'
loop_
 _atom_site_type_symbol
 _atom_site_label
 _atom_site_symmetry_multiplicity
 _atom_site_fract_x
 _atom_site_fract_y
 _atom_site_fract_z
 _atom_site_occupancy
  Na  Na0  1  0.00711400  0.00057400  0.00520800  1
  Na  Na1  1  0.49847000  0.49051600  0.00140100  1
  Na  Na2  1  0.74715300  0.27474000  0.00427400  1
  Na  Na3  1  0.37943500  0.11905000  0.84409600  1
  Na  Na4  1  0.00322400  0.49722700  0.50049500  1
  Na  Na5  1  0.49681600  0.99474800  0.50099500  1
  Na  Na6  1  0.25641000  0.21640900  0.50936700  1
  Na  Na7  1  0.61461200  0.36772200  0.33929500  1
  Na  Na8  1  0.24975800  0.71563500  0.99578700  1
  Na  Na9  1  0.61433400  0.86619300  0.15563100  1
  Na  Na10  1  0.74977800  0.77308500  0.49667200  1
  Na  Na11  1  0.37915000  0.62044100  0.65808400  1
  H  H0  1  0.87682200  0.88196100  0.75917100  1
  H  H1  1  0.87590400  0.38254600  0.74141300  1
  H  H2  1  0.10078500  0.11369300  0.27186000  1
  H  H3  1  0.12145000  0.61089800  0.25403000  1
  S  S0  1  0.13581100  0.85249900  0.69205800  1
  S  S1  1  0.63001000  0.39883800  0.67938200  1
  S  S2  1  0.13599300  0.35267400  0.80766700  1
  S  S3  1  0.36565900  0.09012000  0.18157800  1
  S  S4  1  0.85819300  0.13721500  0.31013300  1
  S  S5  1  0.36797700  0.58914200  0.32123200  1
  S  S6  1  0.86242200  0.63704000  0.19251000  1
  S  S7  1  0.63125600  0.89911600  0.82084000  1
  O  O0  1  0.15897800  0.86897500  0.84335400  1
  O  O1  1  0.25353000  0.98649600  0.62423200  1
  O  O2  1  0.96531100  0.85040100  0.65846800  1
  O  O3  1  0.15743700  0.70957800  0.64198800  1
  O  O4  1  0.60940900  0.54296200  0.63463100  1
  O  O5  1  0.81027700  0.41559500  0.65675000  1
  O  O6  1  0.59721300  0.36825000  0.82650700  1
  O  O7  1  0.53539000  0.26909100  0.59404600  1
  O  O8  1  0.15803300  0.36906400  0.65611900  1
  O  O9  1  0.25499200  0.48632000  0.87532400  1
  O  O10  1  0.96593900  0.35098000  0.84166600  1
  O  O11  1  0.15773300  0.20935400  0.85683400  1
  O  O12  1  0.38477600  0.94468700  0.13449700  1
  O  O13  1  0.19042500  0.07925700  0.16870000  1
  O  O14  1  0.41325200  0.12099700  0.32756900  1
  O  O15  1  0.46391900  0.21861300  0.09442200  1
  O  O16  1  0.84891200  0.12163100  0.15910200  1
  O  O17  1  0.74198800  0.00280200  0.37555000  1
  O  O18  1  0.03131000  0.14019900  0.35411100  1
  O  O19  1  0.83973600  0.28065800  0.35846700  1
  O  O20  1  0.38241100  0.44279900  0.36650800  1
  O  O21  1  0.18921200  0.57759800  0.34027100  1
  O  O22  1  0.40527800  0.61995200  0.17431900  1
  O  O23  1  0.46556200  0.71689300  0.40743900  1
  O  O24  1  0.84128100  0.62003600  0.34391800  1
  O  O25  1  0.74468700  0.50282500  0.12479600  1
  O  O26  1  0.03292700  0.63928100  0.15754300  1
  O  O27  1  0.84094900  0.78029000  0.14335700  1
  O  O28  1  0.61329700  0.04523500  0.86455700  1
  O  O29  1  0.81111200  0.91394400  0.84446600  1
  O  O30  1  0.59725800  0.86756600  0.67411200  1
  O  O31  1  0.53423000  0.77133000  0.90688900  1
loop_
_geom_bond_atom_site_label_1
_geom_bond_atom_site_label_2
_geom_bond_distance
_geom_bond_site_symmetry_2
Na0 O13 2.215295 1_555
Na0 O29 2.273825 1_444
Na0 O11 2.439681 1_554
Na0 O27 2.490730 1_445
Na0 O16 2.535028 1_455
Na0 O0 2.605171 1_544
Na1 O6 2.361852 1_554
Na1 O22 2.363019 1_555
Na1 O25 2.437673 1_555
Na1 O9 2.448579 1_554
Na1 O15 2.596251 1_555
Na1 O31 2.675895 1_554
Na2 O10 2.417854 1_554
Na2 O25 2.419893 1_555
Na2 O16 2.425482 1_555
Na2 O28 2.478934 1_554
Na2 O6 2.490953 1_554
Na2 O15 2.524859 1_555
Na3 O11 2.345211 1_555
Na3 O28 2.360748 1_555
Na3 O6 2.482323 1_555
Na3 O0 2.492729 1_545
Na3 O1 2.544692 1_545
Na3 O15 2.637585 1_556
Na3 O7 2.929665 1_555
Na4 O21 2.213372 1_555
Na4 O5 2.226339 1_455
Na4 O3 2.426963 1_555
Na4 O19 2.479330 1_455
Na4 O8 2.562344 1_555
Na4 O24 2.579612 1_455
Na5 O14 2.304884 1_565
Na5 O30 2.381853 1_555
Na5 O1 2.428126 1_555
Na5 O17 2.453686 1_565
Na5 O7 2.610290 1_565
Na5 O23 2.654558 1_555
Na6 O8 2.359604 1_555
Na6 O1 2.395184 1_545
Na6 O18 2.405499 1_555
Na6 O20 2.465574 1_555
Na6 O7 2.472354 1_555
Na6 O14 2.569920 1_555
Na7 O19 2.358708 1_555
Na7 O20 2.360828 1_555
Na7 O14 2.397549 1_555
Na7 O25 2.523158 1_555
Na7 O24 2.533327 1_555
Na7 O7 2.671134 1_555
Na7 O15 2.865456 1_555
Na8 O0 2.360539 1_555
Na8 O26 2.400436 1_556
Na8 O9 2.436597 1_555
Na8 O12 2.472622 1_556
Na8 O31 2.530959 1_555
Na8 O22 2.537749 1_556
Na9 O12 2.350078 1_555
Na9 O27 2.360675 1_555
Na9 O22 2.428912 1_555
Na9 O17 2.562432 1_565
Na9 O16 2.586678 1_565
Na9 O31 2.605814 1_554
Na9 O23 2.922619 1_555
Na10 O24 2.366055 1_555
Na10 O2 2.387985 1_555
Na10 O17 2.449556 1_565
Na10 O4 2.488270 1_555
Na10 O30 2.511592 1_555
Na10 O23 2.525960 1_555
Na11 O3 2.340148 1_555
Na11 O4 2.353381 1_555
Na11 O30 2.469116 1_555
Na11 O8 2.503712 1_555
Na11 O9 2.527685 1_555
Na11 O23 2.639065 1_555
Na11 O31 2.914890 1_555
H0 O29 1.106684 1_555
H0 O2 1.342567 1_555
H1 O5 1.104090 1_555
H1 O10 1.345773 1_555
H2 O18 1.083586 1_555
H2 O13 1.377531 1_555
H3 O21 1.128034 1_555
H3 O26 1.298620 1_555
O0 S0 1.495748 1_555
O1 S0 1.491058 1_555
O2 S0 1.520346 1_655
O3 S0 1.475255 1_555
O4 S1 1.465334 1_555
O5 S1 1.550676 1_555
O6 S1 1.478791 1_555
O7 S1 1.477718 1_555
O8 S2 1.497978 1_555
O9 S2 1.491248 1_555
O10 S2 1.519881 1_655
O11 S2 1.475952 1_555
O12 S3 1.478661 1_565
O13 S3 1.508590 1_555
O14 S3 1.489722 1_555
O15 S3 1.492598 1_555
O16 S4 1.485133 1_555
O17 S4 1.477406 1_555
O18 S4 1.564929 1_455
O19 S4 1.462935 1_555
O20 S5 1.464992 1_555
O21 S5 1.544468 1_555
O22 S5 1.482864 1_555
O23 S5 1.479144 1_555
O24 S6 1.496226 1_555
O25 S6 1.489944 1_555
O26 S6 1.524336 1_455
O27 S6 1.474337 1_555
O28 S7 1.470668 1_545
O29 S7 1.551679 1_555
O30 S7 1.476412 1_555
O31 S7 1.478918 1_555
