# generated using pymatgen
data_Rb4LiH3(SO4)4
_symmetry_space_group_name_H-M   'P 1'
_cell_length_a   30.62441100
_cell_length_b   7.65100300
_cell_length_c   7.75927630
_cell_angle_alpha   88.70125777
_cell_angle_beta   90.00000000
_cell_angle_gamma   90.00000000
_symmetry_Int_Tables_number   1
_chemical_formula_structural   Rb4LiH3(SO4)4
_chemical_formula_sum   'Rb16 Li4 H12 S16 O64'
_cell_volume   1817.58927960
_cell_formula_units_Z   4
loop_
 _symmetry_equiv_pos_site_id
 _symmetry_equiv_pos_as_xyz
  1  'x, y, z'
loop_
 _atom_site_type_symbol
 _atom_site_label
 _atom_site_symmetry_multiplicity
 _atom_site_fract_x
 _atom_site_fract_y
 _atom_site_fract_z
 _atom_site_occupancy
  Rb  Rb0  1  0.53989100  0.99492900  0.75793600  1
  Rb  Rb1  1  0.03989100  0.00507100  0.24206400  1
  Rb  Rb2  1  0.30938200  0.97959700  0.01255200  1
  Rb  Rb3  1  0.80938200  0.02040300  0.98744800  1
  Rb  Rb4  1  0.19478100  0.38616100  0.92387600  1
  Rb  Rb5  1  0.69478100  0.61383900  0.07612400  1
  Rb  Rb6  1  0.42097600  0.84289700  0.38887800  1
  Rb  Rb7  1  0.92097600  0.15710300  0.61112200  1
  Rb  Rb8  1  0.30202000  0.27516700  0.50045100  1
  Rb  Rb9  1  0.80202000  0.72483300  0.49954900  1
  Rb  Rb10  1  0.05670400  0.52866800  0.50265600  1
  Rb  Rb11  1  0.55670400  0.47133200  0.49734400  1
  Rb  Rb12  1  0.18309800  0.87857600  0.63343800  1
  Rb  Rb13  1  0.68309800  0.12142400  0.36656200  1
  Rb  Rb14  1  0.43000000  0.54822300  0.87193700  1
  Rb  Rb15  1  0.93000000  0.45177700  0.12806300  1
  Li  Li0  1  0.48322200  0.17936700  0.13542600  1
  Li  Li1  1  0.98322200  0.82063300  0.86457400  1
  Li  Li2  1  0.24616900  0.62356500  0.26621400  1
  Li  Li3  1  0.74616900  0.37643500  0.73378600  1
  H  H0  1  0.62746300  0.27590500  0.93417000  1
  H  H1  1  0.12746300  0.72409500  0.06583000  1
  H  H2  1  0.33885600  0.64436500  0.74733300  1
  H  H3  1  0.83885600  0.35563500  0.25266700  1
  H  H4  1  0.39366700  0.19203300  0.66186000  1
  H  H5  1  0.89366700  0.80796700  0.33814000  1
  H  H6  1  0.09505300  0.22802900  0.83376600  1
  H  H7  1  0.59505300  0.77197100  0.16623400  1
  H  H8  1  0.14028400  0.18369700  0.30671700  1
  H  H9  1  0.64028400  0.81630300  0.69328300  1
  H  H10  1  0.50395400  0.50421400  0.14779500  1
  H  H11  1  0.00395400  0.49578600  0.85220500  1
  S  S0  1  0.17866000  0.91259400  0.12573700  1
  S  S1  1  0.67866000  0.08740600  0.87426300  1
  S  S2  1  0.30474300  0.79644100  0.53503400  1
  S  S3  1  0.80474300  0.20355900  0.46496600  1
  S  S4  1  0.42715500  0.03234600  0.86443800  1
  S  S5  1  0.92715500  0.96765400  0.13556200  1
  S  S6  1  0.55687500  0.96398400  0.29955900  1
  S  S7  1  0.05687500  0.03601600  0.70044100  1
  S  S8  1  0.17595100  0.37631300  0.45587400  1
  S  S9  1  0.67595100  0.62368700  0.54412600  1
  S  S10  1  0.43625400  0.36511500  0.41288900  1
  S  S11  1  0.93625400  0.63488500  0.58711100  1
  S  S12  1  0.05826700  0.50179200  0.03081600  1
  S  S13  1  0.55826700  0.49820800  0.96918400  1
  S  S14  1  0.30432600  0.45441400  0.99105000  1
  S  S15  1  0.80432600  0.54558600  0.00895000  1
  O  O0  1  0.20666400  0.82976300  0.25659300  1
  O  O1  1  0.70666400  0.17023700  0.74340700  1
  O  O2  1  0.15671200  0.75796700  0.01730800  1
  O  O3  1  0.65671200  0.24203300  0.98269200  1
  O  O4  1  0.14131800  0.00477600  0.20331700  1
  O  O5  1  0.64131800  0.99522400  0.79668300  1
  O  O6  1  0.20260500  0.01475000  0.99670300  1
  O  O7  1  0.70260500  0.98525000  0.00329700  1
  O  O8  1  0.27767100  0.64642100  0.48282900  1
  O  O9  1  0.77767100  0.35357900  0.51717100  1
  O  O10  1  0.34601400  0.71790000  0.62877000  1
  O  O11  1  0.84601400  0.28210000  0.37123000  1
  O  O12  1  0.32254500  0.89702500  0.38717700  1
  O  O13  1  0.82254500  0.10297500  0.61282300  1
  O  O14  1  0.28136700  0.90758400  0.65690900  1
  O  O15  1  0.78136700  0.09241600  0.34309100  1
  O  O16  1  0.44691100  0.91596800  0.73804900  1
  O  O17  1  0.94691100  0.08403200  0.26195100  1
  O  O18  1  0.45779900  0.17512400  0.90867300  1
  O  O19  1  0.95779900  0.82487600  0.09132700  1
  O  O20  1  0.38605000  0.12132800  0.77884300  1
  O  O21  1  0.88605000  0.87867200  0.22115700  1
  O  O22  1  0.41088000  0.93880200  0.01814700  1
  O  O23  1  0.91088000  0.06119800  0.98185300  1
  O  O24  1  0.57224100  0.11266400  0.39786400  1
  O  O25  1  0.07224100  0.88733600  0.60213600  1
  O  O26  1  0.53469000  0.82919000  0.40435100  1
  O  O27  1  0.03469000  0.17081000  0.59564900  1
  O  O28  1  0.60157900  0.88080100  0.23139000  1
  O  O29  1  0.10157900  0.11919900  0.76861000  1
  O  O30  1  0.53168700  0.01271700  0.14360600  1
  O  O31  1  0.03168700  0.98728300  0.85639400  1
  O  O32  1  0.20484800  0.42872000  0.31227500  1
  O  O33  1  0.70484800  0.57128000  0.68772500  1
  O  O34  1  0.15810800  0.52193800  0.55259300  1
  O  O35  1  0.65810800  0.47806200  0.44740700  1
  O  O36  1  0.19545000  0.23912300  0.56567900  1
  O  O37  1  0.69545000  0.76087700  0.43432100  1
  O  O38  1  0.13308700  0.29566600  0.36816800  1
  O  O39  1  0.63308700  0.70433400  0.63183200  1
  O  O40  1  0.46255400  0.20820100  0.36397400  1
  O  O41  1  0.96255400  0.79179900  0.63602700  1
  O  O42  1  0.39555600  0.29852500  0.50499200  1
  O  O43  1  0.89555600  0.70147500  0.49500800  1
  O  O44  1  0.46202200  0.47516500  0.53237200  1
  O  O45  1  0.96202200  0.52483500  0.46762800  1
  O  O46  1  0.42431800  0.46916000  0.25675300  1
  O  O47  1  0.92431800  0.53084000  0.74324700  1
  O  O48  1  0.27107700  0.58883200  0.04209500  1
  O  O49  1  0.77107700  0.41116800  0.95790500  1
  O  O50  1  0.02181900  0.59011200  0.89981800  1
  O  O51  1  0.52181900  0.40988800  0.10018200  1
  O  O52  1  0.03379300  0.37885500  0.13864300  1
  O  O53  1  0.53379300  0.62114500  0.86135700  1
  O  O54  1  0.09040100  0.42298300  0.91588000  1
  O  O55  1  0.59040100  0.57701700  0.08412000  1
  O  O56  1  0.07593600  0.65177800  0.12232200  1
  O  O57  1  0.57593600  0.34822200  0.87767800  1
  O  O58  1  0.28441500  0.33290600  0.86603900  1
  O  O59  1  0.78441500  0.66709400  0.13396100  1
  O  O60  1  0.34136900  0.55366700  0.90345400  1
  O  O61  1  0.84136900  0.44633300  0.09654600  1
  O  O62  1  0.32096500  0.35678600  0.14280300  1
  O  O63  1  0.82096500  0.64321400  0.85719700  1
loop_
_geom_bond_atom_site_label_1
_geom_bond_atom_site_label_2
_geom_bond_distance
_geom_bond_site_symmetry_2
Li0 O40 1.900488 1_555
Li0 O18 1.924950 1_554
Li0 O30 1.956776 1_555
Li0 O51 2.135595 1_555
Li1 O41 1.900480 1_555
Li1 O19 1.924950 1_556
Li1 O31 1.956776 1_655
Li1 O50 2.135595 1_655
Li2 O48 1.922900 1_555
Li2 O8 1.949260 1_555
Li2 O32 1.981732 1_555
Li2 O0 1.988160 1_555
Li3 O49 1.922900 1_555
Li3 O9 1.949260 1_555
Li3 O33 1.981732 1_555
Li3 O1 1.988160 1_555
H0 O3 1.003407 1_555
H1 O2 1.003407 1_555
H2 O10 1.089706 1_555
H2 O60 1.384490 1_555
H2 Rb14 3.038847 1_555
H3 O11 1.089706 1_555
H3 O61 1.384490 1_555
H3 Rb15 3.038847 1_555
H4 O20 1.071784 1_555
H4 O42 1.450439 1_555
H5 O21 1.071784 1_555
H5 O43 1.450439 1_555
H6 O29 1.003962 1_555
H6 O54 1.641396 1_555
H7 O28 1.003962 1_555
H7 O55 1.641396 1_555
H8 O38 1.014071 1_555
H8 O4 1.602637 1_555
H9 O39 1.014071 1_555
H9 O5 1.602637 1_555
H10 O51 0.984242 1_555
H10 Rb14 3.129149 1_554
H11 O50 0.984242 1_555
H11 Rb15 3.129149 1_456
O0 S0 1.462490 1_555
O0 Rb12 3.043002 1_555
O1 S1 1.462490 1_555
O1 Rb13 3.043002 1_555
O2 S0 1.613799 1_555
O2 Rb4 3.173405 1_554
O2 Rb12 3.201822 1_554
O3 S1 1.613799 1_555
O3 Rb5 3.173405 1_556
O3 Rb13 3.201822 1_556
O4 S0 1.478784 1_545
O4 Rb1 3.120664 1_555
O5 S1 1.478784 1_565
O5 Rb0 3.120664 1_555
O6 S0 1.454501 1_546
O6 Rb4 2.894652 1_555
O6 Rb12 3.085516 1_545
O6 Rb2 3.283100 1_546
O7 S1 1.454501 1_564
O7 Rb5 2.894652 1_555
O7 Rb13 3.085516 1_565
O7 Rb3 3.283100 1_564
O8 S2 1.479851 1_555
O8 Rb8 2.936897 1_555
O9 S3 1.479851 1_555
O9 Rb9 2.936897 1_555
O10 S2 1.570902 1_555
O10 Rb6 3.093343 1_555
O11 S3 1.570902 1_555
O11 Rb7 3.093343 1_555
O12 S2 1.471612 1_555
O12 Rb2 2.987970 1_555
O12 Rb6 3.042694 1_555
O12 Rb8 3.106973 1_565
O13 S3 1.471612 1_555
O13 Rb3 2.987970 1_555
O13 Rb7 3.042694 1_555
O13 Rb9 3.106973 1_545
O14 S2 1.471840 1_555
O14 Rb2 2.953570 1_556
O14 Rb12 3.023397 1_555
O14 Rb8 3.102989 1_565
O15 S3 1.471840 1_555
O15 Rb3 2.953570 1_554
O15 Rb13 3.023397 1_555
O15 Rb9 3.102989 1_545
O16 S4 1.469763 1_565
O16 Rb6 2.890056 1_555
O16 Rb0 2.915652 1_555
O16 Rb14 3.021823 1_555
O17 S5 1.469763 1_545
O17 Rb7 2.890056 1_555
O17 Rb1 2.915652 1_655
O17 Rb15 3.021823 1_555
O18 S4 1.486213 1_555
O18 Rb14 2.986262 1_555
O18 Rb0 3.108394 1_545
O19 S5 1.486213 1_555
O19 Rb15 2.986262 1_555
O19 Rb1 3.108394 1_665
O20 S4 1.571215 1_555
O20 Rb2 3.144504 1_546
O21 S5 1.571215 1_555
O21 Rb3 3.144504 1_564
O22 S4 1.464383 1_564
O22 Rb6 2.968700 1_555
O22 Rb2 3.124151 1_555
O22 Rb14 3.273172 1_554
O23 S5 1.464383 1_546
O23 Rb7 2.968700 1_555
O23 Rb3 3.124151 1_555
O23 Rb15 3.273172 1_556
O24 S6 1.461719 1_545
O24 Rb11 2.906665 1_555
O24 Rb0 3.079723 1_545
O24 Rb13 3.404159 1_555
O25 S7 1.461719 1_565
O25 Rb10 2.906665 1_555
O25 Rb1 3.079723 1_565
O25 Rb12 3.404159 1_555
O26 S6 1.465715 1_555
O26 Rb11 2.895183 1_555
O26 Rb0 3.052576 1_555
O26 Rb6 3.485989 1_555
O27 S7 1.465715 1_555
O27 Rb10 2.895183 1_555
O27 Rb1 3.052576 1_555
O27 Rb7 3.485989 1_455
O28 S6 1.604475 1_555
O28 Rb13 3.287745 1_565
O29 S7 1.604475 1_555
O29 Rb12 3.287745 1_545
O30 S6 1.475763 1_545
O30 Rb0 3.009200 1_544
O31 S7 1.475763 1_565
O31 Rb1 3.009200 1_566
O32 S8 1.471448 1_555
O32 Rb4 3.054164 1_554
O33 S9 1.471448 1_555
O33 Rb5 3.054164 1_556
O34 S8 1.463245 1_555
O34 Rb12 2.915862 1_555
O34 Rb10 3.129797 1_555
O34 Rb4 3.241041 1_555
O35 S9 1.463245 1_555
O35 Rb13 2.915862 1_555
O35 Rb11 3.129797 1_555
O35 Rb5 3.241041 1_555
O36 S8 1.464140 1_555
O36 Rb12 2.821940 1_545
O36 Rb4 3.022009 1_555
O36 Rb8 3.313194 1_555
O37 S9 1.464140 1_555
O37 Rb13 2.821940 1_565
O37 Rb5 3.022009 1_555
O37 Rb9 3.313194 1_555
O38 S8 1.608114 1_555
O38 Rb10 3.134180 1_555
O39 S9 1.608114 1_555
O39 Rb11 3.134180 1_555
O40 S10 1.501577 1_555
O40 Rb6 3.073411 1_545
O41 S11 1.501579 1_555
O41 Rb7 3.073411 1_565
O42 S10 1.518943 1_555
O42 Rb8 2.870320 1_555
O43 S11 1.518943 1_555
O43 Rb9 2.870320 1_555
O44 S10 1.492173 1_555
O44 Rb14 2.878011 1_555
O44 Rb11 2.912501 1_555
O44 Rb6 3.254787 1_555
O45 S11 1.492173 1_555
O45 Rb15 2.878011 1_555
O45 Rb10 2.912501 1_655
O45 Rb7 3.254787 1_555
O46 S10 1.480313 1_555
O46 Rb14 3.038072 1_554
O46 Rb6 3.061195 1_555
O47 S11 1.480313 1_555
O47 Rb15 3.038072 1_556
O47 Rb7 3.061195 1_555
O48 S14 1.506587 1_554
O48 Rb4 2.961369 1_554
O48 Rb2 3.214987 1_555
O49 S15 1.506587 1_556
O49 Rb5 2.961369 1_556
O49 Rb3 3.214987 1_555
O50 S12 1.644553 1_556
O51 S13 1.644553 1_554
O52 S12 1.452856 1_555
O52 Rb1 2.958613 1_555
O52 Rb10 3.151276 1_555
O52 Rb15 3.227916 1_455
O53 S13 1.452856 1_555
O53 Rb0 2.958613 1_555
O53 Rb11 3.151276 1_555
O53 Rb14 3.227916 1_555
O54 S12 1.466872 1_556
O54 Rb4 3.209443 1_555
O55 S13 1.466872 1_554
O55 Rb5 3.209443 1_555
O56 S12 1.466530 1_555
O56 Rb1 3.082539 1_565
O56 Rb10 3.133237 1_555
O57 S13 1.466530 1_555
O57 Rb0 3.082539 1_545
O57 Rb11 3.133237 1_555
O58 S14 1.489242 1_555
O58 Rb4 2.812591 1_555
O58 Rb8 2.930783 1_555
O58 Rb2 3.007461 1_546
O59 S15 1.489242 1_555
O59 Rb5 2.812591 1_555
O59 Rb9 2.930783 1_555
O59 Rb3 3.007461 1_564
O60 S14 1.517282 1_555
O60 Rb14 2.725670 1_555
O61 S15 1.517282 1_555
O61 Rb15 2.725670 1_555
O62 S14 1.471125 1_554
O62 Rb8 2.889487 1_555
O62 Rb2 3.099634 1_545
O63 S15 1.471125 1_556
O63 Rb9 2.889487 1_555
O63 Rb3 3.099634 1_565
