# generated using pymatgen
data_Li7V3P8O29
_symmetry_space_group_name_H-M   'P 1'
_cell_length_a   9.84889900
_cell_length_b   9.85107611
_cell_length_c   13.90963855
_cell_angle_alpha   90.12723292
_cell_angle_beta   89.99364416
_cell_angle_gamma   119.99149758
_symmetry_Int_Tables_number   1
_chemical_formula_structural   Li7V3P8O29
_chemical_formula_sum   'Li14 V6 P16 O58'
_cell_volume   1168.83626364
_cell_formula_units_Z   2
loop_
 _symmetry_equiv_pos_site_id
 _symmetry_equiv_pos_as_xyz
  1  'x, y, z'
loop_
 _atom_site_type_symbol
 _atom_site_label
 _atom_site_symmetry_multiplicity
 _atom_site_fract_x
 _atom_site_fract_y
 _atom_site_fract_z
 _atom_site_occupancy
  Li  Li0  1  0.66578500  0.76252600  0.06082100  1
  Li  Li1  1  0.67082500  0.90241000  0.56313100  1
  Li  Li2  1  0.23551100  0.33333300  0.56133800  1
  Li  Li3  1  0.33879600  0.66750400  0.88373500  1
  Li  Li4  1  0.09311300  0.32725600  0.06157500  1
  Li  Li5  1  0.22845200  0.90343500  0.06416300  1
  Li  Li6  1  0.91084500  0.23395200  0.43569300  1
  Li  Li7  1  0.10374400  0.75834300  0.55896500  1
  Li  Li8  1  0.65517800  0.32797100  0.61211000  1
  Li  Li9  1  0.67908400  0.32966700  0.11332900  1
  Li  Li10  1  0.76908000  0.67465100  0.43812000  1
  Li  Li11  1  0.32181100  0.23047500  0.93606600  1
  Li  Li12  1  0.94824600  0.96588000  0.99641700  1
  Li  Li13  1  0.06252000  0.01173900  0.49096000  1
  V  V0  1  0.00146900  0.43773400  0.24778200  1
  V  V1  1  0.99828800  0.56554400  0.75465900  1
  V  V2  1  0.56358000  0.00141400  0.74999100  1
  V  V3  1  0.43289600  0.99916600  0.25341100  1
  V  V4  1  0.56323100  0.56374800  0.25088900  1
  V  V5  1  0.43478000  0.43564100  0.74875400  1
  P  P0  1  0.68181800  0.77722600  0.84284800  1
  P  P1  1  0.68626900  0.91627600  0.34557200  1
  P  P2  1  0.22587600  0.31177100  0.34489600  1
  P  P3  1  0.33631200  0.66619400  0.12574200  1
  P  P4  1  0.32865400  0.66790900  0.62644100  1
  P  P5  1  0.08755200  0.31437900  0.84562600  1
  P  P6  1  0.91035400  0.22793200  0.65806500  1
  P  P7  1  0.22795500  0.91109000  0.84508000  1
  P  P8  1  0.77926800  0.08634100  0.15860300  1
  P  P9  1  0.08526200  0.77265400  0.34229600  1
  P  P10  1  0.90808000  0.69073500  0.15674200  1
  P  P11  1  0.66775000  0.33338600  0.37053100  1
  P  P12  1  0.66500900  0.33112100  0.87293400  1
  P  P13  1  0.77430700  0.68140700  0.65846200  1
  P  P14  1  0.30756100  0.08497800  0.65702100  1
  P  P15  1  0.31814200  0.22667100  0.15940900  1
  O  O0  1  0.76583000  0.76664900  0.56994100  1
  O  O1  1  0.66723100  0.75079100  0.34100100  1
  O  O2  1  0.78647300  0.98465000  0.08048500  1
  O  O3  1  0.66423000  0.92237600  0.83342500  1
  O  O4  1  0.51794800  0.63025700  0.83158500  1
  O  O5  1  0.48662400  0.66870800  0.17046200  1
  O  O6  1  0.38322200  0.46626400  0.33292400  1
  O  O7  1  0.23746700  0.23657500  0.06939400  1
  O  O8  1  0.25064300  0.33032100  0.83997000  1
  O  O9  1  0.47986600  0.81648600  0.66875600  1
  O  O10  1  0.52975300  0.90957100  0.32831800  1
  O  O11  1  0.32867400  0.51751900  0.65983600  1
  O  O12  1  0.34935600  0.66736900  0.01765400  1
  O  O13  1  0.31904400  0.68018900  0.51996500  1
  O  O14  1  0.19075600  0.51461300  0.16088700  1
  O  O15  1  0.37492600  0.89267600  0.83094100  1
  O  O16  1  0.33275800  0.81417400  0.16300000  1
  O  O17  1  0.08420700  0.33661500  0.34003200  1
  O  O18  1  0.99357900  0.21101500  0.75269600  1
  O  O19  1  0.00324500  0.23187200  0.57015500  1
  O  O20  1  0.00457600  0.23081600  0.93573700  1
  O  O21  1  0.10641600  0.48029500  0.83242100  1
  O  O22  1  0.18179300  0.66638300  0.67547400  1
  O  O23  1  0.91862200  0.25423700  0.15358600  1
  O  O24  1  0.09109100  0.62302900  0.33214600  1
  O  O25  1  0.25253400  0.91836100  0.33301400  1
  O  O26  1  0.79998600  0.01663600  0.25958600  1
  O  O27  1  0.76804400  0.99877900  0.43792900  1
  O  O28  1  0.20009900  0.98179300  0.57875500  1
  O  O29  1  0.74494900  0.08202800  0.65536600  1
  O  O30  1  0.89542700  0.37635800  0.66876000  1
  O  O31  1  0.08268300  0.74835000  0.84057100  1
  O  O32  1  0.81278400  0.32554100  0.33455800  1
  O  O33  1  0.89458600  0.52778300  0.16239100  1
  O  O34  1  0.00433500  0.79730800  0.07695900  1
  O  O35  1  0.00586600  0.78125200  0.43406600  1
  O  O36  1  0.98210500  0.78560400  0.25683500  1
  O  O37  1  0.92409800  0.66849600  0.65796500  1
  O  O38  1  0.65657800  0.18398000  0.82140600  1
  O  O39  1  0.62585800  0.09486500  0.16759800  1
  O  O40  1  0.81561700  0.47434100  0.82767400  1
  O  O41  1  0.67426500  0.32451500  0.97973800  1
  O  O42  1  0.66916500  0.34311600  0.47848000  1
  O  O43  1  0.67453600  0.48886100  0.32992100  1
  O  O44  1  0.46994000  0.09578100  0.66239500  1
  O  O45  1  0.51804700  0.19254400  0.32647700  1
  O  O46  1  0.73859000  0.66325600  0.15660400  1
  O  O47  1  0.78825700  0.78354700  0.75189300  1
  O  O48  1  0.76716500  0.78260100  0.93370100  1
  O  O49  1  0.63166200  0.51502800  0.66923000  1
  O  O50  1  0.51627800  0.33388200  0.84079100  1
  O  O51  1  0.48339700  0.37320000  0.17308800  1
  O  O52  1  0.33972900  0.08175600  0.15825900  1
  O  O53  1  0.23568200  0.99938800  0.93612000  1
  O  O54  1  0.22056400  0.01364500  0.75835000  1
  O  O55  1  0.33142800  0.25102500  0.65343000  1
  O  O56  1  0.21585800  0.22222300  0.43459300  1
  O  O57  1  0.21054800  0.20708300  0.25036800  1
loop_
_geom_bond_atom_site_label_1
_geom_bond_atom_site_label_2
_geom_bond_distance
_geom_bond_site_symmetry_2
Li0 O2 1.916474 1_555
Li0 O46 1.988103 1_555
Li0 O48 1.991566 1_554
Li0 O5 2.160756 1_555
Li1 O0 1.981102 1_555
Li1 O27 1.987244 1_555
Li1 O29 2.002129 1_565
Li1 O9 2.196721 1_555
Li2 O55 1.990320 1_555
Li2 O19 1.990387 1_555
Li2 O56 2.030591 1_555
Li2 O11 2.082303 1_555
Li3 O12 1.865718 1_556
Li3 O4 2.102353 1_555
Li3 O15 2.191870 1_555
Li3 O21 2.218881 1_555
Li4 O23 1.968894 1_455
Li4 O20 1.972675 1_554
Li4 O7 2.025169 1_555
Li4 O14 2.110463 1_555
Li5 O34 1.921080 1_555
Li5 O53 2.002694 1_554
Li5 O52 2.016285 1_565
Li5 O16 2.151128 1_555
Li6 O17 1.996938 1_655
Li6 O27 2.022129 1_545
Li6 O19 2.084675 1_655
Li6 O32 2.145428 1_555
Li7 O28 1.931503 1_555
Li7 O35 2.053784 1_555
Li7 O37 2.061410 1_455
Li7 O22 2.177356 1_555
Li8 O42 1.864617 1_555
Li8 O49 2.121467 1_555
Li8 O44 2.210066 1_555
Li8 O30 2.306107 1_555
Li9 O41 1.858746 1_554
Li9 O33 2.152363 1_555
Li9 O39 2.233891 1_555
Li9 O51 2.326737 1_555
Li10 O35 2.023964 1_655
Li10 O1 2.037327 1_555
Li10 O0 2.050853 1_555
Li10 O43 2.183148 1_555
Li11 O8 1.985121 1_555
Li11 O53 1.992803 1_545
Li11 O7 2.045011 1_556
Li11 O50 2.125361 1_555
Li12 O48 1.993910 1_555
Li12 O2 2.057498 1_556
Li12 O34 2.289850 1_656
Li12 O20 2.528616 1_665
Li13 O28 1.953450 1_545
Li13 O56 2.017719 1_555
Li13 O35 2.195112 1_545
O0 P13 1.517531 1_555
O1 P1 1.546196 1_555
O1 V4 2.029411 1_555
O2 P8 1.501823 1_565
O3 P0 1.529776 1_555
O3 V2 1.926561 1_565
O4 P0 1.545464 1_555
O4 V5 2.023457 1_555
O5 P3 1.594564 1_555
O5 V4 1.917059 1_555
O6 P2 1.545534 1_555
O6 V4 1.915653 1_555
O7 P15 1.512218 1_555
O8 P5 1.535832 1_555
O8 V5 2.024706 1_555
O9 P4 1.588642 1_555
O9 V2 1.940296 1_565
O10 P1 1.528540 1_555
O10 V3 1.902798 1_555
O11 P4 1.553696 1_555
O11 V5 2.029726 1_555
O12 P3 1.508507 1_555
O13 P4 1.493102 1_555
O14 P3 1.544936 1_555
O14 V0 2.025341 1_555
O15 P7 1.558567 1_555
O15 V2 1.970451 1_565
O16 P3 1.562859 1_555
O16 V3 2.017049 1_555
O17 P2 1.533878 1_555
O17 V0 2.029837 1_555
O18 P6 1.603127 1_555
O18 P5 1.617575 1_655
O19 P6 1.515980 1_455
O20 P5 1.499443 1_555
O21 P5 1.561226 1_555
O21 V1 1.976789 1_455
O22 P4 1.592360 1_555
O22 V1 1.917263 1_455
O23 P8 1.534666 1_555
O23 V0 2.040884 1_655
O24 P9 1.509795 1_555
O24 V0 1.966726 1_555
O25 P9 1.558115 1_555
O25 V3 1.898670 1_555
O26 P1 1.600083 1_545
O26 P8 1.621907 1_555
O27 P1 1.516814 1_555
O28 P14 1.502785 1_565
O29 P6 1.542729 1_555
O29 V2 2.034645 1_555
O30 P6 1.547765 1_555
O30 V1 2.007501 1_555
O31 P7 1.525639 1_555
O31 V1 1.963704 1_455
O32 P11 1.551378 1_555
O32 V0 2.020872 1_655
O33 P10 1.545298 1_555
O33 V0 2.060180 1_655
O34 P10 1.497463 1_455
O35 P9 1.521044 1_555
O36 P9 1.609999 1_655
O36 P10 1.629904 1_555
O37 P13 1.542805 1_555
O37 V1 2.029432 1_555
O38 P12 1.580100 1_555
O38 V2 1.845427 1_555
O39 P8 1.559594 1_555
O39 V3 2.034350 1_545
O40 P12 1.580707 1_555
O40 V1 1.860947 1_555
O41 P12 1.491964 1_555
O42 P11 1.503998 1_555
O43 P11 1.603380 1_555
O43 V4 1.940824 1_555
O44 P14 1.550602 1_555
O44 V2 2.015366 1_555
O45 P11 1.557456 1_555
O45 V3 1.938966 1_545
O46 P10 1.551790 1_555
O46 V4 1.994080 1_555
O47 P13 1.605072 1_555
O47 P0 1.624262 1_555
O48 P0 1.503938 1_555
O49 P13 1.543218 1_555
O49 V5 2.020513 1_555
O50 P12 1.544802 1_555
O50 V5 2.024452 1_555
O51 P15 1.555285 1_555
O51 V4 1.956653 1_555
O52 P15 1.544909 1_555
O52 V3 2.001766 1_545
O53 P7 1.514908 1_555
O54 P7 1.600085 1_545
O54 P14 1.617616 1_555
O55 P14 1.532761 1_555
O55 V5 2.059268 1_555
O56 P2 1.504126 1_555
O57 P15 1.599147 1_555
O57 P2 1.628973 1_555
