# generated using pymatgen
data_Li3SiSbCO7
_symmetry_space_group_name_H-M   'P 1'
_cell_length_a   6.87162300
_cell_length_b   5.04498700
_cell_length_c   9.07251945
_cell_angle_alpha   86.65201609
_cell_angle_beta   90.00000000
_cell_angle_gamma   90.00000000
_symmetry_Int_Tables_number   1
_chemical_formula_structural   Li3SiSbCO7
_chemical_formula_sum   'Li6 Si2 Sb2 C2 O14'
_cell_volume   313.98248486
_cell_formula_units_Z   2
loop_
 _symmetry_equiv_pos_site_id
 _symmetry_equiv_pos_as_xyz
  1  'x, y, z'
loop_
 _atom_site_type_symbol
 _atom_site_label
 _atom_site_symmetry_multiplicity
 _atom_site_fract_x
 _atom_site_fract_y
 _atom_site_fract_z
 _atom_site_occupancy
  Li  Li0  1  0.25000000  0.83305800  0.91984400  1
  Li  Li1  1  0.05238300  0.22380400  0.71708800  1
  Li  Li2  1  0.44761700  0.22380400  0.71708800  1
  Li  Li3  1  0.55238300  0.77619600  0.28291200  1
  Li  Li4  1  0.94761700  0.77619600  0.28291200  1
  Li  Li5  1  0.75000000  0.16694200  0.08015600  1
  Si  Si0  1  0.25000000  0.73045700  0.59496000  1
  Si  Si1  1  0.75000000  0.26954300  0.40504000  1
  Sb  Sb0  1  0.75000000  0.75295900  0.66087100  1
  Sb  Sb1  1  0.25000000  0.24704100  0.33912900  1
  C  C0  1  0.75000000  0.70853100  0.97936400  1
  C  C1  1  0.25000000  0.29146900  0.02063600  1
  O  O0  1  0.25000000  0.23524500  0.88310600  1
  O  O1  1  0.75000000  0.91539700  0.88222700  1
  O  O2  1  0.75000000  0.47077600  0.93683400  1
  O  O3  1  0.06345100  0.83683300  0.68930900  1
  O  O4  1  0.43654900  0.83683300  0.68930900  1
  O  O5  1  0.25000000  0.40564200  0.58742500  1
  O  O6  1  0.75000000  0.14536600  0.58109300  1
  O  O7  1  0.25000000  0.85463400  0.41890700  1
  O  O8  1  0.75000000  0.59435800  0.41257500  1
  O  O9  1  0.56345100  0.16316700  0.31069100  1
  O  O10  1  0.93654900  0.16316700  0.31069100  1
  O  O11  1  0.25000000  0.52922400  0.06316600  1
  O  O12  1  0.25000000  0.08460300  0.11777300  1
  O  O13  1  0.75000000  0.76475500  0.11689400  1
loop_
_geom_bond_atom_site_label_1
_geom_bond_atom_site_label_2
_geom_bond_distance
_geom_bond_site_symmetry_2
Li0 O11 1.951295 1_556
Li0 O0 2.036924 1_565
Li0 O12 2.258589 1_566
Li0 O3 2.452239 1_555
Li0 O4 2.452239 1_555
Li1 O3 1.984465 1_545
Li1 O5 1.985798 1_555
Li1 O0 2.031294 1_555
Li1 O6 2.460373 1_455
Li2 O4 1.984465 1_545
Li2 O5 1.985798 1_555
Li2 O0 2.031294 1_555
Li2 O6 2.460373 1_555
Li3 O9 1.984465 1_565
Li3 O8 1.985798 1_555
Li3 O13 2.031294 1_555
Li3 O7 2.460373 1_555
Li4 O10 1.984465 1_565
Li4 O8 1.985798 1_555
Li4 O13 2.031294 1_555
Li4 O7 2.460373 1_655
Li5 O2 1.951295 1_554
Li5 O13 2.036924 1_545
Li5 O1 2.258589 1_544
Li5 O10 2.452239 1_555
Li5 O9 2.452239 1_555
C0 O2 1.281277 1_555
C0 O13 1.295631 1_556
C0 O1 1.326047 1_555
C1 O11 1.281277 1_555
C1 O0 1.295631 1_554
C1 O12 1.326047 1_555
O1 Sb0 2.212893 1_555
O3 Si0 1.648522 1_555
O3 Sb0 2.213081 1_455
O4 Si0 1.648522 1_555
O4 Sb0 2.213081 1_555
O5 Si0 1.644097 1_555
O5 Sb1 2.434189 1_555
O6 Si1 1.681304 1_555
O6 Sb0 2.067770 1_545
O7 Si0 1.681304 1_555
O7 Sb1 2.067770 1_565
O8 Si1 1.644097 1_555
O8 Sb0 2.434189 1_555
O9 Si1 1.648522 1_555
O9 Sb1 2.213081 1_555
O10 Si1 1.648522 1_555
O10 Sb1 2.213081 1_655
O12 Sb1 2.212893 1_555
