# generated using pymatgen
data_Li3Cr4(PO4)6
_symmetry_space_group_name_H-M   'P 1'
_cell_length_a   8.56549380
_cell_length_b   8.56549380
_cell_length_c   6.31967410
_cell_angle_alpha   74.99547635
_cell_angle_beta   74.99547635
_cell_angle_gamma   92.43534338
_symmetry_Int_Tables_number   1
_chemical_formula_structural   Li3Cr4(PO4)6
_chemical_formula_sum   'Li3 Cr4 P6 O24'
_cell_volume   429.59146865
_cell_formula_units_Z   1
loop_
 _symmetry_equiv_pos_site_id
 _symmetry_equiv_pos_as_xyz
  1  'x, y, z'
loop_
 _atom_site_type_symbol
 _atom_site_label
 _atom_site_symmetry_multiplicity
 _atom_site_fract_x
 _atom_site_fract_y
 _atom_site_fract_z
 _atom_site_occupancy
  Li  Li0  1  0.49843100  0.50102100  0.24963300  1
  Li  Li1  1  0.49897900  0.50156900  0.75036700  1
  Li  Li2  1  0.01824200  0.98175800  0.50000000  1
  Cr  Cr0  1  0.94126900  0.61700300  0.89413900  1
  Cr  Cr1  1  0.61960500  0.94102900  0.38980400  1
  Cr  Cr2  1  0.38299700  0.05873100  0.10586100  1
  Cr  Cr3  1  0.05897100  0.38039500  0.61019600  1
  P  P0  1  0.84275500  0.65074800  0.39890800  1
  P  P1  1  0.72757100  0.27242900  0.00000000  1
  P  P2  1  0.65158300  0.84262300  0.89257500  1
  P  P3  1  0.34925200  0.15724500  0.60109200  1
  P  P4  1  0.27266500  0.72733500  0.50000000  1
  P  P5  1  0.15737700  0.34841700  0.10742500  1
  O  O0  1  0.93322400  0.58224000  0.58853200  1
  O  O1  1  0.96752900  0.64309300  0.17348200  1
  O  O2  1  0.82678900  0.83298500  0.38491300  1
  O  O3  1  0.85022100  0.24948900  0.78598400  1
  O  O4  1  0.75051100  0.14977900  0.21401600  1
  O  O5  1  0.83504400  0.82247300  0.86129100  1
  O  O6  1  0.68141800  0.55245600  0.44882800  1
  O  O7  1  0.64329600  0.97114900  0.67148800  1
  O  O8  1  0.74898700  0.44708100  0.02813100  1
  O  O9  1  0.58656800  0.93203300  0.08505900  1
  O  O10  1  0.44754400  0.31858200  0.55117200  1
  O  O11  1  0.55291900  0.25101300  0.97186900  1
  O  O12  1  0.44606200  0.74879200  0.52912000  1
  O  O13  1  0.54994900  0.68141200  0.94967200  1
  O  O14  1  0.41776000  0.06677600  0.41146800  1
  O  O15  1  0.25120800  0.55393800  0.47088000  1
  O  O16  1  0.35690700  0.03247100  0.82651800  1
  O  O17  1  0.31858800  0.45005100  0.05032800  1
  O  O18  1  0.16701500  0.17321100  0.61508700  1
  O  O19  1  0.24606400  0.85504600  0.29098500  1
  O  O20  1  0.14495400  0.75393600  0.70901500  1
  O  O21  1  0.17752700  0.16495600  0.13870900  1
  O  O22  1  0.02885100  0.35670400  0.32851200  1
  O  O23  1  0.06796700  0.41343200  0.91494100  1
loop_
_geom_bond_atom_site_label_1
_geom_bond_atom_site_label_2
_geom_bond_distance
_geom_bond_site_symmetry_2
Li0 O13 2.041561 1_554
Li0 O10 2.057543 1_555
Li0 O17 2.319966 1_555
Li0 O6 2.342133 1_555
Li0 O15 2.349732 1_555
Li0 O8 2.375386 1_555
Li1 O17 2.041561 1_556
Li1 O6 2.057543 1_555
Li1 O13 2.319966 1_555
Li1 O10 2.342133 1_555
Li1 O12 2.349732 1_555
Li1 O11 2.375386 1_555
Li2 O18 2.400412 1_565
Li2 O2 2.400412 1_455
Li2 O5 2.426292 1_455
Li2 O21 2.426292 1_565
Li2 O20 2.513648 1_555
Li2 O19 2.513648 1_555
Cr0 O1 1.903320 1_556
Cr0 O20 1.961369 1_655
Cr0 O8 1.995993 1_556
Cr0 O5 2.003272 1_555
Cr0 O0 2.046561 1_555
Cr0 O23 2.086012 1_655
Cr1 O7 1.922778 1_555
Cr1 O4 1.960770 1_565
Cr1 O12 2.014888 1_555
Cr1 O2 2.032909 1_555
Cr1 O9 2.037704 1_555
Cr1 O14 2.068818 1_565
Cr2 O16 1.903320 1_554
Cr2 O19 1.961369 1_545
Cr2 O11 1.995993 1_554
Cr2 O21 2.003272 1_555
Cr2 O14 2.046561 1_555
Cr2 O9 2.086012 1_545
Cr3 O22 1.922778 1_555
Cr3 O3 1.960770 1_455
Cr3 O15 2.014888 1_555
Cr3 O18 2.032909 1_555
Cr3 O23 2.037704 1_555
Cr3 O0 2.068818 1_455
O0 P0 1.592565 1_555
O1 P0 1.562697 1_555
O2 P0 1.554352 1_555
O3 P1 1.546284 1_556
O4 P1 1.546284 1_555
O5 P2 1.555034 1_555
O6 P0 1.501979 1_555
O7 P2 1.559072 1_555
O8 P1 1.560284 1_555
O9 P2 1.595057 1_554
O10 P3 1.501979 1_555
O11 P1 1.560284 1_556
O12 P4 1.552223 1_555
O13 P2 1.507316 1_555
O14 P3 1.592565 1_555
O15 P4 1.552223 1_555
O16 P3 1.562697 1_555
O17 P5 1.507316 1_555
O18 P3 1.554352 1_555
O19 P4 1.556337 1_555
O20 P4 1.556337 1_555
O21 P5 1.555034 1_555
O22 P5 1.559072 1_555
O23 P5 1.595057 1_556
