# generated using pymatgen
data_NaCeC4O11
_symmetry_space_group_name_H-M   'P 1'
_cell_length_a   7.67214700
_cell_length_b   9.85223600
_cell_length_c   13.82056578
_cell_angle_alpha   74.11485124
_cell_angle_beta   90.00000000
_cell_angle_gamma   90.00000000
_symmetry_Int_Tables_number   1
_chemical_formula_structural   NaCeC4O11
_chemical_formula_sum   'Na4 Ce4 C16 O44'
_cell_volume   1004.77279012
_cell_formula_units_Z   4
loop_
 _symmetry_equiv_pos_site_id
 _symmetry_equiv_pos_as_xyz
  1  'x, y, z'
loop_
 _atom_site_type_symbol
 _atom_site_label
 _atom_site_symmetry_multiplicity
 _atom_site_fract_x
 _atom_site_fract_y
 _atom_site_fract_z
 _atom_site_occupancy
  Na  Na0  1  0.26518700  0.38484600  0.73518900  1
  Na  Na1  1  0.26518700  0.11515400  0.26481100  1
  Na  Na2  1  0.73481300  0.61515400  0.26481100  1
  Na  Na3  1  0.73481300  0.88484600  0.73518900  1
  Ce  Ce0  1  0.23151400  0.73402700  0.73711700  1
  Ce  Ce1  1  0.23151400  0.76597300  0.26288300  1
  Ce  Ce2  1  0.76848600  0.26597300  0.26288300  1
  Ce  Ce3  1  0.76848600  0.23402700  0.73711700  1
  C  C0  1  0.20941600  0.66782100  0.51354800  1
  C  C1  1  0.20941600  0.83217900  0.48645200  1
  C  C2  1  0.79058400  0.33217900  0.48645200  1
  C  C3  1  0.79058400  0.16782100  0.51354800  1
  C  C4  1  0.83963000  0.57241000  0.73186900  1
  C  C5  1  0.83963000  0.92759000  0.26813100  1
  C  C6  1  0.16037000  0.42759000  0.26813100  1
  C  C7  1  0.16037000  0.07241000  0.73186900  1
  C  C8  1  0.63675700  0.56537300  0.72695800  1
  C  C9  1  0.63675700  0.93462700  0.27304200  1
  C  C10  1  0.36324300  0.43462700  0.27304200  1
  C  C11  1  0.36324300  0.06537300  0.72695800  1
  C  C12  1  0.41700600  0.75000000  0.00000000  1
  C  C13  1  0.58299400  0.25000000  0.00000000  1
  C  C14  1  0.01650600  0.75000000  0.00000000  1
  C  C15  1  0.98349400  0.25000000  0.00000000  1
  O  O0  1  0.21654300  0.60366200  0.60660400  1
  O  O1  1  0.21654300  0.89633800  0.39339600  1
  O  O2  1  0.78345700  0.39633800  0.39339600  1
  O  O3  1  0.78345700  0.10366200  0.60660400  1
  O  O4  1  0.20654400  0.61309600  0.44116700  1
  O  O5  1  0.20654400  0.88690400  0.55883300  1
  O  O6  1  0.79345600  0.38690400  0.55883300  1
  O  O7  1  0.79345600  0.11309600  0.44116700  1
  O  O8  1  0.91108400  0.69256000  0.71941600  1
  O  O9  1  0.91108400  0.80744000  0.28058400  1
  O  O10  1  0.08891600  0.30744000  0.28058400  1
  O  O11  1  0.08891600  0.19256000  0.71941600  1
  O  O12  1  0.91757000  0.45503800  0.74720300  1
  O  O13  1  0.91757000  0.04496200  0.25279700  1
  O  O14  1  0.08243000  0.54496200  0.25279700  1
  O  O15  1  0.08243000  0.95503800  0.74720300  1
  O  O16  1  0.57540300  0.44523200  0.72859800  1
  O  O17  1  0.57540300  0.05476800  0.27140200  1
  O  O18  1  0.42459700  0.55476800  0.27140200  1
  O  O19  1  0.42459700  0.94523200  0.72859800  1
  O  O20  1  0.55077000  0.67715700  0.72074700  1
  O  O21  1  0.55077000  0.82284300  0.27925300  1
  O  O22  1  0.44923000  0.32284300  0.27925300  1
  O  O23  1  0.44923000  0.17715700  0.72074700  1
  O  O24  1  0.41613600  0.75306900  0.91451400  1
  O  O25  1  0.41613600  0.74693100  0.08548600  1
  O  O26  1  0.58386400  0.24693100  0.08548600  1
  O  O27  1  0.58386400  0.25306900  0.91451400  1
  O  O28  1  0.02540600  0.72996400  0.91998900  1
  O  O29  1  0.02540600  0.77003600  0.08001100  1
  O  O30  1  0.97459400  0.27003600  0.08001100  1
  O  O31  1  0.97459400  0.22996400  0.91998900  1
  O  O32  1  0.24058000  0.55348200  0.83213700  1
  O  O33  1  0.24058000  0.94651800  0.16786200  1
  O  O34  1  0.75942000  0.44651800  0.16786200  1
  O  O35  1  0.75942000  0.05348200  0.83213700  1
  O  O36  1  0.36596700  0.31252500  0.49980200  1
  O  O37  1  0.36596700  0.18747500  0.50019800  1
  O  O38  1  0.63403300  0.68747500  0.50019800  1
  O  O39  1  0.63403300  0.81252500  0.49980200  1
  O  O40  1  0.74335300  0.57888200  0.02019400  1
  O  O41  1  0.74335300  0.92111800  0.97980600  1
  O  O42  1  0.25664700  0.42111800  0.97980600  1
  O  O43  1  0.25664700  0.07888200  0.02019400  1
loop_
_geom_bond_atom_site_label_1
_geom_bond_atom_site_label_2
_geom_bond_distance
_geom_bond_site_symmetry_2
Na0 O11 2.385675 1_555
Na0 O32 2.410378 1_555
Na0 O0 2.418215 1_555
Na0 O16 2.448896 1_555
Na0 O23 2.538525 1_555
Na0 O12 2.771532 1_455
Na1 O10 2.385675 1_555
Na1 O33 2.410389 1_545
Na1 O1 2.418215 1_545
Na1 O17 2.448896 1_555
Na1 O22 2.538525 1_555
Na1 O13 2.771532 1_455
Na2 O9 2.385675 1_555
Na2 O34 2.410389 1_555
Na2 O2 2.418215 1_555
Na2 O18 2.448896 1_555
Na2 O21 2.538525 1_555
Na2 O14 2.771532 1_655
Na3 O8 2.385675 1_555
Na3 O35 2.410378 1_565
Na3 O3 2.418215 1_565
Na3 O19 2.448896 1_555
Na3 O20 2.538525 1_555
Na3 O15 2.771532 1_655
Ce0 O32 1.901237 1_555
Ce0 O0 2.486891 1_555
Ce0 O8 2.514981 1_455
Ce0 O5 2.518912 1_555
Ce0 O19 2.530628 1_555
Ce0 O20 2.536527 1_555
Ce1 O33 1.901243 1_555
Ce1 O1 2.486891 1_555
Ce1 O9 2.514981 1_455
Ce1 O4 2.518912 1_555
Ce1 O18 2.530628 1_555
Ce1 O21 2.536527 1_555
Ce2 O34 1.901243 1_555
Ce2 O2 2.486891 1_555
Ce2 O10 2.514981 1_655
Ce2 O7 2.518912 1_555
Ce2 O17 2.530628 1_555
Ce2 O22 2.536527 1_555
Ce3 O35 1.901237 1_555
Ce3 O3 2.486891 1_555
Ce3 O11 2.514981 1_655
Ce3 O6 2.518912 1_555
Ce3 O16 2.530628 1_555
Ce3 O23 2.536527 1_555
C0 O4 1.259812 1_555
C0 O0 1.269467 1_555
C1 O5 1.259812 1_555
C1 O1 1.269467 1_555
C2 O6 1.259812 1_555
C2 O2 1.269467 1_555
C3 O7 1.259812 1_555
C3 O3 1.269467 1_555
C4 O12 1.267095 1_555
C4 O8 1.272745 1_555
C5 O13 1.267095 1_565
C5 O9 1.272745 1_555
C6 O14 1.267095 1_555
C6 O10 1.272745 1_555
C7 O15 1.267095 1_545
C7 O11 1.272745 1_555
C8 O20 1.266388 1_555
C8 O16 1.268246 1_555
C9 O21 1.266388 1_555
C9 O17 1.268246 1_565
C10 O22 1.266388 1_555
C10 O18 1.268246 1_555
C11 O23 1.266388 1_555
C11 O19 1.268246 1_545
C12 O25 1.173568 1_555
C12 O24 1.173568 1_554
C13 O26 1.173568 1_555
C13 O27 1.173568 1_554
C14 O29 1.177247 1_555
C14 O28 1.177247 1_554
C15 O30 1.177247 1_555
C15 O31 1.177247 1_554
O36 O37 1.230535 1_555
O38 O39 1.230535 1_555
