# generated using pymatgen
data_V2GaO5
_symmetry_space_group_name_H-M   'P 1'
_cell_length_a   6.12841700
_cell_length_b   9.14512897
_cell_length_c   9.95704636
_cell_angle_alpha   95.13727531
_cell_angle_beta   107.88233097
_cell_angle_gamma   99.55179004
_symmetry_Int_Tables_number   1
_chemical_formula_structural   V2GaO5
_chemical_formula_sum   'V12 Ga6 O30'
_cell_volume   517.81988347
_cell_formula_units_Z   6
loop_
 _symmetry_equiv_pos_site_id
 _symmetry_equiv_pos_as_xyz
  1  'x, y, z'
loop_
 _atom_site_type_symbol
 _atom_site_label
 _atom_site_symmetry_multiplicity
 _atom_site_fract_x
 _atom_site_fract_y
 _atom_site_fract_z
 _atom_site_occupancy
  V  V0  1  0.93017500  0.02571100  0.34692100  1
  V  V1  1  0.43087800  0.03123500  0.34677700  1
  V  V2  1  0.00000000  0.00000000  0.00000000  1
  V  V3  1  0.50000000  0.00000000  0.00000000  1
  V  V4  1  0.79363100  0.38073800  0.38650800  1
  V  V5  1  0.86538500  0.35467100  0.05167200  1
  V  V6  1  0.36353500  0.35474100  0.05144200  1
  V  V7  1  0.13461500  0.64532800  0.94832800  1
  V  V8  1  0.63646500  0.64525900  0.94855800  1
  V  V9  1  0.20636900  0.61926200  0.61349200  1
  V  V10  1  0.06982500  0.97428900  0.65307900  1
  V  V11  1  0.56912200  0.96876500  0.65322300  1
  Ga  Ga0  1  0.93747500  0.31150500  0.72174500  1
  Ga  Ga1  1  0.43997400  0.31201100  0.72208400  1
  Ga  Ga2  1  0.28826600  0.37780800  0.38764900  1
  Ga  Ga3  1  0.71173400  0.62219200  0.61235100  1
  Ga  Ga4  1  0.56002600  0.68798900  0.27791600  1
  Ga  Ga5  1  0.06252500  0.68849500  0.27825500  1
  O  O0  1  0.73900400  0.00034000  0.49948200  1
  O  O1  1  0.26099600  0.99966000  0.50051800  1
  O  O2  1  0.60599600  0.02196200  0.21321400  1
  O  O3  1  0.11790600  0.02260500  0.21317100  1
  O  O4  1  0.14907800  0.20281300  0.69644800  1
  O  O5  1  0.64813400  0.20029600  0.69606200  1
  O  O6  1  0.29347900  0.15504500  0.00946400  1
  O  O7  1  0.79398100  0.15516800  0.01035900  1
  O  O8  1  0.50008700  0.23706700  0.38858300  1
  O  O9  1  0.00942100  0.24660700  0.39158300  1
  O  O10  1  0.05883500  0.40104300  0.91802400  1
  O  O11  1  0.55965100  0.40123000  0.91808700  1
  O  O12  1  0.18437900  0.37428000  0.17998000  1
  O  O13  1  0.68233300  0.37635900  0.17901400  1
  O  O14  1  0.91069200  0.45775400  0.60199700  1
  O  O15  1  0.41959400  0.45868000  0.60121900  1
  O  O16  1  0.58040600  0.54132000  0.39878100  1
  O  O17  1  0.08930800  0.54224600  0.39800300  1
  O  O18  1  0.31766700  0.62364100  0.82098600  1
  O  O19  1  0.81562100  0.62572000  0.82002000  1
  O  O20  1  0.94116500  0.59895700  0.08197600  1
  O  O21  1  0.44034900  0.59877000  0.08191300  1
  O  O22  1  0.49991300  0.76293300  0.61141700  1
  O  O23  1  0.99057900  0.75339300  0.60841700  1
  O  O24  1  0.70652100  0.84495500  0.99053600  1
  O  O25  1  0.20601900  0.84483200  0.98964100  1
  O  O26  1  0.35186600  0.79970400  0.30393800  1
  O  O27  1  0.85092200  0.79718700  0.30355200  1
  O  O28  1  0.39400400  0.97803800  0.78678600  1
  O  O29  1  0.88209400  0.97739500  0.78682900  1
loop_
_geom_bond_atom_site_label_1
_geom_bond_atom_site_label_2
_geom_bond_distance
_geom_bond_site_symmetry_2
Ga0 O4 1.821184 1_655
Ga0 O5 1.822201 1_555
Ga0 O14 1.864317 1_555
Ga0 O10 1.913584 1_655
Ga1 O4 1.823348 1_555
Ga1 O5 1.823845 1_555
Ga1 O15 1.874936 1_555
Ga1 O11 1.910397 1_555
Ga2 O9 1.931446 1_555
Ga2 O12 1.963366 1_555
Ga2 O8 1.972579 1_555
Ga2 O15 2.046113 1_555
Ga2 O16 2.100867 1_555
Ga2 O17 2.101597 1_555
Ga3 O23 1.931446 1_555
Ga3 O19 1.963366 1_555
Ga3 O22 1.972579 1_555
Ga3 O16 2.046113 1_555
Ga3 O15 2.100867 1_555
Ga3 O14 2.101597 1_555
Ga4 O27 1.823348 1_555
Ga4 O26 1.823845 1_555
Ga4 O16 1.874936 1_555
Ga4 O21 1.910397 1_555
Ga5 O27 1.821184 1_455
Ga5 O26 1.822201 1_555
Ga5 O17 1.864317 1_555
Ga5 O20 1.913584 1_455
O0 V1 2.109081 1_555
O0 V11 2.113953 1_545
O0 V0 2.190848 1_555
O0 V10 2.197152 1_645
O1 V11 2.109081 1_555
O1 V1 2.113953 1_565
O1 V10 2.190848 1_555
O1 V0 2.197152 1_465
O2 V1 1.952964 1_555
O2 V3 2.000694 1_555
O2 V0 2.016305 1_555
O3 V1 1.954164 1_555
O3 V2 2.000010 1_555
O3 V0 2.010730 1_455
O4 V10 2.040266 1_545
O5 V11 2.066606 1_545
O6 V6 1.785241 1_555
O6 V3 2.065453 1_555
O6 V2 2.068767 1_555
O7 V5 1.783119 1_555
O7 V2 2.065609 1_655
O7 V3 2.069150 1_555
O8 V1 1.839221 1_555
O8 V4 2.050912 1_555
O9 V4 1.940236 1_455
O9 V0 1.973677 1_455
O10 V5 2.063808 1_456
O10 V6 2.066570 1_556
O10 V7 2.178637 1_555
O11 V5 2.072870 1_556
O11 V6 2.073636 1_556
O11 V8 2.176329 1_555
O12 V6 1.939737 1_555
O12 V5 1.948049 1_455
O13 V6 1.942268 1_555
O13 V5 1.951374 1_555
O13 V4 1.961122 1_555
O14 V4 2.056900 1_555
O14 V9 2.105289 1_655
O15 V9 2.140537 1_555
O16 V4 2.140537 1_555
O17 V9 2.056900 1_555
O17 V4 2.105289 1_455
O18 V8 1.942268 1_555
O18 V7 1.951373 1_555
O18 V9 1.961122 1_555
O19 V8 1.939737 1_555
O19 V7 1.948050 1_655
O20 V7 2.063806 1_654
O20 V8 2.066570 1_554
O20 V5 2.178646 1_555
O21 V7 2.072866 1_554
O21 V8 2.073636 1_554
O21 V6 2.176329 1_555
O22 V11 1.839221 1_555
O22 V9 2.050912 1_555
O23 V9 1.940236 1_655
O23 V10 1.973677 1_655
O24 V8 1.785241 1_555
O24 V3 2.065453 1_566
O24 V2 2.068767 1_666
O25 V7 1.783128 1_555
O25 V2 2.065609 1_566
O25 V3 2.069150 1_566
O26 V1 2.066606 1_565
O27 V0 2.040266 1_565
O28 V11 1.952964 1_555
O28 V3 2.000694 1_566
O28 V10 2.016305 1_555
O29 V11 1.954164 1_555
O29 V2 2.000010 1_666
O29 V10 2.010730 1_655
