# generated using pymatgen
data_Li3Nb2CrO6
_symmetry_space_group_name_H-M   'P 1'
_cell_length_a   5.83341941
_cell_length_b   6.82327763
_cell_length_c   13.67791704
_cell_angle_alpha   75.95046782
_cell_angle_beta   77.70461221
_cell_angle_gamma   64.66431978
_symmetry_Int_Tables_number   1
_chemical_formula_structural   Li3Nb2CrO6
_chemical_formula_sum   'Li12 Nb8 Cr4 O24'
_cell_volume   473.63098572
_cell_formula_units_Z   4
loop_
 _symmetry_equiv_pos_site_id
 _symmetry_equiv_pos_as_xyz
  1  'x, y, z'
loop_
 _atom_site_type_symbol
 _atom_site_label
 _atom_site_symmetry_multiplicity
 _atom_site_fract_x
 _atom_site_fract_y
 _atom_site_fract_z
 _atom_site_occupancy
  Li  Li0  1  0.08333100  0.16669400  0.66666900  1
  Li  Li1  1  0.58333800  0.16667800  0.66667000  1
  Li  Li2  1  0.33335900  0.66664000  0.16666800  1
  Li  Li3  1  0.83335600  0.66665400  0.16666800  1
  Li  Li4  1  0.25170500  0.48292500  0.01358400  1
  Li  Li5  1  0.75171600  0.48294800  0.01356700  1
  Li  Li6  1  0.50173700  0.98293200  0.51357500  1
  Li  Li7  1  0.00170300  0.98292700  0.51357400  1
  Li  Li8  1  0.41495900  0.85042600  0.31976400  1
  Li  Li9  1  0.91495000  0.85040500  0.31977400  1
  Li  Li10  1  0.66494600  0.35040800  0.81976800  1
  Li  Li11  1  0.16498100  0.35041100  0.81976700  1
  Nb  Nb0  1  0.01105800  0.98788500  0.98993100  1
  Nb  Nb1  1  0.51102900  0.98789700  0.98994100  1
  Nb  Nb2  1  0.26104500  0.48790500  0.48995500  1
  Nb  Nb3  1  0.76103800  0.48791000  0.48995400  1
  Nb  Nb4  1  0.65562100  0.34543100  0.34337800  1
  Nb  Nb5  1  0.15564300  0.34542200  0.34336500  1
  Nb  Nb6  1  0.90562400  0.84546000  0.84338400  1
  Nb  Nb7  1  0.40563200  0.84544300  0.84339400  1
  Cr  Cr0  1  0.83336700  0.66667400  0.66669700  1
  Cr  Cr1  1  0.58322200  0.16675300  0.16670300  1
  Cr  Cr2  1  0.33329500  0.66663000  0.66665300  1
  Cr  Cr3  1  0.08325900  0.16663100  0.16662700  1
  O  O0  1  0.87714900  0.73441100  0.51140200  1
  O  O1  1  0.37713900  0.73442600  0.51138500  1
  O  O2  1  0.12700500  0.23442700  0.01136500  1
  O  O3  1  0.62711300  0.23443400  0.01138100  1
  O  O4  1  0.28965000  0.59891600  0.82194900  1
  O  O5  1  0.78967500  0.59889500  0.82199200  1
  O  O6  1  0.53960500  0.09892600  0.32193600  1
  O  O7  1  0.03951100  0.09891000  0.32193900  1
  O  O8  1  0.03300500  0.11139300  0.82307800  1
  O  O9  1  0.53296100  0.11141000  0.82309000  1
  O  O10  1  0.28299500  0.61139100  0.32307800  1
  O  O11  1  0.78295500  0.61141300  0.32308900  1
  O  O12  1  0.63367200  0.22194700  0.51025700  1
  O  O13  1  0.13371800  0.22191900  0.51023500  1
  O  O14  1  0.88368900  0.72195100  0.01020100  1
  O  O15  1  0.38366300  0.72195200  0.01025300  1
  O  O16  1  0.21579300  0.39117700  0.17691400  1
  O  O17  1  0.71578800  0.39122500  0.17690700  1
  O  O18  1  0.46581700  0.89128700  0.67692500  1
  O  O19  1  0.96579900  0.89127100  0.67692300  1
  O  O20  1  0.45083100  0.94204600  0.15641000  1
  O  O21  1  0.95084600  0.94198000  0.15641100  1
  O  O22  1  0.70084600  0.44209300  0.65642400  1
  O  O23  1  0.20085300  0.44211200  0.65642600  1
loop_
_geom_bond_atom_site_label_1
_geom_bond_atom_site_label_2
_geom_bond_distance
_geom_bond_site_symmetry_2
Li0 O8 2.059311 1_555
Li0 O13 2.059644 1_555
Li0 O22 2.223962 1_455
Li0 O18 2.223999 1_545
Li0 O23 2.226000 1_555
Li0 O19 2.226040 1_445
Li1 O12 2.059365 1_555
Li1 O9 2.059457 1_555
Li1 O19 2.223900 1_545
Li1 O23 2.224057 1_555
Li1 O18 2.225785 1_545
Li1 O22 2.225918 1_555
Li2 O10 2.059327 1_555
Li2 O15 2.059389 1_555
Li2 O17 2.223786 1_555
Li2 O21 2.223920 1_455
Li2 O20 2.225688 1_555
Li2 O16 2.226455 1_555
Li3 O11 2.059472 1_555
Li3 O14 2.060076 1_555
Li3 O16 2.223993 1_655
Li3 O20 2.224109 1_555
Li3 O21 2.225235 1_555
Li3 O17 2.226260 1_555
Li4 O15 2.068346 1_555
Li4 O14 2.068802 1_455
Li4 O3 2.119043 1_555
Li4 O2 2.120146 1_555
Li4 O16 2.158820 1_555
Li4 O4 2.538012 1_554
Li5 O14 2.068135 1_555
Li5 O15 2.068854 1_555
Li5 O2 2.118640 1_655
Li5 O3 2.119734 1_555
Li5 O17 2.158935 1_555
Li5 O5 2.537212 1_554
Li6 O12 2.068219 1_565
Li6 O13 2.068693 1_565
Li6 O0 2.119138 1_555
Li6 O1 2.119677 1_555
Li6 O18 2.159022 1_555
Li6 O6 2.538065 1_565
Li7 O13 2.068328 1_565
Li7 O12 2.068803 1_465
Li7 O1 2.119182 1_555
Li7 O0 2.119496 1_455
Li7 O19 2.159015 1_455
Li7 O7 2.538006 1_565
Li8 O10 2.068480 1_555
Li8 O11 2.068648 1_555
Li8 O7 2.119191 1_565
Li8 O6 2.119762 1_565
Li8 O20 2.159059 1_555
Li8 O1 2.537838 1_555
Li9 O11 2.068328 1_555
Li9 O10 2.068837 1_655
Li9 O6 2.118871 1_565
Li9 O7 2.119426 1_665
Li9 O21 2.159151 1_555
Li9 O0 2.537923 1_555
Li10 O9 2.068301 1_555
Li10 O8 2.068902 1_655
Li10 O4 2.118639 1_555
Li10 O5 2.120211 1_555
Li10 O22 2.158966 1_555
Li10 O3 2.537717 1_556
Li11 O8 2.068430 1_555
Li11 O9 2.068553 1_555
Li11 O5 2.118613 1_455
Li11 O4 2.119925 1_555
Li11 O23 2.158936 1_555
Li11 O2 2.537532 1_556
Nb0 O3 2.160452 1_466
Nb0 O2 2.161246 1_566
Nb0 O15 2.175123 1_556
Nb0 O14 2.177918 1_456
Nb0 O21 2.194056 1_456
Nb0 O8 2.229155 1_565
Nb1 O2 2.160679 1_566
Nb1 O3 2.161785 1_566
Nb1 O14 2.175254 1_556
Nb1 O15 2.177892 1_556
Nb1 O20 2.193926 1_556
Nb1 O9 2.229135 1_565
Nb2 O0 2.160147 1_455
Nb2 O1 2.161668 1_555
Nb2 O12 2.175235 1_555
Nb2 O13 2.178070 1_555
Nb2 O23 2.193968 1_555
Nb2 O10 2.229434 1_555
Nb3 O1 2.160161 1_555
Nb3 O0 2.161702 1_555
Nb3 O13 2.175487 1_655
Nb3 O12 2.178027 1_555
Nb3 O22 2.193948 1_555
Nb3 O11 2.229300 1_555
Nb4 O7 2.160150 1_655
Nb4 O6 2.161322 1_555
Nb4 O10 2.175233 1_555
Nb4 O11 2.178053 1_555
Nb4 O17 2.193968 1_555
Nb4 O12 2.229457 1_555
Nb5 O6 2.160356 1_555
Nb5 O7 2.161738 1_555
Nb5 O11 2.175509 1_455
Nb5 O10 2.178043 1_555
Nb5 O16 2.193714 1_555
Nb5 O13 2.229363 1_555
Nb6 O4 2.160737 1_655
Nb6 O5 2.161178 1_555
Nb6 O9 2.175340 1_565
Nb6 O8 2.177885 1_665
Nb6 O19 2.193831 1_555
Nb6 O14 2.228703 1_556
Nb7 O5 2.160767 1_555
Nb7 O4 2.161346 1_555
Nb7 O8 2.175241 1_565
Nb7 O9 2.177906 1_565
Nb7 O18 2.193927 1_555
Nb7 O15 2.229213 1_556
Cr0 O23 2.031761 1_655
Cr0 O19 2.031799 1_555
Cr0 O18 2.032124 1_555
Cr0 O22 2.032283 1_555
Cr0 O0 2.045487 1_555
Cr0 O5 2.045495 1_555
Cr1 O16 2.031199 1_555
Cr1 O17 2.031463 1_555
Cr1 O20 2.032633 1_545
Cr1 O21 2.032807 1_545
Cr1 O6 2.044692 1_555
Cr1 O3 2.045831 1_555
Cr2 O23 2.031342 1_555
Cr2 O22 2.031963 1_555
Cr2 O19 2.031975 1_455
Cr2 O18 2.032767 1_555
Cr2 O1 2.045145 1_555
Cr2 O4 2.045496 1_555
Cr3 O17 2.031771 1_455
Cr3 O21 2.032018 1_445
Cr3 O20 2.032151 1_545
Cr3 O16 2.032179 1_555
Cr3 O2 2.045066 1_555
Cr3 O7 2.045707 1_555
