# generated using pymatgen
data_Li2VFeO4
_symmetry_space_group_name_H-M   'P 1'
_cell_length_a   5.93141808
_cell_length_b   5.89441631
_cell_length_c   5.92162723
_cell_angle_alpha   60.20235716
_cell_angle_beta   120.72585424
_cell_angle_gamma   119.79598297
_symmetry_Int_Tables_number   1
_chemical_formula_structural   Li2VFeO4
_chemical_formula_sum   'Li4 V2 Fe2 O8'
_cell_volume   146.01549537
_cell_formula_units_Z   2
loop_
 _symmetry_equiv_pos_site_id
 _symmetry_equiv_pos_as_xyz
  1  'x, y, z'
loop_
 _atom_site_type_symbol
 _atom_site_label
 _atom_site_symmetry_multiplicity
 _atom_site_fract_x
 _atom_site_fract_y
 _atom_site_fract_z
 _atom_site_occupancy
  Li  Li0  1  0.00125200  0.50112600  0.99984100  1
  Li  Li1  1  0.50047900  0.50111700  0.99959000  1
  Li  Li2  1  0.50040900  0.50122800  0.49874900  1
  Li  Li3  1  0.50122300  0.00242000  0.99893800  1
  V  V0  1  0.00046500  0.50065100  0.49965200  1
  V  V1  1  0.00049400  0.00065800  0.49964000  1
  Fe  Fe0  1  0.00083900  0.00052300  0.00036600  1
  Fe  Fe1  1  0.50032200  0.00102700  0.49934900  1
  O  O0  1  0.77293700  0.76616500  0.24551800  1
  O  O1  1  0.24866400  0.76346400  0.26050700  1
  O  O2  1  0.23508200  0.74905100  0.74204200  1
  O  O3  1  0.74848200  0.77612200  0.74599000  1
  O  O4  1  0.25261400  0.22541500  0.25315100  1
  O  O5  1  0.76600700  0.25248700  0.25698100  1
  O  O6  1  0.75238600  0.23798400  0.73867000  1
  O  O7  1  0.22813900  0.23521200  0.75373600  1
loop_
_geom_bond_atom_site_label_1
_geom_bond_atom_site_label_2
_geom_bond_distance
_geom_bond_site_symmetry_2
Li0 O2 2.078869 1_555
Li0 O5 2.081891 1_456
Li0 O1 2.174765 1_556
Li0 O6 2.180016 1_455
Li0 O4 2.194072 1_556
Li0 O3 2.196699 1_455
Li1 O4 2.124393 1_556
Li1 O3 2.124819 1_555
Li1 O0 2.126118 1_556
Li1 O7 2.129324 1_555
Li1 O2 2.134864 1_555
Li1 O5 2.138279 1_556
Li2 O1 2.140820 1_555
Li2 O6 2.145666 1_555
Li2 O4 2.170098 1_555
Li2 O3 2.172786 1_555
Li2 O0 2.222865 1_555
Li2 O7 2.229054 1_555
Li3 O7 2.107178 1_555
Li3 O5 2.111801 1_556
Li3 O0 2.115093 1_546
Li3 O2 2.120763 1_545
Li3 O6 2.164768 1_555
Li3 O1 2.175528 1_546
Fe0 O4 1.987096 1_555
Fe0 O3 1.991896 1_444
Fe0 O0 1.999843 1_445
Fe0 O7 2.003700 1_554
Fe0 O1 2.018506 1_545
Fe0 O6 2.023089 1_454
Fe1 O4 1.964570 1_555
Fe1 O3 1.968583 1_545
Fe1 O6 1.980233 1_555
Fe1 O1 1.980664 1_545
Fe1 O2 2.147829 1_545
Fe1 O5 2.148430 1_555
O0 V1 2.033312 1_665
O0 V0 2.053860 1_655
O1 V0 2.063016 1_555
O2 V1 2.022413 1_565
O2 V0 2.040399 1_555
O3 V1 2.111243 1_665
O4 V1 2.112245 1_555
O5 V1 2.022937 1_655
O5 V0 2.040603 1_655
O6 V0 2.061966 1_655
O7 V1 2.033429 1_555
O7 V0 2.054107 1_555
