# generated using pymatgen
data_Li6V3P8O29
_symmetry_space_group_name_H-M   'P 1'
_cell_length_a   9.80770900
_cell_length_b   9.81656480
_cell_length_c   14.03662708
_cell_angle_alpha   89.54656609
_cell_angle_beta   89.43441008
_cell_angle_gamma   60.17696794
_symmetry_Int_Tables_number   1
_chemical_formula_structural   Li6V3P8O29
_chemical_formula_sum   'Li12 V6 P16 O58'
_cell_volume   1172.38008639
_cell_formula_units_Z   2
loop_
 _symmetry_equiv_pos_site_id
 _symmetry_equiv_pos_as_xyz
  1  'x, y, z'
loop_
 _atom_site_type_symbol
 _atom_site_label
 _atom_site_symmetry_multiplicity
 _atom_site_fract_x
 _atom_site_fract_y
 _atom_site_fract_z
 _atom_site_occupancy
  Li  Li0  1  0.89636000  0.34429600  0.93780300  1
  Li  Li1  1  0.76514700  0.33315800  0.43883700  1
  Li  Li2  1  0.90500600  0.76550800  0.44274600  1
  Li  Li3  1  0.76584900  0.90648500  0.94306500  1
  Li  Li4  1  0.33193100  0.76629700  0.93939100  1
  Li  Li5  1  0.68299400  0.08653100  0.56223700  1
  Li  Li6  1  0.34375200  0.89840800  0.43794100  1
  Li  Li7  1  0.32418500  0.33658200  0.39200400  1
  Li  Li8  1  0.33688400  0.32369200  0.89166300  1
  Li  Li9  1  0.08655900  0.68372500  0.06075500  1
  Li  Li10  1  0.98043700  0.05054400  0.00280300  1
  Li  Li11  1  0.05064600  0.98013400  0.50144900  1
  V  V0  1  0.56076400  0.99810100  0.75211200  1
  V  V1  1  0.43288800  0.00211000  0.24263500  1
  V  V2  1  0.56647200  0.43455500  0.25047400  1
  V  V3  1  0.43872700  0.56270300  0.75027500  1
  V  V4  1  0.00171700  0.43339800  0.74399200  1
  V  V5  1  0.99831500  0.56142900  0.25247500  1
  P  P0  1  0.91349100  0.31381400  0.15653500  1
  P  P1  1  0.77257500  0.31173900  0.65600500  1
  P  P2  1  0.91454700  0.77591400  0.65696100  1
  P  P3  1  0.66977900  0.66414100  0.87059300  1
  P  P4  1  0.66354500  0.67118400  0.37003900  1
  P  P5  1  0.77715200  0.91451600  0.15697400  1
  P  P6  1  0.68028100  0.09014900  0.34122200  1
  P  P7  1  0.31313700  0.77113200  0.15519600  1
  P  P8  1  0.69255000  0.21929800  0.84113800  1
  P  P9  1  0.31308900  0.91297700  0.65542100  1
  P  P10  1  0.21418000  0.08838500  0.83867100  1
  P  P11  1  0.33760500  0.33275800  0.63204100  1
  P  P12  1  0.33298200  0.33633500  0.13170500  1
  P  P13  1  0.08813400  0.21434700  0.33922400  1
  P  P14  1  0.22061400  0.69220800  0.34069700  1
  P  P15  1  0.09092000  0.68100700  0.84056600  1
  O  O0  1  0.99044200  0.20568800  0.41903600  1
  O  O1  1  0.91460300  0.33429800  0.66287100  1
  O  O2  1  0.79972200  0.21196700  0.91862600  1
  O  O3  1  0.74569900  0.33998100  0.17393600  1
  O  O4  1  0.91136300  0.47013400  0.17028200  1
  O  O5  1  0.81642300  0.51696900  0.82603900  1
  O  O6  1  0.91213900  0.62094100  0.66814500  1
  O  O7  1  0.99748300  0.76490100  0.92840900  1
  O  O8  1  0.92021300  0.74678500  0.16438300  1
  O  O9  1  0.66881100  0.51764600  0.33563500  1
  O  O10  1  0.62003300  0.46956800  0.67250900  1
  O  O11  1  0.81582600  0.66966000  0.32767400  1
  O  O12  1  0.67895100  0.66223000  0.97640200  1
  O  O13  1  0.66334500  0.68238800  0.47577200  1
  O  O14  1  0.66817400  0.81556100  0.82886400  1
  O  O15  1  0.46813700  0.61881600  0.17272500  1
  O  O16  1  0.51714900  0.66751500  0.83435000  1
  O  O17  1  0.74717700  0.91936500  0.66550700  1
  O  O18  1  0.78936000  0.00691500  0.24960600  1
  O  O19  1  0.76393200  0.99787200  0.42923700  1
  O  O20  1  0.79079000  0.99060800  0.06700200  1
  O  O21  1  0.62238100  0.91134700  0.16770700  1
  O  O22  1  0.51733400  0.81735400  0.32505200  1
  O  O23  1  0.65762700  0.08180400  0.84702700  1
  O  O24  1  0.46750600  0.91775600  0.66909500  1
  O  O25  1  0.34081700  0.74737200  0.67165300  1
  O  O26  1  0.78418600  0.19473700  0.74095700  1
  O  O27  1  0.76830000  0.23328900  0.56467100  1
  O  O28  1  0.21472900  0.79805400  0.41881200  1
  O  O29  1  0.65808000  0.25768900  0.34524900  1
  O  O30  1  0.51668700  0.10576600  0.32814800  1
  O  O31  1  0.33681000  0.91279100  0.16151000  1
  O  O32  1  0.48743500  0.18447100  0.67308700  1
  O  O33  1  0.36804300  0.09979000  0.83173400  1
  O  O34  1  0.20743400  0.99171200  0.91971500  1
  O  O35  1  0.23577200  0.97972400  0.56188400  1
  O  O36  1  0.19556300  0.01757900  0.73983500  1
  O  O37  1  0.25772100  0.07650100  0.34132900  1
  O  O38  1  0.47783700  0.33151100  0.17691800  1
  O  O39  1  0.53102000  0.37276000  0.83469700  1
  O  O40  1  0.32864300  0.18840400  0.17272300  1
  O  O41  1  0.32735400  0.34339200  0.02539700  1
  O  O42  1  0.34409700  0.33030400  0.52564000  1
  O  O43  1  0.18916900  0.33042000  0.67285200  1
  O  O44  1  0.37551500  0.53055600  0.33337200  1
  O  O45  1  0.33543200  0.47856500  0.67718200  1
  O  O46  1  0.07552100  0.25806000  0.84114500  1
  O  O47  1  0.01855700  0.19533700  0.23920000  1
  O  O48  1  0.97662800  0.23836100  0.06210000  1
  O  O49  1  0.09670700  0.36953900  0.33320500  1
  O  O50  1  0.18299000  0.48548400  0.17408400  1
  O  O51  1  0.10692500  0.51679700  0.82767800  1
  O  O52  1  0.25783800  0.65905200  0.84445900  1
  O  O53  1  0.23125400  0.77025100  0.06449000  1
  O  O54  1  0.19592100  0.78359500  0.24101200  1
  O  O55  1  0.08327800  0.65737400  0.34731400  1
  O  O56  1  0.98920000  0.78935100  0.56614200  1
  O  O57  1  0.00850800  0.78802000  0.74837300  1
loop_
_geom_bond_atom_site_label_1
_geom_bond_atom_site_label_2
_geom_bond_distance
_geom_bond_site_symmetry_2
Li0 O2 1.973171 1_555
Li0 O48 1.982249 1_556
Li0 O46 2.033860 1_655
Li0 O5 2.146941 1_555
Li1 O0 1.941324 1_555
Li1 O27 2.006330 1_555
Li1 O29 2.047840 1_555
Li1 O9 2.134143 1_555
Li2 O56 1.990874 1_555
Li2 O19 2.003139 1_555
Li2 O55 2.026928 1_655
Li2 O11 2.264894 1_555
Li3 O7 1.997456 1_555
Li3 O20 2.000062 1_556
Li3 O23 2.019991 1_565
Li3 O14 2.277586 1_555
Li4 O34 1.942482 1_555
Li4 O53 1.997157 1_556
Li4 O52 2.052874 1_555
Li4 O16 2.152162 1_555
Li5 O27 1.994213 1_555
Li5 O17 2.035501 1_545
Li5 O19 2.045019 1_545
Li5 O32 2.270386 1_555
Li6 O28 1.973498 1_555
Li6 O35 1.982477 1_555
Li6 O37 2.031065 1_565
Li6 O22 2.159089 1_555
Li7 O42 1.885203 1_555
Li7 O49 2.253349 1_555
Li7 O30 2.290340 1_555
Li7 O44 2.340315 1_555
Li8 O41 1.885264 1_556
Li8 O33 2.233402 1_555
Li8 O51 2.290707 1_555
Li8 O39 2.317927 1_555
Li9 O53 1.984751 1_555
Li9 O8 2.030666 1_455
Li9 O7 2.040936 1_454
Li9 O50 2.315627 1_555
Li10 O48 2.012121 1_555
Li10 O2 2.065594 1_554
Li10 O34 2.308844 1_644
Li10 O20 2.380095 1_545
Li11 O35 2.009813 1_555
Li11 O28 2.065185 1_555
Li11 O0 2.293889 1_465
Li11 O56 2.404198 1_455
O0 P13 1.496198 1_655
O1 P1 1.519376 1_555
O1 V4 1.958667 1_655
O2 P8 1.496374 1_555
O3 P0 1.551265 1_555
O3 V2 1.860457 1_555
O4 P0 1.537917 1_555
O4 V5 1.912454 1_555
O5 P3 1.573748 1_555
O5 V4 1.947485 1_655
O6 P2 1.539950 1_555
O6 V4 1.916599 1_655
O7 P15 1.510453 1_655
O8 P5 1.546895 1_555
O8 V5 2.005814 1_555
O9 P4 1.562426 1_555
O9 V2 1.988743 1_555
O10 P1 1.544571 1_555
O10 V3 1.884099 1_555
O11 P4 1.595260 1_555
O11 V5 1.880269 1_555
O12 P3 1.488216 1_555
O13 P4 1.488982 1_555
O14 P3 1.586165 1_555
O14 V0 1.896218 1_555
O15 P7 1.532293 1_555
O15 V2 1.909800 1_555
O16 P3 1.570419 1_555
O16 V3 1.966512 1_555
O17 P2 1.546470 1_555
O17 V0 1.995810 1_555
O18 P6 1.608070 1_555
O18 P5 1.630167 1_545
O19 P6 1.510975 1_565
O20 P5 1.500626 1_555
O21 P5 1.539550 1_555
O21 V1 1.919171 1_565
O22 P4 1.571917 1_555
O22 V1 1.950716 1_565
O23 P8 1.550286 1_555
O23 V0 2.042395 1_545
O24 P9 1.552170 1_555
O24 V0 1.889349 1_555
O25 P9 1.524568 1_555
O25 V3 1.919403 1_555
O26 P1 1.613993 1_555
O26 P8 1.614979 1_555
O27 P1 1.512352 1_555
O28 P14 1.497439 1_555
O29 P6 1.549378 1_555
O29 V2 2.006715 1_555
O30 P6 1.546691 1_555
O30 V1 2.005557 1_555
O31 P7 1.522839 1_555
O31 V1 1.952484 1_565
O32 P11 1.576744 1_555
O32 V0 1.941567 1_545
O33 P10 1.569777 1_555
O33 V0 1.979260 1_545
O34 P10 1.497648 1_565
O35 P9 1.496665 1_555
O36 P10 1.608611 1_555
O36 P9 1.613075 1_545
O37 P13 1.536260 1_555
O37 V1 2.031026 1_555
O38 P12 1.540711 1_555
O38 V2 1.937470 1_555
O39 P8 1.553796 1_555
O39 V3 2.001929 1_555
O40 P12 1.577930 1_555
O40 V1 1.866650 1_555
O41 P12 1.493556 1_555
O42 P11 1.494114 1_555
O43 P11 1.569919 1_555
O43 V4 1.878885 1_555
O44 P14 1.561525 1_555
O44 V2 1.992104 1_555
O45 P11 1.560248 1_555
O45 V3 1.904567 1_555
O46 P10 1.540097 1_555
O46 V4 2.022209 1_555
O47 P0 1.603460 1_455
O47 P13 1.619080 1_555
O48 P0 1.494082 1_555
O49 P13 1.568549 1_555
O49 V5 1.985802 1_455
O50 P12 1.586126 1_555
O50 V5 1.917733 1_455
O51 P15 1.551842 1_555
O51 V4 1.998552 1_555
O52 P15 1.542763 1_555
O52 V3 2.023430 1_555
O53 P7 1.514379 1_555
O54 P14 1.609985 1_555
O54 P7 1.619467 1_555
O55 P14 1.547574 1_555
O55 V5 2.043522 1_455
O56 P2 1.501182 1_555
O57 P15 1.608131 1_555
O57 P2 1.626172 1_455
