# generated using pymatgen
data_Re6Pb6O19
_symmetry_space_group_name_H-M   'P 1'
_cell_length_a   9.42844200
_cell_length_b   9.42978700
_cell_length_c   9.43286300
_cell_angle_alpha   90.00000000
_cell_angle_beta   90.00000000
_cell_angle_gamma   90.00000000
_symmetry_Int_Tables_number   1
_chemical_formula_structural   Re6Pb6O19
_chemical_formula_sum   'Re12 Pb12 O38'
_cell_volume   838.65886831
_cell_formula_units_Z   2
loop_
 _symmetry_equiv_pos_site_id
 _symmetry_equiv_pos_as_xyz
  1  'x, y, z'
loop_
 _atom_site_type_symbol
 _atom_site_label
 _atom_site_symmetry_multiplicity
 _atom_site_fract_x
 _atom_site_fract_y
 _atom_site_fract_z
 _atom_site_occupancy
  Re  Re0  1  0.12006700  0.50000000  0.00000000  1
  Re  Re1  1  0.25046100  0.86936600  0.49938000  1
  Re  Re2  1  0.25046100  0.13063400  0.50062000  1
  Re  Re3  1  0.24969800  0.49914900  0.36953800  1
  Re  Re4  1  0.24969800  0.50085100  0.63046200  1
  Re  Re5  1  0.38132800  0.50000000  0.00000000  1
  Re  Re6  1  0.62006700  0.00000000  0.50000000  1
  Re  Re7  1  0.74969800  0.99914900  0.13046200  1
  Re  Re8  1  0.74969800  0.00085100  0.86953800  1
  Re  Re9  1  0.75046100  0.36936600  0.00062000  1
  Re  Re10  1  0.75046100  0.63063400  0.99938000  1
  Re  Re11  1  0.88132800  0.00000000  0.50000000  1
  Pb  Pb0  1  0.10231700  0.14476800  0.14420900  1
  Pb  Pb1  1  0.10231700  0.85523200  0.85579100  1
  Pb  Pb2  1  0.39265100  0.85221200  0.14600600  1
  Pb  Pb3  1  0.39265100  0.14778800  0.85399400  1
  Pb  Pb4  1  0.48968400  0.24010100  0.24087600  1
  Pb  Pb5  1  0.48968400  0.75989900  0.75912400  1
  Pb  Pb6  1  0.60231700  0.35523200  0.64420900  1
  Pb  Pb7  1  0.60231700  0.64476800  0.35579100  1
  Pb  Pb8  1  0.89265100  0.35221200  0.35399400  1
  Pb  Pb9  1  0.89265100  0.64778800  0.64600600  1
  Pb  Pb10  1  0.98968400  0.25989900  0.74087600  1
  Pb  Pb11  1  0.98968400  0.74010100  0.25912400  1
  O  O0  1  0.03699100  0.85313500  0.50041100  1
  O  O1  1  0.03699100  0.14686500  0.49958900  1
  O  O2  1  0.07887900  0.50000000  0.50000000  1
  O  O3  1  0.10297500  0.49849400  0.21296800  1
  O  O4  1  0.10297500  0.50150600  0.78703200  1
  O  O5  1  0.24943800  0.71377700  0.64657600  1
  O  O6  1  0.24943800  0.28622300  0.35342400  1
  O  O7  1  0.24942100  0.00000000  0.00000000  1
  O  O8  1  0.25088800  0.67071800  0.00017300  1
  O  O9  1  0.25088800  0.32928200  0.99982700  1
  O  O10  1  0.25147500  0.00098800  0.32942900  1
  O  O11  1  0.25147500  0.99901200  0.67057100  1
  O  O12  1  0.24728500  0.28646100  0.64906300  1
  O  O13  1  0.24728500  0.71353900  0.35093700  1
  O  O14  1  0.39854500  0.50334000  0.78604000  1
  O  O15  1  0.39854500  0.49666000  0.21396000  1
  O  O16  1  0.41997600  0.50000000  0.50000000  1
  O  O17  1  0.46436500  0.85083900  0.50279000  1
  O  O18  1  0.46436500  0.14916100  0.49721000  1
  O  O19  1  0.53699100  0.35313500  0.99958900  1
  O  O20  1  0.53699100  0.64686500  0.00041100  1
  O  O21  1  0.57887900  0.00000000  0.00000000  1
  O  O22  1  0.60297500  0.99849400  0.28703200  1
  O  O23  1  0.60297500  0.00150600  0.71296800  1
  O  O24  1  0.74943700  0.78622300  0.14657600  1
  O  O25  1  0.74943700  0.21377700  0.85342400  1
  O  O26  1  0.75088800  0.82928200  0.50017300  1
  O  O27  1  0.75088800  0.17071800  0.49982700  1
  O  O28  1  0.75147500  0.49901200  0.82942900  1
  O  O29  1  0.75147500  0.50098800  0.17057100  1
  O  O30  1  0.74942100  0.50000000  0.50000000  1
  O  O31  1  0.74728500  0.78646100  0.85093700  1
  O  O32  1  0.74728500  0.21353900  0.14906300  1
  O  O33  1  0.89854500  0.00334000  0.71396000  1
  O  O34  1  0.89854500  0.99666000  0.28604000  1
  O  O35  1  0.91997600  0.00000000  0.00000000  1
  O  O36  1  0.96436500  0.35083900  0.99721000  1
  O  O37  1  0.96436500  0.64916100  0.00279000  1
loop_
_geom_bond_atom_site_label_1
_geom_bond_atom_site_label_2
_geom_bond_distance
_geom_bond_site_symmetry_2
O0 Re11 2.017921 1_465
O0 Re1 2.018524 1_555
O0 Pb11 2.552520 1_455
O0 Pb9 2.736381 1_455
O1 Re11 2.017921 1_455
O1 Re2 2.018524 1_555
O1 Pb10 2.552520 1_455
O1 Pb8 2.736381 1_455
O2 Re4 2.026921 1_555
O2 Re3 2.026921 1_555
O2 Pb9 2.630960 1_455
O2 Pb8 2.630960 1_455
O3 Re0 2.015401 1_555
O3 Re3 2.023609 1_555
O3 Pb11 2.553660 1_455
O3 Pb8 2.757682 1_455
O4 Re0 2.015401 1_556
O4 Re4 2.023609 1_555
O4 Pb10 2.553660 1_455
O4 Pb9 2.757682 1_455
O5 Re4 2.013594 1_555
O5 Re1 2.020040 1_555
O5 Pb5 2.539122 1_555
O5 Pb1 2.756458 1_555
O6 Re3 2.013594 1_555
O6 Re2 2.020040 1_555
O6 Pb4 2.539122 1_555
O6 Pb0 2.756458 1_555
O7 Pb1 2.374378 1_544
O7 Pb0 2.374378 1_555
O7 Pb3 2.379633 1_554
O7 Pb2 2.379633 1_545
O8 Re5 2.025855 1_555
O8 Re0 2.028038 1_555
O8 Pb2 2.570585 1_555
O8 Pb1 2.616188 1_554
O9 Re5 2.025855 1_556
O9 Re0 2.028038 1_556
O9 Pb3 2.570585 1_555
O9 Pb0 2.616188 1_556
O10 Re2 2.025421 1_555
O10 Re1 2.027461 1_545
O10 Pb2 2.594909 1_545
O10 Pb0 2.620790 1_555
O11 Re1 2.025421 1_555
O11 Re2 2.027461 1_565
O11 Pb3 2.594909 1_565
O11 Pb1 2.620790 1_555
O12 Re4 2.029379 1_555
O12 Re2 2.029965 1_555
O12 Pb10 2.590704 1_455
O12 Pb3 2.706522 1_555
O13 Re3 2.029379 1_555
O13 Re1 2.029965 1_555
O13 Pb11 2.590704 1_455
O13 Pb2 2.706522 1_555
O14 Re5 2.025018 1_556
O14 Re4 2.030704 1_555
O14 Pb5 2.579894 1_555
O14 Pb6 2.726111 1_555
O15 Re5 2.025018 1_555
O15 Re3 2.030704 1_555
O15 Pb4 2.579894 1_555
O15 Pb7 2.726111 1_555
O16 Re3 2.022870 1_555
O16 Re4 2.022870 1_555
O16 Pb7 2.582563 1_555
O16 Pb6 2.582563 1_555
O17 Re1 2.024590 1_555
O17 Re6 2.033273 1_565
O17 Pb5 2.576610 1_555
O17 Pb7 2.718550 1_555
O18 Re2 2.024590 1_555
O18 Re6 2.033273 1_555
O18 Pb4 2.576610 1_555
O18 Pb6 2.718550 1_555
O19 Re5 2.017921 1_556
O19 Re9 2.018524 1_556
O19 Pb4 2.552520 1_556
O19 Pb3 2.736381 1_555
O20 Re5 2.017921 1_555
O20 Re10 2.018524 1_554
O20 Pb5 2.552520 1_554
O20 Pb2 2.736381 1_555
O21 Re7 2.026921 1_545
O21 Re8 2.026921 1_554
O21 Pb3 2.630960 1_554
O21 Pb2 2.630960 1_545
O22 Re6 2.015401 1_565
O22 Re7 2.023609 1_555
O22 Pb4 2.553660 1_565
O22 Pb2 2.757682 1_555
O23 Re6 2.015401 1_555
O23 Re8 2.023609 1_555
O23 Pb5 2.553660 1_545
O23 Pb3 2.757682 1_555
O24 Re7 2.013594 1_555
O24 Re10 2.020040 1_554
O24 Pb11 2.539130 1_555
O24 Pb7 2.756453 1_555
O25 Re8 2.013594 1_555
O25 Re9 2.020040 1_556
O25 Pb10 2.539130 1_555
O25 Pb6 2.756453 1_555
O26 Re11 2.025855 1_565
O26 Re6 2.028038 1_565
O26 Pb9 2.570585 1_555
O26 Pb7 2.616188 1_555
O27 Re11 2.025855 1_555
O27 Re6 2.028038 1_555
O27 Pb8 2.570585 1_555
O27 Pb6 2.616188 1_555
O28 Re9 2.025421 1_556
O28 Re10 2.027461 1_555
O28 Pb9 2.594909 1_555
O28 Pb6 2.620790 1_555
O29 Re10 2.025421 1_554
O29 Re9 2.027461 1_555
O29 Pb8 2.594909 1_555
O29 Pb7 2.620790 1_555
O30 Pb7 2.374378 1_555
O30 Pb6 2.374378 1_555
O30 Pb9 2.379633 1_555
O30 Pb8 2.379633 1_555
O31 Re8 2.029379 1_565
O31 Re10 2.029965 1_555
O31 Pb5 2.590704 1_555
O31 Pb9 2.706522 1_555
O32 Re7 2.029379 1_545
O32 Re9 2.029965 1_555
O32 Pb4 2.590704 1_555
O32 Pb8 2.706522 1_555
O33 Re11 2.025018 1_555
O33 Re8 2.030704 1_555
O33 Pb10 2.579894 1_555
O33 Pb1 2.726111 1_645
O34 Re11 2.025018 1_565
O34 Re7 2.030704 1_555
O34 Pb11 2.579894 1_555
O34 Pb0 2.726111 1_665
O35 Re8 2.022870 1_554
O35 Re7 2.022870 1_545
O35 Pb0 2.582563 1_655
O35 Pb1 2.582563 1_644
O36 Re9 2.024590 1_556
O36 Re0 2.033273 1_656
O36 Pb10 2.576610 1_555
O36 Pb0 2.718550 1_656
O37 Re10 2.024590 1_554
O37 Re0 2.033273 1_655
O37 Pb11 2.576610 1_555
O37 Pb1 2.718550 1_654
