# generated using pymatgen
data_K6Na2MnH24(WO6)6
_symmetry_space_group_name_H-M   'P 1'
_cell_length_a   9.82044825
_cell_length_b   9.82044825
_cell_length_c   9.82044783
_cell_angle_alpha   84.39755036
_cell_angle_beta   84.39755036
_cell_angle_gamma   84.39755408
_symmetry_Int_Tables_number   1
_chemical_formula_structural   K6Na2MnH24(WO6)6
_chemical_formula_sum   'K6 Na2 Mn1 H24 W6 O36'
_cell_volume   934.35151889
_cell_formula_units_Z   1
loop_
 _symmetry_equiv_pos_site_id
 _symmetry_equiv_pos_as_xyz
  1  'x, y, z'
loop_
 _atom_site_type_symbol
 _atom_site_label
 _atom_site_symmetry_multiplicity
 _atom_site_fract_x
 _atom_site_fract_y
 _atom_site_fract_z
 _atom_site_occupancy
  K  K0  1  0.66701300  0.10149700  0.66701300  1
  K  K1  1  0.89850300  0.33298700  0.33298700  1
  K  K2  1  0.66701300  0.66701300  0.10149700  1
  K  K3  1  0.33298700  0.33298700  0.89850300  1
  K  K4  1  0.10149700  0.66701300  0.66701300  1
  K  K5  1  0.33298700  0.89850300  0.33298700  1
  Na  Na0  1  0.73954900  0.73954800  0.73954900  1
  Na  Na1  1  0.26045200  0.26045100  0.26045100  1
  Mn  Mn0  1  0.00000000  0.00000000  0.00000000  1
  H  H0  1  0.90197700  0.52640500  0.90197700  1
  H  H1  1  0.47359500  0.09802300  0.09802300  1
  H  H2  1  0.51734300  0.15714500  0.39811400  1
  H  H3  1  0.84285500  0.48265700  0.60188600  1
  H  H4  1  0.35250900  0.03698600  0.03698600  1
  H  H5  1  0.96301400  0.64749100  0.96301400  1
  H  H6  1  0.39811400  0.15714500  0.51734300  1
  H  H7  1  0.84285500  0.60188600  0.48265700  1
  H  H8  1  0.60188600  0.48265700  0.84285500  1
  H  H9  1  0.51734300  0.39811400  0.15714500  1
  H  H10  1  0.09802300  0.09802300  0.47359500  1
  H  H11  1  0.03698600  0.03698600  0.35250900  1
  H  H12  1  0.96301400  0.96301400  0.64749100  1
  H  H13  1  0.90197700  0.90197700  0.52640500  1
  H  H14  1  0.39811400  0.51734300  0.15714500  1
  H  H15  1  0.48265700  0.60188600  0.84285500  1
  H  H16  1  0.60188600  0.84285500  0.48265700  1
  H  H17  1  0.15714500  0.39811400  0.51734300  1
  H  H18  1  0.03698600  0.35250900  0.03698600  1
  H  H19  1  0.64749100  0.96301400  0.96301400  1
  H  H20  1  0.48265700  0.84285500  0.60188600  1
  H  H21  1  0.15714500  0.51734300  0.39811400  1
  H  H22  1  0.09802300  0.47359500  0.09802300  1
  H  H23  1  0.52640500  0.90197700  0.90197700  1
  W  W0  1  0.75460000  0.00000000  0.24540000  1
  W  W1  1  0.75460000  0.24540000  0.00000000  1
  W  W2  1  0.24540000  0.00000000  0.75460000  1
  W  W3  1  0.00000000  0.24540000  0.75460000  1
  W  W4  1  0.24540000  0.75460000  0.00000000  1
  W  W5  1  0.00000000  0.75460000  0.24540000  1
  O  O0  1  0.87375000  0.10019900  0.87375000  1
  O  O1  1  0.89980100  0.12625000  0.12625000  1
  O  O2  1  0.70870500  0.12519600  0.36804500  1
  O  O3  1  0.87480400  0.29129500  0.63195500  1
  O  O4  1  0.90948400  0.34805100  0.90948400  1
  O  O5  1  0.65194900  0.09051600  0.09051600  1
  O  O6  1  0.70870500  0.36804500  0.12519600  1
  O  O7  1  0.63195500  0.29129500  0.87480400  1
  O  O8  1  0.89832800  0.62789800  0.89832800  1
  O  O9  1  0.37210200  0.10167200  0.10167200  1
  O  O10  1  0.41695300  0.15627900  0.41695300  1
  O  O11  1  0.84372100  0.58304700  0.58304700  1
  O  O12  1  0.87480400  0.63195500  0.29129500  1
  O  O13  1  0.36804500  0.12519600  0.70870500  1
  O  O14  1  0.12625000  0.12625000  0.89980100  1
  O  O15  1  0.10167200  0.10167200  0.37210200  1
  O  O16  1  0.58304700  0.58304700  0.84372100  1
  O  O17  1  0.89832800  0.89832800  0.62789800  1
  O  O18  1  0.09051600  0.09051600  0.65194900  1
  O  O19  1  0.41695300  0.41695300  0.15627900  1
  O  O20  1  0.90948400  0.90948400  0.34805100  1
  O  O21  1  0.87375000  0.87375000  0.10019900  1
  O  O22  1  0.63195500  0.87480400  0.29129500  1
  O  O23  1  0.12519600  0.36804500  0.70870500  1
  O  O24  1  0.58304700  0.84372100  0.58304700  1
  O  O25  1  0.15627900  0.41695300  0.41695300  1
  O  O26  1  0.10167200  0.37210200  0.10167200  1
  O  O27  1  0.62789800  0.89832800  0.89832800  1
  O  O28  1  0.29129500  0.63195500  0.87480400  1
  O  O29  1  0.36804500  0.70870500  0.12519600  1
  O  O30  1  0.34805100  0.90948400  0.90948400  1
  O  O31  1  0.09051600  0.65194900  0.09051600  1
  O  O32  1  0.29129500  0.87480400  0.63195500  1
  O  O33  1  0.12519600  0.70870500  0.36804500  1
  O  O34  1  0.10019900  0.87375000  0.87375000  1
  O  O35  1  0.12625000  0.89980100  0.12625000  1
loop_
_geom_bond_atom_site_label_1
_geom_bond_atom_site_label_2
_geom_bond_distance
_geom_bond_site_symmetry_2
K0 O3 2.869996 1_555
K0 O7 2.869996 1_555
K0 O27 2.895339 1_545
K0 O17 2.895339 1_545
K0 O2 2.914168 1_555
K0 O13 2.914168 1_555
K0 O24 2.952312 1_545
K0 O0 3.006442 1_555
K1 O2 2.869996 1_555
K1 O6 2.869996 1_555
K1 O26 2.895339 1_655
K1 O15 2.895339 1_655
K1 O3 2.914168 1_555
K1 O12 2.914168 1_555
K1 O25 2.952312 1_655
K1 O1 3.006442 1_555
K2 O12 2.869996 1_555
K2 O22 2.869996 1_555
K2 O8 2.895339 1_554
K2 O27 2.895339 1_554
K2 O6 2.914168 1_555
K2 O29 2.914168 1_555
K2 O16 2.952312 1_554
K2 O21 3.006442 1_555
K3 O13 2.869996 1_555
K3 O23 2.869996 1_555
K3 O9 2.895339 1_556
K3 O26 2.895339 1_556
K3 O28 2.914168 1_555
K3 O7 2.914168 1_555
K3 O19 2.952312 1_556
K3 O14 3.006442 1_555
K4 O32 2.869996 1_555
K4 O28 2.869996 1_555
K4 O8 2.895339 1_455
K4 O17 2.895339 1_455
K4 O33 2.914168 1_555
K4 O23 2.914168 1_555
K4 O11 2.952312 1_455
K4 O34 3.006442 1_555
K5 O33 2.869996 1_555
K5 O29 2.869996 1_555
K5 O9 2.895339 1_565
K5 O15 2.895339 1_565
K5 O32 2.914168 1_555
K5 O22 2.914168 1_555
K5 O10 2.952312 1_565
K5 O35 3.006442 1_555
Na0 O16 2.370232 1_555
Na0 O11 2.370232 1_555
Na0 O24 2.370241 1_555
Na0 O8 2.423224 1_555
Na0 O17 2.423234 1_555
Na0 O27 2.423234 1_555
Na1 O19 2.370232 1_555
Na1 O10 2.370232 1_555
Na1 O25 2.370241 1_555
Na1 O9 2.423224 1_555
Na1 O15 2.423234 1_555
Na1 O26 2.423234 1_555
Mn0 O21 1.966302 1_445
Mn0 O14 1.966302 1_554
Mn0 O34 1.966303 1_544
Mn0 O0 1.966303 1_454
Mn0 O1 1.966303 1_455
Mn0 O35 1.966303 1_545
H0 O8 0.991108 1_555
H0 O4 1.740493 1_555
H1 O9 0.991108 1_555
H1 O5 1.740493 1_555
H2 O10 0.985884 1_555
H3 O11 0.985884 1_555
H4 O9 0.985199 1_555
H5 O8 0.985199 1_555
H6 O10 0.985884 1_555
H7 O11 0.985884 1_555
H8 O16 0.985884 1_555
H9 O19 0.985884 1_555
H10 O15 0.991108 1_555
H10 O18 1.740493 1_555
H11 O15 0.985199 1_555
H12 O17 0.985199 1_555
H13 O17 0.991108 1_555
H13 O20 1.740493 1_555
H14 O19 0.985884 1_555
H15 O16 0.985884 1_555
H16 O24 0.985884 1_555
H17 O25 0.985884 1_555
H18 O26 0.985199 1_555
H19 O27 0.985199 1_555
H20 O24 0.985884 1_555
H21 O25 0.985884 1_555
H22 O26 0.991108 1_555
H22 O31 1.740493 1_555
H23 O27 0.991108 1_555
H23 O30 1.740493 1_555
O0 W3 2.162357 1_655
O0 W1 2.162357 1_556
O1 W0 2.162357 1_555
O1 W1 2.162357 1_555
O2 W0 1.800099 1_555
O3 W3 1.800099 1_655
O4 W1 1.995080 1_556
O4 W3 1.995080 1_655
O5 W1 1.995080 1_555
O5 W0 1.995080 1_555
O6 W1 1.800099 1_555
O7 W1 1.800099 1_556
O12 W5 1.800099 1_655
O13 W2 1.800099 1_555
O14 W3 2.162357 1_555
O14 W2 2.162357 1_555
O18 W3 1.995080 1_555
O18 W2 1.995080 1_555
O20 W0 1.995080 1_565
O20 W5 1.995080 1_655
O21 W0 2.162357 1_565
O21 W5 2.162357 1_655
O22 W0 1.800099 1_565
O23 W3 1.800099 1_555
O28 W4 1.800099 1_556
O29 W4 1.800099 1_555
O30 W4 1.995080 1_556
O30 W2 1.995080 1_565
O31 W4 1.995080 1_555
O31 W5 1.995080 1_555
O32 W2 1.800099 1_565
O33 W5 1.800099 1_555
O34 W2 2.162357 1_565
O34 W4 2.162357 1_556
O35 W5 2.162357 1_555
O35 W4 2.162357 1_555
