# generated using pymatgen
data_LiV4O5F7
_symmetry_space_group_name_H-M   'P 1'
_cell_length_a   5.37875200
_cell_length_b   9.09816675
_cell_length_c   9.12873733
_cell_angle_alpha   69.83469069
_cell_angle_beta   88.00557269
_cell_angle_gamma   87.64553037
_symmetry_Int_Tables_number   1
_chemical_formula_structural   LiV4O5F7
_chemical_formula_sum   'Li2 V8 O10 F14'
_cell_volume   418.89179218
_cell_formula_units_Z   2
loop_
 _symmetry_equiv_pos_site_id
 _symmetry_equiv_pos_as_xyz
  1  'x, y, z'
loop_
 _atom_site_type_symbol
 _atom_site_label
 _atom_site_symmetry_multiplicity
 _atom_site_fract_x
 _atom_site_fract_y
 _atom_site_fract_z
 _atom_site_occupancy
  Li  Li0  1  0.97397400  0.37788400  0.86990300  1
  Li  Li1  1  0.51224800  0.88574000  0.88009400  1
  V  V0  1  0.99768000  0.48332500  0.49425900  1
  V  V1  1  0.02901900  0.24019400  0.25486800  1
  V  V2  1  0.45827200  0.25009600  0.74880900  1
  V  V3  1  0.02276600  0.01925000  0.00125900  1
  V  V4  1  0.52904000  0.74010600  0.25566900  1
  V  V5  1  0.95992500  0.74928700  0.74894700  1
  V  V6  1  0.52022900  0.52044600  0.00108500  1
  V  V7  1  0.49758800  0.98290200  0.49515700  1
  O  O0  1  0.00006100  0.17558500  0.06901000  1
  O  O1  1  0.28062600  0.12856800  0.33473000  1
  O  O2  1  0.99873200  0.34105500  0.41535500  1
  O  O3  1  0.30774700  0.06757700  0.87504800  1
  O  O4  1  0.78132300  0.62865300  0.33464400  1
  O  O5  1  0.20094600  0.37237800  0.68068000  1
  O  O6  1  0.50015800  0.67625500  0.06954800  1
  O  O7  1  0.80642700  0.56813200  0.87491600  1
  O  O8  1  0.49921100  0.84098300  0.41545100  1
  O  O9  1  0.70252300  0.87263600  0.68042200  1
  F  F0  1  0.79261600  0.08199000  0.37457000  1
  F  F1  1  0.79745500  0.12753300  0.82519200  1
  F  F2  1  0.50103700  0.16699300  0.57889400  1
  F  F3  1  0.71028100  0.37271400  0.17097000  1
  F  F4  1  0.71016500  0.41741000  0.63828500  1
  F  F5  1  0.20185700  0.42284200  0.11389200  1
  F  F6  1  0.50168200  0.32738000  0.92448500  1
  F  F7  1  0.29359300  0.58137300  0.37495100  1
  F  F8  1  0.69921400  0.92302400  0.11222600  1
  F  F9  1  0.29661600  0.62768100  0.82530400  1
  F  F10  1  0.00099200  0.66647600  0.57840900  1
  F  F11  1  0.20977300  0.87198700  0.17187200  1
  F  F12  1  0.20809400  0.91785100  0.63607800  1
  F  F13  1  0.99304800  0.82832600  0.92511000  1
loop_
_geom_bond_atom_site_label_1
_geom_bond_atom_site_label_2
_geom_bond_distance
_geom_bond_site_symmetry_2
Li0 O7 1.932321 1_555
Li0 O5 2.093938 1_655
Li0 O0 2.097855 1_656
Li1 O3 1.936617 1_565
Li1 O6 2.087486 1_556
Li1 O9 2.096195 1_555
O0 V3 1.734225 1_555
O0 V1 1.990465 1_555
O1 V1 1.685140 1_555
O1 V7 1.979072 1_545
O2 V0 1.684116 1_555
O2 V1 1.978127 1_655
O3 V3 1.858374 1_556
O3 V2 1.862048 1_555
O4 V4 1.685337 1_555
O4 V0 1.972035 1_555
O5 V2 1.731070 1_555
O5 V0 1.991184 1_455
O6 V6 1.733592 1_555
O6 V4 1.988638 1_555
O7 V5 1.859972 1_555
O7 V6 1.863182 1_556
O8 V7 1.686144 1_555
O8 V4 1.972365 1_555
O9 V5 1.736722 1_555
O9 V7 1.987684 1_555
F0 V1 1.962635 1_655
F0 V7 1.963274 1_545
F1 V3 1.992067 1_656
F1 V2 2.107920 1_555
F2 V2 1.949351 1_555
F2 V7 2.067895 1_545
F3 V6 1.953702 1_555
F3 V1 2.065036 1_655
F4 V0 1.967463 1_555
F4 V2 2.046040 1_555
F4 Li0 2.501209 1_555
F5 V1 1.962421 1_555
F5 V6 2.037942 1_555
F6 V2 1.984387 1_555
F6 V6 2.109616 1_556
F7 V0 1.959959 1_455
F7 V4 1.960921 1_555
F8 V4 1.965034 1_555
F8 V3 2.052390 1_665
F8 Li1 2.507750 1_554
F9 V6 1.982917 1_556
F9 V5 2.093116 1_455
F10 V5 1.952215 1_455
F10 V0 2.062291 1_455
F11 V3 1.947363 1_565
F11 V4 2.064740 1_555
F12 V7 1.959887 1_555
F12 V5 2.044120 1_455
F13 V5 1.990672 1_555
F13 V3 2.095047 1_666
