# generated using pymatgen
data_Li3Co2(SiO4)2
_symmetry_space_group_name_H-M   'P 1'
_cell_length_a   5.24083200
_cell_length_b   5.24256679
_cell_length_c   6.48466291
_cell_angle_alpha   90.64270183
_cell_angle_beta   90.66155249
_cell_angle_gamma   91.44092703
_symmetry_Int_Tables_number   1
_chemical_formula_structural   Li3Co2(SiO4)2
_chemical_formula_sum   'Li3 Co2 Si2 O8'
_cell_volume   178.08876992
_cell_formula_units_Z   1
loop_
 _symmetry_equiv_pos_site_id
 _symmetry_equiv_pos_as_xyz
  1  'x, y, z'
loop_
 _atom_site_type_symbol
 _atom_site_label
 _atom_site_symmetry_multiplicity
 _atom_site_fract_x
 _atom_site_fract_y
 _atom_site_fract_z
 _atom_site_occupancy
  Li  Li0  1  0.81905300  0.18089300  0.49526800  1
  Li  Li1  1  0.32338800  0.31162500  0.73307000  1
  Li  Li2  1  0.16923600  0.82836200  0.49349800  1
  Co  Co0  1  0.81011900  0.19269800  0.00466000  1
  Co  Co1  1  0.19977200  0.80913800  0.00599000  1
  Si  Si0  1  0.69283600  0.68593800  0.74434600  1
  Si  Si1  1  0.32908900  0.32147800  0.25696400  1
  O  O0  1  0.83566500  0.81587600  0.95531100  1
  O  O1  1  0.70884300  0.37138800  0.75568400  1
  O  O2  1  0.80909300  0.81661600  0.54619700  1
  O  O3  1  0.63430700  0.27982500  0.24750400  1
  O  O4  1  0.37392600  0.73120200  0.76639900  1
  O  O5  1  0.20153500  0.20731000  0.46279100  1
  O  O6  1  0.25996400  0.62978700  0.23770600  1
  O  O7  1  0.19976200  0.18449200  0.03753100  1
loop_
_geom_bond_atom_site_label_1
_geom_bond_atom_site_label_2
_geom_bond_distance
_geom_bond_site_symmetry_2
Li0 O2 1.941252 1_545
Li0 O3 1.948298 1_555
Li0 O5 2.019428 1_655
Li0 O1 2.048517 1_555
Li1 O5 1.927131 1_555
Li1 O1 2.039801 1_555
Li1 O7 2.190734 1_556
Li1 O4 2.216773 1_555
Li2 O2 1.921603 1_455
Li2 O5 2.001965 1_565
Li2 O6 2.016333 1_555
Li2 O4 2.132098 1_555
Co0 O3 1.891039 1_555
Co0 O1 1.950677 1_554
Co0 O0 2.005766 1_544
Co0 O7 2.052277 1_655
Co1 O6 1.810269 1_555
Co1 O4 1.857720 1_554
Co1 O0 1.933840 1_454
Co1 O7 1.976137 1_565
O0 Si0 1.680978 1_555
O1 Si0 1.655700 1_555
O2 Si0 1.583809 1_555
O3 Si1 1.621632 1_555
O4 Si0 1.701438 1_555
O5 Si1 1.614000 1_555
O6 Si1 1.671016 1_555
O7 Si1 1.711796 1_555
