# generated using pymatgen
data_BaZnGeO4
_symmetry_space_group_name_H-M   'P 1'
_cell_length_a   9.33656880
_cell_length_b   9.33656880
_cell_length_c   9.21648900
_cell_angle_alpha   90.00000000
_cell_angle_beta   90.00000000
_cell_angle_gamma   120.00000569
_symmetry_Int_Tables_number   1
_chemical_formula_structural   BaZnGeO4
_chemical_formula_sum   'Ba6 Zn6 Ge6 O24'
_cell_volume   695.77804371
_cell_formula_units_Z   6
loop_
 _symmetry_equiv_pos_site_id
 _symmetry_equiv_pos_as_xyz
  1  'x, y, z'
loop_
 _atom_site_type_symbol
 _atom_site_label
 _atom_site_symmetry_multiplicity
 _atom_site_fract_x
 _atom_site_fract_y
 _atom_site_fract_z
 _atom_site_occupancy
  Ba  Ba0  1  0.33333300  0.66666700  0.21967600  1
  Ba  Ba1  1  0.00000000  0.00000000  0.22627500  1
  Ba  Ba2  1  0.00000000  0.00000000  0.72627500  1
  Ba  Ba3  1  0.33333300  0.66666700  0.72095300  1
  Ba  Ba4  1  0.66666700  0.33333300  0.71967600  1
  Ba  Ba5  1  0.66666700  0.33333300  0.22095300  1
  Zn  Zn0  1  0.00412100  0.67133800  0.02134300  1
  Zn  Zn1  1  0.32866200  0.33278300  0.02134300  1
  Zn  Zn2  1  0.66721700  0.99587900  0.02134300  1
  Zn  Zn3  1  0.33278300  0.00412100  0.52134300  1
  Zn  Zn4  1  0.67133800  0.66721700  0.52134300  1
  Zn  Zn5  1  0.99587900  0.32866200  0.52134300  1
  Ge  Ge0  1  0.00438300  0.66778700  0.42713200  1
  Ge  Ge1  1  0.66340400  0.99561700  0.42713200  1
  Ge  Ge2  1  0.33221300  0.33659600  0.42713200  1
  Ge  Ge3  1  0.66778700  0.66340400  0.92713200  1
  Ge  Ge4  1  0.33659600  0.00438300  0.92713200  1
  Ge  Ge5  1  0.99561700  0.33221300  0.92713200  1
  O  O0  1  0.12609500  0.90922100  0.98095500  1
  O  O1  1  0.01191600  0.67307900  0.23553100  1
  O  O2  1  0.21322300  0.76456400  0.48546800  1
  O  O3  1  0.11418200  0.54308100  0.97839000  1
  O  O4  1  0.42889900  0.88581800  0.97839000  1
  O  O5  1  0.09077900  0.21687300  0.98095500  1
  O  O6  1  0.23543600  0.44865900  0.48546800  1
  O  O7  1  0.32692100  0.33883700  0.23553100  1
  O  O8  1  0.66116300  0.98808400  0.23553100  1
  O  O9  1  0.21687300  0.12609500  0.48095500  1
  O  O10  1  0.55134100  0.78677700  0.48546800  1
  O  O11  1  0.45691900  0.57110100  0.97839000  1
  O  O12  1  0.54308100  0.42889900  0.47839000  1
  O  O13  1  0.44865900  0.21322300  0.98546800  1
  O  O14  1  0.78312700  0.87390500  0.98095500  1
  O  O15  1  0.33883700  0.01191600  0.73553100  1
  O  O16  1  0.67307900  0.66116300  0.73553100  1
  O  O17  1  0.76456400  0.55134100  0.98546800  1
  O  O18  1  0.90922100  0.78312700  0.48095500  1
  O  O19  1  0.57110100  0.11418200  0.47839000  1
  O  O20  1  0.88581800  0.45691900  0.47839000  1
  O  O21  1  0.78677700  0.23543600  0.98546800  1
  O  O22  1  0.98808400  0.32692100  0.73553100  1
  O  O23  1  0.87390500  0.09077900  0.48095500  1
loop_
_geom_bond_atom_site_label_1
_geom_bond_atom_site_label_2
_geom_bond_distance
_geom_bond_site_symmetry_2
Ba0 O4 2.846470 1_554
Ba0 O3 2.846470 1_554
Ba0 O11 2.846475 1_554
Ba0 O2 3.019749 1_555
Ba0 O10 3.019754 1_555
Ba0 O6 3.019754 1_555
Ba0 O1 3.034828 1_555
Ba0 O8 3.034833 1_555
Ba0 O7 3.034838 1_555
Ba1 O5 2.866053 1_554
Ba1 O14 2.866054 1_444
Ba1 O0 2.866059 1_544
Ba1 O18 2.934587 1_445
Ba1 O9 2.934587 1_555
Ba1 O23 2.934592 1_455
Ba1 O7 3.110611 1_555
Ba1 O8 3.110611 1_445
Ba1 O1 3.110611 1_545
Ba2 O18 2.866053 1_445
Ba2 O9 2.866054 1_555
Ba2 O23 2.866059 1_455
Ba2 O5 2.934587 1_555
Ba2 O14 2.934587 1_445
Ba2 O0 2.934592 1_545
Ba2 O16 3.110611 1_445
Ba2 O15 3.110611 1_555
Ba2 O22 3.110611 1_455
Ba3 O2 2.797929 1_555
Ba3 O10 2.797933 1_555
Ba3 O6 2.797934 1_555
Ba3 O4 2.964220 1_555
Ba3 O3 2.964220 1_555
Ba3 O11 2.964225 1_555
Ba3 O15 3.200878 1_565
Ba3 O22 3.200882 1_455
Ba3 O16 3.200887 1_555
Ba4 O19 2.846470 1_555
Ba4 O20 2.846470 1_555
Ba4 O12 2.846475 1_555
Ba4 O21 3.019749 1_555
Ba4 O13 3.019754 1_555
Ba4 O17 3.019754 1_555
Ba4 O22 3.034828 1_555
Ba4 O15 3.034833 1_555
Ba4 O16 3.034838 1_555
Ba5 O21 2.797929 1_554
Ba5 O13 2.797933 1_554
Ba5 O17 2.797934 1_554
Ba5 O19 2.964220 1_555
Ba5 O20 2.964220 1_555
Ba5 O12 2.964225 1_555
Ba5 O8 3.200878 1_545
Ba5 O1 3.200882 1_655
Ba5 O7 3.200887 1_555
Ge0 O1 1.766996 1_555
Ge0 O20 1.773497 1_455
Ge0 O2 1.773583 1_555
Ge0 O18 1.775372 1_455
Ge1 O8 1.766996 1_555
Ge1 O19 1.773497 1_565
Ge1 O10 1.773583 1_555
Ge1 O23 1.775364 1_565
Ge2 O7 1.766996 1_555
Ge2 O12 1.773497 1_555
Ge2 O6 1.773583 1_555
Ge2 O9 1.775365 1_555
Ge3 O16 1.766996 1_555
Ge3 O11 1.773497 1_555
Ge3 O17 1.773583 1_555
Ge3 O14 1.775365 1_555
Ge4 O15 1.766996 1_555
Ge4 O4 1.773497 1_545
Ge4 O13 1.773583 1_555
Ge4 O0 1.775364 1_545
Ge5 O22 1.766996 1_555
Ge5 O3 1.773497 1_655
Ge5 O21 1.773583 1_555
Ge5 O5 1.775372 1_655
O0 Zn0 1.959344 1_556
O1 Zn0 1.975170 1_555
O2 Zn3 1.965006 1_565
O3 Zn0 1.969046 1_556
O4 Zn2 1.969046 1_556
O5 Zn1 1.959344 1_556
O6 Zn5 1.965006 1_455
O7 Zn1 1.975170 1_555
O8 Zn2 1.975170 1_555
O9 Zn3 1.959352 1_555
O10 Zn4 1.965006 1_555
O11 Zn1 1.969046 1_556
O12 Zn4 1.969046 1_555
O13 Zn1 1.965006 1_556
O14 Zn2 1.959352 1_556
O15 Zn3 1.975170 1_555
O16 Zn4 1.975170 1_555
O17 Zn0 1.965006 1_656
O18 Zn4 1.959344 1_555
O19 Zn3 1.969046 1_555
O20 Zn5 1.969046 1_555
O21 Zn2 1.965006 1_546
O22 Zn5 1.975170 1_555
O23 Zn5 1.959344 1_555
