# generated using pymatgen
data_LiFe2P2HO8
_symmetry_space_group_name_H-M   'P 1'
_cell_length_a   5.16969996
_cell_length_b   8.48737162
_cell_length_c   8.76707421
_cell_angle_alpha   94.00748179
_cell_angle_beta   97.20858850
_cell_angle_gamma   106.44626429
_symmetry_Int_Tables_number   1
_chemical_formula_structural   LiFe2P2HO8
_chemical_formula_sum   'Li2 Fe4 P4 H2 O16'
_cell_volume   363.76648635
_cell_formula_units_Z   2
loop_
 _symmetry_equiv_pos_site_id
 _symmetry_equiv_pos_as_xyz
  1  'x, y, z'
loop_
 _atom_site_type_symbol
 _atom_site_label
 _atom_site_symmetry_multiplicity
 _atom_site_fract_x
 _atom_site_fract_y
 _atom_site_fract_z
 _atom_site_occupancy
  Li  Li0  1  0.35987500  0.16395300  0.65888300  1
  Li  Li1  1  0.64026900  0.83600600  0.34103400  1
  Fe  Fe0  1  0.76797500  0.90568200  0.72660900  1
  Fe  Fe1  1  0.69948100  0.38375200  0.10069900  1
  Fe  Fe2  1  0.23197400  0.09421000  0.27354200  1
  Fe  Fe3  1  0.30053800  0.61641100  0.89926200  1
  P  P0  1  0.85218500  0.24234100  0.43112300  1
  P  P1  1  0.14780300  0.75752700  0.56884100  1
  P  P2  1  0.14137700  0.24176200  0.93195500  1
  P  P3  1  0.85865700  0.75838500  0.06809100  1
  H  H0  1  0.88389000  0.42706900  0.62659600  1
  H  H1  1  0.11605400  0.57275200  0.37337600  1
  O  O0  1  0.60741700  0.09001600  0.36624100  1
  O  O1  1  0.39261600  0.90982800  0.63375200  1
  O  O2  1  0.09875600  0.08684700  0.81687400  1
  O  O3  1  0.90113800  0.91341100  0.18305100  1
  O  O4  1  0.86912800  0.27047400  0.95564700  1
  O  O5  1  0.13091600  0.72969800  0.04437500  1
  O  O6  1  0.76991500  0.30990200  0.58819200  1
  O  O7  1  0.23005600  0.68991400  0.41178800  1
  O  O8  1  0.11322000  0.18938300  0.46904300  1
  O  O9  1  0.88683000  0.81056800  0.53091900  1
  O  O10  1  0.89762300  0.38028200  0.32296900  1
  O  O11  1  0.10226700  0.61959900  0.67700300  1
  O  O12  1  0.30674000  0.22544300  0.09071000  1
  O  O13  1  0.69323100  0.77461900  0.90929800  1
  O  O14  1  0.33480200  0.38694800  0.86414400  1
  O  O15  1  0.66526600  0.61321800  0.13598400  1
loop_
_geom_bond_atom_site_label_1
_geom_bond_atom_site_label_2
_geom_bond_distance
_geom_bond_site_symmetry_2
Li0 O8 2.028797 1_555
Li0 O2 2.065141 1_555
Li0 O1 2.208814 1_545
Li0 O6 2.315641 1_555
Li0 O14 2.560982 1_555
Li1 O9 2.028845 1_555
Li1 O3 2.064705 1_555
Li1 O0 2.208084 1_565
Li1 O7 2.316944 1_555
Li1 O15 2.558392 1_555
Fe0 O2 1.978941 1_665
Fe0 O1 2.018836 1_555
Fe0 O13 2.028037 1_555
Fe0 O9 2.079529 1_555
Fe1 O4 1.974120 1_554
Fe1 O15 2.011111 1_555
Fe1 O12 2.080761 1_555
Fe1 O10 2.090827 1_555
Fe2 O3 1.978016 1_445
Fe2 O0 2.018971 1_555
Fe2 O12 2.029914 1_555
Fe2 O8 2.078088 1_555
Fe3 O5 1.974434 1_556
Fe3 O14 2.011041 1_555
Fe3 O13 2.080200 1_555
Fe3 O11 2.090474 1_555
H0 O6 1.010487 1_555
H0 O11 1.693898 1_655
H1 O7 1.010503 1_555
H1 O10 1.693613 1_455
O0 P0 1.544808 1_555
O1 P1 1.544867 1_555
O2 P2 1.545957 1_555
O3 P3 1.546198 1_555
O4 P2 1.530990 1_655
O5 P3 1.531004 1_455
O6 P0 1.606434 1_555
O7 P1 1.606435 1_555
O8 P0 1.544465 1_455
O9 P1 1.544559 1_655
O10 P0 1.542810 1_555
O11 P1 1.542782 1_555
O12 P2 1.575607 1_554
O13 P3 1.575811 1_556
O14 P2 1.557450 1_555
O15 P3 1.557638 1_555
