# generated using pymatgen
data_Li5FeO3F2
_symmetry_space_group_name_H-M   'P 1'
_cell_length_a   5.34125710
_cell_length_b   5.34125710
_cell_length_c   6.04861763
_cell_angle_alpha   70.65149356
_cell_angle_beta   70.65149356
_cell_angle_gamma   42.61820997
_symmetry_Int_Tables_number   1
_chemical_formula_structural   Li5FeO3F2
_chemical_formula_sum   'Li5 Fe1 O3 F2'
_cell_volume   109.20465777
_cell_formula_units_Z   1
loop_
 _symmetry_equiv_pos_site_id
 _symmetry_equiv_pos_as_xyz
  1  'x, y, z'
loop_
 _atom_site_type_symbol
 _atom_site_label
 _atom_site_symmetry_multiplicity
 _atom_site_fract_x
 _atom_site_fract_y
 _atom_site_fract_z
 _atom_site_occupancy
  Li  Li0  1  0.31609200  0.31609200  0.86430400  1
  Li  Li1  1  0.31566700  0.31566700  0.34946800  1
  Li  Li2  1  0.71072100  0.71072100  0.68891500  1
  Li  Li3  1  0.68478800  0.68478800  0.13173000  1
  Li  Li4  1  0.01968000  0.01968000  0.52832400  1
  Fe  Fe0  1  0.00383900  0.00383900  0.97657200  1
  O  O0  1  0.85828400  0.85828400  0.83444200  1
  O  O1  1  0.50610100  0.50610100  0.05727200  1
  O  O2  1  0.16700500  0.16700500  0.68547400  1
  F  F0  1  0.83693800  0.83693800  0.34646700  1
  F  F1  1  0.16335700  0.16335700  0.20643600  1
loop_
_geom_bond_atom_site_label_1
_geom_bond_atom_site_label_2
_geom_bond_distance
_geom_bond_site_symmetry_2
Li0 O0 1.980534 1_455
Li0 O0 1.980534 1_545
Li0 O2 2.124386 1_555
Li0 O1 2.551094 1_556
Li1 O2 2.044704 1_555
Li1 O1 2.081620 1_555
Li2 O0 1.962387 1_555
Li2 O2 1.990898 1_565
Li2 O2 1.990898 1_655
Li2 O1 2.425712 1_556
Li3 O1 1.983663 1_555
Li3 O0 2.001622 1_554
Li4 O0 1.973085 1_445
Li4 O2 2.011107 1_555
Fe0 O2 1.924452 1_555
Fe0 O0 1.929568 1_445
Fe0 O1 2.003523 1_456
Fe0 O1 2.003523 1_546
F0 Li1 1.951903 1_565
F0 Li1 1.951903 1_655
F0 Li2 2.004425 1_555
F0 Fe0 2.263081 1_664
F0 Li3 2.319222 1_555
F0 Li4 2.437303 1_665
F1 Li4 1.963472 1_555
F1 Li3 1.987119 1_455
F1 Li3 1.987119 1_545
F1 Li1 1.994723 1_555
F1 Li0 2.087039 1_554
F1 Fe0 2.454251 1_554
