# generated using pymatgen
data_CuH4C2S2N2Cl
_symmetry_space_group_name_H-M   'P 1'
_cell_length_a   6.95099700
_cell_length_b   11.56708600
_cell_length_c   15.57342400
_cell_angle_alpha   90.00000000
_cell_angle_beta   90.00000000
_cell_angle_gamma   90.00000000
_symmetry_Int_Tables_number   1
_chemical_formula_structural   CuH4C2S2N2Cl
_chemical_formula_sum   'Cu8 H32 C16 S16 N16 Cl8'
_cell_volume   1252.14658504
_cell_formula_units_Z   8
loop_
 _symmetry_equiv_pos_site_id
 _symmetry_equiv_pos_as_xyz
  1  'x, y, z'
loop_
 _atom_site_type_symbol
 _atom_site_label
 _atom_site_symmetry_multiplicity
 _atom_site_fract_x
 _atom_site_fract_y
 _atom_site_fract_z
 _atom_site_occupancy
  Cu  Cu0  1  0.11498200  0.25574400  0.66798900  1
  Cu  Cu1  1  0.38501800  0.74425600  0.16798900  1
  Cu  Cu2  1  0.61498200  0.24425600  0.33201100  1
  Cu  Cu3  1  0.88501800  0.75574400  0.83201100  1
  Cu  Cu4  1  0.88501800  0.74425600  0.33201100  1
  Cu  Cu5  1  0.61498200  0.25574400  0.83201100  1
  Cu  Cu6  1  0.38501800  0.75574400  0.66798900  1
  Cu  Cu7  1  0.11498200  0.24425600  0.16798900  1
  H  H0  1  0.02147500  0.43185200  0.90598700  1
  H  H1  1  0.47852500  0.56814800  0.40598700  1
  H  H2  1  0.52147500  0.06814800  0.09401300  1
  H  H3  1  0.97852500  0.93185200  0.59401300  1
  H  H4  1  0.97852500  0.56814800  0.09401300  1
  H  H5  1  0.52147500  0.43185200  0.59401300  1
  H  H6  1  0.47852500  0.93185200  0.90598700  1
  H  H7  1  0.02147500  0.06814800  0.40598700  1
  H  H8  1  0.07345600  0.41942300  0.79487100  1
  H  H9  1  0.42654400  0.58057700  0.29487100  1
  H  H10  1  0.57345600  0.08057700  0.20512900  1
  H  H11  1  0.92654400  0.91942300  0.70512900  1
  H  H12  1  0.92654400  0.58057700  0.20512900  1
  H  H13  1  0.57345600  0.41942300  0.70512900  1
  H  H14  1  0.42654400  0.91942300  0.79487100  1
  H  H15  1  0.07345600  0.08057700  0.29487100  1
  H  H16  1  0.15730200  0.07277300  0.91864100  1
  H  H17  1  0.34269800  0.92722700  0.41864100  1
  H  H18  1  0.65730200  0.42722700  0.08135900  1
  H  H19  1  0.84269800  0.57277300  0.58135900  1
  H  H20  1  0.84269800  0.92722700  0.08135900  1
  H  H21  1  0.65730200  0.07277300  0.58135900  1
  H  H22  1  0.34269800  0.57277300  0.91864100  1
  H  H23  1  0.15730200  0.42722700  0.41864100  1
  H  H24  1  0.15837400  0.09080200  0.03196500  1
  H  H25  1  0.34162600  0.90919800  0.53196500  1
  H  H26  1  0.65837400  0.40919800  0.96803500  1
  H  H27  1  0.84162600  0.59080200  0.46803500  1
  H  H28  1  0.84162600  0.90919800  0.96803500  1
  H  H29  1  0.65837400  0.09080200  0.46803500  1
  H  H30  1  0.34162600  0.59080200  0.03196500  1
  H  H31  1  0.15837400  0.40919800  0.53196500  1
  C  C0  1  0.15834100  0.28373300  0.87060700  1
  C  C1  1  0.34165900  0.71626700  0.37060700  1
  C  C2  1  0.65834100  0.21626700  0.12939300  1
  C  C3  1  0.84165900  0.78373300  0.62939300  1
  C  C4  1  0.84165900  0.71626700  0.12939300  1
  C  C5  1  0.65834100  0.28373300  0.62939300  1
  C  C6  1  0.34165900  0.78373300  0.87060700  1
  C  C7  1  0.15834100  0.21626700  0.37060700  1
  C  C8  1  0.16102800  0.23931500  0.96100000  1
  C  C9  1  0.33897200  0.76068500  0.46100000  1
  C  C10  1  0.66102800  0.26068500  0.03900000  1
  C  C11  1  0.83897200  0.73931500  0.53900000  1
  C  C12  1  0.83897200  0.76068500  0.03900000  1
  C  C13  1  0.66102800  0.23931500  0.53900000  1
  C  C14  1  0.33897200  0.73931500  0.96100000  1
  C  C15  1  0.16102800  0.26068500  0.46100000  1
  S  S0  1  0.25424900  0.19908700  0.79236200  1
  S  S1  1  0.24575100  0.80091300  0.29236200  1
  S  S2  1  0.75424900  0.30091300  0.20763800  1
  S  S3  1  0.74575100  0.69908700  0.70763800  1
  S  S4  1  0.74575100  0.80091300  0.20763800  1
  S  S5  1  0.75424900  0.19908700  0.70763800  1
  S  S6  1  0.24575100  0.69908700  0.79236200  1
  S  S7  1  0.25424900  0.30091300  0.29236200  1
  S  S8  1  0.16115100  0.33528700  0.04286900  1
  S  S9  1  0.33884900  0.66471300  0.54286900  1
  S  S10  1  0.66115100  0.16471300  0.95713100  1
  S  S11  1  0.83884900  0.83528700  0.45713100  1
  S  S12  1  0.83884900  0.66471300  0.95713100  1
  S  S13  1  0.66115100  0.33528700  0.45713100  1
  S  S14  1  0.33884900  0.83528700  0.04286900  1
  S  S15  1  0.16115100  0.16471300  0.54286900  1
  N  N0  1  0.07978500  0.38580800  0.85642500  1
  N  N1  1  0.42021500  0.61419200  0.35642500  1
  N  N2  1  0.57978500  0.11419200  0.14357500  1
  N  N3  1  0.92021500  0.88580800  0.64357500  1
  N  N4  1  0.92021500  0.61419200  0.14357500  1
  N  N5  1  0.57978500  0.38580800  0.64357500  1
  N  N6  1  0.42021500  0.88580800  0.85642500  1
  N  N7  1  0.07978500  0.11419200  0.35642500  1
  N  N8  1  0.16881900  0.12601700  0.97105600  1
  N  N9  1  0.33118100  0.87398300  0.47105600  1
  N  N10  1  0.66881900  0.37398300  0.02894400  1
  N  N11  1  0.83118100  0.62601700  0.52894400  1
  N  N12  1  0.83118100  0.87398300  0.02894400  1
  N  N13  1  0.66881900  0.12601700  0.52894400  1
  N  N14  1  0.33118100  0.62601700  0.97105600  1
  N  N15  1  0.16881900  0.37398300  0.47105600  1
  Cl  Cl0  1  0.08509600  0.45593600  0.66085900  1
  Cl  Cl1  1  0.41490400  0.54406400  0.16085900  1
  Cl  Cl2  1  0.58509600  0.04406400  0.33914100  1
  Cl  Cl3  1  0.91490400  0.95593600  0.83914100  1
  Cl  Cl4  1  0.91490400  0.54406400  0.33914100  1
  Cl  Cl5  1  0.58509600  0.45593600  0.83914100  1
  Cl  Cl6  1  0.41490400  0.95593600  0.66085900  1
  Cl  Cl7  1  0.08509600  0.04406400  0.16085900  1
loop_
_geom_bond_atom_site_label_1
_geom_bond_atom_site_label_2
_geom_bond_distance
_geom_bond_site_symmetry_2
Cu0 S15 2.237980 1_555
Cu0 S0 2.262352 1_555
Cu0 S5 2.664224 1_455
Cu1 S14 2.237980 1_555
Cu1 S1 2.262352 1_555
Cu1 S4 2.664224 1_555
Cu2 S13 2.237980 1_555
Cu2 S2 2.262352 1_555
Cu2 S7 2.664224 1_555
Cu3 S12 2.237980 1_555
Cu3 S3 2.262352 1_555
Cu3 S6 2.664224 1_655
Cu4 S11 2.237980 1_555
Cu4 S4 2.262352 1_555
Cu4 S1 2.664224 1_655
Cu5 S10 2.237980 1_555
Cu5 S5 2.262352 1_555
Cu5 S0 2.664224 1_555
Cu6 S9 2.237980 1_555
Cu6 S6 2.262352 1_555
Cu6 S3 2.664224 1_555
Cu7 S8 2.237980 1_555
Cu7 S7 2.262352 1_555
Cu7 S2 2.664224 1_455
H0 N0 1.021611 1_555
H1 N1 1.021611 1_555
H2 N2 1.021611 1_555
H3 N3 1.021611 1_555
H4 N4 1.021611 1_555
H5 N5 1.021611 1_555
H6 N6 1.021611 1_555
H7 N7 1.021611 1_555
H8 N0 1.035398 1_555
H9 N1 1.035398 1_555
H10 N2 1.035398 1_555
H11 N3 1.035398 1_555
H12 N4 1.035398 1_555
H13 N5 1.035398 1_555
H14 N6 1.035398 1_555
H15 N7 1.035398 1_555
H16 N8 1.025685 1_555
H17 N9 1.025685 1_555
H18 N10 1.025685 1_555
H19 N11 1.025685 1_555
H20 N12 1.025685 1_555
H21 N13 1.025685 1_555
H22 N14 1.025685 1_555
H23 N15 1.025685 1_555
H24 N8 1.034873 1_554
H25 N9 1.034873 1_555
H26 N10 1.034873 1_556
H27 N11 1.034873 1_555
H28 N12 1.034873 1_556
H29 N13 1.034873 1_555
H30 N14 1.034873 1_554
H31 N15 1.034873 1_555
C0 N0 1.319477 1_555
C0 C8 1.498675 1_555
C0 S0 1.699391 1_555
C1 N1 1.319477 1_555
C1 C9 1.498675 1_555
C1 S1 1.699391 1_555
C2 N2 1.319477 1_555
C2 S2 1.699391 1_555
C3 N3 1.319477 1_555
C3 S3 1.699391 1_555
C4 N4 1.319477 1_555
C4 S4 1.699391 1_555
C5 N5 1.319477 1_555
C5 S5 1.699391 1_555
C6 N6 1.319477 1_555
C6 S6 1.699391 1_555
C7 N7 1.319477 1_555
C7 S7 1.699391 1_555
C8 N8 1.320962 1_555
C8 S8 1.690543 1_556
C9 N9 1.320962 1_555
C9 S9 1.690543 1_555
C10 N10 1.320962 1_555
C10 C2 1.498675 1_555
C10 S10 1.690543 1_554
C11 N11 1.320962 1_555
C11 C3 1.498675 1_555
C11 S11 1.690543 1_555
C12 N12 1.320962 1_555
C12 C4 1.498675 1_555
C12 S12 1.690543 1_554
C13 N13 1.320962 1_555
C13 C5 1.498675 1_555
C13 S13 1.690543 1_555
C14 N14 1.320962 1_555
C14 C6 1.498675 1_555
C14 S14 1.690543 1_556
C15 N15 1.320962 1_555
C15 C7 1.498675 1_555
C15 S15 1.690543 1_555
Cl0 Cu0 2.327588 1_555
Cl1 Cu1 2.327588 1_555
Cl2 Cu2 2.327588 1_555
Cl3 Cu3 2.327588 1_555
Cl4 Cu4 2.327588 1_555
Cl5 Cu5 2.327588 1_555
Cl6 Cu6 2.327588 1_555
Cl7 Cu7 2.327588 1_555
