# generated using pymatgen
data_Na5Bi2P(CO4)4
_symmetry_space_group_name_H-M   'P 1'
_cell_length_a   10.39163578
_cell_length_b   10.37307009
_cell_length_c   17.96776416
_cell_angle_alpha   106.71395055
_cell_angle_beta   74.09231855
_cell_angle_gamma   119.72033569
_symmetry_Int_Tables_number   1
_chemical_formula_structural   Na5Bi2P(CO4)4
_chemical_formula_sum   'Na20 Bi8 P4 C16 O64'
_cell_volume   1590.70232537
_cell_formula_units_Z   4
loop_
 _symmetry_equiv_pos_site_id
 _symmetry_equiv_pos_as_xyz
  1  'x, y, z'
loop_
 _atom_site_type_symbol
 _atom_site_label
 _atom_site_symmetry_multiplicity
 _atom_site_fract_x
 _atom_site_fract_y
 _atom_site_fract_z
 _atom_site_occupancy
  Na  Na0  1  0.28455617  0.60110463  0.03399648  1
  Na  Na1  1  0.28427144  0.21848176  0.03272836  1
  Na  Na2  1  0.21590460  0.89889656  0.46617529  1
  Na  Na3  1  0.52230227  0.59046545  0.15887044  1
  Na  Na4  1  0.59246568  0.90823944  0.34212007  1
  Na  Na5  1  0.90873760  0.59074929  0.15930601  1
  Na  Na6  1  0.59259250  0.52736366  0.34250928  1
  Na  Na7  1  0.21503478  0.28321200  0.46592162  1
  Na  Na8  1  0.78326684  0.71733374  0.53284793  1
  Na  Na9  1  0.60274033  0.28407717  0.46601860  1
  Na  Na10  1  0.90821783  0.97590999  0.15934637  1
  Na  Na11  1  0.10032527  0.78986577  0.96453128  1
  Na  Na12  1  0.41044819  0.48359595  0.65582551  1
  Na  Na13  1  0.09237879  0.40758507  0.84191338  1
  Na  Na14  1  0.40411259  0.08497172  0.65867394  1
  Na  Na15  1  0.47412478  0.40914946  0.84304679  1
  Na  Na16  1  0.78284385  0.09745905  0.53222708  1
  Na  Na17  1  0.73036063  0.79860448  0.96553669  1
  Na  Na18  1  0.02925750  0.09310795  0.66172002  1
  Na  Na19  1  0.72108266  0.39595543  0.96748261  1
  Bi  Bi0  1  0.24269763  0.75173560  0.25296942  1
  Bi  Bi1  1  0.00905965  0.50369486  0.49919668  1
  Bi  Bi2  1  0.24254351  0.24361196  0.25202760  1
  Bi  Bi3  1  0.51029034  0.00492249  0.99922713  1
  Bi  Bi4  1  0.75530219  0.24989468  0.24565175  1
  Bi  Bi5  1  0.25042885  0.75456550  0.74819268  1
  Bi  Bi6  1  0.75486596  0.75575164  0.75193109  1
  Bi  Bi7  1  0.74655757  0.24631675  0.75080953  1
  P  P0  1  0.81217768  0.68688134  0.06239563  1
  P  P1  1  0.68715264  0.81227449  0.43762929  1
  P  P2  1  0.31458388  0.18955014  0.56259596  1
  P  P3  1  0.19073289  0.31607545  0.93711370  1
  C  C0  1  0.19620326  0.91503628  0.13494792  1
  C  C1  1  0.57909483  0.91007409  0.14012275  1
  C  C2  1  0.11325486  0.38975766  0.16778283  1
  C  C3  1  0.30400035  0.58270496  0.35972478  1
  C  C4  1  0.07945755  0.80749231  0.63704176  1
  C  C5  1  0.57920424  0.30906883  0.14034846  1
  C  C6  1  0.39508910  0.11536990  0.33447215  1
  C  C7  1  0.07903405  0.41036939  0.64041861  1
  C  C8  1  0.91688020  0.58065972  0.36156810  1
  C  C9  1  0.61121845  0.88854182  0.66812404  1
  C  C10  1  0.91584836  0.19635680  0.36072848  1
  C  C11  1  0.41824880  0.69539636  0.86088123  1
  C  C12  1  0.69432622  0.41634029  0.63811595  1
  C  C13  1  0.88772882  0.60630297  0.83433916  1
  C  C14  1  0.42067072  0.08499233  0.86062424  1
  C  C15  1  0.80224436  0.08373885  0.86077768  1
  O  O0  1  0.26242628  0.86339205  0.06997230  1
  O  O1  1  0.13505709  0.84199413  0.19319192  1
  O  O2  1  0.63333375  0.96161996  0.07474074  1
  O  O3  1  0.12051336  0.51832020  0.16667943  1
  O  O4  1  0.45448979  0.78631351  0.14617861  1
  O  O5  1  0.04521208  0.70059520  0.35796245  1
  O  O6  1  0.38262171  0.98392045  0.33486788  1
  O  O7  1  0.66058747  0.59595983  0.02967995  1
  O  O8  1  0.90488383  0.84149891  0.03380063  1
  O  O9  1  0.23511514  0.38043145  0.16508305  1
  O  O10  1  0.36797532  0.65380917  0.30036782  1
  O  O11  1  0.90575320  0.59679563  0.03216739  1
  O  O12  1  0.77938560  0.71534292  0.15422285  1
  O  O13  1  0.18858739  0.03988247  0.14136813  1
  O  O14  1  0.52569422  0.24393298  0.07433873  1
  O  O15  1  0.02653768  0.74150922  0.57061188  1
  O  O16  1  0.23326165  0.63641632  0.42147637  1
  O  O17  1  0.98551886  0.14303001  0.29826749  1
  O  O18  1  0.50785421  0.36757850  0.19958212  1
  O  O19  1  0.30965953  0.45833215  0.35635888  1
  O  O20  1  0.60009867  0.90987994  0.46614317  1
  O  O21  1  0.71022817  0.77763632  0.34530042  1
  O  O22  1  0.70521574  0.31757110  0.14610102  1
  O  O23  1  0.20417344  0.81539720  0.64384085  1
  O  O24  1  0.27639103  0.12817228  0.33572614  1
  O  O25  1  0.13251297  0.45990135  0.57446441  1
  O  O26  1  0.60042449  0.65709287  0.46660849  1
  O  O27  1  0.83771568  0.90438764  0.47225266  1
  O  O28  1  0.36044601  0.01316709  0.79719715  1
  O  O29  1  0.84740424  0.51340201  0.30063800  1
  O  O30  1  0.01770978  0.72262102  0.83379843  1
  O  O31  1  0.52579750  0.23310624  0.33423618  1
  O  O32  1  0.48280420  0.77058212  0.67497370  1
  O  O33  1  0.98501147  0.26978725  0.17265430  1
  O  O34  1  0.15035675  0.48262848  0.70012621  1
  O  O35  1  0.65178356  0.98198813  0.19992702  1
  O  O36  1  0.15969509  0.09687860  0.53312565  1
  O  O37  1  0.40541840  0.34068207  0.53057783  1
  O  O38  1  0.85872872  0.52672133  0.42666861  1
  O  O39  1  0.73376212  0.88004935  0.66550393  1
  O  O40  1  0.29367262  0.69012957  0.85472437  1
  O  O41  1  0.78837591  0.18880501  0.35744901  1
  O  O42  1  0.40524075  0.09646227  0.53215822  1
  O  O43  1  0.28801306  0.22403599  0.65440361  1
  O  O44  1  0.68732680  0.54051746  0.64367605  1
  O  O45  1  0.48867307  0.63549863  0.80186905  1
  O  O46  1  0.75984417  0.36217797  0.57383409  1
  O  O47  1  0.00802824  0.86734572  0.69494235  1
  O  O48  1  0.79605032  0.95519278  0.85907124  1
  O  O49  1  0.97283944  0.25855704  0.42570035  1
  O  O50  1  0.47245348  0.76019703  0.92680037  1
  O  O51  1  0.10702381  0.41648202  0.96580132  1
  O  O52  1  0.22717513  0.29377794  0.84518243  1
  O  O53  1  0.63320809  0.34482038  0.69771678  1
  O  O54  1  0.76865638  0.61849374  0.83458088  1
  O  O55  1  0.10471778  0.16671274  0.96855821  1
  O  O56  1  0.34777214  0.41106038  0.96933667  1
  O  O57  1  0.62026592  0.01709988  0.66494551  1
  O  O58  1  0.95409041  0.28520675  0.64611959  1
  O  O59  1  0.54150197  0.21427616  0.85846604  1
  O  O60  1  0.87392083  0.47444750  0.83602516  1
  O  O61  1  0.36444149  0.02978393  0.92506452  1
  O  O62  1  0.87117536  0.15297116  0.80055431  1
  O  O63  1  0.73500837  0.14355851  0.92168470  1
loop_
_geom_bond_atom_site_label_1
_geom_bond_atom_site_label_2
_geom_bond_distance
_geom_bond_site_symmetry_2
Na0 O51 2.226826 1_554
Na0 O56 2.283817 1_554
Na0 O50 2.611011 1_554
Na0 O3 2.612502 1_555
Na0 O4 2.689263 1_555
Na0 O0 2.720365 1_555
Na1 O55 2.220105 1_554
Na1 O56 2.304994 1_554
Na1 O9 2.574013 1_555
Na1 O61 2.612100 1_554
Na1 O14 2.679660 1_555
Na1 O13 2.724124 1_555
Na2 O42 2.315108 1_565
Na2 O36 2.321450 1_565
Na2 O15 2.571259 1_555
Na2 O6 2.605147 1_555
Na2 O5 2.670265 1_555
Na2 O16 2.690827 1_555
Na3 O12 2.308805 1_555
Na3 O7 2.371257 1_555
Na3 O4 2.539645 1_555
Na3 O18 2.543908 1_555
Na3 O9 2.678773 1_555
Na3 O10 2.704863 1_555
Na4 O20 2.246368 1_555
Na4 O21 2.250085 1_555
Na4 O41 2.581086 1_565
Na4 O10 2.585759 1_555
Na4 O35 2.699258 1_555
Na4 O6 2.701922 1_555
Na5 O12 2.311543 1_555
Na5 O11 2.312258 1_555
Na5 O1 2.547318 1_655
Na5 O22 2.550505 1_555
Na5 O29 2.697453 1_555
Na5 O3 2.698440 1_655
Na6 O21 2.246910 1_555
Na6 O26 2.248205 1_555
Na6 O29 2.612269 1_555
Na6 O19 2.613999 1_555
Na6 O18 2.731633 1_555
Na6 O31 2.741458 1_555
Na7 O37 2.304602 1_555
Na7 O36 2.320423 1_555
Na7 O25 2.546319 1_555
Na7 O24 2.549610 1_555
Na7 O49 2.678530 1_455
Na7 O19 2.714173 1_555
Na8 O26 2.247603 1_555
Na8 O27 2.249278 1_555
Na8 O39 2.582539 1_555
Na8 O38 2.590688 1_555
Na8 O15 2.669799 1_655
Na8 O44 2.742770 1_555
Na9 O37 2.322291 1_555
Na9 O42 2.333406 1_555
Na9 O31 2.534571 1_555
Na9 O46 2.567860 1_555
Na9 O41 2.687362 1_555
Na9 O38 2.695390 1_555
Na10 O8 2.284641 1_555
Na10 O12 2.332999 1_555
Na10 O35 2.590689 1_555
Na10 O13 2.592982 1_665
Na10 O17 2.666547 1_565
Na10 O33 2.694451 1_565
Na11 O8 2.295689 1_456
Na11 O11 2.369357 1_456
Na11 O30 2.512079 1_555
Na11 O0 2.579327 1_556
Na11 O61 2.721181 1_565
Na11 O40 2.777378 1_555
Na12 O37 2.309446 1_555
Na12 O43 2.334581 1_555
Na12 O44 2.592306 1_555
Na12 O34 2.595585 1_555
Na12 O32 2.622807 1_555
Na12 O45 2.747800 1_555
Na13 O51 2.245066 1_555
Na13 O52 2.254735 1_555
Na13 O62 2.568943 1_455
Na13 O40 2.610656 1_555
Na13 O34 2.700640 1_555
Na13 O60 2.716758 1_455
Na14 O42 2.306871 1_555
Na14 O43 2.319988 1_555
Na14 O23 2.514240 1_545
Na14 O53 2.624947 1_555
Na14 O28 2.658505 1_555
Na14 O57 2.702984 1_555
Na15 O52 2.224060 1_555
Na15 O56 2.289128 1_555
Na15 O59 2.546563 1_555
Na15 O45 2.582440 1_555
Na15 O54 2.729669 1_555
Na15 O53 2.778845 1_555
Na16 O20 2.246234 1_545
Na16 O27 2.247550 1_545
Na16 O57 2.602725 1_555
Na16 O49 2.617440 1_555
Na16 O58 2.723025 1_555
Na16 O46 2.743769 1_555
Na17 O8 2.257620 1_556
Na17 O7 2.386793 1_556
Na17 O2 2.534484 1_556
Na17 O48 2.595322 1_555
Na17 O54 2.623124 1_555
Na17 O50 2.762299 1_555
Na18 O43 2.319466 1_555
Na18 O36 2.336677 1_555
Na18 O47 2.471613 1_545
Na18 O58 2.577590 1_455
Na18 O62 2.679742 1_455
Na18 O39 2.749751 1_445
Na19 O11 2.289003 1_556
Na19 O7 2.350062 1_556
Na19 O60 2.555776 1_555
Na19 O63 2.573690 1_555
Na19 O14 2.593328 1_556
Na19 O59 2.695239 1_555
Bi0 O5 2.329316 1_555
Bi0 O1 2.357281 1_555
Bi0 O6 2.396325 1_555
Bi0 O3 2.397926 1_555
Bi0 O10 2.422498 1_555
Bi0 O4 2.439758 1_555
Bi1 O16 2.327126 1_555
Bi1 O25 2.358685 1_555
Bi1 O15 2.372286 1_555
Bi1 O49 2.396574 1_455
Bi1 O38 2.420889 1_455
Bi1 O46 2.473709 1_455
Bi2 O17 2.330592 1_455
Bi2 O24 2.358533 1_555
Bi2 O19 2.395057 1_555
Bi2 O13 2.398570 1_555
Bi2 O18 2.429038 1_555
Bi2 O9 2.431185 1_555
Bi3 O63 2.345540 1_555
Bi3 O2 2.355546 1_546
Bi3 O50 2.383907 1_545
Bi3 O14 2.407104 1_556
Bi3 O61 2.414858 1_555
Bi3 O0 2.436109 1_546
Bi4 O33 2.326354 1_555
Bi4 O22 2.357557 1_555
Bi4 O29 2.394700 1_555
Bi4 O35 2.400450 1_545
Bi4 O41 2.425142 1_555
Bi4 O31 2.432766 1_555
Bi5 O28 2.330349 1_565
Bi5 O32 2.361333 1_555
Bi5 O23 2.370659 1_555
Bi5 O30 2.404900 1_555
Bi5 O40 2.412021 1_555
Bi5 O34 2.442708 1_555
Bi6 O48 2.334959 1_555
Bi6 O47 2.344140 1_655
Bi6 O39 2.395982 1_555
Bi6 O54 2.405857 1_555
Bi6 O45 2.423785 1_555
Bi6 O44 2.440790 1_555
Bi7 O60 2.370086 1_555
Bi7 O57 2.379467 1_555
Bi7 O58 2.387904 1_555
Bi7 O53 2.389869 1_555
Bi7 O62 2.406036 1_555
Bi7 O59 2.408489 1_555
C0 O1 1.298924 1_555
C0 O0 1.299586 1_555
C0 O13 1.306670 1_565
C1 O2 1.297369 1_555
C1 O4 1.300557 1_555
C1 O35 1.306469 1_555
C2 O33 1.298705 1_455
C2 O3 1.303530 1_555
C2 O9 1.303992 1_555
C3 O16 1.298180 1_555
C3 O19 1.303820 1_555
C3 O10 1.304232 1_555
C4 O23 1.294962 1_555
C4 O47 1.296481 1_555
C4 O15 1.308535 1_555
C5 O22 1.299078 1_555
C5 O18 1.301114 1_555
C5 O14 1.304029 1_555
C6 O24 1.298093 1_555
C6 O31 1.300574 1_555
C6 O6 1.306129 1_545
C7 O25 1.297404 1_555
C7 O34 1.297914 1_555
C7 O58 1.309218 1_455
C8 O5 1.297826 1_655
C8 O38 1.303901 1_555
C8 O29 1.304239 1_555
C9 O32 1.292542 1_555
C9 O57 1.306515 1_565
C9 O39 1.306744 1_555
C10 O17 1.297799 1_555
C10 O49 1.302585 1_555
C10 O41 1.304432 1_555
C11 O45 1.300935 1_555
C11 O40 1.302300 1_555
C11 O50 1.305498 1_555
C12 O46 1.299301 1_555
C12 O44 1.299756 1_555
C12 O53 1.310541 1_555
C13 O30 1.289944 1_655
C13 O54 1.303437 1_555
C13 O60 1.311142 1_555
C14 O28 1.298388 1_555
C14 O61 1.299512 1_555
C14 O59 1.307736 1_555
C15 O48 1.294431 1_545
C15 O63 1.300375 1_555
C15 O62 1.308341 1_555
O7 P0 1.559528 1_555
O8 P0 1.560463 1_555
O11 P0 1.559911 1_555
O12 P0 1.561063 1_555
O20 P1 1.568971 1_555
O21 P1 1.569461 1_555
O26 P1 1.568733 1_555
O27 P1 1.567578 1_555
O36 P2 1.560572 1_555
O37 P2 1.559955 1_555
O42 P2 1.560380 1_555
O43 P2 1.560178 1_555
O51 P3 1.565531 1_555
O52 P3 1.565102 1_555
O55 P3 1.540183 1_555
O56 P3 1.601444 1_555
