# generated using pymatgen
data_Mg7(SiO3)8
_symmetry_space_group_name_H-M   'P 1'
_cell_length_a   5.32354400
_cell_length_b   18.29251200
_cell_length_c   18.84108200
_cell_angle_alpha   90.00000000
_cell_angle_beta   90.00000000
_cell_angle_gamma   90.00000000
_symmetry_Int_Tables_number   1
_chemical_formula_structural   Mg7(SiO3)8
_chemical_formula_sum   'Mg28 Si32 O96'
_cell_volume   1834.76326498
_cell_formula_units_Z   4
loop_
 _symmetry_equiv_pos_site_id
 _symmetry_equiv_pos_as_xyz
  1  'x, y, z'
loop_
 _atom_site_type_symbol
 _atom_site_label
 _atom_site_symmetry_multiplicity
 _atom_site_fract_x
 _atom_site_fract_y
 _atom_site_fract_z
 _atom_site_occupancy
  Mg  Mg0  1  0.11817400  0.15651400  0.62487500  1
  Mg  Mg1  1  0.38182600  0.34348600  0.12487500  1
  Mg  Mg2  1  0.88182600  0.65651400  0.37512500  1
  Mg  Mg3  1  0.61817400  0.84348600  0.87512500  1
  Mg  Mg4  1  0.88182600  0.84348600  0.37512500  1
  Mg  Mg5  1  0.61817400  0.65651400  0.87512500  1
  Mg  Mg6  1  0.11817400  0.34348600  0.62487500  1
  Mg  Mg7  1  0.38182600  0.15651400  0.12487500  1
  Mg  Mg8  1  0.61700100  0.07166100  0.62462800  1
  Mg  Mg9  1  0.88299900  0.42833900  0.12462800  1
  Mg  Mg10  1  0.38299900  0.57166100  0.37537200  1
  Mg  Mg11  1  0.11700100  0.92833900  0.87537200  1
  Mg  Mg12  1  0.38299900  0.92833900  0.37537200  1
  Mg  Mg13  1  0.11700100  0.57166100  0.87537200  1
  Mg  Mg14  1  0.61700100  0.42833900  0.62462800  1
  Mg  Mg15  1  0.88299900  0.07166100  0.12462800  1
  Mg  Mg16  1  0.11768900  0.99151700  0.62540600  1
  Mg  Mg17  1  0.38231100  0.50848300  0.12540600  1
  Mg  Mg18  1  0.88231100  0.49151700  0.37459400  1
  Mg  Mg19  1  0.61768900  0.00848300  0.87459400  1
  Mg  Mg20  1  0.88231100  0.00848300  0.37459400  1
  Mg  Mg21  1  0.61768900  0.49151700  0.87459400  1
  Mg  Mg22  1  0.11768900  0.50848300  0.62540600  1
  Mg  Mg23  1  0.38231100  0.99151700  0.12540600  1
  Mg  Mg24  1  0.61981000  0.25000000  0.62657100  1
  Mg  Mg25  1  0.88019000  0.25000000  0.12657100  1
  Mg  Mg26  1  0.38019000  0.75000000  0.37342900  1
  Mg  Mg27  1  0.11981000  0.75000000  0.87342900  1
  Si  Si0  1  0.23222500  0.83385000  0.51728300  1
  Si  Si1  1  0.26777500  0.66615000  0.01728300  1
  Si  Si2  1  0.76777500  0.33385000  0.48271700  1
  Si  Si3  1  0.73222500  0.16615000  0.98271700  1
  Si  Si4  1  0.76777500  0.16615000  0.48271700  1
  Si  Si5  1  0.73222500  0.33385000  0.98271700  1
  Si  Si6  1  0.23222500  0.66615000  0.51728300  1
  Si  Si7  1  0.26777500  0.83385000  0.01728300  1
  Si  Si8  1  0.73123100  0.91907300  0.52428400  1
  Si  Si9  1  0.76876900  0.58092700  0.02428400  1
  Si  Si10  1  0.26876900  0.41907300  0.47571600  1
  Si  Si11  1  0.23123100  0.08092700  0.97571600  1
  Si  Si12  1  0.26876900  0.08092700  0.47571600  1
  Si  Si13  1  0.23123100  0.41907300  0.97571600  1
  Si  Si14  1  0.73123100  0.58092700  0.52428400  1
  Si  Si15  1  0.76876900  0.91907300  0.02428400  1
  Si  Si16  1  0.44744500  0.92110300  0.72674800  1
  Si  Si17  1  0.05255500  0.57889700  0.22674800  1
  Si  Si18  1  0.55255500  0.42110300  0.27325200  1
  Si  Si19  1  0.94744500  0.07889700  0.77325200  1
  Si  Si20  1  0.55255500  0.07889700  0.27325200  1
  Si  Si21  1  0.94744500  0.42110300  0.77325200  1
  Si  Si22  1  0.44744500  0.57889700  0.72674800  1
  Si  Si23  1  0.05255500  0.92110300  0.22674800  1
  Si  Si24  1  0.94620100  0.83469900  0.73115900  1
  Si  Si25  1  0.55379900  0.66530100  0.23115900  1
  Si  Si26  1  0.05379900  0.33469900  0.26884100  1
  Si  Si27  1  0.44620100  0.16530100  0.76884100  1
  Si  Si28  1  0.05379900  0.16530100  0.26884100  1
  Si  Si29  1  0.44620100  0.33469900  0.76884100  1
  Si  Si30  1  0.94620100  0.66530100  0.73115900  1
  Si  Si31  1  0.55379900  0.83469900  0.23115900  1
  O  O0  1  0.28038700  0.07306900  0.56300300  1
  O  O1  1  0.21961300  0.42693100  0.06300300  1
  O  O2  1  0.71961300  0.57306900  0.43699700  1
  O  O3  1  0.78038700  0.92693100  0.93699700  1
  O  O4  1  0.71961300  0.92693100  0.43699700  1
  O  O5  1  0.78038700  0.57306900  0.93699700  1
  O  O6  1  0.28038700  0.42693100  0.56300300  1
  O  O7  1  0.21961300  0.07306900  0.06300300  1
  O  O8  1  0.77138000  0.16095600  0.56912000  1
  O  O9  1  0.72862000  0.33904400  0.06912000  1
  O  O10  1  0.22862000  0.66095600  0.43088000  1
  O  O11  1  0.27138000  0.83904400  0.93088000  1
  O  O12  1  0.22862000  0.83904400  0.43088000  1
  O  O13  1  0.27138000  0.66095600  0.93088000  1
  O  O14  1  0.77138000  0.33904400  0.56912000  1
  O  O15  1  0.72862000  0.16095600  0.06912000  1
  O  O16  1  0.28479000  0.75000000  0.54352200  1
  O  O17  1  0.21521000  0.75000000  0.04352200  1
  O  O18  1  0.71521000  0.25000000  0.45647800  1
  O  O19  1  0.78479000  0.25000000  0.95647800  1
  O  O20  1  0.26175000  0.25000000  0.58108900  1
  O  O21  1  0.23825000  0.25000000  0.08108900  1
  O  O22  1  0.73825000  0.75000000  0.41891100  1
  O  O23  1  0.76175000  0.75000000  0.91891100  1
  O  O24  1  0.80016300  0.99244100  0.56771800  1
  O  O25  1  0.69983700  0.50755900  0.06771800  1
  O  O26  1  0.19983700  0.49244100  0.43228200  1
  O  O27  1  0.30016300  0.00755900  0.93228200  1
  O  O28  1  0.19983700  0.00755900  0.43228200  1
  O  O29  1  0.30016300  0.49244100  0.93228200  1
  O  O30  1  0.80016300  0.50755900  0.56771800  1
  O  O31  1  0.69983700  0.99244100  0.06771800  1
  O  O32  1  0.45274000  0.88739400  0.55025700  1
  O  O33  1  0.04726000  0.61260600  0.05025700  1
  O  O34  1  0.54726000  0.38739400  0.44974300  1
  O  O35  1  0.95274000  0.11260600  0.94974300  1
  O  O36  1  0.54726000  0.11260600  0.44974300  1
  O  O37  1  0.95274000  0.38739400  0.94974300  1
  O  O38  1  0.45274000  0.61260600  0.55025700  1
  O  O39  1  0.04726000  0.88739400  0.05025700  1
  O  O40  1  0.95914500  0.86148200  0.54712300  1
  O  O41  1  0.54085500  0.63851800  0.04712300  1
  O  O42  1  0.04085500  0.36148200  0.45287700  1
  O  O43  1  0.45914500  0.13851800  0.95287700  1
  O  O44  1  0.04085500  0.13851800  0.45287700  1
  O  O45  1  0.45914500  0.36148200  0.95287700  1
  O  O46  1  0.95914500  0.63851800  0.54712300  1
  O  O47  1  0.54085500  0.86148200  0.04712300  1
  O  O48  1  0.45833800  0.16122600  0.68253000  1
  O  O49  1  0.04166200  0.33877400  0.18253000  1
  O  O50  1  0.54166200  0.66122600  0.31747000  1
  O  O51  1  0.95833800  0.83877400  0.81747000  1
  O  O52  1  0.54166200  0.83877400  0.31747000  1
  O  O53  1  0.95833800  0.66122600  0.81747000  1
  O  O54  1  0.45833800  0.33877400  0.68253000  1
  O  O55  1  0.04166200  0.16122600  0.18253000  1
  O  O56  1  0.94738300  0.07409600  0.68615600  1
  O  O57  1  0.55261700  0.42590400  0.18615600  1
  O  O58  1  0.05261700  0.57409600  0.31384400  1
  O  O59  1  0.44738300  0.92590400  0.81384400  1
  O  O60  1  0.05261700  0.92590400  0.31384400  1
  O  O61  1  0.44738300  0.57409600  0.81384400  1
  O  O62  1  0.94738300  0.42590400  0.68615600  1
  O  O63  1  0.55261700  0.07409600  0.18615600  1
  O  O64  1  0.43396100  0.99792000  0.68515200  1
  O  O65  1  0.06603900  0.50208000  0.18515200  1
  O  O66  1  0.56603900  0.49792000  0.31484800  1
  O  O67  1  0.93396100  0.00208000  0.81484800  1
  O  O68  1  0.56603900  0.00208000  0.31484800  1
  O  O69  1  0.93396100  0.49792000  0.81484800  1
  O  O70  1  0.43396100  0.50208000  0.68515200  1
  O  O71  1  0.06603900  0.99792000  0.18515200  1
  O  O72  1  0.97357500  0.75000000  0.70445900  1
  O  O73  1  0.52642500  0.75000000  0.20445900  1
  O  O74  1  0.02642500  0.25000000  0.29554100  1
  O  O75  1  0.47357500  0.25000000  0.79554100  1
  O  O76  1  0.97783400  0.25000000  0.66925500  1
  O  O77  1  0.52216600  0.25000000  0.16925500  1
  O  O78  1  0.02216600  0.75000000  0.33074500  1
  O  O79  1  0.47783400  0.75000000  0.83074500  1
  O  O80  1  0.17799900  0.88366200  0.69701800  1
  O  O81  1  0.32200100  0.61633800  0.19701800  1
  O  O82  1  0.82200100  0.38366200  0.30298200  1
  O  O83  1  0.67799900  0.11633800  0.80298200  1
  O  O84  1  0.82200100  0.11633800  0.30298200  1
  O  O85  1  0.67799900  0.38366200  0.80298200  1
  O  O86  1  0.17799900  0.61633800  0.69701800  1
  O  O87  1  0.32200100  0.88366200  0.19701800  1
  O  O88  1  0.68550400  0.87032000  0.70149400  1
  O  O89  1  0.81449600  0.62968000  0.20149400  1
  O  O90  1  0.31449600  0.37032000  0.29850600  1
  O  O91  1  0.18550400  0.12968000  0.79850600  1
  O  O92  1  0.31449600  0.12968000  0.29850600  1
  O  O93  1  0.18550400  0.37032000  0.79850600  1
  O  O94  1  0.68550400  0.62968000  0.70149400  1
  O  O95  1  0.81449600  0.87032000  0.20149400  1
loop_
_geom_bond_atom_site_label_1
_geom_bond_atom_site_label_2
_geom_bond_distance
_geom_bond_site_symmetry_2
Mg0 O76 2.044936 1_455
Mg0 O20 2.046756 1_555
Mg0 O56 2.105404 1_455
Mg0 O0 2.105851 1_555
Mg0 O48 2.113461 1_555
Mg0 O8 2.125671 1_455
Mg1 O77 2.044936 1_555
Mg1 O21 2.046756 1_555
Mg1 O57 2.105404 1_555
Mg1 O1 2.105851 1_555
Mg1 O49 2.113461 1_555
Mg1 O9 2.125671 1_555
Mg2 O78 2.044936 1_655
Mg2 O22 2.046756 1_555
Mg2 O58 2.105404 1_655
Mg2 O2 2.105851 1_555
Mg2 O50 2.113461 1_555
Mg2 O10 2.125671 1_655
Mg3 O79 2.044936 1_555
Mg3 O23 2.046756 1_555
Mg3 O59 2.105404 1_555
Mg3 O3 2.105851 1_555
Mg3 O51 2.113461 1_555
Mg3 O11 2.125671 1_555
Mg4 O78 2.044936 1_655
Mg4 O22 2.046756 1_555
Mg4 O60 2.105404 1_655
Mg4 O4 2.105851 1_555
Mg4 O52 2.113461 1_555
Mg4 O12 2.125671 1_655
Mg5 O79 2.044936 1_555
Mg5 O23 2.046756 1_555
Mg5 O61 2.105404 1_555
Mg5 O5 2.105851 1_555
Mg5 O53 2.113461 1_555
Mg5 O13 2.125671 1_555
Mg6 O76 2.044936 1_455
Mg6 O20 2.046756 1_555
Mg6 O62 2.105404 1_455
Mg6 O6 2.105851 1_555
Mg6 O54 2.113461 1_555
Mg6 O14 2.125671 1_455
Mg7 O77 2.044936 1_555
Mg7 O21 2.046756 1_555
Mg7 O63 2.105404 1_555
Mg7 O7 2.105851 1_555
Mg7 O55 2.113461 1_555
Mg7 O15 2.125671 1_555
Mg8 O64 2.017280 1_545
Mg8 O24 2.049503 1_545
Mg8 O8 2.106486 1_555
Mg8 O56 2.106951 1_555
Mg8 O0 2.135407 1_555
Mg8 O48 2.141921 1_555
Mg9 O65 2.017280 1_655
Mg9 O25 2.049503 1_555
Mg9 O9 2.106486 1_555
Mg9 O57 2.106951 1_555
Mg9 O1 2.135407 1_655
Mg9 O49 2.141921 1_655
Mg10 O66 2.017280 1_555
Mg10 O26 2.049503 1_555
Mg10 O10 2.106486 1_555
Mg10 O58 2.106951 1_555
Mg10 O2 2.135407 1_555
Mg10 O50 2.141921 1_555
Mg11 O67 2.017280 1_465
Mg11 O27 2.049503 1_565
Mg11 O11 2.106486 1_555
Mg11 O59 2.106951 1_555
Mg11 O3 2.135407 1_455
Mg11 O51 2.141921 1_455
Mg12 O68 2.017280 1_565
Mg12 O28 2.049503 1_565
Mg12 O12 2.106486 1_555
Mg12 O60 2.106951 1_555
Mg12 O4 2.135407 1_555
Mg12 O52 2.141921 1_555
Mg13 O69 2.017280 1_455
Mg13 O29 2.049503 1_555
Mg13 O13 2.106486 1_555
Mg13 O61 2.106951 1_555
Mg13 O5 2.135407 1_455
Mg13 O53 2.141921 1_455
Mg14 O70 2.017280 1_555
Mg14 O30 2.049503 1_555
Mg14 O14 2.106486 1_555
Mg14 O62 2.106951 1_555
Mg14 O6 2.135407 1_555
Mg14 O54 2.141921 1_555
Mg15 O71 2.017280 1_645
Mg15 O31 2.049503 1_545
Mg15 O15 2.106486 1_555
Mg15 O63 2.106951 1_555
Mg15 O7 2.135407 1_655
Mg15 O55 2.141921 1_655
Mg16 O24 2.009720 1_455
Mg16 O64 2.028713 1_555
Mg16 O0 2.087579 1_565
Mg16 O56 2.100934 1_465
Mg16 O80 2.411646 1_555
Mg17 O25 2.009720 1_555
Mg17 O65 2.028713 1_555
Mg17 O1 2.087579 1_555
Mg17 O57 2.100934 1_555
Mg17 O81 2.411646 1_555
Mg18 O26 2.009720 1_655
Mg18 O66 2.028713 1_555
Mg18 O2 2.087579 1_555
Mg18 O58 2.100934 1_655
Mg18 O82 2.411646 1_555
Mg19 O27 2.009720 1_555
Mg19 O67 2.028713 1_555
Mg19 O3 2.087579 1_545
Mg19 O59 2.100934 1_545
Mg19 O83 2.411646 1_555
Mg20 O28 2.009720 1_655
Mg20 O68 2.028713 1_555
Mg20 O4 2.087579 1_545
Mg20 O60 2.100934 1_645
Mg20 O84 2.411646 1_555
Mg21 O29 2.009720 1_555
Mg21 O69 2.028713 1_555
Mg21 O5 2.087579 1_555
Mg21 O61 2.100934 1_555
Mg21 O85 2.411646 1_555
Mg22 O30 2.009720 1_455
Mg22 O70 2.028713 1_555
Mg22 O6 2.087579 1_555
Mg22 O62 2.100934 1_455
Mg22 O86 2.411646 1_555
Mg23 O31 2.009720 1_555
Mg23 O71 2.028713 1_555
Mg23 O7 2.087579 1_565
Mg23 O63 2.100934 1_565
Mg23 O87 2.411646 1_555
Mg24 O76 2.068678 1_555
Mg24 O20 2.089911 1_555
Mg24 O8 2.115623 1_555
Mg24 O14 2.115623 1_555
Mg24 O54 2.118390 1_555
Mg24 O48 2.118390 1_555
Mg25 O77 2.068678 1_555
Mg25 O21 2.089911 1_655
Mg25 O15 2.115623 1_555
Mg25 O9 2.115623 1_555
Mg25 O49 2.118390 1_655
Mg25 O55 2.118390 1_655
Mg26 O78 2.068678 1_555
Mg26 O22 2.089911 1_555
Mg26 O12 2.115623 1_555
Mg26 O10 2.115623 1_555
Mg26 O52 2.118390 1_555
Mg26 O50 2.118390 1_555
Mg27 O79 2.068678 1_555
Mg27 O23 2.089911 1_455
Mg27 O13 2.115623 1_555
Mg27 O11 2.115623 1_555
Mg27 O51 2.118390 1_455
Mg27 O53 2.118390 1_455
O0 Si12 1.652010 1_555
O1 Si13 1.652010 1_554
O2 Si14 1.652010 1_555
O3 Si15 1.652010 1_556
O4 Si8 1.652010 1_555
O5 Si9 1.652010 1_556
O6 Si10 1.652010 1_555
O7 Si11 1.652010 1_554
O8 Si4 1.630809 1_555
O9 Si5 1.630809 1_554
O10 Si6 1.630809 1_555
O11 Si7 1.630809 1_556
O12 Si0 1.630809 1_555
O13 Si1 1.630809 1_556
O14 Si2 1.630809 1_555
O15 Si3 1.630809 1_554
O16 Si6 1.635645 1_555
O16 Si0 1.635645 1_555
O17 Si1 1.635645 1_555
O17 Si7 1.635645 1_555
O18 Si4 1.635645 1_555
O18 Si2 1.635645 1_555
O19 Si3 1.635645 1_555
O19 Si5 1.635645 1_555
O24 Si8 1.614168 1_555
O25 Si9 1.614168 1_555
O26 Si10 1.614168 1_555
O27 Si11 1.614168 1_555
O28 Si12 1.614168 1_555
O29 Si13 1.614168 1_555
O30 Si14 1.614168 1_555
O31 Si15 1.614168 1_555
O32 Si0 1.650271 1_555
O32 Si8 1.665311 1_555
O33 Si1 1.650271 1_555
O33 Si9 1.665311 1_455
O34 Si2 1.650271 1_555
O34 Si10 1.665311 1_555
O35 Si3 1.650271 1_555
O35 Si11 1.665311 1_655
O36 Si4 1.650271 1_555
O36 Si12 1.665311 1_555
O37 Si5 1.650271 1_555
O37 Si13 1.665311 1_655
O38 Si6 1.650271 1_555
O38 Si14 1.665311 1_555
O39 Si7 1.650271 1_555
O39 Si15 1.665311 1_455
O40 Si0 1.638590 1_655
O40 Si8 1.663466 1_555
O41 Si1 1.638590 1_555
O41 Si9 1.663466 1_555
O42 Si2 1.638590 1_455
O42 Si10 1.663466 1_555
O43 Si3 1.638590 1_555
O43 Si11 1.663466 1_555
O44 Si4 1.638590 1_455
O44 Si12 1.663466 1_555
O45 Si5 1.638590 1_555
O45 Si13 1.663466 1_555
O46 Si6 1.638590 1_655
O46 Si14 1.663466 1_555
O47 Si7 1.638590 1_555
O47 Si15 1.663466 1_555
O48 Si27 1.629182 1_555
O49 Si26 1.629182 1_555
O50 Si25 1.629182 1_555
O51 Si24 1.629182 1_555
O52 Si31 1.629182 1_555
O53 Si30 1.629182 1_555
O54 Si29 1.629182 1_555
O55 Si28 1.629182 1_555
O56 Si19 1.643331 1_555
O57 Si18 1.643331 1_555
O58 Si17 1.643331 1_555
O59 Si16 1.643331 1_555
O60 Si23 1.643331 1_555
O61 Si22 1.643331 1_555
O62 Si21 1.643331 1_555
O63 Si20 1.643331 1_555
O64 Si16 1.610552 1_555
O65 Si17 1.610552 1_555
O66 Si18 1.610552 1_555
O67 Si19 1.610552 1_555
O68 Si20 1.610552 1_555
O69 Si21 1.610552 1_555
O70 Si22 1.610552 1_555
O71 Si23 1.610552 1_555
O72 Si24 1.635485 1_555
O72 Si30 1.635485 1_555
O73 Si31 1.635485 1_555
O73 Si25 1.635485 1_555
O74 Si26 1.635485 1_555
O74 Si28 1.635485 1_555
O75 Si29 1.635485 1_555
O75 Si27 1.635485 1_555
O80 Si24 1.654901 1_455
O80 Si16 1.685337 1_555
O81 Si25 1.654901 1_555
O81 Si17 1.685337 1_555
O82 Si26 1.654901 1_655
O82 Si18 1.685337 1_555
O83 Si27 1.654901 1_555
O83 Si19 1.685337 1_555
O84 Si28 1.654901 1_655
O84 Si20 1.685337 1_555
O85 Si29 1.654901 1_555
O85 Si21 1.685337 1_555
O86 Si30 1.654901 1_455
O86 Si22 1.685337 1_555
O87 Si31 1.654901 1_555
O87 Si23 1.685337 1_555
O88 Si24 1.631885 1_555
O88 Si16 1.641779 1_555
O89 Si25 1.631885 1_555
O89 Si17 1.641779 1_655
O90 Si26 1.631885 1_555
O90 Si18 1.641779 1_555
O91 Si27 1.631885 1_555
O91 Si19 1.641779 1_455
O92 Si28 1.631885 1_555
O92 Si20 1.641779 1_555
O93 Si29 1.631885 1_555
O93 Si21 1.641779 1_455
O94 Si30 1.631885 1_555
O94 Si22 1.641779 1_555
O95 Si31 1.631885 1_555
O95 Si23 1.641779 1_655
