# generated using pymatgen
data_TeO3
_symmetry_space_group_name_H-M   'P 1'
_cell_length_a   5.12838914
_cell_length_b   4.80121244
_cell_length_c   8.34219790
_cell_angle_alpha   90.00000000
_cell_angle_beta   90.00000000
_cell_angle_gamma   90.00000000
_symmetry_Int_Tables_number   1
_chemical_formula_structural   TeO3
_chemical_formula_sum   'Te4 O12'
_cell_volume   205.40564880
_cell_formula_units_Z   4
loop_
 _symmetry_equiv_pos_site_id
 _symmetry_equiv_pos_as_xyz
  1  'x, y, z'
loop_
 _atom_site_type_symbol
 _atom_site_label
 _atom_site_symmetry_multiplicity
 _atom_site_fract_x
 _atom_site_fract_y
 _atom_site_fract_z
 _atom_site_occupancy
  Te  Te0  1  -0.00000000  -0.00000000  0.09938886  1
  Te  Te1  1  -0.00000000  0.50000000  0.41461266  1
  Te  Te2  1  0.50000000  -0.00000000  0.91461266  1
  Te  Te3  1  0.50000000  0.50000000  0.59938886  1
  O  O0  1  0.13674052  0.24997336  0.25703932  1
  O  O1  1  0.18469162  0.28628805  0.58070759  1
  O  O2  1  0.18470620  0.21375345  0.93337233  1
  O  O3  1  0.31529380  0.71375345  0.43337233  1
  O  O4  1  0.31530838  0.78628805  0.08070759  1
  O  O5  1  0.36325948  0.74997336  0.75703932  1
  O  O6  1  0.63674052  0.25002664  0.75703932  1
  O  O7  1  0.68469162  0.21371195  0.08070759  1
  O  O8  1  0.68470620  0.28624655  0.43337233  1
  O  O9  1  0.81529380  0.78624655  0.93337233  1
  O  O10  1  0.81530838  0.71371195  0.58070759  1
  O  O11  1  0.86325948  0.75002664  0.25703932  1
loop_
_geom_bond_atom_site_label_1
_geom_bond_atom_site_label_2
_geom_bond_distance
_geom_bond_site_symmetry_2
O0 Te1 1.913303 1_555
O0 Te0 1.913585 1_555
O1 Te3 1.921428 1_555
O1 Te1 1.967192 1_555
O2 Te2 1.921525 1_555
O2 Te0 1.966871 1_556
O3 Te1 1.921525 1_555
O3 Te3 1.966871 1_555
O4 Te0 1.921428 1_565
O4 Te2 1.967192 1_564
O5 Te2 1.913303 1_565
O5 Te3 1.913585 1_555
O6 Te2 1.913303 1_555
O6 Te3 1.913585 1_555
O7 Te0 1.921428 1_655
O7 Te2 1.967192 1_554
O8 Te1 1.921525 1_655
O8 Te3 1.966871 1_555
O9 Te2 1.921525 1_565
O9 Te0 1.966871 1_666
O10 Te3 1.921428 1_555
O10 Te1 1.967192 1_655
O11 Te1 1.913303 1_655
O11 Te0 1.913585 1_665
