# generated using pymatgen
data_Li7Mn(PO4)4
_symmetry_space_group_name_H-M   'P 1'
_cell_length_a   5.95103700
_cell_length_b   4.76276700
_cell_length_c   10.22078822
_cell_angle_alpha   89.82400537
_cell_angle_beta   90.00000000
_cell_angle_gamma   90.00000000
_symmetry_Int_Tables_number   1
_chemical_formula_structural   Li7Mn(PO4)4
_chemical_formula_sum   'Li7 Mn1 P4 O16'
_cell_volume   289.69054909
_cell_formula_units_Z   1
loop_
 _symmetry_equiv_pos_site_id
 _symmetry_equiv_pos_as_xyz
  1  'x, y, z'
loop_
 _atom_site_type_symbol
 _atom_site_label
 _atom_site_symmetry_multiplicity
 _atom_site_fract_x
 _atom_site_fract_y
 _atom_site_fract_z
 _atom_site_occupancy
  Li  Li0  1  0.26190500  0.98678600  0.98295000  1
  Li  Li1  1  0.73809500  0.98678600  0.98295000  1
  Li  Li2  1  0.00000000  0.47779800  0.77582700  1
  Li  Li3  1  0.73817700  0.49755100  0.51102200  1
  Li  Li4  1  0.26182300  0.49755100  0.51102200  1
  Li  Li5  1  0.50000000  0.52415200  0.22382700  1
  Li  Li6  1  0.50000000  0.97365400  0.71987900  1
  Mn  Mn0  1  0.00000000  0.00857900  0.27970400  1
  P  P0  1  0.50000000  0.06075800  0.40565700  1
  P  P1  1  0.50000000  0.42767200  0.90651600  1
  P  P2  1  0.00000000  0.58795300  0.10388500  1
  P  P3  1  0.00000000  0.93035200  0.58938200  1
  O  O0  1  0.50000000  0.20399100  0.53981900  1
  O  O1  1  0.28741300  0.19304100  0.33111100  1
  O  O2  1  0.71258700  0.19304100  0.33111100  1
  O  O3  1  0.00000000  0.25038600  0.58473500  1
  O  O4  1  0.00000000  0.26408800  0.11742900  1
  O  O5  1  0.29143300  0.29337400  0.83945600  1
  O  O6  1  0.70856700  0.29337400  0.83945600  1
  O  O7  1  0.50000000  0.30721200  0.04925400  1
  O  O8  1  0.00000000  0.68970900  0.96269900  1
  O  O9  1  0.79964400  0.73562200  0.17901200  1
  O  O10  1  0.20035600  0.73562200  0.17901200  1
  O  O11  1  0.50000000  0.74838200  0.90479400  1
  O  O12  1  0.50000000  0.74210600  0.40393200  1
  O  O13  1  0.79168800  0.79458700  0.65236400  1
  O  O14  1  0.20831200  0.79458700  0.65236400  1
  O  O15  1  0.00000000  0.80128500  0.44083000  1
loop_
_geom_bond_atom_site_label_1
_geom_bond_atom_site_label_2
_geom_bond_distance
_geom_bond_site_symmetry_2
Li0 O11 1.985093 1_555
Li0 O5 2.073863 1_565
Li0 O8 2.115623 1_555
Li0 O7 2.191408 1_566
Li0 O10 2.359250 1_556
Li0 O4 2.464532 1_566
Li1 O11 1.985093 1_555
Li1 O6 2.073863 1_565
Li1 O8 2.115623 1_655
Li1 O7 2.191408 1_566
Li1 O9 2.359250 1_556
Li1 O4 2.464532 1_666
Li2 O6 2.049111 1_455
Li2 O5 2.049111 1_555
Li2 O8 2.162987 1_555
Li2 O3 2.236239 1_555
Li2 O14 2.322479 1_555
Li2 O13 2.322479 1_455
Li3 O0 2.011957 1_555
Li3 O13 2.049957 1_555
Li3 O3 2.091812 1_655
Li3 O12 2.134451 1_555
Li3 O15 2.242485 1_655
Li3 O2 2.350378 1_555
Li4 O0 2.011957 1_555
Li4 O14 2.049957 1_555
Li4 O3 2.091812 1_555
Li4 O12 2.134451 1_555
Li4 O15 2.242485 1_555
Li4 O1 2.350378 1_555
Li5 O7 2.064590 1_555
Li5 O9 2.097895 1_555
Li5 O10 2.097895 1_555
Li5 O12 2.116109 1_555
Li5 O1 2.297652 1_555
Li5 O2 2.297652 1_555
Li6 O13 2.054341 1_555
Li6 O14 2.054341 1_555
Li6 O0 2.139627 1_565
Li6 O11 2.170417 1_555
Li6 O6 2.316131 1_565
Li6 O5 2.316131 1_565
Mn0 O15 1.917505 1_545
Mn0 O1 1.994051 1_555
Mn0 O2 1.994051 1_455
Mn0 O10 2.044283 1_545
Mn0 O9 2.044283 1_445
Mn0 O4 2.054118 1_555
O0 P0 1.533436 1_555
O1 P0 1.604688 1_555
O2 P0 1.604688 1_555
O3 P3 1.524841 1_545
O4 P2 1.548269 1_555
O5 P1 1.556327 1_555
O6 P1 1.556327 1_555
O7 P1 1.566011 1_554
O8 P2 1.520829 1_556
O9 P2 1.584049 1_655
O10 P2 1.584049 1_555
O11 P1 1.527514 1_555
O12 P0 1.517822 1_565
O13 P3 1.538417 1_655
O14 P3 1.538417 1_555
O15 P3 1.639787 1_555
