# generated using pymatgen
data_TiO2
_symmetry_space_group_name_H-M   'P 1'
_cell_length_a   4.54425708
_cell_length_b   5.51788923
_cell_length_c   14.89646190
_cell_angle_alpha   90.00000000
_cell_angle_beta   90.00000000
_cell_angle_gamma   90.00000000
_symmetry_Int_Tables_number   1
_chemical_formula_structural   TiO2
_chemical_formula_sum   'Ti12 O24'
_cell_volume   373.52442046
_cell_formula_units_Z   12
loop_
 _symmetry_equiv_pos_site_id
 _symmetry_equiv_pos_as_xyz
  1  'x, y, z'
loop_
 _atom_site_type_symbol
 _atom_site_label
 _atom_site_symmetry_multiplicity
 _atom_site_fract_x
 _atom_site_fract_y
 _atom_site_fract_z
 _atom_site_occupancy
  Ti  Ti0  1  0.00033969  0.35775182  0.08398350  1
  Ti  Ti1  1  0.00000000  0.04041822  0.25000000  1
  Ti  Ti2  1  -0.00033969  0.35775182  0.41601650  1
  Ti  Ti3  1  0.00000000  0.95958178  0.75000000  1
  Ti  Ti4  1  0.00033969  0.64224818  0.58398350  1
  Ti  Ti5  1  -0.00033969  0.64224818  0.91601650  1
  Ti  Ti6  1  0.49966031  0.14224818  0.58398350  1
  Ti  Ti7  1  0.50000000  0.54041822  0.25000000  1
  Ti  Ti8  1  0.50000000  0.45958178  0.75000000  1
  Ti  Ti9  1  0.50033969  0.14224818  0.91601650  1
  Ti  Ti10  1  0.50033969  0.85775182  0.41601650  1
  Ti  Ti11  1  0.49966031  0.85775182  0.08398350  1
  O  O0  1  0.20858028  0.63048368  0.02991467  1
  O  O1  1  0.20858028  0.36951632  0.52991467  1
  O  O2  1  0.27444216  0.16574325  0.69555535  1
  O  O3  1  0.27444216  0.83425675  0.19555535  1
  O  O4  1  0.21501086  0.08779210  0.36258244  1
  O  O5  1  0.21501086  0.91220790  0.86258244  1
  O  O6  1  0.28498914  0.58779210  0.36258244  1
  O  O7  1  0.28498914  0.41220790  0.86258244  1
  O  O8  1  0.22555784  0.33425675  0.19555535  1
  O  O9  1  0.22555784  0.66574325  0.69555535  1
  O  O10  1  0.29141972  0.86951632  0.52991467  1
  O  O11  1  0.29141972  0.13048368  0.02991467  1
  O  O12  1  0.70858028  0.13048368  0.47008533  1
  O  O13  1  0.70858028  0.86951632  0.97008533  1
  O  O14  1  0.77444216  0.33425675  0.30444465  1
  O  O15  1  0.77444216  0.66574325  0.80444465  1
  O  O16  1  0.71501086  0.58779210  0.13741756  1
  O  O17  1  0.71501086  0.41220790  0.63741756  1
  O  O18  1  0.78498914  0.08779210  0.13741756  1
  O  O19  1  0.78498914  0.91220790  0.63741756  1
  O  O20  1  0.72555784  0.16574325  0.80444465  1
  O  O21  1  0.72555784  0.83425675  0.30444465  1
  O  O22  1  0.79141972  0.36951632  0.97008533  1
  O  O23  1  0.79141972  0.63048368  0.47008533  1
loop_
_geom_bond_atom_site_label_1
_geom_bond_atom_site_label_2
_geom_bond_distance
_geom_bond_site_symmetry_2
O0 Ti5 1.945320 1_554
O0 Ti0 1.951651 1_555
O0 Ti11 1.992734 1_555
O1 Ti2 1.945320 1_555
O1 Ti4 1.951651 1_555
O1 Ti6 1.992734 1_555
O2 Ti3 1.872752 1_545
O2 Ti6 1.956166 1_555
O2 Ti8 2.082599 1_555
O3 Ti1 1.872752 1_565
O3 Ti11 1.956166 1_555
O3 Ti7 2.082599 1_555
O4 Ti2 1.951970 1_555
O4 Ti1 1.958465 1_555
O4 Ti10 1.981411 1_545
O5 Ti5 1.951970 1_555
O5 Ti3 1.958465 1_555
O5 Ti9 1.981411 1_565
O6 Ti10 1.951970 1_555
O6 Ti7 1.958465 1_555
O6 Ti2 1.981411 1_555
O7 Ti9 1.951970 1_555
O7 Ti8 1.958465 1_555
O7 Ti5 1.981411 1_555
O8 Ti7 1.872752 1_555
O8 Ti0 1.956166 1_555
O8 Ti1 2.082599 1_555
O9 Ti8 1.872752 1_555
O9 Ti4 1.956166 1_555
O9 Ti3 2.082599 1_555
O10 Ti10 1.945320 1_555
O10 Ti6 1.951651 1_565
O10 Ti4 1.992734 1_555
O11 Ti9 1.945320 1_554
O11 Ti11 1.951651 1_545
O11 Ti0 1.992734 1_555
O12 Ti6 1.945320 1_555
O12 Ti10 1.951651 1_545
O12 Ti2 1.992734 1_655
O13 Ti11 1.945320 1_556
O13 Ti9 1.951651 1_565
O13 Ti5 1.992734 1_655
O14 Ti7 1.872752 1_555
O14 Ti2 1.956166 1_655
O14 Ti1 2.082599 1_655
O15 Ti8 1.872752 1_555
O15 Ti5 1.956166 1_655
O15 Ti3 2.082599 1_655
O16 Ti11 1.951970 1_555
O16 Ti7 1.958465 1_555
O16 Ti0 1.981411 1_655
O17 Ti6 1.951970 1_555
O17 Ti8 1.958465 1_555
O17 Ti4 1.981411 1_655
O18 Ti0 1.951970 1_655
O18 Ti1 1.958465 1_655
O18 Ti11 1.981411 1_545
O19 Ti4 1.951970 1_655
O19 Ti3 1.958465 1_655
O19 Ti6 1.981411 1_565
O20 Ti3 1.872752 1_645
O20 Ti9 1.956166 1_555
O20 Ti8 2.082599 1_555
O21 Ti1 1.872752 1_665
O21 Ti10 1.956166 1_555
O21 Ti7 2.082599 1_555
O22 Ti0 1.945320 1_656
O22 Ti5 1.951651 1_655
O22 Ti9 1.992734 1_555
O23 Ti4 1.945320 1_655
O23 Ti2 1.951651 1_655
O23 Ti10 1.992734 1_555
