# generated using pymatgen
data_Li3V(OF)2
_symmetry_space_group_name_H-M   'P 1'
_cell_length_a   5.97059200
_cell_length_b   5.01006200
_cell_length_c   5.11767763
_cell_angle_alpha   72.23932830
_cell_angle_beta   90.00000000
_cell_angle_gamma   90.00000000
_symmetry_Int_Tables_number   1
_chemical_formula_structural   Li3V(OF)2
_chemical_formula_sum   'Li6 V2 O4 F4'
_cell_volume   145.78907846
_cell_formula_units_Z   2
loop_
 _symmetry_equiv_pos_site_id
 _symmetry_equiv_pos_as_xyz
  1  'x, y, z'
loop_
 _atom_site_type_symbol
 _atom_site_label
 _atom_site_symmetry_multiplicity
 _atom_site_fract_x
 _atom_site_fract_y
 _atom_site_fract_z
 _atom_site_occupancy
  Li  Li0  1  0.11468700  0.25000000  0.50000000  1
  Li  Li1  1  0.64139600  0.25000000  0.50000000  1
  Li  Li2  1  0.37508000  0.25000000  0.00000000  1
  Li  Li3  1  0.35860400  0.75000000  0.50000000  1
  Li  Li4  1  0.88531300  0.75000000  0.50000000  1
  Li  Li5  1  0.62492000  0.75000000  0.00000000  1
  V  V0  1  0.90164300  0.25000000  0.00000000  1
  V  V1  1  0.09835700  0.75000000  0.00000000  1
  O  O0  1  0.87078000  0.00360400  0.76285700  1
  O  O1  1  0.87078000  0.49639600  0.23714300  1
  O  O2  1  0.12922000  0.50360400  0.76285700  1
  O  O3  1  0.12922000  0.99639600  0.23714300  1
  F  F0  1  0.62867600  0.00733500  0.24496200  1
  F  F1  1  0.37132400  0.50733500  0.24496200  1
  F  F2  1  0.62867600  0.49266500  0.75503800  1
  F  F3  1  0.37132400  0.99266500  0.75503800  1
loop_
_geom_bond_atom_site_label_1
_geom_bond_atom_site_label_2
_geom_bond_distance
_geom_bond_site_symmetry_2
Li0 O0 2.107393 1_455
Li0 O1 2.107393 1_455
Li0 O2 2.115241 1_555
Li0 O3 2.115241 1_545
Li1 O0 2.048432 1_555
Li1 O1 2.048432 1_555
Li2 O2 2.073958 1_554
Li2 O3 2.073958 1_545
Li3 O3 2.048432 1_555
Li3 O2 2.048432 1_555
Li4 O3 2.107393 1_655
Li4 O2 2.107393 1_655
Li4 O0 2.115241 1_565
Li4 O1 2.115241 1_555
Li5 O0 2.073958 1_564
Li5 O1 2.073958 1_555
O0 V0 1.986134 1_556
O0 V1 1.998184 1_646
O1 V0 1.986134 1_555
O1 V1 1.998184 1_655
O2 V1 1.986134 1_556
O2 V0 1.998184 1_456
O3 V1 1.986134 1_555
O3 V0 1.998184 1_465
F0 Li1 2.038505 1_555
F0 Li5 2.054354 1_545
F0 Li2 2.100572 1_555
F0 Li4 2.164949 1_545
F0 V0 2.185409 1_555
F0 Li3 2.222445 1_545
F1 Li3 2.038505 1_555
F1 Li2 2.054354 1_555
F1 Li5 2.100572 1_555
F1 Li0 2.164949 1_555
F1 V1 2.185409 1_555
F1 Li1 2.222445 1_555
F2 Li1 2.038505 1_555
F2 Li5 2.054354 1_556
F2 Li2 2.100572 1_556
F2 Li4 2.164949 1_555
F2 V0 2.185409 1_556
F2 Li3 2.222445 1_555
F3 Li3 2.038505 1_555
F3 Li2 2.054354 1_566
F3 Li5 2.100572 1_556
F3 Li0 2.164949 1_565
F3 V1 2.185409 1_556
F3 Li1 2.222445 1_565
