# generated using pymatgen
data_Li4MnH6(S2O9)2
_symmetry_space_group_name_H-M   'P 1'
_cell_length_a   7.54007500
_cell_length_b   10.29308800
_cell_length_c   19.58856400
_cell_angle_alpha   90.00000000
_cell_angle_beta   90.00000000
_cell_angle_gamma   90.00000000
_symmetry_Int_Tables_number   1
_chemical_formula_structural   Li4MnH6(S2O9)2
_chemical_formula_sum   'Li16 Mn4 H24 S16 O72'
_cell_volume   1520.28129238
_cell_formula_units_Z   4
loop_
 _symmetry_equiv_pos_site_id
 _symmetry_equiv_pos_as_xyz
  1  'x, y, z'
loop_
 _atom_site_type_symbol
 _atom_site_label
 _atom_site_symmetry_multiplicity
 _atom_site_fract_x
 _atom_site_fract_y
 _atom_site_fract_z
 _atom_site_occupancy
  Li  Li0  1  0.03451200  0.21048200  0.83710000  1
  Li  Li1  1  0.03451200  0.71048200  0.66290000  1
  Li  Li2  1  0.14473400  0.22424200  0.02185900  1
  Li  Li3  1  0.14473400  0.72424200  0.47814100  1
  Li  Li4  1  0.35526600  0.72424200  0.02185900  1
  Li  Li5  1  0.35526600  0.22424200  0.47814100  1
  Li  Li6  1  0.46548800  0.71048200  0.83710000  1
  Li  Li7  1  0.46548800  0.21048200  0.66290000  1
  Li  Li8  1  0.53451200  0.78951800  0.33710000  1
  Li  Li9  1  0.53451200  0.28951800  0.16290000  1
  Li  Li10  1  0.64473400  0.27575800  0.97814100  1
  Li  Li11  1  0.64473400  0.77575800  0.52185900  1
  Li  Li12  1  0.85526600  0.27575800  0.52185900  1
  Li  Li13  1  0.85526600  0.77575800  0.97814100  1
  Li  Li14  1  0.96548800  0.28951800  0.33710000  1
  Li  Li15  1  0.96548800  0.78951800  0.16290000  1
  Mn  Mn0  1  0.25000000  0.15324700  0.25000000  1
  Mn  Mn1  1  0.25000000  0.65324700  0.25000000  1
  Mn  Mn2  1  0.75000000  0.34675300  0.75000000  1
  Mn  Mn3  1  0.75000000  0.84675300  0.75000000  1
  H  H0  1  0.06331300  0.43901400  0.77974200  1
  H  H1  1  0.06331300  0.93901400  0.72025800  1
  H  H2  1  0.09749900  0.34900800  0.71597800  1
  H  H3  1  0.09749900  0.84900800  0.78402200  1
  H  H4  1  0.09234000  0.05869100  0.55897000  1
  H  H5  1  0.09234000  0.55869100  0.94103000  1
  H  H6  1  0.40766000  0.55869100  0.55897000  1
  H  H7  1  0.40766000  0.05869100  0.94103000  1
  H  H8  1  0.40250100  0.84900800  0.71597800  1
  H  H9  1  0.40250100  0.34900800  0.78402200  1
  H  H10  1  0.43668700  0.43901400  0.72025800  1
  H  H11  1  0.43668700  0.93901400  0.77974200  1
  H  H12  1  0.56331300  0.06098600  0.22025800  1
  H  H13  1  0.56331300  0.56098600  0.27974200  1
  H  H14  1  0.59749900  0.65099200  0.21597800  1
  H  H15  1  0.59749900  0.15099200  0.28402200  1
  H  H16  1  0.59234000  0.94130900  0.05897000  1
  H  H17  1  0.59234000  0.44130900  0.44103000  1
  H  H18  1  0.90766000  0.44130900  0.05897000  1
  H  H19  1  0.90766000  0.94130900  0.44103000  1
  H  H20  1  0.90250100  0.65099200  0.28402200  1
  H  H21  1  0.90250100  0.15099200  0.21597800  1
  H  H22  1  0.93668700  0.56098600  0.22025800  1
  H  H23  1  0.93668700  0.06098600  0.27974200  1
  S  S0  1  0.14253900  0.40781400  0.15295900  1
  S  S1  1  0.14253900  0.90781400  0.34704000  1
  S  S2  1  0.22004500  0.39714600  0.57247200  1
  S  S3  1  0.22004500  0.89714600  0.92752800  1
  S  S4  1  0.27995500  0.39714600  0.92752800  1
  S  S5  1  0.27995500  0.89714600  0.57247200  1
  S  S6  1  0.35746100  0.90781400  0.15295900  1
  S  S7  1  0.35746100  0.40781400  0.34704000  1
  S  S8  1  0.64253900  0.59218600  0.65296000  1
  S  S9  1  0.64253900  0.09218600  0.84704000  1
  S  S10  1  0.72004500  0.60285400  0.07247200  1
  S  S11  1  0.72004500  0.10285400  0.42752800  1
  S  S12  1  0.77995500  0.10285400  0.07247200  1
  S  S13  1  0.77995500  0.60285400  0.42752800  1
  S  S14  1  0.85746100  0.09218600  0.65296000  1
  S  S15  1  0.85746100  0.59218600  0.84704000  1
  O  O0  1  0.01374900  0.09652100  0.69890900  1
  O  O1  1  0.01374900  0.59652100  0.80109100  1
  O  O2  1  0.04723700  0.34785800  0.76269000  1
  O  O3  1  0.04723700  0.84785800  0.73731000  1
  O  O4  1  0.12235900  0.81264300  0.58263800  1
  O  O5  1  0.12235900  0.31264300  0.91736200  1
  O  O6  1  0.08628000  0.37934700  0.08146600  1
  O  O7  1  0.08628000  0.87934700  0.41853400  1
  O  O8  1  0.10402400  0.34070800  0.52020600  1
  O  O9  1  0.10402400  0.84070800  0.97979400  1
  O  O10  1  0.13077200  0.43109600  0.63639600  1
  O  O11  1  0.13077200  0.93109600  0.86360400  1
  O  O12  1  0.21276200  0.02830800  0.53929600  1
  O  O13  1  0.21276200  0.52830800  0.96070400  1
  O  O14  1  0.27610400  0.80584500  0.32727600  1
  O  O15  1  0.27610400  0.30584500  0.17272400  1
  O  O16  1  0.23064600  0.03681800  0.34316900  1
  O  O17  1  0.23064600  0.53681800  0.15683100  1
  O  O18  1  0.26935400  0.03681800  0.15683100  1
  O  O19  1  0.26935400  0.53681800  0.34316900  1
  O  O20  1  0.22389600  0.80584500  0.17272400  1
  O  O21  1  0.22389600  0.30584500  0.32727600  1
  O  O22  1  0.28723800  0.52830800  0.53929600  1
  O  O23  1  0.28723800  0.02830800  0.96070400  1
  O  O24  1  0.36922800  0.43109600  0.86360400  1
  O  O25  1  0.36922800  0.93109600  0.63639600  1
  O  O26  1  0.39597600  0.84070800  0.52020600  1
  O  O27  1  0.39597600  0.34070800  0.97979400  1
  O  O28  1  0.41372000  0.87934700  0.08146600  1
  O  O29  1  0.41372000  0.37934700  0.41853400  1
  O  O30  1  0.37764100  0.31264300  0.58263800  1
  O  O31  1  0.37764100  0.81264300  0.91736200  1
  O  O32  1  0.45276300  0.34785800  0.73731000  1
  O  O33  1  0.45276300  0.84785800  0.76269000  1
  O  O34  1  0.48625100  0.09652100  0.80109100  1
  O  O35  1  0.48625100  0.59652100  0.69890900  1
  O  O36  1  0.51374900  0.90347900  0.19890900  1
  O  O37  1  0.51374900  0.40347900  0.30109100  1
  O  O38  1  0.54723700  0.65214200  0.26269000  1
  O  O39  1  0.54723700  0.15214200  0.23731000  1
  O  O40  1  0.62235900  0.18735700  0.08263800  1
  O  O41  1  0.62235900  0.68735700  0.41736200  1
  O  O42  1  0.58628000  0.62065300  0.58146600  1
  O  O43  1  0.58628000  0.12065300  0.91853400  1
  O  O44  1  0.60402400  0.65929200  0.02020600  1
  O  O45  1  0.60402400  0.15929200  0.47979400  1
  O  O46  1  0.63077200  0.56890400  0.13639600  1
  O  O47  1  0.63077200  0.06890400  0.36360400  1
  O  O48  1  0.71276200  0.97169200  0.03929600  1
  O  O49  1  0.71276200  0.47169200  0.46070400  1
  O  O50  1  0.77610400  0.19415500  0.82727600  1
  O  O51  1  0.77610400  0.69415500  0.67272400  1
  O  O52  1  0.73064600  0.46318200  0.65683100  1
  O  O53  1  0.73064600  0.96318200  0.84316900  1
  O  O54  1  0.76935400  0.46318200  0.84316900  1
  O  O55  1  0.76935400  0.96318200  0.65683100  1
  O  O56  1  0.72389600  0.19415500  0.67272400  1
  O  O57  1  0.72389600  0.69415500  0.82727600  1
  O  O58  1  0.78723800  0.47169200  0.03929600  1
  O  O59  1  0.78723800  0.97169200  0.46070400  1
  O  O60  1  0.86922800  0.06890400  0.13639600  1
  O  O61  1  0.86922800  0.56890400  0.36360400  1
  O  O62  1  0.89597600  0.65929200  0.47979400  1
  O  O63  1  0.89597600  0.15929200  0.02020600  1
  O  O64  1  0.91372000  0.12065300  0.58146600  1
  O  O65  1  0.91372000  0.62065300  0.91853400  1
  O  O66  1  0.87764100  0.68735700  0.08263800  1
  O  O67  1  0.87764100  0.18735700  0.41736200  1
  O  O68  1  0.95276300  0.65214200  0.23731000  1
  O  O69  1  0.95276300  0.15214200  0.26269000  1
  O  O70  1  0.98625100  0.40347900  0.19890900  1
  O  O71  1  0.98625100  0.90347900  0.30109100  1
loop_
_geom_bond_atom_site_label_1
_geom_bond_atom_site_label_2
_geom_bond_distance
_geom_bond_site_symmetry_2
Li0 O50 1.965095 1_455
Li0 O5 2.004088 1_555
Li0 O2 2.033033 1_555
Li1 O51 1.965095 1_455
Li1 O4 2.004088 1_555
Li1 O3 2.033033 1_555
Li2 O63 1.991499 1_455
Li2 O6 2.026432 1_555
Li2 O5 2.246420 1_554
Li2 O27 2.388464 1_554
Li2 O23 2.580103 1_554
Li3 O62 1.991499 1_455
Li3 O7 2.026432 1_555
Li3 O4 2.246420 1_555
Li3 O26 2.388464 1_555
Li3 O22 2.580103 1_555
Li4 O44 1.991499 1_555
Li4 O28 2.026432 1_555
Li4 O31 2.246420 1_554
Li4 O9 2.388464 1_554
Li4 O13 2.580103 1_554
Li5 O45 1.991499 1_555
Li5 O29 2.026432 1_555
Li5 O30 2.246420 1_555
Li5 O8 2.388464 1_555
Li5 O12 2.580103 1_555
Li6 O57 1.965095 1_555
Li6 O31 2.004088 1_555
Li6 O33 2.033033 1_555
Li7 O56 1.965095 1_555
Li7 O30 2.004088 1_555
Li7 O32 2.033033 1_555
Li8 O14 1.965095 1_555
Li8 O41 2.004088 1_555
Li8 O38 2.033033 1_555
Li9 O15 1.965095 1_555
Li9 O40 2.004088 1_555
Li9 O39 2.033033 1_555
Li10 O27 1.991499 1_555
Li10 O43 2.026432 1_555
Li10 O40 2.246420 1_556
Li10 O63 2.388464 1_556
Li10 O58 2.580103 1_556
Li11 O26 1.991499 1_555
Li11 O42 2.026432 1_555
Li11 O41 2.246420 1_555
Li11 O62 2.388464 1_555
Li11 O59 2.580103 1_555
Li12 O8 1.991499 1_655
Li12 O64 2.026432 1_555
Li12 O67 2.246420 1_555
Li12 O45 2.388464 1_555
Li12 O49 2.580103 1_555
Li13 O9 1.991499 1_655
Li13 O65 2.026432 1_555
Li13 O66 2.246420 1_556
Li13 O44 2.388464 1_556
Li13 O48 2.580103 1_556
Li14 O21 1.965095 1_655
Li14 O67 2.004088 1_555
Li14 O69 2.033033 1_555
Li15 O20 1.965095 1_655
Li15 O66 2.004088 1_555
Li15 O68 2.033033 1_555
Mn0 O18 2.188216 1_555
Mn0 O16 2.188216 1_555
Mn0 O21 2.190256 1_555
Mn0 O15 2.190256 1_555
Mn0 O39 2.254961 1_555
Mn0 O69 2.254961 1_455
Mn1 O19 2.188216 1_555
Mn1 O17 2.188216 1_555
Mn1 O14 2.190256 1_555
Mn1 O20 2.190256 1_555
Mn1 O38 2.254961 1_555
Mn1 O68 2.254961 1_455
Mn2 O52 2.188216 1_555
Mn2 O54 2.188216 1_555
Mn2 O56 2.190256 1_555
Mn2 O50 2.190256 1_555
Mn2 O32 2.254961 1_555
Mn2 O2 2.254961 1_655
Mn3 O55 2.188216 1_555
Mn3 O53 2.188216 1_555
Mn3 O57 2.190256 1_555
Mn3 O51 2.190256 1_555
Mn3 O3 2.254961 1_655
Mn3 O33 2.254961 1_555
H0 O2 1.003309 1_555
H0 O1 1.715503 1_555
H1 O3 1.003309 1_555
H1 O0 1.715503 1_565
H2 O2 0.990469 1_555
H3 O3 0.990469 1_555
H4 O12 1.034781 1_555
H4 O64 1.553976 1_455
H5 O13 1.034781 1_555
H5 O65 1.553976 1_455
H6 O22 1.034781 1_555
H6 O42 1.553976 1_555
H7 O23 1.034781 1_555
H7 O43 1.553976 1_555
H8 O33 0.990469 1_555
H9 O32 0.990469 1_555
H10 O32 1.003309 1_555
H10 O35 1.715503 1_555
H11 O33 1.003309 1_555
H11 O34 1.715503 1_565
H12 O39 1.003309 1_555
H12 O36 1.715503 1_545
H13 O38 1.003309 1_555
H13 O37 1.715503 1_555
H14 O38 0.990469 1_555
H15 O39 0.990469 1_555
H16 O48 1.034781 1_555
H16 O28 1.553976 1_555
H17 O49 1.034781 1_555
H17 O29 1.553976 1_555
H18 O58 1.034781 1_555
H18 O6 1.553976 1_655
H19 O59 1.034781 1_555
H19 O7 1.553976 1_655
H20 O68 0.990469 1_555
H21 O69 0.990469 1_555
H22 O68 1.003309 1_555
H22 O70 1.715503 1_555
H23 O69 1.003309 1_555
H23 O71 1.715503 1_545
O0 S14 1.483512 1_455
O1 S15 1.483512 1_455
O4 S5 1.486010 1_555
O5 S4 1.486010 1_555
O6 S0 1.492329 1_555
O7 S1 1.492348 1_555
O8 S2 1.466614 1_555
O9 S3 1.466614 1_555
O10 S2 1.463956 1_555
O11 S3 1.463956 1_555
O12 S5 1.581671 1_545
O13 S4 1.581671 1_555
O14 S1 1.505232 1_555
O15 S0 1.505237 1_555
O16 S1 1.486699 1_545
O17 S0 1.486700 1_555
O18 S6 1.486700 1_545
O19 S7 1.486699 1_555
O20 S6 1.505237 1_555
O21 S7 1.505232 1_555
O22 S2 1.581671 1_555
O23 S3 1.581671 1_545
O24 S4 1.463956 1_555
O25 S5 1.463956 1_555
O26 S5 1.466614 1_555
O27 S4 1.466614 1_555
O28 S6 1.492329 1_555
O29 S7 1.492348 1_555
O30 S2 1.486010 1_555
O31 S3 1.486010 1_555
O34 S9 1.483512 1_555
O35 S8 1.483512 1_555
O36 S6 1.483524 1_555
O37 S7 1.483512 1_555
O40 S12 1.486010 1_555
O41 S13 1.486010 1_555
O42 S8 1.492348 1_555
O43 S9 1.492348 1_555
O44 S10 1.466614 1_555
O45 S11 1.466614 1_555
O46 S10 1.463956 1_555
O47 S11 1.463956 1_555
O48 S12 1.581671 1_565
O49 S13 1.581671 1_555
O50 S9 1.505232 1_555
O51 S8 1.505232 1_555
O52 S8 1.486699 1_555
O53 S9 1.486699 1_565
O54 S15 1.486699 1_555
O55 S14 1.486699 1_565
O56 S14 1.505232 1_555
O57 S15 1.505232 1_555
O58 S10 1.581671 1_555
O59 S11 1.581671 1_565
O60 S12 1.463956 1_555
O61 S13 1.463956 1_555
O62 S13 1.466614 1_555
O63 S12 1.466614 1_555
O64 S14 1.492348 1_555
O65 S15 1.492348 1_555
O66 S10 1.486010 1_555
O67 S11 1.486010 1_555
O70 S0 1.483524 1_655
O71 S1 1.483512 1_655
