# generated using pymatgen
data_Li6FeO4F
_symmetry_space_group_name_H-M   'P 1'
_cell_length_a   9.60188600
_cell_length_b   5.00596200
_cell_length_c   5.30453838
_cell_angle_alpha   63.11372524
_cell_angle_beta   90.00000000
_cell_angle_gamma   90.00000000
_symmetry_Int_Tables_number   1
_chemical_formula_structural   Li6FeO4F
_chemical_formula_sum   'Li12 Fe2 O8 F2'
_cell_volume   227.41060819
_cell_formula_units_Z   2
loop_
 _symmetry_equiv_pos_site_id
 _symmetry_equiv_pos_as_xyz
  1  'x, y, z'
loop_
 _atom_site_type_symbol
 _atom_site_label
 _atom_site_symmetry_multiplicity
 _atom_site_fract_x
 _atom_site_fract_y
 _atom_site_fract_z
 _atom_site_occupancy
  Li  Li0  1  0.25512000  0.42142900  0.39791300  1
  Li  Li1  1  0.75578600  0.19864600  0.38007300  1
  Li  Li2  1  0.99928100  0.74332000  0.48028200  1
  Li  Li3  1  0.49340900  0.77502800  0.43515400  1
  Li  Li4  1  0.99340900  0.22497200  0.56484600  1
  Li  Li5  1  0.49928100  0.25668000  0.51971800  1
  Li  Li6  1  0.75512000  0.57857100  0.60208700  1
  Li  Li7  1  0.25578600  0.80135400  0.61992700  1
  Li  Li8  1  0.55411300  0.27814700  0.02164800  1
  Li  Li9  1  0.93786300  0.33412300  0.00682100  1
  Li  Li10  1  0.05411300  0.72185300  0.97835200  1
  Li  Li11  1  0.43786300  0.66587700  0.99317900  1
  Fe  Fe0  1  0.26166300  0.18536100  0.98924000  1
  Fe  Fe1  1  0.76166300  0.81463900  0.01076000  1
  O  O0  1  0.90117100  0.55979300  0.28199200  1
  O  O1  1  0.60599800  0.58519000  0.24682800  1
  O  O2  1  0.37998800  0.14073200  0.30246800  1
  O  O3  1  0.87998800  0.85926800  0.69753200  1
  O  O4  1  0.40117100  0.44020700  0.71800800  1
  O  O5  1  0.10599800  0.41481000  0.75317200  1
  O  O6  1  0.74989300  0.20651200  0.98934200  1
  O  O7  1  0.24989300  0.79348800  0.01065800  1
  F  F0  1  0.10571700  0.10109200  0.34315700  1
  F  F1  1  0.60571700  0.89890800  0.65684300  1
loop_
_geom_bond_atom_site_label_1
_geom_bond_atom_site_label_2
_geom_bond_distance
_geom_bond_site_symmetry_2
Li0 O7 2.056906 1_555
Li0 O2 2.076479 1_555
Li0 O4 2.236712 1_555
Li0 O5 2.355018 1_555
Li1 O6 2.055919 1_554
Li1 O3 2.134658 1_545
Li1 O0 2.153407 1_555
Li1 O1 2.252878 1_555
Li2 O3 1.892606 1_555
Li2 O5 1.922697 1_655
Li2 O0 1.926623 1_555
Li3 O4 1.889553 1_555
Li3 O2 1.966597 1_565
Li3 O1 1.982024 1_555
Li4 O0 1.889553 1_555
Li4 O3 1.966597 1_545
Li4 O5 1.982024 1_655
Li5 O2 1.892606 1_555
Li5 O1 1.922697 1_555
Li5 O4 1.926623 1_555
Li6 O6 2.056906 1_555
Li6 O3 2.076479 1_555
Li6 O0 2.236712 1_555
Li6 O1 2.355018 1_555
Li7 O7 2.055919 1_556
Li7 O2 2.134658 1_565
Li7 O4 2.153407 1_555
Li7 O5 2.252878 1_555
Li8 O6 1.935822 1_554
Li8 O4 2.056010 1_554
Li8 O2 2.135586 1_555
Li8 O1 2.387049 1_555
Li9 O6 1.930750 1_554
Li9 O5 2.021952 1_654
Li9 O0 2.241054 1_555
Li9 O3 2.451638 1_554
Li10 O7 1.935822 1_556
Li10 O0 2.056010 1_456
Li10 O3 2.135586 1_455
Li10 O5 2.387049 1_555
Li11 O7 1.930750 1_556
Li11 O1 2.021952 1_556
Li11 O4 2.241054 1_555
Li11 O2 2.451638 1_556
Fe0 O7 1.916344 1_546
Fe0 O2 1.940537 1_556
Fe0 O5 1.954628 1_555
Fe0 O4 1.957507 1_555
Fe1 O6 1.916344 1_564
Fe1 O3 1.940537 1_554
Fe1 O1 1.954628 1_555
Fe1 O0 1.957507 1_555
F0 Li4 1.894703 1_455
F0 Li2 1.898143 1_445
F0 Li7 2.119146 1_545
F0 Li0 2.266072 1_555
F0 Fe0 2.286550 1_554
F0 Li9 2.293279 1_455
F1 Li3 1.894703 1_555
F1 Li5 1.898143 1_565
F1 Li1 2.119146 1_565
F1 Li6 2.266072 1_555
F1 Fe1 2.286550 1_556
F1 Li11 2.293279 1_555
