# generated using pymatgen
data_La2HfO5
_symmetry_space_group_name_H-M   'P 1'
_cell_length_a   6.90237858
_cell_length_b   6.90237858
_cell_length_c   7.89887913
_cell_angle_alpha   68.29443448
_cell_angle_beta   68.29443448
_cell_angle_gamma   48.41483504
_symmetry_Int_Tables_number   1
_chemical_formula_structural   La2HfO5
_chemical_formula_sum   'La4 Hf2 O10'
_cell_volume   257.30010482
_cell_formula_units_Z   2
loop_
 _symmetry_equiv_pos_site_id
 _symmetry_equiv_pos_as_xyz
  1  'x, y, z'
loop_
 _atom_site_type_symbol
 _atom_site_label
 _atom_site_symmetry_multiplicity
 _atom_site_fract_x
 _atom_site_fract_y
 _atom_site_fract_z
 _atom_site_occupancy
  La  La0  1  0.36938200  0.34272400  0.76852000  1
  La  La1  1  0.34272400  0.36938200  0.26852000  1
  La  La2  1  0.65727600  0.63061800  0.73148000  1
  La  La3  1  0.63061800  0.65727600  0.23148000  1
  Hf  Hf0  1  0.00000000  0.00000000  0.50000000  1
  Hf  Hf1  1  0.00000000  0.00000000  0.00000000  1
  O  O0  1  0.23993800  0.61062200  0.96707200  1
  O  O1  1  0.61062200  0.23993800  0.46707200  1
  O  O2  1  0.98950800  0.67817800  0.63441500  1
  O  O3  1  0.32182200  0.01049200  0.86558500  1
  O  O4  1  0.67817800  0.98950800  0.13441500  1
  O  O5  1  0.01049200  0.32182200  0.36558500  1
  O  O6  1  0.38937800  0.76006200  0.53292800  1
  O  O7  1  0.84295600  0.15704400  0.75000000  1
  O  O8  1  0.76006200  0.38937800  0.03292800  1
  O  O9  1  0.15704400  0.84295600  0.25000000  1
loop_
_geom_bond_atom_site_label_1
_geom_bond_atom_site_label_2
_geom_bond_distance
_geom_bond_site_symmetry_2
La0 O3 2.338158 1_555
La0 O2 2.353585 1_455
La0 O0 2.364894 1_555
La0 O1 2.386271 1_555
La0 O7 2.563722 1_555
La0 O6 2.855303 1_555
La1 O5 2.338158 1_555
La1 O4 2.353585 1_545
La1 O1 2.364894 1_555
La1 O0 2.386271 1_554
La1 O9 2.563722 1_555
La1 O8 2.855303 1_555
La2 O2 2.338158 1_555
La2 O3 2.353585 1_565
La2 O6 2.364894 1_555
La2 O8 2.386271 1_556
La2 O7 2.563722 1_555
La2 O0 2.855303 1_555
La3 O4 2.338158 1_555
La3 O5 2.353585 1_655
La3 O8 2.364894 1_555
La3 O6 2.386271 1_555
La3 O9 2.563722 1_555
La3 O1 2.855303 1_555
Hf0 O6 2.079325 1_545
Hf0 O1 2.079325 1_455
Hf0 O5 2.116373 1_555
Hf0 O2 2.116373 1_445
Hf0 O7 2.165583 1_455
Hf0 O9 2.165583 1_545
Hf1 O8 2.079325 1_455
Hf1 O0 2.079325 1_544
Hf1 O3 2.116373 1_554
Hf1 O4 2.116373 1_445
Hf1 O9 2.165583 1_545
Hf1 O7 2.165583 1_454
