# generated using pymatgen
data_NaSc(SiO3)2
_symmetry_space_group_name_H-M   'P 1'
_cell_length_a   6.77819937
_cell_length_b   6.77819937
_cell_length_c   5.42133879
_cell_angle_alpha   77.10823919
_cell_angle_beta   77.10823919
_cell_angle_gamma   84.95283882
_symmetry_Int_Tables_number   1
_chemical_formula_structural   NaSc(SiO3)2
_chemical_formula_sum   'Na2 Sc2 Si4 O12'
_cell_volume   236.48799885
_cell_formula_units_Z   2
loop_
 _symmetry_equiv_pos_site_id
 _symmetry_equiv_pos_as_xyz
  1  'x, y, z'
loop_
 _atom_site_type_symbol
 _atom_site_label
 _atom_site_symmetry_multiplicity
 _atom_site_fract_x
 _atom_site_fract_y
 _atom_site_fract_z
 _atom_site_occupancy
  Na  Na0  1  0.30025600  0.69974400  0.25000000  1
  Na  Na1  1  0.69974400  0.30025600  0.75000000  1
  Sc  Sc0  1  0.89443000  0.10557000  0.25000000  1
  Sc  Sc1  1  0.10557000  0.89443000  0.75000000  1
  Si  Si0  1  0.37709200  0.20374000  0.25524800  1
  Si  Si1  1  0.20374000  0.37709200  0.75524800  1
  Si  Si2  1  0.79626000  0.62290800  0.24475200  1
  Si  Si3  1  0.62290800  0.79626000  0.74475200  1
  O  O0  1  0.35324100  0.34519600  0.47577700  1
  O  O1  1  0.65480400  0.64675900  0.02422300  1
  O  O2  1  0.64675900  0.65480400  0.52422300  1
  O  O3  1  0.34519600  0.35324100  0.97577700  1
  O  O4  1  0.60727400  0.11357500  0.19603500  1
  O  O5  1  0.88642500  0.39272600  0.30396500  1
  O  O6  1  0.39272600  0.88642500  0.80396500  1
  O  O7  1  0.11357500  0.60727400  0.69603500  1
  O  O8  1  0.03941100  0.19700400  0.85448900  1
  O  O9  1  0.80299600  0.96058900  0.64551100  1
  O  O10  1  0.96058900  0.80299600  0.14551100  1
  O  O11  1  0.19700400  0.03941100  0.35448900  1
loop_
_geom_bond_atom_site_label_1
_geom_bond_atom_site_label_2
_geom_bond_distance
_geom_bond_site_symmetry_2
Na0 O7 2.437036 1_555
Na0 O6 2.437036 1_554
Na0 O0 2.476745 1_555
Na0 O1 2.476745 1_555
Na0 O10 2.496591 1_455
Na0 O11 2.496591 1_565
Na1 O4 2.437036 1_556
Na1 O5 2.437036 1_555
Na1 O3 2.476745 1_555
Na1 O2 2.476745 1_555
Na1 O9 2.496591 1_545
Na1 O8 2.496591 1_655
O0 Si0 1.665181 1_555
O0 Si1 1.670834 1_555
O1 Si2 1.665181 1_555
O1 Si3 1.670834 1_554
O2 Si3 1.665181 1_555
O2 Si2 1.670834 1_555
O3 Si1 1.665181 1_555
O3 Si0 1.670834 1_556
O4 Si0 1.614659 1_555
O4 Sc0 2.026189 1_555
O5 Si2 1.614659 1_555
O5 Sc0 2.026189 1_555
O6 Si3 1.614659 1_555
O6 Sc1 2.026189 1_555
O7 Si1 1.614659 1_555
O7 Sc1 2.026189 1_555
O8 Si1 1.642848 1_555
O8 Sc0 2.126348 1_456
O8 Sc1 2.229672 1_545
O9 Si3 1.642848 1_555
O9 Sc0 2.126348 1_565
O9 Sc1 2.229672 1_655
O10 Si2 1.642848 1_555
O10 Sc1 2.126348 1_654
O10 Sc0 2.229672 1_565
O11 Si0 1.642848 1_555
O11 Sc1 2.126348 1_545
O11 Sc0 2.229672 1_455
