# generated using pymatgen
data_Li2(FeO2)3
_symmetry_space_group_name_H-M   'P 1'
_cell_length_a   5.12841834
_cell_length_b   5.13666016
_cell_length_c   10.51394251
_cell_angle_alpha   89.38539460
_cell_angle_beta   76.27657092
_cell_angle_gamma   119.40953599
_symmetry_Int_Tables_number   1
_chemical_formula_structural   Li2(FeO2)3
_chemical_formula_sum   'Li4 Fe6 O12'
_cell_volume   231.72427103
_cell_formula_units_Z   2
loop_
 _symmetry_equiv_pos_site_id
 _symmetry_equiv_pos_as_xyz
  1  'x, y, z'
loop_
 _atom_site_type_symbol
 _atom_site_label
 _atom_site_symmetry_multiplicity
 _atom_site_fract_x
 _atom_site_fract_y
 _atom_site_fract_z
 _atom_site_occupancy
  Li  Li0  1  0.15315600  0.74515500  0.74176300  1
  Li  Li1  1  0.48794700  0.57363800  0.24172700  1
  Li  Li2  1  0.84383300  0.24179400  0.24343900  1
  Li  Li3  1  0.83417300  0.07619800  0.74325100  1
  Fe  Fe0  1  0.01991600  0.83838600  0.48192800  1
  Fe  Fe1  1  0.99684400  0.66610100  0.00727300  1
  Fe  Fe2  1  0.33020700  0.50053100  0.50769000  1
  Fe  Fe3  1  0.34771900  0.34776400  0.98178400  1
  Fe  Fe4  1  0.66555900  0.16859500  0.50660000  1
  Fe  Fe5  1  0.65928000  0.00135400  0.00720100  1
  O  O0  1  0.91106800  0.96817500  0.10729300  1
  O  O1  1  0.60728400  0.82553200  0.60662200  1
  O  O2  1  0.42382800  0.86695400  0.38912800  1
  O  O3  1  0.75631600  0.72697100  0.89039100  1
  O  O4  1  0.26254000  0.61319000  0.10724900  1
  O  O5  1  0.94077900  0.47086700  0.61036300  1
  O  O6  1  0.72334500  0.50967500  0.39857000  1
  O  O7  1  0.05920400  0.37375600  0.89023200  1
  O  O8  1  0.59770500  0.30521400  0.10823600  1
  O  O9  1  0.25998500  0.11595700  0.60479900  1
  O  O10  1  0.06214700  0.21416700  0.39393100  1
  O  O11  1  0.41227100  0.02758200  0.89745800  1
loop_
_geom_bond_atom_site_label_1
_geom_bond_atom_site_label_2
_geom_bond_distance
_geom_bond_site_symmetry_2
Li0 O5 2.080527 1_455
Li0 O9 2.131588 1_565
Li0 O3 2.212185 1_455
Li0 O7 2.232683 1_555
Li0 O1 2.255294 1_555
Li0 O11 2.395808 1_565
Li1 O4 2.092043 1_555
Li1 O8 2.148647 1_555
Li1 O0 2.231140 1_555
Li1 O10 2.248876 1_555
Li1 O2 2.252733 1_555
Li1 O6 2.367937 1_555
Li2 O0 2.104331 1_545
Li2 O4 2.181759 1_655
Li2 O10 2.183797 1_655
Li2 O8 2.228306 1_555
Li2 O2 2.234133 1_545
Li2 O6 2.310954 1_555
Li3 O1 2.106354 1_545
Li3 O3 2.171310 1_545
Li3 O5 2.202081 1_555
Li3 O9 2.230874 1_655
Li3 O11 2.273501 1_555
Li3 O7 2.284870 1_655
Fe0 O2 2.000947 1_555
Fe0 O6 2.018524 1_455
Fe0 O10 2.021099 1_565
Fe0 O9 2.070690 1_565
Fe0 O5 2.117752 1_455
Fe0 O1 2.178491 1_455
Fe1 O8 1.988326 1_555
Fe1 O4 2.018069 1_655
Fe1 O0 2.047649 1_555
Fe1 O7 2.048454 1_654
Fe1 O3 2.054093 1_554
Fe1 O11 2.054648 1_664
Fe2 O5 1.962607 1_455
Fe2 O2 2.026139 1_555
Fe2 O9 2.039127 1_555
Fe2 O6 2.047378 1_555
Fe2 O1 2.072890 1_555
Fe2 O10 2.077512 1_555
Fe3 O7 2.000170 1_555
Fe3 O11 2.006818 1_555
Fe3 O3 2.025913 1_555
Fe3 O4 2.034673 1_556
Fe3 O8 2.129942 1_556
Fe3 O0 2.193704 1_446
Fe4 O1 1.895911 1_545
Fe4 O6 1.932652 1_555
Fe4 O9 1.971818 1_555
Fe4 O10 1.994495 1_655
Fe4 O5 2.051296 1_555
Fe4 O2 2.084259 1_545
Fe5 O0 1.913357 1_545
Fe5 O11 1.952421 1_554
Fe5 O8 2.006189 1_555
Fe5 O4 2.043801 1_545
Fe5 O3 2.044108 1_544
Fe5 O7 2.068288 1_654
