# generated using pymatgen
data_Cs3TlO3
_symmetry_space_group_name_H-M   'P 1'
_cell_length_a   7.37311717
_cell_length_b   8.29578269
_cell_length_c   11.95502487
_cell_angle_alpha   85.18889506
_cell_angle_beta   90.00000000
_cell_angle_gamma   90.00000000
_symmetry_Int_Tables_number   1
_chemical_formula_structural   Cs3TlO3
_chemical_formula_sum   'Cs12 Tl4 O12'
_cell_volume   728.66196597
_cell_formula_units_Z   4
loop_
 _symmetry_equiv_pos_site_id
 _symmetry_equiv_pos_as_xyz
  1  'x, y, z'
loop_
 _atom_site_type_symbol
 _atom_site_label
 _atom_site_symmetry_multiplicity
 _atom_site_fract_x
 _atom_site_fract_y
 _atom_site_fract_z
 _atom_site_occupancy
  Cs  Cs0  1  0.32460422  0.35151910  0.07172915  1
  Cs  Cs1  1  0.62623251  0.95150607  0.15533528  1
  Cs  Cs2  1  0.81603031  0.37223525  0.19308433  1
  Cs  Cs3  1  0.31603031  0.62776475  0.30691567  1
  Cs  Cs4  1  0.12623251  0.04849393  0.34466472  1
  Cs  Cs5  1  0.82460422  0.64848090  0.42827085  1
  Cs  Cs6  1  0.17539578  0.35151910  0.57172915  1
  Cs  Cs7  1  0.87376749  0.95150607  0.65533528  1
  Cs  Cs8  1  0.68396969  0.37223525  0.69308433  1
  Cs  Cs9  1  0.18396969  0.62776475  0.80691567  1
  Cs  Cs10  1  0.37376749  0.04849393  0.84466472  1
  Cs  Cs11  1  0.67539578  0.64848090  0.92827085  1
  Tl  Tl0  1  0.08879993  0.83803986  0.06860123  1
  Tl  Tl1  1  0.58879993  0.16196014  0.43139877  1
  Tl  Tl2  1  0.41120007  0.83803986  0.56860123  1
  Tl  Tl3  1  0.91120007  0.16196014  0.93139877  1
  O  O0  1  0.35294014  0.74719178  0.03708783  1
  O  O1  1  0.04548838  0.10051660  0.09822064  1
  O  O2  1  0.93525253  0.70171091  0.19442878  1
  O  O3  1  0.43525253  0.29828909  0.30557122  1
  O  O4  1  0.54548838  0.89948340  0.40177936  1
  O  O5  1  0.85294014  0.25280822  0.46291217  1
  O  O6  1  0.14705986  0.74719178  0.53708783  1
  O  O7  1  0.45451162  0.10051660  0.59822064  1
  O  O8  1  0.56474747  0.70171091  0.69442878  1
  O  O9  1  0.06474747  0.29828909  0.80557122  1
  O  O10  1  0.95451162  0.89948340  0.90177936  1
  O  O11  1  0.64705986  0.25280822  0.96291217  1
loop_
_geom_bond_atom_site_label_1
_geom_bond_atom_site_label_2
_geom_bond_distance
_geom_bond_site_symmetry_2
Cs0 O11 2.862543 1_554
Cs0 O3 2.910120 1_555
Cs0 O1 2.925863 1_555
Cs0 O0 3.280454 1_555
Cs1 O4 3.001292 1_555
Cs1 O0 3.055072 1_555
Cs1 O2 3.088927 1_555
Cs1 O11 3.255564 1_564
Cs1 O1 3.377631 1_665
Cs2 O2 2.872462 1_555
Cs2 O1 3.107781 1_655
Cs2 O3 3.150958 1_555
Cs2 O11 3.250064 1_554
Cs2 O5 3.305346 1_555
Cs3 O3 2.872462 1_555
Cs3 O4 3.107781 1_555
Cs3 O2 3.150958 1_455
Cs3 O6 3.250064 1_555
Cs3 O0 3.305346 1_555
Cs4 O1 3.001292 1_555
Cs4 O5 3.055072 1_455
Cs4 O3 3.088927 1_555
Cs4 O6 3.255564 1_545
Cs4 O4 3.377631 1_545
Cs5 O6 2.862543 1_655
Cs5 O2 2.910120 1_555
Cs5 O4 2.925863 1_555
Cs5 O5 3.280454 1_555
Cs6 O5 2.862543 1_455
Cs6 O9 2.910120 1_555
Cs6 O7 2.925863 1_555
Cs6 O6 3.280454 1_555
Cs7 O10 3.001292 1_555
Cs7 O6 3.055072 1_655
Cs7 O8 3.088927 1_555
Cs7 O5 3.255564 1_565
Cs7 O7 3.377631 1_565
Cs8 O8 2.872462 1_555
Cs8 O7 3.107781 1_555
Cs8 O9 3.150958 1_655
Cs8 O5 3.250064 1_555
Cs8 O11 3.305346 1_555
Cs9 O9 2.872462 1_555
Cs9 O10 3.107781 1_455
Cs9 O8 3.150958 1_555
Cs9 O0 3.250064 1_556
Cs9 O6 3.305346 1_555
Cs10 O7 3.001292 1_555
Cs10 O11 3.055072 1_555
Cs10 O9 3.088927 1_555
Cs10 O0 3.255564 1_546
Cs10 O10 3.377631 1_445
Cs11 O0 2.862543 1_556
Cs11 O8 2.910120 1_555
Cs11 O10 2.925863 1_555
Cs11 O11 3.280454 1_555
O0 Tl0 2.133181 1_555
O1 Tl3 2.246577 1_454
O1 Tl0 2.257873 1_545
O2 Tl0 2.130310 1_655
O3 Tl1 2.130310 1_555
O4 Tl2 2.246577 1_555
O4 Tl1 2.257873 1_565
O5 Tl1 2.133181 1_555
O6 Tl2 2.133181 1_555
O7 Tl1 2.246577 1_555
O7 Tl2 2.257873 1_545
O8 Tl2 2.130310 1_555
O9 Tl3 2.130310 1_455
O10 Tl0 2.246577 1_656
O10 Tl3 2.257873 1_565
O11 Tl3 2.133181 1_555
