# generated using pymatgen
data_Li6MnV3(PO4)6
_symmetry_space_group_name_H-M   'P 1'
_cell_length_a   8.83966600
_cell_length_b   8.49177700
_cell_length_c   12.42245186
_cell_angle_alpha   87.82909100
_cell_angle_beta   90.00000000
_cell_angle_gamma   90.00000000
_symmetry_Int_Tables_number   1
_chemical_formula_structural   Li6MnV3(PO4)6
_chemical_formula_sum   'Li12 Mn2 V6 P12 O48'
_cell_volume   931.81553079
_cell_formula_units_Z   2
loop_
 _symmetry_equiv_pos_site_id
 _symmetry_equiv_pos_as_xyz
  1  'x, y, z'
loop_
 _atom_site_type_symbol
 _atom_site_label
 _atom_site_symmetry_multiplicity
 _atom_site_fract_x
 _atom_site_fract_y
 _atom_site_fract_z
 _atom_site_occupancy
  Li  Li0  1  0.99915200  0.00008600  0.74934000  1
  Li  Li1  1  0.10032600  0.00000000  0.00000000  1
  Li  Li2  1  0.99915200  0.99991400  0.25066000  1
  Li  Li3  1  0.89763500  0.00000000  0.50000000  1
  Li  Li4  1  0.80579600  0.29321200  0.79870700  1
  Li  Li5  1  0.19780200  0.29081300  0.30038500  1
  Li  Li6  1  0.50196200  0.50706600  0.74921300  1
  Li  Li7  1  0.40294600  0.50000000  0.00000000  1
  Li  Li8  1  0.50196200  0.49293400  0.25078700  1
  Li  Li9  1  0.60100800  0.50000000  0.50000000  1
  Li  Li10  1  0.80579600  0.70678800  0.20129300  1
  Li  Li11  1  0.19780200  0.70918700  0.69961500  1
  Mn  Mn0  1  0.49939500  0.20903500  0.39757500  1
  Mn  Mn1  1  0.49939500  0.79096500  0.60242500  1
  V  V0  1  0.49953100  0.21246700  0.89396000  1
  V  V1  1  0.99662500  0.28353600  0.10814600  1
  V  V2  1  0.00303900  0.28471000  0.60893600  1
  V  V3  1  0.99662500  0.71646400  0.89185400  1
  V  V4  1  0.00303900  0.71529000  0.39106400  1
  V  V5  1  0.49953100  0.78753300  0.10604000  1
  P  P0  1  0.79601400  0.00000000  0.00000000  1
  P  P1  1  0.19820200  0.00000000  0.50000000  1
  P  P2  1  0.35423000  0.15680300  0.14395200  1
  P  P3  1  0.64591700  0.15598400  0.64683100  1
  P  P4  1  0.14728100  0.35029500  0.85369400  1
  P  P5  1  0.85374800  0.35148500  0.35320000  1
  P  P6  1  0.70698800  0.50000000  0.00000000  1
  P  P7  1  0.29326100  0.50000000  0.50000000  1
  P  P8  1  0.14728100  0.64970500  0.14630600  1
  P  P9  1  0.85374800  0.64851500  0.64680000  1
  P  P10  1  0.35423000  0.84319700  0.85604800  1
  P  P11  1  0.64591700  0.84401600  0.35316900  1
  O  O0  1  0.41240500  0.01186300  0.85448700  1
  O  O1  1  0.59015900  0.01437500  0.35441500  1
  O  O2  1  0.90548500  0.06734000  0.08591100  1
  O  O3  1  0.08731100  0.06936600  0.58507300  1
  O  O4  1  0.70176000  0.12709000  0.94014700  1
  O  O5  1  0.28940200  0.12602100  0.43748500  1
  O  O6  1  0.17740000  0.14187500  0.15631000  1
  O  O7  1  0.82280500  0.14506600  0.66214800  1
  O  O8  1  0.40257700  0.24578200  0.03887400  1
  O  O9  1  0.06317200  0.25220400  0.76843700  1
  O  O10  1  0.40560500  0.25871600  0.23794000  1
  O  O11  1  0.60069900  0.25442800  0.54655300  1
  O  O12  1  0.93909400  0.25317600  0.26840400  1
  O  O13  1  0.09508100  0.27489200  0.96258600  1
  O  O14  1  0.59147100  0.24910100  0.74557300  1
  O  O15  1  0.90501200  0.27669600  0.46261100  1
  O  O16  1  0.32206900  0.34599700  0.84056100  1
  O  O17  1  0.67983800  0.35317500  0.34034100  1
  O  O18  1  0.80481000  0.38228900  0.06373900  1
  O  O19  1  0.19617500  0.38190600  0.56397900  1
  O  O20  1  0.59946100  0.42773800  0.91483200  1
  O  O21  1  0.39941800  0.42495700  0.41434600  1
  O  O22  1  0.10768700  0.47312200  0.15829300  1
  O  O23  1  0.89843400  0.47225400  0.65947600  1
  O  O24  1  0.10768700  0.52687800  0.84170700  1
  O  O25  1  0.89843400  0.52774600  0.34052400  1
  O  O26  1  0.59946100  0.57226200  0.08516800  1
  O  O27  1  0.39941800  0.57504300  0.58565400  1
  O  O28  1  0.80481000  0.61771100  0.93626100  1
  O  O29  1  0.19617500  0.61809400  0.43602100  1
  O  O30  1  0.32206900  0.65400300  0.15943900  1
  O  O31  1  0.67983800  0.64682500  0.65965900  1
  O  O32  1  0.09508100  0.72510800  0.03741400  1
  O  O33  1  0.40560500  0.74128400  0.76206000  1
  O  O34  1  0.90501200  0.72330400  0.53738900  1
  O  O35  1  0.06317200  0.74779600  0.23156300  1
  O  O36  1  0.40257700  0.75421800  0.96112600  1
  O  O37  1  0.59147100  0.75089900  0.25442700  1
  O  O38  1  0.93909400  0.74682400  0.73159600  1
  O  O39  1  0.60069900  0.74557200  0.45344700  1
  O  O40  1  0.17740000  0.85812500  0.84369000  1
  O  O41  1  0.82280500  0.85493400  0.33785200  1
  O  O42  1  0.70176000  0.87291000  0.05985300  1
  O  O43  1  0.28940200  0.87397900  0.56251500  1
  O  O44  1  0.90548500  0.93266000  0.91408900  1
  O  O45  1  0.08731100  0.93063400  0.41492700  1
  O  O46  1  0.41240500  0.98813700  0.14551300  1
  O  O47  1  0.59015900  0.98562500  0.64558500  1
loop_
_geom_bond_atom_site_label_1
_geom_bond_atom_site_label_2
_geom_bond_distance
_geom_bond_site_symmetry_2
Li0 O38 2.234193 1_545
Li0 O9 2.235755 1_655
Li0 O7 2.240061 1_555
Li0 O3 2.241987 1_655
Li0 O44 2.261223 1_545
Li0 O40 2.280919 1_645
Li1 O2 2.116275 1_455
Li1 O44 2.116275 1_444
Li1 O13 2.363266 1_554
Li1 O32 2.363266 1_545
Li1 O6 2.421424 1_555
Li1 O40 2.421424 1_544
Li2 O12 2.234193 1_565
Li2 O35 2.235755 1_655
Li2 O41 2.240061 1_555
Li2 O45 2.241987 1_655
Li2 O2 2.261223 1_565
Li2 O6 2.280919 1_665
Li3 O3 2.078995 1_655
Li3 O45 2.078995 1_645
Li3 O15 2.378678 1_555
Li3 O34 2.378678 1_545
Li3 O7 2.490048 1_555
Li3 O41 2.490048 1_545
Li4 O14 2.045502 1_555
Li4 O7 2.155151 1_555
Li4 O9 2.334254 1_655
Li4 O4 2.394810 1_555
Li4 O23 2.403000 1_555
Li4 O20 2.614870 1_555
Li5 O10 2.016503 1_555
Li5 O6 2.237602 1_555
Li5 O5 2.309533 1_555
Li5 O12 2.345096 1_455
Li5 O22 2.437193 1_555
Li5 O21 2.569087 1_555
Li6 O33 2.175052 1_555
Li6 O31 2.240182 1_555
Li6 O27 2.279088 1_555
Li6 O20 2.307478 1_555
Li6 O14 2.331146 1_555
Li6 O16 2.359999 1_555
Li7 O26 2.136047 1_555
Li7 O20 2.136047 1_554
Li7 O36 2.194194 1_554
Li7 O8 2.194194 1_555
Li7 O16 2.518026 1_554
Li7 O30 2.518026 1_555
Li8 O10 2.175052 1_555
Li8 O17 2.240182 1_555
Li8 O21 2.279088 1_555
Li8 O26 2.307478 1_555
Li8 O37 2.331146 1_555
Li8 O30 2.359999 1_555
Li9 O11 2.142832 1_555
Li9 O39 2.142832 1_555
Li9 O27 2.182912 1_555
Li9 O21 2.182912 1_555
Li9 O31 2.482165 1_555
Li9 O17 2.482165 1_555
Li10 O37 2.045502 1_555
Li10 O41 2.155151 1_555
Li10 O35 2.334254 1_655
Li10 O42 2.394810 1_555
Li10 O25 2.403000 1_555
Li10 O26 2.614870 1_555
Li11 O33 2.016503 1_555
Li11 O40 2.237602 1_555
Li11 O43 2.309533 1_555
Li11 O38 2.345096 1_455
Li11 O24 2.437193 1_555
Li11 O27 2.569087 1_555
Mn0 O1 1.931519 1_555
Mn0 O5 2.040095 1_555
Mn0 O21 2.053127 1_555
Mn0 O11 2.104644 1_555
Mn0 O17 2.117064 1_555
Mn0 O10 2.175886 1_555
Mn1 O47 1.931519 1_555
Mn1 O43 2.040095 1_555
Mn1 O27 2.053127 1_555
Mn1 O39 2.104644 1_555
Mn1 O31 2.117064 1_555
Mn1 O33 2.175886 1_555
O0 P10 1.521227 1_545
O0 V0 1.949036 1_555
O1 P11 1.528943 1_545
O2 P0 1.564807 1_555
O2 V1 2.033289 1_555
O3 P1 1.572214 1_555
O3 V2 2.006949 1_555
O4 P0 1.533273 1_556
O4 V0 2.004733 1_555
O5 P1 1.528154 1_555
O6 P2 1.575278 1_555
O6 V1 2.074638 1_455
O7 P3 1.577468 1_555
O7 V2 2.078957 1_655
O8 P2 1.543605 1_555
O8 V0 2.023317 1_554
O9 P4 1.560497 1_555
O9 V2 2.059910 1_555
O10 P2 1.547562 1_555
O11 P3 1.526918 1_555
O12 P5 1.562788 1_555
O12 V1 2.061428 1_555
O13 P4 1.545025 1_555
O13 V1 2.010604 1_456
O14 P3 1.560436 1_555
O14 V0 2.027735 1_555
O15 P5 1.546154 1_555
O15 V2 2.017166 1_655
O16 P4 1.554231 1_555
O16 V0 2.032147 1_555
O17 P5 1.545594 1_555
O18 P6 1.521137 1_555
O18 V1 1.961501 1_555
O19 P7 1.521010 1_555
O19 V2 1.967977 1_555
O20 P6 1.564781 1_556
O20 V0 2.055516 1_555
O21 P7 1.571687 1_555
O22 P8 1.541514 1_555
O22 V1 2.004926 1_455
O23 P9 1.550255 1_555
O23 V2 1.965009 1_655
O24 P4 1.541514 1_555
O24 V3 2.004926 1_455
O25 P5 1.550255 1_555
O25 V4 1.965009 1_655
O26 P6 1.564781 1_555
O26 V5 2.055516 1_555
O27 P7 1.571687 1_555
O28 P6 1.521137 1_556
O28 V3 1.961501 1_555
O29 P7 1.521010 1_555
O29 V4 1.967977 1_555
O30 P8 1.554231 1_555
O30 V5 2.032147 1_555
O31 P9 1.545594 1_555
O32 P8 1.545025 1_555
O32 V3 2.010604 1_454
O33 P10 1.547562 1_555
O34 P9 1.546154 1_555
O34 V4 2.017166 1_655
O35 P8 1.560497 1_555
O35 V4 2.059910 1_555
O36 P10 1.543605 1_555
O36 V5 2.023317 1_556
O37 P11 1.560436 1_555
O37 V5 2.027735 1_555
O38 P9 1.562788 1_555
O38 V3 2.061428 1_555
O39 P11 1.526918 1_555
O40 P10 1.575278 1_555
O40 V3 2.074638 1_455
O41 P11 1.577468 1_555
O41 V4 2.078957 1_655
O42 P0 1.533273 1_565
O42 V5 2.004733 1_555
O43 P1 1.528154 1_565
O44 P0 1.564807 1_566
O44 V3 2.033289 1_555
O45 P1 1.572214 1_565
O45 V4 2.006949 1_555
O46 P2 1.521227 1_565
O46 V5 1.949036 1_555
O47 P3 1.528943 1_565
