# generated using pymatgen
data_Fe2OF3
_symmetry_space_group_name_H-M   'P 1'
_cell_length_a   10.26602834
_cell_length_b   10.26602834
_cell_length_c   4.87715722
_cell_angle_alpha   88.29123947
_cell_angle_beta   88.29123947
_cell_angle_gamma   34.90444715
_symmetry_Int_Tables_number   1
_chemical_formula_structural   Fe2OF3
_chemical_formula_sum   'Fe8 O4 F12'
_cell_volume   293.97776938
_cell_formula_units_Z   4
loop_
 _symmetry_equiv_pos_site_id
 _symmetry_equiv_pos_as_xyz
  1  'x, y, z'
loop_
 _atom_site_type_symbol
 _atom_site_label
 _atom_site_symmetry_multiplicity
 _atom_site_fract_x
 _atom_site_fract_y
 _atom_site_fract_z
 _atom_site_occupancy
  Fe  Fe0  1  0.87037000  0.37770100  0.50015900  1
  Fe  Fe1  1  0.62229900  0.12963000  0.49984100  1
  Fe  Fe2  1  0.12963000  0.62229900  0.49984100  1
  Fe  Fe3  1  0.37770100  0.87037000  0.50015900  1
  Fe  Fe4  1  0.50000000  0.50000000  0.00000000  1
  Fe  Fe5  1  0.24039400  0.24039400  0.03308100  1
  Fe  Fe6  1  0.00000000  0.00000000  0.00000000  1
  Fe  Fe7  1  0.75960600  0.75960600  0.96691900  1
  O  O0  1  0.57926700  0.57926700  0.68176100  1
  O  O1  1  0.83295200  0.83295200  0.66698900  1
  O  O2  1  0.42073300  0.42073300  0.31823900  1
  O  O3  1  0.16704800  0.16704800  0.33301100  1
  F  F0  1  0.94798700  0.44871800  0.79526600  1
  F  F1  1  0.44871800  0.94798700  0.79526600  1
  F  F2  1  0.70356900  0.19292300  0.79042700  1
  F  F3  1  0.19292300  0.70356900  0.79042700  1
  F  F4  1  0.07376100  0.07376100  0.69860200  1
  F  F5  1  0.32187600  0.32187600  0.70653200  1
  F  F6  1  0.92623900  0.92623900  0.30139800  1
  F  F7  1  0.67812400  0.67812400  0.29346800  1
  F  F8  1  0.55128200  0.05201300  0.20473400  1
  F  F9  1  0.29643100  0.80707700  0.20957300  1
  F  F10  1  0.05201300  0.55128200  0.20473400  1
  F  F11  1  0.80707700  0.29643100  0.20957300  1
loop_
_geom_bond_atom_site_label_1
_geom_bond_atom_site_label_2
_geom_bond_distance
_geom_bond_site_symmetry_2
Fe0 O3 1.941983 1_655
Fe0 O0 1.950828 1_555
Fe1 O1 1.941983 1_545
Fe1 O2 1.950828 1_555
Fe2 O1 1.941983 1_455
Fe2 O2 1.950828 1_555
Fe3 O3 1.941983 1_565
Fe3 O0 1.950828 1_555
Fe4 O0 2.160769 1_554
Fe4 O2 2.160769 1_555
Fe5 O3 2.017995 1_555
Fe7 O1 2.017995 1_555
F0 Fe0 2.078897 1_555
F0 Fe5 2.111848 1_656
F0 Fe7 2.136835 1_555
F1 Fe3 2.078897 1_555
F1 Fe5 2.111848 1_566
F1 Fe7 2.136835 1_555
F2 Fe1 2.035058 1_555
F2 Fe6 2.099319 1_656
F2 Fe4 2.146853 1_556
F3 Fe2 2.035058 1_555
F3 Fe6 2.099319 1_566
F3 Fe4 2.146853 1_556
F4 Fe6 2.028629 1_556
F4 Fe3 2.070435 1_545
F4 Fe0 2.070435 1_455
F5 Fe2 2.091104 1_555
F5 Fe1 2.091104 1_555
F5 Fe5 2.219172 1_556
F6 Fe6 2.028629 1_665
F6 Fe2 2.070435 1_655
F6 Fe1 2.070435 1_565
F7 Fe3 2.091104 1_555
F7 Fe0 2.091104 1_555
F7 Fe7 2.219172 1_554
F8 Fe1 2.078897 1_555
F8 Fe7 2.111848 1_544
F8 Fe5 2.136835 1_555
F9 Fe3 2.035058 1_555
F9 Fe6 2.099319 1_565
F9 Fe4 2.146853 1_555
F10 Fe2 2.078897 1_555
F10 Fe7 2.111848 1_454
F10 Fe5 2.136835 1_555
F11 Fe0 2.035058 1_555
F11 Fe6 2.099319 1_655
F11 Fe4 2.146853 1_555
