# generated using pymatgen
data_Fe4As10PbO22
_symmetry_space_group_name_H-M   'P 1'
_cell_length_a   10.07676600
_cell_length_b   10.58216783
_cell_length_c   12.17739456
_cell_angle_alpha   82.50380915
_cell_angle_beta   66.03920677
_cell_angle_gamma   80.21943082
_symmetry_Int_Tables_number   1
_chemical_formula_structural   Fe4As10PbO22
_chemical_formula_sum   'Fe8 As20 Pb2 O44'
_cell_volume   1166.64795756
_cell_formula_units_Z   2
loop_
 _symmetry_equiv_pos_site_id
 _symmetry_equiv_pos_as_xyz
  1  'x, y, z'
loop_
 _atom_site_type_symbol
 _atom_site_label
 _atom_site_symmetry_multiplicity
 _atom_site_fract_x
 _atom_site_fract_y
 _atom_site_fract_z
 _atom_site_occupancy
  Fe  Fe0  1  0.21701400  0.48483100  0.25890600  1
  Fe  Fe1  1  0.78298600  0.51516900  0.74109400  1
  Fe  Fe2  1  0.66864000  0.25043600  0.83541600  1
  Fe  Fe3  1  0.33136000  0.74956400  0.16458400  1
  Fe  Fe4  1  0.24417600  0.01870600  0.27225500  1
  Fe  Fe5  1  0.75582400  0.98129400  0.72774500  1
  Fe  Fe6  1  0.39989000  0.25177400  0.09293300  1
  Fe  Fe7  1  0.60011000  0.74822600  0.90706700  1
  As  As0  1  0.45830200  0.17111900  0.69688600  1
  As  As1  1  0.54169800  0.82888100  0.30311400  1
  As  As2  1  0.37839000  0.23890600  0.37472500  1
  As  As3  1  0.62161000  0.76109400  0.62527500  1
  As  As4  1  0.59341600  0.43753600  0.59988400  1
  As  As5  1  0.40658400  0.56246400  0.40011600  1
  As  As6  1  0.60020400  0.49047200  0.12004800  1
  As  As7  1  0.39979600  0.50952800  0.87995200  1
  As  As8  1  0.71131900  0.03196200  0.47436100  1
  As  As9  1  0.28868100  0.96803800  0.52563900  1
  As  As10  1  0.13369700  0.45853900  0.68021700  1
  As  As11  1  0.86630300  0.54146100  0.31978300  1
  As  As12  1  0.99282500  0.05614100  0.82539600  1
  As  As13  1  0.00717500  0.94385900  0.17460400  1
  As  As14  1  0.92433300  0.33334700  0.93239900  1
  As  As15  1  0.07566700  0.66665300  0.06760100  1
  As  As16  1  0.32018600  0.00340000  0.96269900  1
  As  As17  1  0.67981400  0.99660000  0.03730100  1
  As  As18  1  0.03266200  0.26864400  0.20602200  1
  As  As19  1  0.96733800  0.73135600  0.79397800  1
  Pb  Pb0  1  0.99390000  0.24595500  0.51074300  1
  Pb  Pb1  1  0.00610000  0.75404500  0.48925700  1
  O  O0  1  0.58785000  0.13103400  0.76912100  1
  O  O1  1  0.41215000  0.86896600  0.23087900  1
  O  O2  1  0.19460500  0.35012500  0.16384500  1
  O  O3  1  0.80539500  0.64987500  0.83615500  1
  O  O4  1  0.60300400  0.15742900  0.00171200  1
  O  O5  1  0.39699600  0.84257100  0.99828800  1
  O  O6  1  0.78222300  0.36854700  0.87181900  1
  O  O7  1  0.21777700  0.63145300  0.12818100  1
  O  O8  1  0.85450200  0.11807400  0.76353200  1
  O  O9  1  0.14549800  0.88192600  0.23646800  1
  O  O10  1  0.30481900  0.09170900  0.08643500  1
  O  O11  1  0.69518100  0.90829100  0.91356500  1
  O  O12  1  0.43953500  0.40984200  0.15955900  1
  O  O13  1  0.56046500  0.59015800  0.84044100  1
  O  O14  1  0.46443200  0.34751200  0.92368300  1
  O  O15  1  0.53556800  0.65248800  0.07631700  1
  O  O16  1  0.70880200  0.37638000  0.68290400  1
  O  O17  1  0.29119800  0.62362000  0.31709600  1
  O  O18  1  0.04647500  0.20696500  0.83396000  1
  O  O19  1  0.95352500  0.79303500  0.16604000  1
  O  O20  1  0.06469800  0.14676000  0.31216200  1
  O  O21  1  0.93530200  0.85324000  0.68783800  1
  O  O22  1  0.98540600  0.44137200  0.64365400  1
  O  O23  1  0.01459400  0.55862800  0.35634600  1
  O  O24  1  0.55543000  0.28645500  0.57418800  1
  O  O25  1  0.44457000  0.71354500  0.42581200  1
  O  O26  1  0.89607600  0.36310900  0.33258500  1
  O  O27  1  0.10392400  0.63689100  0.66741500  1
  O  O28  1  0.81792400  0.04522300  0.55641000  1
  O  O29  1  0.18207600  0.95477700  0.44359000  1
  O  O30  1  0.52424600  0.04214400  0.59742200  1
  O  O31  1  0.47575400  0.95785600  0.40257800  1
  O  O32  1  0.04301300  0.45261000  0.84814800  1
  O  O33  1  0.95698700  0.54739000  0.15185200  1
  O  O34  1  0.42252800  0.48008600  0.72782100  1
  O  O35  1  0.57747200  0.51991400  0.27217900  1
  O  O36  1  0.37475900  0.15390300  0.25490900  1
  O  O37  1  0.62524100  0.84609700  0.74509100  1
  O  O38  1  0.26221900  0.14581200  0.51176400  1
  O  O39  1  0.73778100  0.85418800  0.48823600  1
  O  O40  1  0.22190100  0.35796100  0.39427700  1
  O  O41  1  0.77809900  0.64203900  0.60572300  1
  O  O42  1  0.86706100  0.03273100  0.98275400  1
  O  O43  1  0.13293900  0.96726900  0.01724600  1
loop_
_geom_bond_atom_site_label_1
_geom_bond_atom_site_label_2
_geom_bond_distance
_geom_bond_site_symmetry_2
Fe0 O23 1.978157 1_555
Fe0 O40 1.997084 1_555
Fe0 O2 2.043341 1_555
Fe0 O7 2.071526 1_555
Fe0 O17 2.071899 1_555
Fe0 O12 2.136308 1_555
Fe1 O22 1.978157 1_555
Fe1 O41 1.997084 1_555
Fe1 O3 2.043341 1_555
Fe1 O6 2.071526 1_555
Fe1 O16 2.071899 1_555
Fe1 O13 2.136308 1_555
Fe2 O0 2.015057 1_555
Fe2 O6 2.027651 1_555
Fe2 O4 2.029834 1_556
Fe2 O14 2.053878 1_555
Fe2 O16 2.077538 1_555
Fe2 O8 2.081563 1_555
Fe3 O1 2.015057 1_555
Fe3 O7 2.027651 1_555
Fe3 O5 2.029834 1_554
Fe3 O15 2.053878 1_555
Fe3 O17 2.077538 1_555
Fe3 O9 2.081563 1_555
Fe4 O29 1.979260 1_545
Fe4 O20 1.992141 1_555
Fe4 O36 2.039099 1_555
Fe4 O1 2.057700 1_545
Fe4 O9 2.068633 1_545
Fe4 O10 2.161405 1_555
Fe5 O28 1.979260 1_565
Fe5 O21 1.992141 1_555
Fe5 O37 2.039099 1_555
Fe5 O0 2.057700 1_565
Fe5 O8 2.068633 1_565
Fe5 O11 2.161405 1_555
Fe6 O2 2.039651 1_555
Fe6 O4 2.041637 1_555
Fe6 O36 2.043943 1_555
Fe6 O14 2.070633 1_554
Fe6 O10 2.107362 1_555
Fe6 O12 2.111913 1_555
Fe7 O3 2.039651 1_555
Fe7 O5 2.041637 1_555
Fe7 O37 2.043943 1_555
Fe7 O15 2.070633 1_556
Fe7 O11 2.107362 1_555
Fe7 O13 2.111913 1_555
As0 O30 1.800236 1_555
As0 O0 1.817967 1_555
As0 O24 1.849940 1_555
As1 O31 1.800236 1_555
As1 O1 1.817967 1_555
As1 O25 1.849940 1_555
As2 O40 1.796915 1_555
As2 O36 1.826546 1_555
As2 O38 1.871324 1_555
As3 O41 1.796915 1_555
As3 O37 1.826546 1_555
As3 O39 1.871324 1_555
As4 O24 1.798947 1_555
As4 O16 1.822408 1_555
As4 O34 1.826416 1_555
As5 O25 1.798947 1_555
As5 O17 1.822408 1_555
As5 O35 1.826416 1_555
As6 O12 1.819415 1_555
As6 O15 1.819713 1_555
As6 O35 1.833902 1_555
As7 O13 1.819415 1_555
As7 O14 1.819713 1_555
As7 O34 1.833902 1_555
As8 O28 1.769612 1_555
As8 O39 1.849844 1_545
As8 O30 1.868025 1_555
As9 O29 1.769612 1_555
As9 O38 1.849844 1_565
As9 O31 1.868025 1_555
As10 O22 1.765752 1_455
As10 O27 1.856137 1_555
As10 O32 1.867900 1_555
As11 O23 1.765752 1_655
As11 O26 1.856137 1_555
As11 O33 1.867900 1_555
As12 O18 1.798021 1_655
As12 O42 1.830210 1_555
As12 O8 1.831270 1_555
As13 O19 1.798021 1_455
As13 O43 1.830210 1_555
As13 O9 1.831270 1_555
As14 O32 1.803877 1_655
As14 O6 1.827217 1_555
As14 O18 1.844219 1_655
As15 O33 1.803877 1_455
As15 O7 1.827217 1_555
As15 O19 1.844219 1_455
As16 O10 1.815595 1_556
As16 O43 1.818914 1_546
As16 O5 1.820954 1_545
As17 O11 1.815595 1_554
As17 O42 1.818914 1_564
As17 O4 1.820954 1_565
As18 O20 1.789086 1_555
As18 O2 1.830842 1_555
As18 O26 1.865627 1_455
As19 O21 1.789086 1_555
As19 O3 1.830842 1_555
As19 O27 1.865627 1_655
O20 Pb0 2.542670 1_455
O21 Pb1 2.542670 1_655
O22 Pb0 2.757516 1_555
O23 Pb1 2.757516 1_555
O26 Pb0 2.799183 1_555
O27 Pb1 2.799183 1_555
O28 Pb0 2.852448 1_555
O29 Pb1 2.852448 1_555
O38 Pb0 2.735696 1_455
O39 Pb1 2.735696 1_655
O40 Pb0 2.556337 1_455
O41 Pb1 2.556337 1_655
