# generated using pymatgen
data_VGa2O5
_symmetry_space_group_name_H-M   'P 1'
_cell_length_a   5.05066525
_cell_length_b   10.02677997
_cell_length_c   6.98867962
_cell_angle_alpha   110.23511492
_cell_angle_beta   90.02866370
_cell_angle_gamma   89.97033421
_symmetry_Int_Tables_number   1
_chemical_formula_structural   VGa2O5
_chemical_formula_sum   'V4 Ga8 O20'
_cell_volume   332.07650027
_cell_formula_units_Z   4
loop_
 _symmetry_equiv_pos_site_id
 _symmetry_equiv_pos_as_xyz
  1  'x, y, z'
loop_
 _atom_site_type_symbol
 _atom_site_label
 _atom_site_symmetry_multiplicity
 _atom_site_fract_x
 _atom_site_fract_y
 _atom_site_fract_z
 _atom_site_occupancy
  V  V0  1  0.49981100  0.49990000  0.00032800  1
  V  V1  1  0.49968400  0.50022700  0.50024100  1
  V  V2  1  0.99995100  0.99987700  0.50031800  1
  V  V3  1  0.99976400  0.00017800  0.00024300  1
  Ga  Ga0  1  0.00316800  0.36377900  0.09207200  1
  Ga  Ga1  1  0.50315800  0.86374600  0.59214500  1
  Ga  Ga2  1  0.99706100  0.36408800  0.59254700  1
  Ga  Ga3  1  0.49707400  0.86400100  0.09242000  1
  Ga  Ga4  1  0.50300000  0.13612100  0.90841400  1
  Ga  Ga5  1  0.00301800  0.63606800  0.40829700  1
  Ga  Ga6  1  0.49721900  0.13647500  0.40856600  1
  Ga  Ga7  1  0.99719200  0.63643600  0.90864200  1
  O  O0  1  0.20145400  0.00028800  0.75080300  1
  O  O1  1  0.70139100  0.50027500  0.25104900  1
  O  O2  1  0.29752300  0.49992200  0.75015100  1
  O  O3  1  0.79758000  0.99993200  0.25034000  1
  O  O4  1  0.16589100  0.41170400  0.36591200  1
  O  O5  1  0.66582800  0.91164100  0.86580100  1
  O  O6  1  0.83392400  0.41143000  0.86669100  1
  O  O7  1  0.33354500  0.91125200  0.36672600  1
  O  O8  1  0.66581800  0.08852500  0.63454800  1
  O  O9  1  0.16561800  0.58856300  0.13462900  1
  O  O10  1  0.33472800  0.08808400  0.13451500  1
  O  O11  1  0.83466300  0.58792900  0.63437900  1
  O  O12  1  0.35087400  0.31867300  0.96583600  1
  O  O13  1  0.85097400  0.81875600  0.46590400  1
  O  O14  1  0.85024600  0.18148500  0.03600200  1
  O  O15  1  0.35012800  0.68148200  0.53622900  1
  O  O16  1  0.64883600  0.31916200  0.46635100  1
  O  O17  1  0.14884400  0.81912600  0.96637500  1
  O  O18  1  0.14856200  0.18097300  0.53359800  1
  O  O19  1  0.64867000  0.68107700  0.03368200  1
loop_
_geom_bond_atom_site_label_1
_geom_bond_atom_site_label_2
_geom_bond_distance
_geom_bond_site_symmetry_2
Ga0 O14 1.896502 1_455
Ga0 O12 1.947212 1_554
Ga0 O4 1.982826 1_555
Ga0 O6 1.989663 1_454
Ga0 O1 2.092439 1_455
Ga0 O9 2.319374 1_555
Ga1 O15 1.896593 1_555
Ga1 O13 1.947639 1_555
Ga1 O5 1.981610 1_555
Ga1 O7 1.989950 1_555
Ga1 O0 2.091708 1_565
Ga1 O8 2.319928 1_565
Ga2 O18 1.897877 1_655
Ga2 O16 1.948963 1_555
Ga2 O6 1.986699 1_555
Ga2 O4 1.997146 1_655
Ga2 O2 2.081782 1_655
Ga2 O11 2.310848 1_555
Ga3 O19 1.896535 1_555
Ga3 O17 1.948554 1_554
Ga3 O7 1.988607 1_555
Ga3 O5 1.997008 1_554
Ga3 O3 2.083072 1_555
Ga3 O10 2.312621 1_565
Ga4 O12 1.895393 1_555
Ga4 O14 1.948479 1_556
Ga4 O8 1.984078 1_555
Ga4 O10 1.994846 1_556
Ga4 O0 2.085787 1_555
Ga4 O5 2.316422 1_545
Ga5 O13 1.896284 1_455
Ga5 O15 1.948805 1_555
Ga5 O9 1.982486 1_555
Ga5 O11 1.995436 1_455
Ga5 O1 2.085133 1_455
Ga5 O4 2.315755 1_555
Ga6 O16 1.895856 1_555
Ga6 O18 1.947971 1_555
Ga6 O10 1.983219 1_555
Ga6 O8 1.993486 1_555
Ga6 O3 2.085859 1_545
Ga6 O7 2.326699 1_545
Ga7 O17 1.895998 1_655
Ga7 O19 1.947481 1_556
Ga7 O11 1.984500 1_555
Ga7 O9 1.992747 1_656
Ga7 O2 2.086174 1_655
Ga7 O6 2.323789 1_555
O0 V3 2.019836 1_456
O0 V2 2.023232 1_445
O1 V1 2.018197 1_555
O1 V0 2.024961 1_555
O2 V1 2.024459 1_555
O2 V0 2.024662 1_556
O3 V2 2.023771 1_555
O3 V3 2.025469 1_565
O4 V1 1.983655 1_555
O5 V3 1.984560 1_566
O6 V0 1.983359 1_556
O7 V2 1.981472 1_455
O8 V2 1.985267 1_545
O9 V0 1.985725 1_555
O10 V3 1.986812 1_455
O11 V1 1.986005 1_555
O12 V0 1.903714 1_556
O13 V2 1.902937 1_555
O14 V3 1.903176 1_555
O15 V1 1.902460 1_555
O16 V1 1.902875 1_555
O17 V3 1.902644 1_466
O18 V2 1.903610 1_445
O19 V0 1.904738 1_555
