# generated using pymatgen
data_Sm2WO6
_symmetry_space_group_name_H-M   'P 1'
_cell_length_a   5.33291660
_cell_length_b   9.22118875
_cell_length_c   10.08512614
_cell_angle_alpha   90.00000000
_cell_angle_beta   90.00000000
_cell_angle_gamma   90.00000000
_symmetry_Int_Tables_number   1
_chemical_formula_structural   Sm2WO6
_chemical_formula_sum   'Sm8 W4 O24'
_cell_volume   495.94445420
_cell_formula_units_Z   4
loop_
 _symmetry_equiv_pos_site_id
 _symmetry_equiv_pos_as_xyz
  1  'x, y, z'
loop_
 _atom_site_type_symbol
 _atom_site_label
 _atom_site_symmetry_multiplicity
 _atom_site_fract_x
 _atom_site_fract_y
 _atom_site_fract_z
 _atom_site_occupancy
  Sm  Sm0  1  0.02379021  0.39633056  0.03566610  1
  Sm  Sm1  1  0.03313116  0.28111204  0.62959373  1
  Sm  Sm2  1  0.46686884  0.71888796  0.12959373  1
  Sm  Sm3  1  0.47620979  0.60366944  0.53566610  1
  Sm  Sm4  1  0.52379021  0.10366944  0.96433390  1
  Sm  Sm5  1  0.53313116  0.21888796  0.37040627  1
  Sm  Sm6  1  0.96686884  0.78111204  0.87040627  1
  Sm  Sm7  1  0.97620979  0.89633056  0.46433390  1
  W  W0  1  0.04191881  0.00412731  0.15061044  1
  W  W1  1  0.45808119  0.99587269  0.65061044  1
  W  W2  1  0.54191881  0.49587269  0.84938956  1
  W  W3  1  0.95808119  0.50412731  0.34938956  1
  O  O0  1  0.07150315  0.65198207  0.47318553  1
  O  O1  1  0.17172480  0.54908958  0.20969880  1
  O  O2  1  0.18759816  0.86397864  0.67962060  1
  O  O3  1  0.18753413  0.86172875  0.26180627  1
  O  O4  1  0.22378973  0.38866744  0.43399151  1
  O  O5  1  0.24859642  0.09002225  0.50891508  1
  O  O6  1  0.25140358  0.90997775  0.00891508  1
  O  O7  1  0.27621027  0.61133256  0.93399151  1
  O  O8  1  0.31246587  0.13827125  0.76180627  1
  O  O9  1  0.31240184  0.13602136  0.17962060  1
  O  O10  1  0.32827520  0.45091042  0.70969880  1
  O  O11  1  0.42849685  0.34801793  0.97318553  1
  O  O12  1  0.57150315  0.84801793  0.52681447  1
  O  O13  1  0.67172480  0.95091042  0.79030120  1
  O  O14  1  0.68759816  0.63602136  0.32037940  1
  O  O15  1  0.68753413  0.63827125  0.73819373  1
  O  O16  1  0.72378973  0.11133256  0.56600849  1
  O  O17  1  0.74859642  0.40997775  0.49108492  1
  O  O18  1  0.75140358  0.59002225  0.99108492  1
  O  O19  1  0.77621027  0.88866744  0.06600849  1
  O  O20  1  0.81246587  0.36172875  0.23819373  1
  O  O21  1  0.81240184  0.36397864  0.82037940  1
  O  O22  1  0.82827520  0.04908958  0.29030120  1
  O  O23  1  0.92849685  0.15198207  0.02681447  1
loop_
_geom_bond_atom_site_label_1
_geom_bond_atom_site_label_2
_geom_bond_distance
_geom_bond_site_symmetry_2
O0 W3 1.945113 1_455
O0 Sm3 2.292083 1_555
O0 Sm7 2.311507 1_455
O1 W3 1.858687 1_455
O1 Sm2 2.362544 1_555
O1 Sm0 2.384771 1_555
O2 W1 1.909317 1_555
O2 Sm6 2.381529 1_455
O2 Sm7 2.464533 1_455
O3 W0 1.893362 1_565
O3 Sm7 2.354518 1_455
O3 Sm2 2.394145 1_555
O4 W3 1.967084 1_455
O4 Sm5 2.362988 1_555
O4 Sm1 2.430822 1_555
O4 Sm3 2.606555 1_555
O5 W1 2.010936 1_545
O5 Sm7 2.345693 1_445
O5 Sm5 2.380298 1_555
O5 Sm1 2.430324 1_555
O6 W0 2.010936 1_565
O6 Sm4 2.345693 1_564
O6 Sm6 2.380298 1_454
O6 Sm2 2.430324 1_555
O7 W2 1.967084 1_555
O7 Sm6 2.362988 1_455
O7 Sm2 2.430822 1_556
O7 Sm0 2.606555 1_556
O8 W1 1.893362 1_545
O8 Sm4 2.354518 1_555
O8 Sm1 2.394145 1_555
O9 W0 1.909317 1_555
O9 Sm5 2.381529 1_555
O9 Sm4 2.464533 1_554
O10 W2 1.858687 1_555
O10 Sm1 2.362544 1_555
O10 Sm3 2.384771 1_555
O11 W2 1.945113 1_555
O11 Sm0 2.292083 1_556
O11 Sm4 2.311507 1_555
O12 W1 1.945113 1_555
O12 Sm7 2.292083 1_555
O12 Sm3 2.311507 1_555
O13 W1 1.858687 1_555
O13 Sm6 2.362544 1_555
O13 Sm4 2.384771 1_565
O14 W3 1.909317 1_555
O14 Sm2 2.381529 1_555
O14 Sm3 2.464533 1_555
O15 W2 1.893362 1_555
O15 Sm3 2.354518 1_555
O15 Sm6 2.394145 1_555
O16 W1 1.967084 1_545
O16 Sm1 2.362988 1_655
O16 Sm5 2.430822 1_555
O16 Sm7 2.606555 1_545
O17 W3 2.010936 1_555
O17 Sm3 2.345693 1_555
O17 Sm1 2.380298 1_655
O17 Sm5 2.430324 1_555
O18 W2 2.010936 1_555
O18 Sm0 2.345693 1_656
O18 Sm2 2.380298 1_556
O18 Sm6 2.430324 1_555
O19 W0 1.967084 1_665
O19 Sm2 2.362988 1_555
O19 Sm6 2.430822 1_554
O19 Sm4 2.606555 1_564
O20 W3 1.893362 1_555
O20 Sm0 2.354518 1_655
O20 Sm5 2.394145 1_555
O21 W2 1.909317 1_555
O21 Sm1 2.381529 1_655
O21 Sm0 2.464533 1_656
O22 W0 1.858687 1_655
O22 Sm5 2.362544 1_555
O22 Sm7 2.384771 1_545
O23 W0 1.945113 1_655
O23 Sm4 2.292083 1_554
O23 Sm0 2.311507 1_655
