# generated using pymatgen
data_Bi3O4F
_symmetry_space_group_name_H-M   'P 1'
_cell_length_a   8.91252917
_cell_length_b   8.91252917
_cell_length_c   10.03086913
_cell_angle_alpha   66.69514077
_cell_angle_beta   66.69514077
_cell_angle_gamma   22.91047720
_symmetry_Int_Tables_number   1
_chemical_formula_structural   Bi3O4F
_chemical_formula_sum   'Bi6 O8 F2'
_cell_volume   283.78761441
_cell_formula_units_Z   2
loop_
 _symmetry_equiv_pos_site_id
 _symmetry_equiv_pos_as_xyz
  1  'x, y, z'
loop_
 _atom_site_type_symbol
 _atom_site_label
 _atom_site_symmetry_multiplicity
 _atom_site_fract_x
 _atom_site_fract_y
 _atom_site_fract_z
 _atom_site_occupancy
  Bi  Bi0  1  0.91414500  0.91414500  0.94163400  1
  Bi  Bi1  1  0.30227800  0.30227800  0.75726200  1
  Bi  Bi2  1  0.85296800  0.85296800  0.41425700  1
  Bi  Bi3  1  0.14703200  0.14703200  0.58574300  1
  Bi  Bi4  1  0.69772200  0.69772200  0.24273800  1
  Bi  Bi5  1  0.08585500  0.08585500  0.05836600  1
  O  O0  1  0.88437800  0.88437800  0.75429300  1
  O  O1  1  0.38274300  0.38274300  0.52374600  1
  O  O2  1  0.67048400  0.67048400  0.99605000  1
  O  O3  1  0.74349800  0.74349800  0.62311100  1
  O  O4  1  0.25650200  0.25650200  0.37688900  1
  O  O5  1  0.32951600  0.32951600  0.00395000  1
  O  O6  1  0.61725700  0.61725700  0.47625400  1
  O  O7  1  0.11562200  0.11562200  0.24570700  1
  F  F0  1  0.47498700  0.47498700  0.17935500  1
  F  F1  1  0.52501300  0.52501300  0.82064500  1
loop_
_geom_bond_atom_site_label_1
_geom_bond_atom_site_label_2
_geom_bond_distance
_geom_bond_site_symmetry_2
Bi0 O0 2.142603 1_555
Bi0 O5 2.227906 1_566
Bi0 O5 2.227906 1_656
Bi0 F1 2.541588 1_565
Bi0 F1 2.541588 1_655
Bi1 O1 2.191903 1_555
Bi1 O0 2.270826 1_545
Bi1 O0 2.270826 1_455
Bi1 O3 2.667196 1_455
Bi1 O3 2.667196 1_545
Bi1 O5 2.701883 1_556
Bi2 O3 2.193583 1_555
Bi2 O1 2.251902 1_565
Bi2 O1 2.251902 1_655
Bi2 O4 2.573647 1_655
Bi2 O4 2.573647 1_565
Bi3 O4 2.193583 1_555
Bi3 O6 2.251902 1_545
Bi3 O6 2.251902 1_455
Bi3 O3 2.573647 1_545
Bi3 O3 2.573647 1_455
Bi4 O6 2.191903 1_555
Bi4 O7 2.270826 1_565
Bi4 O7 2.270826 1_655
Bi4 O4 2.667196 1_655
Bi4 O4 2.667196 1_565
Bi4 O2 2.701883 1_554
Bi5 O7 2.142603 1_555
Bi5 O2 2.227906 1_454
Bi5 O2 2.227906 1_544
Bi5 F0 2.541588 1_455
Bi5 F0 2.541588 1_545
