# generated using pymatgen
data_Li2CoSnO4
_symmetry_space_group_name_H-M   'P 1'
_cell_length_a   6.16886347
_cell_length_b   6.16816877
_cell_length_c   6.10237893
_cell_angle_alpha   119.78538195
_cell_angle_beta   119.77981942
_cell_angle_gamma   90.04007898
_symmetry_Int_Tables_number   1
_chemical_formula_structural   Li2CoSnO4
_chemical_formula_sum   'Li4 Co2 Sn2 O8'
_cell_volume   165.20635010
_cell_formula_units_Z   2
loop_
 _symmetry_equiv_pos_site_id
 _symmetry_equiv_pos_as_xyz
  1  'x, y, z'
loop_
 _atom_site_type_symbol
 _atom_site_label
 _atom_site_symmetry_multiplicity
 _atom_site_fract_x
 _atom_site_fract_y
 _atom_site_fract_z
 _atom_site_occupancy
  Li  Li0  1  0.99996100  0.49997000  0.49997200  1
  Li  Li1  1  0.50003600  0.49997900  0.50000900  1
  Li  Li2  1  0.50003500  0.00004100  0.00003300  1
  Li  Li3  1  0.50002400  0.49996900  0.99999300  1
  Co  Co0  1  0.99991900  0.00006600  0.50001400  1
  Co  Co1  1  0.99991800  0.00005900  0.99996800  1
  Sn  Sn0  1  0.99984000  0.49982300  0.99988400  1
  Sn  Sn1  1  0.50017700  0.00015300  0.50010600  1
  O  O0  1  0.25067000  0.74747100  0.00927900  1
  O  O1  1  0.25192100  0.22549900  0.48943400  1
  O  O2  1  0.25240900  0.74936200  0.49068900  1
  O  O3  1  0.77449200  0.74812400  0.01050300  1
  O  O4  1  0.22558200  0.25190200  0.98954500  1
  O  O5  1  0.74762900  0.25061700  0.50945300  1
  O  O6  1  0.74804100  0.77447800  0.51053900  1
  O  O7  1  0.74934600  0.25248700  0.99058000  1
loop_
_geom_bond_atom_site_label_1
_geom_bond_atom_site_label_2
_geom_bond_distance
_geom_bond_site_symmetry_2
Li0 O0 2.211364 1_656
Li0 O7 2.211735 1_554
Li0 O2 2.228373 1_655
Li0 O5 2.228559 1_555
Li0 O6 2.298038 1_555
Li0 O1 2.298043 1_655
Li1 O5 2.169300 1_555
Li1 O2 2.169517 1_555
Li1 O4 2.221114 1_554
Li1 O3 2.221237 1_556
Li1 O6 2.236551 1_555
Li1 O1 2.236729 1_555
Li2 O2 2.211515 1_544
Li2 O5 2.211848 1_555
Li2 O0 2.228626 1_545
Li2 O7 2.228752 1_554
Li2 O4 2.297567 1_554
Li2 O3 2.297823 1_545
Li3 O7 2.168642 1_555
Li3 O0 2.168848 1_556
Li3 O6 2.221448 1_556
Li3 O1 2.221482 1_555
Li3 O4 2.236916 1_555
Li3 O3 2.237138 1_556
Co0 O3 2.128541 1_545
Co0 O4 2.128543 1_655
Co0 O6 2.130609 1_545
Co0 O1 2.130781 1_655
Co0 O5 2.194967 1_555
Co0 O2 2.196492 1_645
Co1 O6 2.128160 1_545
Co1 O1 2.128385 1_656
Co1 O3 2.130222 1_546
Co1 O4 2.130290 1_655
Co1 O7 2.195664 1_555
Co1 O0 2.197131 1_646
O0 Sn1 2.132786 1_565
O0 Sn0 2.133650 1_454
O1 Sn1 2.067720 1_555
O2 Sn0 2.132681 1_454
O2 Sn1 2.133903 1_565
O3 Sn0 2.067906 1_554
O4 Sn0 2.067884 1_455
O5 Sn0 2.131002 1_555
O5 Sn1 2.131394 1_555
O6 Sn1 2.067368 1_565
O7 Sn1 2.131196 1_555
O7 Sn0 2.131207 1_555
