# generated using pymatgen
data_Ta7InO19
_symmetry_space_group_name_H-M   'P 1'
_cell_length_a   6.25056158
_cell_length_b   6.25056158
_cell_length_c   20.20885300
_cell_angle_alpha   90.00000000
_cell_angle_beta   90.00000000
_cell_angle_gamma   119.99999560
_symmetry_Int_Tables_number   1
_chemical_formula_structural   Ta7InO19
_chemical_formula_sum   'Ta14 In2 O38'
_cell_volume   683.77055145
_cell_formula_units_Z   2
loop_
 _symmetry_equiv_pos_site_id
 _symmetry_equiv_pos_as_xyz
  1  'x, y, z'
loop_
 _atom_site_type_symbol
 _atom_site_label
 _atom_site_symmetry_multiplicity
 _atom_site_fract_x
 _atom_site_fract_y
 _atom_site_fract_z
 _atom_site_occupancy
  Ta  Ta0  1  0.69380900  0.02849600  0.15560700  1
  Ta  Ta1  1  0.69380900  0.02849600  0.34439300  1
  Ta  Ta2  1  0.97150400  0.30619100  0.65560700  1
  Ta  Ta3  1  0.97150400  0.30619100  0.84439300  1
  Ta  Ta4  1  0.69380900  0.66531400  0.84439300  1
  Ta  Ta5  1  0.69380900  0.66531400  0.65560700  1
  Ta  Ta6  1  0.00000000  0.00000000  0.50000000  1
  Ta  Ta7  1  0.00000000  0.00000000  0.00000000  1
  Ta  Ta8  1  0.97150400  0.66531400  0.15560700  1
  Ta  Ta9  1  0.97150400  0.66531400  0.34439300  1
  Ta  Ta10  1  0.33468600  0.30619100  0.15560700  1
  Ta  Ta11  1  0.33468600  0.30619100  0.34439300  1
  Ta  Ta12  1  0.33468600  0.02849600  0.84439300  1
  Ta  Ta13  1  0.33468600  0.02849600  0.65560700  1
  In  In0  1  0.66666700  0.33333300  0.00000000  1
  In  In1  1  0.66666700  0.33333300  0.50000000  1
  O  O0  1  0.33274400  0.41954800  0.65291300  1
  O  O1  1  0.33274400  0.41954800  0.84708700  1
  O  O2  1  0.37238800  0.29195100  0.25000000  1
  O  O3  1  0.58045200  0.66725600  0.34708700  1
  O  O4  1  0.58045200  0.66725600  0.15291300  1
  O  O5  1  0.37238800  0.08043700  0.75000000  1
  O  O6  1  0.33274400  0.91319600  0.15291300  1
  O  O7  1  0.33274400  0.91319600  0.34708700  1
  O  O8  1  0.70804900  0.62761200  0.75000000  1
  O  O9  1  0.66666700  0.33333300  0.13487100  1
  O  O10  1  0.66666700  0.33333300  0.86512900  1
  O  O11  1  0.66666700  0.33333300  0.63487100  1
  O  O12  1  0.66666700  0.33333300  0.36512900  1
  O  O13  1  0.91956300  0.62761200  0.25000000  1
  O  O14  1  0.58045200  0.91319600  0.65291300  1
  O  O15  1  0.58045200  0.91319600  0.84708700  1
  O  O16  1  0.70804900  0.08043700  0.25000000  1
  O  O17  1  0.76121200  0.05762300  0.05498700  1
  O  O18  1  0.76121200  0.05762300  0.44501300  1
  O  O19  1  0.08680400  0.66725600  0.84708700  1
  O  O20  1  0.08680400  0.66725600  0.65291300  1
  O  O21  1  0.91956300  0.29195100  0.75000000  1
  O  O22  1  0.94237700  0.23878800  0.94501300  1
  O  O23  1  0.94237700  0.23878800  0.55498700  1
  O  O24  1  0.08680400  0.41954800  0.15291300  1
  O  O25  1  0.08680400  0.41954800  0.34708700  1
  O  O26  1  0.76121200  0.70358900  0.55498700  1
  O  O27  1  0.76121200  0.70358900  0.94501300  1
  O  O28  1  0.00000000  0.00000000  0.33584200  1
  O  O29  1  0.00000000  0.00000000  0.83584200  1
  O  O30  1  0.00000000  0.00000000  0.66415800  1
  O  O31  1  0.00000000  0.00000000  0.16415800  1
  O  O32  1  0.94237700  0.70358900  0.05498700  1
  O  O33  1  0.94237700  0.70358900  0.44501300  1
  O  O34  1  0.29641100  0.23878800  0.05498700  1
  O  O35  1  0.29641100  0.23878800  0.44501300  1
  O  O36  1  0.29641100  0.05762300  0.55498700  1
  O  O37  1  0.29641100  0.05762300  0.94501300  1
loop_
_geom_bond_atom_site_label_1
_geom_bond_atom_site_label_2
_geom_bond_distance
_geom_bond_site_symmetry_2
In0 O22 2.360590 1_554
In0 O17 2.360590 1_555
In0 O37 2.360594 1_554
In0 O32 2.360594 1_555
In0 O27 2.360596 1_554
In0 O34 2.360596 1_555
In1 O23 2.360590 1_555
In1 O18 2.360590 1_555
In1 O33 2.360594 1_555
In1 O36 2.360594 1_555
In1 O26 2.360596 1_555
In1 O35 2.360596 1_555
O0 Ta5 1.997318 1_555
O0 Ta2 2.000872 1_455
O0 Ta13 2.450991 1_555
O1 Ta4 1.997318 1_555
O1 Ta3 2.000872 1_455
O1 Ta12 2.450991 1_555
O2 Ta10 1.929578 1_555
O2 Ta11 1.929578 1_555
O3 Ta11 1.997318 1_555
O3 Ta1 2.000872 1_565
O3 Ta9 2.450991 1_555
O4 Ta10 1.997318 1_555
O4 Ta0 2.000872 1_565
O4 Ta8 2.450991 1_555
O5 Ta13 1.929578 1_555
O5 Ta12 1.929578 1_555
O6 Ta0 1.997317 1_565
O6 Ta8 2.000871 1_455
O6 Ta10 2.450997 1_565
O7 Ta1 1.997317 1_565
O7 Ta9 2.000871 1_455
O7 Ta11 2.450997 1_565
O8 Ta5 1.929578 1_555
O8 Ta4 1.929578 1_555
O9 Ta0 2.039167 1_555
O9 Ta8 2.039174 1_555
O9 Ta10 2.039179 1_555
O10 Ta3 2.039167 1_555
O10 Ta12 2.039174 1_555
O10 Ta4 2.039179 1_555
O11 Ta2 2.039167 1_555
O11 Ta13 2.039174 1_555
O11 Ta5 2.039179 1_555
O12 Ta1 2.039167 1_555
O12 Ta9 2.039174 1_555
O12 Ta11 2.039179 1_555
O13 Ta8 1.929578 1_555
O13 Ta9 1.929578 1_555
O14 Ta13 1.997323 1_565
O14 Ta5 2.000866 1_555
O14 Ta2 2.450994 1_565
O15 Ta12 1.997323 1_565
O15 Ta4 2.000866 1_555
O15 Ta3 2.450994 1_565
O16 Ta1 1.929577 1_555
O16 Ta0 1.929577 1_555
O17 Ta7 2.032206 1_655
O17 Ta0 2.066088 1_555
O18 Ta6 2.032206 1_655
O18 Ta1 2.066088 1_555
O19 Ta3 1.997317 1_455
O19 Ta12 2.000871 1_565
O19 Ta4 2.450997 1_455
O20 Ta2 1.997317 1_455
O20 Ta13 2.000871 1_565
O20 Ta5 2.450997 1_455
O21 Ta2 1.929577 1_555
O21 Ta3 1.929577 1_555
O22 Ta7 2.032206 1_656
O22 Ta3 2.066088 1_555
O23 Ta6 2.032206 1_655
O23 Ta2 2.066088 1_555
O24 Ta8 1.997323 1_455
O24 Ta10 2.000866 1_555
O24 Ta0 2.450994 1_455
O25 Ta9 1.997323 1_455
O25 Ta11 2.000866 1_555
O25 Ta1 2.450994 1_455
O26 Ta6 2.032206 1_665
O26 Ta5 2.066087 1_555
O27 Ta7 2.032206 1_666
O27 Ta4 2.066087 1_555
O28 Ta9 2.016267 1_445
O28 Ta11 2.016270 1_555
O28 Ta1 2.016274 1_455
O29 Ta12 2.016267 1_555
O29 Ta4 2.016270 1_445
O29 Ta3 2.016274 1_455
O30 Ta13 2.016267 1_555
O30 Ta5 2.016270 1_445
O30 Ta2 2.016274 1_455
O31 Ta8 2.016267 1_445
O31 Ta10 2.016270 1_555
O31 Ta0 2.016274 1_455
O32 Ta7 2.032206 1_665
O32 Ta8 2.066087 1_555
O33 Ta6 2.032206 1_665
O33 Ta9 2.066087 1_555
O34 Ta7 2.032206 1_555
O34 Ta10 2.066087 1_555
O35 Ta6 2.032206 1_555
O35 Ta11 2.066087 1_555
O36 Ta6 2.032206 1_555
O36 Ta13 2.066087 1_555
O37 Ta7 2.032206 1_556
O37 Ta12 2.066087 1_555
