# generated using pymatgen
data_BaLi4O3
_symmetry_space_group_name_H-M   'P 1'
_cell_length_a   5.43535615
_cell_length_b   5.43535615
_cell_length_c   13.69117200
_cell_angle_alpha   90.00000000
_cell_angle_beta   90.00000000
_cell_angle_gamma   115.52632102
_symmetry_Int_Tables_number   1
_chemical_formula_structural   BaLi4O3
_chemical_formula_sum   'Ba4 Li16 O12'
_cell_volume   364.99731578
_cell_formula_units_Z   4
loop_
 _symmetry_equiv_pos_site_id
 _symmetry_equiv_pos_as_xyz
  1  'x, y, z'
loop_
 _atom_site_type_symbol
 _atom_site_label
 _atom_site_symmetry_multiplicity
 _atom_site_fract_x
 _atom_site_fract_y
 _atom_site_fract_z
 _atom_site_occupancy
  Ba  Ba0  1  0.72883400  0.27116600  0.34224800  1
  Ba  Ba1  1  0.27116600  0.72883400  0.84224800  1
  Ba  Ba2  1  0.77333200  0.22666800  0.65556500  1
  Ba  Ba3  1  0.22666800  0.77333200  0.15556500  1
  Li  Li0  1  0.91625500  0.08374500  0.17678900  1
  Li  Li1  1  0.08374500  0.91625500  0.67678900  1
  Li  Li2  1  0.54866300  0.45133700  0.15824400  1
  Li  Li3  1  0.45133700  0.54866300  0.65824400  1
  Li  Li4  1  0.21088900  0.43570900  0.49200100  1
  Li  Li5  1  0.43570900  0.21088900  0.99200100  1
  Li  Li6  1  0.05489400  0.30038500  0.00543200  1
  Li  Li7  1  0.30038500  0.05489400  0.50543200  1
  Li  Li8  1  0.94510600  0.69961500  0.50543200  1
  Li  Li9  1  0.69961500  0.94510600  0.00543200  1
  Li  Li10  1  0.78911100  0.56429100  0.99200100  1
  Li  Li11  1  0.56429100  0.78911100  0.49200100  1
  Li  Li12  1  0.41647000  0.58353000  0.32086300  1
  Li  Li13  1  0.58353000  0.41647000  0.82086300  1
  Li  Li14  1  0.04980500  0.95019500  0.34226800  1
  Li  Li15  1  0.95019500  0.04980500  0.84226800  1
  O  O0  1  0.74550700  0.76022600  0.24949000  1
  O  O1  1  0.76022600  0.74550700  0.74949000  1
  O  O2  1  0.06165400  0.93834600  0.98984100  1
  O  O3  1  0.93834600  0.06165400  0.48984100  1
  O  O4  1  0.24705200  0.75294800  0.39751600  1
  O  O5  1  0.75294800  0.24705200  0.89751600  1
  O  O6  1  0.23977400  0.25449300  0.24949000  1
  O  O7  1  0.25449300  0.23977400  0.74949000  1
  O  O8  1  0.56909700  0.43090300  0.50825400  1
  O  O9  1  0.43090300  0.56909700  0.00825400  1
  O  O10  1  0.74325500  0.25674500  0.10229900  1
  O  O11  1  0.25674500  0.74325500  0.60229900  1
loop_
_geom_bond_atom_site_label_1
_geom_bond_atom_site_label_2
_geom_bond_distance
_geom_bond_site_symmetry_2
Ba0 O8 2.706107 1_555
Ba0 O3 2.791876 1_555
Ba0 O6 2.911961 1_555
Ba0 O0 2.911961 1_555
Ba0 O4 3.001123 1_545
Ba0 O4 3.001123 1_655
Ba1 O9 2.706107 1_556
Ba1 O2 2.791876 1_555
Ba1 O7 2.911961 1_555
Ba1 O1 2.911961 1_555
Ba1 O5 3.001123 1_455
Ba1 O5 3.001123 1_565
Ba2 O3 2.729536 1_555
Ba2 O8 2.755791 1_555
Ba2 O7 2.887535 1_655
Ba2 O1 2.887535 1_545
Ba2 O11 2.993528 1_545
Ba2 O11 2.993528 1_655
Ba3 O2 2.729536 1_554
Ba3 O9 2.755791 1_555
Ba3 O6 2.887535 1_565
Ba3 O0 2.887535 1_455
Ba3 O10 2.993528 1_455
Ba3 O10 2.993528 1_565
Li0 O0 1.880870 1_545
Li0 O6 1.880870 1_655
Li0 O10 1.889587 1_555
Li1 O1 1.880870 1_455
Li1 O7 1.880870 1_565
Li1 O11 1.889587 1_555
Li2 O10 1.946325 1_555
Li2 O0 1.993994 1_555
Li2 O6 1.993994 1_555
Li2 O9 2.321526 1_555
Li3 O11 1.946325 1_555
Li3 O1 1.993994 1_555
Li3 O7 1.993994 1_555
Li3 O8 2.321526 1_555
Li4 O3 1.932145 1_455
Li4 O8 1.970988 1_555
Li4 O4 2.095994 1_555
Li4 O11 2.185815 1_555
Li5 O2 1.932145 1_545
Li5 O9 1.970988 1_556
Li5 O5 2.095994 1_555
Li5 O10 2.185815 1_556
Li6 O9 1.933640 1_555
Li6 O2 1.995372 1_544
Li6 O10 2.082797 1_455
Li6 O5 2.133187 1_454
Li7 O8 1.933640 1_555
Li7 O3 1.995372 1_455
Li7 O11 2.082797 1_545
Li7 O4 2.133187 1_545
Li8 O8 1.933640 1_555
Li8 O3 1.995372 1_565
Li8 O11 2.082797 1_655
Li8 O4 2.133187 1_655
Li9 O9 1.933640 1_555
Li9 O2 1.995372 1_654
Li9 O10 2.082797 1_565
Li9 O5 2.133187 1_564
Li10 O2 1.932145 1_655
Li10 O9 1.970988 1_556
Li10 O5 2.095994 1_555
Li10 O10 2.185815 1_556
Li11 O3 1.932145 1_565
Li11 O8 1.970988 1_555
Li11 O4 2.095994 1_555
Li11 O11 2.185815 1_555
Li12 O4 1.878329 1_555
Li12 O0 1.896159 1_555
Li12 O6 1.896159 1_555
Li13 O5 1.878329 1_555
Li13 O1 1.896159 1_555
Li13 O7 1.896159 1_555
Li14 O4 1.965098 1_555
Li14 O6 1.985801 1_565
Li14 O0 1.985801 1_455
Li14 O3 2.265514 1_465
Li15 O5 1.965098 1_555
Li15 O7 1.985801 1_655
Li15 O1 1.985801 1_545
Li15 O2 2.265514 1_645
