# generated using pymatgen
data_Li10Fe5Co3O16
_symmetry_space_group_name_H-M   'P 1'
_cell_length_a   5.97717200
_cell_length_b   5.98755739
_cell_length_c   9.83369386
_cell_angle_alpha   90.67479455
_cell_angle_beta   90.15198963
_cell_angle_gamma   119.81483161
_symmetry_Int_Tables_number   1
_chemical_formula_structural   Li10Fe5Co3O16
_chemical_formula_sum   'Li10 Fe5 Co3 O16'
_cell_volume   305.31565474
_cell_formula_units_Z   1
loop_
 _symmetry_equiv_pos_site_id
 _symmetry_equiv_pos_as_xyz
  1  'x, y, z'
loop_
 _atom_site_type_symbol
 _atom_site_label
 _atom_site_symmetry_multiplicity
 _atom_site_fract_x
 _atom_site_fract_y
 _atom_site_fract_z
 _atom_site_occupancy
  Li  Li0  1  0.62241800  0.81400300  0.94665600  1
  Li  Li1  1  0.20985700  0.81852200  0.94523200  1
  Li  Li2  1  0.21405100  0.39965300  0.94538900  1
  Li  Li3  1  0.34912500  0.67580200  0.72661500  1
  Li  Li4  1  0.01202000  0.01343900  0.01560400  1
  Li  Li5  1  0.00959300  0.00828900  0.51171800  1
  Li  Li6  1  0.81816300  0.61746900  0.44650200  1
  Li  Li7  1  0.41093500  0.21091500  0.44380400  1
  Li  Li8  1  0.68315000  0.34879800  0.22680200  1
  Li  Li9  1  0.82269500  0.20643300  0.44155500  1
  Fe  Fe0  1  0.35420900  0.69297400  0.46928500  1
  Fe  Fe1  1  0.67800500  0.35234800  0.97187100  1
  Fe  Fe2  1  0.18327900  0.35619600  0.21455000  1
  Fe  Fe3  1  0.84616400  0.18290300  0.71439400  1
  Fe  Fe4  1  0.35189100  0.18201700  0.71280600  1
  Co  Co0  1  0.67425400  0.84667900  0.21161000  1
  Co  Co1  1  0.84571700  0.67407000  0.71310200  1
  Co  Co2  1  0.18140300  0.84760600  0.21327600  1
  O  O0  1  0.67976700  0.85301200  0.58879800  1
  O  O1  1  0.51231000  0.99678300  0.33656200  1
  O  O2  1  0.36134800  0.68397600  0.09893500  1
  O  O3  1  0.50133000  0.51807200  0.33936500  1
  O  O4  1  0.18768400  0.85506900  0.58629400  1
  O  O5  1  0.02064600  0.02384500  0.82556400  1
  O  O6  1  0.99281100  0.01385200  0.31920700  1
  O  O7  1  0.03425700  0.52103600  0.34051100  1
  O  O8  1  0.83466000  0.68287000  0.09006300  1
  O  O9  1  0.18000700  0.34240300  0.59202600  1
  O  O10  1  0.99746300  0.49779200  0.84337400  1
  O  O11  1  0.51875200  0.49973700  0.83791200  1
  O  O12  1  0.67769800  0.33607000  0.59375300  1
  O  O13  1  0.84841000  0.18706200  0.09179500  1
  O  O14  1  0.52248700  0.03075200  0.83727300  1
  O  O15  1  0.34555000  0.18979000  0.08813400  1
loop_
_geom_bond_atom_site_label_1
_geom_bond_atom_site_label_2
_geom_bond_distance
_geom_bond_site_symmetry_2
Li0 O11 1.964148 1_555
Li0 O14 1.999590 1_565
Li0 O2 2.028632 1_556
Li0 O8 2.285092 1_556
Li0 O5 2.395555 1_665
Li0 O13 2.401138 1_566
Li1 O10 1.956142 1_455
Li1 O14 1.978566 1_565
Li1 O2 2.121375 1_556
Li1 O5 2.363223 1_565
Li1 O15 2.387830 1_566
Li1 O8 2.439332 1_456
Li2 O11 1.932081 1_555
Li2 O10 1.947065 1_455
Li2 O2 2.096461 1_556
Li2 O5 2.265337 1_555
Li2 O15 2.277050 1_556
Li2 O13 2.400620 1_456
Li3 O11 2.102688 1_555
Li3 O14 2.127048 1_565
Li3 O9 2.163922 1_555
Li3 O10 2.164793 1_455
Li3 O0 2.197995 1_555
Li3 O4 2.246132 1_555
Li4 O15 1.865327 1_555
Li4 O5 1.870560 1_554
Li4 O8 1.878650 1_445
Li4 O13 1.896020 1_455
Li5 O4 1.869594 1_545
Li5 O0 1.878126 1_445
Li5 O9 1.896185 1_555
Li5 O6 1.897044 1_455
Li6 O7 1.955154 1_655
Li6 O3 1.975959 1_555
Li6 O12 2.073105 1_555
Li6 O4 2.367531 1_655
Li6 O0 2.398146 1_555
Li6 O6 2.429564 1_565
Li7 O3 1.946376 1_555
Li7 O1 1.966529 1_545
Li7 O12 2.012855 1_555
Li7 O4 2.353018 1_545
Li7 O9 2.390357 1_555
Li7 O6 2.481292 1_455
Li8 O3 2.123404 1_555
Li8 O7 2.127520 1_655
Li8 O1 2.137611 1_545
Li8 O13 2.145691 1_555
Li8 O15 2.209569 1_555
Li8 O8 2.213099 1_555
Li9 O1 1.930574 1_545
Li9 O7 1.953662 1_655
Li9 O12 2.059637 1_555
Li9 O6 2.225033 1_555
Li9 O0 2.363349 1_545
Li9 O9 2.374744 1_655
Fe0 O0 2.047723 1_555
Fe0 O4 2.048668 1_555
Fe0 O1 2.063628 1_555
Fe0 O7 2.078317 1_555
Fe0 O3 2.095812 1_555
Fe0 O9 2.200012 1_555
Fe1 O8 2.059491 1_556
Fe1 O11 2.067911 1_555
Fe1 O15 2.078023 1_556
Fe1 O10 2.094343 1_555
Fe1 O13 2.105010 1_556
Fe1 O14 2.115976 1_555
Fe2 O7 2.037916 1_555
Fe2 O3 2.046276 1_555
Fe2 O2 2.063740 1_555
Fe2 O6 2.071794 1_455
Fe2 O15 2.101686 1_555
Fe2 O13 2.105177 1_455
Fe3 O5 2.048395 1_655
Fe3 O12 2.049395 1_555
Fe3 O10 2.055096 1_555
Fe3 O14 2.078153 1_555
Fe3 O0 2.097299 1_545
Fe3 O9 2.118168 1_655
Fe4 O11 2.044236 1_555
Fe4 O5 2.053839 1_555
Fe4 O12 2.065218 1_555
Fe4 O14 2.072682 1_555
Fe4 O4 2.090185 1_545
Fe4 O9 2.095201 1_555
Co0 O6 1.953477 1_565
Co0 O2 1.956144 1_555
Co0 O1 2.024825 1_555
Co0 O8 2.055107 1_555
Co0 O3 2.135588 1_555
Co0 O13 2.139842 1_565
Co1 O12 2.097257 1_555
Co1 O11 2.104683 1_555
Co1 O5 2.112865 1_665
Co1 O10 2.134349 1_555
Co1 O0 2.169618 1_555
Co1 O4 2.179450 1_655
Co2 O1 2.093962 1_555
Co2 O2 2.099842 1_555
Co2 O6 2.108135 1_465
Co2 O7 2.125036 1_555
Co2 O8 2.159193 1_455
Co2 O15 2.177534 1_565
