# generated using pymatgen
data_HoInO3
_symmetry_space_group_name_H-M   'P 1'
_cell_length_a   5.52587000
_cell_length_b   5.85997000
_cell_length_c   8.18810400
_cell_angle_alpha   90.00000000
_cell_angle_beta   90.00000000
_cell_angle_gamma   90.00000000
_symmetry_Int_Tables_number   1
_chemical_formula_structural   HoInO3
_chemical_formula_sum   'Ho4 In4 O12'
_cell_volume   265.14253636
_cell_formula_units_Z   4
loop_
 _symmetry_equiv_pos_site_id
 _symmetry_equiv_pos_as_xyz
  1  'x, y, z'
loop_
 _atom_site_type_symbol
 _atom_site_label
 _atom_site_symmetry_multiplicity
 _atom_site_fract_x
 _atom_site_fract_y
 _atom_site_fract_z
 _atom_site_occupancy
  Ho  Ho0  1  0.02005600  0.93526000  0.75000000  1
  Ho  Ho1  1  0.47994400  0.43526000  0.75000000  1
  Ho  Ho2  1  0.52005600  0.56474000  0.25000000  1
  Ho  Ho3  1  0.97994400  0.06474000  0.25000000  1
  In  In0  1  0.00000000  0.50000000  0.00000000  1
  In  In1  1  0.00000000  0.50000000  0.50000000  1
  In  In2  1  0.50000000  0.00000000  0.00000000  1
  In  In3  1  0.50000000  0.00000000  0.50000000  1
  O  O0  1  0.14729200  0.42663000  0.25000000  1
  O  O1  1  0.18130600  0.18520800  0.57487900  1
  O  O2  1  0.18130600  0.18520800  0.92512100  1
  O  O3  1  0.31869400  0.68520800  0.57487900  1
  O  O4  1  0.31869400  0.68520800  0.92512100  1
  O  O5  1  0.35270800  0.92663000  0.25000000  1
  O  O6  1  0.64729200  0.07337000  0.75000000  1
  O  O7  1  0.68130600  0.31479200  0.07487900  1
  O  O8  1  0.68130600  0.31479200  0.42512100  1
  O  O9  1  0.81869400  0.81479200  0.07487900  1
  O  O10  1  0.81869400  0.81479200  0.42512100  1
  O  O11  1  0.85270800  0.57337000  0.75000000  1
loop_
_geom_bond_atom_site_label_1
_geom_bond_atom_site_label_2
_geom_bond_distance
_geom_bond_site_symmetry_2
Ho0 O6 2.213134 1_465
Ho0 O1 2.235032 1_565
Ho0 O2 2.235032 1_565
Ho0 O11 2.313519 1_455
Ho0 O3 2.631818 1_555
Ho0 O4 2.631818 1_555
Ho0 O9 2.968638 1_456
Ho0 O10 2.968638 1_455
Ho1 O11 2.213134 1_555
Ho1 O3 2.235032 1_555
Ho1 O4 2.235032 1_555
Ho1 O6 2.313519 1_555
Ho1 O1 2.631818 1_555
Ho1 O2 2.631818 1_555
Ho1 O7 2.968638 1_556
Ho1 O8 2.968638 1_555
Ho2 O0 2.213134 1_555
Ho2 O7 2.235032 1_555
Ho2 O8 2.235032 1_555
Ho2 O5 2.313519 1_555
Ho2 O9 2.631818 1_555
Ho2 O10 2.631818 1_555
Ho2 O4 2.968638 1_554
Ho2 O3 2.968638 1_555
Ho3 O5 2.213134 1_645
Ho3 O9 2.235032 1_545
Ho3 O10 2.235032 1_545
Ho3 O0 2.313519 1_655
Ho3 O7 2.631818 1_555
Ho3 O8 2.631818 1_555
Ho3 O2 2.968638 1_654
Ho3 O1 2.968638 1_655
In0 O7 2.157581 1_455
In0 O4 2.157581 1_554
In0 O9 2.186887 1_455
In0 O2 2.186887 1_554
In0 O0 2.244466 1_555
In0 O11 2.244466 1_454
In1 O3 2.157581 1_555
In1 O8 2.157581 1_455
In1 O10 2.186887 1_455
In1 O1 2.186887 1_555
In1 O0 2.244466 1_555
In1 O11 2.244466 1_455
In2 O9 2.157581 1_545
In2 O2 2.157581 1_554
In2 O7 2.186887 1_555
In2 O4 2.186887 1_544
In2 O6 2.244466 1_554
In2 O5 2.244466 1_545
In3 O10 2.157581 1_545
In3 O1 2.157581 1_555
In3 O8 2.186887 1_555
In3 O3 2.186887 1_545
In3 O6 2.244466 1_555
In3 O5 2.244466 1_545
