# generated using pymatgen
data_CeBrO
_symmetry_space_group_name_H-M   'P 1'
_cell_length_a   4.04534490
_cell_length_b   4.04534490
_cell_length_c   8.00092767
_cell_angle_alpha   90.00000000
_cell_angle_beta   90.00000000
_cell_angle_gamma   90.00000000
_symmetry_Int_Tables_number   1
_chemical_formula_structural   CeBrO
_chemical_formula_sum   'Ce2 Br2 O2'
_cell_volume   130.93370403
_cell_formula_units_Z   2
loop_
 _symmetry_equiv_pos_site_id
 _symmetry_equiv_pos_as_xyz
  1  'x, y, z'
loop_
 _atom_site_type_symbol
 _atom_site_label
 _atom_site_symmetry_multiplicity
 _atom_site_fract_x
 _atom_site_fract_y
 _atom_site_fract_z
 _atom_site_occupancy
  Ce  Ce0  1  -0.00000000  0.50000000  0.15211341  1
  Ce  Ce1  1  0.50000000  0.00000000  0.84788659  1
  Br  Br0  1  0.00000000  0.50000000  0.65333822  1
  Br  Br1  1  0.50000000  0.00000000  0.34666178  1
  O  O0  1  0.00000000  0.00000000  0.00000000  1
  O  O1  1  0.50000000  0.50000000  0.00000000  1
loop_
_geom_bond_atom_site_label_1
_geom_bond_atom_site_label_2
_geom_bond_distance
_geom_bond_site_symmetry_2
Ce0 O0 2.360595 1_555
Ce0 O1 2.360595 1_455
Ce0 O1 2.360595 1_555
Ce0 O0 2.360595 1_565
Ce1 O0 2.360595 1_556
Ce1 O0 2.360595 1_656
Ce1 O1 2.360595 1_556
Ce1 O1 2.360595 1_546
Br0 Ce1 3.256579 1_555
Br0 Ce1 3.256579 1_455
Br0 Ce1 3.256579 1_465
Br0 Ce1 3.256579 1_565
Br1 Ce0 3.256579 1_545
Br1 Ce0 3.256579 1_645
Br1 Ce0 3.256579 1_555
Br1 Ce0 3.256579 1_655
