# generated using pymatgen
data_RbAsOF5
_symmetry_space_group_name_H-M   'P 1'
_cell_length_a   9.64446400
_cell_length_b   9.90950100
_cell_length_c   11.75139100
_cell_angle_alpha   90.00000000
_cell_angle_beta   90.00000000
_cell_angle_gamma   90.00000000
_symmetry_Int_Tables_number   1
_chemical_formula_structural   RbAsOF5
_chemical_formula_sum   'Rb8 As8 O8 F40'
_cell_volume   1123.10189183
_cell_formula_units_Z   8
loop_
 _symmetry_equiv_pos_site_id
 _symmetry_equiv_pos_as_xyz
  1  'x, y, z'
loop_
 _atom_site_type_symbol
 _atom_site_label
 _atom_site_symmetry_multiplicity
 _atom_site_fract_x
 _atom_site_fract_y
 _atom_site_fract_z
 _atom_site_occupancy
  Rb  Rb0  1  0.73128400  0.49858100  0.16535800  1
  Rb  Rb1  1  0.76871600  0.00141900  0.66535800  1
  Rb  Rb2  1  0.26871600  0.99858100  0.83464200  1
  Rb  Rb3  1  0.23128400  0.50141900  0.33464200  1
  Rb  Rb4  1  0.26871600  0.50141900  0.83464200  1
  Rb  Rb5  1  0.23128400  0.99858100  0.33464200  1
  Rb  Rb6  1  0.73128400  0.00141900  0.16535800  1
  Rb  Rb7  1  0.76871600  0.49858100  0.66535800  1
  As  As0  1  0.56364000  0.75000000  0.40242100  1
  As  As1  1  0.93636000  0.75000000  0.90242100  1
  As  As2  1  0.43636000  0.25000000  0.59757900  1
  As  As3  1  0.06364000  0.25000000  0.09757900  1
  As  As4  1  0.90663100  0.75000000  0.39903700  1
  As  As5  1  0.59336900  0.75000000  0.89903700  1
  As  As6  1  0.09336900  0.25000000  0.60096300  1
  As  As7  1  0.40663100  0.25000000  0.10096300  1
  O  O0  1  0.73411000  0.75000000  0.33852700  1
  O  O1  1  0.76589000  0.75000000  0.83852700  1
  O  O2  1  0.26589000  0.25000000  0.66147300  1
  O  O3  1  0.23411000  0.25000000  0.16147300  1
  O  O4  1  0.25000300  0.75000000  0.15423800  1
  O  O5  1  0.24999700  0.75000000  0.65423800  1
  O  O6  1  0.74999700  0.25000000  0.84576200  1
  O  O7  1  0.75000300  0.25000000  0.34576200  1
  F  F0  1  0.38670500  0.75000000  0.44972700  1
  F  F1  1  0.11329500  0.75000000  0.94972700  1
  F  F2  1  0.61329500  0.25000000  0.55027300  1
  F  F3  1  0.88670500  0.25000000  0.05027300  1
  F  F4  1  0.85714300  0.75000000  0.54558600  1
  F  F5  1  0.64285700  0.75000000  0.04558600  1
  F  F6  1  0.14285700  0.25000000  0.45441400  1
  F  F7  1  0.35714300  0.25000000  0.95441400  1
  F  F8  1  0.51342500  0.62201200  0.30188200  1
  F  F9  1  0.98657500  0.87798800  0.80188200  1
  F  F10  1  0.48657500  0.12201200  0.69811800  1
  F  F11  1  0.01342500  0.37798800  0.19811800  1
  F  F12  1  0.48657500  0.37798800  0.69811800  1
  F  F13  1  0.01342500  0.12201200  0.19811800  1
  F  F14  1  0.51342500  0.87798800  0.30188200  1
  F  F15  1  0.98657500  0.62201200  0.80188200  1
  F  F16  1  0.60081100  0.62189900  0.50342200  1
  F  F17  1  0.89918900  0.87810100  0.00342200  1
  F  F18  1  0.39918900  0.12189900  0.49657800  1
  F  F19  1  0.10081100  0.37810100  0.99657800  1
  F  F20  1  0.39918900  0.37810100  0.49657800  1
  F  F21  1  0.10081100  0.12189900  0.99657800  1
  F  F22  1  0.60081100  0.87810100  0.50342200  1
  F  F23  1  0.89918900  0.62189900  0.00342200  1
  F  F24  1  0.91107400  0.56938900  0.40124300  1
  F  F25  1  0.58892600  0.93061100  0.90124300  1
  F  F26  1  0.08892600  0.06938900  0.59875700  1
  F  F27  1  0.41107400  0.43061100  0.09875700  1
  F  F28  1  0.08892600  0.43061100  0.59875700  1
  F  F29  1  0.41107400  0.06938900  0.09875700  1
  F  F30  1  0.91107400  0.93061100  0.40124300  1
  F  F31  1  0.58892600  0.56938900  0.90124300  1
  F  F32  1  0.96981900  0.75000000  0.25582100  1
  F  F33  1  0.53018100  0.75000000  0.75582100  1
  F  F34  1  0.03018100  0.25000000  0.74417900  1
  F  F35  1  0.46981900  0.25000000  0.24417900  1
  F  F36  1  0.08526200  0.75000000  0.44270900  1
  F  F37  1  0.41473800  0.75000000  0.94270900  1
  F  F38  1  0.91473800  0.25000000  0.55729100  1
  F  F39  1  0.58526200  0.25000000  0.05729100  1
loop_
_geom_bond_atom_site_label_1
_geom_bond_atom_site_label_2
_geom_bond_distance
_geom_bond_site_symmetry_2
As0 F22 1.774451 1_555
As0 F16 1.774451 1_555
As0 F0 1.794711 1_555
As0 F8 1.799722 1_555
As0 F14 1.799722 1_555
As0 O0 1.807430 1_555
As1 F17 1.774451 1_556
As1 F23 1.774451 1_556
As1 F1 1.794711 1_655
As1 F9 1.799722 1_555
As1 F15 1.799722 1_555
As1 O1 1.807430 1_555
As2 F20 1.774451 1_555
As2 F18 1.774451 1_555
As2 F2 1.794711 1_555
As2 F12 1.799722 1_555
As2 F10 1.799722 1_555
As2 O2 1.807430 1_555
As3 F19 1.774451 1_554
As3 F21 1.774451 1_554
As3 F3 1.794711 1_455
As3 F13 1.799722 1_555
As3 F11 1.799722 1_555
As3 O3 1.807430 1_555
As4 F4 1.787070 1_555
As4 F32 1.789925 1_555
As4 F30 1.790465 1_555
As4 F24 1.790465 1_555
As4 F36 1.797616 1_655
As4 O0 1.809448 1_555
As5 F5 1.787070 1_556
As5 F33 1.789925 1_555
As5 F25 1.790465 1_555
As5 F31 1.790465 1_555
As5 F37 1.797616 1_555
As5 O1 1.809448 1_555
As6 F6 1.787070 1_555
As6 F34 1.789925 1_555
As6 F28 1.790465 1_555
As6 F26 1.790465 1_555
As6 F38 1.797616 1_455
As6 O2 1.809448 1_555
As7 F7 1.787070 1_554
As7 F35 1.789925 1_555
As7 F27 1.790465 1_555
As7 F29 1.790465 1_555
As7 F39 1.797616 1_555
As7 O3 1.809448 1_555
O0 Rb0 3.217006 1_555
O0 Rb6 3.217006 1_565
O1 Rb7 3.217006 1_555
O1 Rb1 3.217006 1_565
O2 Rb4 3.217006 1_555
O2 Rb2 3.217006 1_545
O3 Rb3 3.217006 1_555
O3 Rb5 3.217006 1_545
O4 Rb5 3.254981 1_555
O4 Rb3 3.254981 1_555
O5 Rb2 3.254981 1_555
O5 Rb4 3.254981 1_555
O6 Rb1 3.254981 1_555
O6 Rb7 3.254981 1_555
O7 Rb6 3.254981 1_555
O7 Rb0 3.254981 1_555
F0 Rb5 3.184930 1_555
F0 Rb3 3.184930 1_555
F1 Rb2 3.184930 1_555
F1 Rb4 3.184930 1_555
F2 Rb7 3.184930 1_555
F2 Rb1 3.184930 1_555
F3 Rb0 3.184930 1_555
F3 Rb6 3.184930 1_555
F4 Rb7 2.985900 1_555
F4 Rb1 2.985900 1_565
F5 Rb6 2.985900 1_565
F5 Rb0 2.985900 1_555
F6 Rb3 2.985900 1_555
F6 Rb5 2.985900 1_545
F7 Rb4 2.985900 1_555
F7 Rb2 2.985900 1_545
F8 Rb0 2.912861 1_555
F8 Rb3 2.996773 1_555
F9 Rb1 2.912861 1_565
F9 Rb2 2.996773 1_655
F10 Rb2 2.912861 1_545
F10 Rb1 2.996773 1_555
F11 Rb3 2.912861 1_555
F11 Rb0 2.996773 1_455
F12 Rb4 2.912861 1_555
F12 Rb7 2.996773 1_555
F13 Rb5 2.912861 1_545
F13 Rb6 2.996773 1_455
F14 Rb6 2.912861 1_565
F14 Rb5 2.996773 1_555
F15 Rb7 2.912861 1_555
F15 Rb4 2.996773 1_655
F16 Rb7 2.781537 1_555
F17 Rb6 2.781537 1_565
F18 Rb5 2.781537 1_545
F19 Rb4 2.781537 1_555
F20 Rb3 2.781537 1_555
F21 Rb2 2.781537 1_545
F22 Rb1 2.781537 1_565
F23 Rb0 2.781537 1_555
F24 Rb3 3.256306 1_655
F24 Rb0 3.344081 1_555
F25 Rb2 3.256306 1_555
F25 Rb1 3.344081 1_565
F26 Rb1 3.256306 1_455
F26 Rb2 3.344081 1_545
F27 Rb0 3.256306 1_555
F27 Rb3 3.344081 1_555
F28 Rb7 3.256306 1_455
F28 Rb4 3.344081 1_555
F29 Rb6 3.256306 1_555
F29 Rb5 3.344081 1_545
F30 Rb5 3.256306 1_655
F30 Rb6 3.344081 1_565
F31 Rb4 3.256306 1_555
F31 Rb7 3.344081 1_555
F36 Rb5 3.108694 1_555
F36 Rb3 3.108694 1_555
F37 Rb2 3.108694 1_555
F37 Rb4 3.108694 1_555
F38 Rb1 3.108694 1_555
F38 Rb7 3.108694 1_555
F39 Rb6 3.108694 1_555
F39 Rb0 3.108694 1_555
