# generated using pymatgen
data_CaTb2O4
_symmetry_space_group_name_H-M   'P 1'
_cell_length_a   6.87604776
_cell_length_b   6.87604776
_cell_length_c   6.87604776
_cell_angle_alpha   60.00000000
_cell_angle_beta   60.00000000
_cell_angle_gamma   60.00000000
_symmetry_Int_Tables_number   1
_chemical_formula_structural   CaTb2O4
_chemical_formula_sum   'Ca2 Tb4 O8'
_cell_volume   229.88024757
_cell_formula_units_Z   2
loop_
 _symmetry_equiv_pos_site_id
 _symmetry_equiv_pos_as_xyz
  1  'x, y, z'
loop_
 _atom_site_type_symbol
 _atom_site_label
 _atom_site_symmetry_multiplicity
 _atom_site_fract_x
 _atom_site_fract_y
 _atom_site_fract_z
 _atom_site_occupancy
  Ca  Ca0  1  0.25000000  0.25000000  0.25000000  1
  Ca  Ca1  1  0.00000000  0.00000000  0.00000000  1
  Tb  Tb0  1  0.62500000  0.12500000  0.62500000  1
  Tb  Tb1  1  0.12500000  0.62500000  0.62500000  1
  Tb  Tb2  1  0.62500000  0.62500000  0.62500000  1
  Tb  Tb3  1  0.62500000  0.62500000  0.12500000  1
  O  O0  1  0.38765700  0.38765700  0.38765700  1
  O  O1  1  0.86234300  0.86234300  0.41297000  1
  O  O2  1  0.83703000  0.38765700  0.38765700  1
  O  O3  1  0.38765700  0.83703000  0.38765700  1
  O  O4  1  0.86234300  0.86234300  0.86234300  1
  O  O5  1  0.38765700  0.38765700  0.83703000  1
  O  O6  1  0.41297000  0.86234300  0.86234300  1
  O  O7  1  0.86234300  0.41297000  0.86234300  1
loop_
_geom_bond_atom_site_label_1
_geom_bond_atom_site_label_2
_geom_bond_distance
_geom_bond_site_symmetry_2
Ca0 O5 2.318525 1_554
Ca0 O3 2.318525 1_545
Ca0 O2 2.318525 1_455
Ca0 O0 2.318530 1_555
Ca1 O6 2.318525 1_544
Ca1 O7 2.318525 1_454
Ca1 O1 2.318525 1_445
Ca1 O4 2.318530 1_444
O0 Tb0 2.314525 1_555
O0 Tb1 2.314525 1_555
O0 Tb3 2.314525 1_555
O1 Tb2 2.314525 1_555
O1 Tb0 2.314530 1_565
O1 Tb1 2.314530 1_655
O2 Tb2 2.314525 1_555
O2 Tb3 2.314530 1_555
O2 Tb0 2.314530 1_555
O3 Tb2 2.314525 1_555
O3 Tb3 2.314530 1_555
O3 Tb1 2.314530 1_555
O4 Tb1 2.314525 1_655
O4 Tb3 2.314525 1_556
O4 Tb0 2.314525 1_565
O5 Tb2 2.314525 1_555
O5 Tb0 2.314530 1_555
O5 Tb1 2.314530 1_555
O6 Tb2 2.314525 1_555
O6 Tb3 2.314530 1_556
O6 Tb0 2.314530 1_565
O7 Tb2 2.314525 1_555
O7 Tb1 2.314530 1_655
O7 Tb3 2.314530 1_556
