# generated using pymatgen
data_YNb2NO5
_symmetry_space_group_name_H-M   'P 1'
_cell_length_a   5.27900617
_cell_length_b   5.66624218
_cell_length_c   14.97485399
_cell_angle_alpha   89.74525667
_cell_angle_beta   89.94269169
_cell_angle_gamma   89.93153781
_symmetry_Int_Tables_number   1
_chemical_formula_structural   YNb2NO5
_chemical_formula_sum   'Y4 Nb8 N4 O20'
_cell_volume   447.92477220
_cell_formula_units_Z   4
loop_
 _symmetry_equiv_pos_site_id
 _symmetry_equiv_pos_as_xyz
  1  'x, y, z'
loop_
 _atom_site_type_symbol
 _atom_site_label
 _atom_site_symmetry_multiplicity
 _atom_site_fract_x
 _atom_site_fract_y
 _atom_site_fract_z
 _atom_site_occupancy
  Y  Y0  1  0.24959167  0.73938239  0.00088140  1
  Y  Y1  1  0.75013504  0.27088420  0.00014452  1
  Y  Y2  1  0.75045751  0.75536016  0.49990844  1
  Y  Y3  1  0.25594030  0.22550573  0.50040116  1
  Nb  Nb0  1  0.67334491  0.81602756  0.16935660  1
  Nb  Nb1  1  0.18904834  0.18865461  0.16786516  1
  Nb  Nb2  1  0.18828067  0.68940674  0.33226050  1
  Nb  Nb3  1  0.70477108  0.31083640  0.34077100  1
  Nb  Nb4  1  0.30401299  0.69031018  0.67203212  1
  Nb  Nb5  1  0.81716081  0.30237287  0.66434712  1
  Nb  Nb6  1  0.81795838  0.80973003  0.83159868  1
  Nb  Nb7  1  0.31795585  0.19735441  0.83963381  1
  N  N0  1  0.35663062  0.87380605  0.23850031  1
  N  N1  1  0.97364058  0.42818014  0.40784770  1
  N  N2  1  0.12221659  0.86564252  0.75630924  1
  N  N3  1  0.41806792  0.42752223  0.91332642  1
  O  O0  1  0.08000744  0.41883358  0.08528184  1
  O  O1  1  0.57890237  0.59090183  0.08568288  1
  O  O2  1  0.95995270  0.94786658  0.09108040  1
  O  O3  1  0.46476189  0.07136992  0.08815169  1
  O  O4  1  0.85898541  0.13454104  0.23964741  1
  O  O5  1  0.35545904  0.37425304  0.25676836  1
  O  O6  1  0.86173125  0.63534582  0.25768307  1
  O  O7  1  0.47350873  0.55896712  0.40703577  1
  O  O8  1  0.07861736  0.91025955  0.41618646  1
  O  O9  1  0.57787634  0.07626748  0.41764356  1
  O  O10  1  0.42144942  0.90483796  0.58425721  1
  O  O11  1  0.92242843  0.07708433  0.58354158  1
  O  O12  1  0.03112667  0.55660132  0.59160551  1
  O  O13  1  0.54149833  0.42630355  0.58988427  1
  O  O14  1  0.63569844  0.62689967  0.73987980  1
  O  O15  1  0.14016719  0.36631492  0.73676000  1
  O  O16  1  0.64446645  0.13259233  0.75834339  1
  O  O17  1  0.53503147  0.94615037  0.90919435  1
  O  O18  1  0.02689327  0.06401423  0.91057509  1
  O  O19  1  0.92222355  0.58961614  0.91560818  1
loop_
_geom_bond_atom_site_label_1
_geom_bond_atom_site_label_2
_geom_bond_distance
_geom_bond_site_symmetry_2
Nb0 O1 1.860849 1_555
Nb0 O6 1.942880 1_555
Nb0 O2 2.052462 1_555
Nb0 O3 2.183513 1_565
Nb0 O4 2.312735 1_565
Nb1 O0 1.883365 1_555
Nb1 O5 1.914962 1_555
Nb1 O3 1.996569 1_555
Nb1 O4 2.068831 1_455
Nb1 O2 2.160310 1_445
Nb2 O8 1.868542 1_555
Nb2 O7 2.015108 1_555
Nb2 O6 2.078673 1_455
Nb2 O5 2.293013 1_555
Nb3 O9 1.878150 1_555
Nb3 O4 1.990679 1_555
Nb3 O7 2.111335 1_555
Nb3 O5 2.260741 1_555
Nb3 O6 2.365778 1_555
Nb4 O10 1.890923 1_555
Nb4 O12 2.028288 1_555
Nb4 O14 2.055742 1_555
Nb4 O15 2.245938 1_555
Nb4 O13 2.309024 1_555
Nb5 O11 1.847507 1_555
Nb5 O16 1.930120 1_555
Nb5 O13 1.961636 1_555
Nb5 O15 2.055078 1_655
Nb5 O12 2.127197 1_655
Nb5 O14 2.364423 1_555
Nb6 O19 1.851201 1_555
Nb6 O14 1.975618 1_555
Nb6 O17 2.044563 1_555
Nb6 O18 2.170897 1_665
Nb6 O16 2.317135 1_565
Nb7 O18 2.013123 1_555
Nb7 O15 2.039182 1_555
Nb7 O17 2.099896 1_545
Nb7 O16 2.141435 1_555
N0 Nb2 1.959479 1_555
N0 Nb0 1.993210 1_555
N0 Nb1 2.250662 1_565
N1 Nb3 1.864585 1_555
N1 Nb2 2.177741 1_655
N1 Y3 2.333779 1_655
N1 Y2 2.596109 1_555
N2 Nb4 1.872755 1_555
N2 Nb6 1.986390 1_455
N2 Nb7 2.487064 1_565
N3 Nb7 1.792655 1_555
N3 Y1 2.354041 1_556
N3 Y0 2.376367 1_556
O0 Y1 2.319072 1_455
O0 Y0 2.383072 1_555
O1 Y0 2.309550 1_555
O1 Y1 2.400071 1_555
O2 Y0 2.358719 1_655
O2 Y1 2.531245 1_565
O3 Y1 2.295914 1_555
O3 Y0 2.562552 1_545
O7 Y2 2.309058 1_555
O7 Y3 2.611996 1_555
O8 Y2 2.309274 1_455
O8 Y3 2.384064 1_565
O9 Y3 2.267350 1_555
O9 Y2 2.373254 1_545
O10 Y2 2.308902 1_555
O10 Y3 2.370609 1_565
O11 Y3 2.312342 1_655
O11 Y2 2.396330 1_545
O12 Y2 2.309877 1_455
O12 Y3 2.609149 1_555
O13 Y3 2.320399 1_555
O13 Y2 2.547206 1_555
O17 Y0 2.348214 1_556
O17 Y1 2.561334 1_566
O18 Y1 2.305117 1_456
O18 Y0 2.563263 1_546
O19 Y0 2.314068 1_656
O19 Y1 2.381347 1_556
