# generated using pymatgen
data_Fe5O7F3
_symmetry_space_group_name_H-M   'P 1'
_cell_length_a   4.67802788
_cell_length_b   4.67802788
_cell_length_c   15.20995195
_cell_angle_alpha   89.92340030
_cell_angle_beta   89.92340030
_cell_angle_gamma   91.56055578
_symmetry_Int_Tables_number   1
_chemical_formula_structural   Fe5O7F3
_chemical_formula_sum   'Fe10 O14 F6'
_cell_volume   332.72968265
_cell_formula_units_Z   2
loop_
 _symmetry_equiv_pos_site_id
 _symmetry_equiv_pos_as_xyz
  1  'x, y, z'
loop_
 _atom_site_type_symbol
 _atom_site_label
 _atom_site_symmetry_multiplicity
 _atom_site_fract_x
 _atom_site_fract_y
 _atom_site_fract_z
 _atom_site_occupancy
  Fe  Fe0  1  0.00397800  0.00612900  0.20087400  1
  Fe  Fe1  1  0.98243600  0.96869000  0.40597500  1
  Fe  Fe2  1  0.03131000  0.01756400  0.59402500  1
  Fe  Fe3  1  0.99387100  0.99602200  0.79912600  1
  Fe  Fe4  1  0.98981200  0.01018800  0.00000000  1
  Fe  Fe5  1  0.47969900  0.54053100  0.29346500  1
  Fe  Fe6  1  0.45946900  0.52030100  0.70653500  1
  Fe  Fe7  1  0.50589300  0.49410700  0.50000000  1
  Fe  Fe8  1  0.52305300  0.47500400  0.90124900  1
  Fe  Fe9  1  0.52499600  0.47694700  0.09875100  1
  O  O0  1  0.80385600  0.19614400  0.50000000  1
  O  O1  1  0.81577200  0.17861200  0.89751800  1
  O  O2  1  0.82138800  0.18422800  0.10248200  1
  O  O3  1  0.30731900  0.30835200  0.19799500  1
  O  O4  1  0.31764500  0.32355000  0.60006000  1
  O  O5  1  0.30133000  0.29792800  0.80390600  1
  O  O6  1  0.31951200  0.29561000  0.99992400  1
  O  O7  1  0.70207200  0.69867000  0.19609400  1
  O  O8  1  0.67645000  0.68235500  0.39994000  1
  O  O9  1  0.69164800  0.69268100  0.80200500  1
  O  O10  1  0.70439000  0.68048800  0.00007600  1
  O  O11  1  0.17374600  0.81816200  0.29895200  1
  O  O12  1  0.18183800  0.82625400  0.70104800  1
  O  O13  1  0.20257700  0.79742300  0.50000000  1
  F  F0  1  0.78630100  0.19810000  0.30335700  1
  F  F1  1  0.80190000  0.21369900  0.69664300  1
  F  F2  1  0.28846700  0.30032800  0.39629100  1
  F  F3  1  0.69967200  0.71153300  0.60370900  1
  F  F4  1  0.20808200  0.79848500  0.09835300  1
  F  F5  1  0.20151500  0.79191800  0.90164700  1
loop_
_geom_bond_atom_site_label_1
_geom_bond_atom_site_label_2
_geom_bond_distance
_geom_bond_site_symmetry_2
Fe0 O11 1.914932 1_545
Fe0 O2 1.924111 1_455
Fe0 O3 1.976065 1_555
Fe0 O7 1.989616 1_445
Fe1 O8 1.935930 1_555
Fe1 O13 1.947690 1_655
Fe1 O0 1.981058 1_565
Fe1 O11 1.995013 1_655
Fe2 O4 1.935930 1_555
Fe2 O13 1.947690 1_545
Fe2 O0 1.981058 1_455
Fe2 O12 1.995013 1_545
Fe3 O12 1.914932 1_655
Fe3 O1 1.924111 1_565
Fe3 O9 1.976065 1_555
Fe3 O5 1.989616 1_665
Fe4 O1 1.936072 1_554
Fe4 O2 1.936072 1_555
Fe4 O10 2.012324 1_545
Fe4 O6 2.012324 1_654
Fe5 O7 1.942640 1_555
Fe5 O11 1.960477 1_555
Fe5 O8 1.970694 1_555
Fe5 O3 1.974385 1_555
Fe6 O5 1.942640 1_555
Fe6 O12 1.960477 1_555
Fe6 O4 1.970694 1_555
Fe6 O9 1.974385 1_555
Fe7 O8 1.919169 1_555
Fe7 O4 1.919169 1_555
Fe7 O0 1.997904 1_555
Fe7 O13 2.033797 1_555
Fe8 O6 1.952618 1_555
Fe8 O10 1.966205 1_556
Fe8 O9 1.971424 1_555
Fe8 O1 1.975909 1_555
Fe8 O5 1.978570 1_555
Fe9 O10 1.952618 1_555
Fe9 O6 1.966205 1_554
Fe9 O3 1.971424 1_555
Fe9 O2 1.975909 1_555
Fe9 O7 1.978570 1_555
F0 Fe0 2.079054 1_655
F0 Fe1 2.117240 1_545
F0 Fe5 2.184261 1_555
F1 Fe3 2.079054 1_545
F1 Fe2 2.117240 1_655
F1 Fe6 2.184261 1_555
F2 Fe7 2.074224 1_555
F2 Fe1 2.087095 1_445
F2 Fe5 2.108501 1_555
F3 Fe7 2.074224 1_555
F3 Fe2 2.087095 1_665
F3 Fe6 2.108501 1_555
F4 Fe4 2.077604 1_465
F4 Fe0 2.082624 1_565
F4 Fe9 2.140539 1_555
F5 Fe4 2.077604 1_466
F5 Fe3 2.082624 1_455
F5 Fe8 2.140539 1_555
