# generated using pymatgen
data_Li5Co2Ni3O10
_symmetry_space_group_name_H-M   'P 1'
_cell_length_a   20.58177126
_cell_length_b   2.86024626
_cell_length_c   5.77802197
_cell_angle_alpha   89.99999429
_cell_angle_beta   82.29121873
_cell_angle_gamma   89.99999842
_symmetry_Int_Tables_number   1
_chemical_formula_structural   Li5Co2Ni3O10
_chemical_formula_sum   'Li10 Co4 Ni6 O20'
_cell_volume   337.07197839
_cell_formula_units_Z   2
loop_
 _symmetry_equiv_pos_site_id
 _symmetry_equiv_pos_as_xyz
  1  'x, y, z'
loop_
 _atom_site_type_symbol
 _atom_site_label
 _atom_site_symmetry_multiplicity
 _atom_site_fract_x
 _atom_site_fract_y
 _atom_site_fract_z
 _atom_site_occupancy
  Li  Li0  1  0.90039200  0.50000000  0.29928200  1
  Li  Li1  1  0.80058900  0.00000000  0.09964100  1
  Li  Li2  1  0.69998200  0.50000000  0.90013200  1
  Li  Li3  1  0.59934500  0.00000000  0.70059100  1
  Li  Li4  1  0.49963000  0.50000000  0.50080600  1
  Li  Li5  1  0.40027800  0.00000000  0.30045700  1
  Li  Li6  1  0.19995200  0.00000000  0.89968400  1
  Li  Li7  1  0.29944400  0.50000000  0.09779300  1
  Li  Li8  1  0.10054100  0.50000000  0.70184400  1
  Li  Li9  1  0.99984200  0.00000000  0.49945500  1
  Co  Co0  1  0.69999300  0.50000000  0.39996200  1
  Co  Co1  1  0.29835500  0.50000000  0.59975800  1
  Co  Co2  1  0.20004200  0.00000000  0.40009900  1
  Co  Co3  1  0.10161200  0.50000000  0.20015700  1
  Ni  Ni0  1  0.90007800  0.50000000  0.80000600  1
  Ni  Ni1  1  0.79983600  0.00000000  0.59808400  1
  Ni  Ni2  1  0.60006600  0.00000000  0.20199200  1
  Ni  Ni3  1  0.39909200  0.00000000  0.79726900  1
  Ni  Ni4  1  0.49993000  0.50000000  0.00001100  1
  Ni  Ni5  1  0.00099500  0.00000000  0.00273500  1
  O  O0  1  0.99359600  0.50000000  0.76775800  1
  O  O1  1  0.90045600  0.00000000  0.56388700  1
  O  O2  1  0.89927000  0.00000000  0.03574100  1
  O  O3  1  0.80649400  0.50000000  0.83096700  1
  O  O4  1  0.69932600  0.00000000  0.62626300  1
  O  O5  1  0.79259100  0.50000000  0.36886600  1
  O  O6  1  0.59345200  0.50000000  0.96887200  1
  O  O7  1  0.70063700  0.00000000  0.17375800  1
  O  O8  1  0.60741100  0.50000000  0.43125200  1
  O  O9  1  0.50072000  0.00000000  0.76417400  1
  O  O10  1  0.49955200  0.00000000  0.23627200  1
  O  O11  1  0.29813800  0.00000000  0.82570500  1
  O  O12  1  0.39148900  0.50000000  0.56582400  1
  O  O13  1  0.40645200  0.50000000  0.03244100  1
  O  O14  1  0.29479600  0.00000000  0.37451500  1
  O  O15  1  0.10187400  0.00000000  0.97441300  1
  O  O16  1  0.20416600  0.50000000  0.62150600  1
  O  O17  1  0.10521300  0.00000000  0.42559700  1
  O  O18  1  0.19587700  0.50000000  0.17840600  1
  O  O19  1  0.00849700  0.50000000  0.23402400  1
loop_
_geom_bond_atom_site_label_1
_geom_bond_atom_site_label_2
_geom_bond_distance
_geom_bond_site_symmetry_2
Li0 O2 2.091405 1_565
Li0 O2 2.091405 1_555
Li0 O1 2.093635 1_555
Li0 O1 2.093636 1_565
Li0 O5 2.201163 1_555
Li0 O19 2.206285 1_655
Li1 O2 2.015000 1_555
Li1 O7 2.044279 1_555
Li1 O3 2.102229 1_554
Li1 O3 2.102229 1_544
Li1 O5 2.103213 1_545
Li1 O5 2.103213 1_555
Li2 O7 2.133253 1_556
Li2 O7 2.133253 1_566
Li2 O4 2.134297 1_565
Li2 O4 2.134297 1_555
Li2 O3 2.174958 1_555
Li2 O6 2.175204 1_555
Li3 O9 2.013779 1_555
Li3 O4 2.044954 1_555
Li3 O6 2.100580 1_545
Li3 O6 2.100580 1_555
Li3 O8 2.103665 1_555
Li3 O8 2.103665 1_545
Li4 O9 2.090604 1_555
Li4 O9 2.090604 1_565
Li4 O10 2.093364 1_565
Li4 O10 2.093364 1_555
Li4 O8 2.200750 1_555
Li4 O12 2.206966 1_555
Li5 O10 2.027081 1_555
Li5 O12 2.086759 1_545
Li5 O12 2.086759 1_555
Li5 O13 2.099232 1_555
Li5 O13 2.099232 1_545
Li5 O14 2.155725 1_555
Li6 O15 2.006846 1_555
Li6 O11 2.008675 1_555
Li6 O16 2.144492 1_555
Li6 O16 2.144493 1_545
Li6 O18 2.147007 1_546
Li6 O18 2.147007 1_556
Li7 O18 2.119972 1_555
Li7 O11 2.128122 1_564
Li7 O11 2.128123 1_554
Li7 O14 2.137725 1_555
Li7 O14 2.137725 1_565
Li7 O13 2.184057 1_555
Li8 O16 2.121003 1_555
Li8 O15 2.130243 1_555
Li8 O15 2.130244 1_565
Li8 O17 2.135662 1_565
Li8 O17 2.135662 1_555
Li8 O0 2.182904 1_455
Li9 O1 2.029417 1_555
Li9 O19 2.087061 1_655
Li9 O19 2.087061 1_645
Li9 O0 2.100386 1_545
Li9 O0 2.100386 1_555
Li9 O17 2.153411 1_655
Co0 O8 1.889762 1_555
Co0 O5 1.890135 1_555
Co0 O7 1.936249 1_565
Co0 O7 1.936249 1_555
Co0 O4 1.936587 1_555
Co0 O4 1.936587 1_565
Co1 O12 1.900520 1_555
Co1 O16 1.925751 1_555
Co1 O11 1.936003 1_555
Co1 O11 1.936003 1_565
Co1 O14 1.941646 1_565
Co1 O14 1.941646 1_555
Co2 O16 1.928259 1_545
Co2 O16 1.928259 1_555
Co2 O18 1.929478 1_555
Co2 O18 1.929478 1_545
Co2 O14 1.935926 1_555
Co2 O17 1.937495 1_555
Co3 O19 1.900144 1_555
Co3 O18 1.927311 1_555
Co3 O15 1.935131 1_564
Co3 O15 1.935131 1_554
Co3 O17 1.942525 1_555
Co3 O17 1.942525 1_565
Ni0 O0 1.908724 1_555
Ni0 O3 1.910371 1_555
Ni0 O2 1.973504 1_556
Ni0 O2 1.973504 1_566
Ni0 O1 1.975799 1_565
Ni0 O1 1.975799 1_555
Ni1 O5 1.968394 1_555
Ni1 O5 1.968394 1_545
Ni1 O3 1.980946 1_545
Ni1 O3 1.980946 1_555
Ni1 O4 2.053183 1_555
Ni1 O1 2.053789 1_555
Ni2 O8 1.968903 1_545
Ni2 O8 1.968903 1_555
Ni2 O6 1.981744 1_554
Ni2 O6 1.981744 1_544
Ni2 O10 2.051598 1_555
Ni2 O7 2.054417 1_555
Ni3 O12 1.978443 1_555
Ni3 O12 1.978443 1_545
Ni3 O13 1.992445 1_546
Ni3 O13 1.992445 1_556
Ni3 O11 2.062210 1_555
Ni3 O9 2.074706 1_555
Ni4 O13 1.907866 1_555
Ni4 O6 1.909058 1_554
Ni4 O9 1.973942 1_564
Ni4 O9 1.973942 1_554
Ni4 O10 1.976365 1_555
Ni4 O10 1.976365 1_565
Ni5 O19 1.977472 1_545
Ni5 O19 1.977472 1_555
Ni5 O0 1.991800 1_454
Ni5 O0 1.991800 1_444
Ni5 O15 2.060708 1_554
Ni5 O2 2.076716 1_455
