# generated using pymatgen
data_Li4Co3P4(H3O4)6
_symmetry_space_group_name_H-M   'P 1'
_cell_length_a   9.14521900
_cell_length_b   7.20206200
_cell_length_c   14.78565627
_cell_angle_alpha   86.15572979
_cell_angle_beta   90.00000000
_cell_angle_gamma   90.00000000
_symmetry_Int_Tables_number   1
_chemical_formula_structural   Li4Co3P4(H3O4)6
_chemical_formula_sum   'Li8 Co6 P8 H36 O48'
_cell_volume   971.65768933
_cell_formula_units_Z   2
loop_
 _symmetry_equiv_pos_site_id
 _symmetry_equiv_pos_as_xyz
  1  'x, y, z'
loop_
 _atom_site_type_symbol
 _atom_site_label
 _atom_site_symmetry_multiplicity
 _atom_site_fract_x
 _atom_site_fract_y
 _atom_site_fract_z
 _atom_site_occupancy
  Li  Li0  1  0.99664800  0.71739600  0.85591000  1
  Li  Li1  1  0.50335200  0.71739600  0.35591000  1
  Li  Li2  1  0.39813900  0.55249700  0.78485500  1
  Li  Li3  1  0.10186100  0.55249700  0.28485500  1
  Li  Li4  1  0.89813900  0.44750300  0.71514500  1
  Li  Li5  1  0.60186100  0.44750300  0.21514500  1
  Li  Li6  1  0.49664800  0.28260400  0.64409000  1
  Li  Li7  1  0.00335200  0.28260400  0.14409000  1
  Co  Co0  1  0.75613100  0.97321900  0.50144700  1
  Co  Co1  1  0.74386900  0.97321900  0.00144700  1
  Co  Co2  1  0.00000000  0.50000000  0.50000000  1
  Co  Co3  1  0.50000000  0.50000000  0.00000000  1
  Co  Co4  1  0.25613100  0.02678100  0.99855300  1
  Co  Co5  1  0.24386900  0.02678100  0.49855300  1
  P  P0  1  0.52254100  0.89537500  0.88036600  1
  P  P1  1  0.97745900  0.89537500  0.38036600  1
  P  P2  1  0.47762800  0.74483100  0.57199900  1
  P  P3  1  0.02237200  0.74483100  0.07199900  1
  P  P4  1  0.97762800  0.25516900  0.92800100  1
  P  P5  1  0.52237200  0.25516900  0.42800100  1
  P  P6  1  0.02254100  0.10462500  0.61963400  1
  P  P7  1  0.47745900  0.10462500  0.11963400  1
  H  H0  1  0.24987000  0.85369500  0.82139900  1
  H  H1  1  0.49540300  0.87651300  0.70056300  1
  H  H2  1  0.17844800  0.84379000  0.72546100  1
  H  H3  1  0.84948700  0.82783700  0.70483100  1
  H  H4  1  0.25013000  0.85369500  0.32139900  1
  H  H5  1  0.72966500  0.74578800  0.77121100  1
  H  H6  1  0.00459700  0.87651300  0.20056300  1
  H  H7  1  0.32155200  0.84379000  0.22546100  1
  H  H8  1  0.65051300  0.82783700  0.20483100  1
  H  H9  1  0.77033500  0.74578800  0.27121100  1
  H  H10  1  0.09786800  0.72514100  0.61722500  1
  H  H11  1  0.24441200  0.63573300  0.95016100  1
  H  H12  1  0.40213200  0.72514100  0.11722500  1
  H  H13  1  0.25558800  0.63573300  0.45016100  1
  H  H14  1  0.19101600  0.54349700  0.63143000  1
  H  H15  1  0.24040000  0.42044800  0.94094900  1
  H  H16  1  0.74040000  0.57955200  0.55905100  1
  H  H17  1  0.69101600  0.45650300  0.86857000  1
  H  H18  1  0.30898400  0.54349700  0.13143000  1
  H  H19  1  0.25960000  0.42044800  0.44094900  1
  H  H20  1  0.75960000  0.57955200  0.05905100  1
  H  H21  1  0.80898400  0.45650300  0.36857000  1
  H  H22  1  0.74441200  0.36426700  0.54983900  1
  H  H23  1  0.59786800  0.27485900  0.88277500  1
  H  H24  1  0.75558800  0.36426700  0.04983900  1
  H  H25  1  0.90213200  0.27485900  0.38277500  1
  H  H26  1  0.22966500  0.25421200  0.72878900  1
  H  H27  1  0.34948700  0.17216300  0.79516900  1
  H  H28  1  0.67844800  0.15621000  0.77453900  1
  H  H29  1  0.99540300  0.12348700  0.79943700  1
  H  H30  1  0.27033500  0.25421200  0.22878900  1
  H  H31  1  0.74987000  0.14630500  0.67860100  1
  H  H32  1  0.15051300  0.17216300  0.29516900  1
  H  H33  1  0.82155200  0.15621000  0.27453900  1
  H  H34  1  0.50459700  0.12348700  0.29943700  1
  H  H35  1  0.75013000  0.14630500  0.17860100  1
  O  O0  1  0.36678300  0.98485100  0.88167700  1
  O  O1  1  0.14137200  0.94760900  0.61862500  1
  O  O2  1  0.13321700  0.98485100  0.38167700  1
  O  O3  1  0.46970700  0.91808800  0.63446600  1
  O  O4  1  0.13235700  0.79333700  0.99337200  1
  O  O5  1  0.35862800  0.94760900  0.11862500  1
  O  O6  1  0.53640900  0.78678800  0.79424600  1
  O  O7  1  0.55536000  0.77268800  0.96774300  1
  O  O8  1  0.03029300  0.91808800  0.13446600  1
  O  O9  1  0.18618800  0.77411800  0.78540900  1
  O  O10  1  0.36764300  0.79333700  0.49337200  1
  O  O11  1  0.83423200  0.72957900  0.75431800  1
  O  O12  1  0.96359100  0.78678800  0.29424600  1
  O  O13  1  0.63346900  0.74541800  0.52858800  1
  O  O14  1  0.94464000  0.77268800  0.46774300  1
  O  O15  1  0.31381200  0.77411800  0.28540900  1
  O  O16  1  0.66576800  0.72957900  0.25431800  1
  O  O17  1  0.86653100  0.74541800  0.02858800  1
  O  O18  1  0.30405600  0.53348000  0.92613300  1
  O  O19  1  0.08936300  0.58584100  0.62382400  1
  O  O20  1  0.44282300  0.56514900  0.62779900  1
  O  O21  1  0.19594400  0.53348000  0.42613300  1
  O  O22  1  0.41063700  0.58584100  0.12382400  1
  O  O23  1  0.05717700  0.56514900  0.12779900  1
  O  O24  1  0.94282300  0.43485100  0.87220100  1
  O  O25  1  0.58936300  0.41415900  0.87617600  1
  O  O26  1  0.80405600  0.46652000  0.57386700  1
  O  O27  1  0.55717700  0.43485100  0.37220100  1
  O  O28  1  0.91063700  0.41415900  0.37617600  1
  O  O29  1  0.69594400  0.46652000  0.07386700  1
  O  O30  1  0.13346900  0.25458200  0.97141200  1
  O  O31  1  0.33423200  0.27042100  0.74568200  1
  O  O32  1  0.68618800  0.22588200  0.71459100  1
  O  O33  1  0.05536000  0.22731200  0.53225700  1
  O  O34  1  0.36653100  0.25458200  0.47141200  1
  O  O35  1  0.03640900  0.21321200  0.70575400  1
  O  O36  1  0.16576800  0.27042100  0.24568200  1
  O  O37  1  0.63235700  0.20666300  0.50662800  1
  O  O38  1  0.81381200  0.22588200  0.21459100  1
  O  O39  1  0.96970700  0.08191200  0.86553400  1
  O  O40  1  0.44464000  0.22731200  0.03225700  1
  O  O41  1  0.46359100  0.21321200  0.20575400  1
  O  O42  1  0.64137200  0.05239100  0.88137500  1
  O  O43  1  0.86764300  0.20666300  0.00662800  1
  O  O44  1  0.53029300  0.08191200  0.36553400  1
  O  O45  1  0.86678300  0.01514900  0.61832300  1
  O  O46  1  0.85862800  0.05239100  0.38137500  1
  O  O47  1  0.63321700  0.01514900  0.11832300  1
loop_
_geom_bond_atom_site_label_1
_geom_bond_atom_site_label_2
_geom_bond_distance
_geom_bond_site_symmetry_2
Li0 O9 2.049637 1_655
Li0 O24 2.091756 1_555
Li0 O11 2.110106 1_555
Li0 O4 2.473744 1_655
Li0 O39 2.650108 1_565
Li1 O15 2.049637 1_555
Li1 O27 2.091756 1_555
Li1 O16 2.110106 1_555
Li1 O10 2.473744 1_555
Li1 O44 2.650108 1_565
Li2 O6 2.120596 1_555
Li2 O31 2.227540 1_555
Li2 O18 2.254807 1_555
Li2 O20 2.353598 1_555
Li2 O25 2.386140 1_555
Li2 O9 2.511295 1_555
Li3 O12 2.120596 1_455
Li3 O36 2.227540 1_555
Li3 O21 2.254807 1_555
Li3 O23 2.353598 1_555
Li3 O28 2.386140 1_455
Li3 O15 2.511295 1_555
Li4 O35 2.120596 1_655
Li4 O11 2.227540 1_555
Li4 O26 2.254807 1_555
Li4 O24 2.353598 1_555
Li4 O19 2.386140 1_655
Li4 O32 2.511295 1_555
Li5 O41 2.120596 1_555
Li5 O16 2.227540 1_555
Li5 O29 2.254807 1_555
Li5 O27 2.353598 1_555
Li5 O22 2.386140 1_555
Li5 O38 2.511295 1_555
Li6 O32 2.049637 1_555
Li6 O20 2.091756 1_555
Li6 O31 2.110106 1_555
Li6 O37 2.473744 1_555
Li6 O3 2.650108 1_545
Li7 O38 2.049637 1_455
Li7 O23 2.091756 1_555
Li7 O36 2.110106 1_555
Li7 O43 2.473744 1_455
Li7 O8 2.650108 1_545
Co0 O13 2.005696 1_555
Co0 O37 2.032516 1_565
Co0 O45 2.042419 1_565
Co0 O46 2.054233 1_565
Co0 O14 2.324369 1_555
Co1 O17 2.005696 1_555
Co1 O43 2.032516 1_565
Co1 O47 2.042419 1_565
Co1 O42 2.054233 1_564
Co1 O7 2.324369 1_554
Co2 O14 2.053085 1_455
Co2 O33 2.053085 1_555
Co2 O26 2.103986 1_455
Co2 O21 2.103986 1_555
Co2 O28 2.133956 1_455
Co2 O19 2.133956 1_555
Co3 O40 2.053085 1_555
Co3 O7 2.053085 1_554
Co3 O18 2.103986 1_554
Co3 O29 2.103986 1_555
Co3 O22 2.133956 1_555
Co3 O25 2.133956 1_554
Co4 O30 2.005696 1_555
Co4 O4 2.032516 1_545
Co4 O0 2.042419 1_545
Co4 O5 2.054233 1_546
Co4 O40 2.324369 1_556
Co5 O34 2.005696 1_555
Co5 O10 2.032516 1_545
Co5 O2 2.042419 1_545
Co5 O1 2.054233 1_545
Co5 O33 2.324369 1_555
H0 O9 0.995842 1_555
H0 O0 1.715415 1_555
H1 O3 1.029918 1_555
H1 O6 1.535210 1_555
H2 O9 0.991368 1_555
H2 O1 1.735202 1_555
H3 O11 0.993075 1_555
H4 O15 0.995842 1_555
H4 O2 1.715415 1_555
H5 O11 0.997202 1_555
H6 O8 1.029918 1_555
H6 O12 1.535210 1_455
H7 O15 0.991368 1_555
H7 O5 1.735202 1_555
H8 O16 0.993075 1_555
H9 O16 0.997202 1_555
H10 O19 1.004465 1_555
H10 O1 1.652362 1_555
H11 O18 1.000578 1_555
H11 O4 1.686410 1_555
H12 O22 1.004465 1_555
H12 O5 1.652362 1_555
H13 O21 1.000578 1_555
H13 O10 1.686410 1_555
H14 O19 0.982487 1_555
H15 O18 1.012755 1_555
H15 O30 1.585574 1_555
H16 O26 1.012755 1_555
H16 O13 1.585574 1_555
H17 O25 0.982487 1_555
H18 O22 0.982487 1_555
H19 O21 1.012755 1_555
H19 O34 1.585574 1_555
H20 O29 1.012755 1_555
H20 O17 1.585574 1_555
H21 O28 0.982487 1_555
H22 O26 1.000578 1_555
H22 O37 1.686410 1_555
H23 O25 1.004465 1_555
H23 O42 1.652362 1_555
H24 O29 1.000578 1_555
H24 O43 1.686410 1_555
H25 O28 1.004465 1_555
H25 O46 1.652362 1_555
H26 O31 0.997202 1_555
H27 O31 0.993075 1_555
H28 O32 0.991368 1_555
H28 O42 1.735202 1_555
H29 O39 1.029918 1_555
H29 O35 1.535210 1_655
H30 O36 0.997202 1_555
H31 O32 0.995842 1_555
H31 O45 1.715415 1_555
H32 O36 0.993075 1_555
H33 O38 0.991368 1_555
H33 O46 1.735202 1_555
H34 O44 1.029918 1_555
H34 O41 1.535210 1_555
H35 O38 0.995842 1_555
H35 O47 1.715415 1_555
O0 P0 1.564081 1_555
O1 P6 1.569164 1_565
O2 P1 1.564081 1_455
O3 P2 1.603083 1_555
O4 P3 1.559108 1_556
O5 P7 1.569164 1_565
O6 P0 1.543571 1_555
O7 P0 1.544938 1_555
O8 P3 1.603083 1_555
O10 P2 1.559108 1_555
O12 P1 1.543571 1_555
O13 P2 1.562957 1_555
O14 P1 1.544938 1_555
O17 P3 1.562957 1_655
O20 P2 1.521015 1_555
O23 P3 1.521015 1_555
O24 P4 1.521015 1_555
O27 P5 1.521015 1_555
O30 P4 1.562957 1_455
O33 P6 1.544938 1_555
O34 P5 1.562957 1_555
O35 P6 1.543571 1_555
O37 P5 1.559108 1_555
O39 P4 1.603083 1_555
O40 P7 1.544938 1_555
O41 P7 1.543571 1_555
O42 P0 1.569164 1_545
O43 P4 1.559108 1_554
O44 P5 1.603083 1_555
O45 P6 1.564081 1_655
O46 P1 1.569164 1_545
O47 P7 1.564081 1_555
