# generated using pymatgen
data_Mn3(OF2)2
_symmetry_space_group_name_H-M   'P 1'
_cell_length_a   4.77722100
_cell_length_b   4.67312000
_cell_length_c   9.78709501
_cell_angle_alpha   89.99541239
_cell_angle_beta   90.00017176
_cell_angle_gamma   89.99974547
_symmetry_Int_Tables_number   1
_chemical_formula_structural   Mn3(OF2)2
_chemical_formula_sum   'Mn6 O4 F8'
_cell_volume   218.49226622
_cell_formula_units_Z   2
loop_
 _symmetry_equiv_pos_site_id
 _symmetry_equiv_pos_as_xyz
  1  'x, y, z'
loop_
 _atom_site_type_symbol
 _atom_site_label
 _atom_site_symmetry_multiplicity
 _atom_site_fract_x
 _atom_site_fract_y
 _atom_site_fract_z
 _atom_site_occupancy
  Mn  Mn0  1  0.03877700  0.00223300  0.99219000  1
  Mn  Mn1  1  0.03879300  0.00220600  0.34101000  1
  Mn  Mn2  1  0.99674800  0.96988700  0.66660400  1
  Mn  Mn3  1  0.46120400  0.50220000  0.84101200  1
  Mn  Mn4  1  0.50322800  0.46984800  0.16660400  1
  Mn  Mn5  1  0.46121700  0.50222900  0.49218400  1
  O  O0  1  0.18917200  0.80523700  0.49636700  1
  O  O1  1  0.18975500  0.80526300  0.83726500  1
  O  O2  1  0.31083300  0.30523700  0.99636800  1
  O  O3  1  0.31024600  0.30526100  0.33726400  1
  F  F0  1  0.22745600  0.80893000  0.16650400  1
  F  F1  1  0.27255200  0.30893500  0.66650400  1
  F  F2  1  0.72626800  0.71063800  0.00554100  1
  F  F3  1  0.72638700  0.71099100  0.32796200  1
  F  F4  1  0.65359000  0.68463900  0.66655900  1
  F  F5  1  0.84641800  0.18463700  0.16656000  1
  F  F6  1  0.77373600  0.21063800  0.50554100  1
  F  F7  1  0.77362000  0.21099100  0.82796200  1
loop_
_geom_bond_atom_site_label_1
_geom_bond_atom_site_label_2
_geom_bond_distance
_geom_bond_site_symmetry_2
Mn0 O1 1.914876 1_545
Mn0 O2 1.922453 1_555
Mn1 O0 1.917029 1_545
Mn1 O3 1.920593 1_555
Mn2 O0 2.052615 1_655
Mn2 O1 2.057082 1_655
Mn3 O2 1.917000 1_555
Mn3 O1 1.920599 1_555
Mn4 O2 2.052475 1_554
Mn4 O3 2.056963 1_555
Mn5 O3 1.914820 1_555
Mn5 O0 1.922424 1_555
F0 Mn4 2.060692 1_555
F0 Mn0 2.130427 1_564
F0 Mn1 2.131967 1_565
F1 Mn2 2.060677 1_445
F1 Mn5 2.130436 1_555
F1 Mn3 2.131938 1_555
F2 Mn0 2.025519 1_664
F2 Mn4 2.210444 1_555
F2 Mn3 2.268350 1_554
F3 Mn1 2.023786 1_665
F3 Mn4 2.213741 1_555
F3 Mn5 2.267047 1_555
F4 Mn2 2.112900 1_555
F4 Mn5 2.117546 1_555
F4 Mn3 2.118137 1_555
F5 Mn4 2.112900 1_555
F5 Mn0 2.117467 1_654
F5 Mn1 2.118068 1_655
F6 Mn5 2.025536 1_555
F6 Mn2 2.210277 1_545
F6 Mn1 2.268334 1_655
F7 Mn3 2.023795 1_555
F7 Mn2 2.213576 1_545
F7 Mn0 2.267036 1_655
