# generated using pymatgen
data_Na3CoBPO7
_symmetry_space_group_name_H-M   'P 1'
_cell_length_a   5.15503925
_cell_length_b   17.57021303
_cell_length_c   6.88369600
_cell_angle_alpha   90.00059275
_cell_angle_beta   89.99903881
_cell_angle_gamma   87.93798800
_symmetry_Int_Tables_number   1
_chemical_formula_structural   Na3CoBPO7
_chemical_formula_sum   'Na12 Co4 B4 P4 O28'
_cell_volume   623.08798425
_cell_formula_units_Z   4
loop_
 _symmetry_equiv_pos_site_id
 _symmetry_equiv_pos_as_xyz
  1  'x, y, z'
loop_
 _atom_site_type_symbol
 _atom_site_label
 _atom_site_symmetry_multiplicity
 _atom_site_fract_x
 _atom_site_fract_y
 _atom_site_fract_z
 _atom_site_occupancy
  Na  Na0  1  0.76966700  0.04033000  0.24996100  1
  Na  Na1  1  0.76971400  0.54032400  0.24995900  1
  Na  Na2  1  0.23043200  0.45990700  0.75001900  1
  Na  Na3  1  0.23048600  0.95983200  0.74996700  1
  Na  Na4  1  0.25498300  0.13383000  0.00964600  1
  Na  Na5  1  0.25490900  0.63384300  0.00962100  1
  Na  Na6  1  0.25503000  0.13384700  0.49023300  1
  Na  Na7  1  0.25503800  0.63389100  0.49023700  1
  Na  Na8  1  0.74468200  0.36617500  0.50945600  1
  Na  Na9  1  0.74444400  0.86622000  0.50936600  1
  Na  Na10  1  0.74474500  0.36616500  0.99058200  1
  Na  Na11  1  0.74445600  0.86616900  0.99050700  1
  Co  Co0  1  0.78072000  0.66894500  0.75005400  1
  Co  Co1  1  0.21889200  0.33101400  0.25000400  1
  Co  Co2  1  0.78104900  0.16894000  0.75003300  1
  Co  Co3  1  0.21883000  0.83102000  0.25004300  1
  B  B0  1  0.72577700  0.03484600  0.75000100  1
  B  B1  1  0.72546400  0.53483500  0.75001100  1
  B  B2  1  0.27429400  0.46507600  0.24998200  1
  B  B3  1  0.27422400  0.96506100  0.24999800  1
  P  P0  1  0.72203900  0.20965400  0.25001800  1
  P  P1  1  0.72201000  0.70968800  0.25001900  1
  P  P2  1  0.27815100  0.29037600  0.75000300  1
  P  P3  1  0.27814600  0.79031500  0.75002300  1
  O  O0  1  0.30352000  0.04041300  0.24997400  1
  O  O1  1  0.30353600  0.54042900  0.24997800  1
  O  O2  1  0.69712500  0.45947600  0.74999000  1
  O  O3  1  0.69686600  0.95949000  0.74995600  1
  O  O4  1  0.96333400  0.07125400  0.75009100  1
  O  O5  1  0.96269300  0.57127400  0.75026700  1
  O  O6  1  0.03662100  0.42871000  0.24999900  1
  O  O7  1  0.03653100  0.92870400  0.25012200  1
  O  O8  1  0.52652400  0.09129200  0.74997200  1
  O  O9  1  0.52601800  0.59124200  0.74979000  1
  O  O10  1  0.47345700  0.40860400  0.24996600  1
  O  O11  1  0.47339000  0.90858200  0.24991300  1
  O  O12  1  0.42408700  0.23323200  0.24996400  1
  O  O13  1  0.42411900  0.73325400  0.25002100  1
  O  O14  1  0.57597800  0.26669300  0.75007300  1
  O  O15  1  0.57608900  0.76674100  0.75009100  1
  O  O16  1  0.12189800  0.21650800  0.74995300  1
  O  O17  1  0.12184700  0.71650200  0.75000400  1
  O  O18  1  0.87780100  0.28362300  0.25006700  1
  O  O19  1  0.87775100  0.78363700  0.25005000  1
  O  O20  1  0.78299400  0.15956000  0.06915100  1
  O  O21  1  0.78287700  0.65956900  0.06915900  1
  O  O22  1  0.78289600  0.15954500  0.43087000  1
  O  O23  1  0.78295200  0.65956200  0.43084600  1
  O  O24  1  0.21770400  0.34048700  0.56909100  1
  O  O25  1  0.21797500  0.84041300  0.56906000  1
  O  O26  1  0.21751100  0.34047400  0.93090700  1
  O  O27  1  0.21772400  0.84042500  0.93093300  1
loop_
_geom_bond_atom_site_label_1
_geom_bond_atom_site_label_2
_geom_bond_distance
_geom_bond_site_symmetry_2
Na0 O7 2.354791 1_645
Na0 O0 2.402954 1_555
Na0 O20 2.439846 1_555
Na0 O22 2.439917 1_555
Na0 O0 2.752086 1_655
Na0 O11 2.818797 1_545
Na1 O6 2.354742 1_655
Na1 O1 2.403100 1_555
Na1 O21 2.439988 1_555
Na1 O23 2.440190 1_555
Na1 O1 2.751940 1_655
Na1 O10 2.818324 1_555
Na2 O5 2.353605 1_455
Na2 O2 2.405560 1_555
Na2 O24 2.442929 1_555
Na2 O26 2.443064 1_555
Na2 O2 2.749501 1_455
Na2 O9 2.810661 1_555
Na3 O4 2.352706 1_465
Na3 O3 2.403998 1_555
Na3 O25 2.442776 1_555
Na3 O27 2.442898 1_555
Na3 O3 2.751055 1_455
Na3 O8 2.813839 1_565
Na4 O0 2.337526 1_555
Na4 O8 2.374422 1_554
Na4 O16 2.388511 1_554
Na4 O20 2.492599 1_455
Na4 O12 2.580004 1_555
Na4 O4 2.603946 1_454
Na4 O20 2.805277 1_555
Na5 O1 2.337669 1_555
Na5 O9 2.374274 1_554
Na5 O17 2.387889 1_554
Na5 O21 2.492841 1_455
Na5 O13 2.580673 1_555
Na5 O5 2.604676 1_454
Na5 O21 2.805080 1_555
Na6 O0 2.337349 1_555
Na6 O8 2.374753 1_555
Na6 O16 2.388497 1_555
Na6 O22 2.493096 1_455
Na6 O12 2.579498 1_555
Na6 O4 2.605634 1_455
Na6 O22 2.804283 1_555
Na7 O1 2.337696 1_555
Na7 O9 2.372744 1_555
Na7 O17 2.388295 1_555
Na7 O23 2.492819 1_455
Na7 O13 2.579043 1_555
Na7 O5 2.608616 1_455
Na7 O23 2.804460 1_555
Na8 O2 2.336670 1_555
Na8 O10 2.372012 1_555
Na8 O18 2.385629 1_555
Na8 O24 2.497817 1_655
Na8 O14 2.581551 1_555
Na8 O6 2.604031 1_655
Na8 O24 2.800054 1_555
Na9 O3 2.336572 1_555
Na9 O11 2.370965 1_555
Na9 O19 2.385836 1_555
Na9 O25 2.500733 1_655
Na9 O15 2.581343 1_555
Na9 O7 2.603082 1_655
Na9 O25 2.797964 1_555
Na10 O2 2.337131 1_555
Na10 O10 2.371654 1_556
Na10 O18 2.385972 1_556
Na10 O26 2.496575 1_655
Na10 O14 2.581066 1_555
Na10 O6 2.603747 1_656
Na10 O26 2.801405 1_555
Na11 O3 2.337042 1_555
Na11 O11 2.370973 1_556
Na11 O19 2.386493 1_556
Na11 O27 2.499106 1_655
Na11 O15 2.579378 1_555
Na11 O7 2.605212 1_656
Na11 O27 2.798960 1_555
Co0 O5 1.925914 1_555
Co0 O9 1.927926 1_555
Co0 O17 1.973917 1_655
Co0 O15 1.983653 1_555
Co0 O21 2.202791 1_556
Co0 O23 2.203504 1_555
Co1 O10 1.925971 1_555
Co1 O6 1.926997 1_555
Co1 O18 1.972423 1_455
Co1 O12 1.984902 1_555
Co1 O24 2.202785 1_555
Co1 O26 2.202840 1_554
Co2 O8 1.926572 1_555
Co2 O4 1.926876 1_555
Co2 O16 1.972707 1_655
Co2 O14 1.984150 1_555
Co2 O20 2.202883 1_556
Co2 O22 2.203207 1_555
Co3 O11 1.925593 1_555
Co3 O7 1.926878 1_555
Co3 O19 1.972303 1_455
Co3 O13 1.984907 1_555
Co3 O25 2.202200 1_555
Co3 O27 2.202857 1_554
B0 O3 1.337701 1_545
B0 O4 1.401881 1_555
B0 O8 1.401909 1_555
B1 O2 1.337323 1_555
B1 O5 1.400643 1_555
B1 O9 1.402147 1_555
B2 O1 1.337901 1_555
B2 O10 1.401892 1_555
B2 O6 1.402053 1_555
B3 O0 1.337924 1_565
B3 O11 1.401987 1_555
B3 O7 1.402068 1_555
O12 P0 1.576384 1_555
O13 P1 1.576032 1_555
O14 P2 1.576183 1_555
O15 P3 1.576323 1_555
O16 P2 1.551944 1_555
O17 P3 1.551248 1_555
O18 P0 1.552074 1_555
O19 P1 1.551714 1_555
O20 P0 1.550353 1_555
O21 P1 1.550478 1_555
O22 P0 1.550348 1_555
O23 P1 1.550458 1_555
O24 P2 1.550317 1_555
O25 P3 1.550215 1_555
O26 P2 1.550301 1_555
O27 P3 1.550250 1_555
