# generated using pymatgen
data_Fe10O9F11
_symmetry_space_group_name_H-M   'P 1'
_cell_length_a   4.77055900
_cell_length_b   4.77376565
_cell_length_c   15.47769465
_cell_angle_alpha   90.11147614
_cell_angle_beta   90.13058213
_cell_angle_gamma   93.27107302
_symmetry_Int_Tables_number   1
_chemical_formula_structural   Fe10O9F11
_chemical_formula_sum   'Fe10 O9 F11'
_cell_volume   351.90579918
_cell_formula_units_Z   1
loop_
 _symmetry_equiv_pos_site_id
 _symmetry_equiv_pos_as_xyz
  1  'x, y, z'
loop_
 _atom_site_type_symbol
 _atom_site_label
 _atom_site_symmetry_multiplicity
 _atom_site_fract_x
 _atom_site_fract_y
 _atom_site_fract_z
 _atom_site_occupancy
  Fe  Fe0  1  0.00141500  0.99945400  0.00201100  1
  Fe  Fe1  1  0.97893100  0.96665500  0.20649800  1
  Fe  Fe2  1  0.03996700  0.01680500  0.39305200  1
  Fe  Fe3  1  0.99982800  0.97766500  0.60234800  1
  Fe  Fe4  1  0.03903900  0.01679700  0.79372300  1
  Fe  Fe5  1  0.51376100  0.50828000  0.09552600  1
  Fe  Fe6  1  0.49744800  0.47736400  0.50528800  1
  Fe  Fe7  1  0.47349700  0.52588200  0.30042900  1
  Fe  Fe8  1  0.46031200  0.51719500  0.69397900  1
  Fe  Fe9  1  0.49571600  0.48643800  0.90452800  1
  O  O0  1  0.20083600  0.80312700  0.30600400  1
  O  O1  1  0.18749100  0.81030300  0.70088700  1
  O  O2  1  0.30204000  0.29564100  0.00040500  1
  O  O3  1  0.31892700  0.31846400  0.40232200  1
  O  O4  1  0.29057900  0.29319500  0.59922000  1
  O  O5  1  0.31668000  0.32107800  0.80152700  1
  O  O6  1  0.70508600  0.69876100  0.99627500  1
  O  O7  1  0.67080200  0.67271200  0.19820600  1
  O  O8  1  0.69046400  0.69179700  0.59909700  1
  F  F0  1  0.19690300  0.79317200  0.09536200  1
  F  F1  1  0.19528300  0.80518700  0.49869100  1
  F  F2  1  0.19855200  0.81229800  0.89844500  1
  F  F3  1  0.28678200  0.29185800  0.19719200  1
  F  F4  1  0.70927400  0.71059200  0.40391000  1
  F  F5  1  0.70633800  0.71274700  0.80286100  1
  F  F6  1  0.79988900  0.19167400  0.09691700  1
  F  F7  1  0.81227500  0.18555300  0.49870200  1
  F  F8  1  0.79288300  0.21121600  0.30713200  1
  F  F9  1  0.81588100  0.19251400  0.89740500  1
  F  F10  1  0.80312000  0.19557200  0.70205600  1
loop_
_geom_bond_atom_site_label_1
_geom_bond_atom_site_label_2
_geom_bond_distance
_geom_bond_site_symmetry_2
Fe0 O2 1.955884 1_565
Fe0 O6 1.958097 1_454
Fe1 O7 1.977190 1_555
Fe1 O0 2.047828 1_655
Fe2 O0 1.879729 1_545
Fe2 O3 1.909180 1_555
Fe3 O8 1.952563 1_555
Fe3 O1 1.961134 1_655
Fe3 O4 1.989281 1_665
Fe4 O1 1.901761 1_545
Fe4 O5 1.912557 1_555
Fe5 O7 1.904139 1_555
Fe5 O6 1.984155 1_554
Fe5 O2 2.022003 1_555
Fe6 O3 1.938012 1_555
Fe6 O4 1.942439 1_555
Fe6 O8 1.970897 1_555
Fe7 O0 1.909862 1_555
Fe7 O7 1.953551 1_555
Fe7 O3 1.984783 1_555
Fe8 O4 1.959551 1_555
Fe8 O1 1.967505 1_555
Fe8 O8 1.991122 1_555
Fe8 O5 2.013688 1_555
Fe9 O2 1.949579 1_556
Fe9 O5 1.950926 1_555
Fe9 O6 1.978349 1_555
F0 Fe0 2.007797 1_555
F0 Fe5 2.090247 1_555
F0 Fe1 2.197015 1_455
F1 Fe3 2.051990 1_455
F1 Fe2 2.080683 1_565
F1 Fe6 2.189702 1_555
F2 Fe4 2.060238 1_565
F2 Fe0 2.085513 1_556
F2 Fe9 2.165644 1_555
F3 Fe1 2.080702 1_445
F3 Fe7 2.113690 1_555
F3 Fe5 2.145318 1_555
F4 Fe2 2.095914 1_665
F4 Fe7 2.116846 1_555
F4 Fe6 2.146735 1_555
F5 Fe4 2.093987 1_665
F5 Fe9 2.131386 1_555
F5 Fe8 2.224602 1_555
F6 Fe0 2.006464 1_645
F6 Fe5 2.093664 1_555
F6 Fe1 2.205727 1_545
F7 Fe6 2.108449 1_555
F7 Fe3 2.111840 1_545
F7 Fe2 2.146059 1_655
F8 Fe2 2.035117 1_655
F8 Fe1 2.166631 1_545
F8 Fe7 2.202221 1_555
F9 Fe0 2.084829 1_646
F9 Fe4 2.125252 1_655
F9 Fe9 2.135063 1_555
F10 Fe4 2.028555 1_655
F10 Fe3 2.110942 1_545
F10 Fe8 2.309498 1_555
