# generated using pymatgen
data_Mn2OF4
_symmetry_space_group_name_H-M   'P 1'
_cell_length_a   5.30360001
_cell_length_b   5.30360001
_cell_length_c   12.11815700
_cell_angle_alpha   90.00000000
_cell_angle_beta   90.00000000
_cell_angle_gamma   146.71618339
_symmetry_Int_Tables_number   1
_chemical_formula_structural   Mn2OF4
_chemical_formula_sum   'Mn4 O2 F8'
_cell_volume   187.06032891
_cell_formula_units_Z   2
loop_
 _symmetry_equiv_pos_site_id
 _symmetry_equiv_pos_as_xyz
  1  'x, y, z'
loop_
 _atom_site_type_symbol
 _atom_site_label
 _atom_site_symmetry_multiplicity
 _atom_site_fract_x
 _atom_site_fract_y
 _atom_site_fract_z
 _atom_site_occupancy
  Mn  Mn0  1  0.91687700  0.08312300  0.19926400  1
  Mn  Mn1  1  0.74802100  0.25197900  0.90776600  1
  Mn  Mn2  1  0.25197900  0.74802100  0.40776600  1
  Mn  Mn3  1  0.08312300  0.91687700  0.69926400  1
  O  O0  1  0.67731400  0.32268600  0.76118000  1
  O  O1  1  0.32268600  0.67731400  0.26118000  1
  F  F0  1  0.81899700  0.18100300  0.05085400  1
  F  F1  1  0.87297500  0.12702500  0.44367600  1
  F  F2  1  0.52540500  0.47459500  0.14974700  1
  F  F3  1  0.63076900  0.36923100  0.36483600  1
  F  F4  1  0.36923100  0.63076900  0.86483600  1
  F  F5  1  0.47459500  0.52540500  0.64974700  1
  F  F6  1  0.18100300  0.81899700  0.55085400  1
  F  F7  1  0.12702500  0.87297500  0.94367600  1
loop_
_geom_bond_atom_site_label_1
_geom_bond_atom_site_label_2
_geom_bond_distance
_geom_bond_site_symmetry_2
Mn0 O1 1.945851 1_655
Mn0 O1 1.945851 1_545
Mn1 O0 1.916193 1_555
Mn2 O1 1.916193 1_555
Mn3 O0 1.945851 1_565
Mn3 O0 1.945851 1_455
F0 Mn1 1.878013 1_554
F0 Mn0 2.055227 1_555
F1 Mn2 2.002123 1_545
F1 Mn2 2.002123 1_655
F2 Mn0 1.970691 1_565
F2 Mn0 1.970691 1_455
F3 Mn2 2.023641 1_655
F3 Mn2 2.023641 1_545
F4 Mn1 2.023641 1_565
F4 Mn1 2.023641 1_455
F5 Mn3 1.970691 1_545
F5 Mn3 1.970691 1_655
F6 Mn2 1.878013 1_555
F6 Mn3 2.055227 1_555
F7 Mn1 2.002123 1_455
F7 Mn1 2.002123 1_565
