# generated using pymatgen
data_Li2Ti2VO6
_symmetry_space_group_name_H-M   'P 1'
_cell_length_a   5.14696235
_cell_length_b   9.02117793
_cell_length_c   11.63515450
_cell_angle_alpha   67.19053222
_cell_angle_beta   102.77860642
_cell_angle_gamma   89.99992041
_symmetry_Int_Tables_number   1
_chemical_formula_structural   Li2Ti2VO6
_chemical_formula_sum   'Li8 Ti8 V4 O24'
_cell_volume   483.44373745
_cell_formula_units_Z   4
loop_
 _symmetry_equiv_pos_site_id
 _symmetry_equiv_pos_as_xyz
  1  'x, y, z'
loop_
 _atom_site_type_symbol
 _atom_site_label
 _atom_site_symmetry_multiplicity
 _atom_site_fract_x
 _atom_site_fract_y
 _atom_site_fract_z
 _atom_site_occupancy
  Li  Li0  1  0.46256200  0.87500000  0.75000100  1
  Li  Li1  1  0.96255900  0.37500000  0.75000100  1
  Li  Li2  1  0.03743900  0.12499300  0.24999900  1
  Li  Li3  1  0.53744000  0.62500800  0.25000000  1
  Li  Li4  1  0.46256200  0.37500000  0.75000100  1
  Li  Li5  1  0.96255900  0.87500000  0.75000100  1
  Li  Li6  1  0.03743900  0.62500800  0.24999900  1
  Li  Li7  1  0.53743900  0.12499300  0.25000000  1
  Ti  Ti0  1  0.24999900  0.91070400  0.50000000  1
  Ti  Ti1  1  0.74999800  0.41070500  0.50000100  1
  Ti  Ti2  1  0.99999700  0.33929500  0.99999800  1
  Ti  Ti3  1  0.49999900  0.83929600  0.99999900  1
  Ti  Ti4  1  0.99999600  0.66070700  0.99999800  1
  Ti  Ti5  1  0.49999800  0.16070500  0.00000000  1
  Ti  Ti6  1  0.24999900  0.58929500  0.50000100  1
  Ti  Ti7  1  0.74999800  0.08929300  0.50000200  1
  V  V0  1  0.50000100  0.50000100  0.99999800  1
  V  V1  1  0.25000200  0.24999900  0.50000200  1
  V  V2  1  0.00000500  0.00000000  0.99999900  1
  V  V3  1  0.75000400  0.74999700  0.50000300  1
  O  O0  1  0.65480400  0.19938000  0.60124000  1
  O  O1  1  0.15480900  0.69938000  0.60124000  1
  O  O2  1  0.19643700  0.44938000  0.10123800  1
  O  O3  1  0.69643900  0.94937000  0.10125800  1
  O  O4  1  0.30357000  0.05062000  0.89876100  1
  O  O5  1  0.80356500  0.55061900  0.89876100  1
  O  O6  1  0.84519900  0.30062000  0.39876100  1
  O  O7  1  0.34518100  0.80063000  0.39874100  1
  O  O8  1  0.23113900  0.12834300  0.10716100  1
  O  O9  1  0.73112800  0.62835800  0.10715100  1
  O  O10  1  0.26887200  0.37164400  0.89285400  1
  O  O11  1  0.76886600  0.87164400  0.89285100  1
  O  O12  1  0.37398200  0.12164300  0.39284800  1
  O  O13  1  0.87398200  0.62165800  0.39283800  1
  O  O14  1  0.12601600  0.01449600  0.60714700  1
  O  O15  1  0.62601400  0.51449500  0.60714900  1
  O  O16  1  0.26887000  0.73550300  0.89285300  1
  O  O17  1  0.76886400  0.23550500  0.89285100  1
  O  O18  1  0.37398000  0.48550900  0.39284800  1
  O  O19  1  0.87398100  0.98550400  0.39283800  1
  O  O20  1  0.12601500  0.37835800  0.60714700  1
  O  O21  1  0.62601200  0.87835700  0.60714900  1
  O  O22  1  0.23114500  0.76449700  0.10716200  1
  O  O23  1  0.73113300  0.26449200  0.10715200  1
loop_
_geom_bond_atom_site_label_1
_geom_bond_atom_site_label_2
_geom_bond_distance
_geom_bond_site_symmetry_2
Li0 O11 2.012642 1_555
Li0 O21 2.012654 1_555
Li0 O16 2.109829 1_555
Li0 O14 2.109833 1_565
Li1 O20 2.012691 1_655
Li1 O10 2.012693 1_655
Li1 O17 2.109818 1_555
Li1 O15 2.109818 1_555
Li2 O19 2.012562 1_445
Li2 O23 2.012648 1_455
Li2 O8 2.109722 1_555
Li2 O12 2.109809 1_555
Li3 O22 2.012543 1_555
Li3 O18 2.012666 1_555
Li3 O13 2.109729 1_555
Li3 O9 2.109796 1_555
Li4 O17 2.012639 1_555
Li4 O15 2.012662 1_555
Li4 O10 2.109828 1_555
Li4 O20 2.109837 1_555
Li5 O16 2.012681 1_655
Li5 O14 2.012696 1_665
Li5 O11 2.109807 1_555
Li5 O21 2.109825 1_555
Li6 O13 2.012557 1_455
Li6 O9 2.012665 1_455
Li6 O22 2.109739 1_555
Li6 O18 2.109802 1_555
Li7 O8 2.012564 1_555
Li7 O12 2.012652 1_555
Li7 O19 2.109732 1_545
Li7 O23 2.109810 1_555
O0 Ti7 1.943227 1_555
O0 Ti1 1.943233 1_555
O0 V1 2.105774 1_555
O1 Ti6 1.943216 1_555
O1 Ti0 1.943222 1_555
O1 V3 2.105785 1_455
O2 Ti2 1.943244 1_454
O2 Ti4 1.943259 1_454
O2 V0 2.105796 1_554
O3 Ti3 1.943322 1_554
O3 Ti5 1.943336 1_565
O3 V2 2.105946 1_664
O4 Ti5 1.943212 1_556
O4 Ti3 1.943213 1_545
O4 V2 2.105786 1_555
O5 Ti2 1.943217 1_555
O5 Ti4 1.943222 1_555
O5 V0 2.105774 1_555
O6 Ti1 1.943248 1_555
O6 Ti7 1.943267 1_555
O6 V1 2.105788 1_655
O7 Ti0 1.943326 1_555
O7 Ti6 1.943346 1_555
O7 V3 2.105940 1_555
O8 Ti5 2.008925 1_555
O8 Ti2 2.023761 1_454
O8 V2 2.184833 1_554
O9 Ti4 2.008908 1_554
O9 Ti3 2.023627 1_554
O9 V0 2.184844 1_554
O10 Ti2 2.008862 1_455
O10 Ti5 2.023617 1_556
O10 V0 2.184780 1_555
O11 Ti3 2.008862 1_555
O11 Ti4 2.023615 1_555
O11 V2 2.184825 1_665
O12 Ti7 2.008883 1_555
O12 Ti0 2.023652 1_545
O12 V1 2.184862 1_555
O13 Ti6 2.008913 1_655
O13 Ti1 2.023784 1_555
O13 V3 2.184850 1_555
O14 Ti7 2.008856 1_455
O14 Ti0 2.023631 1_545
O14 V1 2.184804 1_555
O15 Ti6 2.008856 1_555
O15 Ti1 2.023630 1_555
O15 V3 2.184809 1_555
O16 Ti4 2.008867 1_455
O16 Ti3 2.023625 1_555
O16 V0 2.184791 1_555
O17 Ti5 2.008866 1_556
O17 Ti2 2.023623 1_555
O17 V2 2.184836 1_655
O18 Ti1 2.008888 1_555
O18 Ti6 2.023648 1_555
O18 V1 2.184861 1_555
O19 Ti0 2.008914 1_655
O19 Ti7 2.023783 1_565
O19 V3 2.184872 1_555
O20 Ti1 2.008857 1_455
O20 Ti6 2.023620 1_555
O20 V1 2.184809 1_555
O21 Ti0 2.008852 1_555
O21 Ti7 2.023622 1_565
O21 V3 2.184837 1_555
O22 Ti3 2.008919 1_554
O22 Ti4 2.023792 1_454
O22 V2 2.184833 1_564
O23 Ti2 2.008898 1_554
O23 Ti5 2.023647 1_555
O23 V0 2.184849 1_554
