# generated using pymatgen
data_NaSb
_symmetry_space_group_name_H-M   'P 1'
_cell_length_a   6.34242564
_cell_length_b   6.78524533
_cell_length_c   11.13958056
_cell_angle_alpha   95.54876874
_cell_angle_beta   90.00000000
_cell_angle_gamma   90.00000000
_symmetry_Int_Tables_number   1
_chemical_formula_structural   NaSb
_chemical_formula_sum   'Na8 Sb8'
_cell_volume   477.14458752
_cell_formula_units_Z   8
loop_
 _symmetry_equiv_pos_site_id
 _symmetry_equiv_pos_as_xyz
  1  'x, y, z'
loop_
 _atom_site_type_symbol
 _atom_site_label
 _atom_site_symmetry_multiplicity
 _atom_site_fract_x
 _atom_site_fract_y
 _atom_site_fract_z
 _atom_site_occupancy
  Na  Na0  1  0.83593754  0.31029528  0.54187681  1
  Na  Na1  1  0.33593754  0.18970472  0.95812319  1
  Na  Na2  1  0.16406246  0.68970472  0.45812319  1
  Na  Na3  1  0.66406246  0.81029528  0.04187681  1
  Na  Na4  1  0.09739988  0.59680211  0.82703572  1
  Na  Na5  1  0.59739988  0.90319789  0.67296428  1
  Na  Na6  1  0.90260012  0.40319789  0.17296428  1
  Na  Na7  1  0.40260012  0.09680211  0.32703572  1
  Sb  Sb0  1  0.33676133  0.31373470  0.60475571  1
  Sb  Sb1  1  0.83676133  0.18626530  0.89524429  1
  Sb  Sb2  1  0.66323867  0.68626530  0.39524429  1
  Sb  Sb3  1  0.16323867  0.81373470  0.10475571  1
  Sb  Sb4  1  0.59518072  0.49004782  0.79770876  1
  Sb  Sb5  1  0.09518072  0.00995218  0.70229124  1
  Sb  Sb6  1  0.40481928  0.50995218  0.20229124  1
  Sb  Sb7  1  0.90481928  0.99004782  0.29770876  1
loop_
_geom_bond_atom_site_label_1
_geom_bond_atom_site_label_2
_geom_bond_distance
_geom_bond_site_symmetry_2
Na0 Sb0 3.242142 1_555
Na0 Sb0 3.252347 1_655
Na0 Sb5 3.279324 1_655
Na0 Sb7 3.341804 1_545
Na0 Sb2 3.343875 1_555
Na0 Sb4 3.356900 1_555
Na1 Sb1 3.242142 1_455
Na1 Sb1 3.252347 1_555
Na1 Sb4 3.279324 1_555
Na1 Sb6 3.341804 1_556
Na1 Sb3 3.343875 1_546
Na1 Sb5 3.356900 1_555
Na2 Sb2 3.242142 1_555
Na2 Sb2 3.252347 1_455
Na2 Sb7 3.279324 1_455
Na2 Sb5 3.341804 1_565
Na2 Sb0 3.343875 1_555
Na2 Sb6 3.356900 1_555
Na3 Sb3 3.242142 1_655
Na3 Sb3 3.252347 1_555
Na3 Sb6 3.279324 1_555
Na3 Sb4 3.341804 1_554
Na3 Sb1 3.343875 1_564
Na3 Sb7 3.356900 1_555
Na4 Sb5 3.247022 1_565
Na4 Sb4 3.248565 1_555
Na4 Sb4 3.275929 1_455
Na4 Sb3 3.321331 1_556
Na4 Sb0 3.347408 1_555
Na4 Sb1 3.388042 1_455
Na5 Sb4 3.247022 1_555
Na5 Sb5 3.248565 1_665
Na5 Sb5 3.275929 1_565
Na5 Sb2 3.321331 1_555
Na5 Sb1 3.347408 1_565
Na5 Sb0 3.388042 1_565
Na6 Sb7 3.247022 1_545
Na6 Sb6 3.248565 1_555
Na6 Sb6 3.275929 1_655
Na6 Sb1 3.321331 1_554
Na6 Sb2 3.347408 1_555
Na6 Sb3 3.388042 1_655
Na7 Sb6 3.247022 1_555
Na7 Sb7 3.248565 1_445
Na7 Sb7 3.275929 1_545
Na7 Sb0 3.321331 1_555
Na7 Sb3 3.347408 1_545
Na7 Sb2 3.388042 1_545
Sb0 Sb5 2.865302 1_555
Sb0 Sb4 2.870585 1_555
Sb1 Sb4 2.865302 1_555
Sb1 Sb5 2.870585 1_655
Sb2 Sb7 2.865302 1_555
Sb2 Sb6 2.870585 1_555
Sb3 Sb6 2.865302 1_555
Sb3 Sb7 2.870585 1_455
