# generated using pymatgen
data_Tb2WO6
_symmetry_space_group_name_H-M   'P 1'
_cell_length_a   5.36084613
_cell_length_b   7.65036771
_cell_length_c   11.40238905
_cell_angle_alpha   75.59615551
_cell_angle_beta   90.00000000
_cell_angle_gamma   90.00000000
_symmetry_Int_Tables_number   1
_chemical_formula_structural   Tb2WO6
_chemical_formula_sum   'Tb8 W4 O24'
_cell_volume   452.94027399
_cell_formula_units_Z   4
loop_
 _symmetry_equiv_pos_site_id
 _symmetry_equiv_pos_as_xyz
  1  'x, y, z'
loop_
 _atom_site_type_symbol
 _atom_site_label
 _atom_site_symmetry_multiplicity
 _atom_site_fract_x
 _atom_site_fract_y
 _atom_site_fract_z
 _atom_site_occupancy
  Tb  Tb0  1  0.73746601  0.00000000  0.75000000  1
  Tb  Tb1  1  0.26253399  0.00000000  0.25000000  1
  Tb  Tb2  1  0.18812743  0.79762958  0.57730243  1
  Tb  Tb3  1  0.81187257  0.79762958  0.07730243  1
  Tb  Tb4  1  0.68271733  0.50000000  0.75000000  1
  Tb  Tb5  1  0.31728267  0.50000000  0.25000000  1
  Tb  Tb6  1  0.18812743  0.20237042  0.92269757  1
  Tb  Tb7  1  0.81187257  0.20237042  0.42269757  1
  W  W0  1  0.25351379  0.72155297  0.88648673  1
  W  W1  1  0.74648621  0.72155297  0.38648673  1
  W  W2  1  0.25351379  0.27844703  0.61351327  1
  W  W3  1  0.74648621  0.27844703  0.11351327  1
  O  O0  1  0.03890773  0.93677631  0.89624519  1
  O  O1  1  0.52189136  0.85160879  0.93002926  1
  O  O2  1  0.96109227  0.93677631  0.39624519  1
  O  O3  1  0.46224222  0.78523032  0.72913033  1
  O  O4  1  0.47810864  0.85160879  0.43002926  1
  O  O5  1  0.98659747  0.71015518  0.77202327  1
  O  O6  1  0.53775778  0.78523032  0.22913033  1
  O  O7  1  0.84755449  0.63441793  0.54747687  1
  O  O8  1  0.35884830  0.49079268  0.88768224  1
  O  O9  1  0.01340253  0.71015518  0.27202327  1
  O  O10  1  0.35884830  0.50920732  0.61231776  1
  O  O11  1  0.84755449  0.36558207  0.95252313  1
  O  O12  1  0.15244551  0.63441793  0.04747687  1
  O  O13  1  0.64115170  0.49079268  0.38768224  1
  O  O14  1  0.98659747  0.28984482  0.72797673  1
  O  O15  1  0.64115170  0.50920732  0.11231776  1
  O  O16  1  0.15244551  0.36558207  0.45252313  1
  O  O17  1  0.46224222  0.21476968  0.77086967  1
  O  O18  1  0.01340253  0.28984482  0.22797673  1
  O  O19  1  0.52189136  0.14839121  0.56997074  1
  O  O20  1  0.53775778  0.21476968  0.27086967  1
  O  O21  1  0.03890773  0.06322369  0.60375481  1
  O  O22  1  0.47810864  0.14839121  0.06997074  1
  O  O23  1  0.96109227  0.06322369  0.10375481  1
loop_
_geom_bond_atom_site_label_1
_geom_bond_atom_site_label_2
_geom_bond_distance
_geom_bond_site_symmetry_2
O0 W0 2.034256 1_555
O0 Tb6 2.272526 1_565
O0 Tb0 2.285778 1_465
O0 Tb3 2.404843 1_456
O1 W0 1.884725 1_555
O1 Tb3 2.249905 1_556
O1 Tb0 2.383021 1_565
O2 W1 2.034256 1_555
O2 Tb7 2.272526 1_565
O2 Tb1 2.285778 1_665
O2 Tb2 2.404843 1_655
O3 W0 2.067324 1_555
O3 Tb2 2.254716 1_555
O3 Tb0 2.264447 1_565
O3 Tb4 2.440673 1_555
O4 W1 1.884725 1_555
O4 Tb2 2.249905 1_555
O4 Tb1 2.383021 1_565
O5 W0 1.953234 1_655
O5 Tb4 2.345773 1_555
O5 Tb2 2.409457 1_655
O5 Tb0 2.546898 1_565
O6 W1 2.067324 1_555
O6 Tb3 2.254716 1_555
O6 Tb1 2.264447 1_565
O6 Tb5 2.440673 1_555
O7 W1 1.870516 1_555
O7 Tb2 2.284598 1_655
O7 Tb4 2.447355 1_555
O8 W0 1.850330 1_555
O8 Tb6 2.329704 1_555
O8 Tb4 2.330018 1_555
O9 W1 1.953234 1_455
O9 Tb5 2.345773 1_555
O9 Tb3 2.409457 1_455
O9 Tb1 2.546898 1_565
O10 W2 1.850330 1_555
O10 Tb2 2.329704 1_555
O10 Tb4 2.330018 1_555
O11 W3 1.870516 1_556
O11 Tb6 2.284598 1_655
O11 Tb4 2.447355 1_555
O12 W0 1.870516 1_554
O12 Tb3 2.284598 1_455
O12 Tb5 2.447355 1_555
O13 W1 1.850330 1_555
O13 Tb7 2.329704 1_555
O13 Tb5 2.330018 1_555
O14 W2 1.953234 1_655
O14 Tb4 2.345773 1_555
O14 Tb6 2.409457 1_655
O14 Tb0 2.546898 1_555
O15 W3 1.850330 1_555
O15 Tb3 2.329704 1_555
O15 Tb5 2.330018 1_555
O16 W2 1.870516 1_555
O16 Tb7 2.284598 1_455
O16 Tb5 2.447355 1_555
O17 W2 2.067324 1_555
O17 Tb6 2.254716 1_555
O17 Tb0 2.264447 1_555
O17 Tb4 2.440673 1_555
O18 W3 1.953234 1_455
O18 Tb5 2.345773 1_555
O18 Tb7 2.409457 1_455
O18 Tb1 2.546898 1_555
O19 W2 1.884725 1_555
O19 Tb7 2.249905 1_555
O19 Tb0 2.383021 1_555
O20 W3 2.067324 1_555
O20 Tb7 2.254716 1_555
O20 Tb1 2.264447 1_555
O20 Tb5 2.440673 1_555
O21 W2 2.034256 1_555
O21 Tb2 2.272526 1_545
O21 Tb0 2.285778 1_455
O21 Tb7 2.404843 1_455
O22 W3 1.884725 1_555
O22 Tb6 2.249905 1_554
O22 Tb1 2.383021 1_555
O23 W3 2.034256 1_555
O23 Tb3 2.272526 1_545
O23 Tb1 2.285778 1_655
O23 Tb6 2.404843 1_654
