# generated using pymatgen
data_La16Cu8O31
_symmetry_space_group_name_H-M   'P 1'
_cell_length_a   7.05246900
_cell_length_b   11.15412815
_cell_length_c   11.80578494
_cell_angle_alpha   118.08530592
_cell_angle_beta   104.21799164
_cell_angle_gamma   90.14787130
_symmetry_Int_Tables_number   1
_chemical_formula_structural   La16Cu8O31
_chemical_formula_sum   'La16 Cu8 O31'
_cell_volume   786.61481752
_cell_formula_units_Z   1
loop_
 _symmetry_equiv_pos_site_id
 _symmetry_equiv_pos_as_xyz
  1  'x, y, z'
loop_
 _atom_site_type_symbol
 _atom_site_label
 _atom_site_symmetry_multiplicity
 _atom_site_fract_x
 _atom_site_fract_y
 _atom_site_fract_z
 _atom_site_occupancy
  La  La0  1  0.45610900  0.58008200  0.17924900  1
  La  La1  1  0.04417400  0.16572400  0.31989000  1
  La  La2  1  0.45675000  0.08533700  0.18002700  1
  La  La3  1  0.79625900  0.77938500  0.07395600  1
  La  La4  1  0.04323000  0.66642400  0.31910400  1
  La  La5  1  0.80709400  0.28393400  0.08879300  1
  La  La6  1  0.28787900  0.52445200  0.56417900  1
  La  La7  1  0.70879300  0.47914500  0.43943000  1
  La  La8  1  0.70046600  0.97225400  0.42791800  1
  La  La9  1  0.27991400  0.01622300  0.55051900  1
  La  La10  1  0.54977500  0.42543700  0.81641600  1
  La  La11  1  0.20263000  0.72913500  0.93238600  1
  La  La12  1  0.55467200  0.89317800  0.81433300  1
  La  La13  1  0.18216300  0.22944600  0.93619200  1
  La  La14  1  0.96230100  0.32831200  0.68066900  1
  La  La15  1  0.96445900  0.83680000  0.67958500  1
  Cu  Cu0  1  0.99521600  0.00152500  0.00152500  1
  Cu  Cu1  1  0.99409800  0.50130800  0.00181400  1
  Cu  Cu2  1  0.25712400  0.87276200  0.24545000  1
  Cu  Cu3  1  0.25937200  0.37433200  0.24969900  1
  Cu  Cu4  1  0.50065000  0.24930200  0.50047300  1
  Cu  Cu5  1  0.49949300  0.75028000  0.49996100  1
  Cu  Cu6  1  0.73430800  0.12649700  0.75408900  1
  Cu  Cu7  1  0.76053600  0.62175500  0.74715700  1
  O  O0  1  0.13970700  0.18530300  0.12083500  1
  O  O1  1  0.14633900  0.68344300  0.11709800  1
  O  O2  1  0.11248000  0.93921900  0.12840100  1
  O  O3  1  0.11389300  0.43829600  0.12822600  1
  O  O4  1  0.51381100  0.34311000  0.13279000  1
  O  O5  1  0.72338200  0.58482800  0.10020500  1
  O  O6  1  0.72345900  0.07939900  0.10063600  1
  O  O7  1  0.53855100  0.86288300  0.16020800  1
  O  O8  1  0.36096500  0.06431900  0.37764000  1
  O  O9  1  0.36329900  0.56417300  0.37836900  1
  O  O10  1  0.39194000  0.80850400  0.36760600  1
  O  O11  1  0.39499300  0.30987800  0.37009000  1
  O  O12  1  0.05058800  0.11004100  0.67324800  1
  O  O13  1  0.02838900  0.61123000  0.65093100  1
  O  O14  1  0.20973800  0.33002500  0.58901700  1
  O  O15  1  0.78506800  0.67278400  0.40765700  1
  O  O16  1  0.79007800  0.17017200  0.41317700  1
  O  O17  1  0.21433600  0.82407800  0.58762600  1
  O  O18  1  0.95720100  0.38902500  0.33692100  1
  O  O19  1  0.97379700  0.89620100  0.35144000  1
  O  O20  1  0.59524200  0.19137600  0.63525200  1
  O  O21  1  0.60786400  0.68676500  0.62912100  1
  O  O22  1  0.62461500  0.93797900  0.62606000  1
  O  O23  1  0.64173500  0.43346800  0.62066400  1
  O  O24  1  0.29173600  0.40264900  0.89693000  1
  O  O25  1  0.28666400  0.93283400  0.89863000  1
  O  O26  1  0.46675600  0.65330400  0.84611800  1
  O  O27  1  0.84931300  0.31494200  0.88734100  1
  O  O28  1  0.89796600  0.55666400  0.86703000  1
  O  O29  1  0.86597300  0.81301300  0.87982600  1
  O  O30  1  0.86727700  0.06411400  0.87655600  1
loop_
_geom_bond_atom_site_label_1
_geom_bond_atom_site_label_2
_geom_bond_distance
_geom_bond_site_symmetry_2
La0 O5 2.310119 1_555
La0 O4 2.490616 1_555
La0 O1 2.581147 1_555
La0 O10 2.608995 1_555
La0 O3 2.656688 1_555
La0 O9 2.670960 1_555
La0 O15 2.830548 1_555
La0 O24 2.872077 1_554
La1 O16 2.311956 1_455
La1 O18 2.493454 1_455
La1 O8 2.593559 1_555
La1 O2 2.624725 1_545
La1 O0 2.698952 1_555
La1 O11 2.723953 1_555
La1 O14 2.738780 1_555
La1 O6 2.740297 1_455
La1 O19 3.249666 1_445
La2 O6 2.286716 1_555
La2 O7 2.464013 1_545
La2 O11 2.586805 1_555
La2 O0 2.590376 1_555
La2 O2 2.690742 1_545
La2 O8 2.691168 1_555
La2 O25 2.842522 1_544
La2 O16 2.890599 1_555
La2 O4 3.217750 1_555
La3 O7 2.287443 1_555
La3 O5 2.403179 1_555
La3 O2 2.600275 1_655
La3 O29 2.645187 1_554
La3 O1 2.722017 1_655
La3 O28 2.794568 1_554
La3 O19 2.820418 1_555
La3 O26 2.822033 1_554
La3 O6 3.264509 1_565
La4 O15 2.297538 1_455
La4 O19 2.476156 1_455
La4 O9 2.621919 1_555
La4 O3 2.638261 1_555
La4 O10 2.705755 1_555
La4 O17 2.731132 1_555
La4 O5 2.739770 1_455
La4 O1 2.744031 1_555
La4 O18 3.263722 1_455
La5 O4 2.279386 1_555
La5 O6 2.430265 1_555
La5 O18 2.512555 1_555
La5 O3 2.567886 1_655
La5 O0 2.612509 1_655
La5 O27 2.643183 1_554
La5 O30 2.685762 1_554
La6 O13 2.308965 1_555
La6 O14 2.400992 1_555
La6 O9 2.603513 1_555
La6 O21 2.603891 1_555
La6 O11 2.691700 1_555
La6 O23 2.745036 1_555
La6 O18 2.830378 1_455
La6 O26 2.856524 1_555
La6 O17 3.274668 1_555
La7 O18 2.334368 1_555
La7 O15 2.439486 1_555
La7 O23 2.565811 1_555
La7 O11 2.601092 1_555
La7 O21 2.606380 1_555
La7 O9 2.673751 1_555
La7 O13 2.690731 1_655
La7 O4 3.109730 1_555
La8 O19 2.322264 1_555
La8 O16 2.389930 1_565
La8 O10 2.563469 1_555
La8 O8 2.651060 1_565
La8 O22 2.712924 1_555
La8 O7 2.714909 1_555
La8 O20 2.790065 1_565
La8 O12 3.020572 1_665
La8 O15 3.301375 1_555
La9 O12 2.354217 1_555
La9 O17 2.444912 1_545
La9 O8 2.526370 1_555
La9 O19 2.550857 1_445
La9 O10 2.606163 1_545
La9 O20 2.609149 1_555
La9 O22 2.673122 1_545
La10 O24 2.314011 1_555
La10 O26 2.489004 1_555
La10 O20 2.564537 1_555
La10 O23 2.588484 1_555
La10 O27 2.607474 1_555
La10 O28 2.639446 1_555
La10 O14 2.867905 1_555
La10 O5 2.872285 1_556
La11 O26 2.313315 1_555
La11 O25 2.575663 1_555
La11 O1 2.577466 1_556
La11 O28 2.584475 1_455
La11 O29 2.594585 1_455
La11 O2 2.622019 1_556
La11 O7 2.854090 1_556
La11 O13 2.855155 1_555
La12 O25 2.296181 1_555
La12 O21 2.426920 1_555
La12 O29 2.458574 1_555
La12 O30 2.626657 1_565
La12 O22 2.648887 1_555
La12 O17 2.900160 1_555
La12 O6 2.925118 1_566
La12 O26 2.955515 1_555
La13 O24 2.357067 1_555
La13 O3 2.523412 1_556
La13 O0 2.532649 1_556
La13 O27 2.572307 1_455
La13 O30 2.610836 1_455
La13 O12 2.637632 1_555
La13 O4 2.648084 1_556
La13 O25 3.236874 1_545
La14 O14 2.272251 1_655
La14 O12 2.481236 1_655
La14 O28 2.598823 1_555
La14 O23 2.645382 1_555
La14 O16 2.723821 1_555
La14 O24 2.772510 1_655
La14 O20 2.801487 1_555
La14 O27 2.812025 1_555
La15 O17 2.258391 1_655
La15 O13 2.434652 1_655
La15 O22 2.712710 1_555
La15 O25 2.736970 1_655
La15 O29 2.745456 1_555
La15 O30 2.747045 1_565
La15 O15 2.777883 1_555
La15 O21 2.789926 1_555
La15 O12 3.144978 1_665
Cu0 O2 1.945546 1_645
Cu0 O0 1.946772 1_655
Cu0 O30 1.948671 1_554
Cu0 O29 1.954134 1_544
Cu0 O6 2.439260 1_555
Cu0 O25 2.577935 1_644
Cu1 O28 1.941706 1_554
Cu1 O1 1.949323 1_655
Cu1 O3 1.950984 1_655
Cu1 O27 1.963732 1_554
Cu1 O5 2.437606 1_555
Cu1 O24 2.675083 1_654
Cu2 O1 1.939804 1_555
Cu2 O2 1.943076 1_555
Cu2 O10 1.949543 1_555
Cu2 O8 1.956516 1_565
Cu2 O7 2.417023 1_555
Cu2 O19 2.559215 1_455
Cu3 O9 1.935195 1_555
Cu3 O11 1.936410 1_555
Cu3 O0 1.952473 1_555
Cu3 O3 1.965368 1_555
Cu3 O4 2.452232 1_555
Cu3 O18 2.559182 1_455
Cu4 O23 1.942839 1_555
Cu4 O11 1.949253 1_555
Cu4 O8 1.949656 1_555
Cu4 O20 1.960391 1_555
Cu4 O16 2.488726 1_555
Cu4 O14 2.507889 1_555
Cu5 O22 1.946441 1_555
Cu5 O9 1.949114 1_555
Cu5 O10 1.953078 1_555
Cu5 O21 1.964341 1_555
Cu5 O17 2.453953 1_555
Cu5 O15 2.488186 1_555
Cu6 O22 1.931131 1_545
Cu6 O20 1.933289 1_555
Cu6 O30 1.933539 1_555
Cu6 O27 1.949808 1_555
Cu6 O12 2.608223 1_655
Cu7 O23 1.940636 1_555
Cu7 O28 1.940770 1_555
Cu7 O29 1.957229 1_555
Cu7 O21 1.960974 1_555
Cu7 O13 2.408832 1_655
Cu7 O26 2.566546 1_555
