# generated using pymatgen
data_Li15(FeO4)4
_symmetry_space_group_name_H-M   'P 1'
_cell_length_a   9.27088700
_cell_length_b   9.16738700
_cell_length_c   9.38559811
_cell_angle_alpha   89.53198801
_cell_angle_beta   90.00000000
_cell_angle_gamma   90.00000000
_symmetry_Int_Tables_number   1
_chemical_formula_structural   Li15(FeO4)4
_chemical_formula_sum   'Li30 Fe8 O32'
_cell_volume   797.65357921
_cell_formula_units_Z   2
loop_
 _symmetry_equiv_pos_site_id
 _symmetry_equiv_pos_as_xyz
  1  'x, y, z'
loop_
 _atom_site_type_symbol
 _atom_site_label
 _atom_site_symmetry_multiplicity
 _atom_site_fract_x
 _atom_site_fract_y
 _atom_site_fract_z
 _atom_site_occupancy
  Li  Li0  1  0.63509700  0.89563700  0.14350400  1
  Li  Li1  1  0.36490300  0.89563700  0.64350400  1
  Li  Li2  1  0.40159700  0.87553400  0.36371000  1
  Li  Li3  1  0.59840300  0.87553400  0.86371000  1
  Li  Li4  1  0.12044600  0.64254300  0.85847700  1
  Li  Li5  1  0.87955400  0.64254300  0.35847700  1
  Li  Li6  1  0.62921100  0.61085300  0.84339700  1
  Li  Li7  1  0.37078900  0.61085300  0.34339700  1
  Li  Li8  1  0.12717000  0.59959100  0.13582800  1
  Li  Li9  1  0.87283000  0.59959100  0.63582800  1
  Li  Li10  1  0.63051100  0.40837100  0.37237100  1
  Li  Li11  1  0.36948900  0.40837100  0.87237100  1
  Li  Li12  1  0.13442700  0.39296200  0.65170300  1
  Li  Li13  1  0.86557300  0.39296200  0.15170300  1
  Li  Li14  1  0.60217800  0.38003900  0.63111600  1
  Li  Li15  1  0.39782200  0.38003900  0.13111600  1
  Li  Li16  1  0.63707300  0.34221300  0.89326900  1
  Li  Li17  1  0.36292700  0.34221300  0.39326900  1
  Li  Li18  1  0.13546300  0.33231100  0.10428000  1
  Li  Li19  1  0.86453700  0.33231100  0.60428000  1
  Li  Li20  1  0.63587900  0.17234400  0.10499200  1
  Li  Li21  1  0.36412100  0.17234400  0.60499200  1
  Li  Li22  1  0.86703600  0.13841800  0.39446800  1
  Li  Li23  1  0.13296400  0.13841800  0.89446800  1
  Li  Li24  1  0.10677800  0.12170100  0.63805700  1
  Li  Li25  1  0.89322200  0.12170100  0.13805700  1
  Li  Li26  1  0.63164300  0.10560800  0.64748600  1
  Li  Li27  1  0.36835700  0.10560800  0.14748600  1
  Li  Li28  1  0.13189400  0.09484000  0.36623200  1
  Li  Li29  1  0.86810600  0.09484000  0.86623200  1
  Fe  Fe0  1  0.11391800  0.88027400  0.12259300  1
  Fe  Fe1  1  0.88608200  0.88027400  0.62259300  1
  Fe  Fe2  1  0.60991700  0.61775800  0.12508300  1
  Fe  Fe3  1  0.39008300  0.61775800  0.62508300  1
  Fe  Fe4  1  0.09528100  0.38251800  0.37836700  1
  Fe  Fe5  1  0.90471900  0.38251800  0.87836700  1
  Fe  Fe6  1  0.59705800  0.12002400  0.37808400  1
  Fe  Fe7  1  0.40294200  0.12002400  0.87808400  1
  O  O0  1  0.98069200  0.00682500  0.52222300  1
  O  O1  1  0.01930800  0.00682500  0.02222300  1
  O  O2  1  0.23394600  0.97060100  0.23334500  1
  O  O3  1  0.76605400  0.97060100  0.73334500  1
  O  O4  1  0.20361500  0.76469700  0.01632200  1
  O  O5  1  0.79638500  0.76469700  0.51632200  1
  O  O6  1  0.01149100  0.76566000  0.22132400  1
  O  O7  1  0.98850900  0.76566000  0.72132400  1
  O  O8  1  0.51139100  0.73879400  0.23799600  1
  O  O9  1  0.48860900  0.73879400  0.73799600  1
  O  O10  1  0.68118700  0.74383200  0.00014400  1
  O  O11  1  0.31881300  0.74383200  0.50014400  1
  O  O12  1  0.73511100  0.52479300  0.24250400  1
  O  O13  1  0.26488900  0.52479300  0.74250400  1
  O  O14  1  0.47071500  0.48260600  0.50324600  1
  O  O15  1  0.52928500  0.48260600  0.00324600  1
  O  O16  1  0.02423200  0.48350000  0.00015800  1
  O  O17  1  0.97576800  0.48350000  0.50015800  1
  O  O18  1  0.24031200  0.46292900  0.25426800  1
  O  O19  1  0.75968800  0.46292900  0.75426800  1
  O  O20  1  0.20408500  0.25214200  0.49795600  1
  O  O21  1  0.79591500  0.25214200  0.99795600  1
  O  O22  1  0.99873100  0.24786600  0.26110500  1
  O  O23  1  0.00126900  0.24786600  0.76110500  1
  O  O24  1  0.49157300  0.24272900  0.25941600  1
  O  O25  1  0.50842700  0.24272900  0.75941600  1
  O  O26  1  0.70910700  0.24036100  0.49866200  1
  O  O27  1  0.29089300  0.24036100  0.99866200  1
  O  O28  1  0.26875100  0.05127000  0.75346700  1
  O  O29  1  0.73124900  0.05127000  0.25346700  1
  O  O30  1  0.52317100  0.02737400  0.00176800  1
  O  O31  1  0.47682900  0.02737400  0.50176800  1
loop_
_geom_bond_atom_site_label_1
_geom_bond_atom_site_label_2
_geom_bond_distance
_geom_bond_site_symmetry_2
Li0 O29 1.979760 1_565
Li0 O10 1.990050 1_555
Li0 O8 2.036757 1_555
Li0 O30 2.068482 1_565
Li1 O28 1.979760 1_565
Li1 O11 1.990050 1_555
Li1 O9 2.036757 1_555
Li1 O31 2.068482 1_565
Li2 O11 1.913430 1_555
Li2 O8 2.005943 1_555
Li2 O31 2.032857 1_565
Li2 O2 2.157538 1_555
Li3 O10 1.913430 1_556
Li3 O9 2.005943 1_555
Li3 O30 2.032857 1_566
Li3 O3 2.157538 1_555
Li4 O4 2.017523 1_556
Li4 O13 2.040205 1_555
Li4 O7 2.098413 1_455
Li4 O16 2.158246 1_556
Li5 O5 2.017523 1_555
Li5 O12 2.040205 1_555
Li5 O6 2.098413 1_655
Li5 O17 2.158246 1_555
Li6 O10 1.977864 1_556
Li6 O19 2.005113 1_555
Li6 O9 2.008594 1_555
Li6 O15 2.112460 1_556
Li7 O11 1.977864 1_555
Li7 O18 2.005113 1_555
Li7 O8 2.008594 1_555
Li7 O14 2.112460 1_555
Li8 O16 1.920134 1_555
Li8 O18 1.970484 1_555
Li8 O4 2.005882 1_555
Li8 O6 2.032672 1_555
Li9 O17 1.920134 1_555
Li9 O19 1.970484 1_555
Li9 O5 2.005882 1_555
Li9 O7 2.032672 1_555
Li10 O12 1.882525 1_555
Li10 O14 2.044580 1_555
Li10 O26 2.068416 1_555
Li10 O24 2.261685 1_555
Li11 O13 1.882525 1_555
Li11 O15 2.044580 1_556
Li11 O27 2.068416 1_555
Li11 O25 2.261685 1_555
Li12 O13 1.914831 1_555
Li12 O20 2.048489 1_555
Li12 O23 2.079732 1_555
Li12 O17 2.203687 1_455
Li13 O12 1.914831 1_555
Li13 O21 2.048489 1_554
Li13 O22 2.079732 1_555
Li13 O16 2.203687 1_655
Li14 O25 1.940415 1_555
Li14 O14 1.947158 1_555
Li14 O19 2.014976 1_555
Li14 O26 2.047881 1_555
Li15 O24 1.940415 1_555
Li15 O15 1.947158 1_555
Li15 O18 2.014976 1_555
Li15 O27 2.047881 1_554
Li16 O15 1.934473 1_556
Li16 O21 1.950007 1_555
Li16 O25 1.962444 1_555
Li16 O19 2.048241 1_555
Li17 O14 1.934473 1_555
Li17 O20 1.950007 1_555
Li17 O24 1.962444 1_555
Li17 O18 2.048241 1_555
Li18 O27 1.945060 1_554
Li18 O16 1.979216 1_555
Li18 O22 2.086632 1_455
Li18 O18 2.094739 1_555
Li19 O26 1.945060 1_555
Li19 O17 1.979216 1_555
Li19 O23 2.086632 1_655
Li19 O19 2.094739 1_555
Li20 O21 1.932266 1_554
Li20 O30 1.953893 1_555
Li20 O29 1.982510 1_555
Li20 O24 2.078966 1_555
Li21 O20 1.932266 1_555
Li21 O31 1.953893 1_555
Li21 O28 1.982510 1_555
Li21 O25 2.078966 1_555
Li22 O0 1.994915 1_555
Li22 O26 1.997088 1_555
Li22 O29 1.997904 1_555
Li22 O22 2.010870 1_555
Li23 O1 1.994915 1_556
Li23 O27 1.997088 1_555
Li23 O28 1.997904 1_555
Li23 O23 2.010870 1_555
Li24 O23 1.910523 1_555
Li24 O0 1.917312 1_455
Li24 O28 1.957976 1_555
Li24 O20 1.986738 1_555
Li25 O22 1.910523 1_555
Li25 O1 1.917312 1_655
Li25 O29 1.957976 1_555
Li25 O21 1.986738 1_554
Li26 O3 1.928127 1_545
Li26 O26 1.991148 1_555
Li26 O25 2.002558 1_555
Li26 O31 2.112073 1_555
Li27 O2 1.928127 1_545
Li27 O27 1.991148 1_554
Li27 O24 2.002558 1_555
Li27 O30 2.112073 1_555
Li28 O2 1.941933 1_545
Li28 O20 2.021142 1_555
Li28 O22 2.107841 1_455
Li28 O0 2.177203 1_455
Li29 O3 1.941933 1_545
Li29 O21 2.021142 1_555
Li29 O23 2.107841 1_655
Li29 O1 2.177203 1_656
Fe0 O4 1.681142 1_555
Fe0 O6 1.687746 1_555
Fe0 O1 1.727668 1_565
Fe0 O2 1.737384 1_555
Fe1 O5 1.681142 1_555
Fe1 O7 1.687746 1_555
Fe1 O0 1.727668 1_565
Fe1 O3 1.737384 1_555
Fe2 O10 1.767849 1_555
Fe2 O8 1.791036 1_555
Fe2 O12 1.809050 1_555
Fe2 O15 1.850586 1_555
Fe3 O11 1.767849 1_555
Fe3 O9 1.791036 1_555
Fe3 O13 1.809050 1_555
Fe3 O14 1.850586 1_555
Fe4 O17 1.846230 1_455
Fe4 O22 1.886380 1_455
Fe4 O20 1.919352 1_555
Fe4 O18 1.921942 1_555
Fe5 O16 1.846230 1_656
Fe5 O23 1.886380 1_655
Fe5 O21 1.919352 1_555
Fe5 O19 1.921942 1_555
Fe6 O31 1.815288 1_555
Fe6 O29 1.823458 1_555
Fe6 O24 1.855195 1_555
Fe6 O26 1.896634 1_555
Fe7 O30 1.815288 1_556
Fe7 O28 1.823458 1_555
Fe7 O25 1.855195 1_555
Fe7 O27 1.896634 1_555
