# generated using pymatgen
data_Li4Fe3(BO3)4
_symmetry_space_group_name_H-M   'P 1'
_cell_length_a   8.94871600
_cell_length_b   5.25241200
_cell_length_c   11.05338900
_cell_angle_alpha   64.08366315
_cell_angle_beta   90.00000000
_cell_angle_gamma   90.00000000
_symmetry_Int_Tables_number   1
_chemical_formula_structural   Li4Fe3(BO3)4
_chemical_formula_sum   'Li8 Fe6 B8 O24'
_cell_volume   467.28719161
_cell_formula_units_Z   2
loop_
 _symmetry_equiv_pos_site_id
 _symmetry_equiv_pos_as_xyz
  1  'x, y, z'
loop_
 _atom_site_type_symbol
 _atom_site_label
 _atom_site_symmetry_multiplicity
 _atom_site_fract_x
 _atom_site_fract_y
 _atom_site_fract_z
 _atom_site_occupancy
  Li  Li0  1  0.23708000  0.51984600  0.31944500  1
  Li  Li1  1  0.91332800  0.45412300  0.38200200  1
  Li  Li2  1  0.23667400  0.89399900  0.92161400  1
  Li  Li3  1  0.73578700  0.08855100  0.61077200  1
  Li  Li4  1  0.76292000  0.51984600  0.81944500  1
  Li  Li5  1  0.76332600  0.89399900  0.42161400  1
  Li  Li6  1  0.08667200  0.45412300  0.88200200  1
  Li  Li7  1  0.26421300  0.08855100  0.11077200  1
  Fe  Fe0  1  0.57028200  0.97485600  0.87005700  1
  Fe  Fe1  1  0.69910700  0.47074500  0.16950100  1
  Fe  Fe2  1  0.06180300  0.01989800  0.62354600  1
  Fe  Fe3  1  0.42971800  0.97485600  0.37005700  1
  Fe  Fe4  1  0.93819700  0.01989800  0.12354600  1
  Fe  Fe5  1  0.30089300  0.47074500  0.66950100  1
  B  B0  1  0.57269700  0.44911100  0.38525300  1
  B  B1  1  0.91069800  0.97266700  0.86690400  1
  B  B2  1  0.05879000  0.56075900  0.11931800  1
  B  B3  1  0.40901800  0.02197500  0.62702600  1
  B  B4  1  0.08930200  0.97266700  0.36690400  1
  B  B5  1  0.42730300  0.44911100  0.88525300  1
  B  B6  1  0.59098200  0.02197500  0.12702600  1
  B  B7  1  0.94121000  0.56075900  0.61931800  1
  O  O0  1  0.58389100  0.82459600  0.07444100  1
  O  O1  1  0.91838700  0.33119900  0.59159300  1
  O  O2  1  0.16769500  0.74843100  0.11404100  1
  O  O3  1  0.91506000  0.61715900  0.15464300  1
  O  O4  1  0.53303800  0.11415100  0.67013500  1
  O  O5  1  0.26969900  0.12628200  0.64008700  1
  O  O6  1  0.43511500  0.35229700  0.36564700  1
  O  O7  1  0.03882200  0.87799200  0.82795900  1
  O  O8  1  0.70199400  0.29937300  0.38181900  1
  O  O9  1  0.77260300  0.86363500  0.85198300  1
  O  O10  1  0.08070700  0.17201900  0.41812500  1
  O  O11  1  0.41320900  0.69667900  0.89773200  1
  O  O12  1  0.08161300  0.33119900  0.09159300  1
  O  O13  1  0.41610900  0.82459600  0.57444100  1
  O  O14  1  0.46696200  0.11415100  0.17013500  1
  O  O15  1  0.83230500  0.74843100  0.61404100  1
  O  O16  1  0.73030100  0.12628200  0.14008700  1
  O  O17  1  0.08494000  0.61715900  0.65464300  1
  O  O18  1  0.96117800  0.87799200  0.32795900  1
  O  O19  1  0.56488500  0.35229700  0.86564700  1
  O  O20  1  0.22739700  0.86363500  0.35198300  1
  O  O21  1  0.29800600  0.29937300  0.88181900  1
  O  O22  1  0.58679100  0.69667900  0.39773200  1
  O  O23  1  0.91929300  0.17201900  0.91812500  1
loop_
_geom_bond_atom_site_label_1
_geom_bond_atom_site_label_2
_geom_bond_distance
_geom_bond_site_symmetry_2
Li0 O6 1.944985 1_555
Li0 O20 1.991274 1_555
Li0 O2 2.144533 1_555
Li0 O10 2.178000 1_555
Li1 O10 2.020217 1_655
Li1 O8 2.058791 1_555
Li1 O18 2.081886 1_555
Li1 O1 2.116245 1_555
Li1 O3 2.273328 1_555
Li2 O11 1.969420 1_555
Li2 O2 2.016950 1_556
Li2 O21 2.051707 1_565
Li2 O7 2.071121 1_555
Li3 O4 1.953866 1_555
Li3 O15 1.970351 1_545
Li3 O1 2.025626 1_555
Li3 O8 2.296202 1_555
Li3 O9 2.420646 1_545
Li4 O19 1.944985 1_555
Li4 O9 1.991274 1_555
Li4 O15 2.144533 1_555
Li4 O23 2.178000 1_555
Li5 O22 1.969420 1_555
Li5 O15 2.016950 1_555
Li5 O8 2.051707 1_565
Li5 O18 2.071121 1_555
Li6 O23 2.020217 1_455
Li6 O21 2.058791 1_555
Li6 O7 2.081886 1_555
Li6 O12 2.116245 1_556
Li6 O17 2.273328 1_555
Li7 O14 1.953866 1_555
Li7 O2 1.970351 1_545
Li7 O12 2.025626 1_555
Li7 O21 2.296202 1_554
Li7 O20 2.420646 1_545
Fe0 O9 1.939368 1_555
Fe0 O11 1.952797 1_555
Fe0 O19 1.962255 1_565
Fe0 O4 2.028892 1_565
Fe0 O0 2.045209 1_556
Fe1 O0 1.978467 1_555
Fe1 O16 1.992798 1_555
Fe1 O3 2.059742 1_555
Fe1 O8 2.114710 1_555
Fe2 O5 1.973842 1_555
Fe2 O1 1.985075 1_455
Fe2 O17 2.000038 1_545
Fe2 O7 2.056914 1_545
Fe2 O10 2.058350 1_555
Fe2 O15 2.528396 1_445
Fe3 O20 1.939368 1_555
Fe3 O22 1.952797 1_555
Fe3 O6 1.962255 1_565
Fe3 O14 2.028892 1_565
Fe3 O13 2.045209 1_555
Fe4 O16 1.973842 1_555
Fe4 O12 1.985075 1_655
Fe4 O3 2.000038 1_545
Fe4 O18 2.056914 1_545
Fe4 O23 2.058350 1_554
Fe4 O2 2.528396 1_645
Fe5 O13 1.978467 1_555
Fe5 O5 1.992798 1_555
Fe5 O17 2.059742 1_555
Fe5 O21 2.114710 1_555
B0 O22 1.372068 1_555
B0 O6 1.384804 1_555
B0 O8 1.408844 1_555
B1 O7 1.390780 1_655
B1 O23 1.393208 1_565
B1 O9 1.401735 1_555
B2 O2 1.369151 1_555
B2 O12 1.382909 1_555
B2 O3 1.412668 1_455
B3 O4 1.376519 1_555
B3 O13 1.394051 1_545
B3 O5 1.394439 1_555
B4 O18 1.390780 1_455
B4 O10 1.393208 1_565
B4 O20 1.401735 1_555
B5 O11 1.372068 1_555
B5 O19 1.384804 1_555
B5 O21 1.408844 1_555
B6 O14 1.376519 1_555
B6 O0 1.394051 1_545
B6 O16 1.394439 1_555
B7 O15 1.369151 1_555
B7 O1 1.382909 1_555
B7 O17 1.412668 1_655
