# generated using pymatgen
data_Li2Cr3WO8
_symmetry_space_group_name_H-M   'P 1'
_cell_length_a   5.96301347
_cell_length_b   5.96301347
_cell_length_c   9.63673500
_cell_angle_alpha   90.00000000
_cell_angle_beta   90.00000000
_cell_angle_gamma   119.99999417
_symmetry_Int_Tables_number   1
_chemical_formula_structural   Li2Cr3WO8
_chemical_formula_sum   'Li4 Cr6 W2 O16'
_cell_volume   296.75097540
_cell_formula_units_Z   2
loop_
 _symmetry_equiv_pos_site_id
 _symmetry_equiv_pos_as_xyz
  1  'x, y, z'
loop_
 _atom_site_type_symbol
 _atom_site_label
 _atom_site_symmetry_multiplicity
 _atom_site_fract_x
 _atom_site_fract_y
 _atom_site_fract_z
 _atom_site_occupancy
  Li  Li0  1  0.33333300  0.66666700  0.90195800  1
  Li  Li1  1  0.00000000  0.00000000  0.99231100  1
  Li  Li2  1  0.00000000  0.00000000  0.49231100  1
  Li  Li3  1  0.66666700  0.33333300  0.40195800  1
  Cr  Cr0  1  0.16936800  0.83063200  0.21244100  1
  Cr  Cr1  1  0.16936800  0.33873600  0.21244100  1
  Cr  Cr2  1  0.66126400  0.83063200  0.21244100  1
  Cr  Cr3  1  0.33873600  0.16936800  0.71244100  1
  Cr  Cr4  1  0.83063200  0.66126400  0.71244100  1
  Cr  Cr5  1  0.83063200  0.16936800  0.71244100  1
  W  W0  1  0.33333300  0.66666700  0.48732500  1
  W  W1  1  0.66666700  0.33333300  0.98732500  1
  O  O0  1  0.16582100  0.83417900  0.59582600  1
  O  O1  1  0.03894400  0.51947200  0.34301700  1
  O  O2  1  0.33333300  0.66666700  0.10779800  1
  O  O3  1  0.00000000  0.00000000  0.30725300  1
  O  O4  1  0.00000000  0.00000000  0.80725300  1
  O  O5  1  0.16582100  0.33164200  0.59582600  1
  O  O6  1  0.48052800  0.96105600  0.34301700  1
  O  O7  1  0.48052800  0.51947200  0.34301700  1
  O  O8  1  0.33164200  0.16582100  0.09582600  1
  O  O9  1  0.66835800  0.83417900  0.59582600  1
  O  O10  1  0.51947200  0.48052800  0.84301700  1
  O  O11  1  0.51947200  0.03894400  0.84301700  1
  O  O12  1  0.66666700  0.33333300  0.60779800  1
  O  O13  1  0.83417900  0.66835800  0.09582600  1
  O  O14  1  0.96105600  0.48052800  0.84301700  1
  O  O15  1  0.83417900  0.16582100  0.09582600  1
loop_
_geom_bond_atom_site_label_1
_geom_bond_atom_site_label_2
_geom_bond_distance
_geom_bond_site_symmetry_2
Li0 O2 1.983626 1_556
Li0 O14 2.004636 1_455
Li0 O11 2.004636 1_565
Li0 O10 2.004641 1_555
Li1 O4 1.783355 1_555
Li1 O15 1.981977 1_456
Li1 O13 1.981977 1_446
Li1 O8 1.981977 1_556
Li2 O3 1.783355 1_555
Li2 O0 1.981977 1_545
Li2 O5 1.981977 1_555
Li2 O9 1.981977 1_445
Li3 O12 1.983626 1_555
Li3 O6 2.004636 1_545
Li3 O1 2.004636 1_655
Li3 O7 2.004641 1_555
Cr0 O2 1.970976 1_555
Cr0 O3 1.973516 1_565
Cr0 O6 2.046439 1_555
Cr0 O1 2.046439 1_555
Cr0 O13 2.064005 1_455
Cr0 O8 2.064005 1_565
Cr1 O2 1.970980 1_555
Cr1 O3 1.973516 1_555
Cr1 O1 2.046439 1_555
Cr1 O7 2.046439 1_555
Cr1 O8 2.064005 1_555
Cr1 O15 2.064005 1_455
Cr2 O2 1.970980 1_555
Cr2 O3 1.973516 1_665
Cr2 O6 2.046439 1_555
Cr2 O7 2.046439 1_555
Cr2 O13 2.064005 1_555
Cr2 O15 2.064005 1_565
Cr3 O12 1.970980 1_555
Cr3 O4 1.973516 1_555
Cr3 O11 2.046439 1_555
Cr3 O10 2.046439 1_555
Cr3 O5 2.064005 1_555
Cr3 O0 2.064005 1_545
Cr4 O12 1.970980 1_555
Cr4 O4 1.973516 1_665
Cr4 O14 2.046439 1_555
Cr4 O10 2.046439 1_555
Cr4 O9 2.064005 1_555
Cr4 O0 2.064005 1_655
Cr5 O12 1.970976 1_555
Cr5 O4 1.973516 1_655
Cr5 O14 2.046439 1_555
Cr5 O11 2.046439 1_555
Cr5 O5 2.064005 1_655
Cr5 O9 2.064005 1_545
O0 W0 2.021517 1_555
O1 W0 2.060369 1_555
O5 W0 2.021522 1_555
O6 W0 2.060369 1_555
O7 W0 2.060373 1_555
O8 W1 2.021522 1_554
O9 W0 2.021522 1_555
O10 W1 2.060373 1_555
O11 W1 2.060369 1_555
O13 W1 2.021522 1_554
O14 W1 2.060369 1_555
O15 W1 2.021517 1_554
