# generated using pymatgen
data_Li4Ti7O16
_symmetry_space_group_name_H-M   'P 1'
_cell_length_a   5.84962991
_cell_length_b   5.84962991
_cell_length_c   9.70109247
_cell_angle_alpha   89.97286371
_cell_angle_beta   89.97286371
_cell_angle_gamma   60.98300394
_symmetry_Int_Tables_number   1
_chemical_formula_structural   Li4Ti7O16
_chemical_formula_sum   'Li4 Ti7 O16'
_cell_volume   290.28539293
_cell_formula_units_Z   1
loop_
 _symmetry_equiv_pos_site_id
 _symmetry_equiv_pos_as_xyz
  1  'x, y, z'
loop_
 _atom_site_type_symbol
 _atom_site_label
 _atom_site_symmetry_multiplicity
 _atom_site_fract_x
 _atom_site_fract_y
 _atom_site_fract_z
 _atom_site_occupancy
  Li  Li0  1  0.08974600  0.08974600  0.96105300  1
  Li  Li1  1  0.10761400  0.10761400  0.64390600  1
  Li  Li2  1  0.09507800  0.58876600  0.54355000  1
  Li  Li3  1  0.58876600  0.09507800  0.54355000  1
  Ti  Ti0  1  0.37501900  0.88996000  0.36709400  1
  Ti  Ti1  1  0.09781800  0.61075300  0.85736500  1
  Ti  Ti2  1  0.61075300  0.09781800  0.85736500  1
  Ti  Ti3  1  0.86765200  0.86765200  0.14524100  1
  Ti  Ti4  1  0.40424300  0.40424300  0.13294700  1
  Ti  Ti5  1  0.60537400  0.60537400  0.64177200  1
  Ti  Ti6  1  0.88996000  0.37501900  0.36709400  1
  O  O0  1  0.29125800  0.76336700  0.52977600  1
  O  O1  1  0.03423600  0.03423600  0.27877300  1
  O  O2  1  0.49721400  0.96053100  0.71850500  1
  O  O3  1  0.23169000  0.23169000  0.45483200  1
  O  O4  1  0.27773700  0.27773700  0.96386100  1
  O  O5  1  0.77006500  0.77006500  0.96936700  1
  O  O6  1  0.04326500  0.53374500  0.22576300  1
  O  O7  1  0.53374500  0.04326500  0.22576300  1
  O  O8  1  0.46279700  0.46279700  0.77302200  1
  O  O9  1  0.96664500  0.96664500  0.79554600  1
  O  O10  1  0.21758000  0.73040400  0.03940200  1
  O  O11  1  0.73040400  0.21758000  0.03940200  1
  O  O12  1  0.76336700  0.29125800  0.52977600  1
  O  O13  1  0.54323000  0.54323000  0.27122800  1
  O  O14  1  0.96053100  0.49721400  0.71850500  1
  O  O15  1  0.73215700  0.73215700  0.46441300  1
loop_
_geom_bond_atom_site_label_1
_geom_bond_atom_site_label_2
_geom_bond_distance
_geom_bond_site_symmetry_2
Li0 O4 1.895405 1_555
Li0 O10 2.007356 1_546
Li0 O11 2.007356 1_456
Li0 O9 2.029844 1_445
Li1 O9 2.044855 1_445
Li1 O0 2.082614 1_545
Li1 O12 2.082614 1_455
Li1 O14 2.134620 1_455
Li1 O2 2.134620 1_545
Li1 O3 2.219567 1_555
Li2 O0 1.874770 1_555
Li2 O15 2.018238 1_455
Li2 O3 2.030758 1_555
Li2 O14 2.047857 1_455
Li3 O12 1.874770 1_555
Li3 O15 2.018238 1_545
Li3 O3 2.030758 1_555
Li3 O2 2.047857 1_545
O0 Ti0 1.905072 1_555
O0 Ti5 1.940188 1_555
O1 Ti6 1.946543 1_455
O1 Ti0 1.946543 1_545
O1 Ti3 2.121509 1_445
O2 Ti2 1.849331 1_565
O2 Ti5 1.999102 1_555
O3 Ti0 1.948942 1_545
O3 Ti6 1.948942 1_455
O4 Ti1 1.994979 1_555
O4 Ti2 1.994979 1_555
O4 Ti4 2.078329 1_556
O5 Ti3 1.969957 1_556
O5 Ti2 1.997615 1_565
O5 Ti1 1.997615 1_655
O6 Ti3 1.879716 1_455
O6 Ti4 2.071333 1_555
O6 Ti6 2.086033 1_455
O7 Ti3 1.879716 1_545
O7 Ti4 2.071333 1_555
O7 Ti0 2.086033 1_545
O8 Ti5 1.919690 1_555
O8 Ti1 2.045270 1_555
O8 Ti2 2.045270 1_555
O9 Ti1 1.931839 1_655
O9 Ti2 1.931839 1_565
O10 Ti4 1.906357 1_555
O10 Ti3 2.072019 1_455
O10 Ti1 2.139465 1_554
O11 Ti4 1.906357 1_555
O11 Ti3 2.072019 1_545
O11 Ti2 2.139465 1_554
O12 Ti6 1.905072 1_555
O12 Ti5 1.940188 1_555
O13 Ti4 1.940336 1_555
O13 Ti6 2.002913 1_555
O13 Ti0 2.002913 1_555
O14 Ti1 1.849331 1_655
O14 Ti5 1.999102 1_555
O15 Ti0 2.058651 1_555
O15 Ti6 2.058651 1_555
O15 Ti5 2.142802 1_555
