# generated using pymatgen
data_Li2MnFe(PO4)2
_symmetry_space_group_name_H-M   'P 1'
_cell_length_a   4.77632558
_cell_length_b   10.52414647
_cell_length_c   6.12425738
_cell_angle_alpha   90.14447452
_cell_angle_beta   89.94975615
_cell_angle_gamma   89.98521310
_symmetry_Int_Tables_number   1
_chemical_formula_structural   Li2MnFe(PO4)2
_chemical_formula_sum   'Li4 Mn2 Fe2 P4 O16'
_cell_volume   307.84540736
_cell_formula_units_Z   2
loop_
 _symmetry_equiv_pos_site_id
 _symmetry_equiv_pos_as_xyz
  1  'x, y, z'
loop_
 _atom_site_type_symbol
 _atom_site_label
 _atom_site_symmetry_multiplicity
 _atom_site_fract_x
 _atom_site_fract_y
 _atom_site_fract_z
 _atom_site_occupancy
  Li  Li0  1  0.00028400  0.99760100  0.99889300  1
  Li  Li1  1  0.00018200  0.99672800  0.49945700  1
  Li  Li2  1  0.50123900  0.50335800  0.00067400  1
  Li  Li3  1  0.50204800  0.50334900  0.50043800  1
  Mn  Mn0  1  0.98045900  0.28129900  0.24998500  1
  Mn  Mn1  1  0.47961000  0.21912600  0.75020800  1
  Fe  Fe0  1  0.52731000  0.78077000  0.24809300  1
  Fe  Fe1  1  0.02643500  0.71909200  0.75132700  1
  P  P0  1  0.41400600  0.09004200  0.24963700  1
  P  P1  1  0.91402000  0.40953200  0.75048900  1
  P  P2  1  0.08523200  0.59618300  0.25216500  1
  P  P3  1  0.58346200  0.90391500  0.74785900  1
  O  O0  1  0.70847000  0.04035400  0.75126000  1
  O  O1  1  0.21064300  0.45978700  0.25040600  1
  O  O2  1  0.73571800  0.09420300  0.24949500  1
  O  O3  1  0.23564500  0.40533200  0.75055400  1
  O  O4  1  0.79187100  0.54661800  0.75043800  1
  O  O5  1  0.29168200  0.95303800  0.24828700  1
  O  O6  1  0.76324200  0.59811100  0.25120100  1
  O  O7  1  0.26143600  0.90194700  0.74927600  1
  O  O8  1  0.28081000  0.16036400  0.04858600  1
  O  O9  1  0.28068500  0.15959300  0.45216900  1
  O  O10  1  0.78120500  0.33946600  0.54859700  1
  O  O11  1  0.78038100  0.34009900  0.95228500  1
  O  O12  1  0.21713400  0.66708300  0.05069200  1
  O  O13  1  0.21605900  0.66563700  0.45567300  1
  O  O14  1  0.71478800  0.83528000  0.54369400  1
  O  O15  1  0.71594400  0.83209100  0.94816300  1
loop_
_geom_bond_atom_site_label_1
_geom_bond_atom_site_label_2
_geom_bond_distance
_geom_bond_site_symmetry_2
Li0 O0 2.109958 1_465
Li0 O5 2.120590 1_556
Li0 O8 2.195756 1_566
Li0 O7 2.212352 1_555
Li0 O2 2.230231 1_466
Li0 O15 2.230300 1_455
Li1 O5 2.123302 1_555
Li1 O0 2.126626 1_465
Li1 O9 2.195386 1_565
Li1 O14 2.195758 1_455
Li1 O7 2.214326 1_555
Li1 O2 2.236521 1_465
Li2 O1 2.115664 1_555
Li2 O4 2.117296 1_554
Li2 O11 2.193872 1_554
Li2 O12 2.213500 1_555
Li2 O6 2.216027 1_555
Li2 O3 2.239656 1_554
Li3 O4 2.113836 1_555
Li3 O1 2.119598 1_555
Li3 O10 2.200353 1_555
Li3 O13 2.204526 1_555
Li3 O6 2.210387 1_555
Li3 O3 2.243818 1_555
Mn0 O10 2.148464 1_555
Mn0 O11 2.151429 1_554
Mn0 O1 2.176769 1_655
Mn0 O8 2.277548 1_655
Mn0 O9 2.289157 1_655
Mn0 O2 2.290133 1_555
Mn1 O9 2.150460 1_555
Mn1 O8 2.150861 1_556
Mn1 O0 2.175705 1_555
Mn1 O3 2.279668 1_555
Mn1 O10 2.282385 1_555
Mn1 O11 2.283055 1_555
Fe0 O14 2.099078 1_555
Fe0 O15 2.116564 1_554
Fe0 O5 2.133639 1_555
Fe0 O6 2.228160 1_555
Fe0 O12 2.254916 1_555
Fe0 O13 2.302122 1_555
Fe1 O13 2.099287 1_555
Fe1 O12 2.120912 1_556
Fe1 O4 2.133301 1_455
Fe1 O7 2.228123 1_555
Fe1 O15 2.248430 1_455
Fe1 O14 2.310430 1_455
O0 P3 1.555336 1_545
O1 P2 1.555284 1_555
O2 P0 1.537236 1_555
O3 P1 1.536811 1_455
O4 P1 1.556076 1_555
O5 P0 1.555873 1_565
O6 P2 1.538074 1_655
O7 P3 1.538263 1_555
O8 P0 1.572974 1_555
O9 P0 1.572753 1_555
O10 P1 1.572246 1_555
O11 P1 1.572299 1_555
O12 P2 1.574684 1_555
O13 P2 1.573246 1_555
O14 P3 1.572398 1_555
O15 P3 1.575559 1_555
