# generated using pymatgen
data_Sr2Li2Nb3O10
_symmetry_space_group_name_H-M   'P 1'
_cell_length_a   13.60919984
_cell_length_b   13.60884620
_cell_length_c   4.03692794
_cell_angle_alpha   81.47549519
_cell_angle_beta   81.46556773
_cell_angle_gamma   17.05893708
_symmetry_Int_Tables_number   1
_chemical_formula_structural   Sr2Li2Nb3O10
_chemical_formula_sum   'Sr2 Li2 Nb3 O10'
_cell_volume   216.84959241
_cell_formula_units_Z   1
loop_
 _symmetry_equiv_pos_site_id
 _symmetry_equiv_pos_as_xyz
  1  'x, y, z'
loop_
 _atom_site_type_symbol
 _atom_site_label
 _atom_site_symmetry_multiplicity
 _atom_site_fract_x
 _atom_site_fract_y
 _atom_site_fract_z
 _atom_site_occupancy
  Sr  Sr0  1  0.41675100  0.41849000  0.58151000  1
  Sr  Sr1  1  0.58151000  0.58324900  0.41675100  1
  Li  Li0  1  0.74998400  0.75001600  0.74998400  1
  Li  Li1  1  0.24998400  0.25001600  0.24998400  1
  Nb  Nb0  1  0.98599500  0.01400500  0.98599500  1
  Nb  Nb1  1  0.15787800  0.15719100  0.84280900  1
  Nb  Nb2  1  0.84280900  0.84212200  0.15787800  1
  O  O0  1  0.07040700  0.08195500  0.91804500  1
  O  O1  1  0.64821400  0.65013200  0.85055500  1
  O  O2  1  0.22841000  0.22938300  0.77061700  1
  O  O3  1  0.85055500  0.85109900  0.64821400  1
  O  O4  1  0.77061700  0.77159000  0.22841000  1
  O  O5  1  0.91804500  0.92959300  0.07040700  1
  O  O6  1  0.48624700  0.51375300  0.97872400  1
  O  O7  1  0.14890100  0.14944500  0.34986800  1
  O  O8  1  0.97872400  0.02127600  0.48624700  1
  O  O9  1  0.34986800  0.35178600  0.14890100  1
loop_
_geom_bond_atom_site_label_1
_geom_bond_atom_site_label_2
_geom_bond_distance
_geom_bond_site_symmetry_2
Li0 O4 2.093310 1_556
Li0 O2 2.093310 1_655
Li0 O4 2.096972 1_555
Li0 O2 2.096972 1_565
Li1 O2 2.093310 1_555
Li1 O4 2.093310 1_545
Li1 O2 2.096972 1_554
Li1 O4 2.096972 1_455
Nb0 O6 2.017678 1_555
Nb0 O8 2.017678 1_555
Nb0 O8 2.019677 1_556
Nb0 O6 2.019677 1_645
Nb0 O5 2.027916 1_546
Nb0 O0 2.027916 1_655
Nb1 O2 1.899132 1_555
Nb1 O7 2.025466 1_556
Nb1 O1 2.025466 1_545
Nb1 O1 2.035922 1_455
Nb1 O7 2.035922 1_555
Nb1 O0 2.165307 1_555
Nb2 O4 1.899132 1_555
Nb2 O9 2.025466 1_655
Nb2 O3 2.025466 1_555
Nb2 O3 2.035922 1_554
Nb2 O9 2.035922 1_565
Nb2 O5 2.165307 1_555
O0 Sr1 2.832182 1_455
O0 Sr1 2.858597 1_545
O0 Sr1 2.858597 1_456
O0 Sr1 2.888105 1_546
O1 Sr1 2.687775 1_556
O1 Sr1 2.691395 1_555
O3 Sr0 2.687775 1_655
O3 Sr0 2.691395 1_565
O5 Sr0 2.832182 1_564
O5 Sr0 2.858597 1_654
O5 Sr0 2.858597 1_565
O5 Sr0 2.888105 1_655
O6 Sr0 2.925289 1_555
O6 Sr1 2.925289 1_555
O6 Sr0 3.036888 1_556
O6 Sr1 3.036888 1_556
O7 Sr1 2.687775 1_545
O7 Sr1 2.691395 1_455
O8 Sr0 2.925289 1_555
O8 Sr1 2.925289 1_555
O8 Sr0 3.036888 1_645
O8 Sr1 3.036888 1_645
O9 Sr0 2.687775 1_555
O9 Sr0 2.691395 1_554
