# generated using pymatgen
data_Li3CuAsCO7
_symmetry_space_group_name_H-M   'P 1'
_cell_length_a   6.44072800
_cell_length_b   5.15793800
_cell_length_c   8.58423579
_cell_angle_alpha   85.29606532
_cell_angle_beta   90.00000000
_cell_angle_gamma   90.00000000
_symmetry_Int_Tables_number   1
_chemical_formula_structural   Li3CuAsCO7
_chemical_formula_sum   'Li6 Cu2 As2 C2 O14'
_cell_volume   284.21528873
_cell_formula_units_Z   2
loop_
 _symmetry_equiv_pos_site_id
 _symmetry_equiv_pos_as_xyz
  1  'x, y, z'
loop_
 _atom_site_type_symbol
 _atom_site_label
 _atom_site_symmetry_multiplicity
 _atom_site_fract_x
 _atom_site_fract_y
 _atom_site_fract_z
 _atom_site_occupancy
  Li  Li0  1  0.75000000  0.23692100  0.92170400  1
  Li  Li1  1  0.98647200  0.77870400  0.72984400  1
  Li  Li2  1  0.51352800  0.77870400  0.72984400  1
  Li  Li3  1  0.48647200  0.22129600  0.27015600  1
  Li  Li4  1  0.01352800  0.22129600  0.27015600  1
  Li  Li5  1  0.25000000  0.76307900  0.07829600  1
  Cu  Cu0  1  0.25000000  0.22328600  0.67372800  1
  Cu  Cu1  1  0.75000000  0.77671400  0.32627200  1
  As  As0  1  0.75000000  0.30701200  0.57989300  1
  As  As1  1  0.25000000  0.69298800  0.42010700  1
  C  C0  1  0.25000000  0.30914400  0.97701900  1
  C  C1  1  0.75000000  0.69085600  0.02298100  1
  O  O0  1  0.75000000  0.69439900  0.87152900  1
  O  O1  1  0.25000000  0.08805900  0.91200900  1
  O  O2  1  0.25000000  0.52711200  0.89378400  1
  O  O3  1  0.95048500  0.19546300  0.70229500  1
  O  O4  1  0.54951500  0.19546300  0.70229500  1
  O  O5  1  0.75000000  0.64549600  0.55532000  1
  O  O6  1  0.25000000  0.80115800  0.60174500  1
  O  O7  1  0.75000000  0.19884200  0.39825500  1
  O  O8  1  0.25000000  0.35450400  0.44468000  1
  O  O9  1  0.45048500  0.80453700  0.29770500  1
  O  O10  1  0.04951500  0.80453700  0.29770500  1
  O  O11  1  0.75000000  0.47288800  0.10621600  1
  O  O12  1  0.75000000  0.91194100  0.08799100  1
  O  O13  1  0.25000000  0.30560100  0.12847100  1
loop_
_geom_bond_atom_site_label_1
_geom_bond_atom_site_label_2
_geom_bond_distance
_geom_bond_site_symmetry_2
Li0 O11 2.075149 1_556
Li0 O12 2.110663 1_546
Li0 O3 2.307938 1_555
Li0 O4 2.307938 1_555
Li0 O0 2.363628 1_555
Li1 O0 1.975174 1_555
Li1 O6 2.020541 1_655
Li1 O3 2.155719 1_565
Li1 O5 2.281460 1_555
Li1 O2 2.499169 1_655
Li2 O0 1.975174 1_555
Li2 O6 2.020541 1_555
Li2 O4 2.155719 1_565
Li2 O5 2.281460 1_555
Li2 O2 2.499169 1_555
Li3 O13 1.975174 1_555
Li3 O7 2.020541 1_555
Li3 O9 2.155719 1_545
Li3 O8 2.281460 1_555
Li3 O11 2.499169 1_555
Li4 O13 1.975174 1_555
Li4 O7 2.020541 1_455
Li4 O10 2.155719 1_545
Li4 O8 2.281460 1_555
Li4 O11 2.499169 1_455
Li5 O2 2.075149 1_554
Li5 O1 2.110663 1_564
Li5 O9 2.307938 1_555
Li5 O10 2.307938 1_555
Li5 O13 2.363628 1_555
Cu0 O3 1.948426 1_455
Cu0 O4 1.948426 1_555
Cu0 O8 2.026269 1_555
Cu0 O1 2.106278 1_555
Cu0 O6 2.311529 1_545
Cu0 O2 2.551421 1_555
Cu1 O10 1.948426 1_655
Cu1 O9 1.948426 1_555
Cu1 O5 2.026269 1_555
Cu1 O12 2.106278 1_555
Cu1 O7 2.311529 1_565
Cu1 O11 2.551421 1_555
As0 O7 1.698573 1_555
As0 O3 1.733001 1_555
As0 O4 1.733001 1_555
As0 O5 1.741318 1_555
As1 O6 1.698573 1_555
As1 O10 1.733001 1_555
As1 O9 1.733001 1_555
As1 O8 1.741318 1_555
C0 O2 1.281696 1_555
C0 O13 1.298729 1_556
C0 O1 1.310034 1_555
C1 O11 1.281696 1_555
C1 O0 1.298729 1_554
C1 O12 1.310034 1_555
