# generated using pymatgen
data_Li4AlCr3O8
_symmetry_space_group_name_H-M   'P 1'
_cell_length_a   5.10998200
_cell_length_b   7.75798252
_cell_length_c   7.76484246
_cell_angle_alpha   81.76656288
_cell_angle_beta   71.03584347
_cell_angle_gamma   83.80274951
_symmetry_Int_Tables_number   1
_chemical_formula_structural   Li4AlCr3O8
_chemical_formula_sum   'Li8 Al2 Cr6 O16'
_cell_volume   287.49340239
_cell_formula_units_Z   2
loop_
 _symmetry_equiv_pos_site_id
 _symmetry_equiv_pos_as_xyz
  1  'x, y, z'
loop_
 _atom_site_type_symbol
 _atom_site_label
 _atom_site_symmetry_multiplicity
 _atom_site_fract_x
 _atom_site_fract_y
 _atom_site_fract_z
 _atom_site_occupancy
  Li  Li0  1  0.00000000  0.00000000  0.00000000  1
  Li  Li1  1  0.99954200  0.25064000  0.25108300  1
  Li  Li2  1  0.99963000  0.62477000  0.12630100  1
  Li  Li3  1  0.00003500  0.12586400  0.62457400  1
  Li  Li4  1  0.00000000  0.50000000  0.50000000  1
  Li  Li5  1  0.99996500  0.87413600  0.37542600  1
  Li  Li6  1  0.00037000  0.37523000  0.87369900  1
  Li  Li7  1  0.00045800  0.74936000  0.74891700  1
  Al  Al0  1  0.49998600  0.31452100  0.56167100  1
  Al  Al1  1  0.50001400  0.68547900  0.43832900  1
  Cr  Cr0  1  0.50024300  0.06152100  0.31446100  1
  Cr  Cr1  1  0.50062700  0.43784000  0.19060000  1
  Cr  Cr2  1  0.50036000  0.81161700  0.06428500  1
  Cr  Cr3  1  0.49964000  0.18838300  0.93571500  1
  Cr  Cr4  1  0.49937300  0.56216000  0.80940000  1
  Cr  Cr5  1  0.49975700  0.93847900  0.68553900  1
  O  O0  1  0.27268900  0.03059600  0.15180000  1
  O  O1  1  0.72696300  0.21945600  0.09876300  1
  O  O2  1  0.27275800  0.40609800  0.02729500  1
  O  O3  1  0.72187100  0.10405900  0.47597300  1
  O  O4  1  0.28005100  0.28088300  0.40831100  1
  O  O5  1  0.27975200  0.65626600  0.28365900  1
  O  O6  1  0.71716200  0.47175000  0.35851300  1
  O  O7  1  0.27830600  0.16231700  0.76786500  1
  O  O8  1  0.28283800  0.52825000  0.64148700  1
  O  O9  1  0.72169400  0.83768300  0.23213500  1
  O  O10  1  0.72024800  0.34373400  0.71634100  1
  O  O11  1  0.27812900  0.89594100  0.52402700  1
  O  O12  1  0.71994900  0.71911700  0.59168900  1
  O  O13  1  0.27303700  0.78054400  0.90123700  1
  O  O14  1  0.72724200  0.59390200  0.97270500  1
  O  O15  1  0.72731100  0.96940400  0.84820000  1
loop_
_geom_bond_atom_site_label_1
_geom_bond_atom_site_label_2
_geom_bond_distance
_geom_bond_site_symmetry_2
Li0 O1 2.144534 1_455
Li0 O13 2.144534 1_544
Li0 O0 2.146253 1_555
Li0 O15 2.146253 1_444
Li0 O9 2.219828 1_445
Li0 O7 2.219828 1_554
Li1 O3 2.127198 1_555
Li1 O2 2.147028 1_655
Li1 O0 2.149374 1_655
Li1 O1 2.150104 1_555
Li1 O6 2.193981 1_555
Li1 O4 2.211830 1_655
Li2 O9 2.131782 1_555
Li2 O2 2.140525 1_655
Li2 O13 2.153869 1_654
Li2 O14 2.156353 1_554
Li2 O6 2.192977 1_555
Li2 O5 2.213457 1_655
Li3 O4 2.131905 1_555
Li3 O7 2.131934 1_555
Li3 O3 2.134069 1_455
Li3 O10 2.137699 1_455
Li3 O15 2.149277 1_445
Li3 O11 2.222872 1_545
Li4 O8 2.124444 1_555
Li4 O6 2.124444 1_455
Li4 O10 2.136642 1_455
Li4 O5 2.136642 1_555
Li4 O4 2.145620 1_555
Li4 O12 2.145620 1_455
Li5 O12 2.131905 1_555
Li5 O9 2.131934 1_555
Li5 O11 2.134069 1_655
Li5 O5 2.137699 1_655
Li5 O0 2.149277 1_665
Li5 O3 2.222872 1_565
Li6 O7 2.131782 1_555
Li6 O14 2.140525 1_455
Li6 O1 2.153869 1_456
Li6 O2 2.156353 1_556
Li6 O8 2.192977 1_555
Li6 O10 2.213457 1_455
Li7 O11 2.127198 1_555
Li7 O14 2.147028 1_455
Li7 O15 2.149374 1_455
Li7 O13 2.150104 1_555
Li7 O8 2.193981 1_555
Li7 O12 2.211830 1_455
Al0 O4 1.942005 1_555
Al0 O10 1.942208 1_555
Al0 O7 1.951769 1_555
Al0 O6 1.952237 1_555
Al0 O8 1.953151 1_555
Al0 O3 1.953300 1_555
Al1 O12 1.942005 1_555
Al1 O5 1.942208 1_555
Al1 O9 1.951769 1_555
Al1 O8 1.952237 1_555
Al1 O6 1.953151 1_555
Al1 O11 1.953300 1_555
Cr0 O3 2.021549 1_555
Cr0 O11 2.025326 1_545
Cr0 O4 2.025356 1_555
Cr0 O1 2.026370 1_555
Cr0 O0 2.026449 1_555
Cr0 O9 2.031805 1_545
Cr1 O5 2.018712 1_555
Cr1 O4 2.019714 1_555
Cr1 O6 2.022923 1_555
Cr1 O1 2.025702 1_555
Cr1 O14 2.027806 1_554
Cr1 O2 2.033571 1_555
Cr2 O5 2.020444 1_555
Cr2 O14 2.021879 1_554
Cr2 O0 2.022720 1_565
Cr2 O9 2.025265 1_555
Cr2 O15 2.027843 1_554
Cr2 O13 2.028313 1_554
Cr3 O10 2.020444 1_555
Cr3 O2 2.021879 1_556
Cr3 O15 2.022720 1_545
Cr3 O7 2.025265 1_555
Cr3 O0 2.027843 1_556
Cr3 O1 2.028313 1_556
Cr4 O10 2.018712 1_555
Cr4 O12 2.019714 1_555
Cr4 O8 2.022923 1_555
Cr4 O13 2.025702 1_555
Cr4 O2 2.027806 1_556
Cr4 O14 2.033571 1_555
Cr5 O11 2.021549 1_555
Cr5 O3 2.025326 1_565
Cr5 O12 2.025356 1_555
Cr5 O13 2.026370 1_555
Cr5 O15 2.026449 1_555
Cr5 O7 2.031805 1_565
