# generated using pymatgen
data_Co5Te3O16
_symmetry_space_group_name_H-M   'P 1'
_cell_length_a   5.95464358
_cell_length_b   5.95464358
_cell_length_c   8.95469737
_cell_angle_alpha   89.23156460
_cell_angle_beta   89.23156460
_cell_angle_gamma   60.23542177
_symmetry_Int_Tables_number   1
_chemical_formula_structural   Co5Te3O16
_chemical_formula_sum   'Co5 Te3 O16'
_cell_volume   275.59178273
_cell_formula_units_Z   1
loop_
 _symmetry_equiv_pos_site_id
 _symmetry_equiv_pos_as_xyz
  1  'x, y, z'
loop_
 _atom_site_type_symbol
 _atom_site_label
 _atom_site_symmetry_multiplicity
 _atom_site_fract_x
 _atom_site_fract_y
 _atom_site_fract_z
 _atom_site_occupancy
  Co  Co0  1  0.68272000  0.68272000  0.49345300  1
  Co  Co1  1  0.82982200  0.82982200  0.79621800  1
  Co  Co2  1  0.34823700  0.34823700  0.02754500  1
  Co  Co3  1  0.16907400  0.66071700  0.28539500  1
  Co  Co4  1  0.66071700  0.16907400  0.28539500  1
  Te  Te0  1  0.33381700  0.82816900  0.78927900  1
  Te  Te1  1  0.82816900  0.33381700  0.78927900  1
  Te  Te2  1  0.16371900  0.16371900  0.28857900  1
  O  O0  1  0.32648900  0.83408000  0.39387200  1
  O  O1  1  0.51224200  0.51224200  0.66123700  1
  O  O2  1  0.65299800  0.65299800  0.91492900  1
  O  O3  1  0.00506300  0.00506300  0.67570500  1
  O  O4  1  0.99826600  0.99826600  0.18126100  1
  O  O5  1  0.83408000  0.32648900  0.39387200  1
  O  O6  1  0.50728900  0.95646200  0.66590500  1
  O  O7  1  0.95646200  0.50728900  0.66590500  1
  O  O8  1  0.16344900  0.16344900  0.90441800  1
  O  O9  1  0.83633500  0.83633500  0.38918600  1
  O  O10  1  0.05508900  0.48140800  0.15588000  1
  O  O11  1  0.48140800  0.05508900  0.15588000  1
  O  O12  1  0.33260100  0.33260100  0.39641700  1
  O  O13  1  0.17491500  0.66920100  0.90229900  1
  O  O14  1  0.47740700  0.47740700  0.16843800  1
  O  O15  1  0.66920100  0.17491500  0.90229900  1
loop_
_geom_bond_atom_site_label_1
_geom_bond_atom_site_label_2
_geom_bond_distance
_geom_bond_site_symmetry_2
Co0 O9 1.824865 1_555
Co0 O5 2.058653 1_555
Co0 O0 2.058653 1_555
Co0 O6 2.113431 1_555
Co0 O7 2.113431 1_555
Co0 O1 2.293406 1_555
Co1 O15 2.028883 1_565
Co1 O13 2.028883 1_655
Co1 O6 2.053648 1_555
Co1 O7 2.053648 1_555
Co1 O3 2.088797 1_665
Co1 O2 2.094759 1_555
Co2 O14 1.847821 1_555
Co2 O10 1.895482 1_555
Co2 O11 1.895482 1_555
Co2 O15 1.997722 1_554
Co2 O13 1.997722 1_554
Co2 O8 2.214587 1_554
Co3 O14 1.910120 1_555
Co3 O10 1.928639 1_555
Co3 O9 1.950019 1_455
Co3 O12 1.959297 1_555
Co3 O4 1.972167 1_455
Co3 O0 1.974827 1_555
Co4 O14 1.910120 1_555
Co4 O11 1.928639 1_555
Co4 O9 1.950019 1_545
Co4 O12 1.959297 1_555
Co4 O4 1.972167 1_545
Co4 O5 1.974827 1_555
O0 Te2 1.940942 1_565
O1 Te1 2.005788 1_555
O1 Te0 2.005788 1_555
O2 Te1 2.005948 1_555
O2 Te0 2.005948 1_555
O3 Te1 1.988324 1_455
O3 Te0 1.988324 1_545
O4 Te2 1.969602 1_665
O5 Te2 1.940942 1_655
O6 Te0 1.897736 1_555
O7 Te1 1.897736 1_555
O8 Te0 2.023441 1_545
O8 Te1 2.023441 1_455
O10 Te2 2.038240 1_555
O11 Te2 2.038240 1_555
O12 Te2 2.002815 1_555
O13 Te0 1.911420 1_555
O15 Te1 1.911420 1_555
