# generated using pymatgen
data_Fe4O3F5
_symmetry_space_group_name_H-M   'P 1'
_cell_length_a   7.80288721
_cell_length_b   7.80288721
_cell_length_c   6.54478796
_cell_angle_alpha   65.61696093
_cell_angle_beta   65.61696093
_cell_angle_gamma   53.67634533
_symmetry_Int_Tables_number   1
_chemical_formula_structural   Fe4O3F5
_chemical_formula_sum   'Fe8 O6 F10'
_cell_volume   284.61923203
_cell_formula_units_Z   2
loop_
 _symmetry_equiv_pos_site_id
 _symmetry_equiv_pos_as_xyz
  1  'x, y, z'
loop_
 _atom_site_type_symbol
 _atom_site_label
 _atom_site_symmetry_multiplicity
 _atom_site_fract_x
 _atom_site_fract_y
 _atom_site_fract_z
 _atom_site_occupancy
  Fe  Fe0  1  0.12720300  0.12720300  0.87841200  1
  Fe  Fe1  1  0.62248500  0.62248500  0.40449500  1
  Fe  Fe2  1  0.37751500  0.37751500  0.59550500  1
  Fe  Fe3  1  0.00000000  0.00000000  0.50000000  1
  Fe  Fe4  1  0.50000000  0.50000000  0.00000000  1
  Fe  Fe5  1  0.75747200  0.75747200  0.73164500  1
  Fe  Fe6  1  0.24252800  0.24252800  0.26835500  1
  Fe  Fe7  1  0.87279700  0.87279700  0.12158800  1
  O  O0  1  0.12451100  0.12451100  0.58145500  1
  O  O1  1  0.62422200  0.62422200  0.70719500  1
  O  O2  1  0.12572100  0.12572100  0.17576700  1
  O  O3  1  0.87427900  0.87427900  0.82423300  1
  O  O4  1  0.37577800  0.37577800  0.29280500  1
  O  O5  1  0.87548900  0.87548900  0.41854500  1
  F  F0  1  0.29478600  0.70521400  0.50000000  1
  F  F1  1  0.70521400  0.29478600  0.50000000  1
  F  F2  1  0.44497600  0.04850500  0.75778400  1
  F  F3  1  0.19254000  0.80746000  0.00000000  1
  F  F4  1  0.62346300  0.62346300  0.08613000  1
  F  F5  1  0.37653700  0.37653700  0.91387000  1
  F  F6  1  0.04850500  0.44497600  0.75778400  1
  F  F7  1  0.80746000  0.19254000  0.00000000  1
  F  F8  1  0.55502400  0.95149500  0.24221600  1
  F  F9  1  0.95149500  0.55502400  0.24221600  1
loop_
_geom_bond_atom_site_label_1
_geom_bond_atom_site_label_2
_geom_bond_distance
_geom_bond_site_symmetry_2
Fe0 O2 1.936664 1_556
Fe0 O0 1.961146 1_555
Fe1 O1 1.992414 1_555
Fe2 O4 1.992414 1_555
Fe3 O3 2.032290 1_445
Fe3 O2 2.032290 1_555
Fe3 O0 2.036055 1_555
Fe3 O5 2.036055 1_445
Fe4 O4 1.896608 1_555
Fe4 O1 1.896608 1_554
Fe5 O1 1.934725 1_555
Fe5 O5 1.945155 1_555
Fe5 O3 1.981106 1_555
Fe6 O4 1.934725 1_555
Fe6 O0 1.945155 1_555
Fe6 O2 1.981106 1_555
Fe7 O3 1.936664 1_554
Fe7 O5 1.961146 1_555
F0 Fe3 2.076936 1_565
F0 Fe1 2.098496 1_555
F0 Fe2 2.098496 1_555
F1 Fe3 2.076936 1_655
F1 Fe1 2.098496 1_555
F1 Fe2 2.098496 1_555
F2 Fe0 2.031913 1_555
F2 Fe5 2.132664 1_545
F2 Fe2 2.145960 1_555
F3 Fe7 2.075238 1_455
F3 Fe0 2.075238 1_564
F3 Fe4 2.166232 1_555
F4 Fe4 2.042099 1_555
F4 Fe1 2.077366 1_555
F4 Fe5 2.204223 1_554
F5 Fe4 2.042099 1_556
F5 Fe2 2.077366 1_555
F5 Fe6 2.204223 1_556
F6 Fe0 2.031913 1_555
F6 Fe5 2.132664 1_455
F6 Fe2 2.145960 1_555
F7 Fe7 2.075238 1_545
F7 Fe0 2.075238 1_654
F7 Fe4 2.166232 1_555
F8 Fe7 2.031913 1_555
F8 Fe6 2.132664 1_565
F8 Fe1 2.145960 1_555
F9 Fe7 2.031913 1_555
F9 Fe6 2.132664 1_655
F9 Fe1 2.145960 1_555
