# generated using pymatgen
data_LiNiH12(SO7)2
_symmetry_space_group_name_H-M   'P 1'
_cell_length_a   11.52373500
_cell_length_b   5.89845400
_cell_length_c   8.70726622
_cell_angle_alpha   76.19099015
_cell_angle_beta   90.00000000
_cell_angle_gamma   90.00000000
_symmetry_Int_Tables_number   1
_chemical_formula_structural   LiNiH12(SO7)2
_chemical_formula_sum   'Li2 Ni2 H24 S4 O28'
_cell_volume   574.74577430
_cell_formula_units_Z   2
loop_
 _symmetry_equiv_pos_site_id
 _symmetry_equiv_pos_as_xyz
  1  'x, y, z'
loop_
 _atom_site_type_symbol
 _atom_site_label
 _atom_site_symmetry_multiplicity
 _atom_site_fract_x
 _atom_site_fract_y
 _atom_site_fract_z
 _atom_site_occupancy
  Li  Li0  1  0.12416200  0.65328900  0.38515300  1
  Li  Li1  1  0.62416200  0.34671100  0.61484700  1
  Ni  Ni0  1  0.00107600  0.99750500  0.75035700  1
  Ni  Ni1  1  0.50107600  0.00249500  0.24964300  1
  H  H0  1  0.80793800  0.01621900  0.87794100  1
  H  H1  1  0.85490100  0.66974300  0.78314300  1
  H  H2  1  0.05816500  0.31608300  0.86574200  1
  H  H3  1  0.40031400  0.06566900  0.98092100  1
  H  H4  1  0.62691800  0.08939700  0.99246300  1
  H  H5  1  0.09185000  0.67216600  0.96395500  1
  H  H6  1  0.59185000  0.32783400  0.03604500  1
  H  H7  1  0.12691800  0.91060300  0.00753700  1
  H  H8  1  0.90031400  0.93433100  0.01907900  1
  H  H9  1  0.55816500  0.68391700  0.13425800  1
  H  H10  1  0.35490100  0.33025700  0.21685700  1
  H  H11  1  0.30793800  0.98378100  0.12205900  1
  H  H12  1  0.69426800  0.01932100  0.38620200  1
  H  H13  1  0.64659700  0.67498800  0.28431500  1
  H  H14  1  0.44788300  0.31896400  0.36327800  1
  H  H15  1  0.09743300  0.07830300  0.48038300  1
  H  H16  1  0.87142400  0.09019800  0.49641500  1
  H  H17  1  0.41593600  0.67437900  0.46363300  1
  H  H18  1  0.91593600  0.32562100  0.53636700  1
  H  H19  1  0.37142400  0.90980200  0.50358500  1
  H  H20  1  0.59743300  0.92169700  0.51961700  1
  H  H21  1  0.94788300  0.68103600  0.63672200  1
  H  H22  1  0.14659700  0.32501200  0.71568500  1
  H  H23  1  0.19426800  0.98067900  0.61379800  1
  S  S0  1  0.63440700  0.72640600  0.82436800  1
  S  S1  1  0.13440700  0.27359400  0.17563200  1
  S  S2  1  0.86570900  0.72686800  0.34141000  1
  S  S3  1  0.36570900  0.27313200  0.65859000  1
  O  O0  1  0.42067900  0.24704900  0.81365400  1
  O  O1  1  0.94023300  0.70872100  0.74653600  1
  O  O2  1  0.88899500  0.04117400  0.91121500  1
  O  O3  1  0.73867200  0.57605900  0.82365700  1
  O  O4  1  0.66948900  0.97087400  0.82998400  1
  O  O5  1  0.11601800  0.83672400  0.91754000  1
  O  O6  1  0.56308700  0.62126300  0.96567700  1
  O  O7  1  0.06308700  0.37873700  0.03432300  1
  O  O8  1  0.61601800  0.16327600  0.08246000  1
  O  O9  1  0.16948900  0.02912600  0.17001600  1
  O  O10  1  0.23867200  0.42394100  0.17634300  1
  O  O11  1  0.38899500  0.95882600  0.08878500  1
  O  O12  1  0.44023300  0.29127900  0.25346400  1
  O  O13  1  0.92067900  0.75295100  0.18634600  1
  O  O14  1  0.06787300  0.26682300  0.32244300  1
  O  O15  1  0.56386500  0.71215700  0.24447600  1
  O  O16  1  0.61206900  0.04542900  0.41840700  1
  O  O17  1  0.76372200  0.56699200  0.36527500  1
  O  O18  1  0.82843500  0.95697200  0.36749900  1
  O  O19  1  0.38508200  0.83194500  0.41432200  1
  O  O20  1  0.95698000  0.62325900  0.46483400  1
  O  O21  1  0.45698000  0.37674100  0.53516600  1
  O  O22  1  0.88508200  0.16805500  0.58567800  1
  O  O23  1  0.32843500  0.04302800  0.63250100  1
  O  O24  1  0.26372200  0.43300800  0.63472500  1
  O  O25  1  0.11206900  0.95457100  0.58159300  1
  O  O26  1  0.06386500  0.28784300  0.75552400  1
  O  O27  1  0.56787300  0.73317700  0.67755700  1
loop_
_geom_bond_atom_site_label_1
_geom_bond_atom_site_label_2
_geom_bond_distance
_geom_bond_site_symmetry_2
Li0 O20 2.041007 1_455
Li0 O14 2.551364 1_555
Li1 O21 2.041007 1_555
Li1 O27 2.551364 1_555
Ni0 O1 1.849664 1_455
Ni0 O26 1.869535 1_565
Ni0 O2 1.966864 1_465
Ni0 O25 2.009256 1_555
Ni0 O5 2.028276 1_555
Ni0 O22 2.041128 1_465
Ni1 O12 1.849664 1_555
Ni1 O15 1.869535 1_545
Ni1 O11 1.966864 1_545
Ni1 O16 2.009256 1_555
Ni1 O8 2.028276 1_555
Ni1 O19 2.041128 1_545
H0 O2 0.999235 1_555
H1 O1 1.042324 1_555
H1 O3 1.459697 1_555
H2 O26 1.014590 1_555
H2 O7 1.597944 1_556
H3 O11 1.006837 1_546
H3 O0 1.605321 1_555
H4 O8 0.991343 1_556
H5 O5 0.997885 1_555
H5 O7 1.724712 1_556
H6 O8 0.997885 1_555
H6 O6 1.724712 1_554
H7 O5 0.991343 1_554
H8 O2 1.006837 1_564
H8 O13 1.605321 1_555
H9 O15 1.014590 1_555
H9 O6 1.597944 1_554
H10 O12 1.042324 1_555
H10 O10 1.459697 1_555
H11 O11 0.999235 1_555
H12 O16 1.010062 1_555
H12 O18 1.606487 1_545
H13 O15 1.020308 1_555
H13 O17 1.584327 1_555
H14 O12 1.011561 1_555
H14 O21 1.615752 1_555
H15 O25 1.015228 1_545
H15 O14 1.585486 1_555
H16 O22 1.005066 1_555
H16 O18 1.595007 1_545
H17 O19 0.991995 1_555
H18 O22 0.991995 1_555
H19 O19 1.005066 1_555
H19 O23 1.595007 1_565
H20 O16 1.015228 1_565
H20 O27 1.585486 1_555
H21 O1 1.011561 1_555
H21 O20 1.615752 1_555
H22 O26 1.020308 1_555
H22 O24 1.584327 1_555
H23 O25 1.010062 1_555
H23 O23 1.606487 1_565
O0 S3 1.465870 1_555
O3 S0 1.494241 1_555
O4 S0 1.509572 1_555
O6 S0 1.486522 1_555
O7 S1 1.486522 1_555
O9 S1 1.509572 1_555
O10 S1 1.494241 1_555
O13 S2 1.465870 1_555
O14 S1 1.482967 1_555
O17 S2 1.490029 1_555
O18 S2 1.491790 1_555
O20 S2 1.523533 1_555
O21 S3 1.523533 1_555
O23 S3 1.491790 1_555
O24 S3 1.490029 1_555
O27 S0 1.482967 1_555
