# generated using pymatgen
data_LiNb(TeO4)3
_symmetry_space_group_name_H-M   'P 1'
_cell_length_a   5.15627600
_cell_length_b   5.37719795
_cell_length_c   7.45862969
_cell_angle_alpha   86.94777513
_cell_angle_beta   89.99483014
_cell_angle_gamma   89.92228005
_symmetry_Int_Tables_number   1
_chemical_formula_structural   LiNb(TeO4)3
_chemical_formula_sum   'Li1 Nb1 Te3 O12'
_cell_volume   206.50677554
_cell_formula_units_Z   1
loop_
 _symmetry_equiv_pos_site_id
 _symmetry_equiv_pos_as_xyz
  1  'x, y, z'
loop_
 _atom_site_type_symbol
 _atom_site_label
 _atom_site_symmetry_multiplicity
 _atom_site_fract_x
 _atom_site_fract_y
 _atom_site_fract_z
 _atom_site_occupancy
  Li  Li0  1  0.00229200  0.46087500  0.22696800  1
  Nb  Nb0  1  0.99730700  0.00777800  0.99482800  1
  Te  Te0  1  0.49614500  0.50881300  0.99939000  1
  Te  Te1  1  0.99973100  0.00267400  0.50419600  1
  Te  Te2  1  0.50223500  0.50685500  0.50693300  1
  O  O0  1  0.68927700  0.19702400  0.57058900  1
  O  O1  1  0.89333100  0.01509700  0.26046900  1
  O  O2  1  0.68481300  0.81203200  0.95182600  1
  O  O3  1  0.81388500  0.69222800  0.56799700  1
  O  O4  1  0.19388100  0.69072200  0.06573700  1
  O  O5  1  0.62852400  0.50859400  0.25665000  1
  O  O6  1  0.37005500  0.50752700  0.75062100  1
  O  O7  1  0.80609100  0.32692100  0.95735300  1
  O  O8  1  0.19033600  0.31842800  0.43818000  1
  O  O9  1  0.30593300  0.21143200  0.06023300  1
  O  O10  1  0.11800800  0.00870700  0.74534500  1
  O  O11  1  0.30815700  0.80989000  0.43548400  1
loop_
_geom_bond_atom_site_label_1
_geom_bond_atom_site_label_2
_geom_bond_distance
_geom_bond_site_symmetry_2
Li0 O4 1.947928 1_555
Li0 O5 1.958004 1_455
Li0 O8 1.969349 1_555
Li0 O7 2.396424 1_454
Li0 O9 2.443060 1_555
Li0 O1 2.462462 1_455
Nb0 O2 1.961559 1_545
Nb0 O10 1.961825 1_655
Nb0 O7 1.984845 1_555
Nb0 O9 2.007831 1_656
Nb0 O4 2.028068 1_646
Nb0 O1 2.054911 1_556
O0 Te2 1.960277 1_555
O0 Te1 1.987541 1_555
O1 Te1 1.896642 1_555
O2 Te0 1.916589 1_555
O3 Te2 1.958608 1_555
O3 Te1 1.962412 1_565
O4 Te0 1.917825 1_554
O5 Te2 1.976584 1_555
O5 Te0 2.036599 1_554
O6 Te2 1.941287 1_555
O6 Te0 1.966504 1_555
O7 Te0 1.907194 1_555
O8 Te2 1.983907 1_555
O8 Te1 2.001636 1_455
O9 Te0 1.910974 1_554
O10 Te1 1.901202 1_455
O11 Te2 1.960570 1_555
O11 Te1 1.979489 1_465
