# generated using pymatgen
data_LiMnPO4
_symmetry_space_group_name_H-M   'P 1'
_cell_length_a   5.23712107
_cell_length_b   9.07145564
_cell_length_c   9.70901445
_cell_angle_alpha   89.96138259
_cell_angle_beta   90.01232612
_cell_angle_gamma   89.99921936
_symmetry_Int_Tables_number   1
_chemical_formula_structural   LiMnPO4
_chemical_formula_sum   'Li4 Mn4 P4 O16'
_cell_volume   461.25876695
_cell_formula_units_Z   4
loop_
 _symmetry_equiv_pos_site_id
 _symmetry_equiv_pos_as_xyz
  1  'x, y, z'
loop_
 _atom_site_type_symbol
 _atom_site_label
 _atom_site_symmetry_multiplicity
 _atom_site_fract_x
 _atom_site_fract_y
 _atom_site_fract_z
 _atom_site_occupancy
  Li  Li0  1  0.49976200  0.49994800  0.23482800  1
  Li  Li1  1  0.99974000  0.99989400  0.23482100  1
  Li  Li2  1  0.00004900  0.99999100  0.73481400  1
  Li  Li3  1  0.50001100  0.49995000  0.73480300  1
  Mn  Mn0  1  0.49974500  0.83328900  0.12323600  1
  Mn  Mn1  1  0.50022500  0.16673500  0.62325700  1
  Mn  Mn2  1  0.99976100  0.33328200  0.12333000  1
  Mn  Mn3  1  0.00007200  0.66672200  0.62337900  1
  P  P0  1  0.00009700  0.33341800  0.76049900  1
  P  P1  1  0.50004600  0.83339200  0.76040400  1
  P  P2  1  0.50006100  0.16663800  0.26037900  1
  P  P3  1  0.00009700  0.66658700  0.26046600  1
  O  O0  1  0.00085400  0.33371900  0.91755500  1
  O  O1  1  0.50078200  0.83365600  0.91747300  1
  O  O2  1  0.50039400  0.16645800  0.41750600  1
  O  O3  1  0.00030800  0.66638200  0.41759000  1
  O  O4  1  0.86759500  0.19098000  0.70505800  1
  O  O5  1  0.36753900  0.69095200  0.70481600  1
  O  O6  1  0.85271200  0.47075600  0.70435000  1
  O  O7  1  0.35270000  0.97075100  0.70428200  1
  O  O8  1  0.22034800  0.16190800  0.20462200  1
  O  O9  1  0.72042100  0.66195600  0.20465700  1
  O  O10  1  0.27953700  0.33794200  0.70420700  1
  O  O11  1  0.77952400  0.83802100  0.70413800  1
  O  O12  1  0.64698400  0.02932300  0.20423700  1
  O  O13  1  0.14710100  0.52925600  0.20434000  1
  O  O14  1  0.63201200  0.30905200  0.20415200  1
  O  O15  1  0.13211900  0.80904100  0.20444000  1
loop_
_geom_bond_atom_site_label_1
_geom_bond_atom_site_label_2
_geom_bond_distance
_geom_bond_site_symmetry_2
Li0 O14 1.888906 1_555
Li0 O13 1.889205 1_555
Li0 O9 1.892284 1_555
Li1 O15 1.888344 1_655
Li1 O12 1.889992 1_565
Li1 O8 1.892205 1_665
Li2 O4 1.888275 1_465
Li2 O7 1.889315 1_555
Li2 O11 1.892585 1_455
Li3 O5 1.888761 1_555
Li3 O6 1.889392 1_555
Li3 O10 1.892567 1_555
Mn0 O1 1.997765 1_554
Mn0 O9 2.091444 1_555
Mn0 O12 2.092166 1_565
Mn0 O15 2.092175 1_555
Mn1 O2 1.997643 1_555
Mn1 O10 2.089883 1_555
Mn1 O7 2.091644 1_545
Mn1 O4 2.092929 1_555
Mn2 O0 1.997883 1_654
Mn2 O8 2.090991 1_655
Mn2 O14 2.091355 1_555
Mn2 O13 2.091931 1_655
Mn3 O3 1.998013 1_555
Mn3 O11 2.089400 1_455
Mn3 O6 2.090989 1_455
Mn3 O5 2.092044 1_555
O0 P0 1.524868 1_555
O1 P1 1.524993 1_555
O2 P2 1.525549 1_555
O3 P3 1.525519 1_555
O4 P0 1.562580 1_655
O5 P1 1.563099 1_555
O6 P0 1.563333 1_655
O7 P1 1.563293 1_555
O8 P2 1.562208 1_555
O9 P3 1.562176 1_655
O10 P0 1.562826 1_555
O11 P1 1.562949 1_555
O12 P2 1.562652 1_555
O13 P3 1.562922 1_555
O14 P2 1.563267 1_555
O15 P3 1.563052 1_555
