# generated using pymatgen
data_PdCNCl2O
_symmetry_space_group_name_H-M   'P 1'
_cell_length_a   9.01956900
_cell_length_b   4.24383200
_cell_length_c   14.82565745
_cell_angle_alpha   83.30335181
_cell_angle_beta   90.00000000
_cell_angle_gamma   90.00000000
_symmetry_Int_Tables_number   1
_chemical_formula_structural   PdCNCl2O
_chemical_formula_sum   'Pd4 C4 N4 Cl8 O4'
_cell_volume   563.61791668
_cell_formula_units_Z   4
loop_
 _symmetry_equiv_pos_site_id
 _symmetry_equiv_pos_as_xyz
  1  'x, y, z'
loop_
 _atom_site_type_symbol
 _atom_site_label
 _atom_site_symmetry_multiplicity
 _atom_site_fract_x
 _atom_site_fract_y
 _atom_site_fract_z
 _atom_site_occupancy
  Pd  Pd0  1  0.60277200  0.19377600  0.95922800  1
  Pd  Pd1  1  0.10277200  0.80622400  0.54077200  1
  Pd  Pd2  1  0.39722800  0.80622400  0.04077200  1
  Pd  Pd3  1  0.89722800  0.19377600  0.45922800  1
  C  C0  1  0.41460800  0.99908000  0.90551800  1
  C  C1  1  0.91460800  0.00092000  0.59448200  1
  C  C2  1  0.58539200  0.00092000  0.09448200  1
  C  C3  1  0.08539200  0.99908000  0.40551800  1
  N  N0  1  0.48648900  0.97724200  0.65148600  1
  N  N1  1  0.98648900  0.02275800  0.84851400  1
  N  N2  1  0.51351100  0.02275800  0.34851400  1
  N  N3  1  0.01351100  0.97724200  0.15148600  1
  Cl  Cl0  1  0.80134100  0.49384700  0.99646500  1
  Cl  Cl1  1  0.30134100  0.50615300  0.50353500  1
  Cl  Cl2  1  0.19865900  0.50615300  0.00353500  1
  Cl  Cl3  1  0.69865900  0.49384700  0.49646500  1
  Cl  Cl4  1  0.66030500  0.42065800  0.81569100  1
  Cl  Cl5  1  0.16030500  0.57934200  0.68430900  1
  Cl  Cl6  1  0.33969500  0.57934200  0.18430900  1
  Cl  Cl7  1  0.83969500  0.42065800  0.31569100  1
  O  O0  1  0.35177800  0.99798600  0.83780000  1
  O  O1  1  0.85177800  0.00201400  0.66220000  1
  O  O2  1  0.64822200  0.00201400  0.16220000  1
  O  O3  1  0.14822200  0.99798600  0.33780000  1
loop_
_geom_bond_atom_site_label_1
_geom_bond_atom_site_label_2
_geom_bond_distance
_geom_bond_site_symmetry_2
C0 O0 1.153343 1_555
C0 Pd2 2.081493 1_556
C0 Pd0 2.085801 1_565
C1 O1 1.153343 1_555
C1 Pd3 2.081493 1_555
C1 Pd1 2.085801 1_645
C2 O2 1.153343 1_555
C2 Pd0 2.081493 1_554
C2 Pd2 2.085801 1_545
C3 O3 1.153343 1_555
C3 Pd1 2.081493 1_555
C3 Pd3 2.085801 1_465
Cl0 Pd0 2.301764 1_555
Cl1 Pd1 2.301764 1_555
Cl2 Pd2 2.301764 1_555
Cl3 Pd3 2.301764 1_555
Cl4 Pd0 2.290633 1_555
Cl5 Pd1 2.290633 1_555
Cl6 Pd2 2.290633 1_555
Cl7 Pd3 2.290633 1_555
