# generated using pymatgen
data_Na2VCSO7
_symmetry_space_group_name_H-M   'P 1'
_cell_length_a   8.61546924
_cell_length_b   8.61416308
_cell_length_c   9.18620550
_cell_angle_alpha   88.94002999
_cell_angle_beta   88.93793992
_cell_angle_gamma   103.39736772
_symmetry_Int_Tables_number   1
_chemical_formula_structural   Na2VCSO7
_chemical_formula_sum   'Na8 V4 C4 S4 O28'
_cell_volume   662.90580030
_cell_formula_units_Z   4
loop_
 _symmetry_equiv_pos_site_id
 _symmetry_equiv_pos_as_xyz
  1  'x, y, z'
loop_
 _atom_site_type_symbol
 _atom_site_label
 _atom_site_symmetry_multiplicity
 _atom_site_fract_x
 _atom_site_fract_y
 _atom_site_fract_z
 _atom_site_occupancy
  Na  Na0  1  0.61432200  0.61811000  0.20875500  1
  Na  Na1  1  0.11431500  0.11809700  0.20874200  1
  Na  Na2  1  0.36815700  0.86439600  0.20877500  1
  Na  Na3  1  0.86817100  0.36440000  0.20879600  1
  Na  Na4  1  0.63184000  0.13559800  0.79122000  1
  Na  Na5  1  0.13183700  0.63560500  0.79121100  1
  Na  Na6  1  0.38567200  0.38188900  0.79123800  1
  Na  Na7  1  0.88568300  0.88190200  0.79125600  1
  V  V0  1  0.26536600  0.51538300  0.35725500  1
  V  V1  1  0.73463300  0.48461600  0.64274500  1
  V  V2  1  0.76536500  0.01538200  0.35726800  1
  V  V3  1  0.23463900  0.98462000  0.64272800  1
  C  C0  1  0.73704300  0.98703800  0.08246200  1
  C  C1  1  0.23705200  0.48703500  0.08244900  1
  C  C2  1  0.26295300  0.01296100  0.91753400  1
  C  C3  1  0.76294700  0.51296300  0.91755600  1
  S  S0  1  0.48614800  0.23609900  0.41900900  1
  S  S1  1  0.98613400  0.73607500  0.41901600  1
  S  S2  1  0.51385500  0.76390200  0.58099100  1
  S  S3  1  0.01386500  0.26392400  0.58098700  1
  O  O0  1  0.27736500  0.02737600  0.05364400  1
  O  O1  1  0.77734300  0.52736200  0.05367200  1
  O  O2  1  0.72264000  0.97262900  0.94635000  1
  O  O3  1  0.22265800  0.47263700  0.94633400  1
  O  O4  1  0.84772700  0.09770500  0.14194900  1
  O  O5  1  0.34773300  0.59771000  0.14193100  1
  O  O6  1  0.15227000  0.90229500  0.85804900  1
  O  O7  1  0.65226300  0.40229000  0.85807500  1
  O  O8  1  0.64167500  0.89168800  0.17754800  1
  O  O9  1  0.14168100  0.39168600  0.17753300  1
  O  O10  1  0.35832300  0.10831100  0.82244600  1
  O  O11  1  0.85831800  0.60831300  0.82247200  1
  O  O12  1  0.46067600  0.71069000  0.43180300  1
  O  O13  1  0.96067300  0.21070900  0.43180700  1
  O  O14  1  0.53932300  0.28930800  0.56819900  1
  O  O15  1  0.03933000  0.78929500  0.56819300  1
  O  O16  1  0.34570700  0.09549800  0.43344800  1
  O  O17  1  0.84569200  0.59547600  0.43348300  1
  O  O18  1  0.65429800  0.90450200  0.56655000  1
  O  O19  1  0.15430800  0.40452300  0.56652000  1
  O  O20  1  0.44099200  0.36858000  0.33674300  1
  O  O21  1  0.94097600  0.86856100  0.33676100  1
  O  O22  1  0.61868000  0.19111300  0.33669700  1
  O  O23  1  0.11866200  0.69109300  0.33669000  1
  O  O24  1  0.38132400  0.80889100  0.66330100  1
  O  O25  1  0.88133600  0.30890400  0.66331200  1
  O  O26  1  0.55900900  0.63142100  0.66325800  1
  O  O27  1  0.05902400  0.13143600  0.66323900  1
loop_
_geom_bond_atom_site_label_1
_geom_bond_atom_site_label_2
_geom_bond_distance
_geom_bond_site_symmetry_2
Na0 O1 2.255899 1_555
Na0 O8 2.325217 1_555
Na0 O5 2.356303 1_555
Na0 O20 2.566433 1_555
Na0 O12 2.652479 1_555
Na0 O17 2.931041 1_555
Na1 O0 2.256041 1_555
Na1 O9 2.325298 1_555
Na1 O4 2.356225 1_455
Na1 O21 2.566622 1_445
Na1 O13 2.652699 1_455
Na1 O16 2.930967 1_555
Na2 O0 2.256084 1_565
Na2 O8 2.325145 1_555
Na2 O5 2.356769 1_555
Na2 O23 2.565976 1_555
Na2 O12 2.652399 1_555
Na2 O16 2.928446 1_565
Na3 O1 2.256093 1_555
Na3 O9 2.325118 1_655
Na3 O4 2.356827 1_555
Na3 O22 2.565844 1_555
Na3 O13 2.652144 1_555
Na3 O17 2.928432 1_555
Na4 O2 2.256047 1_545
Na4 O10 2.325142 1_555
Na4 O7 2.356849 1_555
Na4 O25 2.565964 1_555
Na4 O14 2.652361 1_555
Na4 O18 2.928404 1_545
Na5 O3 2.256092 1_555
Na5 O11 2.325186 1_455
Na5 O6 2.356776 1_555
Na5 O24 2.565853 1_555
Na5 O15 2.652207 1_555
Na5 O19 2.928480 1_555
Na6 O3 2.255932 1_555
Na6 O10 2.325223 1_555
Na6 O7 2.356352 1_555
Na6 O26 2.566436 1_555
Na6 O14 2.652443 1_555
Na6 O19 2.930939 1_555
Na7 O2 2.256002 1_555
Na7 O11 2.325305 1_555
Na7 O6 2.356216 1_655
Na7 O27 2.566608 1_665
Na7 O15 2.652690 1_655
Na7 O18 2.930926 1_555
C0 O2 1.264335 1_554
C0 O4 1.316842 1_565
C0 O8 1.321668 1_555
C1 O3 1.264346 1_554
C1 O5 1.316846 1_555
C1 O9 1.321665 1_555
C2 O0 1.264329 1_556
C2 O6 1.316824 1_545
C2 O10 1.321688 1_555
C3 O1 1.264358 1_556
C3 O7 1.316847 1_555
C3 O11 1.321669 1_555
O4 V2 2.140475 1_555
O5 V0 2.140535 1_555
O6 V3 2.140510 1_555
O7 V1 2.140589 1_555
O8 V2 2.144919 1_565
O9 V0 2.144926 1_555
O10 V3 2.144873 1_545
O11 V1 2.144963 1_555
O12 S2 1.499137 1_555
O12 V0 2.214578 1_555
O13 S3 1.499104 1_655
O13 V2 2.214641 1_555
O14 S0 1.499139 1_555
O14 V1 2.214577 1_555
O15 S1 1.499098 1_455
O15 V3 2.214624 1_555
O16 S0 1.502505 1_555
O16 V3 2.228052 1_545
O17 S1 1.502514 1_555
O17 V1 2.227839 1_555
O18 S2 1.502511 1_555
O18 V2 2.228071 1_565
O19 S3 1.502520 1_555
O19 V0 2.227860 1_555
O20 S0 1.486457 1_555
O20 V0 2.192966 1_555
O21 S1 1.486449 1_555
O21 V2 2.192971 1_565
O22 S0 1.486457 1_555
O22 V2 2.192967 1_555
O23 S1 1.486478 1_455
O23 V0 2.192934 1_555
O24 S2 1.486453 1_555
O24 V3 2.192954 1_555
O25 S3 1.486473 1_655
O25 V1 2.192944 1_555
O26 S2 1.486454 1_555
O26 V1 2.192966 1_555
O27 S3 1.486453 1_555
O27 V3 2.192970 1_545
