# generated using pymatgen
data_LiNb(TeO4)3
_symmetry_space_group_name_H-M   'P 1'
_cell_length_a   7.44011900
_cell_length_b   7.44439098
_cell_length_c   7.44633260
_cell_angle_alpha   87.37895866
_cell_angle_beta   87.70350131
_cell_angle_gamma   87.49021435
_symmetry_Int_Tables_number   1
_chemical_formula_structural   LiNb(TeO4)3
_chemical_formula_sum   'Li2 Nb2 Te6 O24'
_cell_volume   411.30494616
_cell_formula_units_Z   2
loop_
 _symmetry_equiv_pos_site_id
 _symmetry_equiv_pos_as_xyz
  1  'x, y, z'
loop_
 _atom_site_type_symbol
 _atom_site_label
 _atom_site_symmetry_multiplicity
 _atom_site_fract_x
 _atom_site_fract_y
 _atom_site_fract_z
 _atom_site_occupancy
  Li  Li0  1  0.77667100  0.26911000  0.27283100  1
  Li  Li1  1  0.28362700  0.79239000  0.78737700  1
  Nb  Nb0  1  0.99512500  0.99827200  0.99982700  1
  Nb  Nb1  1  0.49909400  0.99872000  0.49561500  1
  Te  Te0  1  0.99965100  0.49873600  0.99489400  1
  Te  Te1  1  0.99907700  0.99453100  0.49992400  1
  Te  Te2  1  0.49958900  0.00055900  0.99951100  1
  Te  Te3  1  0.99912800  0.49911100  0.49871300  1
  Te  Te4  1  0.49874200  0.49660000  0.99820200  1
  Te  Te5  1  0.49531200  0.49969600  0.49862200  1
  O  O0  1  0.24954700  0.42921000  0.05901300  1
  O  O1  1  0.05638600  0.94439500  0.25396700  1
  O  O2  1  0.05279700  0.25020100  0.42862200  1
  O  O3  1  0.42589400  0.74457200  0.05091100  1
  O  O4  1  0.43988700  0.05808300  0.24279400  1
  O  O5  1  0.24651800  0.56641600  0.43509500  1
  O  O6  1  0.06149000  0.43005000  0.74636700  1
  O  O7  1  0.56084000  0.43043100  0.24709900  1
  O  O8  1  0.24262600  0.93639900  0.56394200  1
  O  O9  1  0.74251900  0.94462800  0.06242700  1
  O  O10  1  0.44163800  0.25522400  0.55452300  1
  O  O11  1  0.93633200  0.25657300  0.05735900  1
  O  O12  1  0.06090300  0.74011400  0.93428300  1
  O  O13  1  0.55326000  0.74099500  0.44057500  1
  O  O14  1  0.25312600  0.04189700  0.93410100  1
  O  O15  1  0.75427500  0.05541900  0.43440700  1
  O  O16  1  0.43212300  0.56527100  0.74886500  1
  O  O17  1  0.93054100  0.55525900  0.24711800  1
  O  O18  1  0.74766200  0.42610600  0.54871100  1
  O  O19  1  0.54801800  0.93706100  0.75400500  1
  O  O20  1  0.56622100  0.25099900  0.93456600  1
  O  O21  1  0.93102000  0.74379200  0.56348400  1
  O  O22  1  0.93885900  0.05103800  0.74371500  1
  O  O23  1  0.74695300  0.56507300  0.93468800  1
loop_
_geom_bond_atom_site_label_1
_geom_bond_atom_site_label_2
_geom_bond_distance
_geom_bond_site_symmetry_2
Li0 O15 1.959100 1_555
Li0 O11 1.960967 1_555
Li0 O7 1.972891 1_555
Li0 O2 2.395187 1_655
Li0 O18 2.407202 1_555
Li0 O17 2.458401 1_555
Li1 O8 1.964536 1_555
Li1 O12 1.991561 1_555
Li1 O16 2.004225 1_555
Li1 O14 2.196368 1_565
Li1 O3 2.273223 1_556
Li1 O19 2.283206 1_555
Nb0 O9 1.971668 1_556
Nb0 O1 1.983312 1_656
Nb0 O22 1.986863 1_565
Nb0 O14 1.998618 1_665
Nb0 O11 2.014708 1_566
Nb0 O12 2.038483 1_655
Nb1 O4 1.976564 1_565
Nb1 O15 1.993421 1_565
Nb1 O13 2.000599 1_555
Nb1 O19 2.001477 1_555
Nb1 O10 2.002871 1_565
Nb1 O8 2.023188 1_555
O0 Te4 1.971698 1_554
O0 Te0 1.979126 1_454
O1 Te1 1.913482 1_455
O2 Te3 1.967827 1_455
O2 Te1 2.005347 1_445
O3 Te4 1.953745 1_554
O3 Te2 2.021553 1_564
O4 Te2 1.911089 1_554
O5 Te3 1.962776 1_455
O5 Te5 1.965972 1_555
O6 Te3 1.959928 1_455
O6 Te0 1.973732 1_455
O7 Te4 1.963740 1_554
O7 Te5 2.001136 1_555
O8 Te1 1.918246 1_455
O9 Te2 1.908863 1_564
O10 Te5 1.904202 1_555
O11 Te0 1.915292 1_554
O12 Te0 1.902981 1_455
O13 Te5 1.892451 1_555
O14 Te2 1.924289 1_555
O15 Te1 1.933775 1_545
O16 Te4 1.979621 1_555
O16 Te5 1.981023 1_555
O17 Te3 1.982746 1_555
O17 Te0 1.986153 1_554
O18 Te5 1.977788 1_555
O18 Te3 1.987236 1_555
O19 Te2 1.925260 1_565
O20 Te4 1.949163 1_555
O20 Te2 1.983633 1_555
O21 Te3 1.946070 1_555
O21 Te1 1.986796 1_555
O22 Te1 1.913461 1_545
O23 Te4 1.970859 1_555
O23 Te0 1.986362 1_555
