# generated using pymatgen
data_CuH16(ClO8)2
_symmetry_space_group_name_H-M   'P 1'
_cell_length_a   12.70698400
_cell_length_b   6.45458400
_cell_length_c   9.38998097
_cell_angle_alpha   73.65431125
_cell_angle_beta   90.00000000
_cell_angle_gamma   90.00000000
_symmetry_Int_Tables_number   1
_chemical_formula_structural   CuH16(ClO8)2
_chemical_formula_sum   'Cu2 H32 Cl4 O32'
_cell_volume   739.02166970
_cell_formula_units_Z   2
loop_
 _symmetry_equiv_pos_site_id
 _symmetry_equiv_pos_as_xyz
  1  'x, y, z'
loop_
 _atom_site_type_symbol
 _atom_site_label
 _atom_site_symmetry_multiplicity
 _atom_site_fract_x
 _atom_site_fract_y
 _atom_site_fract_z
 _atom_site_occupancy
  Cu  Cu0  1  0.50000000  0.00000000  0.50000000  1
  Cu  Cu1  1  0.00000000  0.00000000  0.00000000  1
  H  H0  1  0.55897800  0.31592600  0.59792100  1
  H  H1  1  0.05897800  0.68407400  0.90207900  1
  H  H2  1  0.44102200  0.68407400  0.40207900  1
  H  H3  1  0.94102200  0.31592600  0.09792100  1
  H  H4  1  0.63683000  0.31370600  0.46708300  1
  H  H5  1  0.13683000  0.68629400  0.03291700  1
  H  H6  1  0.36317000  0.68629400  0.53291700  1
  H  H7  1  0.86317000  0.31370600  0.96708300  1
  H  H8  1  0.40420500  0.95429400  0.76431900  1
  H  H9  1  0.90420500  0.04570600  0.73568100  1
  H  H10  1  0.59579500  0.04570600  0.23568100  1
  H  H11  1  0.09579500  0.95429400  0.26431900  1
  H  H12  1  0.32047000  0.01238200  0.63468700  1
  H  H13  1  0.82047000  0.98761800  0.86531300  1
  H  H14  1  0.67953000  0.98761800  0.36531300  1
  H  H15  1  0.17953000  0.01238200  0.13468700  1
  H  H16  1  0.62834900  0.89571400  0.74994800  1
  H  H17  1  0.12834900  0.10428600  0.75005200  1
  H  H18  1  0.37165100  0.10428600  0.25005200  1
  H  H19  1  0.87165100  0.89571400  0.24994800  1
  H  H20  1  0.59763000  0.67848200  0.71352100  1
  H  H21  1  0.09763000  0.32151800  0.78647900  1
  H  H22  1  0.40237000  0.32151800  0.28647900  1
  H  H23  1  0.90237000  0.67848200  0.21352100  1
  H  H24  1  0.08128300  0.36885700  0.33881200  1
  H  H25  1  0.58128300  0.63114300  0.16118800  1
  H  H26  1  0.91871700  0.63114300  0.66118800  1
  H  H27  1  0.41871700  0.36885700  0.83881200  1
  H  H28  1  0.19717500  0.40277700  0.28740900  1
  H  H29  1  0.69717500  0.59722300  0.21259100  1
  H  H30  1  0.80282500  0.59722300  0.71259100  1
  H  H31  1  0.30282500  0.40277700  0.78740900  1
  Cl  Cl0  1  0.86003300  0.25617300  0.40903600  1
  Cl  Cl1  1  0.36003300  0.74382700  0.09096400  1
  Cl  Cl2  1  0.13996700  0.74382700  0.59096400  1
  Cl  Cl3  1  0.63996700  0.25617300  0.90903600  1
  O  O0  1  0.76930100  0.39481000  0.41250600  1
  O  O1  1  0.26930100  0.60519000  0.08749400  1
  O  O2  1  0.23069900  0.60519000  0.58749400  1
  O  O3  1  0.73069900  0.39481000  0.91250600  1
  O  O4  1  0.92782400  0.36934200  0.28148800  1
  O  O5  1  0.42782400  0.63065800  0.21851200  1
  O  O6  1  0.07217600  0.63065800  0.71851200  1
  O  O7  1  0.57217600  0.36934200  0.78148800  1
  O  O8  1  0.92180800  0.21729000  0.54307400  1
  O  O9  1  0.42180800  0.78271000  0.95692600  1
  O  O10  1  0.07819200  0.78271000  0.45692600  1
  O  O11  1  0.57819200  0.21729000  0.04307400  1
  O  O12  1  0.82288600  0.05204700  0.38638900  1
  O  O13  1  0.32288600  0.94795300  0.11361100  1
  O  O14  1  0.17711400  0.94795300  0.61361100  1
  O  O15  1  0.67711400  0.05204700  0.88638900  1
  O  O16  1  0.56245300  0.29222600  0.49867600  1
  O  O17  1  0.06245300  0.70777400  0.00132400  1
  O  O18  1  0.43754700  0.70777400  0.50132400  1
  O  O19  1  0.93754700  0.29222600  0.99867600  1
  O  O20  1  0.39354400  0.03752200  0.65974700  1
  O  O21  1  0.89354400  0.96247800  0.84025300  1
  O  O22  1  0.60645600  0.96247800  0.34025300  1
  O  O23  1  0.10645600  0.03752200  0.15974700  1
  O  O24  1  0.61588500  0.83074200  0.66858000  1
  O  O25  1  0.11588500  0.16925800  0.83142000  1
  O  O26  1  0.38411500  0.16925800  0.33142000  1
  O  O27  1  0.88411500  0.83074200  0.16858000  1
  O  O28  1  0.15344900  0.35617500  0.37537000  1
  O  O29  1  0.65344900  0.64382500  0.12463000  1
  O  O30  1  0.84655100  0.64382500  0.62463000  1
  O  O31  1  0.34655100  0.35617500  0.87537000  1
loop_
_geom_bond_atom_site_label_1
_geom_bond_atom_site_label_2
_geom_bond_distance
_geom_bond_site_symmetry_2
Cu0 O16 2.043154 1_555
Cu0 O18 2.043154 1_545
Cu0 O20 2.084009 1_555
Cu0 O22 2.084009 1_545
Cu0 O24 2.212308 1_545
Cu0 O26 2.212308 1_555
Cu1 O19 2.043154 1_454
Cu1 O17 2.043154 1_545
Cu1 O21 2.084009 1_444
Cu1 O23 2.084009 1_555
Cu1 O25 2.212308 1_554
Cu1 O27 2.212308 1_445
H0 O16 0.986937 1_555
H1 O17 0.986937 1_556
H2 O18 0.986937 1_555
H3 O19 0.986937 1_554
H4 O16 0.988588 1_555
H5 O17 0.988588 1_555
H6 O18 0.988588 1_555
H7 O19 0.988588 1_555
H8 O20 0.987023 1_565
H9 O21 0.987023 1_545
H10 O22 0.987023 1_545
H11 O23 0.987023 1_565
H12 O20 0.982548 1_555
H13 O21 0.982548 1_555
H14 O22 0.982548 1_555
H15 O23 0.982548 1_555
H16 O24 0.982378 1_555
H17 O25 0.982378 1_555
H18 O26 0.982378 1_555
H19 O27 0.982378 1_555
H20 O24 0.981988 1_555
H21 O25 0.981988 1_555
H22 O26 0.981988 1_555
H23 O27 0.981988 1_555
H24 O28 0.974493 1_555
H25 O29 0.974493 1_555
H26 O30 0.974493 1_555
H27 O31 0.974493 1_555
H28 O28 0.970338 1_555
H29 O29 0.970338 1_555
H30 O30 0.970338 1_555
H31 O31 0.970338 1_555
Cl0 O8 1.444121 1_555
Cl0 O0 1.465424 1_555
Cl0 O12 1.470262 1_555
Cl0 O4 1.489165 1_555
Cl1 O9 1.444121 1_554
Cl1 O1 1.465424 1_555
Cl1 O13 1.470262 1_555
Cl1 O5 1.489165 1_555
Cl2 O10 1.444121 1_555
Cl2 O2 1.465424 1_555
Cl2 O14 1.470262 1_555
Cl2 O6 1.489165 1_555
Cl3 O11 1.444121 1_556
Cl3 O3 1.465424 1_555
Cl3 O15 1.470262 1_555
Cl3 O7 1.489165 1_555
