# generated using pymatgen
data_DyY3O6
_symmetry_space_group_name_H-M   'P 1'
_cell_length_a   9.18314860
_cell_length_b   9.18314671
_cell_length_c   10.60195449
_cell_angle_alpha   54.74207825
_cell_angle_beta   54.74207654
_cell_angle_gamma   70.53864204
_symmetry_Int_Tables_number   1
_chemical_formula_structural   DyY3O6
_chemical_formula_sum   'Dy4 Y12 O24'
_cell_volume   596.13843863
_cell_formula_units_Z   4
loop_
 _symmetry_equiv_pos_site_id
 _symmetry_equiv_pos_as_xyz
  1  'x, y, z'
loop_
 _atom_site_type_symbol
 _atom_site_label
 _atom_site_symmetry_multiplicity
 _atom_site_fract_x
 _atom_site_fract_y
 _atom_site_fract_z
 _atom_site_occupancy
  Dy  Dy0  1  0.53250902  0.46749089  0.50000007  1
  Dy  Dy1  1  0.28255555  0.78253483  0.71740729  1
  Dy  Dy2  1  0.21746488  0.71744449  0.28259266  1
  Dy  Dy3  1  0.03265087  0.96734928  0.50000004  1
  Y  Y0  1  0.96756694  0.03243307  -0.00000004  1
  Y  Y1  1  0.00015710  0.50010123  0.74995713  1
  Y  Y2  1  0.71754619  0.21751318  0.78241896  1
  Y  Y3  1  0.78248679  0.28245373  0.21758109  1
  Y  Y4  1  0.25002088  0.24999395  0.03253284  1
  Y  Y5  1  0.25001095  0.24998534  0.53240095  1
  Y  Y6  1  0.49989879  0.99984281  0.25004291  1
  Y  Y7  1  0.00001189  0.49991256  0.25007771  1
  Y  Y8  1  0.46742611  0.53257387  -0.00000004  1
  Y  Y9  1  0.50008739  0.99998798  0.74992227  1
  Y  Y10  1  0.75001464  0.74998916  0.46759911  1
  Y  Y11  1  0.75000587  0.74997915  0.96746719  1
  O  O0  1  0.45773111  0.23955415  0.78102439  1
  O  O1  1  0.04258167  0.26082585  0.97817301  1
  O  O2  1  0.03158480  0.72816985  0.76109313  1
  O  O3  1  0.72820051  0.03148039  0.26096193  1
  O  O4  1  0.22803543  0.53167071  0.97924355  1
  O  O5  1  0.53144332  0.22830548  0.47926698  1
  O  O6  1  0.73917416  0.95741826  0.02182701  1
  O  O7  1  0.76044579  0.54226884  0.21897567  1
  O  O8  1  0.98902333  0.22921722  0.29269284  1
  O  O9  1  0.51089460  0.27067120  0.01091661  1
  O  O10  1  0.22939682  0.98875758  0.79226688  1
  O  O11  1  0.27072840  0.51130988  0.51042853  1
  O  O12  1  0.48869021  0.72927148  0.48957153  1
  O  O13  1  0.01124228  0.77060321  0.20773317  1
  O  O14  1  0.77078270  0.01097667  0.70730721  1
  O  O15  1  0.72932863  0.48910544  0.98908356  1
  O  O16  1  0.23917434  0.45745989  0.28154434  1
  O  O17  1  0.26044212  0.04223033  0.47832104  1
  O  O18  1  0.77169451  0.46855675  0.52073307  1
  O  O19  1  0.46832913  0.77196452  0.02075521  1
  O  O20  1  0.27183013  0.96841512  0.23890694  1
  O  O21  1  0.96851953  0.27179959  0.73903804  1
  O  O22  1  0.54254009  0.76082544  0.71845573  1
  O  O23  1  0.95776951  0.73955962  0.52167846  1
loop_
_geom_bond_atom_site_label_1
_geom_bond_atom_site_label_2
_geom_bond_distance
_geom_bond_site_symmetry_2
Dy0 O12 2.247919 1_555
Dy0 O11 2.247920 1_555
Dy0 O0 2.263947 1_555
Dy0 O7 2.263948 1_555
Dy0 O5 2.333909 1_555
Dy0 O18 2.333910 1_555
Dy1 O2 2.245612 1_555
Dy1 O4 2.246017 1_555
Dy1 O12 2.263916 1_555
Dy1 O10 2.264179 1_555
Dy1 O17 2.333721 1_565
Dy1 O22 2.334702 1_555
Dy2 O20 2.245613 1_555
Dy2 O19 2.246024 1_555
Dy2 O11 2.263917 1_555
Dy2 O13 2.264178 1_555
Dy2 O23 2.333724 1_455
Dy2 O16 2.334702 1_555
Dy3 O8 2.246470 1_465
Dy3 O14 2.246471 1_465
Dy3 O23 2.263269 1_455
Dy3 O17 2.263278 1_565
Dy3 O2 2.334612 1_555
Dy3 O20 2.334612 1_555
O0 Y4 2.249194 1_556
O0 Y9 2.284544 1_545
O0 Y2 2.334370 1_555
O1 Y4 2.246309 1_556
O1 Y0 2.268345 1_456
O1 Y1 2.283418 1_555
O1 Y3 2.335266 1_456
O2 Y11 2.267733 1_455
O2 Y1 2.282823 1_555
O3 Y3 2.246979 1_555
O3 Y10 2.268298 1_545
O3 Y6 2.284327 1_545
O3 Y0 2.334548 1_555
O4 Y4 2.268778 1_556
O4 Y7 2.283214 1_556
O4 Y8 2.335392 1_556
O5 Y3 2.246342 1_555
O5 Y5 2.267614 1_555
O5 Y9 2.283688 1_545
O6 Y11 2.246308 1_554
O6 Y0 2.268345 1_565
O6 Y6 2.283418 1_555
O6 Y2 2.335267 1_564
O7 Y11 2.249195 1_554
O7 Y7 2.284543 1_655
O7 Y3 2.334370 1_555
O8 Y3 2.268672 1_555
O8 Y7 2.282882 1_655
O8 Y4 2.335275 1_655
O9 Y8 2.247096 1_555
O9 Y2 2.269060 1_554
O9 Y6 2.283692 1_545
O9 Y4 2.333816 1_555
O10 Y0 2.248581 1_466
O10 Y9 2.284801 1_555
O10 Y5 2.334761 1_565
O11 Y1 2.284093 1_555
O11 Y5 2.336036 1_555
O12 Y6 2.284093 1_555
O12 Y10 2.336036 1_555
O13 Y0 2.248581 1_465
O13 Y7 2.284802 1_555
O13 Y10 2.334761 1_455
O14 Y2 2.268671 1_555
O14 Y9 2.282883 1_545
O14 Y11 2.335274 1_545
O15 Y8 2.247096 1_556
O15 Y3 2.269060 1_556
O15 Y1 2.283693 1_655
O15 Y11 2.333815 1_555
O16 Y5 2.245513 1_555
O16 Y8 2.267607 1_555
O16 Y7 2.282997 1_555
O17 Y5 2.248440 1_555
O17 Y6 2.284148 1_545
O18 Y2 2.246343 1_555
O18 Y10 2.267613 1_555
O18 Y7 2.283688 1_655
O19 Y11 2.268784 1_554
O19 Y9 2.283205 1_554
O19 Y8 2.335383 1_555
O20 Y4 2.267732 1_565
O20 Y6 2.282823 1_555
O21 Y2 2.246979 1_555
O21 Y5 2.268299 1_655
O21 Y1 2.284326 1_655
O21 Y0 2.334548 1_556
O22 Y10 2.245511 1_555
O22 Y8 2.267606 1_556
O22 Y9 2.282997 1_555
O23 Y10 2.248441 1_555
O23 Y1 2.284156 1_655
