# generated using pymatgen
data_Li2VOF3
_symmetry_space_group_name_H-M   'P 1'
_cell_length_a   6.02087000
_cell_length_b   6.02083900
_cell_length_c   8.53365800
_cell_angle_alpha   90.00009458
_cell_angle_beta   89.99998377
_cell_angle_gamma   89.99949564
_symmetry_Int_Tables_number   1
_chemical_formula_structural   Li2VOF3
_chemical_formula_sum   'Li8 V4 O4 F12'
_cell_volume   309.35098142
_cell_formula_units_Z   4
loop_
 _symmetry_equiv_pos_site_id
 _symmetry_equiv_pos_as_xyz
  1  'x, y, z'
loop_
 _atom_site_type_symbol
 _atom_site_label
 _atom_site_symmetry_multiplicity
 _atom_site_fract_x
 _atom_site_fract_y
 _atom_site_fract_z
 _atom_site_occupancy
  Li  Li0  1  0.23836000  0.25724700  0.36783500  1
  Li  Li1  1  0.25724400  0.76164100  0.11783200  1
  Li  Li2  1  0.26204700  0.50977600  0.75400900  1
  Li  Li3  1  0.49022600  0.26204900  0.00400700  1
  Li  Li4  1  0.50977300  0.73794900  0.50400700  1
  Li  Li5  1  0.73795100  0.49022600  0.25400800  1
  Li  Li6  1  0.74275700  0.23835800  0.61783300  1
  Li  Li7  1  0.76164000  0.74275200  0.86783400  1
  V  V0  1  0.00614600  0.24990500  0.01396100  1
  V  V1  1  0.99385300  0.75009300  0.51395900  1
  V  V2  1  0.24991100  0.99386500  0.76394500  1
  V  V3  1  0.75009100  0.00613800  0.26394900  1
  O  O0  1  0.02710600  0.76310700  0.73353200  1
  O  O1  1  0.23690700  0.02710800  0.98352000  1
  O  O2  1  0.76309300  0.97289300  0.48352300  1
  O  O3  1  0.97289700  0.23689600  0.23353400  1
  F  F0  1  0.01296500  0.25262000  0.76387800  1
  F  F1  1  0.25261200  0.98703900  0.51387700  1
  F  F2  1  0.24782700  0.48874300  0.99695100  1
  F  F3  1  0.24522200  0.52629900  0.49485100  1
  F  F4  1  0.47371900  0.24522400  0.74484800  1
  F  F5  1  0.48874000  0.75217100  0.74694700  1
  F  F6  1  0.51125900  0.24782900  0.24694700  1
  F  F7  1  0.52628400  0.75477900  0.24484900  1
  F  F8  1  0.75217200  0.51125500  0.49695000  1
  F  F9  1  0.75477800  0.47369900  0.99485200  1
  F  F10  1  0.74738800  0.01296100  0.01387900  1
  F  F11  1  0.98703300  0.74738000  0.26387800  1
loop_
_geom_bond_atom_site_label_1
_geom_bond_atom_site_label_2
_geom_bond_distance
_geom_bond_site_symmetry_2
Li0 O3 1.970567 1_455
Li1 O1 1.970629 1_564
Li2 O0 2.087554 1_555
Li3 O1 2.087527 1_554
Li4 O2 2.087542 1_555
Li5 O3 2.087567 1_555
Li6 O2 1.970606 1_545
Li7 O0 1.970588 1_655
O0 V1 1.886055 1_455
O0 V2 1.948659 1_555
O1 V2 1.886063 1_545
O1 V0 1.948654 1_556
O2 V3 1.886056 1_565
O2 V1 1.948657 1_555
O3 V0 1.886052 1_655
O3 V3 1.948666 1_555
F0 Li6 2.051194 1_455
F0 V2 2.112423 1_545
F0 V0 2.134580 1_556
F0 Li2 2.157179 1_555
F1 Li0 2.051170 1_565
F1 V1 2.112460 1_455
F1 V2 2.134452 1_555
F1 Li4 2.157216 1_555
F2 Li1 1.940880 1_556
F2 Li3 1.999128 1_556
F2 V0 2.050944 1_556
F2 Li2 2.078812 1_555
F3 Li0 1.949539 1_555
F3 V1 2.032898 1_455
F3 Li4 2.041349 1_555
F3 Li2 2.216119 1_555
F4 Li6 1.949472 1_555
F4 V2 2.032918 1_545
F4 Li2 2.041418 1_555
F4 Li3 2.216123 1_556
F5 Li7 1.940926 1_555
F5 Li2 1.999125 1_555
F5 V2 2.050936 1_555
F5 Li4 2.078795 1_555
F6 Li0 1.940925 1_555
F6 Li5 1.999129 1_555
F6 V3 2.050938 1_555
F6 Li3 2.078795 1_555
F7 Li1 1.949492 1_555
F7 V3 2.032916 1_565
F7 Li5 2.041404 1_555
F7 Li4 2.216117 1_555
F8 Li6 1.940887 1_555
F8 Li4 1.999128 1_555
F8 V1 2.050943 1_555
F8 Li5 2.078810 1_555
F9 Li7 1.949556 1_555
F9 V0 2.032895 1_656
F9 Li3 2.041354 1_556
F9 Li5 2.216103 1_556
F10 Li7 2.051187 1_544
F10 V0 2.112448 1_655
F10 V3 2.134469 1_555
F10 Li3 2.157213 1_555
F11 Li1 2.051213 1_655
F11 V3 2.112420 1_565
F11 V1 2.134563 1_555
F11 Li5 2.157171 1_555
