# generated using pymatgen
data_Li3MnFeCo(PO4)3
_symmetry_space_group_name_H-M   'P 1'
_cell_length_a   10.47070151
_cell_length_b   6.09832500
_cell_length_c   14.31770095
_cell_angle_alpha   90.00000000
_cell_angle_beta   89.84569841
_cell_angle_gamma   90.00000000
_symmetry_Int_Tables_number   1
_chemical_formula_structural   Li3MnFeCo(PO4)3
_chemical_formula_sum   'Li12 Mn4 Fe4 Co4 P12 O48'
_cell_volume   914.23545020
_cell_formula_units_Z   4
loop_
 _symmetry_equiv_pos_site_id
 _symmetry_equiv_pos_as_xyz
  1  'x, y, z'
loop_
 _atom_site_type_symbol
 _atom_site_label
 _atom_site_symmetry_multiplicity
 _atom_site_fract_x
 _atom_site_fract_y
 _atom_site_fract_z
 _atom_site_occupancy
  Li  Li0  1  0.99815500  0.50043100  0.66692200  1
  Li  Li1  1  0.99991000  0.00058500  0.00003200  1
  Li  Li2  1  0.99991000  0.49941500  0.00003200  1
  Li  Li3  1  0.99934100  0.00111900  0.33334100  1
  Li  Li4  1  0.99934100  0.49888100  0.33334100  1
  Li  Li5  1  0.99815500  0.99956900  0.66692200  1
  Li  Li6  1  0.50087400  0.00010200  0.50057700  1
  Li  Li7  1  0.50087400  0.49989800  0.50057700  1
  Li  Li8  1  0.50127700  0.00153700  0.16679400  1
  Li  Li9  1  0.50127700  0.49846300  0.16679400  1
  Li  Li10  1  0.50078200  0.00044200  0.83323500  1
  Li  Li11  1  0.50078200  0.49955800  0.83323500  1
  Mn  Mn0  1  0.21834100  0.75000000  0.15986500  1
  Mn  Mn1  1  0.21855900  0.75000000  0.49310500  1
  Mn  Mn2  1  0.28179100  0.25000000  0.65953600  1
  Mn  Mn3  1  0.71974400  0.75000000  0.00709400  1
  Fe  Fe0  1  0.21783500  0.75000000  0.82518400  1
  Fe  Fe1  1  0.28042900  0.25000000  0.99282100  1
  Fe  Fe2  1  0.28148500  0.25000000  0.32575000  1
  Fe  Fe3  1  0.72001900  0.75000000  0.34134900  1
  Co  Co0  1  0.72004700  0.75000000  0.67331800  1
  Co  Co1  1  0.78114600  0.25000000  0.83920900  1
  Co  Co2  1  0.77953300  0.25000000  0.50735300  1
  Co  Co3  1  0.78031700  0.25000000  0.17315800  1
  P  P0  1  0.09318300  0.25000000  0.80747200  1
  P  P1  1  0.09356200  0.25000000  0.13824900  1
  P  P2  1  0.09266400  0.25000000  0.47140600  1
  P  P3  1  0.40747600  0.75000000  0.30626300  1
  P  P4  1  0.40790700  0.75000000  0.63967000  1
  P  P5  1  0.40474900  0.75000000  0.97183700  1
  P  P6  1  0.59537300  0.25000000  0.36053600  1
  P  P7  1  0.59405400  0.25000000  0.02822200  1
  P  P8  1  0.59737600  0.25000000  0.69438200  1
  P  P9  1  0.90567400  0.75000000  0.85935700  1
  P  P10  1  0.90434900  0.75000000  0.19465100  1
  P  P11  1  0.90334800  0.75000000  0.52754300  1
  O  O0  1  0.04087200  0.75000000  0.23702500  1
  O  O1  1  0.04004400  0.75000000  0.56955800  1
  O  O2  1  0.04224300  0.75000000  0.90146900  1
  O  O3  1  0.09593400  0.25000000  0.57879400  1
  O  O4  1  0.09675100  0.25000000  0.91419200  1
  O  O5  1  0.09746900  0.25000000  0.24598200  1
  O  O6  1  0.16397800  0.04928700  0.09306500  1
  O  O7  1  0.16397800  0.45071300  0.09306500  1
  O  O8  1  0.16343900  0.04908200  0.42628000  1
  O  O9  1  0.16343900  0.45091800  0.42628000  1
  O  O10  1  0.16389700  0.04691800  0.76323400  1
  O  O11  1  0.16389700  0.45308200  0.76323400  1
  O  O12  1  0.33786100  0.54855200  0.59467500  1
  O  O13  1  0.33786100  0.95144800  0.59467500  1
  O  O14  1  0.33645400  0.54718900  0.26302500  1
  O  O15  1  0.33645400  0.95281100  0.26302500  1
  O  O16  1  0.33383700  0.54713400  0.92827500  1
  O  O17  1  0.33383700  0.95286600  0.92827500  1
  O  O18  1  0.40562100  0.75000000  0.41381100  1
  O  O19  1  0.40425200  0.75000000  0.07918700  1
  O  O20  1  0.40297300  0.75000000  0.74691400  1
  O  O21  1  0.45774800  0.25000000  0.40200400  1
  O  O22  1  0.45629700  0.25000000  0.06783900  1
  O  O23  1  0.46045800  0.25000000  0.73647400  1
  O  O24  1  0.54429400  0.75000000  0.26395500  1
  O  O25  1  0.54172400  0.75000000  0.92961500  1
  O  O26  1  0.54603100  0.75000000  0.59904000  1
  O  O27  1  0.59778000  0.25000000  0.25339600  1
  O  O28  1  0.59835300  0.25000000  0.92060400  1
  O  O29  1  0.59788800  0.25000000  0.58660500  1
  O  O30  1  0.66446700  0.04913200  0.07392300  1
  O  O31  1  0.66619300  0.04758100  0.40528400  1
  O  O32  1  0.66802600  0.04673700  0.73846500  1
  O  O33  1  0.66802600  0.45326300  0.73846500  1
  O  O34  1  0.66446700  0.45086800  0.07392300  1
  O  O35  1  0.66619300  0.45241900  0.40528400  1
  O  O36  1  0.83515300  0.54580400  0.90347400  1
  O  O37  1  0.83515300  0.95419600  0.90347400  1
  O  O38  1  0.83313600  0.54603300  0.23822900  1
  O  O39  1  0.83214100  0.54686200  0.57189500  1
  O  O40  1  0.83313600  0.95396700  0.23822900  1
  O  O41  1  0.83214100  0.95313800  0.57189500  1
  O  O42  1  0.90334200  0.75000000  0.75185200  1
  O  O43  1  0.90288300  0.75000000  0.42036200  1
  O  O44  1  0.90487800  0.75000000  0.08741500  1
  O  O45  1  0.95604400  0.25000000  0.76499800  1
  O  O46  1  0.95492300  0.25000000  0.09878000  1
  O  O47  1  0.95439400  0.25000000  0.43134400  1
loop_
_geom_bond_atom_site_label_1
_geom_bond_atom_site_label_2
_geom_bond_distance
_geom_bond_site_symmetry_2
Li0 O1 2.109204 1_655
Li0 O45 2.120212 1_555
Li0 O42 2.184964 1_555
Li0 O39 2.228382 1_555
Li0 O3 2.228390 1_655
Li0 O11 2.238202 1_655
Li1 O2 2.125986 1_644
Li1 O46 2.128552 1_555
Li1 O6 2.196819 1_655
Li1 O4 2.201243 1_654
Li1 O44 2.209971 1_545
Li1 O37 2.231635 1_544
Li2 O2 2.125986 1_654
Li2 O46 2.128552 1_555
Li2 O7 2.196819 1_655
Li2 O4 2.201243 1_654
Li2 O44 2.209971 1_555
Li2 O36 2.231635 1_554
Li3 O0 2.105417 1_645
Li3 O47 2.119063 1_555
Li3 O8 2.195642 1_655
Li3 O43 2.216046 1_545
Li3 O5 2.217388 1_655
Li3 O40 2.231253 1_545
Li4 O0 2.105417 1_655
Li4 O47 2.119063 1_555
Li4 O9 2.195642 1_655
Li4 O43 2.216046 1_555
Li4 O5 2.217388 1_655
Li4 O38 2.231253 1_555
Li5 O1 2.109204 1_655
Li5 O45 2.120212 1_565
Li5 O42 2.184964 1_555
Li5 O41 2.228382 1_555
Li5 O3 2.228390 1_665
Li5 O10 2.238202 1_665
Li6 O21 2.126421 1_555
Li6 O26 2.130923 1_545
Li6 O13 2.191837 1_545
Li6 O18 2.207021 1_545
Li6 O29 2.208663 1_555
Li6 O31 2.220139 1_555
Li7 O21 2.126421 1_555
Li7 O26 2.130923 1_555
Li7 O12 2.191837 1_555
Li7 O18 2.207021 1_555
Li7 O29 2.208663 1_555
Li7 O35 2.220139 1_555
Li8 O24 2.120021 1_545
Li8 O22 2.128053 1_555
Li8 O30 2.181699 1_555
Li8 O27 2.204785 1_555
Li8 O15 2.225369 1_545
Li8 O19 2.228299 1_545
Li9 O24 2.120021 1_555
Li9 O22 2.128053 1_555
Li9 O34 2.181699 1_555
Li9 O27 2.204785 1_555
Li9 O14 2.225369 1_555
Li9 O19 2.228299 1_555
Li10 O23 2.101637 1_555
Li10 O25 2.103276 1_545
Li10 O20 2.217144 1_545
Li10 O28 2.220714 1_555
Li10 O32 2.230386 1_555
Li10 O17 2.231285 1_545
Li11 O23 2.101637 1_555
Li11 O25 2.103276 1_555
Li11 O20 2.217144 1_555
Li11 O28 2.220714 1_555
Li11 O33 2.230386 1_555
Li11 O16 2.231285 1_555
Mn0 O7 2.138424 1_555
Mn0 O6 2.138424 1_565
Mn0 O0 2.159265 1_555
Mn0 O19 2.260868 1_555
Mn0 O15 2.291417 1_555
Mn0 O14 2.291417 1_555
Mn1 O9 2.139651 1_555
Mn1 O8 2.139651 1_565
Mn1 O1 2.163567 1_555
Mn1 O18 2.261269 1_555
Mn1 O13 2.279093 1_555
Mn1 O12 2.279093 1_555
Mn2 O12 2.125789 1_555
Mn2 O13 2.125789 1_545
Mn2 O23 2.173556 1_555
Mn2 O3 2.266201 1_555
Mn2 O11 2.291751 1_555
Mn2 O10 2.291751 1_555
Mn3 O30 2.138989 1_565
Mn3 O34 2.138989 1_555
Mn3 O25 2.171683 1_554
Mn3 O44 2.256602 1_555
Mn3 O37 2.280862 1_554
Mn3 O36 2.280862 1_554
Fe0 O10 2.094527 1_565
Fe0 O11 2.094527 1_555
Fe0 O2 2.135998 1_555
Fe0 O20 2.236521 1_555
Fe0 O17 2.279065 1_555
Fe0 O16 2.279065 1_555
Fe1 O17 2.108889 1_545
Fe1 O16 2.108889 1_555
Fe1 O22 2.134313 1_556
Fe1 O4 2.231121 1_555
Fe1 O7 2.243995 1_556
Fe1 O6 2.243995 1_556
Fe2 O14 2.102300 1_555
Fe2 O15 2.102300 1_545
Fe2 O21 2.146875 1_555
Fe2 O5 2.242476 1_555
Fe2 O9 2.256368 1_555
Fe2 O8 2.256368 1_555
Fe3 O31 2.108584 1_565
Fe3 O35 2.108584 1_555
Fe3 O24 2.150429 1_555
Fe3 O43 2.226567 1_555
Fe3 O40 2.262847 1_555
Fe3 O38 2.262847 1_555
Co0 O32 2.106807 1_565
Co0 O33 2.106807 1_555
Co0 O26 2.112199 1_555
Co0 O42 2.226969 1_555
Co0 O41 2.238694 1_555
Co0 O39 2.238694 1_555
Co1 O36 2.103165 1_555
Co1 O37 2.103165 1_545
Co1 O45 2.114750 1_555
Co1 O28 2.238170 1_555
Co1 O33 2.242591 1_555
Co1 O32 2.242591 1_555
Co2 O39 2.106543 1_555
Co2 O41 2.106543 1_545
Co2 O47 2.127408 1_555
Co2 O29 2.212092 1_555
Co2 O35 2.253258 1_555
Co2 O31 2.253258 1_555
Co3 O38 2.106128 1_555
Co3 O40 2.106128 1_545
Co3 O46 2.113306 1_555
Co3 O27 2.227330 1_555
Co3 O34 2.236061 1_555
Co3 O30 2.236061 1_555
O0 P10 1.554413 1_455
O1 P11 1.554071 1_455
O2 P9 1.553387 1_455
O3 P2 1.538023 1_555
O4 P0 1.528542 1_555
O5 P1 1.543141 1_555
O6 P1 1.567730 1_555
O7 P1 1.567730 1_555
O8 P2 1.570131 1_555
O9 P2 1.570131 1_555
O10 P0 1.575013 1_555
O11 P0 1.575013 1_555
O12 P4 1.569934 1_555
O13 P4 1.569934 1_555
O14 P3 1.571125 1_555
O15 P3 1.571125 1_555
O16 P5 1.572683 1_555
O17 P5 1.572683 1_555
O18 P3 1.539910 1_555
O19 P5 1.537000 1_554
O20 P4 1.536217 1_555
O21 P6 1.557071 1_555
O22 P7 1.548512 1_555
O23 P8 1.553652 1_555
O24 P3 1.553882 1_555
O25 P5 1.554920 1_555
O26 P4 1.557411 1_555
O27 P6 1.534138 1_555
O28 P7 1.541379 1_556
O29 P8 1.543114 1_555
O30 P7 1.573164 1_555
O31 P6 1.576927 1_555
O32 P8 1.576275 1_555
O33 P8 1.576275 1_555
O34 P7 1.573164 1_555
O35 P6 1.576927 1_555
O36 P9 1.578725 1_555
O37 P9 1.578725 1_555
O38 P10 1.577963 1_555
O39 P11 1.578363 1_555
O40 P10 1.577963 1_555
O41 P11 1.578363 1_555
O42 P9 1.539484 1_555
O43 P11 1.534606 1_555
O44 P10 1.535368 1_555
O45 P0 1.560914 1_655
O46 P1 1.559180 1_655
O47 P2 1.558706 1_655
