# generated using pymatgen
data_Mn12O5F19
_symmetry_space_group_name_H-M   'P 1'
_cell_length_a   4.85546900
_cell_length_b   5.83439330
_cell_length_c   15.96927801
_cell_angle_alpha   89.39367071
_cell_angle_beta   89.80497707
_cell_angle_gamma   89.00694603
_symmetry_Int_Tables_number   1
_chemical_formula_structural   Mn12O5F19
_chemical_formula_sum   'Mn12 O5 F19'
_cell_volume   452.29351818
_cell_formula_units_Z   1
loop_
 _symmetry_equiv_pos_site_id
 _symmetry_equiv_pos_as_xyz
  1  'x, y, z'
loop_
 _atom_site_type_symbol
 _atom_site_label
 _atom_site_symmetry_multiplicity
 _atom_site_fract_x
 _atom_site_fract_y
 _atom_site_fract_z
 _atom_site_occupancy
  Mn  Mn0  1  0.01577500  0.82784200  0.41133600  1
  Mn  Mn1  1  0.97576500  0.16456800  0.23772000  1
  Mn  Mn2  1  0.01266200  0.83553700  0.08009500  1
  Mn  Mn3  1  0.95466500  0.82840700  0.75111900  1
  Mn  Mn4  1  0.99444600  0.14576000  0.58767900  1
  Mn  Mn5  1  0.00678700  0.15980000  0.91730800  1
  Mn  Mn6  1  0.52153500  0.68372200  0.58688000  1
  Mn  Mn7  1  0.49532500  0.65691100  0.91833800  1
  Mn  Mn8  1  0.48552600  0.66298100  0.25561100  1
  Mn  Mn9  1  0.51579800  0.34866400  0.08265200  1
  Mn  Mn10  1  0.48120400  0.35016800  0.41630900  1
  Mn  Mn11  1  0.50268200  0.35987500  0.75177000  1
  O  O0  1  0.78443800  0.89221200  0.64557000  1
  O  O1  1  0.77717600  0.12104400  0.12921200  1
  O  O2  1  0.69449800  0.62310200  0.80765500  1
  O  O3  1  0.30011000  0.60852600  0.02837400  1
  O  O4  1  0.28248300  0.59735400  0.36694600  1
  F  F0  1  0.77602200  0.88873600  0.30433000  1
  F  F1  1  0.77596800  0.87651100  0.97037400  1
  F  F2  1  0.75595800  0.11258700  0.46865600  1
  F  F3  1  0.75497700  0.12233000  0.81058500  1
  F  F4  1  0.74475200  0.61095700  0.14607300  1
  F  F5  1  0.72840800  0.37811600  0.30966500  1
  F  F6  1  0.73631300  0.60488500  0.47389000  1
  F  F7  1  0.73255400  0.39052600  0.63964300  1
  F  F8  1  0.73848300  0.38905500  0.97454200  1
  F  F9  1  0.28251300  0.38264800  0.18984000  1
  F  F10  1  0.27050000  0.37976800  0.53093700  1
  F  F11  1  0.26843100  0.39251700  0.86310200  1
  F  F12  1  0.25661300  0.61181500  0.69155100  1
  F  F13  1  0.22534400  0.88781500  0.19178600  1
  F  F14  1  0.23606400  0.89708200  0.52366900  1
  F  F15  1  0.22572300  0.11580500  0.35281100  1
  F  F16  1  0.25930800  0.10596200  0.02402800  1
  F  F17  1  0.20014700  0.86923600  0.85604300  1
  F  F18  1  0.23104900  0.11717300  0.70390400  1
loop_
_geom_bond_atom_site_label_1
_geom_bond_atom_site_label_2
_geom_bond_distance
_geom_bond_site_symmetry_2
Mn0 O4 1.985308 1_555
Mn1 O1 2.006489 1_555
Mn2 O3 2.082212 1_555
Mn2 O1 2.157050 1_465
Mn3 O0 1.910059 1_555
Mn3 O2 1.966588 1_555
Mn4 O0 2.024764 1_545
Mn6 O0 2.018332 1_555
Mn7 O3 2.013282 1_556
Mn7 O2 2.021740 1_555
Mn8 O4 2.065517 1_555
Mn9 O1 1.963221 1_555
Mn9 O3 2.017443 1_555
Mn10 O4 1.888166 1_555
Mn11 O2 2.026503 1_555
F0 Mn0 2.094700 1_655
F0 Mn8 2.103143 1_555
F0 Mn1 2.161671 1_565
F1 Mn7 2.068735 1_555
F1 Mn2 2.107926 1_656
F1 Mn5 2.175796 1_665
F2 Mn10 2.078190 1_555
F2 Mn4 2.240892 1_555
F2 Mn0 2.267376 1_645
F3 Mn11 2.055492 1_555
F3 Mn5 2.116274 1_655
F3 Mn3 2.180183 1_545
F4 Mn2 2.130648 1_655
F4 Mn9 2.168614 1_555
F4 Mn8 2.172377 1_555
F5 Mn1 2.069743 1_555
F5 Mn10 2.086764 1_555
F5 Mn8 2.192442 1_555
F6 Mn6 2.131426 1_555
F6 Mn0 2.134408 1_655
F6 Mn10 2.165381 1_555
F7 Mn4 2.073623 1_555
F7 Mn11 2.114351 1_555
F7 Mn6 2.144899 1_555
F8 Mn9 2.047613 1_556
F8 Mn5 2.068563 1_655
F8 Mn7 2.134325 1_555
F9 Mn9 2.058764 1_555
F9 Mn1 2.111685 1_455
F9 Mn8 2.202090 1_555
F10 Mn10 2.101222 1_555
F10 Mn4 2.123835 1_455
F10 Mn6 2.354693 1_555
F11 Mn5 2.057715 1_555
F11 Mn7 2.113202 1_555
F11 Mn11 2.115830 1_555
F12 Mn11 2.104748 1_555
F12 Mn3 2.145451 1_455
F12 Mn6 2.147984 1_555
F13 Mn8 2.068467 1_555
F13 Mn2 2.091824 1_555
F13 Mn1 2.136583 1_465
F14 Mn6 2.100698 1_555
F14 Mn4 2.119079 1_465
F14 Mn0 2.137434 1_555
F15 Mn10 2.129181 1_555
F15 Mn0 2.180595 1_545
F15 Mn1 2.219013 1_455
F16 Mn5 2.120375 1_554
F16 Mn9 2.128295 1_555
F16 Mn2 2.180251 1_545
F17 Mn3 2.077699 1_455
F17 Mn7 2.121428 1_555
F17 Mn5 2.164771 1_565
F18 Mn11 2.103191 1_555
F18 Mn4 2.189468 1_455
F18 Mn3 2.291823 1_445
