# generated using pymatgen
data_LiSiBiO4
_symmetry_space_group_name_H-M   'P 1'
_cell_length_a   5.37368400
_cell_length_b   8.85239900
_cell_length_c   8.93433153
_cell_angle_alpha   72.35408855
_cell_angle_beta   90.00000000
_cell_angle_gamma   90.00000000
_symmetry_Int_Tables_number   1
_chemical_formula_structural   LiSiBiO4
_chemical_formula_sum   'Li4 Si4 Bi4 O16'
_cell_volume   405.00874809
_cell_formula_units_Z   4
loop_
 _symmetry_equiv_pos_site_id
 _symmetry_equiv_pos_as_xyz
  1  'x, y, z'
loop_
 _atom_site_type_symbol
 _atom_site_label
 _atom_site_symmetry_multiplicity
 _atom_site_fract_x
 _atom_site_fract_y
 _atom_site_fract_z
 _atom_site_occupancy
  Li  Li0  1  0.33073100  0.13233600  0.21696100  1
  Li  Li1  1  0.82621200  0.64383900  0.37539100  1
  Li  Li2  1  0.66926900  0.13233600  0.71696100  1
  Li  Li3  1  0.17378800  0.64383900  0.87539100  1
  Si  Si0  1  0.68366900  0.75103700  0.99376700  1
  Si  Si1  1  0.79234300  0.25771500  0.34688300  1
  Si  Si2  1  0.31633100  0.75103700  0.49376700  1
  Si  Si3  1  0.20765700  0.25771500  0.84688300  1
  Bi  Bi0  1  0.84218200  0.03620100  0.07203900  1
  Bi  Bi1  1  0.32233300  0.50365700  0.25629300  1
  Bi  Bi2  1  0.15781800  0.03620100  0.57203900  1
  Bi  Bi3  1  0.67766700  0.50365700  0.75629300  1
  O  O0  1  0.24229000  0.11192500  0.01493800  1
  O  O1  1  0.39035500  0.69875500  0.02372000  1
  O  O2  1  0.64683500  0.22677400  0.19933100  1
  O  O3  1  0.10327700  0.25463200  0.32703400  1
  O  O4  1  0.80900400  0.76143900  0.15952000  1
  O  O5  1  0.69495000  0.43042800  0.36444200  1
  O  O6  1  0.75771000  0.11192500  0.51493800  1
  O  O7  1  0.17694300  0.61778700  0.42651700  1
  O  O8  1  0.26795300  0.93467600  0.37696300  1
  O  O9  1  0.60964500  0.69875500  0.52372000  1
  O  O10  1  0.35316500  0.22677400  0.69933100  1
  O  O11  1  0.89672300  0.25463200  0.82703400  1
  O  O12  1  0.19099600  0.76143900  0.65952000  1
  O  O13  1  0.30505000  0.43042800  0.86444200  1
  O  O14  1  0.82305700  0.61778700  0.92651700  1
  O  O15  1  0.73204700  0.93467600  0.87696300  1
loop_
_geom_bond_atom_site_label_1
_geom_bond_atom_site_label_2
_geom_bond_distance
_geom_bond_site_symmetry_2
Li0 O2 1.878634 1_555
Li0 O8 1.924194 1_545
Li0 O0 1.927186 1_555
Li0 O3 2.068476 1_555
Li1 O4 1.895992 1_555
Li1 O9 1.933252 1_555
Li1 O7 1.936524 1_655
Li1 O5 2.046514 1_555
Li2 O10 1.878634 1_555
Li2 O15 1.924194 1_545
Li2 O6 1.927186 1_555
Li2 O11 2.068476 1_555
Li3 O12 1.895992 1_555
Li3 O1 1.933252 1_556
Li3 O14 1.936524 1_455
Li3 O13 2.046514 1_555
Bi0 O0 2.263850 1_655
Bi0 O15 2.268316 1_544
Bi0 O4 2.325127 1_545
Bi0 O11 2.459729 1_554
Bi0 O2 2.530725 1_555
Bi1 O7 2.208088 1_555
Bi1 O5 2.232356 1_555
Bi1 O1 2.293106 1_555
Bi1 O3 2.408338 1_555
Bi2 O6 2.263850 1_455
Bi2 O8 2.268316 1_545
Bi2 O12 2.325127 1_545
Bi2 O3 2.459729 1_555
Bi2 O10 2.530725 1_555
Bi3 O14 2.208088 1_555
Bi3 O13 2.232356 1_555
Bi3 O9 2.293106 1_555
Bi3 O11 2.408338 1_555
O0 Si3 1.667284 1_554
O1 Si0 1.641664 1_554
O2 Si1 1.625786 1_555
O3 Si1 1.681340 1_455
O4 Si0 1.654633 1_554
O5 Si1 1.667795 1_555
O6 Si1 1.667284 1_555
O7 Si2 1.656242 1_555
O8 Si2 1.664579 1_555
O9 Si2 1.641664 1_555
O10 Si3 1.625786 1_555
O11 Si3 1.681340 1_655
O12 Si2 1.654633 1_555
O13 Si3 1.667795 1_555
O14 Si0 1.656242 1_555
O15 Si0 1.664579 1_555
