# generated using pymatgen
data_LiMnPO4
_symmetry_space_group_name_H-M   'P 1'
_cell_length_a   5.06847385
_cell_length_b   8.52626744
_cell_length_c   8.78583294
_cell_angle_alpha   99.94113813
_cell_angle_beta   89.97476865
_cell_angle_gamma   107.20251928
_symmetry_Int_Tables_number   1
_chemical_formula_structural   LiMnPO4
_chemical_formula_sum   'Li4 Mn4 P4 O16'
_cell_volume   356.73335081
_cell_formula_units_Z   4
loop_
 _symmetry_equiv_pos_site_id
 _symmetry_equiv_pos_as_xyz
  1  'x, y, z'
loop_
 _atom_site_type_symbol
 _atom_site_label
 _atom_site_symmetry_multiplicity
 _atom_site_fract_x
 _atom_site_fract_y
 _atom_site_fract_z
 _atom_site_occupancy
  Li  Li0  1  0.21857500  0.43619500  0.07263700  1
  Li  Li1  1  0.71862100  0.43631800  0.57264600  1
  Li  Li2  1  0.64455500  0.29032100  0.21508800  1
  Li  Li3  1  0.14457800  0.29029800  0.71511600  1
  Mn  Mn0  1  0.51985600  0.03934300  0.50636700  1
  Mn  Mn1  1  0.34339200  0.68713500  0.78127300  1
  Mn  Mn2  1  0.01979400  0.03938100  0.00636300  1
  Mn  Mn3  1  0.84321300  0.68700000  0.28125500  1
  P  P0  1  0.29870900  0.59702800  0.43272300  1
  P  P1  1  0.79868300  0.59694600  0.93268600  1
  P  P2  1  0.06458600  0.12955900  0.35506700  1
  P  P3  1  0.56458700  0.12956400  0.85507400  1
  O  O0  1  0.96841700  0.93659900  0.32332100  1
  O  O1  1  0.46837500  0.93662900  0.82334500  1
  O  O2  1  0.39530700  0.78992400  0.46449500  1
  O  O3  1  0.89526800  0.78985600  0.96447300  1
  O  O4  1  0.42754300  0.53554000  0.28122500  1
  O  O5  1  0.92760800  0.53549000  0.78119900  1
  O  O6  1  0.38672600  0.19039700  0.37418300  1
  O  O7  1  0.88675800  0.19043500  0.87424400  1
  O  O8  1  0.43547100  0.19093100  0.00653400  1
  O  O9  1  0.93547700  0.19097600  0.50647800  1
  O  O10  1  0.90047700  0.53613400  0.07295800  1
  O  O11  1  0.40051000  0.53623800  0.57296900  1
  O  O12  1  0.97657300  0.53628300  0.41366800  1
  O  O13  1  0.47649700  0.53619600  0.91364300  1
  O  O14  1  0.96270600  0.19025300  0.21474100  1
  O  O15  1  0.46273500  0.19021300  0.71476400  1
loop_
_geom_bond_atom_site_label_1
_geom_bond_atom_site_label_2
_geom_bond_distance
_geom_bond_site_symmetry_2
Li0 O4 2.032941 1_555
Li0 O10 2.034035 1_455
Li0 O13 2.034105 1_554
Li1 O5 2.032567 1_555
Li1 O12 2.033971 1_555
Li1 O11 2.033988 1_555
Li2 O8 2.032969 1_555
Li2 O6 2.034306 1_555
Li2 O14 2.034983 1_555
Li3 O9 2.033553 1_455
Li3 O7 2.034322 1_455
Li3 O15 2.035103 1_555
Mn0 O2 1.998083 1_545
Mn0 O6 2.119896 1_555
Mn0 O15 2.120731 1_555
Mn0 O9 2.120784 1_555
Mn1 O1 1.998689 1_555
Mn1 O13 2.120119 1_555
Mn1 O11 2.120221 1_555
Mn1 O5 2.121522 1_455
Mn2 O3 1.998932 1_444
Mn2 O7 2.119286 1_454
Mn2 O14 2.120560 1_455
Mn2 O8 2.120737 1_555
Mn3 O0 1.999532 1_555
Mn3 O12 2.119504 1_555
Mn3 O10 2.120277 1_555
Mn3 O4 2.120595 1_555
O0 P2 1.545799 1_665
O1 P3 1.545600 1_565
O2 P0 1.545289 1_555
O3 P1 1.545401 1_555
O4 P0 1.560032 1_555
O5 P1 1.560109 1_555
O6 P2 1.559606 1_555
O7 P3 1.559780 1_555
O8 P3 1.560185 1_554
O9 P2 1.559957 1_655
O10 P1 1.559899 1_554
O11 P0 1.559615 1_555
O12 P0 1.559556 1_655
O13 P1 1.559792 1_555
O14 P2 1.559919 1_655
O15 P3 1.559522 1_555
