# generated using pymatgen
data_Zr2N2O
_symmetry_space_group_name_H-M   'P 1'
_cell_length_a   5.52936100
_cell_length_b   5.57643377
_cell_length_c   10.32857239
_cell_angle_alpha   75.46685797
_cell_angle_beta   74.92567409
_cell_angle_gamma   60.66498797
_symmetry_Int_Tables_number   1
_chemical_formula_structural   Zr2N2O
_chemical_formula_sum   'Zr8 N8 O4'
_cell_volume   265.17888547
_cell_formula_units_Z   4
loop_
 _symmetry_equiv_pos_site_id
 _symmetry_equiv_pos_as_xyz
  1  'x, y, z'
loop_
 _atom_site_type_symbol
 _atom_site_label
 _atom_site_symmetry_multiplicity
 _atom_site_fract_x
 _atom_site_fract_y
 _atom_site_fract_z
 _atom_site_occupancy
  Zr  Zr0  1  0.69219900  0.68811000  0.96203100  1
  Zr  Zr1  1  0.83042900  0.81659300  0.53778800  1
  Zr  Zr2  1  0.41200700  0.44224600  0.71278500  1
  Zr  Zr3  1  0.92084300  0.95277200  0.21272100  1
  Zr  Zr4  1  0.08698700  0.06625500  0.78794400  1
  Zr  Zr5  1  0.56560300  0.57969300  0.28691800  1
  Zr  Zr6  1  0.20091000  0.16862300  0.46367300  1
  Zr  Zr7  1  0.31965300  0.30908500  0.03748600  1
  N  N0  1  0.08405100  0.67533900  0.87355900  1
  N  N1  1  0.41775900  0.82880300  0.62158900  1
  N  N2  1  0.38386900  0.07415700  0.87450300  1
  N  N3  1  0.11204300  0.42465200  0.62810100  1
  N  N4  1  0.16985000  0.86733200  0.37678000  1
  N  N5  1  0.62094700  0.91967100  0.12494400  1
  N  N6  1  0.57749000  0.17319900  0.36986100  1
  N  N7  1  0.92122500  0.32669700  0.12138000  1
  O  O0  1  0.67952200  0.37316900  0.87593500  1
  O  O1  1  0.81245900  0.12914000  0.62543600  1
  O  O2  1  0.87293400  0.56425900  0.37881600  1
  O  O3  1  0.31921800  0.62020400  0.12775000  1
loop_
_geom_bond_atom_site_label_1
_geom_bond_atom_site_label_2
_geom_bond_distance
_geom_bond_site_symmetry_2
N0 Zr0 2.094342 1_455
N0 Zr4 2.143364 1_565
N0 Zr2 2.223253 1_555
N0 Zr7 2.353699 1_556
N1 Zr2 2.137160 1_555
N1 Zr1 2.193282 1_555
N1 Zr6 2.220059 1_565
N1 Zr4 2.277060 1_565
N2 Zr4 2.085664 1_555
N2 Zr0 2.141737 1_545
N2 Zr7 2.239695 1_556
N2 Zr2 2.341892 1_555
N3 Zr1 2.114098 1_455
N3 Zr2 2.117251 1_555
N3 Zr4 2.288121 1_555
N3 Zr6 2.293372 1_555
N4 Zr5 2.115261 1_555
N4 Zr6 2.185744 1_565
N4 Zr1 2.242463 1_455
N4 Zr3 2.271476 1_455
N5 Zr7 2.135543 1_565
N5 Zr3 2.184405 1_555
N5 Zr0 2.213856 1_554
N5 Zr5 2.279716 1_555
N6 Zr6 2.065303 1_555
N6 Zr5 2.187520 1_555
N6 Zr3 2.204874 1_545
N6 Zr1 2.392580 1_545
N7 Zr3 2.062513 1_545
N7 Zr7 2.109903 1_655
N7 Zr0 2.300635 1_554
N7 Zr5 2.350311 1_555
O0 Zr4 2.183713 1_655
O0 Zr0 2.194751 1_555
O0 Zr7 2.354118 1_556
O0 Zr2 2.363978 1_555
O1 Zr1 2.107722 1_545
O1 Zr2 2.174574 1_555
O1 Zr4 2.398488 1_655
O1 Zr6 2.421887 1_655
O2 Zr5 2.109688 1_555
O2 Zr6 2.204630 1_655
O2 Zr1 2.316472 1_555
O2 Zr3 2.483469 1_555
O3 Zr7 2.164649 1_555
O3 Zr3 2.206878 1_455
O3 Zr5 2.299284 1_555
O3 Zr0 2.435197 1_554
