# generated using pymatgen
data_CoPH16NO10
_symmetry_space_group_name_H-M   'P 1'
_cell_length_a   6.13774700
_cell_length_b   6.98591400
_cell_length_c   11.24202200
_cell_angle_alpha   90.00000000
_cell_angle_beta   90.00000000
_cell_angle_gamma   90.00000000
_symmetry_Int_Tables_number   1
_chemical_formula_structural   CoPH16NO10
_chemical_formula_sum   'Co2 P2 H32 N2 O20'
_cell_volume   482.03286396
_cell_formula_units_Z   2
loop_
 _symmetry_equiv_pos_site_id
 _symmetry_equiv_pos_as_xyz
  1  'x, y, z'
loop_
 _atom_site_type_symbol
 _atom_site_label
 _atom_site_symmetry_multiplicity
 _atom_site_fract_x
 _atom_site_fract_y
 _atom_site_fract_z
 _atom_site_occupancy
  Co  Co0  1  0.62266200  0.50000000  0.11101800  1
  Co  Co1  1  0.37733800  0.00000000  0.61101800  1
  P  P0  1  0.00123000  0.50000000  0.48551200  1
  P  P1  1  0.99877000  0.00000000  0.98551200  1
  H  H0  1  0.17022800  0.50000000  0.14949500  1
  H  H1  1  0.27222200  0.50000000  0.28257400  1
  H  H2  1  0.78165000  0.50000000  0.70830400  1
  H  H3  1  0.64633300  0.50000000  0.84493300  1
  H  H4  1  0.00826300  0.61718800  0.99265900  1
  H  H5  1  0.53870100  0.62005100  0.73211600  1
  H  H6  1  0.79091100  0.69850000  0.30566000  1
  H  H7  1  0.38179800  0.67935600  0.47002300  1
  H  H8  1  0.36816500  0.75008800  0.98058200  1
  H  H9  1  0.16974400  0.67966300  0.68545200  1
  H  H10  1  0.83025600  0.82033700  0.18545200  1
  H  H11  1  0.63183500  0.74991200  0.48058200  1
  H  H12  1  0.61820200  0.82064400  0.97002300  1
  H  H13  1  0.20908900  0.80150000  0.80566000  1
  H  H14  1  0.46129900  0.87994900  0.23211600  1
  H  H15  1  0.99173700  0.88281200  0.49265900  1
  H  H16  1  0.21835000  0.00000000  0.20830400  1
  H  H17  1  0.35366700  0.00000000  0.34493300  1
  H  H18  1  0.72777800  0.00000000  0.78257400  1
  H  H19  1  0.82977200  0.00000000  0.64949500  1
  H  H20  1  0.99173700  0.11718800  0.49265900  1
  H  H21  1  0.46129900  0.12005100  0.23211600  1
  H  H22  1  0.20908900  0.19850000  0.80566000  1
  H  H23  1  0.61820200  0.17935600  0.97002300  1
  H  H24  1  0.63183500  0.25008800  0.48058200  1
  H  H25  1  0.83025600  0.17966300  0.18545200  1
  H  H26  1  0.16974400  0.32033700  0.68545200  1
  H  H27  1  0.36816500  0.24991200  0.98058200  1
  H  H28  1  0.38179800  0.32064400  0.47002300  1
  H  H29  1  0.79091100  0.30150000  0.30566000  1
  H  H30  1  0.53870100  0.37994900  0.73211600  1
  H  H31  1  0.00826300  0.38281200  0.99265900  1
  N  N0  1  0.63069400  0.50000000  0.75361100  1
  N  N1  1  0.36930600  0.00000000  0.25361100  1
  O  O0  1  0.30735300  0.50000000  0.19532700  1
  O  O1  1  0.95209900  0.50000000  0.03492400  1
  O  O2  1  0.23438100  0.50000000  0.43017000  1
  O  O3  1  0.02007500  0.50000000  0.62378800  1
  O  O4  1  0.87839900  0.68265900  0.44264100  1
  O  O5  1  0.52331300  0.70657300  0.99019600  1
  O  O6  1  0.72844500  0.72562300  0.22407600  1
  O  O7  1  0.27155500  0.77437700  0.72407600  1
  O  O8  1  0.47668700  0.79342700  0.49019600  1
  O  O9  1  0.12160100  0.81734100  0.94264100  1
  O  O10  1  0.04790100  0.00000000  0.53492400  1
  O  O11  1  0.97992500  0.00000000  0.12378800  1
  O  O12  1  0.69264700  0.00000000  0.69532700  1
  O  O13  1  0.76561900  0.00000000  0.93017000  1
  O  O14  1  0.12160100  0.18265900  0.94264100  1
  O  O15  1  0.47668700  0.20657300  0.49019600  1
  O  O16  1  0.27155500  0.22562300  0.72407600  1
  O  O17  1  0.72844500  0.27437700  0.22407600  1
  O  O18  1  0.52331300  0.29342700  0.99019600  1
  O  O19  1  0.87839900  0.31734100  0.44264100  1
loop_
_geom_bond_atom_site_label_1
_geom_bond_atom_site_label_2
_geom_bond_distance
_geom_bond_site_symmetry_2
Co0 O5 2.073477 1_554
Co0 O18 2.073477 1_554
Co0 O17 2.126346 1_555
Co0 O6 2.126346 1_555
Co0 O0 2.154917 1_555
Co0 O1 2.195514 1_555
Co1 O8 2.073477 1_545
Co1 O15 2.073477 1_555
Co1 O16 2.126346 1_555
Co1 O7 2.126346 1_545
Co1 O12 2.154917 1_555
Co1 O10 2.195514 1_555
H0 O0 0.986829 1_555
H1 O0 1.004254 1_555
H1 O2 1.675454 1_555
H2 N0 1.057302 1_555
H3 N0 1.031121 1_555
H4 O1 1.007376 1_456
H4 O9 1.659882 1_555
H5 N0 1.039500 1_555
H6 O6 1.011977 1_555
H6 O4 1.634631 1_555
H7 O8 1.012749 1_555
H7 O2 1.609140 1_555
H8 O5 1.005430 1_555
H8 O9 1.641001 1_555
H9 O7 1.008378 1_555
H10 O6 1.008378 1_555
H11 O8 1.005430 1_555
H11 O4 1.641001 1_555
H12 O5 1.012749 1_555
H12 O13 1.609140 1_565
H13 O7 1.011977 1_555
H13 O9 1.634631 1_555
H14 N1 1.039500 1_565
H15 O10 1.007376 1_665
H15 O4 1.659882 1_555
H16 N1 1.057302 1_555
H17 N1 1.031121 1_555
H18 O12 1.004254 1_555
H18 O13 1.675454 1_555
H19 O12 0.986829 1_555
H20 O10 1.007376 1_655
H20 O19 1.659882 1_555
H21 N1 1.039500 1_555
H22 O16 1.011977 1_555
H22 O14 1.634631 1_555
H23 O18 1.012749 1_555
H23 O13 1.609140 1_555
H24 O15 1.005430 1_555
H24 O19 1.641001 1_555
H25 O17 1.008378 1_555
H26 O16 1.008378 1_555
H27 O18 1.005430 1_555
H27 O14 1.641001 1_555
H28 O15 1.012749 1_555
H28 O2 1.609140 1_555
H29 O17 1.011977 1_555
H29 O19 1.634631 1_555
H30 N0 1.039500 1_555
H31 O1 1.007376 1_456
H31 O14 1.659882 1_555
O2 P0 1.560417 1_555
O3 P0 1.558799 1_555
O4 P0 1.558504 1_655
O9 P1 1.558504 1_465
O11 P1 1.558799 1_554
O13 P1 1.560417 1_555
O14 P1 1.558504 1_455
O19 P0 1.558504 1_655
