# generated using pymatgen
data_Ca(ClO3)2
_symmetry_space_group_name_H-M   'P 1'
_cell_length_a   6.85535596
_cell_length_b   6.85535596
_cell_length_c   7.88822518
_cell_angle_alpha   58.24215209
_cell_angle_beta   58.24215209
_cell_angle_gamma   67.07537732
_symmetry_Int_Tables_number   1
_chemical_formula_structural   Ca(ClO3)2
_chemical_formula_sum   'Ca2 Cl4 O12'
_cell_volume   264.75317348
_cell_formula_units_Z   2
loop_
 _symmetry_equiv_pos_site_id
 _symmetry_equiv_pos_as_xyz
  1  'x, y, z'
loop_
 _atom_site_type_symbol
 _atom_site_label
 _atom_site_symmetry_multiplicity
 _atom_site_fract_x
 _atom_site_fract_y
 _atom_site_fract_z
 _atom_site_occupancy
  Ca  Ca0  1  0.83701500  0.16298500  0.25000000  1
  Ca  Ca1  1  0.16298500  0.83701500  0.75000000  1
  Cl  Cl0  1  0.70050400  0.69424400  0.81156700  1
  Cl  Cl1  1  0.69424400  0.70050400  0.31156700  1
  Cl  Cl2  1  0.30575600  0.29949600  0.68843300  1
  Cl  Cl3  1  0.29949600  0.30575600  0.18843300  1
  O  O0  1  0.81303100  0.91294600  0.65126100  1
  O  O1  1  0.44422500  0.76946900  0.90769100  1
  O  O2  1  0.78415100  0.59217100  0.99068400  1
  O  O3  1  0.91294600  0.81303100  0.15126100  1
  O  O4  1  0.76946900  0.44422500  0.40769100  1
  O  O5  1  0.59217100  0.78415100  0.49068400  1
  O  O6  1  0.40782900  0.21584900  0.50931600  1
  O  O7  1  0.23053100  0.55577500  0.59230900  1
  O  O8  1  0.08705400  0.18696900  0.84873900  1
  O  O9  1  0.21584900  0.40782900  0.00931600  1
  O  O10  1  0.55577500  0.23053100  0.09230900  1
  O  O11  1  0.18696900  0.08705400  0.34873900  1
loop_
_geom_bond_atom_site_label_1
_geom_bond_atom_site_label_2
_geom_bond_distance
_geom_bond_site_symmetry_2
Ca0 O2 2.566429 1_554
Ca0 O6 2.566429 1_555
Ca0 O10 2.588747 1_555
Ca0 O4 2.588747 1_555
Ca0 O0 2.635219 1_545
Ca0 O8 2.635219 1_654
Ca0 O3 2.683359 1_545
Ca0 O11 2.683359 1_655
Ca0 O5 2.831534 1_545
Ca0 O9 2.831534 1_655
Ca1 O5 2.566429 1_555
Ca1 O9 2.566429 1_556
Ca1 O7 2.588747 1_555
Ca1 O1 2.588747 1_555
Ca1 O11 2.635219 1_565
Ca1 O3 2.635219 1_456
Ca1 O0 2.683359 1_455
Ca1 O8 2.683359 1_565
Ca1 O2 2.831534 1_455
Ca1 O6 2.831534 1_565
Cl0 O1 1.493656 1_555
Cl0 O2 1.521292 1_555
Cl0 O0 1.523285 1_555
Cl1 O4 1.493656 1_555
Cl1 O5 1.521292 1_555
Cl1 O3 1.523285 1_555
Cl2 O7 1.493656 1_555
Cl2 O6 1.521292 1_555
Cl2 O8 1.523285 1_555
Cl3 O10 1.493656 1_555
Cl3 O9 1.521292 1_555
Cl3 O11 1.523285 1_555
