# generated using pymatgen
data_Li4CoO4
_symmetry_space_group_name_H-M   'P 1'
_cell_length_a   9.50135900
_cell_length_b   9.05914400
_cell_length_c   9.32828496
_cell_angle_alpha   89.10582552
_cell_angle_beta   90.00000000
_cell_angle_gamma   90.00000000
_symmetry_Int_Tables_number   1
_chemical_formula_structural   Li4CoO4
_chemical_formula_sum   'Li32 Co8 O32'
_cell_volume   802.82669610
_cell_formula_units_Z   8
loop_
 _symmetry_equiv_pos_site_id
 _symmetry_equiv_pos_as_xyz
  1  'x, y, z'
loop_
 _atom_site_type_symbol
 _atom_site_label
 _atom_site_symmetry_multiplicity
 _atom_site_fract_x
 _atom_site_fract_y
 _atom_site_fract_z
 _atom_site_occupancy
  Li  Li0  1  0.13412300  0.84853400  0.38737500  1
  Li  Li1  1  0.86587700  0.84853400  0.88737500  1
  Li  Li2  1  0.38092000  0.70147800  0.90958500  1
  Li  Li3  1  0.61908000  0.70147800  0.40958500  1
  Li  Li4  1  0.88559400  0.64811700  0.10790200  1
  Li  Li5  1  0.11440600  0.64811700  0.60790200  1
  Li  Li6  1  0.10246300  0.63933000  0.87001300  1
  Li  Li7  1  0.89753700  0.63933000  0.37001300  1
  Li  Li8  1  0.35107300  0.62839000  0.32901200  1
  Li  Li9  1  0.64892700  0.62839000  0.82901200  1
  Li  Li10  1  0.14157900  0.59841300  0.13928700  1
  Li  Li11  1  0.85842100  0.59841300  0.63928700  1
  Li  Li12  1  0.63340400  0.41033400  0.35865600  1
  Li  Li13  1  0.36659600  0.41033400  0.85865600  1
  Li  Li14  1  0.14059900  0.37712200  0.66238300  1
  Li  Li15  1  0.85940100  0.37712200  0.16238300  1
  Li  Li16  1  0.60179300  0.38159300  0.62907100  1
  Li  Li17  1  0.39820700  0.38159300  0.12907100  1
  Li  Li18  1  0.63187600  0.35033900  0.89974100  1
  Li  Li19  1  0.36812400  0.35033900  0.39974100  1
  Li  Li20  1  0.12949900  0.33180000  0.11038700  1
  Li  Li21  1  0.87050100  0.33180000  0.61038700  1
  Li  Li22  1  0.64121400  0.13697700  0.09817900  1
  Li  Li23  1  0.35878600  0.13697700  0.59817900  1
  Li  Li24  1  0.87753100  0.12973000  0.40167000  1
  Li  Li25  1  0.12246900  0.12973000  0.90167000  1
  Li  Li26  1  0.10014700  0.11033700  0.63736100  1
  Li  Li27  1  0.89985300  0.11033700  0.13736100  1
  Li  Li28  1  0.62980200  0.08433700  0.66468300  1
  Li  Li29  1  0.37019800  0.08433700  0.16468300  1
  Li  Li30  1  0.13069300  0.11406200  0.36403100  1
  Li  Li31  1  0.86930700  0.11406200  0.86403100  1
  Co  Co0  1  0.10923900  0.87409600  0.10950500  1
  Co  Co1  1  0.89076100  0.87409600  0.60950500  1
  Co  Co2  1  0.61894000  0.62377200  0.11278200  1
  Co  Co3  1  0.38106000  0.62377200  0.61278200  1
  Co  Co4  1  0.10170900  0.38843000  0.38428100  1
  Co  Co5  1  0.89829100  0.38843000  0.88428100  1
  Co  Co6  1  0.61043600  0.12916300  0.37967200  1
  Co  Co7  1  0.38956400  0.12916300  0.87967200  1
  O  O0  1  0.00765400  0.98911600  0.49865600  1
  O  O1  1  0.99234600  0.98911600  0.99865600  1
  O  O2  1  0.20874000  0.98287700  0.23109300  1
  O  O3  1  0.79126000  0.98287700  0.73109300  1
  O  O4  1  0.21113600  0.74761500  0.00676100  1
  O  O5  1  0.78886400  0.74761500  0.50676100  1
  O  O6  1  0.02100800  0.74252700  0.23230800  1
  O  O7  1  0.97899200  0.74252700  0.73230800  1
  O  O8  1  0.50805400  0.71286600  0.22935300  1
  O  O9  1  0.49194600  0.71286600  0.72935300  1
  O  O10  1  0.73362000  0.71977500  0.99293200  1
  O  O11  1  0.26638000  0.71977500  0.49293200  1
  O  O12  1  0.74792800  0.53806000  0.23893800  1
  O  O13  1  0.25207200  0.53806000  0.73893800  1
  O  O14  1  0.48941500  0.50853800  0.49235300  1
  O  O15  1  0.51058500  0.50853800  0.99235300  1
  O  O16  1  0.00232700  0.48915700  0.01418200  1
  O  O17  1  0.99767300  0.48915700  0.51418200  1
  O  O18  1  0.24056300  0.45562700  0.25634500  1
  O  O19  1  0.75943700  0.45562700  0.75634500  1
  O  O20  1  0.21158400  0.25505000  0.50290800  1
  O  O21  1  0.78841600  0.25505000  0.00290800  1
  O  O22  1  0.99859400  0.25625500  0.26757300  1
  O  O23  1  0.00140600  0.25625500  0.76757300  1
  O  O24  1  0.50086800  0.24641900  0.26369100  1
  O  O25  1  0.49913200  0.24641900  0.76369100  1
  O  O26  1  0.71580900  0.24999300  0.49549100  1
  O  O27  1  0.28419100  0.24999300  0.99549100  1
  O  O28  1  0.73868500  0.05758000  0.26493600  1
  O  O29  1  0.26131500  0.05758000  0.76493600  1
  O  O30  1  0.49348400  0.03519500  0.00037800  1
  O  O31  1  0.50651600  0.03519500  0.50037800  1
loop_
_geom_bond_atom_site_label_1
_geom_bond_atom_site_label_2
_geom_bond_distance
_geom_bond_site_symmetry_2
Li0 O11 1.968099 1_555
Li0 O2 2.013387 1_555
Li0 O0 2.045648 1_555
Li0 O6 2.052575 1_555
Li1 O10 1.968099 1_555
Li1 O3 2.013387 1_555
Li1 O1 2.045648 1_555
Li1 O7 2.052575 1_555
Li2 O4 1.900152 1_556
Li2 O9 1.986117 1_555
Li2 O15 2.264256 1_555
Li2 O13 2.509567 1_555
Li3 O5 1.900152 1_555
Li3 O8 1.986117 1_555
Li3 O14 2.264256 1_555
Li3 O12 2.509567 1_555
Li4 O10 1.906540 1_554
Li4 O6 1.940258 1_655
Li4 O16 2.026690 1_655
Li4 O12 2.039861 1_555
Li5 O11 1.906540 1_555
Li5 O7 1.940258 1_455
Li5 O17 2.026690 1_455
Li5 O13 2.039861 1_555
Li6 O4 1.922164 1_556
Li6 O7 1.965413 1_455
Li6 O13 2.095783 1_555
Li6 O16 2.123093 1_556
Li7 O5 1.922164 1_555
Li7 O6 1.965413 1_655
Li7 O12 2.095783 1_555
Li7 O17 2.123093 1_555
Li8 O8 1.911116 1_555
Li8 O11 1.926277 1_555
Li8 O18 2.011115 1_555
Li8 O14 2.275217 1_555
Li9 O9 1.911116 1_555
Li9 O10 1.926277 1_555
Li9 O19 2.011115 1_555
Li9 O15 2.275217 1_555
Li10 O18 1.925089 1_555
Li10 O4 1.933868 1_555
Li10 O6 1.950677 1_555
Li10 O16 2.031788 1_555
Li11 O19 1.925089 1_555
Li11 O5 1.933868 1_555
Li11 O7 1.950677 1_555
Li11 O17 2.031788 1_555
Li12 O12 1.931248 1_555
Li12 O14 2.062326 1_555
Li12 O26 2.072282 1_555
Li12 O24 2.148625 1_555
Li13 O13 1.931248 1_555
Li13 O15 2.062326 1_555
Li13 O27 2.072282 1_555
Li13 O25 2.148625 1_555
Li14 O13 1.946769 1_555
Li14 O23 1.969083 1_555
Li14 O20 1.985501 1_555
Li14 O17 2.177533 1_455
Li15 O12 1.946769 1_555
Li15 O22 1.969083 1_555
Li15 O21 1.985501 1_555
Li15 O16 2.177533 1_655
Li16 O25 1.994984 1_555
Li16 O14 2.010804 1_555
Li16 O19 2.031682 1_555
Li16 O26 2.047906 1_555
Li17 O24 1.994984 1_555
Li17 O15 2.010804 1_554
Li17 O18 2.031682 1_555
Li17 O27 2.047906 1_554
Li18 O21 1.964076 1_556
Li18 O25 2.031002 1_555
Li18 O19 2.031792 1_555
Li18 O15 2.041321 1_555
Li19 O20 1.964076 1_555
Li19 O24 2.031002 1_555
Li19 O18 2.031792 1_555
Li19 O14 2.041321 1_555
Li20 O27 1.970534 1_554
Li20 O22 2.033221 1_455
Li20 O16 2.063385 1_555
Li20 O18 2.067217 1_555
Li21 O26 1.970534 1_555
Li21 O23 2.033221 1_655
Li21 O17 2.063385 1_555
Li21 O19 2.067217 1_555
Li22 O30 1.918061 1_555
Li22 O28 1.939035 1_555
Li22 O21 1.964793 1_555
Li22 O24 2.278744 1_555
Li23 O31 1.918061 1_555
Li23 O29 1.939035 1_555
Li23 O20 1.964793 1_555
Li23 O25 2.278744 1_555
Li24 O28 1.954604 1_555
Li24 O0 1.983371 1_645
Li24 O22 2.038844 1_555
Li24 O26 2.084168 1_555
Li25 O29 1.954604 1_555
Li25 O1 1.983371 1_445
Li25 O23 2.038844 1_555
Li25 O27 2.084168 1_555
Li26 O0 1.922688 1_545
Li26 O29 1.992944 1_555
Li26 O23 2.037908 1_555
Li26 O20 2.088411 1_555
Li27 O1 1.922688 1_544
Li27 O28 1.992944 1_555
Li27 O22 2.037908 1_555
Li27 O21 2.088411 1_555
Li28 O3 1.887906 1_545
Li28 O31 1.985132 1_555
Li28 O25 2.143063 1_555
Li28 O26 2.310175 1_555
Li29 O2 1.887906 1_545
Li29 O30 1.985132 1_555
Li29 O24 2.143063 1_555
Li29 O27 2.310175 1_554
Li30 O2 1.883097 1_545
Li30 O20 1.987951 1_555
Li30 O22 2.002022 1_455
Li30 O0 2.044645 1_545
Li31 O3 1.883097 1_545
Li31 O21 1.987951 1_556
Li31 O23 2.002022 1_655
Li31 O1 2.044645 1_545
Co0 O2 1.784999 1_555
Co0 O4 1.789712 1_555
Co0 O1 1.831624 1_454
Co0 O6 1.842024 1_555
Co1 O3 1.784999 1_555
Co1 O5 1.789712 1_555
Co1 O0 1.831624 1_655
Co1 O7 1.842024 1_555
Co2 O8 1.723743 1_555
Co2 O10 1.778543 1_554
Co2 O15 1.856961 1_554
Co2 O12 1.860457 1_555
Co3 O9 1.723743 1_555
Co3 O11 1.778543 1_555
Co3 O14 1.856961 1_555
Co3 O13 1.860457 1_555
Co4 O17 1.820059 1_455
Co4 O18 1.874224 1_555
Co4 O22 1.902511 1_455
Co4 O20 1.932011 1_555
Co5 O16 1.820059 1_656
Co5 O19 1.874224 1_555
Co5 O23 1.902511 1_655
Co5 O21 1.932011 1_556
Co6 O31 1.713913 1_555
Co6 O28 1.752869 1_555
Co6 O24 1.829419 1_555
Co6 O26 1.845188 1_555
Co7 O30 1.713913 1_556
Co7 O29 1.752869 1_555
Co7 O25 1.829419 1_555
Co7 O27 1.845188 1_555
