# generated using pymatgen
data_Li3MnSiBO7
_symmetry_space_group_name_H-M   'P 1'
_cell_length_a   8.07585352
_cell_length_b   8.07644264
_cell_length_c   8.33879874
_cell_angle_alpha   86.47739246
_cell_angle_beta   86.47007234
_cell_angle_gamma   102.07073556
_symmetry_Int_Tables_number   1
_chemical_formula_structural   Li3MnSiBO7
_chemical_formula_sum   'Li12 Mn4 Si4 B4 O28'
_cell_volume   529.31568936
_cell_formula_units_Z   4
loop_
 _symmetry_equiv_pos_site_id
 _symmetry_equiv_pos_as_xyz
  1  'x, y, z'
loop_
 _atom_site_type_symbol
 _atom_site_label
 _atom_site_symmetry_multiplicity
 _atom_site_fract_x
 _atom_site_fract_y
 _atom_site_fract_z
 _atom_site_occupancy
  Li  Li0  1  0.50415900  0.25412400  0.10402600  1
  Li  Li1  1  0.00419000  0.75424800  0.10398700  1
  Li  Li2  1  0.49584500  0.74588400  0.89597000  1
  Li  Li3  1  0.99580700  0.24575900  0.89601400  1
  Li  Li4  1  0.62534100  0.62563400  0.24770000  1
  Li  Li5  1  0.12528200  0.12553800  0.24762400  1
  Li  Li6  1  0.37562900  0.87542200  0.24770300  1
  Li  Li7  1  0.87556500  0.37526900  0.24770600  1
  Li  Li8  1  0.62437600  0.12458200  0.75229500  1
  Li  Li9  1  0.12442200  0.62472800  0.75228300  1
  Li  Li10  1  0.37465400  0.37437700  0.75228900  1
  Li  Li11  1  0.87471200  0.87447300  0.75236500  1
  Mn  Mn0  1  0.27304300  0.52305700  0.31897200  1
  Mn  Mn1  1  0.72693800  0.47692400  0.68102500  1
  Mn  Mn2  1  0.77302800  0.02305000  0.31922200  1
  Mn  Mn3  1  0.22698600  0.97692200  0.68078800  1
  Si  Si0  1  0.48828300  0.23832000  0.42836400  1
  Si  Si1  1  0.98824400  0.73816500  0.42835200  1
  Si  Si2  1  0.51171500  0.76167600  0.57163700  1
  Si  Si3  1  0.01176100  0.26183300  0.57165900  1
  B  B0  1  0.73045500  0.98047000  0.03995400  1
  B  B1  1  0.23042700  0.48042700  0.03971900  1
  B  B2  1  0.26955900  0.01954100  0.96004900  1
  B  B3  1  0.76956400  0.51957600  0.96026600  1
  O  O0  1  0.30379400  0.05377400  0.11153200  1
  O  O1  1  0.80383100  0.55382900  0.11177700  1
  O  O2  1  0.69621100  0.94624500  0.88848700  1
  O  O3  1  0.19616700  0.44617700  0.88821200  1
  O  O4  1  0.85830100  0.10830300  0.08976800  1
  O  O5  1  0.35826200  0.60827200  0.08949700  1
  O  O6  1  0.14171000  0.89170200  0.91024400  1
  O  O7  1  0.64173200  0.39173000  0.91050100  1
  O  O8  1  0.63579400  0.88582200  0.17549600  1
  O  O9  1  0.13579500  0.38576300  0.17524900  1
  O  O10  1  0.36422000  0.11418100  0.82452400  1
  O  O11  1  0.86419100  0.61423600  0.82473300  1
  O  O12  1  0.32675800  0.07647500  0.47427900  1
  O  O13  1  0.82671700  0.57640600  0.47450000  1
  O  O14  1  0.67325000  0.92351900  0.52572600  1
  O  O15  1  0.17328300  0.42359700  0.52549300  1
  O  O16  1  0.44205500  0.69200700  0.40412700  1
  O  O17  1  0.94203800  0.19210100  0.40419800  1
  O  O18  1  0.55793200  0.30798900  0.59587400  1
  O  O19  1  0.05798100  0.80790100  0.59580300  1
  O  O20  1  0.43682200  0.38269700  0.30356100  1
  O  O21  1  0.93675900  0.88267500  0.30372700  1
  O  O22  1  0.63279300  0.18695700  0.30362800  1
  O  O23  1  0.13270300  0.68687500  0.30348900  1
  O  O24  1  0.36721200  0.81303700  0.69638000  1
  O  O25  1  0.86728600  0.31311400  0.69651300  1
  O  O26  1  0.56316000  0.61728600  0.69643000  1
  O  O27  1  0.06325500  0.11733100  0.69628100  1
loop_
_geom_bond_atom_site_label_1
_geom_bond_atom_site_label_2
_geom_bond_distance
_geom_bond_site_symmetry_2
Li0 O7 2.028829 1_554
Li0 O0 2.029909 1_555
Li0 O20 2.116507 1_555
Li0 O22 2.116946 1_555
Li1 O6 2.029518 1_554
Li1 O1 2.030071 1_455
Li1 O23 2.116216 1_555
Li1 O21 2.117414 1_455
Li2 O5 2.028891 1_556
Li2 O2 2.029983 1_555
Li2 O26 2.116605 1_555
Li2 O24 2.116826 1_555
Li3 O4 2.029547 1_556
Li3 O3 2.030064 1_655
Li3 O25 2.116203 1_555
Li3 O27 2.117414 1_655
Li4 O1 1.981920 1_555
Li4 O16 2.088024 1_555
Li4 O8 2.132972 1_555
Li4 O20 2.221614 1_555
Li5 O0 1.982664 1_555
Li5 O17 2.089191 1_455
Li5 O9 2.133483 1_555
Li5 O21 2.221424 1_445
Li6 O0 1.982532 1_565
Li6 O16 2.089175 1_555
Li6 O8 2.132657 1_555
Li6 O23 2.221527 1_555
Li7 O1 1.982305 1_555
Li7 O17 2.088238 1_555
Li7 O9 2.133479 1_655
Li7 O22 2.219826 1_555
Li8 O2 1.982536 1_545
Li8 O18 2.089178 1_555
Li8 O10 2.132626 1_555
Li8 O25 2.221370 1_555
Li9 O3 1.982292 1_555
Li9 O19 2.088092 1_555
Li9 O11 2.133477 1_455
Li9 O24 2.219902 1_555
Li10 O3 1.981882 1_555
Li10 O18 2.087972 1_555
Li10 O10 2.133119 1_555
Li10 O26 2.221396 1_555
Li11 O2 1.982764 1_555
Li11 O19 2.089310 1_655
Li11 O11 2.133551 1_555
Li11 O27 2.221456 1_665
Mn0 O15 1.910125 1_555
Mn0 O20 1.917047 1_555
Mn0 O23 1.917257 1_555
Mn0 O16 1.920571 1_555
Mn0 O9 1.925430 1_555
Mn0 O5 2.021599 1_555
Mn1 O13 1.910245 1_555
Mn1 O26 1.917049 1_555
Mn1 O25 1.917255 1_555
Mn1 O18 1.920457 1_555
Mn1 O11 1.925435 1_555
Mn1 O7 2.021549 1_555
Mn2 O14 1.910204 1_545
Mn2 O21 1.916866 1_545
Mn2 O22 1.917269 1_555
Mn2 O17 1.920357 1_555
Mn2 O8 1.925128 1_545
Mn2 O4 2.021598 1_555
Mn3 O12 1.910275 1_565
Mn3 O27 1.917068 1_565
Mn3 O24 1.917070 1_555
Mn3 O19 1.920226 1_555
Mn3 O10 1.925309 1_565
Mn3 O6 2.021561 1_555
B0 O2 1.342435 1_554
B0 O4 1.401480 1_565
B0 O8 1.410409 1_555
B1 O3 1.342830 1_554
B1 O5 1.401369 1_555
B1 O9 1.410296 1_555
B2 O0 1.342562 1_556
B2 O6 1.401495 1_545
B2 O10 1.410280 1_555
B3 O1 1.342880 1_556
B3 O7 1.401317 1_555
B3 O11 1.410286 1_555
O12 Si0 1.649439 1_555
O13 Si1 1.649286 1_555
O14 Si2 1.649474 1_555
O15 Si3 1.649306 1_555
O16 Si2 1.626402 1_555
O17 Si3 1.626366 1_655
O18 Si0 1.626373 1_555
O19 Si1 1.626338 1_455
O20 Si0 1.649934 1_555
O21 Si1 1.649899 1_555
O22 Si0 1.649849 1_555
O23 Si1 1.649932 1_455
O24 Si2 1.649836 1_555
O25 Si3 1.649948 1_655
O26 Si2 1.649902 1_555
O27 Si3 1.649869 1_555
