# generated using pymatgen
data_LiVCr(P2O7)2
_symmetry_space_group_name_H-M   'P 1'
_cell_length_a   7.16999800
_cell_length_b   8.06804874
_cell_length_c   13.63130037
_cell_angle_alpha   90.12609868
_cell_angle_beta   97.17036574
_cell_angle_gamma   90.07404095
_symmetry_Int_Tables_number   1
_chemical_formula_structural   LiVCr(P2O7)2
_chemical_formula_sum   'Li3 V3 Cr3 P12 O42'
_cell_volume   782.37226187
_cell_formula_units_Z   3
loop_
 _symmetry_equiv_pos_site_id
 _symmetry_equiv_pos_as_xyz
  1  'x, y, z'
loop_
 _atom_site_type_symbol
 _atom_site_label
 _atom_site_symmetry_multiplicity
 _atom_site_fract_x
 _atom_site_fract_y
 _atom_site_fract_z
 _atom_site_occupancy
  Li  Li0  1  0.15805400  0.13577800  0.83300300  1
  Li  Li1  1  0.17317300  0.63736100  0.50032300  1
  Li  Li2  1  0.83786200  0.63835800  0.16680700  1
  V  V0  1  0.11444500  0.50448200  0.83747000  1
  V  V1  1  0.77478000  0.49208500  0.50456100  1
  V  V2  1  0.44357600  0.49278300  0.17000700  1
  Cr  Cr0  1  0.55736200  0.99359900  0.82894500  1
  Cr  Cr1  1  0.22078500  0.00263300  0.49460800  1
  Cr  Cr2  1  0.88568400  0.00205800  0.16308900  1
  P  P0  1  0.86797500  0.21796600  0.95701200  1
  P  P1  1  0.47953700  0.32206900  0.95749900  1
  P  P2  1  0.79525900  0.71733200  0.71012900  1
  P  P3  1  0.18314600  0.81952200  0.70600900  1
  P  P4  1  0.53774900  0.21623600  0.62378900  1
  P  P5  1  0.15049500  0.31737300  0.62557600  1
  P  P6  1  0.85320400  0.82270500  0.37449200  1
  P  P7  1  0.46587400  0.71680800  0.37633800  1
  P  P8  1  0.81613100  0.31833300  0.29228500  1
  P  P9  1  0.20451800  0.21756200  0.28978900  1
  P  P10  1  0.52141000  0.82352300  0.04007100  1
  P  P11  1  0.13361600  0.71852300  0.04486000  1
  O  O0  1  0.69672300  0.35235200  0.94664100  1
  O  O1  1  0.81262900  0.06515800  0.89364400  1
  O  O2  1  0.53791000  0.81956000  0.93069000  1
  O  O3  1  0.42278800  0.15188800  0.91421100  1
  O  O4  1  0.37008500  0.46164600  0.90103300  1
  O  O5  1  0.86747000  0.56530800  0.77247800  1
  O  O6  1  0.08421900  0.66883300  0.93530900  1
  O  O7  1  0.96406800  0.85227500  0.71624000  1
  O  O8  1  0.02774100  0.31221200  0.91436000  1
  O  O9  1  0.63330100  0.80899900  0.74393300  1
  O  O10  1  0.58914000  0.17552400  0.73230200  1
  O  O11  1  0.28362100  0.95879800  0.76710800  1
  O  O12  1  0.23202200  0.64765700  0.75094800  1
  O  O13  1  0.12911500  0.32525300  0.73737400  1
  O  O14  1  0.75209400  0.66187100  0.60120600  1
  O  O15  1  0.69610100  0.31723700  0.58596400  1
  O  O16  1  0.36656300  0.35416500  0.61476000  1
  O  O17  1  0.47407900  0.06687900  0.56036200  1
  O  O18  1  0.20756000  0.81758700  0.59669800  1
  O  O19  1  0.95716300  0.96152500  0.43097400  1
  O  O20  1  0.90508300  0.65168000  0.42255500  1
  O  O21  1  0.09742700  0.14732000  0.58528500  1
  O  O22  1  0.04555300  0.45960500  0.56690400  1
  O  O23  1  0.79286700  0.33444300  0.40298700  1
  O  O24  1  0.52659000  0.56386800  0.44053700  1
  O  O25  1  0.63200500  0.85044100  0.38440800  1
  O  O26  1  0.29986000  0.80190400  0.41396600  1
  O  O27  1  0.25806800  0.18002300  0.39850600  1
  O  O28  1  0.87108900  0.81562200  0.26382700  1
  O  O29  1  0.76319800  0.14811800  0.25305900  1
  O  O30  1  0.71188200  0.45969000  0.23186900  1
  O  O31  1  0.41965600  0.66386100  0.26741100  1
  O  O32  1  0.36191400  0.31874000  0.25134700  1
  O  O33  1  0.96737700  0.80264400  0.08269800  1
  O  O34  1  0.03261800  0.35503200  0.28184500  1
  O  O35  1  0.92230500  0.18121700  0.06554600  1
  O  O36  1  0.14067800  0.06735400  0.22723600  1
  O  O37  1  0.62376900  0.96103400  0.09960900  1
  O  O38  1  0.57156300  0.65192300  0.08871800  1
  O  O39  1  0.46134400  0.33198400  0.06905100  1
  O  O40  1  0.19404000  0.56351800  0.10709200  1
  O  O41  1  0.29916100  0.85152500  0.05218300  1
loop_
_geom_bond_atom_site_label_1
_geom_bond_atom_site_label_2
_geom_bond_distance
_geom_bond_site_symmetry_2
Li0 O11 1.963620 1_545
Li0 O13 2.005309 1_555
Li0 O3 2.078319 1_555
Li0 O8 2.093881 1_555
Li1 O18 1.952120 1_555
Li1 O22 1.981774 1_555
Li1 O26 2.060061 1_555
Li1 O20 2.079521 1_455
Li2 O28 1.939929 1_555
Li2 O30 1.970442 1_555
Li2 O33 2.050121 1_555
Li2 O38 2.069876 1_555
Cr0 O2 1.992736 1_555
Cr0 O9 2.002385 1_555
Cr0 O10 2.006074 1_565
Cr0 O1 2.013221 1_565
Cr0 O3 2.046825 1_565
Cr0 O11 2.055761 1_555
Cr1 O27 1.982559 1_555
Cr1 O21 1.985455 1_555
Cr1 O17 1.989847 1_555
Cr1 O19 2.005732 1_445
Cr1 O18 2.053350 1_545
Cr1 O26 2.074293 1_545
Cr2 O29 1.982225 1_555
Cr2 O37 1.994093 1_545
Cr2 O36 1.995297 1_655
Cr2 O35 2.005213 1_555
Cr2 O28 2.050293 1_545
Cr2 O33 2.070593 1_545
O0 P1 1.601018 1_555
O0 P0 1.632179 1_555
O1 P0 1.527099 1_555
O2 P10 1.510612 1_556
O3 P1 1.527745 1_555
O4 P1 1.527007 1_555
O4 V0 1.958654 1_555
O5 P2 1.546340 1_555
O5 V0 1.942676 1_655
O6 P11 1.543094 1_556
O6 V0 1.910240 1_555
O7 P3 1.616247 1_655
O7 P2 1.621192 1_555
O8 P0 1.547380 1_455
O8 V0 2.014618 1_555
O9 P2 1.497356 1_555
O10 P4 1.515917 1_555
O11 P3 1.522929 1_555
O12 P3 1.540183 1_555
O12 V0 1.920349 1_555
O13 P5 1.551738 1_555
O13 V0 1.997821 1_555
O14 P2 1.543544 1_555
O14 V1 1.919528 1_555
O15 P4 1.537717 1_555
O15 V1 1.923705 1_555
O16 P5 1.601848 1_555
O16 P4 1.651197 1_555
O17 P4 1.517714 1_555
O18 P3 1.521892 1_555
O19 P6 1.501192 1_555
O20 P6 1.554355 1_555
O20 V1 2.011059 1_555
O21 P5 1.507301 1_555
O22 P5 1.542296 1_555
O22 V1 2.037272 1_455
O23 P8 1.543977 1_555
O23 V1 1.894474 1_555
O24 P7 1.545625 1_555
O24 V1 1.970014 1_555
O25 P7 1.599010 1_555
O25 P6 1.624202 1_555
O26 P7 1.517988 1_555
O27 P9 1.515113 1_555
O28 P6 1.530763 1_555
O29 P8 1.503552 1_555
O30 P8 1.546055 1_555
O30 V2 2.020036 1_555
O31 P7 1.539801 1_555
O31 V2 1.935676 1_555
O32 P9 1.536769 1_555
O32 V2 1.926328 1_555
O33 P11 1.517030 1_655
O34 P8 1.603566 1_455
O34 P9 1.652791 1_555
O35 P0 1.512221 1_554
O36 P9 1.517178 1_555
O37 P10 1.507780 1_555
O38 P10 1.559364 1_555
O38 V2 1.993873 1_555
O39 P1 1.544229 1_554
O39 V2 1.905115 1_555
O40 P11 1.544541 1_555
O40 V2 1.970805 1_555
O41 P11 1.592784 1_555
O41 P10 1.638312 1_555
