# generated using pymatgen
data_SrCa2I6
_symmetry_space_group_name_H-M   'P 1'
_cell_length_a   7.29812600
_cell_length_b   8.09377100
_cell_length_c   27.05966300
_cell_angle_alpha   90.00000000
_cell_angle_beta   90.00000000
_cell_angle_gamma   90.00000000
_symmetry_Int_Tables_number   1
_chemical_formula_structural   SrCa2I6
_chemical_formula_sum   'Sr4 Ca8 I24'
_cell_volume   1598.39699073
_cell_formula_units_Z   4
loop_
 _symmetry_equiv_pos_site_id
 _symmetry_equiv_pos_as_xyz
  1  'x, y, z'
loop_
 _atom_site_type_symbol
 _atom_site_label
 _atom_site_symmetry_multiplicity
 _atom_site_fract_x
 _atom_site_fract_y
 _atom_site_fract_z
 _atom_site_occupancy
  Sr  Sr0  1  0.00000000  0.25000000  0.37893000  1
  Sr  Sr1  1  0.00000000  0.75000000  0.62107000  1
  Sr  Sr2  1  0.50000000  0.25000000  0.87893000  1
  Sr  Sr3  1  0.50000000  0.75000000  0.12107000  1
  Ca  Ca0  1  0.00000000  0.25000000  0.04571700  1
  Ca  Ca1  1  0.00000000  0.75000000  0.28673700  1
  Ca  Ca2  1  0.00000000  0.25000000  0.71326300  1
  Ca  Ca3  1  0.00000000  0.75000000  0.95428300  1
  Ca  Ca4  1  0.50000000  0.25000000  0.21326300  1
  Ca  Ca5  1  0.50000000  0.75000000  0.78673700  1
  Ca  Ca6  1  0.50000000  0.25000000  0.54571700  1
  Ca  Ca7  1  0.50000000  0.75000000  0.45428300  1
  I  I0  1  0.23716400  0.57242500  0.03657700  1
  I  I1  1  0.23716400  0.07242500  0.96342300  1
  I  I2  1  0.24959900  0.56793400  0.20730200  1
  I  I3  1  0.24959900  0.06793400  0.79269800  1
  I  I4  1  0.24166200  0.59195200  0.37194600  1
  I  I5  1  0.24166200  0.09195200  0.62805400  1
  I  I6  1  0.25833800  0.09195200  0.12805400  1
  I  I7  1  0.25833800  0.59195200  0.87194600  1
  I  I8  1  0.25040100  0.06793400  0.29269800  1
  I  I9  1  0.25040100  0.56793400  0.70730200  1
  I  I10  1  0.26283600  0.07242500  0.46342300  1
  I  I11  1  0.26283600  0.57242500  0.53657700  1
  I  I12  1  0.73716400  0.92757500  0.53657700  1
  I  I13  1  0.73716400  0.42757500  0.46342300  1
  I  I14  1  0.74959900  0.43206600  0.29269800  1
  I  I15  1  0.74959900  0.93206600  0.70730200  1
  I  I16  1  0.74166200  0.90804800  0.87194600  1
  I  I17  1  0.74166200  0.40804800  0.12805400  1
  I  I18  1  0.75833800  0.90804800  0.37194600  1
  I  I19  1  0.75833800  0.40804800  0.62805400  1
  I  I20  1  0.75040100  0.93206600  0.20730200  1
  I  I21  1  0.75040100  0.43206600  0.79269800  1
  I  I22  1  0.76283600  0.92757500  0.03657700  1
  I  I23  1  0.76283600  0.42757500  0.96342300  1
loop_
_geom_bond_atom_site_label_1
_geom_bond_atom_site_label_2
_geom_bond_distance
_geom_bond_site_symmetry_2
Ca0 I0 3.141212 1_555
Ca0 I22 3.141212 1_445
Ca0 I1 3.165501 1_554
Ca0 I23 3.165501 1_454
Ca0 I17 3.186702 1_455
Ca0 I6 3.186702 1_555
Ca1 I8 3.160288 1_565
Ca1 I14 3.160288 1_455
Ca1 I18 3.172271 1_455
Ca1 I4 3.172271 1_555
Ca1 I20 3.179627 1_455
Ca1 I2 3.179627 1_555
Ca2 I9 3.160288 1_555
Ca2 I15 3.160288 1_445
Ca2 I19 3.172271 1_455
Ca2 I5 3.172271 1_555
Ca2 I21 3.179627 1_455
Ca2 I3 3.179627 1_555
Ca3 I1 3.141212 1_565
Ca3 I23 3.141212 1_455
Ca3 I0 3.165501 1_556
Ca3 I22 3.165501 1_456
Ca3 I7 3.186702 1_555
Ca3 I16 3.186702 1_455
Ca4 I2 3.160288 1_555
Ca4 I20 3.160288 1_545
Ca4 I17 3.172271 1_555
Ca4 I6 3.172271 1_555
Ca4 I8 3.179627 1_555
Ca4 I14 3.179627 1_555
Ca5 I3 3.160288 1_565
Ca5 I21 3.160288 1_555
Ca5 I16 3.172271 1_555
Ca5 I7 3.172271 1_555
Ca5 I15 3.179627 1_555
Ca5 I9 3.179627 1_555
Ca6 I11 3.141212 1_555
Ca6 I12 3.141212 1_545
Ca6 I13 3.165501 1_555
Ca6 I10 3.165501 1_555
Ca6 I19 3.186702 1_555
Ca6 I5 3.186702 1_555
Ca7 I13 3.141212 1_555
Ca7 I10 3.141212 1_565
Ca7 I12 3.165501 1_555
Ca7 I11 3.165501 1_555
Ca7 I18 3.186702 1_555
Ca7 I4 3.186702 1_555
I0 Sr3 3.312496 1_555
I1 Sr2 3.312496 1_555
I2 Sr3 3.309970 1_555
I3 Sr2 3.309970 1_555
I4 Sr0 3.287300 1_555
I5 Sr1 3.287300 1_545
I6 Sr3 3.287300 1_545
I7 Sr2 3.287300 1_555
I8 Sr0 3.309970 1_555
I9 Sr1 3.309970 1_555
I10 Sr0 3.312496 1_555
I11 Sr1 3.312496 1_555
I12 Sr1 3.312496 1_655
I13 Sr0 3.312496 1_655
I14 Sr0 3.309970 1_655
I15 Sr1 3.309970 1_655
I16 Sr2 3.287300 1_565
I17 Sr3 3.287300 1_555
I18 Sr0 3.287300 1_665
I19 Sr1 3.287300 1_655
I20 Sr3 3.309970 1_555
I21 Sr2 3.309970 1_555
I22 Sr3 3.312496 1_555
I23 Sr2 3.312496 1_555
