# generated using pymatgen
data_WN2
_symmetry_space_group_name_H-M   'P 1'
_cell_length_a   10.68110400
_cell_length_b   6.05683700
_cell_length_c   11.66953169
_cell_angle_alpha   66.97300406
_cell_angle_beta   90.00000000
_cell_angle_gamma   90.00000000
_symmetry_Int_Tables_number   1
_chemical_formula_structural   WN2
_chemical_formula_sum   'W12 N24'
_cell_volume   694.79170497
_cell_formula_units_Z   12
loop_
 _symmetry_equiv_pos_site_id
 _symmetry_equiv_pos_as_xyz
  1  'x, y, z'
loop_
 _atom_site_type_symbol
 _atom_site_label
 _atom_site_symmetry_multiplicity
 _atom_site_fract_x
 _atom_site_fract_y
 _atom_site_fract_z
 _atom_site_occupancy
  W  W0  1  0.31777100  0.75097100  0.58825400  1
  W  W1  1  0.00469500  0.58455900  0.69642800  1
  W  W2  1  0.65328000  0.11620900  0.17465000  1
  W  W3  1  0.15328000  0.88379100  0.32535000  1
  W  W4  1  0.50469500  0.41544100  0.80357200  1
  W  W5  1  0.81777100  0.24902900  0.91174600  1
  W  W6  1  0.18222900  0.75097100  0.08825400  1
  W  W7  1  0.49530500  0.58455900  0.19642800  1
  W  W8  1  0.84672000  0.11620900  0.67465000  1
  W  W9  1  0.34672000  0.88379100  0.82535000  1
  W  W10  1  0.99530500  0.41544100  0.30357200  1
  W  W11  1  0.68222900  0.24902900  0.41174600  1
  N  N0  1  0.67674300  0.42605400  0.83731300  1
  N  N1  1  0.41690600  0.57586900  0.88610500  1
  N  N2  1  0.30048600  0.87663400  0.41385100  1
  N  N3  1  0.96277400  0.44189400  0.86446900  1
  N  N4  1  0.04620400  0.09804700  0.35429900  1
  N  N5  1  0.67978700  0.01064300  0.34707200  1
  N  N6  1  0.46277400  0.55810600  0.63553100  1
  N  N7  1  0.54620400  0.90195300  0.14570100  1
  N  N8  1  0.17978700  0.98935700  0.15292800  1
  N  N9  1  0.91690600  0.42413100  0.61389500  1
  N  N10  1  0.80048600  0.12336600  0.08614900  1
  N  N11  1  0.17674300  0.57394600  0.66268700  1
  N  N12  1  0.82325700  0.42605400  0.33731300  1
  N  N13  1  0.45379600  0.09804700  0.85429900  1
  N  N14  1  0.19951400  0.87663400  0.91385100  1
  N  N15  1  0.53722600  0.44189400  0.36446900  1
  N  N16  1  0.08309400  0.57586900  0.38610500  1
  N  N17  1  0.82021300  0.01064300  0.84707200  1
  N  N18  1  0.32021300  0.98935700  0.65292800  1
  N  N19  1  0.03722600  0.55810600  0.13553100  1
  N  N20  1  0.95379600  0.90195300  0.64570100  1
  N  N21  1  0.58309400  0.42413100  0.11389500  1
  N  N22  1  0.69951400  0.12336600  0.58614900  1
  N  N23  1  0.32325700  0.57394600  0.16268700  1
loop_
_geom_bond_atom_site_label_1
_geom_bond_atom_site_label_2
_geom_bond_distance
_geom_bond_site_symmetry_2
N0 W5 1.855949 1_555
N0 W4 1.885728 1_555
N1 W4 1.866326 1_555
N1 W9 1.873111 1_555
N2 W3 1.872340 1_555
N2 W0 1.882440 1_555
N3 W1 1.861959 1_655
N3 W5 1.887729 1_555
N4 W3 1.857197 1_545
N4 W10 1.857777 1_455
N5 W11 1.872841 1_555
N5 W2 1.879092 1_555
N6 W4 1.861959 1_555
N6 W0 1.887729 1_555
N7 W2 1.857197 1_565
N7 W7 1.857777 1_555
N8 W6 1.872841 1_555
N8 W3 1.879092 1_555
N9 W1 1.866326 1_655
N9 W8 1.873111 1_555
N10 W2 1.872340 1_555
N10 W5 1.882440 1_554
N11 W0 1.855949 1_555
N11 W1 1.885728 1_555
N12 W11 1.855949 1_555
N12 W10 1.885728 1_555
N13 W9 1.857197 1_545
N13 W4 1.857777 1_555
N14 W9 1.872340 1_555
N14 W6 1.882440 1_556
N15 W7 1.861959 1_555
N15 W11 1.887729 1_555
N16 W10 1.866326 1_455
N16 W3 1.873111 1_555
N17 W5 1.872841 1_555
N17 W8 1.879092 1_555
N18 W0 1.872841 1_555
N18 W9 1.879092 1_555
N19 W10 1.861959 1_455
N19 W6 1.887729 1_555
N20 W8 1.857197 1_565
N20 W1 1.857777 1_655
N21 W7 1.866326 1_555
N21 W2 1.873111 1_555
N22 W8 1.872340 1_555
N22 W11 1.882440 1_555
N23 W6 1.855949 1_555
N23 W7 1.885728 1_555
