# generated using pymatgen
data_Li2NiOF2
_symmetry_space_group_name_H-M   'P 1'
_cell_length_a   2.93098900
_cell_length_b   2.93098900
_cell_length_c   12.45607800
_cell_angle_alpha   90.00000000
_cell_angle_beta   90.00000000
_cell_angle_gamma   90.00000000
_symmetry_Int_Tables_number   1
_chemical_formula_structural   Li2NiOF2
_chemical_formula_sum   'Li4 Ni2 O2 F4'
_cell_volume   107.00638590
_cell_formula_units_Z   2
loop_
 _symmetry_equiv_pos_site_id
 _symmetry_equiv_pos_as_xyz
  1  'x, y, z'
loop_
 _atom_site_type_symbol
 _atom_site_label
 _atom_site_symmetry_multiplicity
 _atom_site_fract_x
 _atom_site_fract_y
 _atom_site_fract_z
 _atom_site_occupancy
  Li  Li0  1  0.00000000  0.50000000  0.25399400  1
  Li  Li1  1  0.50000000  0.00000000  0.41996100  1
  Li  Li2  1  0.00000000  0.50000000  0.58003900  1
  Li  Li3  1  0.50000000  0.00000000  0.74600600  1
  Ni  Ni0  1  0.00000000  0.50000000  0.91695200  1
  Ni  Ni1  1  0.50000000  0.00000000  0.08304800  1
  O  O0  1  0.50000000  0.00000000  0.91369800  1
  O  O1  1  0.00000000  0.50000000  0.08630200  1
  F  F0  1  0.50000000  0.00000000  0.25848900  1
  F  F1  1  0.00000000  0.50000000  0.41895800  1
  F  F2  1  0.50000000  0.00000000  0.58104200  1
  F  F3  1  0.00000000  0.50000000  0.74151100  1
loop_
_geom_bond_atom_site_label_1
_geom_bond_atom_site_label_2
_geom_bond_distance
_geom_bond_site_symmetry_2
Li0 O1 2.088785 1_555
Li3 O0 2.088785 1_555
Ni0 O0 2.072919 1_455
Ni0 O0 2.072919 1_465
Ni0 O0 2.072919 1_555
Ni0 O0 2.072919 1_565
Ni0 O1 2.109437 1_556
Ni1 O1 2.072919 1_555
Ni1 O1 2.072919 1_645
Ni1 O1 2.072919 1_655
Ni1 O1 2.072919 1_545
Ni1 O0 2.109437 1_554
F0 Li1 2.011308 1_555
F0 Li0 2.073278 1_545
F0 Li0 2.073278 1_645
F0 Li0 2.073278 1_555
F0 Li0 2.073278 1_655
F0 Ni1 2.185307 1_555
F1 Li2 2.006438 1_555
F1 Li0 2.054804 1_555
F1 Li1 2.072560 1_565
F1 Li1 2.072560 1_455
F1 Li1 2.072560 1_555
F1 Li1 2.072560 1_465
F2 Li1 2.006438 1_555
F2 Li3 2.054804 1_555
F2 Li2 2.072560 1_555
F2 Li2 2.072560 1_655
F2 Li2 2.072560 1_545
F2 Li2 2.072560 1_645
F3 Li2 2.011308 1_555
F3 Li3 2.073278 1_565
F3 Li3 2.073278 1_465
F3 Li3 2.073278 1_455
F3 Li3 2.073278 1_555
F3 Ni0 2.185307 1_555
