# generated using pymatgen
data_V2O3F2
_symmetry_space_group_name_H-M   'P 1'
_cell_length_a   5.10159400
_cell_length_b   5.67092833
_cell_length_c   6.70762802
_cell_angle_alpha   103.83645213
_cell_angle_beta   108.59885180
_cell_angle_gamma   97.41802753
_symmetry_Int_Tables_number   1
_chemical_formula_structural   V2O3F2
_chemical_formula_sum   'V4 O6 F4'
_cell_volume   174.08097735
_cell_formula_units_Z   2
loop_
 _symmetry_equiv_pos_site_id
 _symmetry_equiv_pos_as_xyz
  1  'x, y, z'
loop_
 _atom_site_type_symbol
 _atom_site_label
 _atom_site_symmetry_multiplicity
 _atom_site_fract_x
 _atom_site_fract_y
 _atom_site_fract_z
 _atom_site_occupancy
  V  V0  1  0.80625200  0.33934300  0.77633300  1
  V  V1  1  0.58633100  0.21329000  0.17931000  1
  V  V2  1  0.41366900  0.78671000  0.82069000  1
  V  V3  1  0.19374800  0.66065700  0.22366700  1
  O  O0  1  0.86729600  0.38897200  0.08997600  1
  O  O1  1  0.68574100  0.88762200  0.07578500  1
  O  O2  1  0.47206900  0.52320100  0.28781900  1
  O  O3  1  0.52793100  0.47679900  0.71218100  1
  O  O4  1  0.31425900  0.11237800  0.92421500  1
  O  O5  1  0.13270400  0.61102800  0.91002400  1
  F  F0  1  0.85771100  0.26117700  0.48576600  1
  F  F1  1  0.67585700  0.98078400  0.70571100  1
  F  F2  1  0.32414300  0.01921600  0.29428900  1
  F  F3  1  0.14228900  0.73882300  0.51423400  1
loop_
_geom_bond_atom_site_label_1
_geom_bond_atom_site_label_2
_geom_bond_distance
_geom_bond_site_symmetry_2
O0 V3 1.917166 1_655
O0 V1 1.967451 1_555
O0 V0 1.969370 1_554
O1 V2 1.730153 1_554
O1 V1 2.000827 1_565
O2 V3 1.692733 1_555
O2 V1 1.970185 1_555
O3 V0 1.692733 1_555
O3 V2 1.970185 1_555
O4 V1 1.730153 1_556
O4 V2 2.000827 1_545
O5 V0 1.917166 1_455
O5 V2 1.967451 1_555
O5 V3 1.969370 1_556
F0 V0 2.001817 1_555
F0 V1 2.009113 1_555
F1 V0 1.946918 1_565
F1 V2 2.068596 1_555
F2 V3 1.946918 1_545
F2 V1 2.068596 1_555
F3 V3 2.001817 1_555
F3 V2 2.009113 1_555
