# generated using pymatgen
data_Li5V3P8O29
_symmetry_space_group_name_H-M   'P 1'
_cell_length_a   9.79849300
_cell_length_b   9.80320694
_cell_length_c   14.01483084
_cell_angle_alpha   90.15430711
_cell_angle_beta   90.02110751
_cell_angle_gamma   119.74804055
_symmetry_Int_Tables_number   1
_chemical_formula_structural   Li5V3P8O29
_chemical_formula_sum   'Li10 V6 P16 O58'
_cell_volume   1168.80102069
_cell_formula_units_Z   2
loop_
 _symmetry_equiv_pos_site_id
 _symmetry_equiv_pos_as_xyz
  1  'x, y, z'
loop_
 _atom_site_type_symbol
 _atom_site_label
 _atom_site_symmetry_multiplicity
 _atom_site_fract_x
 _atom_site_fract_y
 _atom_site_fract_z
 _atom_site_occupancy
  Li  Li0  1  0.67466300  0.77016800  0.43826100  1
  Li  Li1  1  0.22729500  0.91426200  0.43794200  1
  Li  Li2  1  0.09363400  0.76551100  0.94424900  1
  Li  Li3  1  0.23094300  0.33361400  0.94178700  1
  Li  Li4  1  0.90898200  0.68357200  0.55574500  1
  Li  Li5  1  0.09583000  0.32422600  0.43863300  1
  Li  Li6  1  0.66410800  0.33629600  0.88913800  1
  Li  Li7  1  0.77197600  0.09277200  0.55998900  1
  Li  Li8  1  0.32539300  0.09213500  0.06329000  1
  Li  Li9  1  0.93277600  0.97072000  0.00107400  1
  V  V0  1  0.00567800  0.56902200  0.75023800  1
  V  V1  1  0.99919600  0.43037100  0.24629600  1
  V  V2  1  0.56828800  0.56478800  0.24508200  1
  V  V3  1  0.43468700  0.43312100  0.74795600  1
  V  V4  1  0.56974700  0.99731400  0.75228700  1
  V  V5  1  0.43401300  0.99910800  0.25106300  1
  P  P0  1  0.68829700  0.91381500  0.15866000  1
  P  P1  1  0.68047200  0.76583800  0.65773100  1
  P  P2  1  0.23312900  0.91423200  0.65799800  1
  P  P3  1  0.33523200  0.66500200  0.87163300  1
  P  P4  1  0.33388400  0.66523200  0.37040300  1
  P  P5  1  0.08835500  0.77228700  0.15717900  1
  P  P6  1  0.91252900  0.68060500  0.33921000  1
  P  P7  1  0.22906000  0.31429100  0.15781200  1
  P  P8  1  0.77753200  0.68932300  0.84298800  1
  P  P9  1  0.08732600  0.31469600  0.65625700  1
  P  P10  1  0.91274700  0.22461700  0.84042100  1
  P  P11  1  0.67160900  0.33543600  0.62924800  1
  P  P12  1  0.66355700  0.32909500  0.12784200  1
  P  P13  1  0.76916200  0.08813400  0.34199600  1
  P  P14  1  0.31726700  0.23172200  0.34247000  1
  P  P15  1  0.31620300  0.08946900  0.84271500  1
  O  O0  1  0.75333600  0.99973400  0.43302100  1
  O  O1  1  0.66939500  0.91818200  0.66062100  1
  O  O2  1  0.79636700  0.79017200  0.92576900  1
  O  O3  1  0.65539900  0.74059000  0.16910600  1
  O  O4  1  0.53411400  0.91539600  0.16840400  1
  O  O5  1  0.47943800  0.80787300  0.82879100  1
  O  O6  1  0.38489900  0.90833400  0.67959700  1
  O  O7  1  0.23180300  0.99660200  0.93037200  1
  O  O8  1  0.25688300  0.91823100  0.16476800  1
  O  O9  1  0.48588400  0.66824900  0.32781800  1
  O  O10  1  0.51899000  0.62178800  0.67611900  1
  O  O11  1  0.32854200  0.81326000  0.33013300  1
  O  O12  1  0.31327400  0.65663100  0.97695200  1
  O  O13  1  0.34141400  0.67136500  0.47697700  1
  O  O14  1  0.18349400  0.66759600  0.82685400  1
  O  O15  1  0.38295800  0.47363300  0.17216200  1
  O  O16  1  0.33057300  0.51188100  0.83179900  1
  O  O17  1  0.08536500  0.74398700  0.66332000  1
  O  O18  1  0.99853200  0.79194100  0.24921700  1
  O  O19  1  0.99994800  0.75929600  0.42939200  1
  O  O20  1  0.01319400  0.78479600  0.06700600  1
  O  O21  1  0.09344500  0.62085200  0.17076800  1
  O  O22  1  0.18586600  0.51329100  0.33202100  1
  O  O23  1  0.92194600  0.65886300  0.83865400  1
  O  O24  1  0.09294400  0.47382900  0.68123100  1
  O  O25  1  0.25198500  0.33869700  0.66075600  1
  O  O26  1  0.79579500  0.78394000  0.74486000  1
  O  O27  1  0.75443800  0.75328000  0.56634300  1
  O  O28  1  0.23172400  0.24156500  0.42661100  1
  O  O29  1  0.74488600  0.66019700  0.33946000  1
  O  O30  1  0.90535300  0.52247300  0.32150700  1
  O  O31  1  0.08794000  0.34158300  0.16356700  1
  O  O32  1  0.82166500  0.48652300  0.67498000  1
  O  O33  1  0.90203500  0.37827300  0.83037300  1
  O  O34  1  0.00514000  0.21971100  0.92317900  1
  O  O35  1  0.99809500  0.24905500  0.56520600  1
  O  O36  1  0.98805600  0.20145400  0.74304800  1
  O  O37  1  0.91626400  0.25284400  0.34121300  1
  O  O38  1  0.66507400  0.48082900  0.17305600  1
  O  O39  1  0.62649000  0.52653500  0.83499700  1
  O  O40  1  0.80699000  0.32648100  0.16995200  1
  O  O41  1  0.65977800  0.33824600  0.02106000  1
  O  O42  1  0.67943100  0.35141500  0.52385900  1
  O  O43  1  0.67369500  0.18625500  0.66591900  1
  O  O44  1  0.47581100  0.38325100  0.32216000  1
  O  O45  1  0.52809800  0.33963300  0.67816700  1
  O  O46  1  0.74120000  0.08708500  0.83775400  1
  O  O47  1  0.79092900  0.99553300  0.25467300  1
  O  O48  1  0.78658400  0.99161500  0.07427800  1
  O  O49  1  0.61971900  0.09969500  0.32224400  1
  O  O50  1  0.50815400  0.18556300  0.16390000  1
  O  O51  1  0.48174600  0.10952600  0.82914900  1
  O  O52  1  0.33149000  0.25335800  0.84329200  1
  O  O53  1  0.23185400  0.23388300  0.06653100  1
  O  O54  1  0.21247300  0.20399700  0.24567400  1
  O  O55  1  0.34039800  0.08666700  0.34267600  1
  O  O56  1  0.23486300  0.98827800  0.56604400  1
  O  O57  1  0.21048800  0.00209300  0.74909600  1
loop_
_geom_bond_atom_site_label_1
_geom_bond_atom_site_label_2
_geom_bond_distance
_geom_bond_site_symmetry_2
Li0 O0 1.985859 1_555
Li0 O27 1.997401 1_555
Li0 O29 2.069257 1_555
Li0 O9 2.229609 1_555
Li1 O56 1.922154 1_555
Li1 O19 1.981195 1_455
Li1 O55 2.005434 1_565
Li1 O11 2.283708 1_555
Li2 O20 1.940090 1_556
Li2 O7 1.990432 1_555
Li2 O23 2.087500 1_455
Li2 O14 2.287977 1_555
Li3 O34 1.938151 1_555
Li3 O53 2.007545 1_556
Li3 O52 2.063852 1_555
Li3 O16 2.169281 1_555
Li4 O27 1.951585 1_555
Li4 O19 1.957791 1_555
Li4 O17 2.142014 1_655
Li4 O32 2.373663 1_555
Li5 O28 1.878378 1_555
Li5 O35 1.978593 1_455
Li5 O37 2.054456 1_455
Li5 O22 2.199832 1_555
Li6 O41 1.849632 1_556
Li6 O39 2.208902 1_555
Li6 O51 2.211013 1_555
Li6 O33 2.309524 1_555
Li7 O0 1.964008 1_545
Li7 O35 1.972880 1_555
Li7 O1 2.058050 1_545
Li7 O43 2.200174 1_555
Li8 O53 2.009141 1_555
Li8 O8 2.063429 1_545
Li8 O7 2.079717 1_544
Li8 O50 2.097017 1_555
Li9 O48 1.854075 1_555
Li9 O2 1.916844 1_554
Li9 O34 2.439254 1_664
Li9 O20 2.496112 1_655
O0 P13 1.508376 1_565
O1 P1 1.550607 1_555
O1 V4 1.988158 1_555
O2 P8 1.473109 1_555
O3 P0 1.570744 1_555
O3 V2 1.839364 1_555
O4 P0 1.524685 1_555
O4 V5 1.942168 1_555
O5 P3 1.536213 1_555
O5 V4 1.939627 1_555
O6 P2 1.546474 1_555
O6 V4 1.872234 1_555
O7 P15 1.510486 1_565
O8 P5 1.561929 1_555
O8 V5 1.931663 1_555
O9 P4 1.591330 1_555
O9 V2 1.957605 1_555
O10 P1 1.532670 1_555
O10 V3 1.900331 1_555
O11 P4 1.583308 1_555
O11 V5 1.938710 1_555
O12 P3 1.488304 1_555
O13 P4 1.494986 1_555
O14 P3 1.625422 1_555
O14 V0 1.855984 1_555
O15 P7 1.554015 1_555
O15 V2 1.877224 1_555
O16 P3 1.579380 1_555
O16 V3 1.948141 1_555
O17 P2 1.577982 1_555
O17 V0 1.928319 1_555
O18 P6 1.608593 1_555
O18 P5 1.625843 1_655
O19 P6 1.504802 1_555
O20 P5 1.498091 1_555
O21 P5 1.522378 1_555
O21 V1 1.939135 1_455
O22 P4 1.569327 1_555
O22 V1 1.991826 1_455
O23 P8 1.585709 1_555
O23 V0 1.922558 1_655
O24 P9 1.571942 1_555
O24 V0 1.823444 1_555
O25 P9 1.511805 1_555
O25 V3 1.975602 1_555
O26 P1 1.611916 1_555
O26 P8 1.620497 1_555
O27 P1 1.506393 1_555
O28 P14 1.477437 1_555
O29 P6 1.553130 1_555
O29 V2 2.001030 1_555
O30 P6 1.536023 1_555
O30 V1 1.895069 1_555
O31 P7 1.535325 1_555
O31 V1 1.898533 1_455
O32 P11 1.612282 1_555
O32 V0 1.887969 1_655
O33 P10 1.567764 1_555
O33 V0 1.979134 1_655
O34 P10 1.486562 1_455
O35 P9 1.497764 1_655
O36 P9 1.610785 1_655
O36 P10 1.619799 1_555
O37 P13 1.541229 1_555
O37 V1 2.017050 1_555
O38 P12 1.608516 1_555
O38 V2 1.834833 1_555
O39 P8 1.550715 1_555
O39 V3 2.035464 1_555
O40 P12 1.536030 1_555
O40 V1 1.954010 1_555
O41 P12 1.501001 1_555
O42 P11 1.483706 1_555
O43 P11 1.561096 1_555
O43 V4 2.018445 1_545
O44 P14 1.553550 1_555
O44 V2 1.888359 1_555
O45 P11 1.583375 1_555
O45 V3 1.860809 1_555
O46 P10 1.547676 1_555
O46 V4 1.886057 1_545
O47 P13 1.598012 1_565
O47 P0 1.630168 1_555
O48 P0 1.478009 1_555
O49 P13 1.548631 1_555
O49 V5 1.868519 1_545
O50 P12 1.559506 1_555
O50 V5 2.013949 1_545
O51 P15 1.545914 1_555
O51 V4 2.012358 1_545
O52 P15 1.537821 1_555
O52 V3 2.039251 1_555
O53 P7 1.508206 1_555
O54 P7 1.595208 1_555
O54 P14 1.639688 1_555
O55 P14 1.547040 1_555
O55 V5 2.000746 1_545
O56 P2 1.476759 1_555
O57 P2 1.614007 1_545
O57 P15 1.624996 1_555
