# generated using pymatgen
data_Mn4O7F
_symmetry_space_group_name_H-M   'P 1'
_cell_length_a   4.48349388
_cell_length_b   5.52049842
_cell_length_c   4.97511328
_cell_angle_alpha   89.96255933
_cell_angle_beta   89.92249782
_cell_angle_gamma   88.57627466
_symmetry_Int_Tables_number   1
_chemical_formula_structural   Mn4O7F
_chemical_formula_sum   'Mn4 O7 F1'
_cell_volume   123.10147923
_cell_formula_units_Z   1
loop_
 _symmetry_equiv_pos_site_id
 _symmetry_equiv_pos_as_xyz
  1  'x, y, z'
loop_
 _atom_site_type_symbol
 _atom_site_label
 _atom_site_symmetry_multiplicity
 _atom_site_fract_x
 _atom_site_fract_y
 _atom_site_fract_z
 _atom_site_occupancy
  Mn  Mn0  1  0.00977600  0.85485000  0.73574200  1
  Mn  Mn1  1  0.00836000  0.16273700  0.25348700  1
  Mn  Mn2  1  0.50315300  0.35496700  0.75553100  1
  Mn  Mn3  1  0.49025300  0.63661900  0.25746600  1
  O  O0  1  0.23229200  0.11216700  0.92009500  1
  O  O1  1  0.23199100  0.88588100  0.41691700  1
  O  O2  1  0.27364600  0.39074100  0.42883300  1
  O  O3  1  0.26278100  0.61115100  0.92237100  1
  O  O4  1  0.73122900  0.38850600  0.08204100  1
  O  O5  1  0.73132100  0.61139700  0.57966400  1
  O  O6  1  0.76718900  0.11231400  0.57495100  1
  F  F0  1  0.75801000  0.87867300  0.07290200  1
loop_
_geom_bond_atom_site_label_1
_geom_bond_atom_site_label_2
_geom_bond_distance
_geom_bond_site_symmetry_2
Mn0 O1 1.881970 1_555
Mn0 O6 1.940904 1_465
Mn0 O3 1.970831 1_555
Mn0 O0 1.982168 1_565
Mn0 O5 2.013764 1_455
Mn1 O4 1.936316 1_455
Mn1 O6 1.952995 1_455
Mn1 O0 1.954299 1_554
Mn1 O2 1.959251 1_555
Mn1 O1 1.981614 1_545
Mn2 O4 1.932096 1_556
Mn2 O2 1.932260 1_555
Mn2 O3 1.942665 1_555
Mn2 O5 1.970778 1_555
Mn2 O6 1.980620 1_555
Mn2 O0 2.004610 1_555
Mn3 O2 1.890562 1_555
Mn3 O4 1.931470 1_555
Mn3 O5 1.937526 1_555
Mn3 O1 1.945084 1_555
Mn3 O3 1.962466 1_554
F0 Mn0 2.023106 1_654
F0 Mn3 2.035934 1_555
F0 Mn1 2.149015 1_665
