# generated using pymatgen
data_Cr(PO4)2
_symmetry_space_group_name_H-M   'P 1'
_cell_length_a   5.17970455
_cell_length_b   5.17970455
_cell_length_c   13.34617724
_cell_angle_alpha   76.68555053
_cell_angle_beta   76.68555053
_cell_angle_gamma   57.03221483
_symmetry_Int_Tables_number   1
_chemical_formula_structural   Cr(PO4)2
_chemical_formula_sum   'Cr2 P4 O16'
_cell_volume   289.91016685
_cell_formula_units_Z   2
loop_
 _symmetry_equiv_pos_site_id
 _symmetry_equiv_pos_as_xyz
  1  'x, y, z'
loop_
 _atom_site_type_symbol
 _atom_site_label
 _atom_site_symmetry_multiplicity
 _atom_site_fract_x
 _atom_site_fract_y
 _atom_site_fract_z
 _atom_site_occupancy
  Cr  Cr0  1  0.00000000  0.00000000  0.00000000  1
  Cr  Cr1  1  0.00000000  0.00000000  0.50000000  1
  P  P0  1  0.66441000  0.60117900  0.61250500  1
  P  P1  1  0.60117900  0.66441000  0.11250500  1
  P  P2  1  0.39882100  0.33559000  0.88749500  1
  P  P3  1  0.33559000  0.39882100  0.38749500  1
  O  O0  1  0.84366600  0.24787100  0.61031500  1
  O  O1  1  0.77154200  0.41103600  0.04238900  1
  O  O2  1  0.66019700  0.51060400  0.23294000  1
  O  O3  1  0.88590400  0.71695100  0.59647700  1
  O  O4  1  0.71695100  0.88590400  0.09647700  1
  O  O5  1  0.51060400  0.66019700  0.73294000  1
  O  O6  1  0.41103600  0.77154200  0.54238900  1
  O  O7  1  0.75212900  0.15633400  0.88968500  1
  O  O8  1  0.24787100  0.84366600  0.11031500  1
  O  O9  1  0.58896400  0.22845800  0.45761100  1
  O  O10  1  0.48939600  0.33980300  0.26706000  1
  O  O11  1  0.28304900  0.11409600  0.90352300  1
  O  O12  1  0.11409600  0.28304900  0.40352300  1
  O  O13  1  0.33980300  0.48939600  0.76706000  1
  O  O14  1  0.22845800  0.58896400  0.95761100  1
  O  O15  1  0.15633400  0.75212900  0.38968500  1
loop_
_geom_bond_atom_site_label_1
_geom_bond_atom_site_label_2
_geom_bond_distance
_geom_bond_site_symmetry_2
Cr0 O8 1.913572 1_545
Cr0 O7 1.913572 1_454
Cr0 O1 1.938470 1_455
Cr0 O14 1.938470 1_544
Cr0 O11 1.969687 1_554
Cr0 O4 1.969687 1_445
Cr1 O0 1.913572 1_455
Cr1 O15 1.913572 1_545
Cr1 O6 1.938470 1_545
Cr1 O9 1.938470 1_455
Cr1 O3 1.969687 1_445
Cr1 O12 1.969687 1_555
O0 P0 1.541051 1_555
O1 P1 1.517131 1_555
O2 P1 1.638036 1_555
O3 P0 1.515990 1_555
O4 P1 1.515990 1_555
O5 P0 1.638036 1_555
O6 P0 1.517131 1_555
O7 P2 1.541051 1_555
O8 P1 1.541051 1_555
O9 P3 1.517131 1_555
O10 P3 1.638036 1_555
O11 P2 1.515990 1_555
O12 P3 1.515990 1_555
O13 P2 1.638036 1_555
O14 P2 1.517131 1_555
O15 P3 1.541051 1_555
