# generated using pymatgen
data_TbNiO3
_symmetry_space_group_name_H-M   'P 1'
_cell_length_a   5.17983298
_cell_length_b   5.49717878
_cell_length_c   7.41193760
_cell_angle_alpha   90.00000000
_cell_angle_beta   90.00000000
_cell_angle_gamma   90.00000000
_symmetry_Int_Tables_number   1
_chemical_formula_structural   TbNiO3
_chemical_formula_sum   'Tb4 Ni4 O12'
_cell_volume   211.05097958
_cell_formula_units_Z   4
loop_
 _symmetry_equiv_pos_site_id
 _symmetry_equiv_pos_as_xyz
  1  'x, y, z'
loop_
 _atom_site_type_symbol
 _atom_site_label
 _atom_site_symmetry_multiplicity
 _atom_site_fract_x
 _atom_site_fract_y
 _atom_site_fract_z
 _atom_site_occupancy
  Tb  Tb0  1  0.01829304  0.92895588  0.25000000  1
  Tb  Tb1  1  0.48170696  0.42895588  0.25000000  1
  Tb  Tb2  1  0.51829304  0.57104412  0.75000000  1
  Tb  Tb3  1  0.98170696  0.07104412  0.75000000  1
  Ni  Ni0  1  -0.00000000  0.50000000  -0.00000000  1
  Ni  Ni1  1  -0.00000000  0.50000000  0.50000000  1
  Ni  Ni2  1  0.50000000  -0.00000000  -0.00000000  1
  Ni  Ni3  1  0.50000000  -0.00000000  0.50000000  1
  O  O0  1  0.09511571  0.47576838  0.75000000  1
  O  O1  1  0.19768351  0.19803909  0.45180915  1
  O  O2  1  0.19768351  0.19803909  0.04819085  1
  O  O3  1  0.30231649  0.69803909  0.45180915  1
  O  O4  1  0.30231649  0.69803909  0.04819085  1
  O  O5  1  0.40488429  0.97576838  0.75000000  1
  O  O6  1  0.59511571  0.02423162  0.25000000  1
  O  O7  1  0.69768351  0.30196091  0.95180915  1
  O  O8  1  0.69768351  0.30196091  0.54819085  1
  O  O9  1  0.80231649  0.80196091  0.95180915  1
  O  O10  1  0.80231649  0.80196091  0.54819085  1
  O  O11  1  0.90488429  0.52423162  0.25000000  1
loop_
_geom_bond_atom_site_label_1
_geom_bond_atom_site_label_2
_geom_bond_distance
_geom_bond_site_symmetry_2
Ni0 O11 1.921986 1_455
Ni0 O0 1.921986 1_554
Ni0 O4 1.940348 1_555
Ni0 O7 1.940348 1_454
Ni0 O9 1.982794 1_454
Ni0 O2 1.982794 1_555
Ni1 O11 1.921986 1_455
Ni1 O0 1.921986 1_555
Ni1 O3 1.940348 1_555
Ni1 O8 1.940348 1_455
Ni1 O10 1.982794 1_455
Ni1 O1 1.982794 1_555
Ni2 O6 1.921986 1_555
Ni2 O5 1.921986 1_544
Ni2 O2 1.940348 1_555
Ni2 O9 1.940348 1_544
Ni2 O7 1.982794 1_554
Ni2 O4 1.982794 1_545
Ni3 O6 1.921986 1_555
Ni3 O5 1.921986 1_545
Ni3 O1 1.940348 1_555
Ni3 O10 1.940348 1_545
Ni3 O8 1.982794 1_555
Ni3 O3 1.982794 1_545
O0 Tb2 2.253691 1_555
O0 Tb3 2.301088 1_455
O1 Tb0 2.299755 1_545
O1 Tb1 2.452177 1_555
O1 Tb3 2.573667 1_455
O2 Tb0 2.299755 1_545
O2 Tb1 2.452177 1_555
O2 Tb3 2.573667 1_454
O3 Tb1 2.299755 1_555
O3 Tb0 2.452177 1_555
O3 Tb2 2.573667 1_555
O4 Tb1 2.299755 1_555
O4 Tb0 2.452177 1_555
O4 Tb2 2.573667 1_554
O5 Tb3 2.253691 1_465
O5 Tb2 2.301088 1_555
O6 Tb0 2.253691 1_645
O6 Tb1 2.301088 1_555
O7 Tb2 2.299755 1_555
O7 Tb3 2.452177 1_555
O7 Tb1 2.573667 1_556
O8 Tb2 2.299755 1_555
O8 Tb3 2.452177 1_555
O8 Tb1 2.573667 1_555
O9 Tb3 2.299755 1_565
O9 Tb2 2.452177 1_555
O9 Tb0 2.573667 1_656
O10 Tb3 2.299755 1_565
O10 Tb2 2.452177 1_555
O10 Tb0 2.573667 1_655
O11 Tb1 2.253691 1_555
O11 Tb0 2.301088 1_655
