# generated using pymatgen
data_CoH18C4N8(ClO)4
_symmetry_space_group_name_H-M   'P 1'
_cell_length_a   11.41147600
_cell_length_b   6.50136900
_cell_length_c   11.94078527
_cell_angle_alpha   71.63787859
_cell_angle_beta   90.00000000
_cell_angle_gamma   90.00000000
_symmetry_Int_Tables_number   1
_chemical_formula_structural   CoH18C4N8(ClO)4
_chemical_formula_sum   'Co2 H36 C8 N16 Cl8 O8'
_cell_volume   840.78392207
_cell_formula_units_Z   2
loop_
 _symmetry_equiv_pos_site_id
 _symmetry_equiv_pos_as_xyz
  1  'x, y, z'
loop_
 _atom_site_type_symbol
 _atom_site_label
 _atom_site_symmetry_multiplicity
 _atom_site_fract_x
 _atom_site_fract_y
 _atom_site_fract_z
 _atom_site_occupancy
  Co  Co0  1  0.00000000  0.00000000  0.50000000  1
  Co  Co1  1  0.50000000  0.00000000  0.00000000  1
  H  H0  1  0.78861000  0.21702900  0.49447600  1
  H  H1  1  0.71139000  0.21702900  0.99447600  1
  H  H2  1  0.21139000  0.78297100  0.50552400  1
  H  H3  1  0.28861000  0.78297100  0.00552400  1
  H  H4  1  0.89538400  0.36313500  0.50320300  1
  H  H5  1  0.60461600  0.36313500  0.00320300  1
  H  H6  1  0.10461600  0.63686500  0.49679700  1
  H  H7  1  0.39538400  0.63686500  0.99679700  1
  H  H8  1  0.70959300  0.20516500  0.78849800  1
  H  H9  1  0.79040700  0.20516500  0.28849800  1
  H  H10  1  0.29040700  0.79483500  0.21150200  1
  H  H11  1  0.20959300  0.79483500  0.71150200  1
  H  H12  1  0.82390000  0.18283100  0.69252900  1
  H  H13  1  0.67610000  0.18283100  0.19252900  1
  H  H14  1  0.17610000  0.81716900  0.30747100  1
  H  H15  1  0.32390000  0.81716900  0.80747100  1
  H  H16  1  0.00671800  0.16828200  0.74211300  1
  H  H17  1  0.49328200  0.16828200  0.24211300  1
  H  H18  1  0.99328200  0.83171800  0.25788700  1
  H  H19  1  0.50671800  0.83171800  0.75788700  1
  H  H20  1  0.26794000  0.26353500  0.86162800  1
  H  H21  1  0.23206000  0.26353500  0.36162800  1
  H  H22  1  0.73206000  0.73646500  0.13837200  1
  H  H23  1  0.76794000  0.73646500  0.63837200  1
  H  H24  1  0.19317500  0.22498900  0.73924200  1
  H  H25  1  0.30682500  0.22498900  0.23924200  1
  H  H26  1  0.80682500  0.77501100  0.26075800  1
  H  H27  1  0.69317500  0.77501100  0.76075800  1
  H  H28  1  0.15733300  0.31531700  0.01444300  1
  H  H29  1  0.34266700  0.31531700  0.51444300  1
  H  H30  1  0.84266700  0.68468300  0.98555700  1
  H  H31  1  0.65733300  0.68468300  0.48555700  1
  H  H32  1  0.00033200  0.29453000  0.00907200  1
  H  H33  1  0.49966800  0.29453000  0.50907200  1
  H  H34  1  0.99966800  0.70547000  0.99092800  1
  H  H35  1  0.50033200  0.70547000  0.49092800  1
  C  C0  1  0.87522900  0.22743200  0.84882500  1
  C  C1  1  0.62477100  0.22743200  0.34882500  1
  C  C2  1  0.12477100  0.77256800  0.15117500  1
  C  C3  1  0.37522900  0.77256800  0.65117500  1
  C  C4  1  0.08921100  0.25195000  0.87208500  1
  C  C5  1  0.41078900  0.25195000  0.37208500  1
  C  C6  1  0.91078900  0.74805000  0.12791500  1
  C  C7  1  0.58921100  0.74805000  0.62791500  1
  N  N0  1  0.79735500  0.20138400  0.77110900  1
  N  N1  1  0.70264500  0.20138400  0.27110900  1
  N  N2  1  0.20264500  0.79861600  0.22889100  1
  N  N3  1  0.29735500  0.79861600  0.72889100  1
  N  N4  1  0.99162600  0.21535300  0.81534000  1
  N  N5  1  0.50837400  0.21535300  0.31534000  1
  N  N6  1  0.00837400  0.78464700  0.18466000  1
  N  N7  1  0.49162600  0.78464700  0.68466000  1
  N  N8  1  0.19186600  0.23889500  0.82229800  1
  N  N9  1  0.30813400  0.23889500  0.32229800  1
  N  N10  1  0.80813400  0.76110500  0.17770200  1
  N  N11  1  0.69186600  0.76110500  0.67770200  1
  N  N12  1  0.08146800  0.29639100  0.97309700  1
  N  N13  1  0.41853200  0.29639100  0.47309700  1
  N  N14  1  0.91853200  0.70360900  0.02690300  1
  N  N15  1  0.58146800  0.70360900  0.52690300  1
  Cl  Cl0  1  0.99933300  0.79643900  0.70467600  1
  Cl  Cl1  1  0.50066700  0.79643900  0.20467600  1
  Cl  Cl2  1  0.00066700  0.20356100  0.29532400  1
  Cl  Cl3  1  0.49933300  0.20356100  0.79532400  1
  Cl  Cl4  1  0.13804900  0.27065800  0.54493000  1
  Cl  Cl5  1  0.36195100  0.27065800  0.04493000  1
  Cl  Cl6  1  0.86195100  0.72934200  0.45507000  1
  Cl  Cl7  1  0.63804900  0.72934200  0.95507000  1
  O  O0  1  0.86803700  0.21115500  0.53192200  1
  O  O1  1  0.63196300  0.21115500  0.03192200  1
  O  O2  1  0.13196300  0.78884500  0.46807800  1
  O  O3  1  0.36803700  0.78884500  0.96807800  1
  O  O4  1  0.84965700  0.25814300  0.94495500  1
  O  O5  1  0.65034300  0.25814300  0.44495500  1
  O  O6  1  0.15034300  0.74185700  0.05504500  1
  O  O7  1  0.34965700  0.74185700  0.55504500  1
loop_
_geom_bond_atom_site_label_1
_geom_bond_atom_site_label_2
_geom_bond_distance
_geom_bond_site_symmetry_2
Co0 O2 2.151107 1_545
Co0 O0 2.151107 1_455
Co1 O3 2.151107 1_544
Co1 O1 2.151107 1_555
H0 O0 1.006058 1_555
H0 O5 1.676625 1_555
H1 O1 1.006058 1_556
H1 O4 1.676625 1_555
H2 O2 1.006058 1_555
H2 O7 1.676625 1_555
H3 O3 1.006058 1_554
H3 O6 1.676625 1_555
H4 O0 0.988839 1_555
H5 O1 0.988839 1_555
H6 O2 0.988839 1_555
H7 O3 0.988839 1_555
H8 N0 1.024658 1_555
H9 N1 1.024658 1_555
H10 N2 1.024658 1_555
H11 N3 1.024658 1_555
H12 N0 1.028609 1_555
H13 N1 1.028609 1_555
H14 N2 1.028609 1_555
H15 N3 1.028609 1_555
H16 N4 1.027841 1_455
H17 N5 1.027841 1_555
H18 N6 1.027841 1_655
H19 N7 1.027841 1_555
H20 N8 1.023348 1_555
H21 N9 1.023348 1_555
H22 N10 1.023348 1_555
H23 N11 1.023348 1_555
H24 N8 1.023945 1_555
H25 N9 1.023945 1_555
H26 N10 1.023945 1_555
H27 N11 1.023945 1_555
H28 N12 1.023058 1_554
H29 N13 1.023058 1_555
H30 N14 1.023058 1_556
H31 N15 1.023058 1_555
H32 N12 1.019146 1_554
H33 N13 1.019146 1_555
H34 N14 1.019146 1_556
H35 N15 1.019146 1_555
C0 O4 1.259770 1_555
C0 N0 1.333630 1_555
C0 N4 1.396459 1_555
C1 O5 1.259770 1_555
C1 N1 1.333630 1_555
C1 N5 1.396459 1_555
C2 O6 1.259770 1_555
C2 N2 1.333630 1_555
C2 N6 1.396459 1_555
C3 O7 1.259770 1_555
C3 N3 1.333630 1_555
C3 N7 1.396459 1_555
C4 N8 1.328421 1_555
C4 N12 1.328789 1_555
C4 N4 1.362857 1_455
C5 N9 1.328421 1_555
C5 N13 1.328789 1_555
C5 N5 1.362857 1_555
C6 N10 1.328421 1_555
C6 N14 1.328789 1_555
C6 N6 1.362857 1_655
C7 N11 1.328421 1_555
C7 N15 1.328789 1_555
C7 N7 1.362857 1_555
Cl0 Co0 2.384695 1_665
Cl1 Co1 2.384695 1_565
Cl2 Co0 2.384695 1_555
Cl3 Co1 2.384695 1_556
Cl4 Co0 2.541788 1_555
Cl5 Co1 2.541788 1_555
Cl6 Co0 2.541788 1_665
Cl7 Co1 2.541788 1_566
