# generated using pymatgen
data_Y2TeO6
_symmetry_space_group_name_H-M   'P 1'
_cell_length_a   5.00483000
_cell_length_b   5.00483000
_cell_length_c   10.11392900
_cell_angle_alpha   90.00000000
_cell_angle_beta   90.00000000
_cell_angle_gamma   90.00000000
_symmetry_Int_Tables_number   1
_chemical_formula_structural   Y2TeO6
_chemical_formula_sum   'Y4 Te2 O12'
_cell_volume   253.33696372
_cell_formula_units_Z   2
loop_
 _symmetry_equiv_pos_site_id
 _symmetry_equiv_pos_as_xyz
  1  'x, y, z'
loop_
 _atom_site_type_symbol
 _atom_site_label
 _atom_site_symmetry_multiplicity
 _atom_site_fract_x
 _atom_site_fract_y
 _atom_site_fract_z
 _atom_site_occupancy
  Y  Y0  1  0.00000000  0.00000000  0.33458900  1
  Y  Y1  1  0.00000000  0.00000000  0.66541100  1
  Y  Y2  1  0.50000000  0.50000000  0.16541100  1
  Y  Y3  1  0.50000000  0.50000000  0.83458900  1
  Te  Te0  1  0.00000000  0.00000000  0.00000000  1
  Te  Te1  1  0.50000000  0.50000000  0.50000000  1
  O  O0  1  0.18263500  0.18263500  0.14559300  1
  O  O1  1  0.18263500  0.18263500  0.85440700  1
  O  O2  1  0.22281500  0.22281500  0.50000000  1
  O  O3  1  0.27718500  0.72281500  0.00000000  1
  O  O4  1  0.31736500  0.68263500  0.35440700  1
  O  O5  1  0.31736500  0.68263500  0.64559300  1
  O  O6  1  0.68263500  0.31736500  0.35440700  1
  O  O7  1  0.68263500  0.31736500  0.64559300  1
  O  O8  1  0.72281500  0.27718500  0.00000000  1
  O  O9  1  0.77718500  0.77718500  0.50000000  1
  O  O10  1  0.81736500  0.81736500  0.14559300  1
  O  O11  1  0.81736500  0.81736500  0.85440700  1
loop_
_geom_bond_atom_site_label_1
_geom_bond_atom_site_label_2
_geom_bond_distance
_geom_bond_site_symmetry_2
O0 Te0 1.959415 1_555
O0 Y2 2.255202 1_555
O0 Y0 2.307553 1_555
O1 Te0 1.959415 1_556
O1 Y3 2.255202 1_555
O1 Y1 2.307553 1_555
O2 Te1 1.961887 1_555
O2 Y1 2.299109 1_555
O2 Y0 2.299109 1_555
O3 Te0 1.961887 1_565
O3 Y2 2.299109 1_555
O3 Y3 2.299109 1_554
O4 Te1 1.959415 1_555
O4 Y0 2.255202 1_565
O4 Y2 2.307553 1_555
O5 Te1 1.959415 1_555
O5 Y1 2.255202 1_565
O5 Y3 2.307553 1_555
O6 Te1 1.959415 1_555
O6 Y0 2.255202 1_655
O6 Y2 2.307553 1_555
O7 Te1 1.959415 1_555
O7 Y1 2.255202 1_655
O7 Y3 2.307553 1_555
O8 Te0 1.961887 1_655
O8 Y2 2.299109 1_555
O8 Y3 2.299109 1_554
O9 Te1 1.961887 1_555
O9 Y1 2.299109 1_665
O9 Y0 2.299109 1_665
O10 Te0 1.959415 1_665
O10 Y2 2.255202 1_555
O10 Y0 2.307553 1_665
O11 Te0 1.959415 1_666
O11 Y3 2.255202 1_555
O11 Y1 2.307553 1_665
