# generated using pymatgen
data_Li2BPCO7
_symmetry_space_group_name_H-M   'P 1'
_cell_length_a   5.05941600
_cell_length_b   5.40887000
_cell_length_c   9.42849554
_cell_angle_alpha   78.08590367
_cell_angle_beta   90.00000000
_cell_angle_gamma   90.00000000
_symmetry_Int_Tables_number   1
_chemical_formula_structural   Li2BPCO7
_chemical_formula_sum   'Li4 B2 P2 C2 O14'
_cell_volume   252.45944382
_cell_formula_units_Z   2
loop_
 _symmetry_equiv_pos_site_id
 _symmetry_equiv_pos_as_xyz
  1  'x, y, z'
loop_
 _atom_site_type_symbol
 _atom_site_label
 _atom_site_symmetry_multiplicity
 _atom_site_fract_x
 _atom_site_fract_y
 _atom_site_fract_z
 _atom_site_occupancy
  Li  Li0  1  0.50154300  0.68880200  0.20496400  1
  Li  Li1  1  0.99845700  0.68880200  0.20496400  1
  Li  Li2  1  0.49845700  0.31119800  0.79503600  1
  Li  Li3  1  0.00154300  0.31119800  0.79503600  1
  B  B0  1  0.75000000  0.06221500  0.33426400  1
  B  B1  1  0.25000000  0.93778500  0.66573600  1
  P  P0  1  0.25000000  0.29230900  0.41971700  1
  P  P1  1  0.75000000  0.70769100  0.58028300  1
  C  C0  1  0.75000000  0.26855200  0.07578200  1
  C  C1  1  0.25000000  0.73144800  0.92421800  1
  O  O0  1  0.25000000  0.76197500  0.05345000  1
  O  O1  1  0.75000000  0.04486200  0.17903100  1
  O  O2  1  0.75000000  0.47622600  0.11739200  1
  O  O3  1  0.99753800  0.18314900  0.36395100  1
  O  O4  1  0.50246200  0.18314900  0.36395100  1
  O  O5  1  0.75000000  0.79201400  0.40955300  1
  O  O6  1  0.25000000  0.57519100  0.36692000  1
  O  O7  1  0.75000000  0.42480900  0.63308000  1
  O  O8  1  0.25000000  0.20798600  0.59044700  1
  O  O9  1  0.49753800  0.81685100  0.63604900  1
  O  O10  1  0.00246200  0.81685100  0.63604900  1
  O  O11  1  0.25000000  0.52377400  0.88260800  1
  O  O12  1  0.25000000  0.95513800  0.82096900  1
  O  O13  1  0.75000000  0.23802500  0.94655000  1
loop_
_geom_bond_atom_site_label_1
_geom_bond_atom_site_label_2
_geom_bond_distance
_geom_bond_site_symmetry_2
Li0 O0 1.893044 1_555
Li0 O6 1.985342 1_555
Li0 O2 1.993969 1_555
Li0 O1 2.270363 1_565
Li0 O5 2.461171 1_555
Li1 O0 1.893044 1_655
Li1 O6 1.985342 1_655
Li1 O2 1.993969 1_555
Li1 O1 2.270363 1_565
Li1 O5 2.461171 1_555
Li2 O13 1.893044 1_555
Li2 O7 1.985342 1_555
Li2 O11 1.993969 1_555
Li2 O12 2.270363 1_545
Li2 O8 2.461171 1_555
Li3 O13 1.893044 1_455
Li3 O7 1.985342 1_455
Li3 O11 1.993969 1_555
Li3 O12 2.270363 1_545
Li3 O8 2.461171 1_555
B0 O3 1.466394 1_555
B0 O4 1.466394 1_555
B0 O1 1.485832 1_555
B0 O5 1.487105 1_545
B1 O9 1.466394 1_555
B1 O10 1.466394 1_555
B1 O12 1.485832 1_555
B1 O8 1.487105 1_565
C0 O13 1.262927 1_554
C0 O2 1.263974 1_555
C0 O1 1.387530 1_555
C1 O0 1.262927 1_556
C1 O11 1.263974 1_555
C1 O12 1.387530 1_555
O3 P0 1.544268 1_655
O4 P0 1.544268 1_555
O5 P1 1.579906 1_555
O6 P0 1.508124 1_555
O7 P1 1.508124 1_555
O8 P0 1.579906 1_555
O9 P1 1.544268 1_555
O10 P1 1.544268 1_455
