# generated using pymatgen
data_Ti5Sb5O17
_symmetry_space_group_name_H-M   'P 1'
_cell_length_a   5.48610400
_cell_length_b   4.23215100
_cell_length_c   31.93735494
_cell_angle_alpha   84.21921646
_cell_angle_beta   90.00000000
_cell_angle_gamma   90.00000000
_symmetry_Int_Tables_number   1
_chemical_formula_structural   Ti5Sb5O17
_chemical_formula_sum   'Ti10 Sb10 O34'
_cell_volume   737.75118603
_cell_formula_units_Z   2
loop_
 _symmetry_equiv_pos_site_id
 _symmetry_equiv_pos_as_xyz
  1  'x, y, z'
loop_
 _atom_site_type_symbol
 _atom_site_label
 _atom_site_symmetry_multiplicity
 _atom_site_fract_x
 _atom_site_fract_y
 _atom_site_fract_z
 _atom_site_occupancy
  Ti  Ti0  1  0.25139800  0.91003700  0.61897100  1
  Ti  Ti1  1  0.76604000  0.82051700  0.70761100  1
  Ti  Ti2  1  0.25253100  0.73851600  0.79573600  1
  Ti  Ti3  1  0.77429700  0.54690300  0.88413900  1
  Ti  Ti4  1  0.29987800  0.46739300  0.96805800  1
  Ti  Ti5  1  0.74860200  0.91003700  0.11897100  1
  Ti  Ti6  1  0.23396000  0.82051700  0.20761100  1
  Ti  Ti7  1  0.74746900  0.73851600  0.29573600  1
  Ti  Ti8  1  0.22570300  0.54690300  0.38413900  1
  Ti  Ti9  1  0.70012200  0.46739300  0.46805800  1
  Sb  Sb0  1  0.21379300  0.86626700  0.51725600  1
  Sb  Sb1  1  0.78620700  0.86626700  0.01725600  1
  Sb  Sb2  1  0.27671800  0.41501700  0.69162100  1
  Sb  Sb3  1  0.70295300  0.31558200  0.78769300  1
  Sb  Sb4  1  0.72034500  0.52119600  0.56916300  1
  Sb  Sb5  1  0.21009700  0.98592700  0.89322700  1
  Sb  Sb6  1  0.72328200  0.41501700  0.19162100  1
  Sb  Sb7  1  0.29704700  0.31558200  0.28769300  1
  Sb  Sb8  1  0.27965500  0.52119600  0.06916300  1
  Sb  Sb9  1  0.78990300  0.98592700  0.39322700  1
  O  O0  1  0.28241500  0.05216800  0.96285800  1
  O  O1  1  0.08803900  0.67080800  0.84679200  1
  O  O2  1  0.58987700  0.61061500  0.83202500  1
  O  O3  1  0.04081400  0.60937000  0.92674500  1
  O  O4  1  0.52173100  0.59011100  0.92133500  1
  O  O5  1  0.71758500  0.05216800  0.46285800  1
  O  O6  1  0.00854800  0.86943600  0.57398600  1
  O  O7  1  0.47200000  0.89873300  0.56980900  1
  O  O8  1  0.03033800  0.76827800  0.66920200  1
  O  O9  1  0.50451700  0.76883600  0.66614600  1
  O  O10  1  0.50808400  0.65817500  0.75072400  1
  O  O11  1  0.98715200  0.68777300  0.75881900  1
  O  O12  1  0.91196100  0.67080800  0.34679200  1
  O  O13  1  0.41012300  0.61061500  0.33202500  1
  O  O14  1  0.95918600  0.60937000  0.42674500  1
  O  O15  1  0.47826900  0.59011100  0.42133500  1
  O  O16  1  0.93584000  0.51045300  0.51556400  1
  O  O17  1  0.46769900  0.49338300  0.51544000  1
  O  O18  1  0.26022600  0.33601400  0.62755500  1
  O  O19  1  0.75322500  0.23770900  0.71105400  1
  O  O20  1  0.31839000  0.16119200  0.79488600  1
  O  O21  1  0.83677800  0.11959300  0.88463500  1
  O  O22  1  0.52800000  0.89873300  0.06980900  1
  O  O23  1  0.99145200  0.86943600  0.07398600  1
  O  O24  1  0.49548300  0.76883600  0.16614600  1
  O  O25  1  0.96966200  0.76827800  0.16920200  1
  O  O26  1  0.01284800  0.68777300  0.25881900  1
  O  O27  1  0.49191600  0.65817500  0.25072400  1
  O  O28  1  0.53230100  0.49338300  0.01544000  1
  O  O29  1  0.06416000  0.51045300  0.01556400  1
  O  O30  1  0.73977400  0.33601400  0.12755500  1
  O  O31  1  0.24677500  0.23770900  0.21105400  1
  O  O32  1  0.68161000  0.16119200  0.29488600  1
  O  O33  1  0.16322200  0.11959300  0.38463500  1
loop_
_geom_bond_atom_site_label_1
_geom_bond_atom_site_label_2
_geom_bond_distance
_geom_bond_site_symmetry_2
O0 Ti4 1.784274 1_555
O0 Sb5 2.303694 1_545
O0 Ti4 2.465538 1_545
O1 Ti2 1.860426 1_555
O1 Ti3 2.129383 1_455
O1 Sb5 2.196521 1_555
O2 Ti3 1.943220 1_555
O2 Sb3 2.074763 1_555
O2 Ti2 2.221485 1_555
O3 Ti4 1.990523 1_555
O3 Ti3 2.032678 1_455
O3 Sb5 2.050478 1_555
O4 Ti3 1.846159 1_555
O4 Ti4 1.954906 1_555
O4 Sb5 2.496396 1_555
O5 Ti9 1.784274 1_555
O5 Sb9 2.303694 1_545
O5 Ti9 2.465538 1_545
O6 Ti0 1.979493 1_555
O6 Sb0 2.134381 1_555
O6 Sb4 2.177492 1_455
O7 Ti0 1.986792 1_555
O7 Sb4 2.101493 1_555
O7 Sb0 2.211106 1_555
O8 Ti1 1.926307 1_455
O8 Ti0 2.051935 1_555
O8 Sb2 2.087872 1_555
O9 Ti1 1.979494 1_555
O9 Sb2 2.054411 1_555
O9 Ti0 2.091418 1_555
O10 Ti1 2.044526 1_555
O10 Ti2 2.060641 1_555
O10 Sb3 2.072274 1_555
O10 Sb2 2.573799 1_555
O11 Ti2 1.899177 1_655
O11 Ti1 2.068016 1_555
O11 Sb3 2.338773 1_555
O12 Ti7 1.860426 1_555
O12 Ti8 2.129383 1_655
O12 Sb9 2.196521 1_555
O13 Ti8 1.943220 1_555
O13 Sb7 2.074763 1_555
O13 Ti7 2.221485 1_555
O14 Ti9 1.990523 1_555
O14 Ti8 2.032678 1_655
O14 Sb9 2.050478 1_555
O15 Ti8 1.846159 1_555
O15 Ti9 1.954906 1_555
O15 Sb9 2.496396 1_555
O16 Ti9 2.015726 1_555
O16 Sb4 2.084635 1_555
O16 Sb0 2.147598 1_655
O17 Ti9 1.990338 1_555
O17 Sb0 2.110102 1_555
O17 Sb4 2.217999 1_555
O18 Ti0 1.851256 1_545
O18 Sb2 2.108153 1_555
O18 Ti0 2.417662 1_555
O19 Ti1 1.781448 1_545
O19 Ti1 2.458897 1_555
O19 Sb3 2.517570 1_555
O20 Ti2 1.822473 1_545
O20 Sb3 2.213713 1_555
O20 Ti2 2.472745 1_555
O21 Ti3 1.839139 1_555
O21 Sb5 2.135092 1_645
O21 Ti3 2.449460 1_545
O22 Ti5 1.986792 1_555
O22 Sb8 2.101493 1_555
O22 Sb1 2.211106 1_555
O23 Ti5 1.979493 1_555
O23 Sb1 2.134381 1_555
O23 Sb8 2.177492 1_655
O24 Ti6 1.979494 1_555
O24 Sb6 2.054411 1_555
O24 Ti5 2.091418 1_555
O25 Ti6 1.926307 1_655
O25 Ti5 2.051935 1_555
O25 Sb6 2.087872 1_555
O26 Ti7 1.899177 1_455
O26 Ti6 2.068016 1_555
O26 Sb7 2.338773 1_555
O27 Ti6 2.044526 1_555
O27 Ti7 2.060641 1_555
O27 Sb7 2.072274 1_555
O27 Sb6 2.573799 1_555
O28 Ti4 1.990338 1_554
O28 Sb1 2.110102 1_555
O28 Sb8 2.217999 1_555
O29 Ti4 2.015726 1_554
O29 Sb8 2.084635 1_555
O29 Sb1 2.147598 1_455
O30 Ti5 1.851256 1_545
O30 Sb6 2.108153 1_555
O30 Ti5 2.417662 1_555
O31 Ti6 1.781448 1_545
O31 Ti6 2.458897 1_555
O31 Sb7 2.517570 1_555
O32 Ti7 1.822473 1_545
O32 Sb7 2.213713 1_555
O32 Ti7 2.472745 1_555
O33 Ti8 1.839139 1_555
O33 Sb9 2.135092 1_445
O33 Ti8 2.449460 1_545
