# generated using pymatgen
data_K4Sb2O5
_symmetry_space_group_name_H-M   'P 1'
_cell_length_a   6.35537429
_cell_length_b   7.89436584
_cell_length_c   18.11850408
_cell_angle_alpha   90.00000000
_cell_angle_beta   90.00000000
_cell_angle_gamma   90.00000000
_symmetry_Int_Tables_number   1
_chemical_formula_structural   K4Sb2O5
_chemical_formula_sum   'K16 Sb8 O20'
_cell_volume   909.03523971
_cell_formula_units_Z   4
loop_
 _symmetry_equiv_pos_site_id
 _symmetry_equiv_pos_as_xyz
  1  'x, y, z'
loop_
 _atom_site_type_symbol
 _atom_site_label
 _atom_site_symmetry_multiplicity
 _atom_site_fract_x
 _atom_site_fract_y
 _atom_site_fract_z
 _atom_site_occupancy
  K  K0  1  0.25000000  0.62452000  0.84865926  1
  K  K1  1  0.75000000  0.62484482  0.98576872  1
  K  K2  1  0.75000000  0.62568821  0.65085948  1
  K  K3  1  0.25000000  0.62521742  0.51205596  1
  K  K4  1  0.25000000  0.87478258  0.01205596  1
  K  K5  1  0.75000000  0.87431179  0.15085948  1
  K  K6  1  0.25000000  0.87548000  0.34865926  1
  K  K7  1  0.75000000  0.87515518  0.48576872  1
  K  K8  1  0.25000000  0.12568821  0.84914052  1
  K  K9  1  0.75000000  0.12521742  0.98794404  1
  K  K10  1  0.75000000  0.12452000  0.65134074  1
  K  K11  1  0.25000000  0.12484482  0.51423128  1
  K  K12  1  0.25000000  0.37431179  0.34914052  1
  K  K13  1  0.75000000  0.37478258  0.48794404  1
  K  K14  1  0.75000000  0.37548000  0.15134074  1
  K  K15  1  0.25000000  0.37515518  0.01423128  1
  Sb  Sb0  1  0.25000000  0.62211780  0.16792902  1
  Sb  Sb1  1  0.75000000  0.62809773  0.33187331  1
  Sb  Sb2  1  0.75000000  0.87190227  0.83187331  1
  Sb  Sb3  1  0.25000000  0.87788220  0.66792902  1
  Sb  Sb4  1  0.25000000  0.12809773  0.16812669  1
  Sb  Sb5  1  0.75000000  0.12211780  0.33207098  1
  Sb  Sb6  1  0.25000000  0.37190227  0.66812669  1
  Sb  Sb7  1  0.75000000  0.37788220  0.83207098  1
  O  O0  1  0.75000000  0.62495357  0.80387712  1
  O  O1  1  0.47758835  0.62480394  0.09812292  1
  O  O2  1  0.52248175  0.62535745  0.40168319  1
  O  O3  1  0.02241165  0.62480394  0.09812292  1
  O  O4  1  0.97751825  0.62535745  0.40168319  1
  O  O5  1  0.75000000  0.87504643  0.30387712  1
  O  O6  1  0.02241165  0.87519606  0.59812292  1
  O  O7  1  0.47758835  0.87519606  0.59812292  1
  O  O8  1  0.97751825  0.87464255  0.90168319  1
  O  O9  1  0.52248175  0.87464255  0.90168319  1
  O  O10  1  0.52241165  0.12480394  0.40187708  1
  O  O11  1  0.02248175  0.12535745  0.09831681  1
  O  O12  1  0.47751825  0.12535745  0.09831681  1
  O  O13  1  0.97758835  0.12480394  0.40187708  1
  O  O14  1  0.25000000  0.12495357  0.69612288  1
  O  O15  1  0.02248175  0.37464255  0.59831681  1
  O  O16  1  0.47751825  0.37464255  0.59831681  1
  O  O17  1  0.52241165  0.37519606  0.90187708  1
  O  O18  1  0.97758835  0.37519606  0.90187708  1
  O  O19  1  0.25000000  0.37504643  0.19612288  1
loop_
_geom_bond_atom_site_label_1
_geom_bond_atom_site_label_2
_geom_bond_distance
_geom_bond_site_symmetry_2
K0 O17 2.793042 1_555
K0 O18 2.793042 1_455
K0 O9 2.796555 1_555
K0 O8 2.796555 1_455
K1 O3 2.672332 1_656
K1 O1 2.672332 1_556
K1 O17 2.878645 1_555
K1 O18 2.878645 1_555
K1 O9 2.881083 1_555
K1 O8 2.881083 1_555
K2 O0 2.772457 1_555
K2 O6 2.791068 1_655
K2 O7 2.791068 1_555
K2 O16 2.798727 1_555
K2 O15 2.798727 1_655
K3 O2 2.645378 1_555
K3 O4 2.645378 1_455
K3 O6 2.901420 1_555
K3 O7 2.901420 1_555
K3 O15 2.906290 1_555
K3 O16 2.906290 1_555
K4 O9 2.645378 1_554
K4 O8 2.645378 1_454
K4 O1 2.901420 1_555
K4 O3 2.901420 1_555
K4 O11 2.906290 1_565
K4 O12 2.906290 1_565
K5 O5 2.772457 1_555
K5 O3 2.791068 1_655
K5 O1 2.791068 1_555
K5 O12 2.798727 1_565
K5 O11 2.798727 1_665
K6 O10 2.793042 1_565
K6 O13 2.793042 1_465
K6 O4 2.796555 1_455
K6 O2 2.796555 1_555
K7 O7 2.672332 1_555
K7 O6 2.672332 1_655
K7 O13 2.878645 1_565
K7 O10 2.878645 1_565
K7 O2 2.881083 1_555
K7 O4 2.881083 1_555
K8 O14 2.772457 1_555
K8 O17 2.791068 1_555
K8 O18 2.791068 1_455
K8 O9 2.798727 1_545
K8 O8 2.798727 1_445
K9 O12 2.645378 1_556
K9 O11 2.645378 1_656
K9 O17 2.901420 1_555
K9 O18 2.901420 1_555
K9 O8 2.906290 1_545
K9 O9 2.906290 1_545
K10 O6 2.793042 1_645
K10 O7 2.793042 1_545
K10 O16 2.796555 1_555
K10 O15 2.796555 1_655
K11 O13 2.672332 1_455
K11 O10 2.672332 1_555
K11 O6 2.878645 1_545
K11 O7 2.878645 1_545
K11 O15 2.881083 1_555
K11 O16 2.881083 1_555
K12 O19 2.772457 1_555
K12 O13 2.791068 1_455
K12 O10 2.791068 1_555
K12 O2 2.798727 1_555
K12 O4 2.798727 1_455
K13 O16 2.645378 1_555
K13 O15 2.645378 1_655
K13 O10 2.901420 1_555
K13 O13 2.901420 1_555
K13 O2 2.906290 1_555
K13 O4 2.906290 1_555
K14 O1 2.793042 1_555
K14 O3 2.793042 1_655
K14 O12 2.796555 1_555
K14 O11 2.796555 1_655
K15 O18 2.672332 1_454
K15 O17 2.672332 1_554
K15 O1 2.878645 1_555
K15 O3 2.878645 1_555
K15 O12 2.881083 1_555
K15 O11 2.881083 1_555
O0 Sb2 2.014414 1_555
O0 Sb7 2.016256 1_555
O1 Sb0 1.921516 1_555
O2 Sb1 1.921230 1_555
O3 Sb0 1.921516 1_555
O4 Sb1 1.921230 1_555
O5 Sb1 2.014414 1_555
O5 Sb5 2.016256 1_565
O6 Sb3 1.921516 1_555
O7 Sb3 1.921516 1_555
O8 Sb2 1.921230 1_555
O9 Sb2 1.921230 1_555
O10 Sb5 1.921516 1_555
O11 Sb4 1.921230 1_555
O12 Sb4 1.921230 1_555
O13 Sb5 1.921516 1_555
O14 Sb6 2.014414 1_555
O14 Sb3 2.016256 1_545
O15 Sb6 1.921230 1_555
O16 Sb6 1.921230 1_555
O17 Sb7 1.921516 1_555
O18 Sb7 1.921516 1_555
O19 Sb4 2.014414 1_555
O19 Sb0 2.016256 1_555
