# generated using pymatgen
data_Na7Ti13O26
_symmetry_space_group_name_H-M   'P 1'
_cell_length_a   5.15600900
_cell_length_b   10.75097616
_cell_length_c   11.35888265
_cell_angle_alpha   65.25728803
_cell_angle_beta   85.86391226
_cell_angle_gamma   80.90555166
_symmetry_Int_Tables_number   1
_chemical_formula_structural   Na7Ti13O26
_chemical_formula_sum   'Na7 Ti13 O26'
_cell_volume   564.64212514
_cell_formula_units_Z   1
loop_
 _symmetry_equiv_pos_site_id
 _symmetry_equiv_pos_as_xyz
  1  'x, y, z'
loop_
 _atom_site_type_symbol
 _atom_site_label
 _atom_site_symmetry_multiplicity
 _atom_site_fract_x
 _atom_site_fract_y
 _atom_site_fract_z
 _atom_site_occupancy
  Na  Na0  1  0.42004600  0.80809600  0.84593800  1
  Na  Na1  1  0.66023200  0.88544200  0.30786300  1
  Na  Na2  1  0.33976800  0.11455800  0.69213700  1
  Na  Na3  1  0.57995400  0.19190400  0.15406200  1
  Na  Na4  1  0.26621200  0.42135400  0.53877900  1
  Na  Na5  1  0.73378800  0.57864600  0.46122100  1
  Na  Na6  1  0.50000000  0.50000000  0.00000000  1
  Ti  Ti0  1  0.81328900  0.76759000  0.62407900  1
  Ti  Ti1  1  0.57214700  0.69168500  0.15697200  1
  Ti  Ti2  1  0.03048100  0.84579700  0.07550400  1
  Ti  Ti3  1  0.27063900  0.92279100  0.52840800  1
  Ti  Ti4  1  0.72936100  0.07720900  0.47159200  1
  Ti  Ti5  1  0.50000000  0.00000000  0.00000000  1
  Ti  Ti6  1  0.96951900  0.15420300  0.92449600  1
  Ti  Ti7  1  0.42785300  0.30831500  0.84302800  1
  Ti  Ti8  1  0.18671100  0.23241000  0.37592100  1
  Ti  Ti9  1  0.66310700  0.38333200  0.31273300  1
  Ti  Ti10  1  0.87861500  0.45981400  0.77340100  1
  Ti  Ti11  1  0.12138500  0.54018600  0.22659900  1
  Ti  Ti12  1  0.33689300  0.61666800  0.68726700  1
  O  O0  1  0.13335600  0.78500000  0.69909700  1
  O  O1  1  0.26766500  0.67891300  0.06250900  1
  O  O2  1  0.50119000  0.75404500  0.52571900  1
  O  O3  1  0.89032200  0.70661300  0.24286000  1
  O  O4  1  0.18995400  0.98498500  0.91134300  1
  O  O5  1  0.94290300  0.90953000  0.45606700  1
  O  O6  1  0.57257700  0.93816800  0.62879400  1
  O  O7  1  0.35851900  0.86034900  0.16143300  1
  O  O8  1  0.71976800  0.83149800  0.99145100  1
  O  O9  1  0.05709700  0.09047000  0.54393300  1
  O  O10  1  0.81004600  0.01501500  0.08865700  1
  O  O11  1  0.64148100  0.13965100  0.83856700  1
  O  O12  1  0.42742300  0.06183200  0.37120600  1
  O  O13  1  0.86664400  0.21500000  0.30090300  1
  O  O14  1  0.28023200  0.16850200  0.00854900  1
  O  O15  1  0.10967800  0.29338700  0.75714000  1
  O  O16  1  0.49881000  0.24595500  0.47428100  1
  O  O17  1  0.20859900  0.47554500  0.85213500  1
  O  O18  1  0.57078100  0.44931000  0.67669600  1
  O  O19  1  0.34749800  0.37017400  0.21770100  1
  O  O20  1  0.73233500  0.32108700  0.93749100  1
  O  O21  1  0.97370800  0.40108900  0.39607700  1
  O  O22  1  0.02629200  0.59891100  0.60392300  1
  O  O23  1  0.65250200  0.62982600  0.78229900  1
  O  O24  1  0.42921900  0.55069000  0.32330400  1
  O  O25  1  0.79140100  0.52445500  0.14786500  1
loop_
_geom_bond_atom_site_label_1
_geom_bond_atom_site_label_2
_geom_bond_distance
_geom_bond_site_symmetry_2
Na0 O1 2.409145 1_556
Na0 O6 2.416258 1_555
Na0 O0 2.418076 1_555
Na0 O4 2.432751 1_555
Na0 O23 2.437395 1_555
Na0 O8 2.454161 1_555
Na1 O12 2.419243 1_565
Na1 O5 2.421437 1_555
Na1 O10 2.428212 1_565
Na1 O2 2.436985 1_555
Na1 O3 2.447415 1_555
Na1 O7 2.478065 1_555
Na2 O6 2.419243 1_545
Na2 O9 2.421437 1_555
Na2 O4 2.428212 1_545
Na2 O16 2.436985 1_555
Na2 O15 2.447415 1_555
Na2 O11 2.478065 1_555
Na3 O20 2.409145 1_554
Na3 O12 2.416258 1_555
Na3 O13 2.418076 1_555
Na3 O10 2.432751 1_555
Na3 O19 2.437395 1_555
Na3 O14 2.454161 1_555
Na4 O21 2.387793 1_455
Na4 O16 2.417790 1_555
Na4 O24 2.419548 1_555
Na4 O15 2.429403 1_555
Na4 O18 2.430794 1_555
Na4 O22 2.454711 1_555
Na5 O22 2.387793 1_655
Na5 O2 2.417790 1_555
Na5 O18 2.419548 1_555
Na5 O3 2.429403 1_555
Na5 O24 2.430794 1_555
Na5 O21 2.454711 1_555
Na6 O19 2.420456 1_555
Na6 O23 2.420456 1_554
Na6 O1 2.435387 1_555
Na6 O20 2.435387 1_554
Na6 O25 2.450728 1_555
Na6 O17 2.450728 1_554
O0 Ti0 1.979530 1_455
O0 Ti12 1.994330 1_555
O0 Ti3 2.045453 1_555
O1 Ti1 2.017242 1_555
O1 Ti11 2.023148 1_555
O1 Ti2 2.058736 1_555
O2 Ti3 2.016101 1_555
O2 Ti12 2.041766 1_555
O2 Ti0 2.080521 1_555
O3 Ti1 2.028297 1_555
O3 Ti2 2.034108 1_655
O3 Ti11 2.055705 1_655
O4 Ti5 2.011368 1_566
O4 Ti6 2.042836 1_465
O4 Ti2 2.055338 1_556
O5 Ti3 1.981292 1_655
O5 Ti4 2.025778 1_565
O5 Ti0 2.029278 1_555
O6 Ti4 2.003970 1_565
O6 Ti3 2.060677 1_555
O6 Ti0 2.063845 1_555
O7 Ti1 1.985280 1_555
O7 Ti5 1.999359 1_565
O7 Ti2 2.070628 1_555
O8 Ti2 1.980672 1_656
O8 Ti5 2.014354 1_566
O8 Ti1 2.040388 1_556
O9 Ti4 1.981292 1_455
O9 Ti3 2.025778 1_545
O9 Ti8 2.029278 1_555
O10 Ti5 2.011368 1_555
O10 Ti2 2.042836 1_645
O10 Ti6 2.055338 1_554
O11 Ti7 1.985280 1_555
O11 Ti5 1.999359 1_556
O11 Ti6 2.070628 1_555
O12 Ti3 2.003970 1_545
O12 Ti4 2.060677 1_555
O12 Ti8 2.063845 1_555
O13 Ti8 1.979530 1_655
O13 Ti9 1.994330 1_555
O13 Ti4 2.045453 1_555
O14 Ti6 1.980672 1_454
O14 Ti5 2.014354 1_555
O14 Ti7 2.040388 1_554
O15 Ti7 2.028297 1_555
O15 Ti6 2.034108 1_455
O15 Ti10 2.055705 1_455
O16 Ti4 2.016101 1_555
O16 Ti9 2.041766 1_555
O16 Ti8 2.080521 1_555
O17 Ti12 2.001675 1_555
O17 Ti7 2.004338 1_555
O17 Ti10 2.039672 1_455
O18 Ti10 2.037291 1_555
O18 Ti7 2.040926 1_555
O18 Ti12 2.044521 1_555
O19 Ti8 2.013928 1_555
O19 Ti11 2.043096 1_555
O19 Ti9 2.070573 1_555
O20 Ti7 2.017242 1_555
O20 Ti10 2.023148 1_555
O20 Ti6 2.058736 1_555
O21 Ti9 1.990977 1_555
O21 Ti8 2.056427 1_655
O21 Ti11 2.064145 1_655
O22 Ti12 1.990977 1_555
O22 Ti0 2.056427 1_455
O22 Ti10 2.064145 1_455
O23 Ti0 2.013928 1_555
O23 Ti10 2.043096 1_555
O23 Ti12 2.070573 1_555
O24 Ti11 2.037291 1_555
O24 Ti1 2.040926 1_555
O24 Ti9 2.044521 1_555
O25 Ti9 2.001675 1_555
O25 Ti1 2.004338 1_555
O25 Ti11 2.039672 1_655
