# generated using pymatgen
data_V4O9
_symmetry_space_group_name_H-M   'P 1'
_cell_length_a   6.93423273
_cell_length_b   6.93423273
_cell_length_c   15.16334500
_cell_angle_alpha   90.00000000
_cell_angle_beta   90.00000000
_cell_angle_gamma   102.27292106
_symmetry_Int_Tables_number   1
_chemical_formula_structural   V4O9
_chemical_formula_sum   'V16 O36'
_cell_volume   712.44504096
_cell_formula_units_Z   4
loop_
 _symmetry_equiv_pos_site_id
 _symmetry_equiv_pos_as_xyz
  1  'x, y, z'
loop_
 _atom_site_type_symbol
 _atom_site_label
 _atom_site_symmetry_multiplicity
 _atom_site_fract_x
 _atom_site_fract_y
 _atom_site_fract_z
 _atom_site_occupancy
  V  V0  1  0.69165200  0.69165200  0.36778100  1
  V  V1  1  0.30834800  0.30834800  0.63221900  1
  V  V2  1  0.69165200  0.69165200  0.13221900  1
  V  V3  1  0.30834800  0.30834800  0.86778100  1
  V  V4  1  0.32235100  0.32235100  0.37377200  1
  V  V5  1  0.67764900  0.67764900  0.62622800  1
  V  V6  1  0.32235100  0.32235100  0.12622800  1
  V  V7  1  0.67764900  0.67764900  0.87377200  1
  V  V8  1  0.79049900  0.21619700  0.38537400  1
  V  V9  1  0.78380300  0.20950100  0.61462600  1
  V  V10  1  0.79049900  0.21619700  0.11462600  1
  V  V11  1  0.78380300  0.20950100  0.88537400  1
  V  V12  1  0.20950100  0.78380300  0.61462600  1
  V  V13  1  0.21619700  0.79049900  0.38537400  1
  V  V14  1  0.20950100  0.78380300  0.88537400  1
  V  V15  1  0.21619700  0.79049900  0.11462600  1
  O  O0  1  0.33179400  0.33179400  0.25000000  1
  O  O1  1  0.66820600  0.66820600  0.75000000  1
  O  O2  1  0.68146100  0.68146100  0.25000000  1
  O  O3  1  0.31853900  0.31853900  0.75000000  1
  O  O4  1  0.02719200  0.30032000  0.35734600  1
  O  O5  1  0.69968000  0.97280800  0.64265400  1
  O  O6  1  0.02719200  0.30032000  0.14265400  1
  O  O7  1  0.69968000  0.97280800  0.85734600  1
  O  O8  1  0.97280800  0.69968000  0.64265400  1
  O  O9  1  0.30032000  0.02719200  0.35734600  1
  O  O10  1  0.97280800  0.69968000  0.85734600  1
  O  O11  1  0.30032000  0.02719200  0.14265400  1
  O  O12  1  0.96901200  0.70565700  0.36038200  1
  O  O13  1  0.29434300  0.03098800  0.63961800  1
  O  O14  1  0.96901200  0.70565700  0.13961800  1
  O  O15  1  0.29434300  0.03098800  0.86038200  1
  O  O16  1  0.03098800  0.29434300  0.63961800  1
  O  O17  1  0.70565700  0.96901200  0.36038200  1
  O  O18  1  0.03098800  0.29434300  0.86038200  1
  O  O19  1  0.70565700  0.96901200  0.13961800  1
  O  O20  1  0.79423800  0.20576200  0.50000000  1
  O  O21  1  0.79423800  0.20576200  0.00000000  1
  O  O22  1  0.20576200  0.79423800  0.50000000  1
  O  O23  1  0.20576200  0.79423800  0.00000000  1
  O  O24  1  0.31096700  0.31096700  0.49181600  1
  O  O25  1  0.68903300  0.68903300  0.50818400  1
  O  O26  1  0.31096700  0.31096700  0.00818400  1
  O  O27  1  0.68903300  0.68903300  0.99181600  1
  O  O28  1  0.63325900  0.38597900  0.36750400  1
  O  O29  1  0.61402100  0.36674100  0.63249600  1
  O  O30  1  0.63325900  0.38597900  0.13249600  1
  O  O31  1  0.61402100  0.36674100  0.86750400  1
  O  O32  1  0.36674100  0.61402100  0.63249600  1
  O  O33  1  0.38597900  0.63325900  0.36750400  1
  O  O34  1  0.36674100  0.61402100  0.86750400  1
  O  O35  1  0.38597900  0.63325900  0.13249600  1
loop_
_geom_bond_atom_site_label_1
_geom_bond_atom_site_label_2
_geom_bond_distance
_geom_bond_site_symmetry_2
O0 V4 1.878596 1_555
O0 V6 1.878596 1_555
O1 V7 1.878596 1_555
O1 V5 1.878596 1_555
O2 V0 1.788154 1_555
O2 V2 1.788154 1_555
O3 V3 1.788154 1_555
O3 V1 1.788154 1_555
O4 V8 1.675613 1_455
O4 V4 2.035051 1_555
O5 V9 1.675613 1_565
O5 V5 2.035051 1_555
O6 V10 1.675613 1_455
O6 V6 2.035051 1_555
O7 V11 1.675613 1_565
O7 V7 2.035051 1_555
O8 V12 1.675613 1_655
O8 V5 2.035051 1_555
O9 V13 1.675613 1_545
O9 V4 2.035051 1_555
O10 V14 1.675613 1_655
O10 V7 2.035051 1_555
O11 V15 1.675613 1_545
O11 V6 2.035051 1_555
O12 V13 1.731747 1_655
O12 V0 1.908301 1_555
O13 V12 1.731747 1_545
O13 V1 1.908301 1_555
O14 V15 1.731747 1_655
O14 V2 1.908301 1_555
O15 V14 1.731747 1_545
O15 V3 1.908301 1_555
O16 V9 1.731747 1_455
O16 V1 1.908301 1_555
O17 V8 1.731747 1_565
O17 V0 1.908301 1_555
O18 V11 1.731747 1_455
O18 V3 1.908301 1_555
O19 V10 1.731747 1_565
O19 V2 1.908301 1_555
O20 V8 1.740041 1_555
O20 V9 1.740041 1_555
O21 V10 1.740041 1_555
O21 V11 1.740041 1_554
O22 V13 1.740041 1_555
O22 V12 1.740041 1_555
O23 V15 1.740041 1_555
O23 V14 1.740041 1_554
O24 V4 1.792681 1_555
O24 V1 2.129101 1_555
O25 V5 1.792681 1_555
O25 V0 2.129101 1_555
O26 V6 1.792681 1_555
O26 V3 2.129101 1_554
O27 V7 1.792681 1_555
O27 V2 2.129101 1_556
O28 V8 1.787191 1_555
O28 V0 2.071674 1_555
O28 V4 2.108850 1_555
O29 V9 1.787191 1_555
O29 V1 2.071674 1_555
O29 V5 2.108850 1_555
O30 V10 1.787191 1_555
O30 V2 2.071674 1_555
O30 V6 2.108850 1_555
O31 V11 1.787191 1_555
O31 V3 2.071674 1_555
O31 V7 2.108850 1_555
O32 V12 1.787191 1_555
O32 V1 2.071674 1_555
O32 V5 2.108850 1_555
O33 V13 1.787191 1_555
O33 V0 2.071674 1_555
O33 V4 2.108850 1_555
O34 V14 1.787191 1_555
O34 V3 2.071674 1_555
O34 V7 2.108850 1_555
O35 V15 1.787191 1_555
O35 V2 2.071674 1_555
O35 V6 2.108850 1_555
