# generated using pymatgen
data_La2Zn2O5
_symmetry_space_group_name_H-M   'P 1'
_cell_length_a   5.53523400
_cell_length_b   5.82010800
_cell_length_c   15.85939500
_cell_angle_alpha   90.00000000
_cell_angle_beta   90.00000000
_cell_angle_gamma   90.00000000
_symmetry_Int_Tables_number   1
_chemical_formula_structural   La2Zn2O5
_chemical_formula_sum   'La8 Zn8 O20'
_cell_volume   510.92087213
_cell_formula_units_Z   4
loop_
 _symmetry_equiv_pos_site_id
 _symmetry_equiv_pos_as_xyz
  1  'x, y, z'
loop_
 _atom_site_type_symbol
 _atom_site_label
 _atom_site_symmetry_multiplicity
 _atom_site_fract_x
 _atom_site_fract_y
 _atom_site_fract_z
 _atom_site_occupancy
  La  La0  1  0.99668700  0.47992900  0.11061500  1
  La  La1  1  0.99668700  0.47992900  0.38938500  1
  La  La2  1  0.50331300  0.97992900  0.61061500  1
  La  La3  1  0.50331300  0.97992900  0.88938500  1
  La  La4  1  0.49668700  0.02007100  0.11061500  1
  La  La5  1  0.49668700  0.02007100  0.38938500  1
  La  La6  1  0.00331300  0.52007100  0.61061500  1
  La  La7  1  0.00331300  0.52007100  0.88938500  1
  Zn  Zn0  1  0.00000000  0.00000000  0.00000000  1
  Zn  Zn1  1  0.00000000  0.00000000  0.50000000  1
  Zn  Zn2  1  0.04478000  0.05719300  0.75000000  1
  Zn  Zn3  1  0.45522000  0.55719300  0.25000000  1
  Zn  Zn4  1  0.50000000  0.50000000  0.00000000  1
  Zn  Zn5  1  0.50000000  0.50000000  0.50000000  1
  Zn  Zn6  1  0.54478000  0.44280700  0.75000000  1
  Zn  Zn7  1  0.95522000  0.94280700  0.25000000  1
  O  O0  1  0.02166000  0.08675900  0.14140800  1
  O  O1  1  0.02166000  0.08675900  0.35859200  1
  O  O2  1  0.08193800  0.61477000  0.25000000  1
  O  O3  1  0.24519000  0.25396800  0.51780600  1
  O  O4  1  0.24519000  0.25396800  0.98219400  1
  O  O5  1  0.25481000  0.75396800  0.48219400  1
  O  O6  1  0.25481000  0.75396800  0.01780600  1
  O  O7  1  0.41806200  0.11477000  0.75000000  1
  O  O8  1  0.47834000  0.58675900  0.64140800  1
  O  O9  1  0.47834000  0.58675900  0.85859200  1
  O  O10  1  0.52166000  0.41324100  0.14140800  1
  O  O11  1  0.52166000  0.41324100  0.35859200  1
  O  O12  1  0.58193800  0.88523000  0.25000000  1
  O  O13  1  0.74519000  0.24603200  0.98219400  1
  O  O14  1  0.74519000  0.24603200  0.51780600  1
  O  O15  1  0.75481000  0.74603200  0.01780600  1
  O  O16  1  0.75481000  0.74603200  0.48219400  1
  O  O17  1  0.91806200  0.38523000  0.75000000  1
  O  O18  1  0.97834000  0.91324100  0.64140800  1
  O  O19  1  0.97834000  0.91324100  0.85859200  1
loop_
_geom_bond_atom_site_label_1
_geom_bond_atom_site_label_2
_geom_bond_distance
_geom_bond_site_symmetry_2
La0 O0 2.343903 1_655
La0 O2 2.392729 1_655
La0 O15 2.521429 1_555
La0 O6 2.598400 1_655
La0 O10 2.702371 1_555
La0 O4 2.787411 1_654
La0 O13 2.817649 1_554
La0 O10 2.972052 1_655
La1 O1 2.343903 1_655
La1 O2 2.392729 1_655
La1 O16 2.521429 1_555
La1 O5 2.598400 1_655
La1 O11 2.702371 1_555
La1 O3 2.787411 1_655
La1 O14 2.817649 1_555
La1 O11 2.972052 1_655
La2 O8 2.343903 1_555
La2 O7 2.392729 1_565
La2 O14 2.521429 1_565
La2 O3 2.598400 1_565
La2 O18 2.702371 1_555
La2 O5 2.787411 1_555
La2 O16 2.817649 1_555
La2 O18 2.972052 1_455
La3 O9 2.343903 1_555
La3 O7 2.392729 1_565
La3 O13 2.521429 1_565
La3 O4 2.598400 1_565
La3 O19 2.702371 1_555
La3 O6 2.787411 1_556
La3 O15 2.817649 1_556
La3 O19 2.972052 1_455
La4 O10 2.343903 1_555
La4 O12 2.392729 1_545
La4 O6 2.521429 1_545
La4 O15 2.598400 1_545
La4 O0 2.702371 1_555
La4 O13 2.787411 1_554
La4 O4 2.817649 1_554
La4 O0 2.972052 1_655
La5 O11 2.343903 1_555
La5 O12 2.392729 1_545
La5 O5 2.521429 1_545
La5 O16 2.598400 1_545
La5 O1 2.702371 1_555
La5 O14 2.787411 1_555
La5 O3 2.817649 1_555
La5 O1 2.972052 1_655
La6 O18 2.343903 1_455
La6 O17 2.392729 1_455
La6 O3 2.521429 1_555
La6 O14 2.598400 1_455
La6 O8 2.702371 1_555
La6 O16 2.787411 1_455
La6 O5 2.817649 1_555
La6 O8 2.972052 1_455
La7 O19 2.343903 1_455
La7 O17 2.392729 1_455
La7 O4 2.521429 1_555
La7 O13 2.598400 1_455
La7 O9 2.702371 1_555
La7 O15 2.787411 1_456
La7 O6 2.817649 1_556
La7 O9 2.972052 1_455
O0 Zn7 1.950171 1_445
O0 Zn0 2.301913 1_555
O1 Zn7 1.950171 1_445
O1 Zn1 2.301913 1_555
O2 Zn7 2.033978 1_455
O2 Zn3 2.093201 1_555
O3 Zn1 2.026459 1_555
O3 Zn5 2.029655 1_555
O4 Zn0 2.026459 1_556
O4 Zn4 2.029655 1_556
O5 Zn5 2.026459 1_555
O5 Zn1 2.029655 1_565
O6 Zn4 2.026459 1_555
O6 Zn0 2.029655 1_565
O7 Zn6 2.033978 1_555
O7 Zn2 2.093201 1_555
O8 Zn6 1.950171 1_555
O8 Zn5 2.301913 1_555
O9 Zn6 1.950171 1_555
O9 Zn4 2.301913 1_556
O10 Zn3 1.950171 1_555
O10 Zn4 2.301913 1_555
O11 Zn3 1.950171 1_555
O11 Zn5 2.301913 1_555
O12 Zn3 2.033978 1_555
O12 Zn7 2.093201 1_555
O13 Zn4 2.026459 1_556
O13 Zn0 2.029655 1_656
O14 Zn5 2.026459 1_555
O14 Zn1 2.029655 1_655
O15 Zn0 2.026459 1_665
O15 Zn4 2.029655 1_555
O16 Zn1 2.026459 1_665
O16 Zn5 2.029655 1_555
O17 Zn2 2.033978 1_655
O17 Zn6 2.093201 1_555
O18 Zn2 1.950171 1_665
O18 Zn1 2.301913 1_665
O19 Zn2 1.950171 1_665
O19 Zn0 2.301913 1_666
