# generated using pymatgen
data_Ti5O8
_symmetry_space_group_name_H-M   'P 1'
_cell_length_a   5.46606644
_cell_length_b   9.01539977
_cell_length_c   9.00719503
_cell_angle_alpha   68.33839465
_cell_angle_beta   94.88058384
_cell_angle_gamma   94.83147245
_symmetry_Int_Tables_number   1
_chemical_formula_structural   Ti5O8
_chemical_formula_sum   'Ti15 O24'
_cell_volume   410.35302618
_cell_formula_units_Z   3
loop_
 _symmetry_equiv_pos_site_id
 _symmetry_equiv_pos_as_xyz
  1  'x, y, z'
loop_
 _atom_site_type_symbol
 _atom_site_label
 _atom_site_symmetry_multiplicity
 _atom_site_fract_x
 _atom_site_fract_y
 _atom_site_fract_z
 _atom_site_occupancy
  Ti  Ti0  1  0.67633023  0.06814801  0.07165091  1
  Ti  Ti1  1  0.20015508  0.06923327  0.59376714  1
  Ti  Ti2  1  0.30323774  0.17387469  0.17368453  1
  Ti  Ti3  1  0.81161854  0.17328797  0.67236437  1
  Ti  Ti4  1  0.30630069  0.42192321  0.42041440  1
  Ti  Ti5  1  0.19509994  0.59302410  0.06676139  1
  Ti  Ti6  1  0.18950672  0.32095701  0.82663700  1
  Ti  Ti7  1  0.69269623  0.32745143  0.32485004  1
  Ti  Ti8  1  0.81069941  0.67312152  0.17344066  1
  Ti  Ti9  1  0.19705115  0.83166146  0.32341573  1
  Ti  Ti10  1  0.30501063  0.67338548  0.67311030  1
  Ti  Ti11  1  0.80641571  0.42207017  0.92582873  1
  Ti  Ti12  1  0.69047175  0.57778366  0.57782142  1
  Ti  Ti13  1  0.68193661  0.82960822  0.83749765  1
  Ti  Ti14  1  0.80796040  0.92630996  0.42367433  1
  O  O0  1  0.15753815  0.03328623  0.37822612  1
  O  O1  1  0.99634273  0.21552262  0.03241189  1
  O  O2  1  0.65728974  0.12737661  0.27912680  1
  O  O3  1  0.16322339  0.14168374  0.76643147  1
  O  O4  1  0.99910272  0.27980038  0.46575091  1
  O  O5  1  0.67622508  0.03363693  0.87207303  1
  O  O6  1  0.34352001  0.37965012  0.21333148  1
  O  O7  1  0.50004603  0.21882763  0.52878284  1
  O  O8  1  0.16022313  0.62781938  0.28154360  1
  O  O9  1  0.49801089  0.28048235  0.96755260  1
  O  O10  1  0.34041776  0.46938730  0.62358240  1
  O  O11  1  0.85143296  0.46687690  0.12756702  1
  O  O12  1  0.15208553  0.53032090  0.87399467  1
  O  O13  1  0.65645506  0.53040323  0.37620426  1
  O  O14  1  0.99808012  0.72000791  0.53268715  1
  O  O15  1  0.50918439  0.70985639  0.03616518  1
  O  O16  1  0.84044311  0.37496429  0.71965246  1
  O  O17  1  0.64856871  0.62463847  0.78463173  1
  O  O18  1  0.50151900  0.78089800  0.46830656  1
  O  O19  1  0.97563027  0.76841091  0.96483138  1
  O  O20  1  0.35516579  0.96894398  0.14005968  1
  O  O21  1  0.34993858  0.87103477  0.70934963  1
  O  O22  1  0.84635216  0.87488834  0.22055115  1
  O  O23  1  0.84062287  0.96646645  0.62928941  1
loop_
_geom_bond_atom_site_label_1
_geom_bond_atom_site_label_2
_geom_bond_distance
_geom_bond_site_symmetry_2
O0 Ti2 1.997674 1_555
O0 Ti14 2.068848 1_445
O0 Ti1 2.074419 1_555
O0 Ti9 2.083575 1_545
O1 Ti2 1.991070 1_655
O1 Ti11 2.074407 1_554
O1 Ti6 2.077723 1_654
O1 Ti0 2.077732 1_555
O2 Ti7 1.984097 1_555
O2 Ti14 1.996489 1_545
O2 Ti2 2.086383 1_555
O2 Ti0 2.137150 1_555
O3 Ti6 1.876578 1_555
O3 Ti1 1.926567 1_555
O3 Ti3 2.032163 1_455
O4 Ti7 1.989302 1_555
O4 Ti4 1.999012 1_655
O4 Ti3 2.067638 1_555
O4 Ti1 2.158899 1_655
O5 Ti0 1.934166 1_556
O5 Ti3 1.940666 1_555
O5 Ti13 1.978783 1_545
O6 Ti2 2.006109 1_555
O6 Ti4 2.065952 1_555
O6 Ti5 2.075402 1_555
O6 Ti7 2.085512 1_555
O7 Ti1 2.014104 1_555
O7 Ti3 2.023014 1_555
O7 Ti4 2.063527 1_555
O7 Ti7 2.066255 1_555
O8 Ti9 1.999103 1_555
O8 Ti4 2.003342 1_555
O8 Ti8 2.070339 1_455
O8 Ti5 2.097192 1_555
O9 Ti6 1.996325 1_555
O9 Ti11 2.000895 1_555
O9 Ti0 2.080238 1_556
O9 Ti2 2.085913 1_556
O10 Ti4 2.018234 1_555
O10 Ti6 2.019936 1_555
O10 Ti10 2.073450 1_555
O10 Ti12 2.075550 1_555
O11 Ti7 1.979930 1_555
O11 Ti11 1.993646 1_554
O11 Ti8 2.080904 1_555
O11 Ti5 2.116008 1_655
O12 Ti10 1.997269 1_555
O12 Ti5 2.005562 1_556
O12 Ti11 2.059989 1_455
O12 Ti6 2.112040 1_555
O13 Ti12 2.004181 1_555
O13 Ti8 2.011543 1_555
O13 Ti7 2.074229 1_555
O13 Ti4 2.074892 1_555
O14 Ti10 1.989060 1_655
O14 Ti12 2.001196 1_555
O14 Ti14 2.075339 1_555
O14 Ti9 2.124335 1_655
O15 Ti5 1.922082 1_555
O15 Ti8 1.948756 1_555
O15 Ti13 1.987178 1_554
O16 Ti12 1.999306 1_555
O16 Ti3 2.006019 1_555
O16 Ti6 2.074462 1_655
O16 Ti11 2.077970 1_555
O17 Ti11 2.015210 1_555
O17 Ti10 2.054469 1_555
O17 Ti13 2.062214 1_555
O17 Ti12 2.090610 1_555
O18 Ti9 2.000031 1_555
O18 Ti14 2.010357 1_555
O18 Ti12 2.050520 1_555
O18 Ti10 2.082777 1_555
O19 Ti13 1.888311 1_555
O19 Ti5 1.960251 1_656
O19 Ti8 2.011826 1_556
O20 Ti9 1.886790 1_555
O20 Ti0 1.942705 1_565
O20 Ti2 2.025271 1_565
O21 Ti1 1.917035 1_565
O21 Ti10 1.919379 1_555
O21 Ti13 2.050489 1_555
O22 Ti8 2.005710 1_555
O22 Ti0 2.008399 1_565
O22 Ti9 2.059624 1_655
O22 Ti14 2.077053 1_555
O23 Ti14 2.005175 1_555
O23 Ti13 2.044508 1_555
O23 Ti3 2.060741 1_565
O23 Ti1 2.098644 1_665
