# generated using pymatgen
data_Li3MnFe2(BO3)3
_symmetry_space_group_name_H-M   'P 1'
_cell_length_a   3.14831400
_cell_length_b   8.26642800
_cell_length_c   14.29595747
_cell_angle_alpha   89.98531531
_cell_angle_beta   90.00000000
_cell_angle_gamma   90.00000000
_symmetry_Int_Tables_number   1
_chemical_formula_structural   Li3MnFe2(BO3)3
_chemical_formula_sum   'Li6 Mn2 Fe4 B6 O18'
_cell_volume   372.05672700
_cell_formula_units_Z   2
loop_
 _symmetry_equiv_pos_site_id
 _symmetry_equiv_pos_as_xyz
  1  'x, y, z'
loop_
 _atom_site_type_symbol
 _atom_site_label
 _atom_site_symmetry_multiplicity
 _atom_site_fract_x
 _atom_site_fract_y
 _atom_site_fract_z
 _atom_site_occupancy
  Li  Li0  1  0.50000000  0.70702600  0.01032900  1
  Li  Li1  1  0.50000000  0.65962200  0.64147800  1
  Li  Li2  1  0.50000000  0.63490000  0.34870500  1
  Li  Li3  1  0.50000000  0.20650200  0.50662200  1
  Li  Li4  1  0.50000000  0.15913800  0.14311000  1
  Li  Li5  1  0.50000000  0.13465100  0.84993400  1
  Mn  Mn0  1  0.00000000  0.80827000  0.81998500  1
  Mn  Mn1  1  0.00000000  0.32564500  0.68599000  1
  Fe  Fe0  1  0.00000000  0.86265600  0.49553600  1
  Fe  Fe1  1  0.00000000  0.82422500  0.18390900  1
  Fe  Fe2  1  0.00000000  0.36270300  0.99684300  1
  Fe  Fe3  1  0.00000000  0.31268500  0.31990500  1
  B  B0  1  0.50000000  0.00010000  0.33305300  1
  B  B1  1  0.00000000  0.00172200  0.00053700  1
  B  B2  1  0.50000000  0.99885000  0.66554500  1
  B  B3  1  0.50000000  0.49997300  0.83510300  1
  B  B4  1  0.00000000  0.49948200  0.49885500  1
  B  B5  1  0.50000000  0.49999900  0.16649800  1
  O  O0  1  0.50000000  0.98883500  0.56826200  1
  O  O1  1  0.50000000  0.98096600  0.23611700  1
  O  O2  1  0.50000000  0.86419300  0.39095900  1
  O  O3  1  0.50000000  0.85874200  0.71901100  1
  O  O4  1  0.00000000  0.84910700  0.04233100  1
  O  O5  1  0.50000000  0.65274800  0.87598400  1
  O  O6  1  0.50000000  0.65185300  0.20871800  1
  O  O7  1  0.00000000  0.63815500  0.55436400  1
  O  O8  1  0.00000000  0.51388300  0.40171900  1
  O  O9  1  0.50000000  0.48756500  0.06941500  1
  O  O10  1  0.50000000  0.48607000  0.73779800  1
  O  O11  1  0.50000000  0.36223400  0.89112900  1
  O  O12  1  0.50000000  0.36067600  0.22123700  1
  O  O13  1  0.00000000  0.34688600  0.53994400  1
  O  O14  1  0.50000000  0.15476700  0.37179800  1
  O  O15  1  0.50000000  0.14880800  0.70947000  1
  O  O16  1  0.00000000  0.13986100  0.05621000  1
  O  O17  1  0.00000000  0.01650500  0.90359400  1
loop_
_geom_bond_atom_site_label_1
_geom_bond_atom_site_label_2
_geom_bond_distance
_geom_bond_site_symmetry_2
Li0 O5 1.972417 1_554
Li0 O9 2.000972 1_555
Li0 O4 2.016682 1_655
Li0 O4 2.016682 1_555
Li1 O3 1.984655 1_555
Li1 O10 1.988294 1_555
Li1 O7 2.015078 1_555
Li1 O7 2.015078 1_655
Li2 O2 1.989509 1_555
Li2 O6 2.006113 1_555
Li2 O8 2.013139 1_555
Li2 O8 2.013139 1_655
Li3 O14 1.974421 1_555
Li3 O0 2.003319 1_545
Li3 O13 2.012929 1_555
Li3 O13 2.012929 1_655
Li4 O1 1.983979 1_545
Li4 O12 2.005985 1_555
Li4 O16 2.011671 1_555
Li4 O16 2.011671 1_655
Li5 O11 1.971467 1_555
Li5 O17 2.004968 1_555
Li5 O17 2.004968 1_655
Li5 O15 2.011445 1_555
Mn0 O17 2.095902 1_565
Mn0 O3 2.176117 1_455
Mn0 O3 2.176117 1_555
Mn0 O5 2.184293 1_455
Mn0 O5 2.184293 1_555
Mn1 O13 2.095193 1_555
Mn1 O15 2.174231 1_555
Mn1 O15 2.174231 1_455
Mn1 O10 2.187620 1_555
Mn1 O10 2.187620 1_455
Fe0 O7 2.037292 1_555
Fe0 O0 2.155790 1_555
Fe0 O0 2.155790 1_455
Fe0 O2 2.170998 1_555
Fe0 O2 2.170998 1_455
Fe1 O4 2.034365 1_555
Fe1 O6 2.152636 1_455
Fe1 O6 2.152636 1_555
Fe1 O1 2.171251 1_455
Fe1 O1 2.171251 1_555
Fe2 O16 2.028020 1_556
Fe2 O9 2.149478 1_456
Fe2 O9 2.149478 1_556
Fe2 O11 2.182193 1_455
Fe2 O11 2.182193 1_555
Fe3 O8 2.033514 1_555
Fe3 O12 2.150518 1_555
Fe3 O12 2.150518 1_455
Fe3 O14 2.175304 1_555
Fe3 O14 2.175304 1_455
B0 O14 1.393499 1_555
B0 O1 1.394830 1_545
B0 O2 1.395345 1_545
B1 O17 1.391239 1_554
B1 O16 1.392082 1_555
B1 O4 1.395775 1_545
B2 O3 1.387510 1_555
B2 O15 1.389738 1_565
B2 O0 1.393237 1_555
B3 O5 1.391713 1_555
B3 O11 1.391933 1_555
B3 O10 1.395837 1_555
B4 O13 1.391351 1_555
B4 O8 1.393715 1_555
B4 O7 1.394370 1_555
B5 O9 1.391722 1_555
B5 O12 1.392242 1_555
B5 O6 1.392999 1_555
