# generated using pymatgen
data_RuF3
_symmetry_space_group_name_H-M   'P 1'
_cell_length_a   5.38656340
_cell_length_b   5.43257084
_cell_length_c   5.38970900
_cell_angle_alpha   54.78311060
_cell_angle_beta   54.23491036
_cell_angle_gamma   54.87090727
_symmetry_Int_Tables_number   1
_chemical_formula_structural   RuF3
_chemical_formula_sum   'Ru2 F6'
_cell_volume   97.55957103
_cell_formula_units_Z   2
loop_
 _symmetry_equiv_pos_site_id
 _symmetry_equiv_pos_as_xyz
  1  'x, y, z'
loop_
 _atom_site_type_symbol
 _atom_site_label
 _atom_site_symmetry_multiplicity
 _atom_site_fract_x
 _atom_site_fract_y
 _atom_site_fract_z
 _atom_site_occupancy
  Ru  Ru0  1  0.50000000  0.50000000  0.50000000  1
  Ru  Ru1  1  -0.00000000  -0.00000000  0.00000000  1
  F  F0  1  0.75174293  0.08839778  0.40872681  1
  F  F1  1  0.09028086  0.41280687  0.74681499  1
  F  F2  1  0.59443780  0.24826295  0.90604421  1
  F  F3  1  0.90971914  0.58719313  0.25318501  1
  F  F4  1  0.24825707  0.91160222  0.59127319  1
  F  F5  1  0.40556220  0.75173705  0.09395579  1
loop_
_geom_bond_atom_site_label_1
_geom_bond_atom_site_label_2
_geom_bond_distance
_geom_bond_site_symmetry_2
F0 Ru1 1.977193 1_655
F0 Ru0 2.019938 1_555
F1 Ru0 1.977187 1_555
F1 Ru1 2.019341 1_556
F2 Ru1 1.990601 1_656
F2 Ru0 1.991798 1_555
F3 Ru0 1.977187 1_555
F3 Ru1 2.019341 1_665
F4 Ru1 1.977193 1_566
F4 Ru0 2.019938 1_555
F5 Ru1 1.990601 1_565
F5 Ru0 1.991798 1_555
