# generated using pymatgen
data_Li4Cr3CoO8
_symmetry_space_group_name_H-M   'P 1'
_cell_length_a   5.10410100
_cell_length_b   7.73938770
_cell_length_c   7.75831115
_cell_angle_alpha   81.85878787
_cell_angle_beta   83.81208316
_cell_angle_gamma   71.00916969
_symmetry_Int_Tables_number   1
_chemical_formula_structural   Li4Cr3CoO8
_chemical_formula_sum   'Li8 Cr6 Co2 O16'
_cell_volume   286.24790215
_cell_formula_units_Z   2
loop_
 _symmetry_equiv_pos_site_id
 _symmetry_equiv_pos_as_xyz
  1  'x, y, z'
loop_
 _atom_site_type_symbol
 _atom_site_label
 _atom_site_symmetry_multiplicity
 _atom_site_fract_x
 _atom_site_fract_y
 _atom_site_fract_z
 _atom_site_occupancy
  Li  Li0  1  0.00000000  0.00000000  0.00000000  1
  Li  Li1  1  0.00210300  0.74903500  0.75104600  1
  Li  Li2  1  0.00183000  0.87496400  0.37413500  1
  Li  Li3  1  0.00163900  0.37560700  0.87068900  1
  Li  Li4  1  0.00000000  0.50000000  0.50000000  1
  Li  Li5  1  0.99836100  0.62439300  0.12931100  1
  Li  Li6  1  0.99817000  0.12503600  0.62586500  1
  Li  Li7  1  0.99789700  0.25096500  0.24895400  1
  Cr  Cr0  1  0.49998700  0.68529300  0.93824800  1
  Cr  Cr1  1  0.49996900  0.80840500  0.56206100  1
  Cr  Cr2  1  0.49965000  0.93549200  0.18856200  1
  Cr  Cr3  1  0.50035000  0.06450800  0.81143800  1
  Cr  Cr4  1  0.50003100  0.19159500  0.43793900  1
  Cr  Cr5  1  0.50001300  0.31470700  0.06175200  1
  Co  Co0  1  0.49992200  0.43823900  0.68599500  1
  Co  Co1  1  0.50007800  0.56176100  0.31400500  1
  O  O0  1  0.72736600  0.84820700  0.96947600  1
  O  O1  1  0.27291000  0.90102200  0.78028600  1
  O  O2  1  0.72745800  0.97287300  0.59385800  1
  O  O3  1  0.27583300  0.52494800  0.89975900  1
  O  O4  1  0.72276100  0.59421200  0.71956200  1
  O  O5  1  0.72301000  0.71895200  0.34457800  1
  O  O6  1  0.28138400  0.64318700  0.52864500  1
  O  O7  1  0.72398400  0.22911700  0.84067600  1
  O  O8  1  0.71861600  0.35681300  0.47135500  1
  O  O9  1  0.27601600  0.77088300  0.15932400  1
  O  O10  1  0.27699000  0.28104800  0.65542200  1
  O  O11  1  0.72416700  0.47505200  0.10024100  1
  O  O12  1  0.27723900  0.40578800  0.28043800  1
  O  O13  1  0.72709000  0.09897800  0.21971400  1
  O  O14  1  0.27254200  0.02712700  0.40614200  1
  O  O15  1  0.27263400  0.15179300  0.03052400  1
loop_
_geom_bond_atom_site_label_1
_geom_bond_atom_site_label_2
_geom_bond_distance
_geom_bond_site_symmetry_2
Li0 O15 2.141593 1_555
Li0 O0 2.141593 1_444
Li0 O13 2.143901 1_455
Li0 O1 2.143901 1_544
Li0 O7 2.187632 1_454
Li0 O9 2.187632 1_545
Li1 O3 2.120079 1_555
Li1 O1 2.132375 1_555
Li1 O0 2.140781 1_455
Li1 O2 2.154776 1_455
Li1 O6 2.188690 1_555
Li1 O4 2.190477 1_455
Li2 O9 2.128046 1_555
Li2 O14 2.138589 1_565
Li2 O13 2.144566 1_465
Li2 O2 2.145196 1_455
Li2 O6 2.187366 1_555
Li2 O5 2.191551 1_455
Li3 O10 2.114427 1_555
Li3 O4 2.119875 1_455
Li3 O7 2.130634 1_455
Li3 O3 2.130737 1_555
Li3 O15 2.157181 1_556
Li3 O11 2.214699 1_456
Li4 O6 2.124753 1_555
Li4 O8 2.124753 1_455
Li4 O5 2.133975 1_455
Li4 O10 2.133975 1_555
Li4 O4 2.143905 1_455
Li4 O12 2.143905 1_555
Li5 O5 2.114427 1_555
Li5 O12 2.119875 1_655
Li5 O9 2.130634 1_655
Li5 O11 2.130737 1_555
Li5 O0 2.157181 1_554
Li5 O3 2.214699 1_654
Li6 O7 2.128046 1_555
Li6 O2 2.138589 1_545
Li6 O1 2.144566 1_645
Li6 O14 2.145196 1_655
Li6 O8 2.187366 1_555
Li6 O10 2.191551 1_655
Li7 O11 2.120079 1_555
Li7 O13 2.132375 1_555
Li7 O15 2.140781 1_655
Li7 O14 2.154776 1_655
Li7 O8 2.188690 1_555
Li7 O12 2.190477 1_655
Cr0 O3 2.010178 1_555
Cr0 O11 2.013818 1_556
Cr0 O4 2.017314 1_555
Cr0 O9 2.023292 1_556
Cr0 O0 2.023578 1_555
Cr0 O1 2.024865 1_555
Cr1 O5 2.006511 1_555
Cr1 O6 2.007914 1_555
Cr1 O4 2.008299 1_555
Cr1 O1 2.025692 1_555
Cr1 O14 2.029812 1_565
Cr1 O2 2.035167 1_555
Cr2 O5 2.013183 1_555
Cr2 O9 2.015308 1_555
Cr2 O14 2.019499 1_565
Cr2 O0 2.021055 1_554
Cr2 O13 2.027325 1_565
Cr2 O15 2.027524 1_565
Cr3 O10 2.013183 1_555
Cr3 O7 2.015308 1_555
Cr3 O2 2.019499 1_545
Cr3 O15 2.021055 1_556
Cr3 O1 2.027325 1_545
Cr3 O0 2.027524 1_545
Cr4 O10 2.006511 1_555
Cr4 O8 2.007914 1_555
Cr4 O12 2.008299 1_555
Cr4 O13 2.025692 1_555
Cr4 O2 2.029812 1_545
Cr4 O14 2.035167 1_555
Cr5 O11 2.010178 1_555
Cr5 O3 2.013818 1_554
Cr5 O12 2.017314 1_555
Cr5 O7 2.023292 1_554
Cr5 O15 2.023578 1_555
Cr5 O13 2.024865 1_555
Co0 O6 1.960625 1_555
Co0 O8 1.963374 1_555
Co0 O4 1.965995 1_555
Co0 O10 1.967709 1_555
Co0 O7 1.977024 1_555
Co0 O3 1.978823 1_555
Co1 O8 1.960625 1_555
Co1 O6 1.963374 1_555
Co1 O12 1.965995 1_555
Co1 O5 1.967709 1_555
Co1 O9 1.977024 1_555
Co1 O11 1.978823 1_555
