# generated using pymatgen
data_Li4Co3Ni3(SbO8)2
_symmetry_space_group_name_H-M   'P 1'
_cell_length_a   5.81468971
_cell_length_b   5.76955333
_cell_length_c   9.50160992
_cell_angle_alpha   89.99718284
_cell_angle_beta   91.57143774
_cell_angle_gamma   119.69392943
_symmetry_Int_Tables_number   1
_chemical_formula_structural   Li4Co3Ni3(SbO8)2
_chemical_formula_sum   'Li4 Co3 Ni3 Sb2 O16'
_cell_volume   276.76529281
_cell_formula_units_Z   1
loop_
 _symmetry_equiv_pos_site_id
 _symmetry_equiv_pos_as_xyz
  1  'x, y, z'
loop_
 _atom_site_type_symbol
 _atom_site_label
 _atom_site_symmetry_multiplicity
 _atom_site_fract_x
 _atom_site_fract_y
 _atom_site_fract_z
 _atom_site_occupancy
  Li  Li0  1  0.32521500  0.66312200  0.90082200  1
  Li  Li1  1  0.00479700  0.00228400  0.99179000  1
  Li  Li2  1  0.00845500  0.00420800  0.49195700  1
  Li  Li3  1  0.66605300  0.33269700  0.40048900  1
  Co  Co0  1  0.17036100  0.83034100  0.21483700  1
  Co  Co1  1  0.17034200  0.34008400  0.21482900  1
  Co  Co2  1  0.34184300  0.17084300  0.71517600  1
  Ni  Ni0  1  0.66310600  0.83150800  0.21321000  1
  Ni  Ni1  1  0.83141700  0.66271500  0.71410200  1
  Ni  Ni2  1  0.83166800  0.16897300  0.71414400  1
  Sb  Sb0  1  0.33783900  0.66856500  0.48633600  1
  Sb  Sb1  1  0.65847900  0.32949500  0.98953300  1
  O  O0  1  0.17479100  0.84264600  0.59475500  1
  O  O1  1  0.03256000  0.51644000  0.33363100  1
  O  O2  1  0.33154700  0.66560800  0.11693600  1
  O  O3  1  0.00213300  0.00124000  0.30306000  1
  O  O4  1  0.01211400  0.00583200  0.80207900  1
  O  O5  1  0.17395000  0.33158200  0.59480600  1
  O  O6  1  0.47801900  0.96889900  0.34173700  1
  O  O7  1  0.47746000  0.50794200  0.34203700  1
  O  O8  1  0.32369600  0.16182200  0.10304600  1
  O  O9  1  0.68721200  0.84326300  0.59407900  1
  O  O10  1  0.49755500  0.47223700  0.84390700  1
  O  O11  1  0.49865800  0.02600000  0.84396000  1
  O  O12  1  0.65688800  0.32859000  0.61819100  1
  O  O13  1  0.84194100  0.67744000  0.09362400  1
  O  O14  1  0.95933300  0.48039900  0.84139100  1
  O  O15  1  0.84256700  0.16552600  0.09337200  1
loop_
_geom_bond_atom_site_label_1
_geom_bond_atom_site_label_2
_geom_bond_distance
_geom_bond_site_symmetry_2
Li0 O11 1.905313 1_565
Li0 O10 1.905980 1_555
Li0 O14 1.915353 1_455
Li0 O2 2.052675 1_556
Li1 O4 1.804104 1_555
Li1 O8 1.898617 1_556
Li1 O13 1.907178 1_446
Li1 O15 1.907547 1_456
Li2 O3 1.794103 1_555
Li2 O5 1.896425 1_555
Li2 O0 1.897283 1_545
Li2 O9 1.916721 1_445
Li3 O7 1.896928 1_555
Li3 O6 1.898858 1_545
Li3 O1 1.976101 1_655
Li3 O12 2.070499 1_555
Co0 O2 1.891430 1_555
Co0 O3 1.905882 1_565
Co0 O6 1.938592 1_555
Co0 O1 1.951343 1_555
Co0 O8 1.985753 1_565
Co0 O13 1.990457 1_455
Co1 O2 1.890675 1_555
Co1 O3 1.905727 1_555
Co1 O7 1.938086 1_555
Co1 O1 1.951590 1_555
Co1 O8 1.985371 1_555
Co1 O15 1.989063 1_455
Co2 O12 1.863877 1_555
Co2 O4 1.882145 1_555
Co2 O10 1.928550 1_555
Co2 O11 1.928929 1_555
Co2 O0 1.988776 1_545
Co2 O5 1.989174 1_555
Ni0 O2 1.882797 1_555
Ni0 O3 1.889225 1_665
Ni0 O13 2.035497 1_555
Ni0 O15 2.042522 1_565
Ni0 O6 2.048255 1_555
Ni0 O7 2.055330 1_555
Ni1 O12 1.894157 1_555
Ni1 O4 1.900775 1_665
Ni1 O14 1.961662 1_555
Ni1 O9 1.975230 1_555
Ni1 O0 2.102531 1_655
Ni1 O10 2.124873 1_555
Ni2 O12 1.894333 1_555
Ni2 O4 1.901378 1_655
Ni2 O14 1.967447 1_555
Ni2 O9 1.980456 1_545
Ni2 O5 2.097812 1_655
Ni2 O11 2.121260 1_555
O0 Sb0 1.991452 1_555
O1 Sb0 2.083717 1_555
O5 Sb0 1.992105 1_555
O6 Sb0 2.053412 1_555
O7 Sb0 2.050446 1_555
O8 Sb1 2.034191 1_554
O9 Sb0 2.012046 1_555
O10 Sb1 2.039793 1_555
O11 Sb1 2.039724 1_555
O13 Sb1 1.991691 1_554
O14 Sb1 2.103710 1_555
O15 Sb1 1.989837 1_554
