# generated using pymatgen
data_Li4Ti3Mn2Co3O16
_symmetry_space_group_name_H-M   'P 1'
_cell_length_a   5.77080760
_cell_length_b   5.77080760
_cell_length_c   9.50576485
_cell_angle_alpha   89.31596558
_cell_angle_beta   89.31596558
_cell_angle_gamma   60.50230574
_symmetry_Int_Tables_number   1
_chemical_formula_structural   Li4Ti3Mn2Co3O16
_chemical_formula_sum   'Li4 Ti3 Mn2 Co3 O16'
_cell_volume   275.50243446
_cell_formula_units_Z   1
loop_
 _symmetry_equiv_pos_site_id
 _symmetry_equiv_pos_as_xyz
  1  'x, y, z'
loop_
 _atom_site_type_symbol
 _atom_site_label
 _atom_site_symmetry_multiplicity
 _atom_site_fract_x
 _atom_site_fract_y
 _atom_site_fract_z
 _atom_site_occupancy
  Li  Li0  1  0.32713100  0.32713100  0.88783600  1
  Li  Li1  1  0.01800600  0.01800600  0.99012200  1
  Li  Li2  1  0.00879100  0.00879100  0.49990200  1
  Li  Li3  1  0.66267200  0.66267200  0.40205900  1
  Ti  Ti0  1  0.16753100  0.66737600  0.21409600  1
  Ti  Ti1  1  0.66737600  0.16753100  0.21409600  1
  Ti  Ti2  1  0.82451300  0.82451300  0.71534600  1
  Mn  Mn0  1  0.33199200  0.33199200  0.49095900  1
  Mn  Mn1  1  0.65994900  0.65994900  0.98224700  1
  Co  Co0  1  0.17585000  0.17585000  0.21729900  1
  Co  Co1  1  0.34002600  0.82379200  0.70981200  1
  Co  Co2  1  0.82379200  0.34002600  0.70981200  1
  O  O0  1  0.16342200  0.66683600  0.59681800  1
  O  O1  1  0.47958300  0.47958300  0.34414400  1
  O  O2  1  0.34009400  0.34009400  0.10277200  1
  O  O3  1  0.00740100  0.00740100  0.31387100  1
  O  O4  1  0.99869000  0.99869000  0.80363500  1
  O  O5  1  0.66683600  0.16342200  0.59681800  1
  O  O6  1  0.04054200  0.47745200  0.34506000  1
  O  O7  1  0.47745200  0.04054200  0.34506000  1
  O  O8  1  0.84174000  0.84174000  0.10778400  1
  O  O9  1  0.16672800  0.16672800  0.60095200  1
  O  O10  1  0.51055600  0.95419600  0.84018600  1
  O  O11  1  0.95419600  0.51055600  0.84018600  1
  O  O12  1  0.66399100  0.66399100  0.60306000  1
  O  O13  1  0.33228900  0.83985800  0.10606000  1
  O  O14  1  0.50816500  0.50816500  0.82171800  1
  O  O15  1  0.83985800  0.33228900  0.10606000  1
loop_
_geom_bond_atom_site_label_1
_geom_bond_atom_site_label_2
_geom_bond_distance
_geom_bond_site_symmetry_2
Li0 O14 1.902976 1_555
Li0 O10 1.930219 1_545
Li0 O11 1.930219 1_455
Li0 O2 2.048996 1_556
Li1 O4 1.785775 1_445
Li1 O15 1.935296 1_456
Li1 O13 1.935296 1_546
Li1 O8 2.070014 1_446
Li2 O3 1.768613 1_555
Li2 O9 1.855778 1_555
Li2 O0 1.944544 1_545
Li2 O5 1.944544 1_455
Li3 O12 1.910895 1_555
Li3 O1 1.913868 1_555
Li3 O7 1.970137 1_565
Li3 O6 1.970137 1_655
Mn0 O9 1.939179 1_555
Mn0 O5 1.965882 1_555
Mn0 O0 1.965882 1_555
Mn0 O1 2.013986 1_555
Mn0 O7 2.023469 1_555
Mn0 O6 2.023469 1_555
Mn1 O10 1.995393 1_555
Mn1 O11 1.995393 1_555
Mn1 O13 2.020207 1_556
Mn1 O15 2.020207 1_556
Mn1 O14 2.163877 1_555
Mn1 O8 2.183750 1_556
Co0 O3 1.902779 1_555
Co0 O7 1.950233 1_555
Co0 O6 1.950233 1_555
Co0 O2 1.953800 1_555
Co0 O15 1.998751 1_455
Co0 O13 1.998751 1_545
Co1 O14 1.904886 1_555
Co1 O12 1.911693 1_555
Co1 O4 1.927656 1_455
Co1 O10 1.962476 1_555
Co1 O0 1.992779 1_555
Co1 O9 2.003557 1_565
Co2 O14 1.904886 1_555
Co2 O12 1.911693 1_555
Co2 O4 1.927656 1_545
Co2 O11 1.962476 1_555
Co2 O5 1.992779 1_555
Co2 O9 2.003557 1_655
O0 Ti2 2.035148 1_455
O1 Ti1 2.011175 1_555
O1 Ti0 2.011175 1_555
O2 Ti0 1.961889 1_555
O2 Ti1 1.961889 1_555
O3 Ti1 1.960007 1_455
O3 Ti0 1.960007 1_545
O4 Ti2 1.939119 1_555
O5 Ti2 2.035148 1_545
O6 Ti0 2.006165 1_555
O7 Ti1 2.006165 1_555
O8 Ti1 1.930427 1_565
O8 Ti0 1.930427 1_655
O10 Ti2 1.971168 1_555
O11 Ti2 1.971168 1_555
O12 Ti2 1.935910 1_555
O13 Ti0 1.957969 1_555
O15 Ti1 1.957969 1_555
