# generated using pymatgen
data_Ce2Sm2O7
_symmetry_space_group_name_H-M   'P 1'
_cell_length_a   7.80718011
_cell_length_b   7.80718011
_cell_length_c   7.80718011
_cell_angle_alpha   60.00000000
_cell_angle_beta   60.00000000
_cell_angle_gamma   60.00000000
_symmetry_Int_Tables_number   1
_chemical_formula_structural   Ce2Sm2O7
_chemical_formula_sum   'Ce4 Sm4 O14'
_cell_volume   336.48646404
_cell_formula_units_Z   2
loop_
 _symmetry_equiv_pos_site_id
 _symmetry_equiv_pos_as_xyz
  1  'x, y, z'
loop_
 _atom_site_type_symbol
 _atom_site_label
 _atom_site_symmetry_multiplicity
 _atom_site_fract_x
 _atom_site_fract_y
 _atom_site_fract_z
 _atom_site_occupancy
  Ce  Ce0  1  0.12500000  0.12500000  0.12500000  1
  Ce  Ce1  1  0.62500000  0.12500000  0.12500000  1
  Ce  Ce2  1  0.12500000  0.62500000  0.12500000  1
  Ce  Ce3  1  0.12500000  0.12500000  0.62500000  1
  Sm  Sm0  1  0.62500000  0.62500000  0.12500000  1
  Sm  Sm1  1  0.62500000  0.62500000  0.62500000  1
  Sm  Sm2  1  0.62500000  0.12500000  0.62500000  1
  Sm  Sm3  1  0.12500000  0.62500000  0.62500000  1
  O  O0  1  0.77556500  0.22443500  0.22443500  1
  O  O1  1  0.77556500  0.22443500  0.77556500  1
  O  O2  1  0.22443500  0.77556500  0.22443500  1
  O  O3  1  0.77556500  0.77556500  0.22443500  1
  O  O4  1  0.50000000  0.50000000  0.50000000  1
  O  O5  1  0.47443500  0.02556500  0.02556500  1
  O  O6  1  0.02556500  0.02556500  0.47443500  1
  O  O7  1  0.02556500  0.47443500  0.02556500  1
  O  O8  1  0.47443500  0.47443500  0.02556500  1
  O  O9  1  0.47443500  0.02556500  0.47443500  1
  O  O10  1  0.75000000  0.75000000  0.75000000  1
  O  O11  1  0.22443500  0.77556500  0.77556500  1
  O  O12  1  0.02556500  0.47443500  0.47443500  1
  O  O13  1  0.22443500  0.22443500  0.77556500  1
loop_
_geom_bond_atom_site_label_1
_geom_bond_atom_site_label_2
_geom_bond_distance
_geom_bond_site_symmetry_2
Ce0 O6 2.239377 1_555
Ce0 O7 2.239377 1_555
Ce0 O5 2.239377 1_555
Ce0 O0 2.239377 1_455
Ce0 O13 2.239377 1_554
Ce0 O2 2.239377 1_545
Ce1 O0 2.239377 1_555
Ce1 O1 2.239377 1_554
Ce1 O3 2.239377 1_545
Ce1 O8 2.239377 1_555
Ce1 O9 2.239377 1_555
Ce1 O5 2.239377 1_555
Ce2 O2 2.239377 1_555
Ce2 O11 2.239377 1_554
Ce2 O8 2.239377 1_555
Ce2 O3 2.239377 1_455
Ce2 O12 2.239377 1_555
Ce2 O7 2.239377 1_555
Ce3 O13 2.239377 1_555
Ce3 O11 2.239377 1_545
Ce3 O12 2.239377 1_555
Ce3 O9 2.239377 1_555
Ce3 O1 2.239377 1_455
Ce3 O6 2.239377 1_555
O0 Sm2 2.563796 1_555
O0 Sm0 2.563796 1_555
O1 Sm2 2.563796 1_555
O1 Sm1 2.563796 1_555
O2 Sm3 2.563796 1_555
O2 Sm0 2.563796 1_555
O3 Sm0 2.563796 1_555
O3 Sm1 2.563796 1_555
O4 Sm2 2.390451 1_555
O4 Sm3 2.390451 1_555
O4 Sm0 2.390451 1_555
O4 Sm1 2.390451 1_555
O5 Sm2 2.563796 1_554
O5 Sm0 2.563796 1_545
O6 Sm3 2.563796 1_545
O6 Sm2 2.563796 1_455
O7 Sm0 2.563796 1_455
O7 Sm3 2.563796 1_554
O8 Sm1 2.563796 1_554
O8 Sm0 2.563796 1_555
O9 Sm1 2.563796 1_545
O9 Sm2 2.563796 1_555
O10 Sm2 2.390451 1_565
O10 Sm3 2.390451 1_655
O10 Sm0 2.390451 1_556
O10 Sm1 2.390451 1_555
O11 Sm3 2.563796 1_555
O11 Sm1 2.563796 1_555
O12 Sm1 2.563796 1_455
O12 Sm3 2.563796 1_555
O13 Sm2 2.563796 1_555
O13 Sm3 2.563796 1_555
