# generated using pymatgen
data_Li2V5NiO12
_symmetry_space_group_name_H-M   'P 1'
_cell_length_a   6.94170952
_cell_length_b   6.94170952
_cell_length_c   5.60124787
_cell_angle_alpha   72.31609383
_cell_angle_beta   72.31609383
_cell_angle_gamma   76.66040362
_symmetry_Int_Tables_number   1
_chemical_formula_structural   Li2V5NiO12
_chemical_formula_sum   'Li2 V5 Ni1 O12'
_cell_volume   242.13718680
_cell_formula_units_Z   1
loop_
 _symmetry_equiv_pos_site_id
 _symmetry_equiv_pos_as_xyz
  1  'x, y, z'
loop_
 _atom_site_type_symbol
 _atom_site_label
 _atom_site_symmetry_multiplicity
 _atom_site_fract_x
 _atom_site_fract_y
 _atom_site_fract_z
 _atom_site_occupancy
  Li  Li0  1  0.73020700  0.26979300  0.00000000  1
  Li  Li1  1  0.27179900  0.72820100  0.50000000  1
  V  V0  1  0.91498800  0.08501200  0.50000000  1
  V  V1  1  0.83519400  0.61858200  0.45324300  1
  V  V2  1  0.61820100  0.80880200  0.99107700  1
  V  V3  1  0.38141800  0.16480600  0.54675700  1
  V  V4  1  0.19119800  0.38179900  0.00892300  1
  Ni  Ni0  1  0.08744100  0.91255900  0.00000000  1
  O  O0  1  0.00586500  0.81515200  0.39733300  1
  O  O1  1  0.90480100  0.33332600  0.56133800  1
  O  O2  1  0.79934600  0.97940300  0.89619600  1
  O  O3  1  0.58384200  0.70018300  0.32569000  1
  O  O4  1  0.66667400  0.09519900  0.43866200  1
  O  O5  1  0.68865000  0.61846800  0.82808600  1
  O  O6  1  0.29981700  0.41615800  0.67431000  1
  O  O7  1  0.38817000  0.95458400  0.93865900  1
  O  O8  1  0.38153200  0.31135000  0.17191400  1
  O  O9  1  0.18484800  0.99413500  0.60266700  1
  O  O10  1  0.04541600  0.61183000  0.06134100  1
  O  O11  1  0.02059700  0.20065400  0.10380400  1
loop_
_geom_bond_atom_site_label_1
_geom_bond_atom_site_label_2
_geom_bond_distance
_geom_bond_site_symmetry_2
Li0 O11 2.174387 1_655
Li0 O2 2.174387 1_544
Li0 O5 2.302043 1_554
Li0 O8 2.302043 1_555
Li0 O4 2.340868 1_555
Li0 O1 2.340868 1_554
Li1 O9 2.005686 1_555
Li1 O0 2.005686 1_555
Li1 O3 2.078277 1_555
Li1 O6 2.078277 1_555
Ni0 O0 2.056155 1_555
Ni0 O9 2.056155 1_554
Ni0 O7 2.084582 1_554
Ni0 O10 2.084582 1_555
Ni0 O2 2.160365 1_454
Ni0 O11 2.160365 1_565
O0 V1 1.903841 1_455
O0 V0 2.031412 1_465
O1 V0 1.839306 1_555
O1 V1 1.878552 1_555
O2 V2 1.779020 1_555
O2 V0 2.075462 1_565
O3 V2 1.758143 1_554
O3 V1 1.982697 1_555
O4 V0 1.839306 1_555
O4 V3 1.878552 1_555
O5 V2 1.726774 1_555
O5 V1 2.035897 1_555
O6 V4 1.758143 1_556
O6 V3 1.982697 1_555
O7 V2 1.737456 1_555
O7 V3 2.243924 1_565
O8 V4 1.726774 1_555
O8 V3 2.035897 1_555
O9 V3 1.903841 1_565
O9 V0 2.031412 1_465
O10 V4 1.737456 1_555
O10 V1 2.243924 1_455
O11 V4 1.779020 1_555
O11 V0 2.075462 1_455
