# generated using pymatgen
data_LiMn2(BO3)2
_symmetry_space_group_name_H-M   'P 1'
_cell_length_a   5.38864100
_cell_length_b   9.02127893
_cell_length_c   10.24820622
_cell_angle_alpha   89.15554576
_cell_angle_beta   87.53425058
_cell_angle_gamma   89.84518341
_symmetry_Int_Tables_number   1
_chemical_formula_structural   LiMn2(BO3)2
_chemical_formula_sum   'Li4 Mn8 B8 O24'
_cell_volume   497.67385357
_cell_formula_units_Z   4
loop_
 _symmetry_equiv_pos_site_id
 _symmetry_equiv_pos_as_xyz
  1  'x, y, z'
loop_
 _atom_site_type_symbol
 _atom_site_label
 _atom_site_symmetry_multiplicity
 _atom_site_fract_x
 _atom_site_fract_y
 _atom_site_fract_z
 _atom_site_occupancy
  Li  Li0  1  0.13390200  0.99297400  0.92363600  1
  Li  Li1  1  0.60122600  0.51401400  0.32358300  1
  Li  Li2  1  0.65547600  0.49295200  0.82850000  1
  Li  Li3  1  0.85919100  0.01901800  0.59020400  1
  Mn  Mn0  1  0.13132800  0.30084400  0.36799200  1
  Mn  Mn1  1  0.17161400  0.64975700  0.86802400  1
  Mn  Mn2  1  0.36014800  0.80960800  0.12405800  1
  Mn  Mn3  1  0.33778500  0.15603500  0.62319900  1
  Mn  Mn4  1  0.66709100  0.86206100  0.36823200  1
  Mn  Mn5  1  0.64650000  0.17187100  0.87642500  1
  Mn  Mn6  1  0.84341700  0.34979700  0.11611500  1
  Mn  Mn7  1  0.86012200  0.68112100  0.61836400  1
  B  B0  1  0.16194300  0.65666000  0.36913000  1
  B  B1  1  0.17355500  0.31882100  0.87169400  1
  B  B2  1  0.33035700  0.15969300  0.11723700  1
  B  B3  1  0.33021900  0.82289700  0.61989700  1
  B  B4  1  0.66851500  0.18939700  0.37892100  1
  B  B5  1  0.67557000  0.82988400  0.86816200  1
  B  B6  1  0.83130100  0.69398800  0.12580000  1
  B  B7  1  0.83518200  0.32667600  0.62881900  1
  O  O0  1  0.06851100  0.70328000  0.06809500  1
  O  O1  1  0.05082800  0.28982200  0.55772400  1
  O  O2  1  0.19782500  0.27482800  0.18008800  1
  O  O3  1  0.23468200  0.02464200  0.10158100  1
  O  O4  1  0.18975700  0.94795500  0.61867800  1
  O  O5  1  0.22318300  0.68750900  0.65762900  1
  O  O6  1  0.25483500  0.51902600  0.36542400  1
  O  O7  1  0.29772300  0.77790900  0.31392500  1
  O  O8  1  0.27426900  0.17963200  0.83781500  1
  O  O9  1  0.31872200  0.44045200  0.87305300  1
  O  O10  1  0.41986100  0.18827300  0.41652300  1
  O  O11  1  0.43650900  0.80929800  0.92451900  1
  O  O12  1  0.56603700  0.19994600  0.06155300  1
  O  O13  1  0.58549900  0.82867900  0.58237200  1
  O  O14  1  0.71312600  0.56228100  0.14275300  1
  O  O15  1  0.71106700  0.82634500  0.16276800  1
  O  O16  1  0.70706900  0.19882500  0.68374600  1
  O  O17  1  0.77379300  0.32157100  0.32845800  1
  O  O18  1  0.75046900  0.46422200  0.64801100  1
  O  O19  1  0.81042700  0.06797600  0.40100400  1
  O  O20  1  0.78974400  0.70113600  0.81283200  1
  O  O21  1  0.79485400  0.96163500  0.86629800  1
  O  O22  1  0.92270400  0.68952100  0.42718100  1
  O  O23  1  0.91791800  0.32678000  0.90707100  1
loop_
_geom_bond_atom_site_label_1
_geom_bond_atom_site_label_2
_geom_bond_distance
_geom_bond_site_symmetry_2
Li0 O3 1.950263 1_566
Li0 O21 1.965512 1_455
Li0 O8 2.021670 1_565
Li0 O11 2.321836 1_555
Li1 O6 1.897700 1_555
Li1 O14 1.966969 1_555
Li1 O17 1.968225 1_555
Li1 O22 2.618705 1_555
Li2 O9 1.911205 1_555
Li2 O18 1.918982 1_555
Li2 O20 2.016168 1_555
Li2 O23 2.224082 1_555
Li3 O4 1.924113 1_645
Li3 O19 2.010387 1_555
Li3 O16 2.047719 1_555
Li3 O13 2.271108 1_545
Mn0 O10 1.933700 1_555
Mn0 O2 1.960922 1_555
Mn0 O1 1.975033 1_555
Mn0 O17 1.993487 1_455
Mn0 O6 2.078895 1_555
Mn1 O9 2.046681 1_555
Mn1 O11 2.133308 1_555
Mn1 O0 2.162300 1_556
Mn1 O5 2.183940 1_555
Mn1 O20 2.203725 1_455
Mn2 O0 1.954643 1_555
Mn2 O15 1.955460 1_555
Mn2 O7 1.977082 1_555
Mn2 O3 2.065537 1_565
Mn2 O11 2.068519 1_554
Mn3 O4 2.043512 1_545
Mn3 O1 2.086459 1_555
Mn3 O16 2.147403 1_555
Mn3 O10 2.160624 1_555
Mn3 O8 2.224541 1_555
Mn4 O19 2.051483 1_565
Mn4 O15 2.137833 1_555
Mn4 O22 2.171934 1_555
Mn4 O7 2.227928 1_555
Mn4 O13 2.235680 1_555
Mn5 O12 1.947926 1_556
Mn5 O16 1.998894 1_555
Mn5 O21 2.058496 1_545
Mn5 O8 2.061915 1_555
Mn5 O23 2.062574 1_555
Mn6 O14 2.057556 1_555
Mn6 O12 2.116460 1_555
Mn6 O2 2.149921 1_655
Mn6 O23 2.175432 1_554
Mn6 O17 2.203428 1_555
Mn7 O22 1.974124 1_555
Mn7 O5 2.015390 1_655
Mn7 O20 2.023233 1_555
Mn7 O13 2.029737 1_555
Mn7 O18 2.059958 1_555
B0 O6 1.337930 1_555
B0 O7 1.415036 1_555
B0 O22 1.428607 1_455
B1 O9 1.349865 1_555
B1 O8 1.408803 1_555
B1 O23 1.411192 1_455
B2 O3 1.338713 1_555
B2 O2 1.407078 1_555
B2 O12 1.415780 1_555
B3 O4 1.357068 1_555
B3 O5 1.394506 1_555
B3 O13 1.413222 1_555
B4 O19 1.356061 1_555
B4 O10 1.378217 1_555
B4 O17 1.404025 1_555
B5 O21 1.352262 1_555
B5 O11 1.400596 1_555
B5 O20 1.426394 1_555
B6 O14 1.354963 1_555
B6 O0 1.387343 1_655
B6 O15 1.406073 1_555
B7 O18 1.335350 1_555
B7 O1 1.387056 1_655
B7 O16 1.440647 1_555
