# generated using pymatgen
data_Li2Mn3NiO8
_symmetry_space_group_name_H-M   'P 1'
_cell_length_a   8.28384600
_cell_length_b   8.28384600
_cell_length_c   8.28384600
_cell_angle_alpha   90.00000000
_cell_angle_beta   90.00000000
_cell_angle_gamma   90.00000000
_symmetry_Int_Tables_number   1
_chemical_formula_structural   Li2Mn3NiO8
_chemical_formula_sum   'Li8 Mn12 Ni4 O32'
_cell_volume   568.45494630
_cell_formula_units_Z   4
loop_
 _symmetry_equiv_pos_site_id
 _symmetry_equiv_pos_as_xyz
  1  'x, y, z'
loop_
 _atom_site_type_symbol
 _atom_site_label
 _atom_site_symmetry_multiplicity
 _atom_site_fract_x
 _atom_site_fract_y
 _atom_site_fract_z
 _atom_site_occupancy
  Li  Li0  1  0.00373400  0.00373400  0.00373400  1
  Li  Li1  1  0.24626600  0.24626600  0.24626600  1
  Li  Li2  1  0.25373400  0.75373400  0.74626600  1
  Li  Li3  1  0.49626600  0.99626600  0.50373400  1
  Li  Li4  1  0.50373400  0.49626600  0.99626600  1
  Li  Li5  1  0.74626600  0.25373400  0.75373400  1
  Li  Li6  1  0.75373400  0.74626600  0.25373400  1
  Li  Li7  1  0.99626600  0.50373400  0.49626600  1
  Mn  Mn0  1  0.12118000  0.12882000  0.62500000  1
  Mn  Mn1  1  0.12500000  0.37882000  0.87118000  1
  Mn  Mn2  1  0.12882000  0.62500000  0.12118000  1
  Mn  Mn3  1  0.37118000  0.37500000  0.62118000  1
  Mn  Mn4  1  0.37500000  0.62118000  0.37118000  1
  Mn  Mn5  1  0.37882000  0.87118000  0.12500000  1
  Mn  Mn6  1  0.62118000  0.37118000  0.37500000  1
  Mn  Mn7  1  0.62500000  0.12118000  0.12882000  1
  Mn  Mn8  1  0.62882000  0.87500000  0.87882000  1
  Mn  Mn9  1  0.87118000  0.12500000  0.37882000  1
  Mn  Mn10  1  0.87500000  0.87882000  0.62882000  1
  Mn  Mn11  1  0.87882000  0.62882000  0.87500000  1
  Ni  Ni0  1  0.12500000  0.87500000  0.37500000  1
  Ni  Ni1  1  0.37500000  0.12500000  0.87500000  1
  Ni  Ni2  1  0.62500000  0.62500000  0.62500000  1
  Ni  Ni3  1  0.87500000  0.37500000  0.12500000  1
  O  O0  1  0.10129900  0.12388600  0.39210300  1
  O  O1  1  0.10789700  0.89870100  0.62388600  1
  O  O2  1  0.11553000  0.61553000  0.88447000  1
  O  O3  1  0.12388600  0.39210300  0.10129900  1
  O  O4  1  0.12611400  0.14870100  0.85789700  1
  O  O5  1  0.13447000  0.36553000  0.63447000  1
  O  O6  1  0.14210300  0.62611400  0.35129900  1
  O  O7  1  0.14870100  0.85789700  0.12611400  1
  O  O8  1  0.35129900  0.14210300  0.62611400  1
  O  O9  1  0.35789700  0.37388600  0.85129900  1
  O  O10  1  0.36553000  0.63447000  0.13447000  1
  O  O11  1  0.37388600  0.85129900  0.35789700  1
  O  O12  1  0.37611400  0.60789700  0.60129900  1
  O  O13  1  0.38447000  0.38447000  0.38447000  1
  O  O14  1  0.39210300  0.10129900  0.12388600  1
  O  O15  1  0.39870100  0.87611400  0.89210300  1
  O  O16  1  0.60129900  0.37611400  0.60789700  1
  O  O17  1  0.60789700  0.60129900  0.37611400  1
  O  O18  1  0.61553000  0.88447000  0.11553000  1
  O  O19  1  0.62388600  0.10789700  0.89870100  1
  O  O20  1  0.62611400  0.35129900  0.14210300  1
  O  O21  1  0.63447000  0.13447000  0.36553000  1
  O  O22  1  0.64210300  0.87388600  0.64870100  1
  O  O23  1  0.64870100  0.64210300  0.87388600  1
  O  O24  1  0.85129900  0.35789700  0.37388600  1
  O  O25  1  0.85789700  0.12611400  0.14870100  1
  O  O26  1  0.86553000  0.86553000  0.86553000  1
  O  O27  1  0.87388600  0.64870100  0.64210300  1
  O  O28  1  0.87611400  0.89210300  0.39870100  1
  O  O29  1  0.88447000  0.11553000  0.61553000  1
  O  O30  1  0.89210300  0.39870100  0.87611400  1
  O  O31  1  0.89870100  0.62388600  0.10789700  1
loop_
_geom_bond_atom_site_label_1
_geom_bond_atom_site_label_2
_geom_bond_distance
_geom_bond_site_symmetry_2
Li0 O4 1.982259 1_554
Li0 O25 1.982259 1_455
Li0 O7 1.982259 1_545
Li0 O26 1.982957 1_444
Li1 O14 1.982259 1_555
Li1 O3 1.982259 1_555
Li1 O0 1.982259 1_555
Li1 O13 1.982957 1_555
Li2 O15 1.982259 1_555
Li2 O12 1.982259 1_555
Li2 O1 1.982259 1_555
Li2 O2 1.982957 1_555
Li3 O8 1.982259 1_565
Li3 O22 1.982259 1_555
Li3 O11 1.982259 1_555
Li3 O21 1.982957 1_565
Li4 O20 1.982259 1_556
Li4 O23 1.982259 1_555
Li4 O9 1.982259 1_555
Li4 O10 1.982957 1_556
Li5 O30 1.982259 1_555
Li5 O16 1.982259 1_555
Li5 O19 1.982259 1_555
Li5 O29 1.982957 1_555
Li6 O28 1.982259 1_555
Li6 O17 1.982259 1_555
Li6 O31 1.982259 1_555
Li6 O18 1.982957 1_555
Li7 O6 1.982259 1_655
Li7 O27 1.982259 1_555
Li7 O24 1.982259 1_555
Li7 O5 1.982957 1_655
Mn0 O8 1.909466 1_555
Mn0 O1 1.909466 1_545
Mn0 O4 1.936731 1_555
Mn0 O0 1.936731 1_555
Mn0 O29 1.965523 1_455
Mn0 O5 1.965523 1_555
Mn1 O3 1.909466 1_556
Mn1 O4 1.909466 1_555
Mn1 O9 1.936731 1_555
Mn1 O30 1.936731 1_455
Mn1 O2 1.965523 1_555
Mn1 O5 1.965523 1_555
Mn2 O6 1.909466 1_555
Mn2 O31 1.909466 1_455
Mn2 O7 1.936731 1_555
Mn2 O3 1.936731 1_555
Mn2 O2 1.965523 1_554
Mn2 O10 1.965523 1_555
Mn3 O9 1.909466 1_555
Mn3 O16 1.909466 1_555
Mn3 O8 1.936731 1_555
Mn3 O12 1.936731 1_555
Mn3 O5 1.965523 1_555
Mn3 O13 1.965523 1_555
Mn4 O11 1.909466 1_555
Mn4 O12 1.909466 1_555
Mn4 O6 1.936731 1_555
Mn4 O17 1.936731 1_555
Mn4 O10 1.965523 1_555
Mn4 O13 1.965523 1_555
Mn5 O14 1.909466 1_565
Mn5 O7 1.909466 1_555
Mn5 O11 1.936731 1_555
Mn5 O15 1.936731 1_554
Mn5 O18 1.965523 1_555
Mn5 O10 1.965523 1_555
Mn6 O24 1.909466 1_555
Mn6 O17 1.909466 1_555
Mn6 O20 1.936731 1_555
Mn6 O16 1.936731 1_555
Mn6 O21 1.965523 1_555
Mn6 O13 1.965523 1_555
Mn7 O20 1.909466 1_555
Mn7 O19 1.909466 1_554
Mn7 O25 1.936731 1_555
Mn7 O14 1.936731 1_555
Mn7 O18 1.965523 1_545
Mn7 O21 1.965523 1_555
Mn8 O22 1.909466 1_555
Mn8 O15 1.909466 1_555
Mn8 O19 1.936731 1_565
Mn8 O23 1.936731 1_555
Mn8 O18 1.965523 1_556
Mn8 O26 1.965523 1_555
Mn9 O0 1.909466 1_655
Mn9 O25 1.909466 1_555
Mn9 O24 1.936731 1_555
Mn9 O28 1.936731 1_545
Mn9 O21 1.965523 1_555
Mn9 O29 1.965523 1_555
Mn10 O27 1.909466 1_555
Mn10 O28 1.909466 1_555
Mn10 O1 1.936731 1_655
Mn10 O22 1.936731 1_555
Mn10 O29 1.965523 1_565
Mn10 O26 1.965523 1_555
Mn11 O23 1.909466 1_555
Mn11 O30 1.909466 1_555
Mn11 O31 1.936731 1_556
Mn11 O27 1.936731 1_555
Mn11 O2 1.965523 1_655
Mn11 O26 1.965523 1_555
Ni0 O1 2.075901 1_555
Ni0 O0 2.075901 1_565
Ni0 O28 2.075901 1_455
Ni0 O7 2.075901 1_555
Ni0 O6 2.075901 1_555
Ni0 O11 2.075901 1_555
Ni1 O19 2.075901 1_555
Ni1 O15 2.075901 1_545
Ni1 O14 2.075901 1_556
Ni1 O4 2.075901 1_555
Ni1 O8 2.075901 1_555
Ni1 O9 2.075901 1_555
Ni2 O27 2.075901 1_555
Ni2 O23 2.075901 1_555
Ni2 O22 2.075901 1_555
Ni2 O12 2.075901 1_555
Ni2 O16 2.075901 1_555
Ni2 O17 2.075901 1_555
Ni3 O31 2.075901 1_555
Ni3 O3 2.075901 1_655
Ni3 O30 2.075901 1_554
Ni3 O25 2.075901 1_555
Ni3 O20 2.075901 1_555
Ni3 O24 2.075901 1_555
