# generated using pymatgen
data_Li2CoCSO7
_symmetry_space_group_name_H-M   'P 1'
_cell_length_a   6.43002376
_cell_length_b   9.95643481
_cell_length_c   8.96035030
_cell_angle_alpha   83.39377554
_cell_angle_beta   90.09085569
_cell_angle_gamma   90.07763758
_symmetry_Int_Tables_number   1
_chemical_formula_structural   Li2CoCSO7
_chemical_formula_sum   'Li8 Co4 C4 S4 O28'
_cell_volume   569.83268975
_cell_formula_units_Z   4
loop_
 _symmetry_equiv_pos_site_id
 _symmetry_equiv_pos_as_xyz
  1  'x, y, z'
loop_
 _atom_site_type_symbol
 _atom_site_label
 _atom_site_symmetry_multiplicity
 _atom_site_fract_x
 _atom_site_fract_y
 _atom_site_fract_z
 _atom_site_occupancy
  Li  Li0  1  0.51374200  0.10537800  0.18290900  1
  Li  Li1  1  0.51686600  0.60525700  0.18196800  1
  Li  Li2  1  0.98371700  0.10542100  0.18173500  1
  Li  Li3  1  0.98643500  0.60637900  0.18207500  1
  Li  Li4  1  0.48469400  0.39443100  0.81831100  1
  Li  Li5  1  0.48576000  0.89506800  0.81830100  1
  Li  Li6  1  0.01527500  0.39431800  0.81811700  1
  Li  Li7  1  0.01610900  0.89391800  0.81743200  1
  Co  Co0  1  0.74709800  0.88283300  0.35307300  1
  Co  Co1  1  0.25005800  0.11719700  0.64735400  1
  Co  Co2  1  0.75027400  0.38314700  0.35225400  1
  Co  Co3  1  0.25037500  0.61687600  0.64786700  1
  C  C0  1  0.75014400  0.36335000  0.07242700  1
  C  C1  1  0.75088800  0.86369200  0.07254700  1
  C  C2  1  0.24966300  0.13669400  0.92742800  1
  C  C3  1  0.25114900  0.63675800  0.92762200  1
  S  S0  1  0.25004100  0.37635300  0.41106400  1
  S  S1  1  0.24846800  0.87580700  0.41155300  1
  S  S2  1  0.75011500  0.12379700  0.58811000  1
  S  S3  1  0.75004200  0.62355200  0.58900900  1
  O  O0  1  0.24890200  0.15053200  0.06719000  1
  O  O1  1  0.25208600  0.65078200  0.06730700  1
  O  O2  1  0.75015300  0.34935200  0.93265200  1
  O  O3  1  0.75128400  0.84980500  0.93276400  1
  O  O4  1  0.75017000  0.48199400  0.12221000  1
  O  O5  1  0.74630100  0.98220400  0.12246400  1
  O  O6  1  0.25035500  0.01817200  0.87731500  1
  O  O7  1  0.25044500  0.51805100  0.87793000  1
  O  O8  1  0.75016400  0.25880700  0.17741300  1
  O  O9  1  0.75462300  0.75911000  0.17751400  1
  O  O10  1  0.24963400  0.24127700  0.82244400  1
  O  O11  1  0.25089500  0.74134300  0.82264600  1
  O  O12  1  0.74900500  0.07236500  0.43942500  1
  O  O13  1  0.74935900  0.57238100  0.44028600  1
  O  O14  1  0.25063800  0.42786700  0.55957100  1
  O  O15  1  0.24836000  0.92758700  0.55997800  1
  O  O16  1  0.24930100  0.22520900  0.43538700  1
  O  O17  1  0.24976800  0.72475800  0.43607600  1
  O  O18  1  0.75048700  0.27480900  0.56388300  1
  O  O19  1  0.74924100  0.77467600  0.56495600  1
  O  O20  1  0.06514500  0.42508200  0.31992700  1
  O  O21  1  0.06328400  0.92358800  0.32040800  1
  O  O22  1  0.43508600  0.42443500  0.32001800  1
  O  O23  1  0.43319900  0.92486700  0.32054900  1
  O  O24  1  0.56515800  0.07545100  0.67917300  1
  O  O25  1  0.56558200  0.57475400  0.68030700  1
  O  O26  1  0.93509100  0.07525800  0.67917200  1
  O  O27  1  0.93536900  0.57525700  0.67987800  1
loop_
_geom_bond_atom_site_label_1
_geom_bond_atom_site_label_2
_geom_bond_distance
_geom_bond_site_symmetry_2
Li0 O0 2.016537 1_555
Li0 O5 2.047877 1_545
Li0 O23 2.123403 1_545
Li0 O8 2.150266 1_555
Li1 O1 2.012225 1_555
Li1 O4 2.049894 1_555
Li1 O22 2.129542 1_555
Li1 O9 2.159872 1_555
Li2 O0 2.014964 1_655
Li2 O5 2.063939 1_545
Li2 O21 2.136862 1_645
Li2 O8 2.140433 1_555
Li3 O1 2.017336 1_655
Li3 O4 2.067499 1_555
Li3 O9 2.127786 1_555
Li3 O20 2.127823 1_655
Li4 O2 2.013797 1_555
Li4 O7 2.056177 1_555
Li4 O25 2.124068 1_555
Li4 O10 2.142892 1_555
Li5 O3 2.014981 1_555
Li5 O6 2.056637 1_565
Li5 O24 2.127119 1_565
Li5 O11 2.145923 1_555
Li6 O2 2.014343 1_455
Li6 O7 2.058107 1_555
Li6 O27 2.128561 1_455
Li6 O10 2.141632 1_555
Li7 O3 2.014846 1_455
Li7 O6 2.057225 1_565
Li7 O26 2.133502 1_465
Li7 O11 2.139778 1_555
Co0 O19 2.072157 1_555
Co0 O23 2.075160 1_555
Co0 O21 2.087121 1_655
Co0 O9 2.107270 1_555
Co0 O12 2.120307 1_565
Co0 O5 2.185918 1_555
Co1 O16 2.072171 1_555
Co1 O26 2.080723 1_455
Co1 O24 2.081421 1_555
Co1 O10 2.105595 1_555
Co1 O15 2.125328 1_545
Co1 O6 2.179545 1_555
Co2 O18 2.070921 1_555
Co2 O20 2.080646 1_655
Co2 O22 2.081556 1_555
Co2 O8 2.105517 1_555
Co2 O13 2.124630 1_555
Co2 O4 2.179601 1_555
Co3 O17 2.070283 1_555
Co3 O27 2.080585 1_455
Co3 O25 2.083419 1_555
Co3 O11 2.105915 1_555
Co3 O14 2.123654 1_555
Co3 O7 2.179679 1_555
C0 O2 1.276000 1_554
C0 O4 1.309818 1_555
C0 O8 1.320251 1_555
C1 O3 1.275833 1_554
C1 O5 1.309501 1_555
C1 O9 1.320637 1_555
C2 O0 1.275549 1_556
C2 O6 1.310008 1_555
C2 O10 1.320522 1_555
C3 O1 1.275259 1_556
C3 O7 1.310047 1_555
C3 O11 1.320492 1_555
O12 S2 1.481267 1_555
O13 S3 1.480416 1_555
O14 S0 1.480131 1_555
O15 S1 1.480638 1_555
O16 S0 1.495537 1_555
O17 S1 1.494687 1_555
O18 S2 1.494208 1_555
O19 S3 1.495282 1_555
O20 S0 1.490982 1_555
O21 S1 1.490038 1_555
O22 S0 1.490676 1_555
O23 S1 1.491408 1_555
O24 S2 1.490981 1_555
O25 S3 1.490683 1_555
O26 S2 1.490553 1_555
O27 S3 1.490840 1_555
