# generated using pymatgen
data_Na6Cu2P(CO4)4
_symmetry_space_group_name_H-M   'P 1'
_cell_length_a   9.80758661
_cell_length_b   9.80758661
_cell_length_c   9.80758661
_cell_angle_alpha   60.00000000
_cell_angle_beta   60.00000000
_cell_angle_gamma   60.00000000
_symmetry_Int_Tables_number   1
_chemical_formula_structural   Na6Cu2P(CO4)4
_chemical_formula_sum   'Na12 Cu4 P2 C8 O32'
_cell_volume   667.07007497
_cell_formula_units_Z   2
loop_
 _symmetry_equiv_pos_site_id
 _symmetry_equiv_pos_as_xyz
  1  'x, y, z'
loop_
 _atom_site_type_symbol
 _atom_site_label
 _atom_site_symmetry_multiplicity
 _atom_site_fract_x
 _atom_site_fract_y
 _atom_site_fract_z
 _atom_site_occupancy
  Na  Na0  1  0.46043300  0.46043300  0.03956700  1
  Na  Na1  1  0.03956700  0.46043300  0.03956700  1
  Na  Na2  1  0.03956700  0.46043300  0.46043300  1
  Na  Na3  1  0.46043300  0.03956700  0.03956700  1
  Na  Na4  1  0.21043300  0.21043300  0.78956700  1
  Na  Na5  1  0.78956700  0.21043300  0.78956700  1
  Na  Na6  1  0.46043300  0.03956700  0.46043300  1
  Na  Na7  1  0.03956700  0.03956700  0.46043300  1
  Na  Na8  1  0.21043300  0.78956700  0.78956700  1
  Na  Na9  1  0.78956700  0.21043300  0.21043300  1
  Na  Na10  1  0.78956700  0.78956700  0.21043300  1
  Na  Na11  1  0.21043300  0.78956700  0.21043300  1
  Cu  Cu0  1  0.62500000  0.62500000  0.12500000  1
  Cu  Cu1  1  0.12500000  0.62500000  0.62500000  1
  Cu  Cu2  1  0.62500000  0.62500000  0.62500000  1
  Cu  Cu3  1  0.62500000  0.12500000  0.62500000  1
  P  P0  1  0.00000000  0.00000000  0.00000000  1
  P  P1  1  0.25000000  0.25000000  0.25000000  1
  C  C0  1  0.84289100  0.47132700  0.84289100  1
  C  C1  1  0.47132700  0.84289100  0.84289100  1
  C  C2  1  0.84289100  0.84289100  0.84289100  1
  C  C3  1  0.84289100  0.84289100  0.47132700  1
  C  C4  1  0.40710900  0.40710900  0.77867300  1
  C  C5  1  0.40710900  0.40710900  0.40710900  1
  C  C6  1  0.77867300  0.40710900  0.40710900  1
  C  C7  1  0.40710900  0.77867300  0.40710900  1
  O  O0  1  0.06466000  0.80601900  0.06466000  1
  O  O1  1  0.06466000  0.06466000  0.06466000  1
  O  O2  1  0.80601900  0.06466000  0.06466000  1
  O  O3  1  0.06466000  0.06466000  0.80601900  1
  O  O4  1  0.72269700  0.46900000  0.98480100  1
  O  O5  1  0.98480100  0.46900000  0.82350200  1
  O  O6  1  0.82350200  0.72269700  0.98480100  1
  O  O7  1  0.82350200  0.46900000  0.72269700  1
  O  O8  1  0.46900000  0.82350200  0.98480100  1
  O  O9  1  0.46900000  0.72269700  0.82350200  1
  O  O10  1  0.98480100  0.82350200  0.72269700  1
  O  O11  1  0.72269700  0.98480100  0.82350200  1
  O  O12  1  0.98480100  0.72269700  0.46900000  1
  O  O13  1  0.46900000  0.98480100  0.72269700  1
  O  O14  1  0.72269700  0.82350200  0.46900000  1
  O  O15  1  0.42649800  0.26519900  0.78100000  1
  O  O16  1  0.82350200  0.98480100  0.46900000  1
  O  O17  1  0.52730300  0.42649800  0.78100000  1
  O  O18  1  0.78100000  0.26519900  0.52730300  1
  O  O19  1  0.26519900  0.52730300  0.78100000  1
  O  O20  1  0.52730300  0.26519900  0.42649800  1
  O  O21  1  0.26519900  0.42649800  0.52730300  1
  O  O22  1  0.78100000  0.52730300  0.42649800  1
  O  O23  1  0.78100000  0.42649800  0.26519900  1
  O  O24  1  0.42649800  0.78100000  0.52730300  1
  O  O25  1  0.42649800  0.52730300  0.26519900  1
  O  O26  1  0.26519900  0.78100000  0.42649800  1
  O  O27  1  0.52730300  0.78100000  0.26519900  1
  O  O28  1  0.18534000  0.18534000  0.44398100  1
  O  O29  1  0.18534000  0.18534000  0.18534000  1
  O  O30  1  0.44398100  0.18534000  0.18534000  1
  O  O31  1  0.18534000  0.44398100  0.18534000  1
loop_
_geom_bond_atom_site_label_1
_geom_bond_atom_site_label_2
_geom_bond_distance
_geom_bond_site_symmetry_2
Na0 O31 2.386753 1_555
Na0 O30 2.386753 1_555
Na0 O4 2.387691 1_554
Na0 O9 2.387691 1_554
Na0 O25 2.436054 1_555
Na0 O17 2.436054 1_554
Na1 O29 2.386756 1_555
Na1 O31 2.386762 1_555
Na1 O6 2.387691 1_454
Na1 O5 2.387691 1_454
Na1 O19 2.436054 1_554
Na1 O23 2.436054 1_455
Na2 O28 2.386753 1_555
Na2 O31 2.386753 1_555
Na2 O12 2.387691 1_455
Na2 O7 2.387691 1_455
Na2 O21 2.436054 1_555
Na2 O22 2.436054 1_455
Na3 O29 2.386756 1_555
Na3 O30 2.386762 1_555
Na3 O11 2.387691 1_544
Na3 O8 2.387691 1_544
Na3 O27 2.436054 1_545
Na3 O15 2.436054 1_554
Na4 O1 2.386756 1_556
Na4 O3 2.386762 1_555
Na4 O21 2.387691 1_555
Na4 O15 2.387691 1_555
Na4 O5 2.436054 1_455
Na4 O13 2.436054 1_545
Na5 O3 2.386753 1_655
Na5 O2 2.386753 1_556
Na5 O18 2.387691 1_555
Na5 O17 2.387691 1_555
Na5 O7 2.436054 1_555
Na5 O11 2.436054 1_545
Na6 O28 2.386753 1_555
Na6 O30 2.386753 1_555
Na6 O13 2.387691 1_545
Na6 O14 2.387691 1_545
Na6 O20 2.436054 1_555
Na6 O24 2.436054 1_545
Na7 O29 2.386756 1_555
Na7 O28 2.386762 1_555
Na7 O10 2.387691 1_445
Na7 O16 2.387691 1_445
Na7 O18 2.436054 1_455
Na7 O26 2.436054 1_545
Na8 O0 2.386753 1_556
Na8 O3 2.386753 1_565
Na8 O19 2.387691 1_555
Na8 O24 2.387691 1_555
Na8 O10 2.436054 1_455
Na8 O9 2.436054 1_555
Na9 O1 2.386756 1_655
Na9 O2 2.386762 1_555
Na9 O20 2.387691 1_555
Na9 O23 2.387691 1_555
Na9 O4 2.436054 1_554
Na9 O16 2.436054 1_545
Na10 O2 2.386753 1_565
Na10 O0 2.386753 1_655
Na10 O27 2.387691 1_555
Na10 O22 2.387691 1_555
Na10 O6 2.436054 1_554
Na10 O14 2.436054 1_555
Na11 O1 2.386756 1_565
Na11 O0 2.386762 1_555
Na11 O25 2.387691 1_555
Na11 O26 2.387691 1_555
Na11 O8 2.436054 1_554
Na11 O12 2.436054 1_455
Cu0 O27 2.114206 1_555
Cu0 O6 2.114206 1_554
Cu0 O23 2.114206 1_555
Cu0 O25 2.114206 1_555
Cu0 O8 2.114206 1_554
Cu0 O4 2.114206 1_554
Cu1 O19 2.114206 1_555
Cu1 O10 2.114206 1_455
Cu1 O26 2.114206 1_555
Cu1 O21 2.114206 1_555
Cu1 O5 2.114206 1_455
Cu1 O12 2.114206 1_455
Cu2 O7 2.114206 1_555
Cu2 O9 2.114206 1_555
Cu2 O14 2.114206 1_555
Cu2 O24 2.114206 1_555
Cu2 O17 2.114206 1_555
Cu2 O22 2.114206 1_555
Cu3 O18 2.114206 1_555
Cu3 O11 2.114206 1_545
Cu3 O15 2.114206 1_555
Cu3 O20 2.114206 1_555
Cu3 O16 2.114206 1_545
Cu3 O13 2.114206 1_545
C0 O5 1.296799 1_555
C0 O4 1.296799 1_555
C0 O7 1.296799 1_555
C1 O8 1.296799 1_555
C1 O13 1.296799 1_555
C1 O9 1.296799 1_555
C2 O10 1.296799 1_555
C2 O6 1.296799 1_555
C2 O11 1.296799 1_555
C3 O16 1.296799 1_555
C3 O12 1.296799 1_555
C3 O14 1.296799 1_555
C4 O17 1.296799 1_555
C4 O19 1.296799 1_555
C4 O15 1.296799 1_555
C5 O21 1.296799 1_555
C5 O20 1.296799 1_555
C5 O25 1.296799 1_555
C6 O22 1.296799 1_555
C6 O18 1.296799 1_555
C6 O23 1.296799 1_555
C7 O24 1.296799 1_555
C7 O27 1.296799 1_555
C7 O26 1.296799 1_555
O0 P0 1.553373 1_565
O1 P0 1.553365 1_555
O2 P0 1.553373 1_655
O3 P0 1.553373 1_556
O28 P1 1.553373 1_555
O29 P1 1.553365 1_555
O30 P1 1.553373 1_555
O31 P1 1.553373 1_555
