# generated using pymatgen
data_Li17(Co4O9)2
_symmetry_space_group_name_H-M   'P 1'
_cell_length_a   7.61054200
_cell_length_b   7.75932837
_cell_length_c   9.58329043
_cell_angle_alpha   92.29717528
_cell_angle_beta   103.21708656
_cell_angle_gamma   118.85351342
_symmetry_Int_Tables_number   1
_chemical_formula_structural   Li17(Co4O9)2
_chemical_formula_sum   'Li17 Co8 O18'
_cell_volume   474.96626519
_cell_formula_units_Z   1
loop_
 _symmetry_equiv_pos_site_id
 _symmetry_equiv_pos_as_xyz
  1  'x, y, z'
loop_
 _atom_site_type_symbol
 _atom_site_label
 _atom_site_symmetry_multiplicity
 _atom_site_fract_x
 _atom_site_fract_y
 _atom_site_fract_z
 _atom_site_occupancy
  Li  Li0  1  0.81068800  0.85517900  0.13186600  1
  Li  Li1  1  0.47248500  0.37885800  0.10567800  1
  Li  Li2  1  0.63597700  0.07903900  0.12459500  1
  Li  Li3  1  0.40445500  0.65014300  0.14945000  1
  Li  Li4  1  0.95187500  0.14300900  0.33624000  1
  Li  Li5  1  0.83576000  0.37590800  0.40223100  1
  Li  Li6  1  0.49649500  0.92587600  0.37662700  1
  Li  Li7  1  0.23654700  0.53707700  0.35968600  1
  Li  Li8  1  0.75804700  0.44933900  0.62941300  1
  Li  Li9  1  0.49846800  0.07209500  0.62102000  1
  Li  Li10  1  0.15791400  0.62687700  0.59798900  1
  Li  Li11  1  0.05168400  0.86788300  0.65805500  1
  Li  Li12  1  0.87566000  0.70769000  0.85819000  1
  Li  Li13  1  0.58684900  0.33418000  0.84930700  1
  Li  Li14  1  0.35407700  0.91210100  0.88044700  1
  Li  Li15  1  0.51699000  0.61772700  0.89440200  1
  Li  Li16  1  0.19214400  0.15293000  0.87154400  1
  Co  Co0  1  0.93668900  0.52057900  0.11755600  1
  Co  Co1  1  0.23247900  0.95843600  0.14617200  1
  Co  Co2  1  0.71713100  0.70393000  0.39100400  1
  Co  Co3  1  0.37082200  0.23350000  0.36529300  1
  Co  Co4  1  0.62815000  0.76828300  0.63289100  1
  Co  Co5  1  0.29086900  0.30653600  0.61065100  1
  Co  Co6  1  0.76227500  0.04238900  0.85792100  1
  Co  Co7  1  0.06912200  0.46909300  0.87883500  1
  O  O0  1  0.75226400  0.58756200  0.02252400  1
  O  O1  1  0.38309200  0.10496900  0.03103300  1
  O  O2  1  0.88898300  0.32672400  0.21991700  1
  O  O3  1  0.68723500  0.88745700  0.28963100  1
  O  O4  1  0.22569800  0.72941000  0.20529800  1
  O  O5  1  0.44244600  0.47667700  0.29046300  1
  O  O6  1  0.10312400  0.04663900  0.25246300  1
  O  O7  1  0.89863800  0.64340400  0.49382500  1
  O  O8  1  0.58053100  0.20447700  0.46020400  1
  O  O9  1  0.41872800  0.79631900  0.54038900  1
  O  O10  1  0.10594800  0.36241400  0.50775900  1
  O  O11  1  0.89642700  0.93894300  0.76351300  1
  O  O12  1  0.57697700  0.53067900  0.71262600  1
  O  O13  1  0.77606000  0.26831600  0.79192500  1
  O  O14  1  0.31355800  0.11807100  0.71008800  1
  O  O15  1  0.08512700  0.67503300  0.78735200  1
  O  O16  1  0.60959700  0.89169200  0.96947600  1
  O  O17  1  0.28049500  0.43352500  0.96122700  1
loop_
_geom_bond_atom_site_label_1
_geom_bond_atom_site_label_2
_geom_bond_distance
_geom_bond_site_symmetry_2
Li0 O6 1.997756 1_665
Li0 O3 2.019323 1_555
Li0 O16 2.051586 1_554
Li0 O0 2.080641 1_555
Li1 O1 1.936793 1_555
Li1 O17 1.987845 1_554
Li1 O5 2.002277 1_555
Li1 O0 2.311427 1_555
Li2 O2 1.928467 1_555
Li2 O16 1.942152 1_544
Li2 O1 2.036557 1_555
Li2 O3 2.308562 1_545
Li3 O4 1.905173 1_555
Li3 O5 2.015986 1_555
Li3 O17 2.101712 1_554
Li3 O3 2.117050 1_555
Li4 O6 1.932345 1_655
Li4 O3 1.962396 1_545
Li4 O10 1.985620 1_655
Li4 O2 2.011409 1_555
Li5 O2 1.944652 1_555
Li5 O8 1.977394 1_555
Li5 O7 2.002697 1_555
Li5 O10 2.127753 1_655
Li6 O9 1.949562 1_555
Li6 O3 1.960187 1_555
Li6 O8 2.004074 1_565
Li6 O4 2.118223 1_555
Li7 O5 2.067475 1_555
Li7 O10 2.082624 1_555
Li7 O4 2.159427 1_555
Li7 O9 2.213274 1_555
Li7 O2 2.343642 1_455
Li8 O12 2.057880 1_555
Li8 O7 2.082858 1_555
Li8 O8 2.082889 1_555
Li8 O13 2.163519 1_555
Li8 O15 2.326247 1_655
Li9 O8 1.941184 1_555
Li9 O14 1.961030 1_555
Li9 O9 1.985939 1_545
Li9 O13 2.139442 1_555
Li10 O9 2.003429 1_555
Li10 O10 2.008269 1_555
Li10 O7 2.064052 1_455
Li10 O15 2.084417 1_555
Li11 O14 1.929541 1_565
Li11 O7 1.962522 1_455
Li11 O11 1.962586 1_455
Li11 O15 2.052147 1_555
Li12 O15 1.984278 1_655
Li12 O11 1.997583 1_555
Li12 O0 2.044526 1_556
Li12 O12 2.093483 1_555
Li13 O13 1.920164 1_555
Li13 O14 2.025695 1_555
Li13 O12 2.066817 1_555
Li13 O0 2.144710 1_556
Li14 O1 1.932129 1_566
Li14 O15 1.941324 1_555
Li14 O16 2.020893 1_555
Li14 O14 2.401935 1_565
Li15 O16 1.932051 1_555
Li15 O17 1.951939 1_555
Li15 O0 2.047109 1_556
Li15 O12 2.065478 1_555
Li16 O11 2.020877 1_445
Li16 O17 2.025810 1_555
Li16 O1 2.034280 1_556
Li16 O14 2.045121 1_555
Co0 O2 1.763725 1_555
Co0 O0 1.796400 1_555
Co0 O4 1.943133 1_655
Co1 O1 1.801456 1_565
Co1 O4 1.867443 1_555
Co1 O6 1.878322 1_565
Co2 O7 1.772140 1_555
Co2 O3 1.829208 1_555
Co2 O5 1.947527 1_555
Co3 O8 1.767688 1_555
Co3 O6 1.854211 1_555
Co3 O5 1.914753 1_555
Co4 O9 1.754256 1_555
Co4 O11 1.891592 1_555
Co4 O12 1.921100 1_555
Co5 O10 1.769046 1_555
Co5 O14 1.832098 1_555
Co5 O12 1.989163 1_555
Co6 O16 1.793671 1_545
Co6 O13 1.850915 1_555
Co6 O11 1.913199 1_545
Co7 O17 1.775539 1_555
Co7 O15 1.819395 1_555
Co7 O13 1.946332 1_455
