# generated using pymatgen
data_Sn2N2O
_symmetry_space_group_name_H-M   'P 1'
_cell_length_a   8.87375845
_cell_length_b   8.84696669
_cell_length_c   8.86224396
_cell_angle_alpha   109.38206934
_cell_angle_beta   109.52913116
_cell_angle_gamma   109.59468551
_symmetry_Int_Tables_number   1
_chemical_formula_structural   Sn2N2O
_chemical_formula_sum   'Sn16 N16 O8'
_cell_volume   534.96743138
_cell_formula_units_Z   8
loop_
 _symmetry_equiv_pos_site_id
 _symmetry_equiv_pos_as_xyz
  1  'x, y, z'
loop_
 _atom_site_type_symbol
 _atom_site_label
 _atom_site_symmetry_multiplicity
 _atom_site_fract_x
 _atom_site_fract_y
 _atom_site_fract_z
 _atom_site_occupancy
  Sn  Sn0  1  0.49945200  0.99935800  0.98973800  1
  Sn  Sn1  1  0.74417600  0.28167100  0.53316100  1
  Sn  Sn2  1  0.71495800  0.46997500  0.23678200  1
  Sn  Sn3  1  0.22753200  0.96204300  0.25683100  1
  Sn  Sn4  1  0.24513100  0.21644600  0.95468600  1
  Sn  Sn5  1  0.00702700  0.50407800  0.00223100  1
  Sn  Sn6  1  0.97382400  0.25647100  0.21221000  1
  Sn  Sn7  1  0.49775300  0.50225200  0.50706100  1
  Sn  Sn8  1  0.00556100  0.99240000  0.50346700  1
  Sn  Sn9  1  0.53527500  0.75429100  0.29045100  1
  Sn  Sn10  1  0.45905600  0.25035500  0.71533800  1
  Sn  Sn11  1  0.03507600  0.74745100  0.78299600  1
  Sn  Sn12  1  0.75338200  0.78285100  0.03241900  1
  Sn  Sn13  1  0.79095400  0.02468600  0.76142000  1
  Sn  Sn14  1  0.27099200  0.52461300  0.73475700  1
  Sn  Sn15  1  0.25068000  0.71487700  0.46630700  1
  N  N0  1  0.73552200  0.99871500  0.97330800  1
  N  N1  1  0.50258000  0.23646500  0.96491100  1
  N  N2  1  0.47034900  0.23327300  0.46104500  1
  N  N3  1  0.76199900  0.73510400  0.26321100  1
  N  N4  1  0.04562000  0.27202000  0.00035900  1
  N  N5  1  0.23390900  0.95913300  0.50405400  1
  N  N6  1  0.96743600  0.74235500  0.00229700  1
  N  N7  1  0.22598300  0.45335300  0.45473800  1
  N  N8  1  0.54936200  0.77414500  0.54673100  1
  N  N9  1  0.99665900  0.94945500  0.73020400  1
  N  N10  1  0.54372800  0.54260500  0.77960100  1
  N  N11  1  0.95397300  0.50003100  0.22782100  1
  N  N12  1  0.21901700  0.26950900  0.72612000  1
  N  N13  1  0.27877500  0.73090700  0.22862300  1
  N  N14  1  0.01763100  0.48612100  0.75260100  1
  N  N15  1  0.26708900  0.77009000  0.73237200  1
  O  O0  1  0.76830600  0.04581600  0.49612200  1
  O  O1  1  0.28603000  0.01409400  0.05588700  1
  O  O2  1  0.72572600  0.22327000  0.27591600  1
  O  O3  1  0.45257400  0.45812000  0.22727300  1
  O  O4  1  0.76729800  0.54373200  0.51775500  1
  O  O5  1  0.71866500  0.24911000  0.77029700  1
  O  O6  1  0.48825500  0.77503700  0.04552600  1
  O  O7  1  0.01268500  0.05372200  0.28336900  1
loop_
_geom_bond_atom_site_label_1
_geom_bond_atom_site_label_2
_geom_bond_distance
_geom_bond_site_symmetry_2
N0 Sn0 2.149630 1_555
N0 Sn13 2.156154 1_565
N0 Sn6 2.173057 1_566
N0 Sn12 2.181324 1_556
N1 Sn2 2.161889 1_556
N1 Sn10 2.167334 1_555
N1 Sn0 2.172740 1_545
N1 Sn4 2.199605 1_555
N2 Sn1 2.139710 1_555
N2 Sn3 2.172224 1_545
N2 Sn7 2.188521 1_555
N2 Sn10 2.246491 1_555
N3 Sn2 2.155030 1_555
N3 Sn9 2.159025 1_555
N3 Sn8 2.189260 1_655
N3 Sn12 2.204140 1_555
N4 Sn4 2.114419 1_554
N4 Sn5 2.187504 1_555
N4 Sn13 2.188031 1_454
N4 Sn6 2.205012 1_455
N5 Sn15 2.138419 1_555
N5 Sn8 2.141618 1_555
N5 Sn3 2.181663 1_555
N5 Sn10 2.231596 1_565
N6 Sn12 2.130621 1_555
N6 Sn3 2.189371 1_655
N6 Sn11 2.226971 1_654
N6 Sn5 2.250171 1_655
N7 Sn6 2.084712 1_455
N7 Sn7 2.153494 1_555
N7 Sn14 2.201216 1_555
N7 Sn15 2.213403 1_555
N8 Sn13 2.101340 1_565
N8 Sn7 2.170622 1_555
N8 Sn9 2.176137 1_555
N8 Sn15 2.316153 1_555
N9 Sn11 2.094246 1_655
N9 Sn8 2.186546 1_655
N9 Sn4 2.203136 1_665
N9 Sn13 2.209477 1_565
N10 Sn12 2.097346 1_556
N10 Sn7 2.190625 1_555
N10 Sn10 2.237723 1_555
N10 Sn14 2.257695 1_555
N11 Sn2 2.079385 1_555
N11 Sn6 2.183165 1_555
N11 Sn5 2.210279 1_655
N11 Sn15 2.295332 1_655
N12 Sn14 2.115592 1_555
N12 Sn8 2.160403 1_545
N12 Sn4 2.183451 1_555
N12 Sn10 2.223146 1_555
N13 Sn9 2.073369 1_555
N13 Sn5 2.171336 1_555
N13 Sn3 2.193412 1_555
N13 Sn15 2.246086 1_555
N14 Sn1 2.123262 1_455
N14 Sn11 2.181852 1_555
N14 Sn5 2.200958 1_556
N14 Sn14 2.226115 1_555
N15 Sn0 2.132573 1_555
N15 Sn15 2.185848 1_555
N15 Sn14 2.190541 1_555
N15 Sn11 2.209247 1_555
O0 Sn1 2.097513 1_555
O0 Sn9 2.243406 1_545
O0 Sn8 2.292629 1_645
O0 Sn13 2.367315 1_555
O1 Sn3 2.157503 1_545
O1 Sn0 2.191916 1_544
O1 Sn4 2.329108 1_554
O1 Sn11 2.337076 1_544
O2 Sn1 2.098336 1_555
O2 Sn0 2.231797 1_544
O2 Sn2 2.348032 1_555
O2 Sn6 2.399841 1_555
O3 Sn4 2.180505 1_554
O3 Sn7 2.247037 1_555
O3 Sn2 2.266803 1_555
O3 Sn9 2.275828 1_555
O4 Sn2 2.187905 1_555
O4 Sn11 2.236360 1_655
O4 Sn7 2.258618 1_555
O4 Sn1 2.312075 1_555
O5 Sn10 2.194272 1_555
O5 Sn13 2.268062 1_555
O5 Sn1 2.286245 1_555
O5 Sn5 2.322830 1_656
O6 Sn9 2.151628 1_555
O6 Sn0 2.178214 1_554
O6 Sn12 2.373245 1_555
O6 Sn14 2.397023 1_554
O7 Sn6 2.180435 1_455
O7 Sn8 2.205632 1_545
O7 Sn12 2.307853 1_445
O7 Sn3 2.357592 1_545
