# generated using pymatgen
data_Li2VBPO7
_symmetry_space_group_name_H-M   'P 1'
_cell_length_a   6.21251200
_cell_length_b   10.49003101
_cell_length_c   10.08129356
_cell_angle_alpha   118.05557534
_cell_angle_beta   90.00177296
_cell_angle_gamma   89.99955392
_symmetry_Int_Tables_number   1
_chemical_formula_structural   Li2VBPO7
_chemical_formula_sum   'Li8 V4 B4 P4 O28'
_cell_volume   579.79031201
_cell_formula_units_Z   4
loop_
 _symmetry_equiv_pos_site_id
 _symmetry_equiv_pos_as_xyz
  1  'x, y, z'
loop_
 _atom_site_type_symbol
 _atom_site_label
 _atom_site_symmetry_multiplicity
 _atom_site_fract_x
 _atom_site_fract_y
 _atom_site_fract_z
 _atom_site_occupancy
  Li  Li0  1  0.52545400  0.21676900  0.18372600  1
  Li  Li1  1  0.52544100  0.71673100  0.18368100  1
  Li  Li2  1  0.97456700  0.21674800  0.18373900  1
  Li  Li3  1  0.97457600  0.71674800  0.18368100  1
  Li  Li4  1  0.47457700  0.78325600  0.81631300  1
  Li  Li5  1  0.47456400  0.28324900  0.81626500  1
  Li  Li6  1  0.02543600  0.78326000  0.81630900  1
  Li  Li7  1  0.02544900  0.28324700  0.81627100  1
  V  V0  1  0.74996500  0.05840800  0.32835600  1
  V  V1  1  0.25000900  0.44160200  0.67163900  1
  V  V2  1  0.74996100  0.55828000  0.32835300  1
  V  V3  1  0.24999500  0.94161800  0.67163900  1
  B  B0  1  0.75001200  0.39999200  0.05949100  1
  B  B1  1  0.75000000  0.89991700  0.05954300  1
  B  B2  1  0.25000600  0.60007900  0.94045000  1
  B  B3  1  0.25001100  0.10003400  0.94050500  1
  P  P0  1  0.25000800  0.57873100  0.43976400  1
  P  P1  1  0.24993400  0.07871800  0.43979900  1
  P  P2  1  0.74999200  0.42127900  0.56021000  1
  P  P3  1  0.75000500  0.92127300  0.56022900  1
  O  O0  1  0.25000700  0.18515000  0.08714600  1
  O  O1  1  0.25000900  0.68515200  0.08713300  1
  O  O2  1  0.75001800  0.81484400  0.91285500  1
  O  O3  1  0.75000600  0.31486700  0.91288000  1
  O  O4  1  0.75001500  0.55491100  0.13552700  1
  O  O5  1  0.74998500  0.05491200  0.13557000  1
  O  O6  1  0.25000600  0.44509000  0.86441600  1
  O  O7  1  0.25001300  0.94508600  0.86448700  1
  O  O8  1  0.75001400  0.35631900  0.17492600  1
  O  O9  1  0.74998700  0.85629600  0.17490500  1
  O  O10  1  0.25000300  0.64370500  0.82508600  1
  O  O11  1  0.25001100  0.14366700  0.82508100  1
  O  O12  1  0.74997500  0.27754200  0.41360000  1
  O  O13  1  0.75001900  0.77756100  0.41359200  1
  O  O14  1  0.25002500  0.72243900  0.58642000  1
  O  O15  1  0.24998800  0.22247200  0.58639500  1
  O  O16  1  0.25001800  0.45077700  0.47438100  1
  O  O17  1  0.24999100  0.95079700  0.47449800  1
  O  O18  1  0.75001400  0.54920500  0.52550400  1
  O  O19  1  0.74998900  0.04924300  0.52562200  1
  O  O20  1  0.05392900  0.56872400  0.33949300  1
  O  O21  1  0.05384300  0.06861200  0.33952900  1
  O  O22  1  0.44611300  0.56872500  0.33950500  1
  O  O23  1  0.44603600  0.06861500  0.33951400  1
  O  O24  1  0.55390000  0.43139000  0.66047300  1
  O  O25  1  0.55392800  0.93128600  0.66051800  1
  O  O26  1  0.94609200  0.43138000  0.66047100  1
  O  O27  1  0.94610000  0.93129400  0.66051400  1
loop_
_geom_bond_atom_site_label_1
_geom_bond_atom_site_label_2
_geom_bond_distance
_geom_bond_site_symmetry_2
Li0 O0 1.918959 1_555
Li0 O8 2.054089 1_555
Li0 O5 2.070964 1_555
Li0 O12 2.516460 1_555
Li1 O1 1.918766 1_555
Li1 O9 2.054053 1_555
Li1 O4 2.070871 1_555
Li1 O13 2.516848 1_555
Li2 O0 1.919040 1_655
Li2 O8 2.054251 1_555
Li2 O5 2.070999 1_555
Li2 O12 2.516634 1_555
Li3 O1 1.918809 1_655
Li3 O9 2.054085 1_555
Li3 O4 2.070941 1_555
Li3 O13 2.516881 1_555
Li4 O2 1.918784 1_555
Li4 O10 2.054053 1_555
Li4 O7 2.070873 1_555
Li4 O14 2.516637 1_555
Li5 O3 1.919082 1_555
Li5 O11 2.054366 1_555
Li5 O6 2.070965 1_555
Li5 O15 2.516609 1_555
Li6 O2 1.918726 1_455
Li6 O10 2.054050 1_555
Li6 O7 2.070890 1_555
Li6 O14 2.516799 1_555
Li7 O3 1.919110 1_455
Li7 O11 2.054347 1_555
Li7 O6 2.070983 1_555
Li7 O15 2.516608 1_555
B0 O3 1.319262 1_554
B0 O4 1.434144 1_555
B0 O8 1.437242 1_555
B1 O2 1.319803 1_554
B1 O5 1.434847 1_565
B1 O9 1.436154 1_555
B2 O1 1.319762 1_556
B2 O6 1.434791 1_555
B2 O10 1.436210 1_555
B3 O0 1.319490 1_556
B3 O7 1.434412 1_545
B3 O11 1.436842 1_555
O4 V2 1.927566 1_555
O5 V0 1.926556 1_555
O6 V1 1.926503 1_555
O7 V3 1.927314 1_555
O8 V2 1.948937 1_555
O9 V0 1.950136 1_565
O10 V1 1.950057 1_555
O11 V3 1.949638 1_545
O12 P2 1.536784 1_555
O12 V0 2.040691 1_555
O13 P3 1.536781 1_555
O13 V2 2.042128 1_555
O14 P0 1.536855 1_555
O14 V3 2.041157 1_555
O15 P1 1.536808 1_555
O15 V1 2.040652 1_555
O16 P0 1.537539 1_555
O16 V1 2.035656 1_555
O17 P1 1.537727 1_565
O17 V3 2.034498 1_555
O18 P2 1.537823 1_555
O18 V2 2.034047 1_555
O19 P3 1.537639 1_545
O19 V0 2.035683 1_555
O20 P0 1.554620 1_555
O20 V2 1.891852 1_455
O21 P1 1.554425 1_555
O21 V0 1.891231 1_455
O22 P0 1.554722 1_555
O22 V2 1.891117 1_555
O23 P1 1.554627 1_555
O23 V0 1.891549 1_555
O24 P2 1.554421 1_555
O24 V1 1.891317 1_555
O25 P3 1.554755 1_555
O25 V3 1.891599 1_555
O26 P2 1.554425 1_555
O26 V1 1.891477 1_655
O27 P3 1.554750 1_555
O27 V3 1.891357 1_655
