# generated using pymatgen
data_TiMnO3
_symmetry_space_group_name_H-M   'P 1'
_cell_length_a   3.27187100
_cell_length_b   5.95703463
_cell_length_c   6.17322176
_cell_angle_alpha   100.59936458
_cell_angle_beta   105.30998006
_cell_angle_gamma   92.30158368
_symmetry_Int_Tables_number   1
_chemical_formula_structural   TiMnO3
_chemical_formula_sum   'Ti2 Mn2 O6'
_cell_volume   113.56933258
_cell_formula_units_Z   2
loop_
 _symmetry_equiv_pos_site_id
 _symmetry_equiv_pos_as_xyz
  1  'x, y, z'
loop_
 _atom_site_type_symbol
 _atom_site_label
 _atom_site_symmetry_multiplicity
 _atom_site_fract_x
 _atom_site_fract_y
 _atom_site_fract_z
 _atom_site_occupancy
  Ti  Ti0  1  0.87792100  0.57343300  0.74294000  1
  Ti  Ti1  1  0.12207900  0.42656700  0.25706000  1
  Mn  Mn0  1  0.63914800  0.88619800  0.21953200  1
  Mn  Mn1  1  0.36085200  0.11380200  0.78046800  1
  O  O0  1  0.41785700  0.78153800  0.79310800  1
  O  O1  1  0.27716300  0.36702000  0.57731700  1
  O  O2  1  0.06562300  0.69106700  0.10291200  1
  O  O3  1  0.58214300  0.21846200  0.20689200  1
  O  O4  1  0.72283700  0.63298000  0.42268300  1
  O  O5  1  0.93437700  0.30893300  0.89708800  1
loop_
_geom_bond_atom_site_label_1
_geom_bond_atom_site_label_2
_geom_bond_distance
_geom_bond_site_symmetry_2
Mn0 O3 2.009308 1_565
Mn0 O2 2.041919 1_655
Mn0 O2 2.047990 1_555
Mn0 O4 2.114438 1_555
Mn0 O0 2.489174 1_554
Mn1 O0 2.009308 1_545
Mn1 O5 2.041919 1_455
Mn1 O5 2.047990 1_555
Mn1 O1 2.114438 1_555
Mn1 O3 2.489174 1_556
O0 Ti0 2.036555 1_455
O0 Ti0 2.037989 1_555
O1 Ti1 2.008629 1_555
O1 Ti0 2.153006 1_455
O1 Ti0 2.168638 1_555
O2 Ti1 1.975958 1_555
O2 Ti0 2.116179 1_454
O3 Ti1 2.036555 1_655
O3 Ti1 2.037989 1_555
O4 Ti0 2.008629 1_555
O4 Ti1 2.153006 1_655
O4 Ti1 2.168638 1_555
O5 Ti0 1.975958 1_555
O5 Ti1 2.116179 1_656
