# generated using pymatgen
data_Li4MnFe3(PO4)4
_symmetry_space_group_name_H-M   'P 1'
_cell_length_a   4.76272500
_cell_length_b   10.48076500
_cell_length_c   12.21746300
_cell_angle_alpha   90.00000000
_cell_angle_beta   90.00000000
_cell_angle_gamma   90.00000000
_symmetry_Int_Tables_number   1
_chemical_formula_structural   Li4MnFe3(PO4)4
_chemical_formula_sum   'Li8 Mn2 Fe6 P8 O32'
_cell_volume   609.85911871
_cell_formula_units_Z   2
loop_
 _symmetry_equiv_pos_site_id
 _symmetry_equiv_pos_as_xyz
  1  'x, y, z'
loop_
 _atom_site_type_symbol
 _atom_site_label
 _atom_site_symmetry_multiplicity
 _atom_site_fract_x
 _atom_site_fract_y
 _atom_site_fract_z
 _atom_site_occupancy
  Li  Li0  1  0.24981100  0.00041600  0.87485400  1
  Li  Li1  1  0.24981100  0.00041600  0.12514600  1
  Li  Li2  1  0.25033600  0.99974400  0.37453800  1
  Li  Li3  1  0.25033600  0.99974400  0.62546200  1
  Li  Li4  1  0.75018900  0.50041600  0.37485400  1
  Li  Li5  1  0.74966400  0.49974400  0.87453800  1
  Li  Li6  1  0.74966400  0.49974400  0.12546200  1
  Li  Li7  1  0.75018900  0.50041600  0.62514600  1
  Mn  Mn0  1  0.27311500  0.71850900  0.00000000  1
  Mn  Mn1  1  0.72688500  0.21850900  0.50000000  1
  Fe  Fe0  1  0.27595200  0.71839500  0.50000000  1
  Fe  Fe1  1  0.72404800  0.21839500  0.00000000  1
  Fe  Fe2  1  0.77532200  0.78158500  0.74960100  1
  Fe  Fe3  1  0.77532200  0.78158500  0.25039900  1
  Fe  Fe4  1  0.22467800  0.28158500  0.24960100  1
  Fe  Fe5  1  0.22467800  0.28158500  0.75039900  1
  P  P0  1  0.33405700  0.59427100  0.74922800  1
  P  P1  1  0.33405700  0.59427100  0.25077200  1
  P  P2  1  0.66594300  0.09427100  0.75077200  1
  P  P3  1  0.66594300  0.09427100  0.24922800  1
  P  P4  1  0.83206500  0.90731200  0.00000000  1
  P  P5  1  0.83368000  0.90467700  0.50000000  1
  P  P6  1  0.16793500  0.40731200  0.50000000  1
  P  P7  1  0.16632000  0.40467700  0.00000000  1
  O  O0  1  0.45684900  0.45630400  0.74938000  1
  O  O1  1  0.45684900  0.45630400  0.25062000  1
  O  O2  1  0.47150600  0.66417000  0.15042800  1
  O  O3  1  0.46620500  0.66449400  0.35252600  1
  O  O4  1  0.46620500  0.66449400  0.64747400  1
  O  O5  1  0.47150600  0.66417000  0.84957200  1
  O  O6  1  0.49138300  0.40484300  0.50000000  1
  O  O7  1  0.48964500  0.40328400  0.00000000  1
  O  O8  1  0.51035500  0.90328400  0.50000000  1
  O  O9  1  0.50861700  0.90484300  0.00000000  1
  O  O10  1  0.53379500  0.16449400  0.14747400  1
  O  O11  1  0.52849400  0.16417000  0.34957200  1
  O  O12  1  0.53379500  0.16449400  0.85252600  1
  O  O13  1  0.52849400  0.16417000  0.65042800  1
  O  O14  1  0.54315100  0.95630400  0.24938000  1
  O  O15  1  0.54315100  0.95630400  0.75062000  1
  O  O16  1  0.95957700  0.04171300  0.50000000  1
  O  O17  1  0.95827500  0.04403600  0.00000000  1
  O  O18  1  0.96622800  0.83430800  0.39852100  1
  O  O19  1  0.96622800  0.83430800  0.60147900  1
  O  O20  1  0.96280400  0.83629400  0.89851800  1
  O  O21  1  0.96280400  0.83629400  0.10148200  1
  O  O22  1  0.98906800  0.09703100  0.74989900  1
  O  O23  1  0.98906800  0.09703100  0.25010100  1
  O  O24  1  0.01093200  0.59703100  0.24989900  1
  O  O25  1  0.01093200  0.59703100  0.75010100  1
  O  O26  1  0.03719600  0.33629400  0.60148200  1
  O  O27  1  0.03377200  0.33430800  0.89852100  1
  O  O28  1  0.03377200  0.33430800  0.10147900  1
  O  O29  1  0.03719600  0.33629400  0.39851800  1
  O  O30  1  0.04172500  0.54403600  0.50000000  1
  O  O31  1  0.04042300  0.54171300  0.00000000  1
loop_
_geom_bond_atom_site_label_1
_geom_bond_atom_site_label_2
_geom_bond_distance
_geom_bond_site_symmetry_2
Li0 O15 2.114100 1_545
Li0 O17 2.115347 1_456
Li0 O9 2.204644 1_546
Li0 O12 2.204771 1_555
Li0 O22 2.213176 1_455
Li0 O20 2.216061 1_445
Li1 O14 2.114100 1_545
Li1 O17 2.115347 1_455
Li1 O9 2.204644 1_545
Li1 O10 2.204771 1_555
Li1 O23 2.213176 1_455
Li1 O21 2.216061 1_445
Li2 O16 2.112044 1_465
Li2 O14 2.119050 1_555
Li2 O11 2.194973 1_565
Li2 O23 2.213458 1_465
Li2 O8 2.214782 1_555
Li2 O18 2.218830 1_455
Li3 O16 2.112044 1_465
Li3 O15 2.119050 1_555
Li3 O13 2.194973 1_565
Li3 O22 2.213458 1_465
Li3 O8 2.214782 1_555
Li3 O19 2.218830 1_455
Li4 O1 2.114100 1_555
Li4 O30 2.115347 1_655
Li4 O6 2.204644 1_555
Li4 O3 2.204771 1_555
Li4 O24 2.213176 1_655
Li4 O29 2.216061 1_655
Li5 O31 2.112044 1_656
Li5 O0 2.119050 1_555
Li5 O5 2.194973 1_555
Li5 O25 2.213458 1_655
Li5 O7 2.214782 1_556
Li5 O27 2.218830 1_655
Li6 O31 2.112044 1_655
Li6 O1 2.119050 1_555
Li6 O2 2.194973 1_555
Li6 O24 2.213458 1_655
Li6 O7 2.214782 1_555
Li6 O28 2.218830 1_655
Li7 O0 2.114100 1_555
Li7 O30 2.115347 1_655
Li7 O6 2.204644 1_555
Li7 O4 2.204771 1_555
Li7 O25 2.213176 1_655
Li7 O26 2.216061 1_655
Mn0 O5 2.143557 1_554
Mn0 O2 2.143557 1_555
Mn0 O31 2.159089 1_555
Mn0 O9 2.252102 1_555
Mn0 O20 2.290291 1_454
Mn0 O21 2.290291 1_455
Mn1 O11 2.143557 1_555
Mn1 O13 2.143557 1_555
Mn1 O16 2.159089 1_555
Mn1 O6 2.252102 1_555
Mn1 O26 2.290291 1_655
Mn1 O29 2.290291 1_655
Fe0 O4 2.094404 1_555
Fe0 O3 2.094404 1_555
Fe0 O30 2.141009 1_555
Fe0 O8 2.236365 1_555
Fe0 O18 2.277944 1_455
Fe0 O19 2.277944 1_455
Fe1 O12 2.094404 1_554
Fe1 O10 2.094404 1_555
Fe1 O17 2.141009 1_555
Fe1 O7 2.236365 1_555
Fe1 O27 2.277944 1_654
Fe1 O28 2.277944 1_655
Fe2 O19 2.099278 1_555
Fe2 O20 2.106245 1_555
Fe2 O15 2.139188 1_555
Fe2 O25 2.236210 1_655
Fe2 O5 2.258309 1_555
Fe2 O4 2.286997 1_555
Fe3 O18 2.099278 1_555
Fe3 O21 2.106245 1_555
Fe3 O14 2.139188 1_555
Fe3 O24 2.236210 1_655
Fe3 O2 2.258309 1_555
Fe3 O3 2.286997 1_555
Fe4 O28 2.099278 1_555
Fe4 O29 2.106245 1_555
Fe4 O1 2.139188 1_555
Fe4 O23 2.236210 1_455
Fe4 O11 2.258309 1_555
Fe4 O10 2.286997 1_555
Fe5 O27 2.099278 1_555
Fe5 O26 2.106245 1_555
Fe5 O0 2.139188 1_555
Fe5 O22 2.236210 1_455
Fe5 O13 2.258309 1_555
Fe5 O12 2.286997 1_555
O0 P0 1.559788 1_555
O1 P1 1.559788 1_555
O2 P1 1.571047 1_555
O3 P1 1.575847 1_555
O4 P0 1.575847 1_555
O5 P0 1.571047 1_555
O6 P6 1.540711 1_555
O7 P7 1.539977 1_555
O8 P5 1.539977 1_555
O9 P4 1.540711 1_555
O10 P3 1.575847 1_555
O11 P3 1.571047 1_555
O12 P2 1.575847 1_555
O13 P2 1.571047 1_555
O14 P3 1.559788 1_565
O15 P2 1.559788 1_565
O16 P5 1.556383 1_545
O17 P4 1.553942 1_545
O18 P5 1.574677 1_555
O19 P5 1.574677 1_555
O20 P4 1.574476 1_556
O21 P4 1.574476 1_555
O22 P2 1.539264 1_555
O23 P3 1.539264 1_555
O24 P1 1.539264 1_555
O25 P0 1.539264 1_555
O26 P6 1.574476 1_555
O27 P7 1.574677 1_556
O28 P7 1.574677 1_555
O29 P6 1.574476 1_555
O30 P6 1.553942 1_555
O31 P7 1.556383 1_555
