# generated using pymatgen
data_Li4Nb2V3Fe3O16
_symmetry_space_group_name_H-M   'P 1'
_cell_length_a   6.00308600
_cell_length_b   6.02403704
_cell_length_c   9.78548978
_cell_angle_alpha   89.95630994
_cell_angle_beta   90.26860140
_cell_angle_gamma   119.39293254
_symmetry_Int_Tables_number   1
_chemical_formula_structural   Li4Nb2V3Fe3O16
_chemical_formula_sum   'Li4 Nb2 V3 Fe3 O16'
_cell_volume   308.31471260
_cell_formula_units_Z   1
loop_
 _symmetry_equiv_pos_site_id
 _symmetry_equiv_pos_as_xyz
  1  'x, y, z'
loop_
 _atom_site_type_symbol
 _atom_site_label
 _atom_site_symmetry_multiplicity
 _atom_site_fract_x
 _atom_site_fract_y
 _atom_site_fract_z
 _atom_site_occupancy
  Li  Li0  1  0.65658200  0.33053000  0.90025000  1
  Li  Li1  1  0.01006300  0.00462400  0.99035800  1
  Li  Li2  1  0.01018100  0.00205500  0.49088900  1
  Li  Li3  1  0.32494400  0.66112100  0.39944300  1
  Nb  Nb0  1  0.67576200  0.34078400  0.49678600  1
  Nb  Nb1  1  0.33928300  0.67181100  0.99758500  1
  V  V0  1  0.35102200  0.17571600  0.22293200  1
  V  V1  1  0.17510500  0.34524200  0.71531900  1
  V  V2  1  0.17927400  0.82640000  0.72234500  1
  Fe  Fe0  1  0.83268500  0.17423500  0.21500800  1
  Fe  Fe1  1  0.82918300  0.65967400  0.21390400  1
  Fe  Fe2  1  0.66059600  0.83274000  0.71370600  1
  O  O0  1  0.84188600  0.17045400  0.58987800  1
  O  O1  1  0.95446200  0.46663000  0.34302000  1
  O  O2  1  0.63236300  0.30565500  0.10749300  1
  O  O3  1  0.02341200  0.02004700  0.30138300  1
  O  O4  1  0.02177800  0.00080300  0.80096800  1
  O  O5  1  0.84212800  0.66405000  0.58719400  1
  O  O6  1  0.51307500  0.03332000  0.33924800  1
  O  O7  1  0.49917300  0.45960300  0.34904700  1
  O  O8  1  0.67142500  0.84335300  0.08889200  1
  O  O9  1  0.34489300  0.16411900  0.59535100  1
  O  O10  1  0.46617100  0.51306700  0.84486900  1
  O  O11  1  0.46200300  0.95982000  0.84768900  1
  O  O12  1  0.30608700  0.66830700  0.60585500  1
  O  O13  1  0.16563500  0.33819000  0.09424100  1
  O  O14  1  0.03316800  0.52888200  0.84272400  1
  O  O15  1  0.17766100  0.83847000  0.09145900  1
loop_
_geom_bond_atom_site_label_1
_geom_bond_atom_site_label_2
_geom_bond_distance
_geom_bond_site_symmetry_2
Li0 O10 2.009095 1_555
Li0 O11 2.012862 1_545
Li0 O2 2.034008 1_556
Li0 O14 2.052967 1_655
Li1 O4 1.855526 1_555
Li1 O15 1.992610 1_546
Li1 O8 2.021000 1_446
Li1 O13 2.023720 1_556
Li2 O3 1.857286 1_555
Li2 O0 2.001189 1_455
Li2 O5 2.010331 1_445
Li2 O9 2.022888 1_555
Li3 O1 2.013848 1_455
Li3 O7 2.015656 1_555
Li3 O12 2.025226 1_555
Li3 O6 2.041633 1_565
Nb0 O5 1.912490 1_555
Nb0 O0 1.967654 1_555
Nb0 O9 1.987331 1_555
Nb0 O1 2.101133 1_555
Nb0 O7 2.110686 1_555
Nb0 O6 2.230581 1_555
Nb1 O15 1.938819 1_556
Nb1 O8 1.950367 1_556
Nb1 O13 1.992539 1_556
Nb1 O10 2.110872 1_555
Nb1 O11 2.110927 1_555
Nb1 O14 2.199416 1_555
Fe0 O3 1.980320 1_655
Fe0 O1 1.984170 1_555
Fe0 O2 2.025129 1_555
Fe0 O6 2.073987 1_555
Fe0 O13 2.109405 1_655
Fe0 O8 2.128773 1_545
Fe1 O3 2.077002 1_665
Fe1 O1 2.088446 1_555
Fe1 O2 2.132333 1_555
Fe1 O8 2.152518 1_555
Fe1 O15 2.186731 1_655
Fe1 O7 2.191924 1_555
Fe2 O4 2.069902 1_665
Fe2 O10 2.126510 1_555
Fe2 O12 2.129630 1_555
Fe2 O0 2.150992 1_565
Fe2 O11 2.153672 1_555
Fe2 O5 2.203269 1_555
O0 V1 2.127978 1_655
O2 V0 1.860124 1_555
O3 V0 1.881293 1_555
O4 V2 1.890154 1_545
O4 V1 1.996201 1_555
O5 V2 2.199022 1_655
O6 V0 1.945498 1_555
O7 V0 1.933532 1_555
O9 V2 2.166558 1_545
O9 V1 2.170784 1_555
O10 V1 1.982279 1_555
O11 V2 1.916775 1_555
O12 V2 1.872796 1_555
O12 V1 2.013901 1_555
O13 V0 2.199206 1_555
O14 V2 1.957682 1_555
O14 V1 2.107469 1_555
O15 V0 2.186692 1_565
