# generated using pymatgen
data_VO2F
_symmetry_space_group_name_H-M   'P 1'
_cell_length_a   5.27755500
_cell_length_b   5.42334251
_cell_length_c   11.07015319
_cell_angle_alpha   101.06007121
_cell_angle_beta   103.21550180
_cell_angle_gamma   93.04428721
_symmetry_Int_Tables_number   1
_chemical_formula_structural   VO2F
_chemical_formula_sum   'V6 O12 F6'
_cell_volume   301.16651232
_cell_formula_units_Z   6
loop_
 _symmetry_equiv_pos_site_id
 _symmetry_equiv_pos_as_xyz
  1  'x, y, z'
loop_
 _atom_site_type_symbol
 _atom_site_label
 _atom_site_symmetry_multiplicity
 _atom_site_fract_x
 _atom_site_fract_y
 _atom_site_fract_z
 _atom_site_occupancy
  V  V0  1  0.13148500  0.21001300  0.32910600  1
  V  V1  1  0.37780500  0.29547700  0.65896900  1
  V  V2  1  0.50000000  0.50000000  0.00000000  1
  V  V3  1  0.62219500  0.70452300  0.34103100  1
  V  V4  1  0.00000000  0.00000000  0.00000000  1
  V  V5  1  0.86851500  0.78998700  0.67089400  1
  O  O0  1  0.83993300  0.92436000  0.83015400  1
  O  O1  1  0.61629000  0.12858000  0.63561500  1
  O  O2  1  0.48345400  0.42203200  0.83073500  1
  O  O3  1  0.16561500  0.24114700  0.50041400  1
  O  O4  1  0.78531000  0.73702900  0.02147300  1
  O  O5  1  0.96260600  0.44427500  0.30158100  1
  O  O6  1  0.21469000  0.26297100  0.97852700  1
  O  O7  1  0.03739400  0.55572500  0.69841900  1
  O  O8  1  0.83438500  0.75885300  0.49958600  1
  O  O9  1  0.51654600  0.57796800  0.16926500  1
  O  O10  1  0.38371000  0.87142000  0.36438500  1
  O  O11  1  0.16006700  0.07564000  0.16984600  1
  F  F0  1  0.51630800  0.61527300  0.63015700  1
  F  F1  1  0.15785400  0.04721300  0.70197800  1
  F  F2  1  0.26731100  0.77025600  0.96965200  1
  F  F3  1  0.73268900  0.22974400  0.03034800  1
  F  F4  1  0.84214600  0.95278700  0.29802200  1
  F  F5  1  0.48369200  0.38472700  0.36984300  1
loop_
_geom_bond_atom_site_label_1
_geom_bond_atom_site_label_2
_geom_bond_distance
_geom_bond_site_symmetry_2
O0 V5 1.817261 1_555
O0 V4 1.832529 1_666
O1 V1 1.627954 1_555
O1 V5 2.365067 1_545
O2 V2 1.820654 1_556
O2 V1 1.836148 1_555
O3 V1 1.813698 1_555
O3 V0 1.837128 1_555
O4 V4 1.858994 1_665
O4 V2 1.868088 1_555
O5 V0 1.626642 1_655
O6 V4 1.858994 1_556
O6 V2 1.868088 1_556
O7 V5 1.626642 1_455
O8 V3 1.813698 1_555
O8 V5 1.837128 1_555
O9 V2 1.820654 1_555
O9 V3 1.836148 1_555
O10 V3 1.627954 1_555
O10 V0 2.365067 1_565
O11 V0 1.817261 1_555
O11 V4 1.832529 1_555
F0 V5 1.954995 1_555
F0 V1 1.956587 1_555
F1 V1 1.928639 1_555
F1 V5 1.935342 1_445
F2 V4 1.974423 1_566
F2 V2 1.990136 1_556
F3 V4 1.974423 1_655
F3 V2 1.990136 1_555
F4 V3 1.928639 1_555
F4 V0 1.935342 1_665
F5 V0 1.954995 1_555
F5 V3 1.956587 1_555
