# generated using pymatgen
data_LiFe3(OF3)2
_symmetry_space_group_name_H-M   'P 1'
_cell_length_a   4.70176600
_cell_length_b   5.60518800
_cell_length_c   10.38468008
_cell_angle_alpha   84.39010532
_cell_angle_beta   90.00000000
_cell_angle_gamma   90.00000000
_symmetry_Int_Tables_number   1
_chemical_formula_structural   LiFe3(OF3)2
_chemical_formula_sum   'Li2 Fe6 O4 F12'
_cell_volume   272.37000602
_cell_formula_units_Z   2
loop_
 _symmetry_equiv_pos_site_id
 _symmetry_equiv_pos_as_xyz
  1  'x, y, z'
loop_
 _atom_site_type_symbol
 _atom_site_label
 _atom_site_symmetry_multiplicity
 _atom_site_fract_x
 _atom_site_fract_y
 _atom_site_fract_z
 _atom_site_occupancy
  Li  Li0  1  0.00000000  0.00000000  0.00000000  1
  Li  Li1  1  0.50000000  0.00000000  0.50000000  1
  Fe  Fe0  1  0.50000000  0.50000000  0.00000000  1
  Fe  Fe1  1  0.99156200  0.27028500  0.24676600  1
  Fe  Fe2  1  0.49156200  0.72971500  0.25323400  1
  Fe  Fe3  1  0.00000000  0.50000000  0.50000000  1
  Fe  Fe4  1  0.50843800  0.27028500  0.74676600  1
  Fe  Fe5  1  0.00843800  0.72971500  0.75323400  1
  O  O0  1  0.69442600  0.48280600  0.16879300  1
  O  O1  1  0.19442600  0.51719400  0.33120700  1
  O  O2  1  0.80557400  0.48280600  0.66879300  1
  O  O3  1  0.30557400  0.51719400  0.83120700  1
  F  F0  1  0.19870000  0.27136300  0.07799400  1
  F  F1  1  0.30190200  0.77257800  0.07555000  1
  F  F2  1  0.79315800  0.98157000  0.18328500  1
  F  F3  1  0.29315800  0.01843000  0.31671500  1
  F  F4  1  0.80190200  0.22742200  0.42445000  1
  F  F5  1  0.69870000  0.72863700  0.42200600  1
  F  F6  1  0.30130000  0.27136300  0.57799400  1
  F  F7  1  0.19809800  0.77257800  0.57555000  1
  F  F8  1  0.70684200  0.98157000  0.68328500  1
  F  F9  1  0.20684200  0.01843000  0.81671500  1
  F  F10  1  0.69809800  0.22742200  0.92445000  1
  F  F11  1  0.80130000  0.72863700  0.92200600  1
loop_
_geom_bond_atom_site_label_1
_geom_bond_atom_site_label_2
_geom_bond_distance
_geom_bond_site_symmetry_2
Fe0 O3 1.970900 1_554
Fe0 O0 1.970900 1_555
Fe1 O1 1.957385 1_655
Fe1 O0 1.959047 1_555
Fe2 O0 1.957385 1_555
Fe2 O1 1.959047 1_555
Fe3 O2 1.970900 1_455
Fe3 O1 1.970900 1_555
Fe4 O3 1.957385 1_555
Fe4 O2 1.959047 1_555
Fe5 O2 1.957385 1_455
Fe5 O3 1.959047 1_555
F0 Fe1 2.004553 1_455
F0 Li0 2.020702 1_555
F0 Fe0 2.025420 1_555
F1 Fe0 2.012896 1_555
F1 Li0 2.014914 1_565
F1 Fe2 2.042297 1_555
F2 Fe1 2.032798 1_565
F2 Fe2 2.081074 1_555
F2 Li0 2.130914 1_665
F3 Fe2 2.032798 1_545
F3 Fe1 2.081074 1_455
F3 Li1 2.130914 1_555
F4 Fe3 2.012896 1_655
F4 Li1 2.014914 1_555
F4 Fe1 2.042297 1_555
F5 Fe2 2.004553 1_555
F5 Li1 2.020702 1_565
F5 Fe3 2.025420 1_655
F6 Fe4 2.004553 1_555
F6 Li1 2.020702 1_555
F6 Fe3 2.025420 1_555
F7 Fe3 2.012896 1_555
F7 Li1 2.014914 1_565
F7 Fe5 2.042297 1_555
F8 Fe4 2.032798 1_565
F8 Fe5 2.081074 1_655
F8 Li1 2.130914 1_565
F9 Fe5 2.032798 1_545
F9 Fe4 2.081074 1_555
F9 Li0 2.130914 1_556
F10 Fe0 2.012896 1_556
F10 Li0 2.014914 1_656
F10 Fe4 2.042297 1_555
F11 Fe5 2.004553 1_655
F11 Li0 2.020702 1_666
F11 Fe0 2.025420 1_556
