# generated using pymatgen
data_V2NiO6
_symmetry_space_group_name_H-M   'P 1'
_cell_length_a   4.98654124
_cell_length_b   8.79243687
_cell_length_c   5.42474382
_cell_angle_alpha   73.31144831
_cell_angle_beta   115.54030271
_cell_angle_gamma   105.49899722
_symmetry_Int_Tables_number   1
_chemical_formula_structural   V2NiO6
_chemical_formula_sum   'V4 Ni2 O12'
_cell_volume   202.71171767
_cell_formula_units_Z   2
loop_
 _symmetry_equiv_pos_site_id
 _symmetry_equiv_pos_as_xyz
  1  'x, y, z'
loop_
 _atom_site_type_symbol
 _atom_site_label
 _atom_site_symmetry_multiplicity
 _atom_site_fract_x
 _atom_site_fract_y
 _atom_site_fract_z
 _atom_site_occupancy
  V  V0  1  0.21411900  0.75119700  0.70479300  1
  V  V1  1  0.98429000  0.00311700  0.96262600  1
  V  V2  1  0.48430600  0.50312300  0.46261900  1
  V  V3  1  0.71410500  0.25118300  0.20479400  1
  Ni  Ni0  1  0.04827500  0.34918700  0.75063400  1
  Ni  Ni1  1  0.54828800  0.84919500  0.25068800  1
  O  O0  1  0.45681700  0.07131100  0.20988600  1
  O  O1  1  0.95677500  0.57128900  0.70988900  1
  O  O2  1  0.94892000  0.19739500  0.07890000  1
  O  O3  1  0.44891400  0.69738700  0.57882900  1
  O  O4  1  0.50777900  0.37492700  0.91550200  1
  O  O5  1  0.00779300  0.87495100  0.41549400  1
  O  O6  1  0.99688500  0.12388000  0.66026800  1
  O  O7  1  0.49691200  0.62385000  0.16035200  1
  O  O8  1  0.61630300  0.33088400  0.46770100  1
  O  O9  1  0.11630200  0.83089400  0.96772900  1
  O  O10  1  0.10200500  0.42350500  0.37585700  1
  O  O11  1  0.60200800  0.92352900  0.87584200  1
loop_
_geom_bond_atom_site_label_1
_geom_bond_atom_site_label_2
_geom_bond_distance
_geom_bond_site_symmetry_2
Ni0 O8 2.031577 1_455
Ni0 O4 2.042877 1_555
Ni0 O1 2.052282 1_455
Ni0 O2 2.059164 1_456
Ni0 O10 2.060406 1_555
Ni0 O6 2.099629 1_455
Ni1 O9 2.031672 1_554
Ni1 O5 2.042878 1_655
Ni1 O0 2.052260 1_565
Ni1 O3 2.058723 1_555
Ni1 O11 2.060738 1_554
Ni1 O7 2.099899 1_555
O0 V3 1.751867 1_555
O0 V1 2.166158 1_454
O1 V0 1.752230 1_655
O1 V2 2.165914 1_555
O2 V3 1.797808 1_555
O2 V1 2.054895 1_554
O3 V0 1.798105 1_555
O3 V2 2.054625 1_555
O4 V3 1.711856 1_556
O4 V2 2.356274 1_555
O5 V0 1.711921 1_555
O5 V1 2.356111 1_464
O6 V1 1.695465 1_555
O6 V3 2.365803 1_555
O7 V2 1.694977 1_555
O7 V0 2.366249 1_554
O8 V2 1.794578 1_555
O8 V3 2.029632 1_555
O9 V1 1.794446 1_465
O9 V0 2.029800 1_555
O10 V2 1.745880 1_555
O10 V3 2.142813 1_455
O11 V1 1.745738 1_565
O11 V0 2.142817 1_555
