# generated using pymatgen
data_LiNi2(PO4)2
_symmetry_space_group_name_H-M   'P 1'
_cell_length_a   4.97831300
_cell_length_b   10.01811000
_cell_length_c   14.02993100
_cell_angle_alpha   90.00000000
_cell_angle_beta   90.00000000
_cell_angle_gamma   90.00000000
_symmetry_Int_Tables_number   1
_chemical_formula_structural   LiNi2(PO4)2
_chemical_formula_sum   'Li4 Ni8 P8 O32'
_cell_volume   699.71877884
_cell_formula_units_Z   4
loop_
 _symmetry_equiv_pos_site_id
 _symmetry_equiv_pos_as_xyz
  1  'x, y, z'
loop_
 _atom_site_type_symbol
 _atom_site_label
 _atom_site_symmetry_multiplicity
 _atom_site_fract_x
 _atom_site_fract_y
 _atom_site_fract_z
 _atom_site_occupancy
  Li  Li0  1  0.54989300  0.22601500  0.24916400  1
  Li  Li1  1  0.54989300  0.27398500  0.74916400  1
  Li  Li2  1  0.45010700  0.72601500  0.24916400  1
  Li  Li3  1  0.45010700  0.77398500  0.74916400  1
  Ni  Ni0  1  0.05795500  0.03570500  0.24799700  1
  Ni  Ni1  1  0.54278100  0.23101800  0.99931600  1
  Ni  Ni2  1  0.54278100  0.26898200  0.49931600  1
  Ni  Ni3  1  0.05795500  0.46429500  0.74799700  1
  Ni  Ni4  1  0.94204500  0.53570500  0.24799700  1
  Ni  Ni5  1  0.45721900  0.73101800  0.99931600  1
  Ni  Ni6  1  0.45721900  0.76898200  0.49931600  1
  Ni  Ni7  1  0.94204500  0.96429500  0.74799700  1
  P  P0  1  0.43818100  0.02503000  0.62405500  1
  P  P1  1  0.05377600  0.21412900  0.87153400  1
  P  P2  1  0.05377600  0.28587100  0.37153400  1
  P  P3  1  0.43818100  0.47497000  0.12405500  1
  P  P4  1  0.56181900  0.52503000  0.62405500  1
  P  P5  1  0.94622400  0.71412900  0.87153400  1
  P  P6  1  0.94622400  0.78587100  0.37153400  1
  P  P7  1  0.56181900  0.97497000  0.12405500  1
  O  O0  1  0.86996000  0.99581500  0.13950300  1
  O  O1  1  0.48459700  0.04100400  0.03043600  1
  O  O2  1  0.42342200  0.04400700  0.21232300  1
  O  O3  1  0.98943300  0.06309200  0.85525100  1
  O  O4  1  0.50644800  0.17541000  0.62547200  1
  O  O5  1  0.93760100  0.20977300  0.28250800  1
  O  O6  1  0.92203500  0.24573500  0.46492200  1
  O  O7  1  0.36009500  0.23920300  0.87247600  1
  O  O8  1  0.36009500  0.26079700  0.37247600  1
  O  O9  1  0.92203500  0.25426500  0.96492200  1
  O  O10  1  0.93760100  0.29022700  0.78250800  1
  O  O11  1  0.50644800  0.32459000  0.12547200  1
  O  O12  1  0.98943300  0.43690800  0.35525100  1
  O  O13  1  0.42342200  0.45599300  0.71232300  1
  O  O14  1  0.48459700  0.45899600  0.53043600  1
  O  O15  1  0.86996000  0.50418500  0.63950300  1
  O  O16  1  0.13004000  0.49581500  0.13950300  1
  O  O17  1  0.51540300  0.54100400  0.03043600  1
  O  O18  1  0.57657800  0.54400700  0.21232300  1
  O  O19  1  0.01056700  0.56309200  0.85525100  1
  O  O20  1  0.49355200  0.67541000  0.62547200  1
  O  O21  1  0.06239900  0.70977300  0.28250800  1
  O  O22  1  0.07796500  0.74573500  0.46492200  1
  O  O23  1  0.63990500  0.73920300  0.87247600  1
  O  O24  1  0.63990500  0.76079700  0.37247600  1
  O  O25  1  0.07796500  0.75426500  0.96492200  1
  O  O26  1  0.06239900  0.79022700  0.78250800  1
  O  O27  1  0.49355200  0.82459000  0.12547200  1
  O  O28  1  0.01056700  0.93690800  0.35525100  1
  O  O29  1  0.57657800  0.95599300  0.71232300  1
  O  O30  1  0.51540300  0.95899600  0.53043600  1
  O  O31  1  0.13004000  0.00418500  0.63950300  1
loop_
_geom_bond_atom_site_label_1
_geom_bond_atom_site_label_2
_geom_bond_distance
_geom_bond_site_symmetry_2
Li0 O5 1.992670 1_555
Li0 O2 1.997066 1_555
Li0 O8 2.001826 1_555
Li0 O11 2.008378 1_555
Li1 O10 1.992670 1_555
Li1 O13 1.997066 1_555
Li1 O7 2.001826 1_555
Li1 O4 2.008378 1_555
Li2 O21 1.992670 1_555
Li2 O18 1.997066 1_555
Li2 O24 2.001826 1_555
Li2 O27 2.008378 1_555
Li3 O26 1.992670 1_555
Li3 O29 1.997066 1_555
Li3 O23 2.001826 1_555
Li3 O20 2.008378 1_555
Ni0 O28 1.816480 1_545
Ni0 O0 1.831006 1_445
Ni0 O2 1.888828 1_555
Ni0 O5 1.906405 1_455
Ni1 O9 1.962601 1_555
Ni1 O1 1.974374 1_556
Ni1 O7 2.000169 1_555
Ni1 O11 2.011025 1_556
Ni2 O6 1.962601 1_555
Ni2 O14 1.974374 1_555
Ni2 O8 2.000169 1_555
Ni2 O4 2.011025 1_555
Ni3 O19 1.816480 1_555
Ni3 O15 1.831006 1_455
Ni3 O13 1.888828 1_555
Ni3 O10 1.906405 1_455
Ni4 O12 1.816480 1_555
Ni4 O16 1.831006 1_655
Ni4 O18 1.888828 1_555
Ni4 O21 1.906405 1_655
Ni5 O25 1.962601 1_555
Ni5 O17 1.974374 1_556
Ni5 O23 2.000169 1_555
Ni5 O27 2.011025 1_556
Ni6 O22 1.962601 1_555
Ni6 O30 1.974374 1_555
Ni6 O24 2.000169 1_555
Ni6 O20 2.011025 1_555
Ni7 O3 1.816480 1_565
Ni7 O31 1.831006 1_665
Ni7 O29 1.888828 1_555
Ni7 O26 1.906405 1_655
O0 P7 1.563268 1_555
O1 P7 1.520072 1_545
O2 P7 1.576914 1_545
O3 P1 1.563420 1_655
O4 P0 1.544509 1_555
O5 P2 1.573454 1_655
O6 P2 1.519377 1_655
O7 P1 1.545559 1_555
O8 P2 1.545559 1_555
O9 P1 1.519377 1_655
O10 P1 1.573454 1_655
O11 P3 1.544509 1_555
O12 P2 1.563420 1_655
O13 P4 1.576914 1_555
O14 P4 1.520072 1_555
O15 P4 1.563268 1_555
O16 P3 1.563268 1_555
O17 P3 1.520072 1_555
O18 P3 1.576914 1_555
O19 P5 1.563420 1_455
O20 P4 1.544509 1_555
O21 P6 1.573454 1_455
O22 P6 1.519377 1_455
O23 P5 1.545559 1_555
O24 P6 1.545559 1_555
O25 P5 1.519377 1_455
O26 P5 1.573454 1_455
O27 P7 1.544509 1_555
O28 P6 1.563420 1_455
O29 P0 1.576914 1_565
O30 P0 1.520072 1_565
O31 P0 1.563268 1_555
