# generated using pymatgen
data_Li5Co5(NiO6)2
_symmetry_space_group_name_H-M   'P 1'
_cell_length_a   5.00431300
_cell_length_b   5.00858209
_cell_length_c   9.61534655
_cell_angle_alpha   94.72580564
_cell_angle_beta   94.86154368
_cell_angle_gamma   119.30634674
_symmetry_Int_Tables_number   1
_chemical_formula_structural   Li5Co5(NiO6)2
_chemical_formula_sum   'Li5 Co5 Ni2 O12'
_cell_volume   207.26412713
_cell_formula_units_Z   1
loop_
 _symmetry_equiv_pos_site_id
 _symmetry_equiv_pos_as_xyz
  1  'x, y, z'
loop_
 _atom_site_type_symbol
 _atom_site_label
 _atom_site_symmetry_multiplicity
 _atom_site_fract_x
 _atom_site_fract_y
 _atom_site_fract_z
 _atom_site_occupancy
  Li  Li0  1  0.82795200  0.66847500  0.49641800  1
  Li  Li1  1  0.67602800  0.84429500  0.00282600  1
  Li  Li2  1  0.33143900  0.17083100  0.00219400  1
  Li  Li3  1  0.15522000  0.32315100  0.49621100  1
  Li  Li4  1  0.08703000  0.91473100  0.25240400  1
  Co  Co0  1  0.91282400  0.08875200  0.75154900  1
  Co  Co1  1  0.57822100  0.42334000  0.75176700  1
  Co  Co2  1  0.48318500  0.99432100  0.49513300  1
  Co  Co3  1  0.00217500  0.51582800  0.00833300  1
  Co  Co4  1  0.42138600  0.58055600  0.24855200  1
  Ni  Ni0  1  0.75867700  0.25094600  0.25120500  1
  Ni  Ni1  1  0.24480200  0.75474800  0.74926800  1
  O  O0  1  0.84825900  0.35971400  0.63746000  1
  O  O1  1  0.70674000  0.51872200  0.12807900  1
  O  O2  1  0.93190400  0.78248800  0.86677500  1
  O  O3  1  0.64272400  0.15337800  0.86735400  1
  O  O4  1  0.48377900  0.30116800  0.36262700  1
  O  O5  1  0.76652400  0.94464200  0.35844800  1
  O  O6  1  0.21445600  0.07360800  0.63929500  1
  O  O7  1  0.56348200  0.72642600  0.63943800  1
  O  O8  1  0.36947600  0.83770100  0.12206600  1
  O  O9  1  0.04992800  0.23326900  0.13564800  1
  O  O10  1  0.26791800  0.43953500  0.86568300  1
  O  O11  1  0.15604500  0.61920900  0.37126900  1
loop_
_geom_bond_atom_site_label_1
_geom_bond_atom_site_label_2
_geom_bond_distance
_geom_bond_site_symmetry_2
Li0 O4 2.034318 1_555
Li0 O7 2.084658 1_555
Li0 O5 2.101713 1_555
Li0 O0 2.171889 1_555
Li0 O11 2.210720 1_655
Li0 O6 2.234721 1_665
Li1 O8 1.980859 1_555
Li1 O2 2.012969 1_554
Li1 O9 2.131668 1_665
Li1 O3 2.160819 1_564
Li1 O1 2.161181 1_555
Li1 O10 2.251578 1_554
Li2 O1 2.022888 1_555
Li2 O10 2.067458 1_554
Li2 O9 2.097765 1_555
Li2 O3 2.138280 1_554
Li2 O8 2.176989 1_545
Li2 O2 2.193306 1_444
Li3 O11 1.982537 1_555
Li3 O6 2.029721 1_555
Li3 O5 2.161434 1_445
Li3 O0 2.196782 1_455
Li3 O4 2.208454 1_555
Li3 O7 2.274951 1_555
Li4 O5 2.030252 1_455
Li4 O11 2.080550 1_555
Li4 O4 2.086813 1_565
Li4 O9 2.095228 1_565
Li4 O8 2.114647 1_555
Li4 O1 2.124454 1_455
Co0 O10 1.935014 1_655
Co0 O7 1.940110 1_545
Co0 O0 1.940139 1_555
Co0 O3 1.948253 1_555
Co0 O6 1.955503 1_655
Co0 O2 1.998782 1_545
Co1 O0 1.936842 1_555
Co1 O3 1.944674 1_555
Co1 O6 1.945317 1_555
Co1 O2 1.953202 1_555
Co1 O7 1.960283 1_555
Co1 O10 2.003665 1_555
Co2 O11 1.979439 1_555
Co2 O4 2.074632 1_565
Co2 O5 2.099304 1_555
Co2 O0 2.109562 1_565
Co2 O7 2.151091 1_555
Co2 O6 2.153073 1_565
Co3 O8 1.908236 1_555
Co3 O1 1.954099 1_455
Co3 O9 2.031140 1_555
Co3 O3 2.086440 1_454
Co3 O2 2.106736 1_454
Co3 O10 2.125135 1_554
Co4 O11 1.916396 1_555
Co4 O5 1.927408 1_555
Co4 O8 1.933259 1_555
Co4 O9 1.959860 1_555
Co4 O4 1.970114 1_555
Co4 O1 2.032530 1_555
Ni0 O4 1.909904 1_555
Ni0 O5 1.931649 1_545
Ni0 O9 1.936848 1_655
Ni0 O1 1.954138 1_555
Ni0 O11 2.087718 1_655
Ni0 O8 2.199874 1_545
Ni1 O7 2.039832 1_555
Ni1 O6 2.044557 1_565
Ni1 O10 2.051079 1_555
Ni1 O2 2.057850 1_455
Ni1 O0 2.110128 1_455
Ni1 O3 2.142884 1_565
