# generated using pymatgen
data_Li3Cr2P2(O4F)2
_symmetry_space_group_name_H-M   'P 1'
_cell_length_a   5.29273619
_cell_length_b   10.54439534
_cell_length_c   7.55967498
_cell_angle_alpha   73.17905220
_cell_angle_beta   74.14615818
_cell_angle_gamma   97.47402359
_symmetry_Int_Tables_number   1
_chemical_formula_structural   Li3Cr2P2(O4F)2
_chemical_formula_sum   'Li6 Cr4 P4 O16 F4'
_cell_volume   378.33061875
_cell_formula_units_Z   2
loop_
 _symmetry_equiv_pos_site_id
 _symmetry_equiv_pos_as_xyz
  1  'x, y, z'
loop_
 _atom_site_type_symbol
 _atom_site_label
 _atom_site_symmetry_multiplicity
 _atom_site_fract_x
 _atom_site_fract_y
 _atom_site_fract_z
 _atom_site_occupancy
  Li  Li0  1  0.50002200  0.50011800  0.49990300  1
  Li  Li1  1  0.49994300  0.00013300  0.49990900  1
  Li  Li2  1  0.24056800  0.29224200  0.85201900  1
  Li  Li3  1  0.24073000  0.79233800  0.85201800  1
  Li  Li4  1  0.75938600  0.20773200  0.14801400  1
  Li  Li5  1  0.75949700  0.70777000  0.14803400  1
  Cr  Cr0  1  0.99992600  0.49988500  0.50018500  1
  Cr  Cr1  1  0.00005500  0.99998900  0.99979900  1
  Cr  Cr2  1  0.00021600  0.50001900  0.99984700  1
  Cr  Cr3  1  0.99985800  0.99992800  0.50004400  1
  P  P0  1  0.32343900  0.31746900  0.23939000  1
  P  P1  1  0.32345100  0.81742800  0.23956400  1
  P  P2  1  0.67644600  0.18251500  0.76042700  1
  P  P3  1  0.67661600  0.68256700  0.76067900  1
  O  O0  1  0.12737100  0.32458900  0.11641200  1
  O  O1  1  0.12707300  0.82472900  0.11688000  1
  O  O2  1  0.87289900  0.17525600  0.88297300  1
  O  O3  1  0.87277200  0.67548000  0.88354600  1
  O  O4  1  0.25307800  0.39768100  0.38185900  1
  O  O5  1  0.25339600  0.89764400  0.38205400  1
  O  O6  1  0.74645500  0.10227100  0.61801300  1
  O  O7  1  0.74691200  0.60231400  0.61824600  1
  O  O8  1  0.30757300  0.16504000  0.35386900  1
  O  O9  1  0.30709400  0.66484300  0.35371300  1
  O  O10  1  0.69280700  0.33509000  0.64626900  1
  O  O11  1  0.69246600  0.83498200  0.64616600  1
  O  O12  1  0.61757600  0.37165000  0.10201500  1
  O  O13  1  0.61754100  0.87156700  0.10208900  1
  O  O14  1  0.38242100  0.12841300  0.89795600  1
  O  O15  1  0.38245800  0.62839700  0.89798700  1
  F  F0  1  0.16684300  0.45664800  0.70472200  1
  F  F1  1  0.16641900  0.95713600  0.70519700  1
  F  F2  1  0.83356400  0.04287100  0.29481000  1
  F  F3  1  0.83312900  0.54326800  0.29538500  1
loop_
_geom_bond_atom_site_label_1
_geom_bond_atom_site_label_2
_geom_bond_distance
_geom_bond_site_symmetry_2
Li0 O4 2.121118 1_555
Li0 O7 2.121195 1_555
Li0 O9 2.290841 1_555
Li0 O10 2.293003 1_555
Li1 O6 2.118196 1_555
Li1 O5 2.118972 1_545
Li1 O8 2.289709 1_555
Li1 O11 2.292629 1_545
Li2 O14 1.949648 1_555
Li2 O0 2.064858 1_556
Li2 O2 2.079151 1_455
Li2 O10 2.372859 1_555
Li3 O15 1.950336 1_555
Li3 O1 2.068518 1_556
Li3 O3 2.078465 1_455
Li3 O11 2.371249 1_555
Li4 O12 1.950366 1_555
Li4 O2 2.070182 1_554
Li4 O0 2.078404 1_655
Li4 O8 2.371518 1_555
Li5 O13 1.949650 1_555
Li5 O3 2.065260 1_554
Li5 O1 2.078143 1_655
Li5 O9 2.373275 1_555
Cr0 F0 1.955072 1_655
Cr0 F3 1.956410 1_555
Cr0 O4 2.008859 1_655
Cr0 O7 2.009357 1_555
Cr0 O10 2.013716 1_555
Cr0 O9 2.015118 1_655
Cr1 O2 2.086148 1_465
Cr1 O1 2.086177 1_556
Cr1 O14 2.086733 1_565
Cr1 O13 2.087058 1_456
Cr1 F1 2.356683 1_555
Cr1 F2 2.359712 1_466
Cr2 O15 2.086005 1_555
Cr2 O0 2.087027 1_556
Cr2 O12 2.087425 1_456
Cr2 O3 2.087632 1_455
Cr2 F0 2.363240 1_555
Cr2 F3 2.365724 1_456
Cr3 F2 1.957048 1_565
Cr3 F1 1.957417 1_655
Cr3 O6 2.009652 1_565
Cr3 O5 2.009691 1_655
Cr3 O11 2.015480 1_555
Cr3 O8 2.017493 1_665
O0 P0 1.566465 1_555
O1 P1 1.566069 1_555
O2 P2 1.565624 1_555
O3 P3 1.566227 1_555
O4 P0 1.550491 1_555
O5 P1 1.550453 1_555
O6 P2 1.550202 1_555
O7 P3 1.550572 1_555
O8 P0 1.568270 1_555
O9 P1 1.568488 1_555
O10 P2 1.568409 1_555
O11 P3 1.568224 1_555
O12 P0 1.539605 1_555
O13 P1 1.539612 1_555
O14 P2 1.539447 1_555
O15 P3 1.539540 1_555
F0 Li0 1.898513 1_555
F0 Li2 1.921869 1_555
F1 Li1 1.902075 1_565
F1 Li3 1.925162 1_555
F2 Li1 1.902042 1_555
F2 Li4 1.925261 1_555
F3 Li0 1.897529 1_555
F3 Li5 1.922556 1_555
