# generated using pymatgen
data_LiMn2(CO3)4
_symmetry_space_group_name_H-M   'P 1'
_cell_length_a   5.21385300
_cell_length_b   6.69075239
_cell_length_c   7.58371487
_cell_angle_alpha   91.72632715
_cell_angle_beta   89.84927544
_cell_angle_gamma   112.07749276
_symmetry_Int_Tables_number   1
_chemical_formula_structural   LiMn2(CO3)4
_chemical_formula_sum   'Li1 Mn2 C4 O12'
_cell_volume   245.03466606
_cell_formula_units_Z   1
loop_
 _symmetry_equiv_pos_site_id
 _symmetry_equiv_pos_as_xyz
  1  'x, y, z'
loop_
 _atom_site_type_symbol
 _atom_site_label
 _atom_site_symmetry_multiplicity
 _atom_site_fract_x
 _atom_site_fract_y
 _atom_site_fract_z
 _atom_site_occupancy
  Li  Li0  1  0.21618800  0.83147700  0.44246800  1
  Mn  Mn0  1  0.00453800  0.00332400  0.00273200  1
  Mn  Mn1  1  0.50550900  0.48350800  0.49863200  1
  C  C0  1  0.24854400  0.11506500  0.73746500  1
  C  C1  1  0.23699000  0.36881700  0.23218500  1
  C  C2  1  0.77403600  0.64459300  0.76104000  1
  C  C3  1  0.73549700  0.87994000  0.26338500  1
  O  O0  1  0.98913200  0.09349800  0.76126800  1
  O  O1  1  0.36401200  0.08177600  0.87945600  1
  O  O2  1  0.36460100  0.15487100  0.58853500  1
  O  O3  1  0.09232100  0.29490000  0.09115300  1
  O  O4  1  0.14018300  0.44311500  0.36581700  1
  O  O5  1  0.48853300  0.37568200  0.25144900  1
  O  O6  1  0.50675100  0.58361600  0.74765100  1
  O  O7  1  0.89804300  0.62233600  0.61645000  1
  O  O8  1  0.90413500  0.71188600  0.90802300  1
  O  O9  1  0.59263300  0.81998900  0.40048600  1
  O  O10  1  0.64056600  0.92573400  0.11831000  1
  O  O11  1  0.99891700  0.90288000  0.25250500  1
loop_
_geom_bond_atom_site_label_1
_geom_bond_atom_site_label_2
_geom_bond_distance
_geom_bond_site_symmetry_2
Li0 O11 2.010919 1_455
Li0 O9 2.016983 1_555
Li0 O7 2.192110 1_455
Li0 O2 2.260338 1_565
Li0 O4 2.526452 1_555
Mn0 O3 1.927846 1_555
Mn0 O8 1.934539 1_444
Mn0 O0 1.956401 1_454
Mn0 O10 1.979172 1_445
Mn0 O1 1.985735 1_554
Mn0 O11 2.025371 1_445
Mn1 O5 1.978305 1_555
Mn1 O6 1.983848 1_555
Mn1 O4 2.079032 1_555
Mn1 O7 2.092925 1_555
Mn1 O2 2.170896 1_555
Mn1 O9 2.271381 1_555
C0 O2 1.267323 1_555
C0 O1 1.300097 1_555
C0 O0 1.317700 1_455
C1 O3 1.284296 1_555
C1 O4 1.297876 1_555
C1 O5 1.303390 1_555
C2 O8 1.284327 1_555
C2 O6 1.299881 1_555
C2 O7 1.304375 1_555
C3 O9 1.262233 1_555
C3 O10 1.298650 1_555
C3 O11 1.326042 1_555
