# generated using pymatgen
data_H22C10O3
_symmetry_space_group_name_H-M   'P 1'
_cell_length_a   14.87341029
_cell_length_b   12.86942994
_cell_length_c   10.87598021
_cell_angle_alpha   77.05900045
_cell_angle_beta   57.48892280
_cell_angle_gamma   45.45207675
_symmetry_Int_Tables_number   1
_chemical_formula_structural   H22C10O3
_chemical_formula_sum   'H88 C40 O12'
_cell_volume   1209.84900286
_cell_formula_units_Z   4
loop_
 _symmetry_equiv_pos_site_id
 _symmetry_equiv_pos_as_xyz
  1  'x, y, z'
loop_
 _atom_site_type_symbol
 _atom_site_label
 _atom_site_symmetry_multiplicity
 _atom_site_fract_x
 _atom_site_fract_y
 _atom_site_fract_z
 _atom_site_occupancy
  H  H0  1  0.99760700  0.89565700  0.50355300  1
  H  H1  1  0.60318300  0.50355300  0.89565700  1
  H  H2  1  0.74644700  0.64681700  0.25239300  1
  H  H3  1  0.35434300  0.25239300  0.64681700  1
  H  H4  1  0.04815700  0.03698700  0.34066900  1
  H  H5  1  0.57418700  0.34066900  0.03698700  1
  H  H6  1  0.90933100  0.67581300  0.20184300  1
  H  H7  1  0.21301300  0.20184300  0.67581300  1
  H  H8  1  0.90501300  0.19676700  0.49434500  1
  H  H9  1  0.40387500  0.49434500  0.19676700  1
  H  H10  1  0.75565500  0.84612500  0.34498700  1
  H  H11  1  0.05323300  0.34498700  0.84612500  1
  H  H12  1  0.15507900  0.04813500  0.44699700  1
  H  H13  1  0.34978900  0.44699700  0.04813500  1
  H  H14  1  0.80300300  0.90021100  0.09492100  1
  H  H15  1  0.20186500  0.09492100  0.90021100  1
  H  H16  1  0.19035000  0.88413400  0.46246300  1
  H  H17  1  0.46305400  0.46246300  0.88413400  1
  H  H18  1  0.78753700  0.78694600  0.05965000  1
  H  H19  1  0.36586600  0.05965000  0.78694600  1
  H  H20  1  0.89036100  0.02798700  0.87682200  1
  H  H21  1  0.20483000  0.87682200  0.02798700  1
  H  H22  1  0.37317800  0.04517000  0.35963900  1
  H  H23  1  0.22201300  0.35963900  0.04517000  1
  H  H24  1  0.03406100  0.87079400  0.71993100  1
  H  H25  1  0.37521300  0.71993100  0.87079400  1
  H  H26  1  0.53006900  0.87478700  0.21593900  1
  H  H27  1  0.37920600  0.21593900  0.87478700  1
  H  H28  1  0.78426100  0.01462400  0.77175200  1
  H  H29  1  0.42936200  0.77175200  0.01462400  1
  H  H30  1  0.47824800  0.82063800  0.46573900  1
  H  H31  1  0.23537600  0.46573900  0.82063800  1
  H  H32  1  0.74209000  0.18225000  0.76107300  1
  H  H33  1  0.31458700  0.76107300  0.18225000  1
  H  H34  1  0.48892700  0.93541300  0.50791000  1
  H  H35  1  0.06775000  0.50791000  0.93541300  1
  H  H36  1  0.68263800  0.01935500  0.67983000  1
  H  H37  1  0.61817700  0.67983000  0.01935500  1
  H  H38  1  0.57017000  0.63182300  0.56736200  1
  H  H39  1  0.23064500  0.56736200  0.63182300  1
  H  H40  1  0.84681900  0.87222200  0.51097700  1
  H  H41  1  0.76998200  0.51097700  0.87222200  1
  H  H42  1  0.73902300  0.48001800  0.40318100  1
  H  H43  1  0.37777800  0.40318100  0.48001800  1
  H  H44  1  0.67792400  0.03091700  0.51684700  1
  H  H45  1  0.77431200  0.51684700  0.03091700  1
  H  H46  1  0.73315300  0.47568800  0.57207600  1
  H  H47  1  0.21908300  0.57207600  0.47568800  1
  H  H48  1  0.70002300  0.30432100  0.51291700  1
  H  H49  1  0.48273900  0.51291700  0.30432100  1
  H  H50  1  0.73708300  0.76726100  0.54997800  1
  H  H51  1  0.94567900  0.54997800  0.76726100  1
  H  H52  1  0.58712700  0.28739800  0.67705000  1
  H  H53  1  0.44842500  0.67705000  0.28739800  1
  H  H54  1  0.57295000  0.80157500  0.66287300  1
  H  H55  1  0.96260200  0.66287300  0.80157500  1
  H  H56  1  0.59889900  0.27924700  0.50742500  1
  H  H57  1  0.61443000  0.50742500  0.27924700  1
  H  H58  1  0.74257500  0.63557000  0.65110100  1
  H  H59  1  0.97075300  0.65110100  0.63557000  1
  H  H60  1  0.96561400  0.93285500  0.29187300  1
  H  H61  1  0.80965900  0.29187300  0.93285500  1
  H  H62  1  0.95812700  0.44034100  0.28438600  1
  H  H63  1  0.31714500  0.28438600  0.44034100  1
  H  H64  1  0.23779800  0.84987400  0.66253400  1
  H  H65  1  0.24979400  0.66253400  0.84987400  1
  H  H66  1  0.58746600  0.00020600  0.01220200  1
  H  H67  1  0.40012600  0.01220200  0.00020600  1
  H  H68  1  0.19766500  0.01710800  0.65447600  1
  H  H69  1  0.13075100  0.65447600  0.01710800  1
  H  H70  1  0.59552400  0.11924900  0.05233500  1
  H  H71  1  0.23289200  0.05233500  0.11924900  1
  H  H72  1  0.09518200  0.99948800  0.82954500  1
  H  H73  1  0.07578600  0.82954500  0.99948800  1
  H  H74  1  0.42045500  0.17421400  0.15481800  1
  H  H75  1  0.25051200  0.15481800  0.17421400  1
  H  H76  1  0.95729900  0.24796600  0.67302300  1
  H  H77  1  0.12171200  0.67302300  0.24796600  1
  H  H78  1  0.57697700  0.12828800  0.29270100  1
  H  H79  1  0.00203400  0.29270100  0.12828800  1
  H  H80  1  0.08839600  0.33404600  0.54743100  1
  H  H81  1  0.03012600  0.54743100  0.33404600  1
  H  H82  1  0.70256900  0.21987400  0.16160400  1
  H  H83  1  0.91595400  0.16160400  0.21987400  1
  H  H84  1  0.98844000  0.38052000  0.49145700  1
  H  H85  1  0.13958300  0.49145700  0.38052000  1
  H  H86  1  0.75854300  0.11041700  0.26156000  1
  H  H87  1  0.86948000  0.26156000  0.11041700  1
  C  C0  1  0.90870000  0.02010300  0.54360400  1
  C  C1  1  0.52759300  0.54360400  0.02010300  1
  C  C2  1  0.70639600  0.72240700  0.34130000  1
  C  C3  1  0.22989700  0.34130000  0.72240700  1
  C  C4  1  0.98806200  0.07280700  0.46354700  1
  C  C5  1  0.47558300  0.46354700  0.07280700  1
  C  C6  1  0.78645300  0.77441700  0.26193800  1
  C  C7  1  0.17719300  0.26193800  0.77441700  1
  C  C8  1  0.10027900  0.00821400  0.50358600  1
  C  C9  1  0.38792100  0.50358600  0.00821400  1
  C  C10  1  0.74641400  0.86207900  0.14972100  1
  C  C11  1  0.24178600  0.14972100  0.86207900  1
  C  C12  1  0.02840100  0.04581500  0.67458700  1
  C  C13  1  0.25119800  0.67458700  0.04581500  1
  C  C14  1  0.57541300  0.99880200  0.22159900  1
  C  C15  1  0.20418500  0.22159900  0.99880200  1
  C  C16  1  0.94748100  0.99502600  0.75383500  1
  C  C17  1  0.30365800  0.75383500  0.99502600  1
  C  C18  1  0.49616500  0.94634200  0.30251900  1
  C  C19  1  0.25497400  0.30251900  0.94634200  1
  C  C20  1  0.83443200  0.05905000  0.71500800  1
  C  C21  1  0.39151100  0.71500800  0.05905000  1
  C  C22  1  0.53499200  0.85848900  0.41556800  1
  C  C23  1  0.19095000  0.41556800  0.85848900  1
  C  C24  1  0.79844400  0.07637500  0.50104600  1
  C  C25  1  0.62413600  0.50104600  0.07637500  1
  C  C26  1  0.74895400  0.62586400  0.45155600  1
  C  C27  1  0.17362500  0.45155600  0.62586400  1
  C  C28  1  0.74838200  0.99484300  0.55629400  1
  C  C29  1  0.70048000  0.55629400  0.99484300  1
  C  C30  1  0.69370600  0.54952000  0.50161800  1
  C  C31  1  0.25515700  0.50161800  0.54952000  1
  C  C32  1  0.66291200  0.24704300  0.55405800  1
  C  C33  1  0.53598800  0.55405800  0.24704300  1
  C  C34  1  0.69594200  0.71401200  0.58708800  1
  C  C35  1  0.00295700  0.58708800  0.71401200  1
  C  C36  1  0.14712900  0.97299600  0.70744100  1
  C  C37  1  0.17243400  0.70744100  0.97299600  1
  C  C38  1  0.54255900  0.07756600  0.10287100  1
  C  C39  1  0.27700400  0.10287100  0.07756600  1
  O  O0  1  0.87524700  0.04355000  0.33630700  1
  O  O1  1  0.74489600  0.33630700  0.04355000  1
  O  O2  1  0.91369300  0.50510400  0.37475300  1
  O  O3  1  0.20645000  0.37475300  0.50510400  1
  O  O4  1  0.91321900  0.20837100  0.73594000  1
  O  O5  1  0.14247000  0.73594000  0.20837100  1
  O  O6  1  0.51406000  0.10753000  0.33678100  1
  O  O7  1  0.04162900  0.33678100  0.10753000  1
  O  O8  1  0.03358700  0.31532400  0.54959100  1
  O  O9  1  0.10149800  0.54959100  0.31532400  1
  O  O10  1  0.70040900  0.14850200  0.21641300  1
  O  O11  1  0.93467600  0.21641300  0.14850200  1
loop_
_geom_bond_atom_site_label_1
_geom_bond_atom_site_label_2
_geom_bond_distance
_geom_bond_site_symmetry_2
H60 O0 0.996618 1_565
H61 O1 0.996617 1_556
H62 O2 0.996626 1_555
H63 O3 0.996619 1_555
H76 O4 0.994001 1_555
H77 O5 0.994001 1_555
H78 O6 0.994001 1_555
H79 O7 0.994001 1_555
H80 O8 0.987726 1_555
H81 O9 0.987740 1_555
H82 O10 0.987736 1_555
H83 O11 0.987731 1_555
H84 O8 0.991433 1_655
H85 O9 0.991433 1_555
H86 O10 0.991433 1_555
H87 O11 0.991433 1_555
C0 H0 1.106933 1_545
C1 H1 1.106933 1_554
C2 H2 1.106933 1_555
C3 H3 1.106933 1_555
C4 H4 1.100573 1_655
C4 H8 1.101285 1_555
C5 H5 1.100575 1_555
C5 H9 1.101284 1_555
C6 H6 1.100574 1_555
C6 H10 1.101276 1_555
C7 H7 1.100582 1_555
C7 H11 1.101285 1_555
C8 H12 1.101693 1_555
C8 H16 1.104124 1_545
C9 H13 1.101693 1_555
C9 H17 1.104124 1_554
C10 H14 1.101693 1_555
C10 H18 1.104133 1_555
C11 H15 1.101693 1_555
C11 H19 1.104125 1_555
C12 O4 1.457664 1_455
C13 O5 1.457666 1_555
C14 O6 1.457674 1_565
C15 O7 1.457666 1_556
C16 H24 1.102478 1_655
C16 H20 1.103575 1_565
C17 H25 1.102477 1_555
C17 H21 1.103575 1_556
C18 H26 1.102469 1_555
C18 H22 1.103575 1_565
C19 H27 1.102477 1_555
C19 H23 1.103575 1_556
C20 H28 1.100046 1_555
C20 H32 1.100962 1_555
C21 H29 1.100024 1_555
C21 H33 1.100962 1_555
C22 H30 1.100023 1_555
C22 H34 1.100971 1_555
C23 H31 1.100048 1_555
C23 H35 1.100963 1_555
C24 O0 1.468147 1_555
C25 O1 1.468146 1_555
C26 O2 1.468147 1_555
C27 O3 1.468138 1_555
C28 H36 1.098041 1_565
C28 H40 1.099045 1_555
C28 H44 1.099674 1_565
C29 H37 1.098041 1_556
C29 H41 1.099044 1_555
C29 H45 1.099687 1_556
C30 H38 1.098042 1_555
C30 H42 1.099053 1_555
C30 H46 1.099678 1_555
C31 H39 1.098032 1_555
C31 H43 1.099046 1_555
C31 H47 1.099683 1_555
C32 H52 1.094838 1_555
C32 H48 1.098128 1_555
C32 H56 1.098533 1_555
C33 H53 1.094838 1_555
C33 H49 1.098139 1_555
C33 H57 1.098533 1_555
C34 H54 1.094839 1_555
C34 H50 1.098141 1_555
C34 H58 1.098533 1_555
C35 H55 1.094847 1_455
C35 H51 1.098117 1_455
C35 H59 1.098533 1_455
C36 H68 1.098114 1_565
C36 H72 1.098664 1_555
C36 H64 1.099313 1_555
C37 H69 1.098114 1_556
C37 H73 1.098662 1_555
C37 H65 1.099313 1_555
C38 H70 1.098114 1_555
C38 H74 1.098663 1_555
C38 H66 1.099313 1_555
C39 H71 1.098114 1_555
C39 H75 1.098655 1_555
C39 H67 1.099313 1_555
