# generated using pymatgen
data_BaLaI5
_symmetry_space_group_name_H-M   'P 1'
_cell_length_a   6.46101600
_cell_length_b   8.01315473
_cell_length_c   11.65940766
_cell_angle_alpha   89.06800793
_cell_angle_beta   105.84179352
_cell_angle_gamma   93.92154337
_symmetry_Int_Tables_number   1
_chemical_formula_structural   BaLaI5
_chemical_formula_sum   'Ba2 La2 I10'
_cell_volume   579.35551127
_cell_formula_units_Z   2
loop_
 _symmetry_equiv_pos_site_id
 _symmetry_equiv_pos_as_xyz
  1  'x, y, z'
loop_
 _atom_site_type_symbol
 _atom_site_label
 _atom_site_symmetry_multiplicity
 _atom_site_fract_x
 _atom_site_fract_y
 _atom_site_fract_z
 _atom_site_occupancy
  Ba  Ba0  1  0.67072100  0.24641500  0.34862500  1
  Ba  Ba1  1  0.33251800  0.74486500  0.65243800  1
  La  La0  1  0.92177200  0.25134300  0.84362900  1
  La  La1  1  0.07851600  0.75248300  0.15697600  1
  I  I0  1  0.28158700  0.10489800  0.07025700  1
  I  I1  1  0.81538500  0.99400000  0.61611700  1
  I  I2  1  0.62914300  0.75655700  0.26072600  1
  I  I3  1  0.80598800  0.50670200  0.61458100  1
  I  I4  1  0.21290700  0.60313800  0.93000700  1
  I  I5  1  0.78547600  0.40208600  0.06956400  1
  I  I6  1  0.19389400  0.49253300  0.38302600  1
  I  I7  1  0.37280600  0.25305700  0.73937000  1
  I  I8  1  0.19085200  0.00474000  0.38806300  1
  I  I9  1  0.71883800  0.89878100  0.93007200  1
loop_
_geom_bond_atom_site_label_1
_geom_bond_atom_site_label_2
_geom_bond_distance
_geom_bond_site_symmetry_2
Ba0 I1 3.626768 1_545
Ba0 I3 3.634698 1_555
Ba0 I0 3.662751 1_555
Ba0 I8 3.674593 1_555
Ba0 I5 3.708205 1_555
Ba0 I6 3.721560 1_655
Ba0 I6 3.882404 1_555
Ba0 I8 3.908040 1_655
Ba0 I2 4.045597 1_545
Ba0 I2 4.206731 1_555
Ba1 I6 3.630497 1_555
Ba1 I8 3.631433 1_565
Ba1 I4 3.672389 1_555
Ba1 I9 3.677949 1_555
Ba1 I3 3.705344 1_455
Ba1 I1 3.706739 1_555
Ba1 I3 3.841636 1_555
Ba1 I1 3.929476 1_455
Ba1 I7 4.061081 1_555
Ba1 I7 4.186086 1_565
I0 La0 3.268353 1_454
I0 La1 3.292885 1_545
I1 La0 3.278722 1_565
I2 La1 3.428816 1_555
I2 La1 3.438877 1_655
I3 La0 3.289298 1_555
I4 La1 3.269374 1_556
I4 La0 3.291204 1_455
I5 La0 3.269472 1_554
I5 La1 3.289306 1_655
I6 La1 3.286675 1_555
I7 La0 3.422041 1_555
I7 La0 3.449360 1_455
I8 La1 3.283448 1_545
I9 La1 3.269393 1_656
I9 La0 3.292191 1_565
