# generated using pymatgen
data_Bi2(SO4)3
_symmetry_space_group_name_H-M   'P 1'
_cell_length_a   9.20329900
_cell_length_b   9.35342900
_cell_length_c   25.75542100
_cell_angle_alpha   90.00000000
_cell_angle_beta   90.00000000
_cell_angle_gamma   90.00000000
_symmetry_Int_Tables_number   1
_chemical_formula_structural   Bi2(SO4)3
_chemical_formula_sum   'Bi16 S24 O96'
_cell_volume   2217.08854959
_cell_formula_units_Z   8
loop_
 _symmetry_equiv_pos_site_id
 _symmetry_equiv_pos_as_xyz
  1  'x, y, z'
loop_
 _atom_site_type_symbol
 _atom_site_label
 _atom_site_symmetry_multiplicity
 _atom_site_fract_x
 _atom_site_fract_y
 _atom_site_fract_z
 _atom_site_occupancy
  Bi  Bi0  1  0.99987700  0.39454600  0.06509300  1
  Bi  Bi1  1  0.99987700  0.10545400  0.56509300  1
  Bi  Bi2  1  0.99470700  0.79994900  0.18010300  1
  Bi  Bi3  1  0.99470700  0.70005100  0.68010300  1
  Bi  Bi4  1  0.50529300  0.29994900  0.18010300  1
  Bi  Bi5  1  0.50529300  0.20005100  0.68010300  1
  Bi  Bi6  1  0.50012300  0.60545400  0.56509300  1
  Bi  Bi7  1  0.50012300  0.89454600  0.06509300  1
  Bi  Bi8  1  0.49987700  0.39454600  0.43490700  1
  Bi  Bi9  1  0.49987700  0.10545400  0.93490700  1
  Bi  Bi10  1  0.49470700  0.70005100  0.81989700  1
  Bi  Bi11  1  0.49470700  0.79994900  0.31989700  1
  Bi  Bi12  1  0.00529300  0.29994900  0.31989700  1
  Bi  Bi13  1  0.00529300  0.20005100  0.81989700  1
  Bi  Bi14  1  0.00012300  0.89454600  0.43490700  1
  Bi  Bi15  1  0.00012300  0.60545400  0.93490700  1
  S  S0  1  0.14538300  0.94663300  0.29727800  1
  S  S1  1  0.14538300  0.55336700  0.79727800  1
  S  S2  1  0.14833600  0.25885700  0.44968900  1
  S  S3  1  0.14833600  0.24114300  0.94968900  1
  S  S4  1  0.19303900  0.08880700  0.11587900  1
  S  S5  1  0.19303900  0.41119300  0.61587900  1
  S  S6  1  0.30696100  0.58880700  0.11587900  1
  S  S7  1  0.30696100  0.91119300  0.61587900  1
  S  S8  1  0.35166400  0.75885700  0.44968900  1
  S  S9  1  0.35166400  0.74114300  0.94968900  1
  S  S10  1  0.35461700  0.44663300  0.29727800  1
  S  S11  1  0.35461700  0.05336700  0.79727800  1
  S  S12  1  0.64538300  0.55336700  0.70272200  1
  S  S13  1  0.64538300  0.94663300  0.20272200  1
  S  S14  1  0.64833600  0.25885700  0.05031100  1
  S  S15  1  0.64833600  0.24114300  0.55031100  1
  S  S16  1  0.69303900  0.08880700  0.38412100  1
  S  S17  1  0.69303900  0.41119300  0.88412100  1
  S  S18  1  0.80696100  0.58880700  0.38412100  1
  S  S19  1  0.80696100  0.91119300  0.88412100  1
  S  S20  1  0.85166400  0.75885700  0.05031100  1
  S  S21  1  0.85166400  0.74114300  0.55031100  1
  S  S22  1  0.85461700  0.44663300  0.20272200  1
  S  S23  1  0.85461700  0.05336700  0.70272200  1
  O  O0  1  0.06630400  0.38433800  0.46303100  1
  O  O1  1  0.06630400  0.11566200  0.96303100  1
  O  O2  1  0.08542700  0.08420700  0.27780000  1
  O  O3  1  0.08542700  0.41579300  0.77780000  1
  O  O4  1  0.08474500  0.12373900  0.47750700  1
  O  O5  1  0.08474500  0.37626100  0.97750700  1
  O  O6  1  0.09293200  0.91776800  0.35077100  1
  O  O7  1  0.09293200  0.58223200  0.85077100  1
  O  O8  1  0.09603400  0.18119600  0.08379800  1
  O  O9  1  0.09603400  0.31880400  0.58379800  1
  O  O10  1  0.09909300  0.82633800  0.26303800  1
  O  O11  1  0.09909300  0.67366200  0.76303800  1
  O  O12  1  0.10185400  0.01544300  0.15540900  1
  O  O13  1  0.10185400  0.48455700  0.65540900  1
  O  O14  1  0.14470100  0.22167600  0.39283300  1
  O  O15  1  0.14470100  0.27832400  0.89283300  1
  O  O16  1  0.19215500  0.45573800  0.29703100  1
  O  O17  1  0.19215500  0.04426200  0.79703100  1
  O  O18  1  0.19562900  0.67645300  0.14263000  1
  O  O19  1  0.19562900  0.82354700  0.64263000  1
  O  O20  1  0.19582100  0.76382100  0.46665900  1
  O  O21  1  0.19582100  0.73617900  0.96665900  1
  O  O22  1  0.23793900  0.01689300  0.58064000  1
  O  O23  1  0.23793900  0.48310700  0.08064000  1
  O  O24  1  0.26206100  0.51689300  0.58064000  1
  O  O25  1  0.26206100  0.98310700  0.08064000  1
  O  O26  1  0.30417900  0.23617900  0.96665900  1
  O  O27  1  0.30417900  0.26382100  0.46665900  1
  O  O28  1  0.30437100  0.17645300  0.14263000  1
  O  O29  1  0.30437100  0.32354700  0.64263000  1
  O  O30  1  0.30784500  0.95573800  0.29703100  1
  O  O31  1  0.30784500  0.54426200  0.79703100  1
  O  O32  1  0.35529900  0.72167600  0.39283300  1
  O  O33  1  0.35529900  0.77832400  0.89283300  1
  O  O34  1  0.39814600  0.98455700  0.65540900  1
  O  O35  1  0.39814600  0.51544300  0.15540900  1
  O  O36  1  0.40090700  0.32633800  0.26303800  1
  O  O37  1  0.40090700  0.17366200  0.76303800  1
  O  O38  1  0.40396600  0.68119600  0.08379800  1
  O  O39  1  0.40396600  0.81880400  0.58379800  1
  O  O40  1  0.40706800  0.08223200  0.85077100  1
  O  O41  1  0.40706800  0.41776800  0.35077100  1
  O  O42  1  0.41525500  0.87626100  0.97750700  1
  O  O43  1  0.41525500  0.62373900  0.47750700  1
  O  O44  1  0.41457300  0.58420700  0.27780000  1
  O  O45  1  0.41457300  0.91579300  0.77780000  1
  O  O46  1  0.43369600  0.61566200  0.96303100  1
  O  O47  1  0.43369600  0.88433800  0.46303100  1
  O  O48  1  0.56630400  0.38433800  0.03696900  1
  O  O49  1  0.56630400  0.11566200  0.53696900  1
  O  O50  1  0.58542700  0.08420700  0.22220000  1
  O  O51  1  0.58542700  0.41579300  0.72220000  1
  O  O52  1  0.58474500  0.12373900  0.02249300  1
  O  O53  1  0.58474500  0.37626100  0.52249300  1
  O  O54  1  0.59293200  0.58223200  0.64922900  1
  O  O55  1  0.59293200  0.91776800  0.14922900  1
  O  O56  1  0.59603400  0.18119600  0.41620200  1
  O  O57  1  0.59603400  0.31880400  0.91620200  1
  O  O58  1  0.59909300  0.82633800  0.23696200  1
  O  O59  1  0.59909300  0.67366200  0.73696200  1
  O  O60  1  0.60185400  0.01544300  0.34459100  1
  O  O61  1  0.60185400  0.48455700  0.84459100  1
  O  O62  1  0.64470100  0.22167600  0.10716700  1
  O  O63  1  0.64470100  0.27832400  0.60716700  1
  O  O64  1  0.69215500  0.45573800  0.20296900  1
  O  O65  1  0.69215500  0.04426200  0.70296900  1
  O  O66  1  0.69562900  0.67645300  0.35737000  1
  O  O67  1  0.69562900  0.82354700  0.85737000  1
  O  O68  1  0.69582100  0.76382100  0.03334100  1
  O  O69  1  0.69582100  0.73617900  0.53334100  1
  O  O70  1  0.73793900  0.48310700  0.41936000  1
  O  O71  1  0.73793900  0.01689300  0.91936000  1
  O  O72  1  0.76206100  0.98310700  0.41936000  1
  O  O73  1  0.76206100  0.51689300  0.91936000  1
  O  O74  1  0.80417900  0.26382100  0.03334100  1
  O  O75  1  0.80417900  0.23617900  0.53334100  1
  O  O76  1  0.80437100  0.17645300  0.35737000  1
  O  O77  1  0.80437100  0.32354700  0.85737000  1
  O  O78  1  0.80784500  0.54426200  0.70296900  1
  O  O79  1  0.80784500  0.95573800  0.20296900  1
  O  O80  1  0.85529900  0.72167600  0.10716700  1
  O  O81  1  0.85529900  0.77832400  0.60716700  1
  O  O82  1  0.89814600  0.51544300  0.34459100  1
  O  O83  1  0.89814600  0.98455700  0.84459100  1
  O  O84  1  0.90090700  0.32633800  0.23696200  1
  O  O85  1  0.90090700  0.17366200  0.73696200  1
  O  O86  1  0.90396600  0.68119600  0.41620200  1
  O  O87  1  0.90396600  0.81880400  0.91620200  1
  O  O88  1  0.90706800  0.41776800  0.14922900  1
  O  O89  1  0.90706800  0.08223200  0.64922900  1
  O  O90  1  0.91525500  0.62373900  0.02249300  1
  O  O91  1  0.91525500  0.87626100  0.52249300  1
  O  O92  1  0.91457300  0.58420700  0.22220000  1
  O  O93  1  0.91457300  0.91579300  0.72220000  1
  O  O94  1  0.93369600  0.61566200  0.53696900  1
  O  O95  1  0.93369600  0.88433800  0.03696900  1
loop_
_geom_bond_atom_site_label_1
_geom_bond_atom_site_label_2
_geom_bond_distance
_geom_bond_site_symmetry_2
Bi0 O8 2.235505 1_655
Bi0 O74 2.325442 1_555
Bi0 O88 2.339328 1_555
Bi0 O23 2.376297 1_655
Bi0 O5 2.393327 1_654
Bi0 O90 2.531000 1_555
Bi1 O9 2.235505 1_655
Bi1 O75 2.325442 1_555
Bi1 O89 2.339328 1_555
Bi1 O22 2.376297 1_655
Bi1 O4 2.393327 1_655
Bi1 O91 2.531000 1_545
Bi2 O79 2.329738 1_555
Bi2 O12 2.332291 1_665
Bi2 O10 2.355094 1_655
Bi2 O18 2.384345 1_655
Bi2 O80 2.389744 1_555
Bi2 O92 2.406549 1_555
Bi3 O78 2.329738 1_555
Bi3 O13 2.332291 1_655
Bi3 O11 2.355094 1_655
Bi3 O19 2.384345 1_655
Bi3 O81 2.389744 1_555
Bi3 O93 2.406549 1_555
Bi4 O64 2.329738 1_555
Bi4 O35 2.332291 1_555
Bi4 O36 2.355094 1_555
Bi4 O28 2.384345 1_555
Bi4 O62 2.389744 1_555
Bi4 O50 2.406549 1_555
Bi5 O65 2.329738 1_555
Bi5 O34 2.332291 1_545
Bi5 O37 2.355094 1_555
Bi5 O29 2.384345 1_555
Bi5 O63 2.389744 1_555
Bi5 O51 2.406549 1_555
Bi6 O39 2.235505 1_555
Bi6 O69 2.325442 1_555
Bi6 O54 2.339328 1_555
Bi6 O24 2.376297 1_555
Bi6 O43 2.393327 1_555
Bi6 O53 2.531000 1_555
Bi7 O38 2.235505 1_555
Bi7 O68 2.325442 1_555
Bi7 O55 2.339328 1_555
Bi7 O25 2.376297 1_555
Bi7 O42 2.393327 1_554
Bi7 O52 2.531000 1_565
Bi8 O56 2.235505 1_555
Bi8 O27 2.325442 1_555
Bi8 O41 2.339328 1_555
Bi8 O70 2.376297 1_555
Bi8 O53 2.393327 1_555
Bi8 O43 2.531000 1_555
Bi9 O57 2.235505 1_555
Bi9 O26 2.325442 1_555
Bi9 O40 2.339328 1_555
Bi9 O71 2.376297 1_555
Bi9 O52 2.393327 1_556
Bi9 O42 2.531000 1_545
Bi10 O31 2.329738 1_555
Bi10 O61 2.332291 1_555
Bi10 O59 2.355094 1_555
Bi10 O67 2.384345 1_555
Bi10 O33 2.389744 1_555
Bi10 O45 2.406549 1_555
Bi11 O30 2.329738 1_555
Bi11 O60 2.332291 1_565
Bi11 O58 2.355094 1_555
Bi11 O66 2.384345 1_555
Bi11 O32 2.389744 1_555
Bi11 O44 2.406549 1_555
Bi12 O16 2.329738 1_555
Bi12 O82 2.332291 1_455
Bi12 O84 2.355094 1_455
Bi12 O76 2.384345 1_455
Bi12 O14 2.389744 1_555
Bi12 O2 2.406549 1_555
Bi13 O17 2.329738 1_555
Bi13 O83 2.332291 1_445
Bi13 O85 2.355094 1_455
Bi13 O77 2.384345 1_455
Bi13 O15 2.389744 1_555
Bi13 O3 2.406549 1_555
Bi14 O86 2.235505 1_455
Bi14 O20 2.325442 1_555
Bi14 O6 2.339328 1_555
Bi14 O72 2.376297 1_455
Bi14 O91 2.393327 1_455
Bi14 O4 2.531000 1_565
Bi15 O87 2.235505 1_455
Bi15 O21 2.325442 1_555
Bi15 O7 2.339328 1_555
Bi15 O73 2.376297 1_455
Bi15 O90 2.393327 1_456
Bi15 O5 2.531000 1_555
O0 S2 1.437210 1_555
O1 S3 1.437210 1_555
O2 S0 1.487268 1_545
O3 S1 1.487268 1_555
O4 S2 1.566227 1_555
O5 S3 1.566227 1_555
O6 S0 1.484610 1_555
O7 S1 1.484610 1_555
O8 S4 1.492146 1_555
O9 S5 1.492146 1_555
O10 S0 1.491707 1_555
O11 S1 1.491707 1_555
O12 S4 1.487175 1_555
O13 S5 1.487175 1_555
O14 S2 1.505452 1_555
O15 S3 1.505452 1_555
O16 S10 1.497623 1_555
O17 S11 1.497623 1_555
O18 S6 1.482095 1_555
O19 S7 1.482095 1_555
O20 S8 1.500105 1_555
O21 S9 1.500105 1_555
O22 S7 1.484820 1_545
O23 S6 1.484820 1_555
O24 S5 1.484820 1_555
O25 S4 1.484820 1_565
O26 S3 1.500105 1_555
O27 S2 1.500105 1_555
O28 S4 1.482095 1_555
O29 S5 1.482095 1_555
O30 S0 1.497623 1_555
O31 S1 1.497623 1_555
O32 S8 1.505452 1_555
O33 S9 1.505452 1_555
O34 S7 1.487175 1_555
O35 S6 1.487175 1_555
O36 S10 1.491707 1_555
O37 S11 1.491707 1_555
O38 S6 1.492146 1_555
O39 S7 1.492146 1_555
O40 S11 1.484610 1_555
O41 S10 1.484610 1_555
O42 S9 1.566227 1_555
O43 S8 1.566227 1_555
O44 S10 1.487268 1_555
O45 S11 1.487268 1_565
O46 S9 1.437210 1_555
O47 S8 1.437210 1_555
O48 S14 1.437210 1_555
O49 S15 1.437210 1_555
O50 S13 1.487268 1_545
O51 S12 1.487268 1_555
O52 S14 1.566227 1_555
O53 S15 1.566227 1_555
O54 S12 1.484610 1_555
O55 S13 1.484610 1_555
O56 S16 1.492146 1_555
O57 S17 1.492146 1_555
O58 S13 1.491707 1_555
O59 S12 1.491707 1_555
O60 S16 1.487175 1_555
O61 S17 1.487175 1_555
O62 S14 1.505452 1_555
O63 S15 1.505452 1_555
O64 S22 1.497623 1_555
O65 S23 1.497623 1_555
O66 S18 1.482095 1_555
O67 S19 1.482095 1_555
O68 S20 1.500105 1_555
O69 S21 1.500105 1_555
O70 S18 1.484820 1_555
O71 S19 1.484820 1_545
O72 S16 1.484820 1_565
O73 S17 1.484820 1_555
O74 S14 1.500105 1_555
O75 S15 1.500105 1_555
O76 S16 1.482095 1_555
O77 S17 1.482095 1_555
O78 S12 1.497623 1_555
O79 S13 1.497623 1_555
O80 S20 1.505452 1_555
O81 S21 1.505452 1_555
O82 S18 1.487175 1_555
O83 S19 1.487175 1_555
O84 S22 1.491707 1_555
O85 S23 1.491707 1_555
O86 S18 1.492146 1_555
O87 S19 1.492146 1_555
O88 S22 1.484610 1_555
O89 S23 1.484610 1_555
O90 S20 1.566227 1_555
O91 S21 1.566227 1_555
O92 S22 1.487268 1_555
O93 S23 1.487268 1_565
O94 S21 1.437210 1_555
O95 S20 1.437210 1_555
