# generated using pymatgen
data_Li24Mn5Cr7O36
_symmetry_space_group_name_H-M   'P 1'
_cell_length_a   5.01683100
_cell_length_b   9.73880863
_cell_length_c   13.26759443
_cell_angle_alpha   96.99252140
_cell_angle_beta   100.44130603
_cell_angle_gamma   94.82358372
_symmetry_Int_Tables_number   1
_chemical_formula_structural   Li24Mn5Cr7O36
_chemical_formula_sum   'Li24 Mn5 Cr7 O36'
_cell_volume   628.99940822
_cell_formula_units_Z   1
loop_
 _symmetry_equiv_pos_site_id
 _symmetry_equiv_pos_as_xyz
  1  'x, y, z'
loop_
 _atom_site_type_symbol
 _atom_site_label
 _atom_site_symmetry_multiplicity
 _atom_site_fract_x
 _atom_site_fract_y
 _atom_site_fract_z
 _atom_site_occupancy
  Li  Li0  1  0.16684600  0.00008800  0.83324900  1
  Li  Li1  1  0.05213900  0.00101900  0.61411600  1
  Li  Li2  1  0.99977800  0.75039900  0.25026800  1
  Li  Li3  1  0.33602800  0.75023100  0.91680300  1
  Li  Li4  1  0.04577800  0.49779000  0.11086800  1
  Li  Li5  1  0.38221100  0.50062300  0.78062000  1
  Li  Li6  1  0.16711000  0.49949100  0.33319700  1
  Li  Li7  1  0.50033300  0.49956600  0.00000400  1
  Li  Li8  1  0.28372600  0.49992300  0.55330400  1
  Li  Li9  1  0.33336400  0.25010500  0.41603300  1
  Li  Li10  1  0.49476100  0.00119100  0.49919700  1
  Li  Li11  1  0.28628700  0.00119700  0.05383600  1
  Li  Li12  1  0.61620800  0.99926200  0.72047500  1
  Li  Li13  1  0.38086200  0.00025100  0.28017600  1
  Li  Li14  1  0.71285200  0.99911200  0.94701100  1
  Li  Li15  1  0.67044300  0.74969200  0.58403300  1
  Li  Li16  1  0.71728200  0.49990700  0.44637400  1
  Li  Li17  1  0.83041600  0.50090000  0.66599900  1
  Li  Li18  1  0.61761400  0.50063300  0.22071500  1
  Li  Li19  1  0.95162500  0.50102900  0.88885600  1
  Li  Li20  1  0.66643200  0.25016500  0.08192500  1
  Li  Li21  1  0.83570000  0.99918200  0.16647200  1
  Li  Li22  1  0.00333900  0.24982100  0.75079700  1
  Li  Li23  1  0.95249200  0.99952900  0.38590100  1
  Mn  Mn0  1  0.11300900  0.25155900  0.97387800  1
  Mn  Mn1  1  0.10933700  0.74866100  0.47185400  1
  Mn  Mn2  1  0.22132100  0.24943500  0.19450800  1
  Mn  Mn3  1  0.44317000  0.24936300  0.63843300  1
  Mn  Mn4  1  0.77675300  0.75056000  0.80595000  1
  Cr  Cr0  1  0.22759800  0.74976100  0.69335200  1
  Cr  Cr1  1  0.56275500  0.24952600  0.86008300  1
  Cr  Cr2  1  0.44224300  0.75070000  0.14121300  1
  Cr  Cr3  1  0.56113500  0.75144800  0.36366700  1
  Cr  Cr4  1  0.77172600  0.24802000  0.30307900  1
  Cr  Cr5  1  0.89449900  0.25140100  0.52834400  1
  Cr  Cr6  1  0.89236400  0.74904900  0.02589600  1
  O  O0  1  0.99813500  0.86143900  0.92837000  1
  O  O1  1  0.06768200  0.63640800  0.78408800  1
  O  O2  1  0.99416700  0.36144100  0.42941600  1
  O  O3  1  0.14442700  0.36193700  0.64343900  1
  O  O4  1  0.26405200  0.36354300  0.88225300  1
  O  O5  1  0.32928600  0.86099800  0.59574700  1
  O  O6  1  0.07440200  0.13448100  0.28382700  1
  O  O7  1  0.19307000  0.13804400  0.52422600  1
  O  O8  1  0.40136300  0.13611600  0.95133700  1
  O  O9  1  0.15112200  0.86290000  0.14246200  1
  O  O10  1  0.25901100  0.86479800  0.38222600  1
  O  O11  1  0.48087300  0.86289600  0.81112400  1
  O  O12  1  0.32981200  0.13652500  0.73580700  1
  O  O13  1  0.18190200  0.63763500  0.02380600  1
  O  O14  1  0.40189800  0.63629300  0.45107900  1
  O  O15  1  0.52092800  0.63868700  0.69086400  1
  O  O16  1  0.33785000  0.63859100  0.23819700  1
  O  O17  1  0.66193300  0.63673200  0.90187200  1
  O  O18  1  0.33571100  0.36158100  0.09540500  1
  O  O19  1  0.66284800  0.36108700  0.76246200  1
  O  O20  1  0.47082100  0.36263400  0.30839200  1
  O  O21  1  0.59270400  0.36499700  0.54888700  1
  O  O22  1  0.81583700  0.36304900  0.97814600  1
  O  O23  1  0.66540800  0.86323300  0.26447000  1
  O  O24  1  0.52327700  0.13848100  0.19055200  1
  O  O25  1  0.73449700  0.13626200  0.61708300  1
  O  O26  1  0.85463100  0.13869000  0.85883900  1
  O  O27  1  0.60057500  0.86474000  0.04875800  1
  O  O28  1  0.81092800  0.86162700  0.47669400  1
  O  O29  1  0.92946500  0.86413600  0.71501100  1
  O  O30  1  0.67103800  0.13769700  0.40340700  1
  O  O31  1  0.73261400  0.63591300  0.11709900  1
  O  O32  1  0.86174900  0.63767900  0.35709900  1
  O  O33  1  0.99611500  0.63633600  0.56927800  1
  O  O34  1  0.93132700  0.36351100  0.21637100  1
  O  O35  1  0.99900100  0.13829200  0.07141900  1
loop_
_geom_bond_atom_site_label_1
_geom_bond_atom_site_label_2
_geom_bond_distance
_geom_bond_site_symmetry_2
Li0 O8 2.039186 1_555
Li0 O29 2.045518 1_445
Li0 O12 2.173479 1_555
Li0 O0 2.177663 1_445
Li0 O11 2.186176 1_545
Li0 O26 2.197136 1_455
Li1 O5 2.052530 1_545
Li1 O7 2.058514 1_555
Li1 O29 2.131412 1_445
Li1 O25 2.153795 1_455
Li1 O12 2.155386 1_555
Li1 O28 2.225506 1_445
Li2 O32 2.073724 1_555
Li2 O23 2.105019 1_555
Li2 O10 2.110430 1_655
Li2 O16 2.110561 1_655
Li2 O9 2.111398 1_655
Li2 O31 2.138218 1_555
Li3 O17 2.074201 1_555
Li3 O11 2.075480 1_555
Li3 O0 2.105382 1_455
Li3 O13 2.109523 1_556
Li3 O27 2.122178 1_556
Li3 O1 2.134525 1_555
Li4 O13 2.041568 1_555
Li4 O18 2.069739 1_555
Li4 O22 2.144755 1_454
Li4 O34 2.147067 1_455
Li4 O31 2.158707 1_455
Li4 O16 2.254347 1_555
Li5 O15 2.059898 1_555
Li5 O19 2.062009 1_555
Li5 O4 2.132320 1_555
Li5 O1 2.145491 1_555
Li5 O17 2.159640 1_555
Li5 O3 2.214373 1_555
Li6 O34 2.031666 1_455
Li6 O14 2.041951 1_555
Li6 O20 2.150063 1_555
Li6 O32 2.162744 1_455
Li6 O16 2.183899 1_555
Li6 O2 2.193893 1_455
Li7 O31 2.028803 1_555
Li7 O4 2.039965 1_554
Li7 O18 2.167116 1_555
Li7 O17 2.181921 1_554
Li7 O22 2.187114 1_554
Li7 O13 2.213712 1_555
Li8 O33 2.063114 1_455
Li8 O3 2.064122 1_555
Li8 O21 2.118864 1_555
Li8 O14 2.133626 1_555
Li8 O2 2.212728 1_455
Li8 O15 2.217013 1_555
Li9 O20 2.080156 1_555
Li9 O7 2.089354 1_555
Li9 O30 2.113382 1_555
Li9 O2 2.115632 1_455
Li9 O6 2.116510 1_555
Li9 O21 2.120240 1_555
Li10 O10 2.034767 1_545
Li10 O25 2.043121 1_555
Li10 O7 2.142669 1_555
Li10 O30 2.187605 1_555
Li10 O5 2.194273 1_545
Li10 O28 2.210844 1_545
Li11 O9 2.043883 1_545
Li11 O35 2.069764 1_455
Li11 O8 2.121600 1_554
Li11 O27 2.150758 1_545
Li11 O24 2.202686 1_555
Li11 O0 2.226780 1_444
Li12 O11 2.050456 1_555
Li12 O12 2.062884 1_565
Li12 O29 2.138385 1_555
Li12 O25 2.149781 1_565
Li12 O5 2.211724 1_555
Li12 O26 2.229028 1_565
Li13 O23 2.054825 1_545
Li13 O24 2.067024 1_555
Li13 O6 2.103469 1_555
Li13 O10 2.132208 1_545
Li13 O9 2.199647 1_545
Li13 O30 2.204740 1_555
Li14 O26 2.061152 1_565
Li14 O0 2.068211 1_555
Li14 O27 2.105675 1_556
Li14 O8 2.142438 1_565
Li14 O11 2.182246 1_555
Li14 O35 2.211721 1_566
Li15 O33 2.071984 1_555
Li15 O28 2.079858 1_555
Li15 O15 2.088630 1_555
Li15 O29 2.101671 1_555
Li15 O5 2.120357 1_555
Li15 O14 2.135510 1_555
Li16 O2 2.037902 1_555
Li16 O32 2.064717 1_555
Li16 O21 2.138181 1_555
Li16 O14 2.154206 1_555
Li16 O33 2.171234 1_555
Li16 O20 2.230056 1_555
Li17 O21 2.037259 1_555
Li17 O1 2.041960 1_655
Li17 O33 2.166071 1_555
Li17 O15 2.179096 1_555
Li17 O19 2.195547 1_555
Li17 O3 2.198551 1_655
Li18 O16 2.046475 1_555
Li18 O20 2.055824 1_555
Li18 O31 2.135204 1_555
Li18 O34 2.152025 1_555
Li18 O18 2.208074 1_555
Li18 O32 2.211211 1_555
Li19 O22 2.049231 1_555
Li19 O17 2.060828 1_555
Li19 O1 2.149388 1_655
Li19 O4 2.152054 1_655
Li19 O13 2.173045 1_656
Li19 O19 2.235917 1_555
Li20 O22 2.066467 1_554
Li20 O18 2.079726 1_555
Li20 O35 2.084031 1_555
Li20 O24 2.097949 1_555
Li20 O8 2.109942 1_554
Li20 O34 2.140346 1_555
Li21 O27 2.029656 1_555
Li21 O6 2.038103 1_665
Li21 O35 2.168137 1_565
Li21 O9 2.190896 1_655
Li21 O23 2.191994 1_555
Li21 O24 2.198335 1_565
Li22 O12 2.075601 1_555
Li22 O3 2.082351 1_555
Li22 O26 2.100543 1_455
Li22 O4 2.106768 1_555
Li22 O19 2.117149 1_455
Li22 O25 2.143279 1_455
Li23 O30 2.054418 1_565
Li23 O28 2.074293 1_555
Li23 O10 2.107048 1_655
Li23 O6 2.129279 1_665
Li23 O23 2.179132 1_555
Li23 O7 2.228248 1_665
Mn0 O22 1.921629 1_455
Mn0 O18 1.929034 1_556
Mn0 O35 1.930927 1_456
Mn0 O4 1.938832 1_555
Mn0 O8 1.947980 1_555
Mn0 O26 1.962868 1_455
Mn1 O33 1.922484 1_455
Mn1 O32 1.928005 1_455
Mn1 O28 1.936570 1_455
Mn1 O10 1.940473 1_555
Mn1 O14 1.941926 1_555
Mn1 O5 1.954007 1_555
Mn2 O6 1.923996 1_555
Mn2 O20 1.934417 1_555
Mn2 O24 1.937903 1_555
Mn2 O18 1.941328 1_555
Mn2 O34 1.944554 1_455
Mn2 O35 1.946525 1_455
Mn3 O12 1.925341 1_555
Mn3 O7 1.930741 1_555
Mn3 O3 1.935790 1_555
Mn3 O21 1.936279 1_555
Mn3 O25 1.942780 1_555
Mn3 O19 1.952284 1_555
Mn4 O17 1.918897 1_555
Mn4 O11 1.922688 1_555
Mn4 O0 1.937799 1_555
Mn4 O29 1.945150 1_555
Mn4 O1 1.948870 1_655
Mn4 O15 1.953249 1_555
Cr0 O5 1.897074 1_555
Cr0 O15 1.900900 1_555
Cr0 O1 1.958630 1_555
Cr0 O11 1.973776 1_555
Cr0 O29 1.979494 1_455
Cr0 O33 1.981742 1_455
Cr1 O26 1.892033 1_555
Cr1 O19 1.896500 1_555
Cr1 O8 1.967688 1_555
Cr1 O22 1.977226 1_555
Cr1 O4 1.981211 1_555
Cr1 O12 1.984685 1_555
Cr2 O9 1.897389 1_555
Cr2 O16 1.900577 1_555
Cr2 O23 1.955120 1_555
Cr2 O31 1.957000 1_555
Cr2 O27 1.976260 1_555
Cr2 O13 1.986927 1_555
Cr3 O28 1.916119 1_555
Cr3 O23 1.921868 1_555
Cr3 O14 1.934609 1_555
Cr3 O32 1.953151 1_555
Cr3 O16 1.976250 1_555
Cr3 O10 1.981680 1_555
Cr4 O24 1.906477 1_555
Cr4 O30 1.918864 1_555
Cr4 O34 1.930556 1_555
Cr4 O20 1.957685 1_555
Cr4 O2 1.984682 1_555
Cr4 O6 1.986918 1_655
Cr5 O2 1.900384 1_555
Cr5 O3 1.934315 1_655
Cr5 O7 1.938669 1_655
Cr5 O25 1.949475 1_555
Cr5 O30 1.975205 1_555
Cr5 O21 1.987052 1_555
Cr6 O13 1.886890 1_655
Cr6 O0 1.910469 1_554
Cr6 O31 1.961660 1_555
Cr6 O27 1.964541 1_555
Cr6 O17 1.974885 1_554
Cr6 O9 1.979676 1_655
