# generated using pymatgen
data_Li2FeO2F
_symmetry_space_group_name_H-M   'P 1'
_cell_length_a   5.15783249
_cell_length_b   5.15783249
_cell_length_c   9.55225685
_cell_angle_alpha   79.61376678
_cell_angle_beta   79.61376678
_cell_angle_gamma   109.28036438
_symmetry_Int_Tables_number   1
_chemical_formula_structural   Li2FeO2F
_chemical_formula_sum   'Li8 Fe4 O8 F4'
_cell_volume   227.93196775
_cell_formula_units_Z   4
loop_
 _symmetry_equiv_pos_site_id
 _symmetry_equiv_pos_as_xyz
  1  'x, y, z'
loop_
 _atom_site_type_symbol
 _atom_site_label
 _atom_site_symmetry_multiplicity
 _atom_site_fract_x
 _atom_site_fract_y
 _atom_site_fract_z
 _atom_site_occupancy
  Li  Li0  1  0.36869100  0.11592000  0.27446800  1
  Li  Li1  1  0.11592000  0.36869100  0.77446800  1
  Li  Li2  1  0.81106100  0.04753500  0.39414000  1
  Li  Li3  1  0.95718000  0.20469800  0.08793200  1
  Li  Li4  1  0.04753500  0.81106100  0.89414000  1
  Li  Li5  1  0.20469800  0.95718000  0.58793200  1
  Li  Li6  1  0.86946700  0.61685000  0.25954100  1
  Li  Li7  1  0.61685000  0.86946700  0.75954100  1
  Fe  Fe0  1  0.45889800  0.70933700  0.07962500  1
  Fe  Fe1  1  0.30299200  0.55447900  0.39401400  1
  Fe  Fe2  1  0.70933700  0.45889800  0.57962500  1
  Fe  Fe3  1  0.55447900  0.30299200  0.89401400  1
  O  O0  1  0.60751700  0.86514600  0.24518000  1
  O  O1  1  0.52752700  0.31254900  0.42966200  1
  O  O2  1  0.04068300  0.75895500  0.42937300  1
  O  O3  1  0.86514600  0.60751700  0.74518000  1
  O  O4  1  0.14793000  0.38927600  0.24542400  1
  O  O5  1  0.31254800  0.52752700  0.92966200  1
  O  O6  1  0.75895500  0.04068300  0.92937300  1
  O  O7  1  0.38927600  0.14793000  0.74542400  1
  F  F0  1  0.20247000  0.94851800  0.07951200  1
  F  F1  1  0.71480800  0.46751500  0.08112800  1
  F  F2  1  0.94851800  0.20247000  0.57951200  1
  F  F3  1  0.46751500  0.71480800  0.58112800  1
loop_
_geom_bond_atom_site_label_1
_geom_bond_atom_site_label_2
_geom_bond_distance
_geom_bond_site_symmetry_2
Li0 O0 2.080163 1_545
Li0 O1 2.080556 1_555
Li0 O4 2.096288 1_555
Li0 O2 2.121236 1_545
Li1 O3 2.080163 1_455
Li1 O5 2.080554 1_555
Li1 O7 2.096288 1_555
Li1 O6 2.121236 1_455
Li2 O4 2.080524 1_655
Li2 O0 2.093052 1_545
Li2 O2 2.204242 1_645
Li2 O1 2.330370 1_555
Li3 O5 2.120261 1_654
Li3 O6 2.122296 1_554
Li3 O0 2.136569 1_545
Li3 O4 2.137544 1_655
Li4 O7 2.080524 1_565
Li4 O3 2.093052 1_455
Li4 O6 2.204242 1_465
Li4 O5 2.330365 1_555
Li5 O1 2.120263 1_565
Li5 O2 2.122296 1_555
Li5 O3 2.136569 1_455
Li5 O7 2.137544 1_565
Li6 O1 2.105625 1_555
Li6 O2 2.113463 1_655
Li6 O4 2.135270 1_655
Li6 O0 2.151867 1_555
Li7 O5 2.105626 1_555
Li7 O6 2.113463 1_565
Li7 O7 2.135270 1_565
Li7 O3 2.151867 1_555
Fe0 O5 1.976855 1_554
Fe0 O6 1.985923 1_564
Fe0 O4 2.049119 1_555
Fe0 O0 2.054958 1_555
Fe1 O0 1.940942 1_555
Fe1 O4 1.943108 1_555
Fe1 O1 1.989371 1_555
Fe1 O2 1.990678 1_555
Fe2 O1 1.976853 1_555
Fe2 O2 1.985923 1_655
Fe2 O7 2.049119 1_555
Fe2 O3 2.054958 1_555
Fe3 O3 1.940942 1_555
Fe3 O7 1.943108 1_555
Fe3 O5 1.989375 1_555
Fe3 O6 1.990678 1_555
F0 Fe0 2.085367 1_555
F0 Li3 2.111546 1_465
F0 Li6 2.183517 1_455
F0 Li4 2.205772 1_554
F0 Fe3 2.293176 1_564
F0 Li0 2.369640 1_565
F1 Fe0 2.094215 1_555
F1 Li3 2.126309 1_555
F1 Li6 2.166057 1_555
F1 Li4 2.240699 1_654
F1 Fe3 2.283637 1_554
F1 Li0 2.313467 1_555
F2 Fe2 2.085367 1_555
F2 Li5 2.111546 1_645
F2 Li7 2.183517 1_545
F2 Li2 2.205772 1_555
F2 Fe1 2.293176 1_655
F2 Li1 2.369640 1_655
F3 Fe2 2.094215 1_555
F3 Li5 2.126309 1_555
F3 Li7 2.166057 1_555
F3 Li2 2.240699 1_565
F3 Fe1 2.283637 1_555
F3 Li1 2.313467 1_555
