# generated using pymatgen
data_Mn2OF3
_symmetry_space_group_name_H-M   'P 1'
_cell_length_a   4.85453200
_cell_length_b   5.82068619
_cell_length_c   13.63770506
_cell_angle_alpha   77.97874116
_cell_angle_beta   87.06928502
_cell_angle_gamma   86.84182494
_symmetry_Int_Tables_number   1
_chemical_formula_structural   Mn2OF3
_chemical_formula_sum   'Mn10 O5 F15'
_cell_volume   376.02312689
_cell_formula_units_Z   5
loop_
 _symmetry_equiv_pos_site_id
 _symmetry_equiv_pos_as_xyz
  1  'x, y, z'
loop_
 _atom_site_type_symbol
 _atom_site_label
 _atom_site_symmetry_multiplicity
 _atom_site_fract_x
 _atom_site_fract_y
 _atom_site_fract_z
 _atom_site_occupancy
  Mn  Mn0  1  0.49215500  0.50302400  0.00283400  1
  Mn  Mn1  1  0.49798900  0.70149200  0.40004500  1
  Mn  Mn2  1  0.49444600  0.30088200  0.60258400  1
  Mn  Mn3  1  0.50110600  0.09984000  0.19975300  1
  Mn  Mn4  1  0.53070800  0.88484400  0.79203600  1
  Mn  Mn5  1  0.99818800  0.59989500  0.20067700  1
  Mn  Mn6  1  0.99834600  0.20171400  0.40040300  1
  Mn  Mn7  1  0.98027600  0.40973300  0.80498500  1
  Mn  Mn8  1  0.00502800  0.79751400  0.59772000  1
  Mn  Mn9  1  0.00679500  0.99807500  0.99881300  1
  O  O0  1  0.69278000  0.78804400  0.26247500  1
  O  O1  1  0.68936800  0.58295300  0.86530100  1
  O  O2  1  0.70408300  0.98001000  0.65877600  1
  O  O3  1  0.30502700  0.41089100  0.13921600  1
  O  O4  1  0.30183600  0.61847900  0.53718400  1
  F  F0  1  0.80102000  0.08959700  0.86131300  1
  F  F1  1  0.80145900  0.28370900  0.25997600  1
  F  F2  1  0.80615000  0.48206300  0.66074300  1
  F  F3  1  0.80269800  0.67994600  0.06053600  1
  F  F4  1  0.80338900  0.87953400  0.46142300  1
  F  F5  1  0.69596600  0.17938100  0.05992200  1
  F  F6  1  0.68991900  0.38338700  0.46020900  1
  F  F7  1  0.30713300  0.02017700  0.33975400  1
  F  F8  1  0.31432100  0.82893100  0.92990600  1
  F  F9  1  0.29743200  0.20920400  0.74704000  1
  F  F10  1  0.19784600  0.11485300  0.54014200  1
  F  F11  1  0.19713400  0.52075300  0.33865400  1
  F  F12  1  0.19938000  0.91417900  0.13943000  1
  F  F13  1  0.20098400  0.32237200  0.93980200  1
  F  F14  1  0.18703600  0.71452500  0.73835400  1
loop_
_geom_bond_atom_site_label_1
_geom_bond_atom_site_label_2
_geom_bond_distance
_geom_bond_site_symmetry_2
Mn0 O3 2.009380 1_555
Mn0 O1 2.037889 1_554
Mn1 O4 2.032301 1_555
Mn1 O0 2.035991 1_555
Mn2 O4 2.072494 1_555
Mn2 O2 2.094125 1_545
Mn3 O3 2.033101 1_555
Mn3 O0 2.034673 1_545
Mn4 O2 1.947728 1_555
Mn4 O1 1.969157 1_555
Mn5 O0 2.045869 1_555
Mn5 O3 2.051222 1_655
Mn7 O1 1.938395 1_555
Mn8 O4 1.978618 1_555
Mn8 O2 2.007268 1_455
F0 Mn7 2.081757 1_555
F0 Mn9 2.124804 1_645
F0 Mn4 2.191597 1_545
F1 Mn5 2.109014 1_555
F1 Mn6 2.136615 1_555
F1 Mn3 2.146271 1_555
F2 Mn8 2.120224 1_655
F2 Mn7 2.132422 1_555
F2 Mn2 2.162860 1_555
F3 Mn5 2.129841 1_555
F3 Mn0 2.140645 1_555
F3 Mn9 2.141665 1_654
F4 Mn8 2.099064 1_655
F4 Mn6 2.137751 1_565
F4 Mn1 2.151788 1_555
F5 Mn9 2.036520 1_644
F5 Mn3 2.059553 1_555
F5 Mn0 2.096742 1_555
F6 Mn6 2.021189 1_555
F6 Mn1 2.055474 1_555
F6 Mn2 2.091545 1_555
F7 Mn6 2.027428 1_455
F7 Mn1 2.056355 1_545
F7 Mn3 2.059756 1_555
F8 Mn9 2.039883 1_555
F8 Mn4 2.079772 1_555
F8 Mn0 2.110574 1_556
F9 Mn7 2.102180 1_455
F9 Mn2 2.122788 1_555
F9 Mn4 2.139254 1_545
F10 Mn8 2.101388 1_545
F10 Mn6 2.135127 1_455
F10 Mn2 2.156873 1_555
F11 Mn5 2.112215 1_455
F11 Mn6 2.133523 1_455
F11 Mn1 2.145235 1_555
F12 Mn5 2.115439 1_455
F12 Mn9 2.129088 1_554
F12 Mn3 2.158253 1_565
F13 Mn0 2.123003 1_556
F13 Mn7 2.130478 1_455
F13 Mn9 2.141307 1_545
F14 Mn7 2.100483 1_455
F14 Mn8 2.105422 1_555
F14 Mn4 2.216236 1_555
