# generated using pymatgen
data_Li2MnV(PO4)3
_symmetry_space_group_name_H-M   'P 1'
_cell_length_a   8.91915241
_cell_length_b   8.50260244
_cell_length_c   8.31364447
_cell_angle_alpha   59.47637132
_cell_angle_beta   63.61698244
_cell_angle_gamma   91.43448922
_symmetry_Int_Tables_number   1
_chemical_formula_structural   Li2MnV(PO4)3
_chemical_formula_sum   'Li4 Mn2 V2 P6 O24'
_cell_volume   460.13904685
_cell_formula_units_Z   2
loop_
 _symmetry_equiv_pos_site_id
 _symmetry_equiv_pos_as_xyz
  1  'x, y, z'
loop_
 _atom_site_type_symbol
 _atom_site_label
 _atom_site_symmetry_multiplicity
 _atom_site_fract_x
 _atom_site_fract_y
 _atom_site_fract_z
 _atom_site_occupancy
  Li  Li0  1  0.16059800  0.33100700  0.93884600  1
  Li  Li1  1  0.86402800  0.68493100  0.04878300  1
  Li  Li2  1  0.86783800  0.92280400  0.39938800  1
  Li  Li3  1  0.86187300  0.26534200  0.81249800  1
  Mn  Mn0  1  0.05307400  0.35347100  0.30349500  1
  Mn  Mn1  1  0.95605200  0.64953900  0.69380600  1
  V  V0  1  0.55943300  0.85454100  0.29357500  1
  V  V1  1  0.43341600  0.14093200  0.71215100  1
  P  P0  1  0.25041600  0.03785200  0.21422500  1
  P  P1  1  0.25240600  0.45311300  0.50256500  1
  P  P2  1  0.24762800  0.75340800  0.78548100  1
  P  P3  1  0.75559600  0.25115000  0.21074100  1
  P  P4  1  0.74966800  0.53800100  0.49548700  1
  P  P5  1  0.74563600  0.96837200  0.78422700  1
  O  O0  1  0.09221400  0.84297000  0.37750300  1
  O  O1  1  0.26822100  0.12211800  0.98828800  1
  O  O2  1  0.21178500  0.17626800  0.27773300  1
  O  O3  1  0.20244600  0.48499100  0.33721900  1
  O  O4  1  0.09943600  0.43406500  0.70681000  1
  O  O5  1  0.08973600  0.77938800  0.74943300  1
  O  O6  1  0.42661100  0.00048300  0.19119600  1
  O  O7  1  0.29817800  0.26332900  0.59792100  1
  O  O8  1  0.41725000  0.62130100  0.38321900  1
  O  O9  1  0.20486900  0.54082600  0.96703300  1
  O  O10  1  0.27308700  0.89031700  0.84532900  1
  O  O11  1  0.41753100  0.80698000  0.57213100  1
  O  O12  1  0.59039600  0.19410400  0.42108600  1
  O  O13  1  0.73266800  0.11557700  0.14305500  1
  O  O14  1  0.80412000  0.46339500  0.02227900  1
  O  O15  1  0.57255500  0.37853800  0.63137800  1
  O  O16  1  0.72161600  0.74126300  0.39646300  1
  O  O17  1  0.56745500  0.00087800  0.81239400  1
  O  O18  1  0.91608000  0.21695600  0.24490300  1
  O  O19  1  0.88889200  0.53945100  0.30076000  1
  O  O20  1  0.80877600  0.50679400  0.65719400  1
  O  O21  1  0.79098600  0.84290200  0.70077000  1
  O  O22  1  0.72438200  0.87156000  0.01533900  1
  O  O23  1  0.88934400  0.16964900  0.63303800  1
loop_
_geom_bond_atom_site_label_1
_geom_bond_atom_site_label_2
_geom_bond_distance
_geom_bond_site_symmetry_2
Li0 O9 1.965995 1_555
Li0 O1 1.984780 1_555
Li0 O4 2.007197 1_555
Li0 O18 2.151013 1_456
Li1 O19 1.939612 1_555
Li1 O22 2.026138 1_555
Li1 O5 2.080239 1_654
Li1 O14 2.087577 1_555
Li2 O21 1.982561 1_555
Li2 O16 2.012362 1_555
Li2 O18 2.069304 1_565
Li2 O0 2.090146 1_655
Li3 O23 1.966263 1_555
Li3 O20 2.001399 1_555
Li3 O13 2.014703 1_556
Li3 O4 2.057289 1_655
Mn0 O3 1.918311 1_555
Mn0 O23 2.015373 1_455
Mn0 O18 2.027274 1_455
Mn0 O9 2.048182 1_554
Mn0 O2 2.117767 1_555
Mn0 O19 2.180468 1_455
Mn1 O0 1.939946 1_655
Mn1 O5 1.948667 1_655
Mn1 O20 1.985443 1_555
Mn1 O14 2.003020 1_556
Mn1 O21 2.239648 1_555
Mn1 O4 2.245601 1_655
O0 P0 1.573268 1_565
O1 P0 1.558506 1_556
O1 V1 2.018853 1_555
O2 P0 1.507443 1_555
O3 P1 1.527609 1_555
O4 P1 1.556156 1_555
O5 P2 1.563723 1_555
O6 P0 1.557770 1_555
O6 V0 1.888001 1_545
O7 P1 1.555700 1_555
O7 V1 1.875322 1_555
O8 P1 1.532354 1_555
O8 V0 1.905077 1_555
O9 P2 1.540562 1_555
O10 P2 1.526344 1_555
O10 V1 1.963463 1_565
O11 P2 1.551095 1_555
O11 V0 1.883239 1_555
O12 P3 1.508977 1_555
O12 V1 1.966262 1_555
O13 P3 1.560964 1_555
O13 V0 2.041587 1_545
O14 P3 1.544340 1_555
O15 P4 1.536496 1_555
O15 V1 1.956600 1_555
O16 P4 1.576918 1_555
O16 V0 2.020978 1_555
O17 P5 1.553656 1_545
O17 V1 1.868292 1_555
O18 P3 1.585024 1_555
O19 P4 1.534691 1_555
O20 P4 1.558918 1_555
O21 P5 1.518942 1_555
O22 P5 1.570716 1_554
O22 V0 2.039831 1_555
O23 P5 1.557204 1_545
