# generated using pymatgen
data_Na2Te(H5O4)2
_symmetry_space_group_name_H-M   'P 1'
_cell_length_a   7.74235441
_cell_length_b   7.74235441
_cell_length_c   17.74250359
_cell_angle_alpha   83.56978946
_cell_angle_beta   83.56978946
_cell_angle_gamma   58.03792811
_symmetry_Int_Tables_number   1
_chemical_formula_structural   Na2Te(H5O4)2
_chemical_formula_sum   'Na8 Te4 H40 O32'
_cell_volume   894.89023183
_cell_formula_units_Z   4
loop_
 _symmetry_equiv_pos_site_id
 _symmetry_equiv_pos_as_xyz
  1  'x, y, z'
loop_
 _atom_site_type_symbol
 _atom_site_label
 _atom_site_symmetry_multiplicity
 _atom_site_fract_x
 _atom_site_fract_y
 _atom_site_fract_z
 _atom_site_occupancy
  Na  Na0  1  0.52871800  0.56847600  0.07472300  1
  Na  Na1  1  0.43152400  0.47128200  0.42527700  1
  Na  Na2  1  0.47128200  0.43152400  0.92527700  1
  Na  Na3  1  0.56847600  0.52871800  0.57472300  1
  Na  Na4  1  0.47045200  0.52954800  0.25000000  1
  Na  Na5  1  0.52954800  0.47045200  0.75000000  1
  Na  Na6  1  0.00000000  0.50000000  0.00000000  1
  Na  Na7  1  0.50000000  0.00000000  0.50000000  1
  Te  Te0  1  0.82272100  0.86256700  0.17433900  1
  Te  Te1  1  0.13743300  0.17727900  0.32566100  1
  Te  Te2  1  0.17727900  0.13743300  0.82566100  1
  Te  Te3  1  0.86256700  0.82272100  0.67433900  1
  H  H0  1  0.22529800  0.47202600  0.14469900  1
  H  H1  1  0.52797400  0.77470200  0.35530100  1
  H  H2  1  0.77470200  0.52797400  0.85530100  1
  H  H3  1  0.47202600  0.22529800  0.64469900  1
  H  H4  1  0.43711600  0.25849400  0.14432900  1
  H  H5  1  0.74150600  0.56288400  0.35567100  1
  H  H6  1  0.56288400  0.74150600  0.85567100  1
  H  H7  1  0.25849400  0.43711600  0.64432900  1
  H  H8  1  0.56912500  0.83743100  0.96087400  1
  H  H9  1  0.16256900  0.43087500  0.53912600  1
  H  H10  1  0.43087500  0.16256900  0.03912600  1
  H  H11  1  0.83743100  0.56912500  0.46087400  1
  H  H12  1  0.64567200  0.84860200  0.03903000  1
  H  H13  1  0.15139800  0.35432800  0.46097000  1
  H  H14  1  0.35432800  0.15139800  0.96097000  1
  H  H15  1  0.84860200  0.64567200  0.53903000  1
  H  H16  1  0.87129600  0.44270200  0.16088700  1
  H  H17  1  0.55729800  0.12870400  0.33911300  1
  H  H18  1  0.12870400  0.55729800  0.83911300  1
  H  H19  1  0.44270200  0.87129600  0.66088700  1
  H  H20  1  0.85354700  0.24434900  0.15865700  1
  H  H21  1  0.75565100  0.14645300  0.34134300  1
  H  H22  1  0.14645300  0.75565100  0.84134300  1
  H  H23  1  0.24434900  0.85354700  0.65865700  1
  H  H24  1  0.16942200  0.82851100  0.95460200  1
  H  H25  1  0.17148900  0.83057800  0.54539800  1
  H  H26  1  0.83057800  0.17148900  0.04539800  1
  H  H27  1  0.82851100  0.16942200  0.45460200  1
  H  H28  1  0.13015600  0.78808900  0.04102100  1
  H  H29  1  0.21191100  0.86984400  0.45897900  1
  H  H30  1  0.86984400  0.21191100  0.95897900  1
  H  H31  1  0.78808900  0.13015600  0.54102100  1
  H  H32  1  0.20401100  0.90467800  0.14604900  1
  H  H33  1  0.09532200  0.79598900  0.35395100  1
  H  H34  1  0.79598900  0.09532200  0.85395100  1
  H  H35  1  0.90467800  0.20401100  0.64604900  1
  H  H36  1  0.40970400  0.90686500  0.15400300  1
  H  H37  1  0.09313500  0.59029600  0.34599700  1
  H  H38  1  0.59029600  0.09313500  0.84599800  1
  H  H39  1  0.90686500  0.40970400  0.65400300  1
  O  O0  1  0.95255400  0.99391100  0.12005900  1
  O  O1  1  0.00608900  0.04744600  0.37994100  1
  O  O2  1  0.04744600  0.00608900  0.87994100  1
  O  O3  1  0.99391100  0.95255400  0.62005900  1
  O  O4  1  0.57969000  0.99344000  0.12102000  1
  O  O5  1  0.00656000  0.42031000  0.37898000  1
  O  O6  1  0.42031000  0.00656000  0.87898000  1
  O  O7  1  0.99344000  0.57969000  0.62102000  1
  O  O8  1  0.96864600  0.60899900  0.12969500  1
  O  O9  1  0.39100100  0.03135400  0.37030500  1
  O  O10  1  0.03135400  0.39100100  0.87030500  1
  O  O11  1  0.60899900  0.96864600  0.62969500  1
  O  O12  1  0.77841100  0.38932800  0.17111800  1
  O  O13  1  0.61067200  0.22158900  0.32888200  1
  O  O14  1  0.22158900  0.61067200  0.82888200  1
  O  O15  1  0.38932800  0.77841100  0.67111800  1
  O  O16  1  0.22374200  0.72052600  0.99720600  1
  O  O17  1  0.27947400  0.77625800  0.50279400  1
  O  O18  1  0.77625800  0.27947400  0.00279400  1
  O  O19  1  0.72052600  0.22374200  0.49720600  1
  O  O20  1  0.34384600  0.82525700  0.16519900  1
  O  O21  1  0.17474300  0.65615400  0.33480100  1
  O  O22  1  0.65615400  0.17474300  0.83480100  1
  O  O23  1  0.82525700  0.34384600  0.66519900  1
  O  O24  1  0.37379700  0.40474700  0.15327000  1
  O  O25  1  0.59525300  0.62620300  0.34673000  1
  O  O26  1  0.62620300  0.59525300  0.84673000  1
  O  O27  1  0.40474700  0.37379700  0.65327000  1
  O  O28  1  0.66448300  0.75370500  0.00070900  1
  O  O29  1  0.24629500  0.33551700  0.49929100  1
  O  O30  1  0.33551700  0.24629500  0.99929100  1
  O  O31  1  0.75370500  0.66448300  0.50070900  1
loop_
_geom_bond_atom_site_label_1
_geom_bond_atom_site_label_2
_geom_bond_distance
_geom_bond_site_symmetry_2
Na0 O28 2.398124 1_555
Na0 O20 2.401166 1_555
Na0 O24 2.414011 1_555
Na0 O18 2.420759 1_555
Na0 O12 2.440617 1_555
Na0 O16 2.504931 1_554
Na1 O29 2.398124 1_555
Na1 O21 2.401166 1_555
Na1 O25 2.414011 1_555
Na1 O19 2.420759 1_555
Na1 O13 2.440617 1_555
Na1 O17 2.504931 1_555
Na2 O30 2.398124 1_555
Na2 O22 2.401166 1_555
Na2 O26 2.414011 1_555
Na2 O16 2.420759 1_555
Na2 O14 2.440617 1_555
Na2 O18 2.504931 1_556
Na3 O31 2.398124 1_555
Na3 O23 2.401166 1_555
Na3 O27 2.414011 1_555
Na3 O17 2.420759 1_555
Na3 O15 2.440617 1_555
Na3 O19 2.504931 1_555
Na4 O21 2.376792 1_555
Na4 O20 2.376792 1_555
Na4 O12 2.382182 1_555
Na4 O13 2.382182 1_555
Na4 O25 2.421520 1_555
Na4 O24 2.421520 1_555
Na5 O23 2.376792 1_555
Na5 O22 2.376792 1_555
Na5 O15 2.382182 1_555
Na5 O14 2.382182 1_555
Na5 O26 2.421520 1_555
Na5 O27 2.421520 1_555
Na6 O30 2.280914 1_554
Na6 O28 2.280914 1_455
Na6 O8 2.481772 1_455
Na6 O10 2.481772 1_554
Na7 O29 2.280914 1_555
Na7 O31 2.280914 1_545
Na7 O11 2.481772 1_545
Na7 O9 2.481772 1_555
H0 O24 1.001851 1_555
H0 O8 1.722865 1_455
H1 O25 1.001851 1_555
H1 O9 1.722865 1_565
H2 O26 1.001851 1_555
H2 O10 1.722865 1_655
H3 O27 1.001851 1_555
H3 O11 1.722865 1_545
H4 O24 0.991364 1_555
H5 O25 0.991364 1_555
H6 O26 0.991364 1_555
H7 O27 0.991364 1_555
H8 O28 0.986096 1_556
H9 O29 0.986096 1_555
H10 O30 0.986096 1_554
H11 O31 0.986096 1_555
H12 O28 0.999867 1_555
H13 O29 0.999867 1_555
H14 O30 0.999867 1_555
H15 O31 0.999867 1_555
H16 O12 0.994727 1_555
H17 O13 0.994727 1_555
H18 O14 0.994727 1_555
H19 O15 0.994727 1_555
H20 O12 0.991316 1_555
H21 O13 0.991316 1_555
H22 O14 0.991316 1_555
H23 O15 0.991316 1_555
H24 O16 1.002320 1_555
H25 O17 1.002320 1_555
H26 O18 1.002320 1_555
H27 O19 1.002320 1_555
H28 O16 0.983164 1_554
H29 O17 0.983164 1_555
H30 O18 0.983164 1_556
H31 O19 0.983164 1_555
H32 O20 0.998232 1_555
H33 O21 0.998232 1_555
H34 O22 0.998232 1_555
H35 O23 0.998232 1_555
H36 O20 0.994465 1_555
H37 O21 0.994465 1_555
H38 O22 0.994467 1_555
H39 O23 0.994465 1_555
O0 Te0 1.902127 1_555
O1 Te1 1.902127 1_555
O2 Te2 1.902127 1_555
O3 Te3 1.902127 1_555
O4 Te0 1.904639 1_555
O5 Te1 1.904639 1_555
O6 Te2 1.904639 1_555
O7 Te3 1.904639 1_555
O8 Te0 1.886177 1_555
O9 Te1 1.886177 1_555
O10 Te2 1.886177 1_555
O11 Te3 1.886177 1_555
