# generated using pymatgen
data_Fe3Co2Te(PO4)6
_symmetry_space_group_name_H-M   'P 1'
_cell_length_a   8.59776242
_cell_length_b   8.73260734
_cell_length_c   8.73260862
_cell_angle_alpha   60.00000295
_cell_angle_beta   59.47981526
_cell_angle_gamma   59.47981185
_symmetry_Int_Tables_number   1
_chemical_formula_structural   Fe3Co2Te(PO4)6
_chemical_formula_sum   'Fe3 Co2 Te1 P6 O24'
_cell_volume   459.93722730
_cell_formula_units_Z   1
loop_
 _symmetry_equiv_pos_site_id
 _symmetry_equiv_pos_as_xyz
  1  'x, y, z'
loop_
 _atom_site_type_symbol
 _atom_site_label
 _atom_site_symmetry_multiplicity
 _atom_site_fract_x
 _atom_site_fract_y
 _atom_site_fract_z
 _atom_site_occupancy
  Fe  Fe0  1  0.06206100  0.64597900  0.64597900  1
  Fe  Fe1  1  0.43261800  0.85579300  0.85579300  1
  Fe  Fe2  1  0.93354100  0.35548700  0.35548700  1
  Co  Co0  1  0.00567600  0.99810800  0.99810800  1
  Co  Co1  1  0.49579300  0.50140200  0.50140200  1
  Te  Te0  1  0.56164100  0.14612000  0.14612000  1
  P  P0  1  0.24499600  0.25364900  0.55266400  1
  P  P1  1  0.24499600  0.94869000  0.25364900  1
  P  P2  1  0.24499600  0.55266400  0.94869000  1
  P  P3  1  0.74694600  0.46194000  0.04649500  1
  P  P4  1  0.74694600  0.04649500  0.74462000  1
  P  P5  1  0.74694600  0.74462000  0.46194000  1
  O  O0  1  0.07721900  0.11118100  0.31602300  1
  O  O1  1  0.07721900  0.49557800  0.11118100  1
  O  O2  1  0.07721900  0.31602300  0.49557800  1
  O  O3  1  0.22670900  0.09127000  0.74311000  1
  O  O4  1  0.44124100  0.18839700  0.39727800  1
  O  O5  1  0.27033800  0.41136000  0.56502300  1
  O  O6  1  0.22670900  0.93891100  0.09127000  1
  O  O7  1  0.27033800  0.75328000  0.41136000  1
  O  O8  1  0.56518800  0.61012600  0.00506900  1
  O  O9  1  0.27033800  0.56502300  0.75328000  1
  O  O10  1  0.77569100  0.25874200  0.05839700  1
  O  O11  1  0.56518800  0.00506900  0.81961700  1
  O  O12  1  0.44124100  0.97308400  0.18839700  1
  O  O13  1  0.22670900  0.74311000  0.93891100  1
  O  O14  1  0.72467000  0.43934500  0.24502400  1
  O  O15  1  0.44124100  0.39727800  0.97308400  1
  O  O16  1  0.72467000  0.24502400  0.59096300  1
  O  O17  1  0.77569100  0.05839700  0.90717000  1
  O  O18  1  0.72467000  0.59096300  0.43934500  1
  O  O19  1  0.56518800  0.81961700  0.61012600  1
  O  O20  1  0.77569100  0.90717000  0.25874200  1
  O  O21  1  0.92989400  0.68204900  0.49688000  1
  O  O22  1  0.92989400  0.49688000  0.89117700  1
  O  O23  1  0.92989400  0.89117700  0.68204900  1
loop_
_geom_bond_atom_site_label_1
_geom_bond_atom_site_label_2
_geom_bond_distance
_geom_bond_site_symmetry_2
Fe0 O21 1.953160 1_455
Fe0 O22 1.953168 1_455
Fe0 O23 1.953175 1_455
Fe0 O5 2.083358 1_555
Fe0 O7 2.083368 1_555
Fe0 O9 2.083377 1_555
Fe1 O19 1.956972 1_555
Fe1 O8 1.956983 1_556
Fe1 O11 1.956995 1_565
Fe1 O13 2.092676 1_555
Fe1 O3 2.092684 1_565
Fe1 O6 2.092695 1_556
Fe2 O2 1.955071 1_655
Fe2 O1 1.955075 1_655
Fe2 O0 1.955078 1_655
Fe2 O18 2.099792 1_555
Fe2 O14 2.099792 1_555
Fe2 O16 2.099792 1_555
Co0 O13 2.166221 1_555
Co0 O6 2.166221 1_556
Co0 O3 2.166221 1_565
Co0 O10 2.221980 1_466
Co0 O17 2.221980 1_465
Co0 O20 2.221980 1_456
Co1 O5 2.168355 1_555
Co1 O7 2.168362 1_555
Co1 O9 2.168367 1_555
Co1 O14 2.198602 1_555
Co1 O16 2.198609 1_555
Co1 O18 2.198619 1_555
O0 P1 1.512239 1_545
O1 P2 1.512233 1_554
O2 P0 1.512228 1_555
O3 P0 1.550452 1_555
O4 P0 1.576101 1_555
O4 Te0 2.033184 1_555
O5 P0 1.559867 1_555
O6 P1 1.550447 1_555
O7 P1 1.559857 1_555
O8 P3 1.516448 1_555
O9 P2 1.559850 1_555
O10 P3 1.617650 1_555
O10 Te0 2.143361 1_555
O11 P4 1.516450 1_555
O12 P1 1.576105 1_555
O12 Te0 2.033192 1_565
O13 P2 1.550456 1_555
O14 P3 1.562147 1_555
O15 P2 1.576103 1_555
O15 Te0 2.033188 1_556
O16 P4 1.562144 1_555
O17 P4 1.617641 1_555
O17 Te0 2.143367 1_556
O18 P5 1.562139 1_555
O19 P5 1.516446 1_555
O20 P5 1.617646 1_555
O20 Te0 2.143364 1_565
O21 P5 1.521053 1_555
O22 P3 1.521055 1_556
O23 P4 1.521057 1_565
