# generated using pymatgen
data_Li3ZrO3
_symmetry_space_group_name_H-M   'P 1'
_cell_length_a   9.64391600
_cell_length_b   9.64391600
_cell_length_c   3.49961400
_cell_angle_alpha   90.00000000
_cell_angle_beta   90.00000000
_cell_angle_gamma   90.00000000
_symmetry_Int_Tables_number   1
_chemical_formula_structural   Li3ZrO3
_chemical_formula_sum   'Li12 Zr4 O12'
_cell_volume   325.48200538
_cell_formula_units_Z   4
loop_
 _symmetry_equiv_pos_site_id
 _symmetry_equiv_pos_as_xyz
  1  'x, y, z'
loop_
 _atom_site_type_symbol
 _atom_site_label
 _atom_site_symmetry_multiplicity
 _atom_site_fract_x
 _atom_site_fract_y
 _atom_site_fract_z
 _atom_site_occupancy
  Li  Li0  1  0.35422000  0.08614100  0.50000000  1
  Li  Li1  1  0.58614100  0.14578000  0.00000000  1
  Li  Li2  1  0.17337300  0.17337300  0.00000000  1
  Li  Li3  1  0.67337300  0.32662700  0.50000000  1
  Li  Li4  1  0.08614100  0.35422000  0.50000000  1
  Li  Li5  1  0.85422000  0.41385900  0.00000000  1
  Li  Li6  1  0.14578000  0.58614100  0.00000000  1
  Li  Li7  1  0.91385900  0.64578000  0.50000000  1
  Li  Li8  1  0.32662700  0.67337300  0.50000000  1
  Li  Li9  1  0.82662700  0.82662700  0.00000000  1
  Li  Li10  1  0.41385900  0.85422000  0.00000000  1
  Li  Li11  1  0.64578000  0.91385900  0.50000000  1
  Zr  Zr0  1  0.88064800  0.11935200  0.50000000  1
  Zr  Zr1  1  0.38064800  0.38064800  0.00000000  1
  Zr  Zr2  1  0.61935200  0.61935200  0.00000000  1
  Zr  Zr3  1  0.11935200  0.88064800  0.50000000  1
  O  O0  1  0.10550000  0.10550000  0.50000000  1
  O  O1  1  0.67076500  0.11571100  0.50000000  1
  O  O2  1  0.38428900  0.17076500  0.00000000  1
  O  O3  1  0.88428900  0.32923500  0.50000000  1
  O  O4  1  0.17076500  0.38428900  0.00000000  1
  O  O5  1  0.60550000  0.39450000  0.00000000  1
  O  O6  1  0.39450000  0.60550000  0.00000000  1
  O  O7  1  0.82923500  0.61571100  0.00000000  1
  O  O8  1  0.11571100  0.67076500  0.50000000  1
  O  O9  1  0.61571100  0.82923500  0.00000000  1
  O  O10  1  0.32923500  0.88428900  0.50000000  1
  O  O11  1  0.89450000  0.89450000  0.50000000  1
loop_
_geom_bond_atom_site_label_1
_geom_bond_atom_site_label_2
_geom_bond_distance
_geom_bond_site_symmetry_2
Li0 O2 1.952420 1_556
Li0 O2 1.952420 1_555
Li0 O10 1.961499 1_545
Li0 O0 2.405890 1_555
Li1 O1 1.952420 1_555
Li1 O1 1.952420 1_554
Li1 O2 1.961499 1_555
Li1 O5 2.405890 1_555
Li2 O0 1.979577 1_555
Li2 O0 1.979577 1_554
Li2 O2 2.034212 1_555
Li2 O4 2.034212 1_555
Li3 O5 1.979577 1_556
Li3 O5 1.979577 1_555
Li3 O3 2.034212 1_555
Li3 O1 2.034212 1_555
Li4 O4 1.952420 1_555
Li4 O4 1.952420 1_556
Li4 O3 1.961499 1_455
Li4 O0 2.405890 1_555
Li5 O3 1.952420 1_555
Li5 O3 1.952420 1_554
Li5 O7 1.961499 1_555
Li5 O5 2.405890 1_555
Li6 O8 1.952420 1_554
Li6 O8 1.952420 1_555
Li6 O4 1.961499 1_555
Li6 O6 2.405890 1_555
Li7 O7 1.952420 1_555
Li7 O7 1.952420 1_556
Li7 O8 1.961499 1_655
Li7 O11 2.405890 1_555
Li8 O6 1.979577 1_556
Li8 O6 1.979577 1_555
Li8 O8 2.034212 1_555
Li8 O10 2.034212 1_555
Li9 O11 1.979577 1_555
Li9 O11 1.979577 1_554
Li9 O9 2.034212 1_555
Li9 O7 2.034212 1_555
Li10 O10 1.952420 1_555
Li10 O10 1.952420 1_554
Li10 O9 1.961499 1_555
Li10 O6 2.405890 1_555
Li11 O9 1.952420 1_555
Li11 O9 1.952420 1_556
Li11 O1 1.961499 1_565
Li11 O11 2.405890 1_555
O0 Zr3 2.172565 1_545
O0 Zr0 2.172565 1_455
O1 Zr0 2.024399 1_555
O2 Zr1 2.024399 1_555
O3 Zr0 2.024399 1_555
O4 Zr1 2.024399 1_555
O5 Zr2 2.172565 1_555
O5 Zr1 2.172565 1_555
O6 Zr2 2.172565 1_555
O6 Zr1 2.172565 1_555
O7 Zr2 2.024399 1_555
O8 Zr3 2.024399 1_555
O9 Zr2 2.024399 1_555
O10 Zr3 2.024399 1_555
O11 Zr0 2.172565 1_565
O11 Zr3 2.172565 1_655
