# generated using pymatgen
data_Na5Bi2P(CO4)4
_symmetry_space_group_name_H-M   'P 1'
_cell_length_a   10.43549055
_cell_length_b   10.43549055
_cell_length_c   10.25688866
_cell_angle_alpha   60.70188694
_cell_angle_beta   60.70188694
_cell_angle_gamma   91.40245656
_symmetry_Int_Tables_number   1
_chemical_formula_structural   Na5Bi2P(CO4)4
_chemical_formula_sum   'Na10 Bi4 P2 C8 O32'
_cell_volume   796.69374942
_cell_formula_units_Z   2
loop_
 _symmetry_equiv_pos_site_id
 _symmetry_equiv_pos_as_xyz
  1  'x, y, z'
loop_
 _atom_site_type_symbol
 _atom_site_label
 _atom_site_symmetry_multiplicity
 _atom_site_fract_x
 _atom_site_fract_y
 _atom_site_fract_z
 _atom_site_occupancy
  Na  Na0  1  0.07112900  0.32309900  0.36473600  1
  Na  Na1  1  0.32347000  0.07113600  0.24108000  1
  Na  Na2  1  0.32309900  0.07112900  0.86473600  1
  Na  Na3  1  0.06605900  0.93394100  0.75000000  1
  Na  Na4  1  0.07113600  0.32347000  0.74108000  1
  Na  Na5  1  0.93394100  0.06605900  0.25000000  1
  Na  Na6  1  0.92886400  0.67653000  0.25892000  1
  Na  Na7  1  0.67690100  0.92887100  0.13526400  1
  Na  Na8  1  0.67653000  0.92886400  0.75892000  1
  Na  Na9  1  0.92887100  0.67690100  0.63526400  1
  Bi  Bi0  1  0.50000000  0.00000000  0.50000000  1
  Bi  Bi1  1  0.50000000  0.50000000  0.00000000  1
  Bi  Bi2  1  0.50000000  0.50000000  0.50000000  1
  Bi  Bi3  1  0.00000000  0.50000000  0.00000000  1
  P  P0  1  0.87612800  0.12387200  0.75000000  1
  P  P1  1  0.12387200  0.87612800  0.25000000  1
  C  C0  1  0.27984700  0.72268600  0.94052900  1
  C  C1  1  0.27025000  0.33284100  0.94791500  1
  C  C2  1  0.27731400  0.72015300  0.55947100  1
  C  C3  1  0.66715900  0.72975000  0.55208500  1
  C  C4  1  0.33284100  0.27025000  0.44791500  1
  C  C5  1  0.72268600  0.27984700  0.44052900  1
  C  C6  1  0.72015300  0.27731400  0.05947100  1
  C  C7  1  0.72975000  0.66715900  0.05208500  1
  O  O0  1  0.32975500  0.13861700  0.46207300  1
  O  O1  1  0.14878100  0.60327300  0.06554300  1
  O  O2  1  0.28226400  0.33327300  0.06858000  1
  O  O3  1  0.59456500  0.28697900  0.06488100  1
  O  O4  1  0.13861700  0.32975500  0.96207300  1
  O  O5  1  0.69475600  0.05587700  0.87502800  1
  O  O6  1  0.93894600  0.06220500  0.87406400  1
  O  O7  1  0.28459700  0.85368200  0.81727000  1
  O  O8  1  0.38623700  0.33268700  0.81774800  1
  O  O9  1  0.66731300  0.61376300  0.68225200  1
  O  O10  1  0.14631800  0.71540300  0.68273000  1
  O  O11  1  0.93779500  0.06105400  0.62593600  1
  O  O12  1  0.94412300  0.30524400  0.62497200  1
  O  O13  1  0.33327300  0.28226400  0.56858000  1
  O  O14  1  0.60327300  0.14878100  0.56554300  1
  O  O15  1  0.28697900  0.59456500  0.56488100  1
  O  O16  1  0.71302100  0.40543500  0.43511900  1
  O  O17  1  0.66672700  0.71773600  0.43142000  1
  O  O18  1  0.39672700  0.85121900  0.43445700  1
  O  O19  1  0.05587700  0.69475600  0.37502800  1
  O  O20  1  0.06220500  0.93894600  0.37406400  1
  O  O21  1  0.85368200  0.28459700  0.31727000  1
  O  O22  1  0.33268700  0.38623700  0.31774800  1
  O  O23  1  0.71540300  0.14631800  0.18273000  1
  O  O24  1  0.61376300  0.66731300  0.18225200  1
  O  O25  1  0.06105400  0.93779500  0.12593600  1
  O  O26  1  0.30524400  0.94412300  0.12497200  1
  O  O27  1  0.86138300  0.67024500  0.03792700  1
  O  O28  1  0.40543500  0.71302100  0.93511900  1
  O  O29  1  0.71773600  0.66672700  0.93142000  1
  O  O30  1  0.85121900  0.39672700  0.93445700  1
  O  O31  1  0.67024500  0.86138300  0.53792700  1
loop_
_geom_bond_atom_site_label_1
_geom_bond_atom_site_label_2
_geom_bond_distance
_geom_bond_site_symmetry_2
Na0 O12 2.225939 1_455
Na0 O11 2.363613 1_455
Na0 O22 2.535785 1_555
Na0 O21 2.603002 1_455
Na0 O2 2.686194 1_555
Na0 O1 2.700246 1_555
Na1 O26 2.228328 1_545
Na1 O20 2.351922 1_545
Na1 O2 2.619872 1_555
Na1 O18 2.626813 1_545
Na1 O3 2.653878 1_555
Na1 O0 2.709905 1_555
Na2 O26 2.225939 1_546
Na2 O25 2.363613 1_546
Na2 O8 2.535785 1_555
Na2 O7 2.603002 1_545
Na2 O13 2.686194 1_555
Na2 O14 2.700246 1_555
Na3 O6 2.296148 1_465
Na3 O11 2.296148 1_465
Na3 O27 2.537946 1_456
Na3 O0 2.537946 1_565
Na3 O10 2.728811 1_555
Na3 O7 2.728811 1_555
Na4 O12 2.228328 1_455
Na4 O6 2.351922 1_455
Na4 O13 2.619872 1_555
Na4 O30 2.626813 1_455
Na4 O15 2.653878 1_555
Na4 O4 2.709905 1_555
Na5 O20 2.296148 1_645
Na5 O25 2.296148 1_645
Na5 O31 2.537946 1_545
Na5 O4 2.537946 1_654
Na5 O23 2.728811 1_555
Na5 O21 2.728811 1_555
Na6 O19 2.228328 1_655
Na6 O25 2.351922 1_655
Na6 O17 2.619872 1_555
Na6 O1 2.626813 1_655
Na6 O16 2.653878 1_555
Na6 O27 2.709905 1_555
Na7 O5 2.225939 1_564
Na7 O6 2.363613 1_564
Na7 O24 2.535785 1_555
Na7 O23 2.603002 1_565
Na7 O17 2.686194 1_555
Na7 O18 2.700246 1_555
Na8 O5 2.228328 1_565
Na8 O11 2.351922 1_565
Na8 O29 2.619872 1_555
Na8 O14 2.626813 1_565
Na8 O28 2.653878 1_555
Na8 O31 2.709905 1_555
Na9 O19 2.225939 1_655
Na9 O20 2.363613 1_655
Na9 O9 2.535785 1_555
Na9 O10 2.603002 1_655
Na9 O29 2.686194 1_555
Na9 O30 2.700246 1_555
Bi0 O31 2.377295 1_545
Bi0 O0 2.377295 1_555
Bi0 O14 2.381738 1_555
Bi0 O18 2.381738 1_545
Bi0 O7 2.404956 1_545
Bi0 O23 2.404956 1_555
Bi1 O9 2.371123 1_554
Bi1 O22 2.371123 1_555
Bi1 O3 2.379202 1_555
Bi1 O28 2.379202 1_554
Bi1 O29 2.393576 1_554
Bi1 O2 2.393576 1_555
Bi2 O8 2.371123 1_555
Bi2 O24 2.371123 1_555
Bi2 O15 2.379202 1_555
Bi2 O16 2.379202 1_555
Bi2 O17 2.393576 1_555
Bi2 O13 2.393576 1_555
Bi3 O27 2.377295 1_455
Bi3 O4 2.377295 1_554
Bi3 O1 2.381738 1_555
Bi3 O30 2.381738 1_454
Bi3 O10 2.404956 1_554
Bi3 O21 2.404956 1_455
C0 O28 1.292913 1_555
C0 O1 1.305381 1_556
C0 O7 1.308972 1_555
C1 O8 1.291570 1_555
C1 O2 1.305682 1_556
C1 O4 1.306553 1_555
C2 O15 1.292913 1_555
C2 O18 1.305381 1_555
C2 O10 1.308972 1_555
C3 O9 1.291570 1_555
C3 O17 1.305682 1_555
C3 O31 1.306553 1_555
C4 O22 1.291570 1_555
C4 O13 1.305682 1_555
C4 O0 1.306553 1_555
C5 O16 1.292913 1_555
C5 O14 1.305381 1_555
C5 O21 1.308972 1_555
C6 O3 1.292913 1_555
C6 O30 1.305381 1_554
C6 O23 1.308972 1_555
C7 O24 1.291570 1_555
C7 O29 1.305682 1_554
C7 O27 1.306553 1_555
O5 P0 1.548719 1_555
O6 P0 1.580742 1_555
O11 P0 1.580742 1_555
O12 P0 1.548719 1_555
O19 P1 1.548719 1_555
O20 P1 1.580742 1_555
O25 P1 1.580742 1_555
O26 P1 1.548719 1_555
