# generated using pymatgen
data_NaV3O8
_symmetry_space_group_name_H-M   'P 1'
_cell_length_a   8.54792300
_cell_length_b   5.12260400
_cell_length_c   7.44279828
_cell_angle_alpha   78.00665627
_cell_angle_beta   90.00000000
_cell_angle_gamma   90.00000000
_symmetry_Int_Tables_number   1
_chemical_formula_structural   NaV3O8
_chemical_formula_sum   'Na2 V6 O16'
_cell_volume   318.78857559
_cell_formula_units_Z   2
loop_
 _symmetry_equiv_pos_site_id
 _symmetry_equiv_pos_as_xyz
  1  'x, y, z'
loop_
 _atom_site_type_symbol
 _atom_site_label
 _atom_site_symmetry_multiplicity
 _atom_site_fract_x
 _atom_site_fract_y
 _atom_site_fract_z
 _atom_site_occupancy
  Na  Na0  1  0.75000000  0.52922700  0.94958300  1
  Na  Na1  1  0.25000000  0.47077300  0.05041700  1
  V  V0  1  0.55497400  0.96477800  0.30200800  1
  V  V1  1  0.94502600  0.96477800  0.30200800  1
  V  V2  1  0.25000000  0.56717100  0.57438400  1
  V  V3  1  0.75000000  0.43282900  0.42561600  1
  V  V4  1  0.05497400  0.03522200  0.69799200  1
  V  V5  1  0.44502600  0.03522200  0.69799200  1
  O  O0  1  0.56864900  0.88856400  0.85347500  1
  O  O1  1  0.93135100  0.88856400  0.85347500  1
  O  O2  1  0.25000000  0.87955800  0.78312700  1
  O  O3  1  0.41193600  0.82222900  0.50751000  1
  O  O4  1  0.08806400  0.82222900  0.50751000  1
  O  O5  1  0.75000000  0.58444600  0.59823600  1
  O  O6  1  0.60179700  0.64209800  0.26046900  1
  O  O7  1  0.89820300  0.64209800  0.26046900  1
  O  O8  1  0.10179700  0.35790200  0.73953100  1
  O  O9  1  0.39820300  0.35790200  0.73953100  1
  O  O10  1  0.25000000  0.41555400  0.40176400  1
  O  O11  1  0.58806400  0.17777100  0.49249000  1
  O  O12  1  0.91193600  0.17777100  0.49249000  1
  O  O13  1  0.75000000  0.12044200  0.21687300  1
  O  O14  1  0.06864900  0.11143600  0.14652500  1
  O  O15  1  0.43135100  0.11143600  0.14652500  1
loop_
_geom_bond_atom_site_label_1
_geom_bond_atom_site_label_2
_geom_bond_distance
_geom_bond_site_symmetry_2
Na0 O1 2.399130 1_555
Na0 O0 2.399130 1_555
Na0 O5 2.571157 1_555
Na0 O13 2.571256 1_556
Na0 O6 2.801629 1_556
Na0 O7 2.801629 1_556
Na1 O15 2.399130 1_555
Na1 O14 2.399130 1_555
Na1 O10 2.571157 1_555
Na1 O2 2.571256 1_554
Na1 O8 2.801629 1_554
Na1 O9 2.801629 1_554
O0 V5 1.630622 1_565
O1 V4 1.630622 1_665
O2 V5 1.899074 1_565
O2 V4 1.899074 1_565
O2 V2 2.451075 1_555
O3 V2 1.897531 1_555
O3 V0 1.975701 1_555
O3 V5 1.980719 1_565
O4 V2 1.897531 1_555
O4 V1 1.975701 1_455
O4 V4 1.980719 1_565
O5 V3 1.633577 1_555
O6 V0 1.788979 1_555
O6 V3 1.928018 1_555
O7 V1 1.788979 1_555
O7 V3 1.928018 1_555
O8 V4 1.788979 1_555
O8 V2 1.928018 1_555
O9 V5 1.788979 1_555
O9 V2 1.928018 1_555
O10 V2 1.633577 1_555
O11 V3 1.897531 1_555
O11 V5 1.975701 1_555
O11 V0 1.980719 1_545
O12 V3 1.897531 1_555
O12 V4 1.975701 1_655
O12 V1 1.980719 1_545
O13 V0 1.899074 1_545
O13 V1 1.899074 1_545
O13 V3 2.451075 1_555
O14 V1 1.630622 1_445
O15 V0 1.630622 1_545
