# generated using pymatgen
data_Rb2CrH2Cl5O
_symmetry_space_group_name_H-M   'P 1'
_cell_length_a   7.34614900
_cell_length_b   9.84369900
_cell_length_c   14.19591900
_cell_angle_alpha   90.00000000
_cell_angle_beta   90.00000000
_cell_angle_gamma   90.00000000
_symmetry_Int_Tables_number   1
_chemical_formula_structural   Rb2CrH2Cl5O
_chemical_formula_sum   'Rb8 Cr4 H8 Cl20 O4'
_cell_volume   1026.55345933
_cell_formula_units_Z   4
loop_
 _symmetry_equiv_pos_site_id
 _symmetry_equiv_pos_as_xyz
  1  'x, y, z'
loop_
 _atom_site_type_symbol
 _atom_site_label
 _atom_site_symmetry_multiplicity
 _atom_site_fract_x
 _atom_site_fract_y
 _atom_site_fract_z
 _atom_site_occupancy
  Rb  Rb0  1  0.34693800  0.99896200  0.64514000  1
  Rb  Rb1  1  0.15306200  0.50103800  0.14514000  1
  Rb  Rb2  1  0.65306200  0.49896200  0.35486000  1
  Rb  Rb3  1  0.84693800  0.00103800  0.85486000  1
  Rb  Rb4  1  0.65306200  0.00103800  0.35486000  1
  Rb  Rb5  1  0.84693800  0.49896200  0.85486000  1
  Rb  Rb6  1  0.34693800  0.50103800  0.64514000  1
  Rb  Rb7  1  0.15306200  0.99896200  0.14514000  1
  Cr  Cr0  1  0.80890400  0.25000000  0.61125800  1
  Cr  Cr1  1  0.69109600  0.25000000  0.11125800  1
  Cr  Cr2  1  0.19109600  0.75000000  0.38874200  1
  Cr  Cr3  1  0.30890400  0.75000000  0.88874200  1
  H  H0  1  0.04133000  0.16846900  0.47097900  1
  H  H1  1  0.45867000  0.33153100  0.97097900  1
  H  H2  1  0.95867000  0.66846900  0.52902100  1
  H  H3  1  0.54133000  0.83153100  0.02902100  1
  H  H4  1  0.95867000  0.83153100  0.52902100  1
  H  H5  1  0.54133000  0.66846900  0.02902100  1
  H  H6  1  0.04133000  0.33153100  0.47097900  1
  H  H7  1  0.45867000  0.16846900  0.97097900  1
  Cl  Cl0  1  0.06349700  0.25000000  0.71527000  1
  Cl  Cl1  1  0.43650300  0.25000000  0.21527000  1
  Cl  Cl2  1  0.93650300  0.75000000  0.28473000  1
  Cl  Cl3  1  0.56349700  0.75000000  0.78473000  1
  Cl  Cl4  1  0.54815800  0.25000000  0.50884500  1
  Cl  Cl5  1  0.95184200  0.25000000  0.00884500  1
  Cl  Cl6  1  0.45184200  0.75000000  0.49115500  1
  Cl  Cl7  1  0.04815800  0.75000000  0.99115500  1
  Cl  Cl8  1  0.60982500  0.25000000  0.74239000  1
  Cl  Cl9  1  0.89017500  0.25000000  0.24239000  1
  Cl  Cl10  1  0.39017500  0.75000000  0.25761000  1
  Cl  Cl11  1  0.10982500  0.75000000  0.75761000  1
  Cl  Cl12  1  0.81924100  0.00710100  0.60366700  1
  Cl  Cl13  1  0.68075900  0.49289900  0.10366700  1
  Cl  Cl14  1  0.18075900  0.50710100  0.39633300  1
  Cl  Cl15  1  0.31924100  0.99289900  0.89633300  1
  Cl  Cl16  1  0.18075900  0.99289900  0.39633300  1
  Cl  Cl17  1  0.31924100  0.50710100  0.89633300  1
  Cl  Cl18  1  0.81924100  0.49289900  0.60366700  1
  Cl  Cl19  1  0.68075900  0.00710100  0.10366700  1
  O  O0  1  0.97823200  0.25000000  0.49368400  1
  O  O1  1  0.52176800  0.25000000  0.99368400  1
  O  O2  1  0.02176800  0.75000000  0.50631600  1
  O  O3  1  0.47823200  0.75000000  0.00631600  1
loop_
_geom_bond_atom_site_label_1
_geom_bond_atom_site_label_2
_geom_bond_distance
_geom_bond_site_symmetry_2
Cr0 O0 2.081612 1_555
Cr1 O1 2.081612 1_554
Cr2 O2 2.081612 1_555
Cr3 O3 2.081612 1_556
H0 O0 0.981254 1_455
H1 O1 0.981254 1_555
H2 O2 0.981254 1_655
H3 O3 0.981254 1_555
H4 O2 0.981254 1_655
H5 O3 0.981254 1_555
H6 O0 0.981254 1_455
H7 O1 0.981254 1_555
Cl0 Cr0 2.382882 1_455
Cl0 Rb6 3.381308 1_555
Cl0 Rb0 3.381308 1_545
Cl0 Rb5 3.530385 1_455
Cl0 Rb3 3.530385 1_455
Cl1 Cr1 2.382882 1_555
Cl1 Rb1 3.381308 1_555
Cl1 Rb7 3.381308 1_545
Cl1 Rb2 3.530385 1_555
Cl1 Rb4 3.530385 1_555
Cl2 Cr2 2.382882 1_655
Cl2 Rb4 3.381308 1_565
Cl2 Rb2 3.381308 1_555
Cl2 Rb7 3.530385 1_655
Cl2 Rb1 3.530385 1_655
Cl3 Cr3 2.382882 1_555
Cl3 Rb3 3.381308 1_565
Cl3 Rb5 3.381308 1_555
Cl3 Rb0 3.530385 1_555
Cl3 Rb6 3.530385 1_555
Cl4 Cr0 2.404731 1_555
Cl4 Rb2 3.373169 1_555
Cl4 Rb4 3.373169 1_555
Cl4 Rb6 3.469175 1_555
Cl4 Rb0 3.469175 1_545
Cl5 Cr1 2.404731 1_555
Cl5 Rb5 3.373169 1_554
Cl5 Rb3 3.373169 1_554
Cl5 Rb1 3.469175 1_655
Cl5 Rb7 3.469175 1_645
Cl6 Cr2 2.404731 1_555
Cl6 Rb0 3.373169 1_555
Cl6 Rb6 3.373169 1_555
Cl6 Rb4 3.469175 1_565
Cl6 Rb2 3.469175 1_555
Cl7 Cr3 2.404731 1_555
Cl7 Rb7 3.373169 1_556
Cl7 Rb1 3.373169 1_556
Cl7 Rb3 3.469175 1_465
Cl7 Rb5 3.469175 1_455
Cl8 Cr0 2.367304 1_555
Cl8 Rb5 3.404298 1_555
Cl8 Rb3 3.404298 1_555
Cl8 Rb6 3.426665 1_555
Cl8 Rb0 3.426665 1_545
Cl9 Cr1 2.367304 1_555
Cl9 Rb2 3.404298 1_555
Cl9 Rb4 3.404298 1_555
Cl9 Rb1 3.426665 1_655
Cl9 Rb7 3.426665 1_645
Cl10 Cr2 2.367304 1_555
Cl10 Rb7 3.404298 1_555
Cl10 Rb1 3.404298 1_555
Cl10 Rb4 3.426665 1_565
Cl10 Rb2 3.426665 1_555
Cl11 Cr3 2.367304 1_555
Cl11 Rb0 3.404298 1_555
Cl11 Rb6 3.404298 1_555
Cl11 Rb3 3.426665 1_465
Cl11 Rb5 3.426665 1_455
Cl12 Cr0 2.394656 1_555
Cl12 Rb0 3.520117 1_545
Cl12 Rb3 3.572214 1_555
Cl12 Rb4 3.737538 1_555
Cl13 Cr1 2.394656 1_555
Cl13 Rb1 3.520117 1_655
Cl13 Rb2 3.572214 1_555
Cl13 Rb5 3.737538 1_554
Cl14 Cr2 2.394656 1_555
Cl14 Rb2 3.520117 1_555
Cl14 Rb1 3.572214 1_555
Cl14 Rb6 3.737538 1_555
Cl15 Cr3 2.394656 1_555
Cl15 Rb3 3.520117 1_465
Cl15 Rb0 3.572214 1_555
Cl15 Rb7 3.737538 1_556
Cl16 Cr2 2.394656 1_555
Cl16 Rb4 3.520117 1_565
Cl16 Rb7 3.572214 1_555
Cl16 Rb0 3.737538 1_555
Cl17 Cr3 2.394656 1_555
Cl17 Rb5 3.520117 1_455
Cl17 Rb6 3.572214 1_555
Cl17 Rb1 3.737538 1_556
Cl18 Cr0 2.394656 1_555
Cl18 Rb6 3.520117 1_555
Cl18 Rb5 3.572214 1_555
Cl18 Rb2 3.737538 1_555
Cl19 Cr1 2.394656 1_555
Cl19 Rb7 3.520117 1_645
Cl19 Rb4 3.572214 1_555
Cl19 Rb3 3.737538 1_554
