# generated using pymatgen
data_Li3Fe(CuO3)2
_symmetry_space_group_name_H-M   'P 1'
_cell_length_a   6.61028976
_cell_length_b   6.61028976
_cell_length_c   5.91833351
_cell_angle_alpha   76.74251796
_cell_angle_beta   76.74251796
_cell_angle_gamma   25.80876846
_symmetry_Int_Tables_number   1
_chemical_formula_structural   Li3Fe(CuO3)2
_chemical_formula_sum   'Li3 Fe1 Cu2 O6'
_cell_volume   109.42911349
_cell_formula_units_Z   1
loop_
 _symmetry_equiv_pos_site_id
 _symmetry_equiv_pos_as_xyz
  1  'x, y, z'
loop_
 _atom_site_type_symbol
 _atom_site_label
 _atom_site_symmetry_multiplicity
 _atom_site_fract_x
 _atom_site_fract_y
 _atom_site_fract_z
 _atom_site_occupancy
  Li  Li0  1  0.50000000  0.50000000  0.50000000  1
  Li  Li1  1  0.17123700  0.17123700  0.16395400  1
  Li  Li2  1  0.82876300  0.82876300  0.83604600  1
  Fe  Fe0  1  0.50000000  0.50000000  0.00000000  1
  Cu  Cu0  1  0.16769400  0.16769400  0.66664900  1
  Cu  Cu1  1  0.83230600  0.83230600  0.33335100  1
  O  O0  1  0.66497800  0.66497800  0.90457000  1
  O  O1  1  0.32838000  0.32838000  0.57010400  1
  O  O2  1  0.33502200  0.33502200  0.09543000  1
  O  O3  1  0.99677700  0.99677700  0.23849500  1
  O  O4  1  0.00322300  0.00322300  0.76150500  1
  O  O5  1  0.67162000  0.67162000  0.42989600  1
loop_
_geom_bond_atom_site_label_1
_geom_bond_atom_site_label_2
_geom_bond_distance
_geom_bond_site_symmetry_2
Li0 O3 2.146288 1_545
Li0 O4 2.146288 1_655
Li0 O3 2.146288 1_455
Li0 O4 2.146288 1_565
Li0 O1 2.152117 1_555
Li0 O5 2.152117 1_555
Li1 O2 2.053418 1_555
Li1 O0 2.144913 1_544
Li1 O0 2.144913 1_454
Li1 O5 2.158757 1_545
Li1 O5 2.158757 1_455
Li1 O3 2.186866 1_445
Li2 O0 2.053418 1_555
Li2 O2 2.144913 1_656
Li2 O2 2.144913 1_566
Li2 O1 2.158757 1_565
Li2 O1 2.158757 1_655
Li2 O4 2.186866 1_665
Fe0 O4 2.036109 1_564
Fe0 O3 2.036109 1_455
Fe0 O4 2.036109 1_654
Fe0 O3 2.036109 1_545
Fe0 O0 2.067352 1_554
Fe0 O2 2.067352 1_555
Cu0 O1 2.014346 1_555
Cu0 O5 2.027759 1_545
Cu0 O5 2.027759 1_455
Cu0 O0 2.034713 1_545
Cu0 O0 2.034713 1_455
Cu0 O4 2.060947 1_555
Cu1 O5 2.014346 1_555
Cu1 O1 2.027759 1_565
Cu1 O1 2.027759 1_655
Cu1 O2 2.034713 1_655
Cu1 O2 2.034713 1_565
Cu1 O3 2.060947 1_555
