# generated using pymatgen
data_FeOF
_symmetry_space_group_name_H-M   'P 1'
_cell_length_a   4.67637500
_cell_length_b   5.62835951
_cell_length_c   7.88812583
_cell_angle_alpha   85.44725934
_cell_angle_beta   88.72288264
_cell_angle_gamma   88.25721812
_symmetry_Int_Tables_number   1
_chemical_formula_structural   FeOF
_chemical_formula_sum   'Fe6 O6 F6'
_cell_volume   206.82600467
_cell_formula_units_Z   6
loop_
 _symmetry_equiv_pos_site_id
 _symmetry_equiv_pos_as_xyz
  1  'x, y, z'
loop_
 _atom_site_type_symbol
 _atom_site_label
 _atom_site_symmetry_multiplicity
 _atom_site_fract_x
 _atom_site_fract_y
 _atom_site_fract_z
 _atom_site_occupancy
  Fe  Fe0  1  0.50000000  0.50000000  0.00000000  1
  Fe  Fe1  1  0.47604200  0.17636900  0.35539800  1
  Fe  Fe2  1  0.52395800  0.82363100  0.64460200  1
  Fe  Fe3  1  0.02270200  0.34194600  0.68992400  1
  Fe  Fe4  1  0.97729800  0.65805400  0.31007600  1
  Fe  Fe5  1  0.00000000  0.00000000  0.00000000  1
  O  O0  1  0.80574800  0.71221300  0.08865000  1
  O  O1  1  0.69076100  0.53514600  0.76539500  1
  O  O2  1  0.70202500  0.87410700  0.42448000  1
  O  O3  1  0.29797500  0.12589300  0.57552000  1
  O  O4  1  0.30923900  0.46485400  0.23460500  1
  O  O5  1  0.19425200  0.28778700  0.91135000  1
  F  F0  1  0.80791900  0.36860800  0.43918400  1
  F  F1  1  0.79679900  0.03520600  0.77380100  1
  F  F2  1  0.70196200  0.20089900  0.11177100  1
  F  F3  1  0.29803800  0.79910100  0.88822900  1
  F  F4  1  0.20320100  0.96479400  0.22619900  1
  F  F5  1  0.19208100  0.63139200  0.56081600  1
loop_
_geom_bond_atom_site_label_1
_geom_bond_atom_site_label_2
_geom_bond_distance
_geom_bond_site_symmetry_2
Fe0 O1 2.034366 1_554
Fe0 O4 2.034366 1_555
Fe0 O5 2.059359 1_554
Fe0 O0 2.059359 1_555
Fe1 O3 1.913283 1_555
Fe1 O4 1.965506 1_555
Fe1 O2 2.019181 1_545
Fe2 O2 1.913283 1_555
Fe2 O1 1.965506 1_555
Fe2 O3 2.019181 1_565
Fe3 O5 1.936568 1_555
Fe3 O1 1.976191 1_455
Fe3 O3 1.994343 1_555
Fe4 O0 1.936568 1_555
Fe4 O4 1.976191 1_655
Fe4 O2 1.994343 1_555
Fe5 O0 1.954276 1_445
Fe5 O5 1.954276 1_554
F0 Fe4 2.024277 1_555
F0 Fe1 2.068222 1_555
F0 Fe3 2.230601 1_655
F1 Fe5 2.033200 1_656
F1 Fe2 2.104205 1_545
F1 Fe3 2.105421 1_655
F2 Fe5 2.001505 1_655
F2 Fe0 2.051365 1_555
F2 Fe1 2.169017 1_555
F3 Fe5 2.001505 1_566
F3 Fe0 2.051365 1_556
F3 Fe2 2.169017 1_555
F4 Fe5 2.033200 1_565
F4 Fe1 2.104205 1_565
F4 Fe4 2.105421 1_455
F5 Fe3 2.024277 1_555
F5 Fe2 2.068222 1_555
F5 Fe4 2.230601 1_455
