# generated using pymatgen
data_Li5Fe8(BO3)8
_symmetry_space_group_name_H-M   'P 1'
_cell_length_a   5.25618800
_cell_length_b   9.08572401
_cell_length_c   11.36921649
_cell_angle_alpha   113.29222810
_cell_angle_beta   102.85744954
_cell_angle_gamma   89.91080603
_symmetry_Int_Tables_number   1
_chemical_formula_structural   Li5Fe8(BO3)8
_chemical_formula_sum   'Li5 Fe8 B8 O24'
_cell_volume   483.92657952
_cell_formula_units_Z   1
loop_
 _symmetry_equiv_pos_site_id
 _symmetry_equiv_pos_as_xyz
  1  'x, y, z'
loop_
 _atom_site_type_symbol
 _atom_site_label
 _atom_site_symmetry_multiplicity
 _atom_site_fract_x
 _atom_site_fract_y
 _atom_site_fract_z
 _atom_site_occupancy
  Li  Li0  1  0.16756900  0.84121600  0.66201300  1
  Li  Li1  1  0.60763100  0.94354900  0.90425800  1
  Li  Li2  1  0.92837300  0.57374400  0.16651100  1
  Li  Li3  1  0.67647400  0.34585000  0.66341200  1
  Li  Li4  1  0.42481600  0.06726000  0.16625400  1
  Fe  Fe0  1  0.39968700  0.71854100  0.12993700  1
  Fe  Fe1  1  0.09115000  0.76145800  0.87937100  1
  Fe  Fe2  1  0.84595000  0.86123400  0.38184400  1
  Fe  Fe3  1  0.64947900  0.65722000  0.62529400  1
  Fe  Fe4  1  0.34908200  0.35979900  0.38336600  1
  Fe  Fe5  1  0.14998700  0.16159800  0.62974500  1
  Fe  Fe6  1  0.90921300  0.22076900  0.13052200  1
  Fe  Fe7  1  0.59774800  0.27673400  0.88052600  1
  B  B0  1  0.64892000  0.98716100  0.63245600  1
  B  B1  1  0.89969900  0.89565500  0.12949900  1
  B  B2  1  0.14352800  0.48364800  0.62446100  1
  B  B3  1  0.39954600  0.39215600  0.12802400  1
  B  B4  1  0.84754800  0.51964000  0.37448100  1
  B  B5  1  0.59229400  0.60741400  0.87629700  1
  B  B6  1  0.34693100  0.01955300  0.37637000  1
  B  B7  1  0.10733000  0.10311500  0.87570200  1
  O  O0  1  0.14066200  0.88427300  0.09913900  1
  O  O1  1  0.47716600  0.88144100  0.34291900  1
  O  O2  1  0.22297100  0.96706300  0.86688500  1
  O  O3  1  0.51380200  0.86609500  0.64079700  1
  O  O4  1  0.88064100  0.96099800  0.58672400  1
  O  O5  1  0.81143700  0.78848900  0.17664600  1
  O  O6  1  0.25921800  0.51829200  0.13201900  1
  O  O7  1  0.05814900  0.63684300  0.66124800  1
  O  O8  1  0.70141000  0.71727100  0.83800000  1
  O  O9  1  0.62535200  0.52107600  0.41995200  1
  O  O10  1  0.93754500  0.65114900  0.35967300  1
  O  O11  1  0.38310900  0.64645300  0.93120400  1
  O  O12  1  0.63414800  0.37327900  0.08242800  1
  O  O13  1  0.38219300  0.45756400  0.58285100  1
  O  O14  1  0.31855900  0.27772300  0.17009200  1
  O  O15  1  0.97850500  0.38095300  0.33739600  1
  O  O16  1  0.69491700  0.46177900  0.85545000  1
  O  O17  1  0.22438900  0.21534500  0.84307200  1
  O  O18  1  0.12634400  0.02362900  0.42446600  1
  O  O19  1  0.43866900  0.14952900  0.36016500  1
  O  O20  1  0.00673500  0.35986200  0.62859000  1
  O  O21  1  0.74215900  0.01072900  0.10934500  1
  O  O22  1  0.56470900  0.14316200  0.67352700  1
  O  O23  1  0.86645200  0.13224100  0.91341800  1
loop_
_geom_bond_atom_site_label_1
_geom_bond_atom_site_label_2
_geom_bond_distance
_geom_bond_site_symmetry_2
Li0 O3 1.913362 1_555
Li0 O7 1.940920 1_555
Li0 O4 2.085351 1_455
Li0 O2 2.100109 1_555
Li1 O8 1.993607 1_555
Li1 O2 2.000537 1_555
Li1 O21 2.109815 1_566
Li1 O23 2.145636 1_565
Li2 O6 1.891085 1_655
Li2 O5 2.011937 1_555
Li2 O10 2.012793 1_555
Li2 O12 2.144002 1_555
Li3 O20 1.879561 1_655
Li3 O22 1.987617 1_555
Li3 O16 1.993279 1_555
Li3 O13 2.088423 1_555
Li4 O21 1.918212 1_555
Li4 O14 1.977855 1_555
Li4 O19 2.012425 1_555
Li4 O0 2.018506 1_545
Fe0 O6 1.975337 1_555
Fe0 O11 2.069748 1_554
Fe0 O0 2.107626 1_555
Fe0 O5 2.143758 1_555
Fe0 O1 2.224527 1_555
Fe1 O11 1.968139 1_555
Fe1 O8 2.000838 1_455
Fe1 O2 2.060931 1_555
Fe1 O7 2.247334 1_555
Fe1 O0 2.249979 1_556
Fe2 O10 1.899838 1_555
Fe2 O1 1.915283 1_555
Fe2 O18 1.925469 1_665
Fe2 O4 2.102937 1_555
Fe2 O5 2.122488 1_555
Fe3 O3 1.982021 1_555
Fe3 O7 2.117381 1_655
Fe3 O13 2.123967 1_555
Fe3 O9 2.140411 1_555
Fe3 O8 2.209884 1_555
Fe4 O19 1.896074 1_555
Fe4 O9 1.919539 1_555
Fe4 O15 1.931143 1_455
Fe4 O13 2.048091 1_555
Fe4 O14 2.204209 1_555
Fe5 O20 1.955031 1_555
Fe5 O4 2.135472 1_445
Fe5 O18 2.142766 1_555
Fe5 O22 2.146974 1_555
Fe5 O17 2.217113 1_555
Fe6 O21 2.004642 1_555
Fe6 O14 2.118516 1_655
Fe6 O12 2.133187 1_555
Fe6 O15 2.167023 1_555
Fe6 O23 2.230147 1_554
Fe7 O16 1.901404 1_555
Fe7 O17 1.946094 1_555
Fe7 O23 2.001382 1_555
Fe7 O12 2.070723 1_556
Fe7 O22 2.145131 1_555
B0 O3 1.355811 1_555
B0 O22 1.410514 1_565
B0 O4 1.411907 1_555
B1 O0 1.378370 1_655
B1 O21 1.390555 1_565
B1 O5 1.405501 1_555
B2 O20 1.357715 1_555
B2 O7 1.390997 1_555
B2 O13 1.424142 1_555
B3 O6 1.353002 1_555
B3 O14 1.405774 1_555
B3 O12 1.425564 1_555
B4 O10 1.369700 1_555
B4 O9 1.376501 1_555
B4 O15 1.394869 1_555
B5 O11 1.361463 1_555
B5 O16 1.380089 1_555
B5 O8 1.404066 1_555
B6 O19 1.369093 1_555
B6 O18 1.382284 1_555
B6 O1 1.386956 1_545
B7 O2 1.354367 1_545
B7 O17 1.399525 1_555
B7 O23 1.416950 1_455
