# generated using pymatgen
data_Rb3HoO3
_symmetry_space_group_name_H-M   'P 1'
_cell_length_a   7.20335289
_cell_length_b   7.20335289
_cell_length_c   7.19284919
_cell_angle_alpha   85.14949408
_cell_angle_beta   85.14949408
_cell_angle_gamma   115.89868231
_symmetry_Int_Tables_number   1
_chemical_formula_structural   Rb3HoO3
_chemical_formula_sum   'Rb6 Ho2 O6'
_cell_volume   331.45145337
_cell_formula_units_Z   2
loop_
 _symmetry_equiv_pos_site_id
 _symmetry_equiv_pos_as_xyz
  1  'x, y, z'
loop_
 _atom_site_type_symbol
 _atom_site_label
 _atom_site_symmetry_multiplicity
 _atom_site_fract_x
 _atom_site_fract_y
 _atom_site_fract_z
 _atom_site_occupancy
  Rb  Rb0  1  0.63931154  0.63931154  0.63887715  1
  Rb  Rb1  1  0.20455974  0.79544026  0.50000000  1
  Rb  Rb2  1  0.79544026  0.20455974  0.50000000  1
  Rb  Rb3  1  0.74111584  0.25888416  0.00000000  1
  Rb  Rb4  1  0.25888416  0.74111584  0.00000000  1
  Rb  Rb5  1  0.36068846  0.36068846  0.36112285  1
  Ho  Ho0  1  0.82155884  0.82155884  0.14869733  1
  Ho  Ho1  1  0.17844116  0.17844116  0.85130267  1
  O  O0  1  0.89769407  0.89769407  0.84383723  1
  O  O1  1  0.83237111  0.55225312  0.26874730  1
  O  O2  1  0.55225312  0.83237111  0.26874730  1
  O  O3  1  0.44774688  0.16762889  0.73125270  1
  O  O4  1  0.16762889  0.44774688  0.73125270  1
  O  O5  1  0.10230593  0.10230593  0.15616277  1
loop_
_geom_bond_atom_site_label_1
_geom_bond_atom_site_label_2
_geom_bond_distance
_geom_bond_site_symmetry_2
Ho0 O2 2.091651 1_555
Ho0 O1 2.091651 1_555
Ho0 O5 2.155573 1_665
Ho0 O0 2.177265 1_554
Ho1 O3 2.091651 1_555
Ho1 O4 2.091651 1_555
Ho1 O0 2.155573 1_445
Ho1 O5 2.177265 1_556
O0 Rb0 2.646431 1_555
O1 Rb2 2.783699 1_555
O1 Rb3 2.885625 1_555
O1 Rb5 3.042603 1_555
O1 Rb0 3.135777 1_555
O1 Rb4 3.150612 1_655
O1 Rb1 3.188651 1_655
O2 Rb1 2.783699 1_555
O2 Rb4 2.885625 1_555
O2 Rb5 3.042603 1_555
O2 Rb0 3.135777 1_555
O2 Rb3 3.150612 1_565
O2 Rb2 3.188651 1_565
O3 Rb2 2.783699 1_555
O3 Rb3 2.885625 1_556
O3 Rb0 3.042603 1_555
O3 Rb5 3.135777 1_555
O3 Rb4 3.150612 1_546
O3 Rb1 3.188651 1_545
O4 Rb1 2.783699 1_555
O4 Rb4 2.885625 1_556
O4 Rb0 3.042603 1_555
O4 Rb5 3.135777 1_555
O4 Rb3 3.150612 1_456
O4 Rb2 3.188651 1_455
O5 Rb5 2.646431 1_555
