# generated using pymatgen
data_Co6O5F7
_symmetry_space_group_name_H-M   'P 1'
_cell_length_a   4.66867600
_cell_length_b   5.58399647
_cell_length_c   7.63470965
_cell_angle_alpha   85.68661977
_cell_angle_beta   87.16076181
_cell_angle_gamma   86.81202460
_symmetry_Int_Tables_number   1
_chemical_formula_structural   Co6O5F7
_chemical_formula_sum   'Co6 O5 F7'
_cell_volume   197.95930924
_cell_formula_units_Z   1
loop_
 _symmetry_equiv_pos_site_id
 _symmetry_equiv_pos_as_xyz
  1  'x, y, z'
loop_
 _atom_site_type_symbol
 _atom_site_label
 _atom_site_symmetry_multiplicity
 _atom_site_fract_x
 _atom_site_fract_y
 _atom_site_fract_z
 _atom_site_occupancy
  Co  Co0  1  0.50857600  0.48900800  0.99941100  1
  Co  Co1  1  0.48918900  0.17462700  0.33118200  1
  Co  Co2  1  0.53054600  0.85389700  0.67852300  1
  Co  Co3  1  0.99712400  0.32519500  0.66664000  1
  Co  Co4  1  0.02697400  0.65513600  0.32880500  1
  Co  Co5  1  0.95919000  0.01261200  0.00019800  1
  O  O0  1  0.79798200  0.03262700  0.76817300  1
  O  O1  1  0.69806300  0.53073100  0.77546300  1
  O  O2  1  0.68665300  0.20114200  0.10386400  1
  O  O3  1  0.29959800  0.14053900  0.55985200  1
  O  O4  1  0.32186400  0.45510700  0.22414900  1
  F  F0  1  0.80747300  0.36920400  0.43452500  1
  F  F1  1  0.80247300  0.70320700  0.10023500  1
  F  F2  1  0.69337500  0.87266300  0.42546900  1
  F  F3  1  0.29285100  0.79252200  0.90828900  1
  F  F4  1  0.19062500  0.96452500  0.22364700  1
  F  F5  1  0.19428400  0.28856500  0.90000800  1
  F  F6  1  0.20316000  0.63869200  0.57156800  1
loop_
_geom_bond_atom_site_label_1
_geom_bond_atom_site_label_2
_geom_bond_distance
_geom_bond_site_symmetry_2
Co0 O4 1.887066 1_556
Co0 O1 1.890341 1_555
Co0 O2 1.906632 1_556
Co0 F3 2.018157 1_555
Co0 F1 2.081228 1_556
Co0 F5 2.098221 1_555
Co1 O4 1.861621 1_555
Co1 O3 1.919189 1_555
Co1 O2 1.924012 1_555
Co1 F2 1.994168 1_545
Co1 F4 2.105602 1_545
Co1 F0 2.106133 1_555
Co2 O0 1.830158 1_565
Co2 O1 2.028624 1_555
Co2 F2 2.038231 1_555
Co2 F3 2.045766 1_555
Co2 O3 2.057198 1_565
Co2 F6 2.218696 1_555
Co3 O3 1.890114 1_655
Co3 O1 1.951214 1_555
Co3 O0 2.010300 1_555
Co3 F0 2.012595 1_555
Co3 F5 2.037221 1_655
Co3 F6 2.107986 1_655
Co4 O4 1.906750 1_555
Co4 F4 2.022477 1_555
Co4 F0 2.038899 1_455
Co4 F6 2.058457 1_555
Co4 F2 2.063087 1_455
Co4 F1 2.072514 1_455
Co5 O2 1.797288 1_555
Co5 O0 1.951895 1_554
Co5 F1 1.997598 1_545
Co5 F5 2.022833 1_654
Co5 F4 2.057020 1_645
Co5 F3 2.058611 1_644
