# generated using pymatgen
data_Li4Cu3Bi(PO4)4
_symmetry_space_group_name_H-M   'P 1'
_cell_length_a   4.82149239
_cell_length_b   10.51078493
_cell_length_c   6.25156600
_cell_angle_alpha   90.00000000
_cell_angle_beta   90.00000000
_cell_angle_gamma   87.29089133
_symmetry_Int_Tables_number   1
_chemical_formula_structural   Li4Cu3Bi(PO4)4
_chemical_formula_sum   'Li4 Cu3 Bi1 P4 O16'
_cell_volume   316.46071517
_cell_formula_units_Z   1
loop_
 _symmetry_equiv_pos_site_id
 _symmetry_equiv_pos_as_xyz
  1  'x, y, z'
loop_
 _atom_site_type_symbol
 _atom_site_label
 _atom_site_symmetry_multiplicity
 _atom_site_fract_x
 _atom_site_fract_y
 _atom_site_fract_z
 _atom_site_occupancy
  Li  Li0  1  0.01045800  0.98122800  0.99295200  1
  Li  Li1  1  0.01045800  0.98122800  0.50704800  1
  Li  Li2  1  0.49773000  0.52131100  0.50721200  1
  Li  Li3  1  0.49773000  0.52131100  0.99278800  1
  Cu  Cu0  1  0.00199700  0.72334500  0.75000000  1
  Cu  Cu1  1  0.45042400  0.20567800  0.75000000  1
  Cu  Cu2  1  0.55781800  0.78195300  0.25000000  1
  Bi  Bi0  1  0.98407400  0.28675000  0.25000000  1
  P  P0  1  0.09287900  0.60872400  0.25000000  1
  P  P1  1  0.43390000  0.07494100  0.25000000  1
  P  P2  1  0.58452000  0.90865700  0.75000000  1
  P  P3  1  0.88839400  0.41101600  0.75000000  1
  O  O0  1  0.23121900  0.46753100  0.25000000  1
  O  O1  1  0.21146800  0.67003400  0.04516400  1
  O  O2  1  0.21146800  0.67003400  0.45483600  1
  O  O3  1  0.20478600  0.38762100  0.75000000  1
  O  O4  1  0.26738400  0.91214500  0.75000000  1
  O  O5  1  0.30211700  0.14978400  0.05285300  1
  O  O6  1  0.30211700  0.14978400  0.44714700  1
  O  O7  1  0.31399700  0.94078900  0.25000000  1
  O  O8  1  0.70526400  0.04458400  0.75000000  1
  O  O9  1  0.72307900  0.83584100  0.55318900  1
  O  O10  1  0.72307900  0.83584100  0.94681100  1
  O  O11  1  0.75296100  0.07422200  0.25000000  1
  O  O12  1  0.77080400  0.60605900  0.25000000  1
  O  O13  1  0.74532400  0.34901400  0.55176800  1
  O  O14  1  0.74532400  0.34901400  0.94823200  1
  O  O15  1  0.77922700  0.55155700  0.75000000  1
loop_
_geom_bond_atom_site_label_1
_geom_bond_atom_site_label_2
_geom_bond_distance
_geom_bond_site_symmetry_2
Li0 O4 2.069687 1_555
Li0 O10 2.130357 1_455
Li0 O8 2.196122 1_465
Li0 O7 2.201368 1_556
Li0 O11 2.228081 1_466
Li0 O5 2.343500 1_566
Li1 O4 2.069687 1_555
Li1 O9 2.130357 1_455
Li1 O8 2.196122 1_465
Li1 O7 2.201368 1_555
Li1 O11 2.228081 1_465
Li1 O6 2.343500 1_565
Li2 O2 2.061994 1_555
Li2 O15 2.070670 1_555
Li2 O13 2.139615 1_555
Li2 O0 2.150572 1_555
Li2 O12 2.285481 1_555
Li2 O3 2.541820 1_555
Li3 O1 2.061994 1_556
Li3 O15 2.070670 1_555
Li3 O14 2.139615 1_555
Li3 O0 2.150572 1_556
Li3 O12 2.285481 1_556
Li3 O3 2.541820 1_555
Cu0 O10 2.137784 1_455
Cu0 O9 2.137784 1_455
Cu0 O15 2.144126 1_455
Cu0 O1 2.164581 1_556
Cu0 O2 2.164581 1_555
Cu0 O4 2.411493 1_555
Cu1 O8 2.044521 1_555
Cu1 O5 2.116784 1_556
Cu1 O6 2.116784 1_555
Cu1 O3 2.201295 1_555
Cu1 O14 2.455547 1_555
Cu1 O13 2.455547 1_555
Cu2 O7 1.995912 1_555
Cu2 O12 2.071974 1_555
Cu2 O9 2.142648 1_555
Cu2 O10 2.142648 1_554
Cu2 O2 2.449073 1_555
Cu2 O1 2.449073 1_555
Bi0 O13 2.289356 1_555
Bi0 O14 2.289356 1_554
Bi0 O0 2.290096 1_655
Bi0 O6 2.394633 1_655
Bi0 O5 2.394633 1_655
Bi0 O11 2.543032 1_555
O0 P0 1.598038 1_555
O1 P0 1.554615 1_555
O2 P0 1.554615 1_555
O3 P3 1.533656 1_455
O4 P2 1.527775 1_555
O5 P1 1.579337 1_555
O6 P1 1.579337 1_555
O7 P1 1.549029 1_565
O8 P2 1.568032 1_545
O9 P2 1.580369 1_555
O10 P2 1.580369 1_555
O11 P1 1.538012 1_555
O12 P0 1.554458 1_655
O13 P3 1.574421 1_555
O14 P3 1.574421 1_555
O15 P3 1.544555 1_555
