# generated using pymatgen
data_LiFe2(BO3)2
_symmetry_space_group_name_H-M   'P 1'
_cell_length_a   5.23980100
_cell_length_b   9.12593746
_cell_length_c   10.16698265
_cell_angle_alpha   90.60134353
_cell_angle_beta   90.23835312
_cell_angle_gamma   90.09079746
_symmetry_Int_Tables_number   1
_chemical_formula_structural   LiFe2(BO3)2
_chemical_formula_sum   'Li4 Fe8 B8 O24'
_cell_volume   486.13412704
_cell_formula_units_Z   4
loop_
 _symmetry_equiv_pos_site_id
 _symmetry_equiv_pos_as_xyz
  1  'x, y, z'
loop_
 _atom_site_type_symbol
 _atom_site_label
 _atom_site_symmetry_multiplicity
 _atom_site_fract_x
 _atom_site_fract_y
 _atom_site_fract_z
 _atom_site_occupancy
  Li  Li0  1  0.84697000  0.82587600  0.65643800  1
  Li  Li1  1  0.66686500  0.67204500  0.38224200  1
  Li  Li2  1  0.34305800  0.32160700  0.66748000  1
  Li  Li3  1  0.31411200  0.32819200  0.16315100  1
  Fe  Fe0  1  0.85143200  0.15681300  0.62618500  1
  Fe  Fe1  1  0.82214500  0.50920000  0.12621500  1
  Fe  Fe2  1  0.66741300  0.00769100  0.87898000  1
  Fe  Fe3  1  0.68014700  0.33206700  0.37981500  1
  Fe  Fe4  1  0.34499600  0.66075200  0.62932100  1
  Fe  Fe5  1  0.32450200  0.98840800  0.12932800  1
  Fe  Fe6  1  0.15127300  0.84887700  0.38143300  1
  Fe  Fe7  1  0.16897100  0.50871600  0.88210000  1
  B  B0  1  0.83762800  0.49688300  0.62362600  1
  B  B1  1  0.82970400  0.16667500  0.12956300  1
  B  B2  1  0.65509600  0.00062900  0.37647800  1
  B  B3  1  0.67337000  0.33722500  0.87326900  1
  B  B4  1  0.33699000  0.99678500  0.63425100  1
  B  B5  1  0.33520600  0.66776500  0.13321600  1
  B  B6  1  0.18090500  0.50644100  0.37634900  1
  B  B7  1  0.16841800  0.83564200  0.87776500  1
  O  O0  1  0.91657000  0.49805400  0.35151700  1
  O  O1  1  0.91894000  0.86122100  0.85363300  1
  O  O2  1  0.77779500  0.20379000  0.83546400  1
  O  O3  1  0.76209900  0.13210500  0.42114800  1
  O  O4  1  0.77981700  0.87174800  0.39691100  1
  O  O5  1  0.82694600  0.44757600  0.92411700  1
  O  O6  1  0.72182700  0.63131600  0.61325000  1
  O  O7  1  0.67485200  0.05575900  0.07605300  1
  O  O8  1  0.70498900  0.36934200  0.58281200  1
  O  O9  1  0.70538000  0.29228800  0.17821300  1
  O  O10  1  0.58575100  0.66582800  0.15979600  1
  O  O11  1  0.59152400  0.98424800  0.67946900  1
  O  O12  1  0.41490500  0.00221200  0.31769100  1
  O  O13  1  0.41722800  0.35997600  0.85638300  1
  O  O14  1  0.27855700  0.70334100  0.84005500  1
  O  O15  1  0.28704800  0.63711700  0.41963200  1
  O  O16  1  0.32921600  0.38481600  0.35261400  1
  O  O17  1  0.32590200  0.94433800  0.93233700  1
  O  O18  1  0.20862100  0.53942300  0.08304900  1
  O  O19  1  0.22405500  0.13093800  0.63040500  1
  O  O20  1  0.20888900  0.87068100  0.59405700  1
  O  O21  1  0.18758000  0.79297300  0.15846400  1
  O  O22  1  0.08883500  0.15442700  0.13156000  1
  O  O23  1  0.08699000  0.48415200  0.67303700  1
loop_
_geom_bond_atom_site_label_1
_geom_bond_atom_site_label_2
_geom_bond_distance
_geom_bond_site_symmetry_2
Li0 O6 1.937234 1_555
Li0 O11 1.984158 1_555
Li0 O20 2.044186 1_655
Li0 O1 2.060471 1_555
Li1 O4 1.919398 1_555
Li1 O15 2.052729 1_555
Li1 O0 2.080934 1_555
Li1 O10 2.299554 1_555
Li1 O6 2.397979 1_555
Li2 O19 1.881344 1_555
Li2 O13 1.985319 1_555
Li2 O23 2.002263 1_555
Li2 O8 2.132164 1_555
Li3 O16 1.990353 1_555
Li3 O22 1.997850 1_555
Li3 O9 2.081961 1_555
Li3 O18 2.171938 1_555
Fe0 O19 1.967414 1_655
Fe0 O8 2.136556 1_555
Fe0 O3 2.144112 1_555
Fe0 O11 2.155332 1_545
Fe0 O2 2.201848 1_555
Fe1 O10 1.921677 1_555
Fe1 O18 2.092295 1_655
Fe1 O5 2.124858 1_554
Fe1 O9 2.143165 1_555
Fe1 O0 2.344739 1_555
Fe2 O1 1.895069 1_545
Fe2 O2 1.936067 1_555
Fe2 O17 1.960117 1_545
Fe2 O7 2.046792 1_556
Fe2 O11 2.074201 1_545
Fe3 O16 1.921145 1_555
Fe3 O3 1.925646 1_555
Fe3 O0 1.979436 1_555
Fe3 O9 2.082608 1_555
Fe3 O8 2.091672 1_555
Fe4 O6 2.000258 1_555
Fe4 O20 2.079439 1_555
Fe4 O23 2.153066 1_555
Fe4 O15 2.160669 1_555
Fe4 O14 2.202689 1_555
Fe5 O21 1.947370 1_555
Fe5 O22 1.956086 1_565
Fe5 O12 1.973575 1_565
Fe5 O7 2.013176 1_565
Fe5 O17 2.038689 1_554
Fe6 O4 1.964631 1_455
Fe6 O12 2.075250 1_565
Fe6 O15 2.099850 1_555
Fe6 O20 2.188430 1_555
Fe6 O21 2.327021 1_555
Fe7 O13 1.898415 1_555
Fe7 O14 1.918815 1_555
Fe7 O5 1.927119 1_455
Fe7 O18 2.068814 1_556
Fe7 O23 2.175958 1_555
B0 O6 1.374391 1_555
B0 O23 1.403329 1_655
B0 O8 1.412392 1_555
B1 O22 1.362649 1_655
B1 O7 1.400383 1_555
B1 O9 1.405792 1_555
B2 O4 1.363827 1_545
B2 O12 1.391177 1_555
B2 O3 1.394470 1_555
B3 O13 1.368801 1_555
B3 O5 1.382757 1_555
B3 O2 1.387084 1_555
B4 O19 1.361490 1_565
B4 O20 1.388278 1_555
B4 O11 1.414109 1_555
B5 O10 1.339411 1_555
B5 O21 1.402914 1_555
B5 O18 1.433205 1_555
B6 O16 1.375788 1_555
B6 O15 1.382018 1_555
B6 O0 1.408668 1_455
B7 O1 1.350185 1_455
B7 O14 1.390008 1_555
B7 O17 1.398136 1_555
