# generated using pymatgen
data_Lu4Al2O9
_symmetry_space_group_name_H-M   'P 1'
_cell_length_a   10.33590100
_cell_length_b   7.21866600
_cell_length_c   11.05872428
_cell_angle_alpha   71.88893990
_cell_angle_beta   90.00000000
_cell_angle_gamma   90.00000000
_symmetry_Int_Tables_number   1
_chemical_formula_structural   Lu4Al2O9
_chemical_formula_sum   'Lu16 Al8 O36'
_cell_volume   784.22777227
_cell_formula_units_Z   4
loop_
 _symmetry_equiv_pos_site_id
 _symmetry_equiv_pos_as_xyz
  1  'x, y, z'
loop_
 _atom_site_type_symbol
 _atom_site_label
 _atom_site_symmetry_multiplicity
 _atom_site_fract_x
 _atom_site_fract_y
 _atom_site_fract_z
 _atom_site_occupancy
  Lu  Lu0  1  0.90121500  0.97849000  0.80374700  1
  Lu  Lu1  1  0.59878500  0.97849000  0.30374700  1
  Lu  Lu2  1  0.12121500  0.83829500  0.58425000  1
  Lu  Lu3  1  0.62597700  0.65993400  0.93845700  1
  Lu  Lu4  1  0.37878500  0.83829500  0.08425000  1
  Lu  Lu5  1  0.87402300  0.65993400  0.43845700  1
  Lu  Lu6  1  0.38776000  0.52315800  0.71753700  1
  Lu  Lu7  1  0.88776000  0.47684200  0.78246300  1
  Lu  Lu8  1  0.11224000  0.52315800  0.21753700  1
  Lu  Lu9  1  0.61224000  0.47684200  0.28246300  1
  Lu  Lu10  1  0.12597700  0.34006600  0.56154300  1
  Lu  Lu11  1  0.62121500  0.16170500  0.91575000  1
  Lu  Lu12  1  0.37402300  0.34006600  0.06154300  1
  Lu  Lu13  1  0.87878500  0.16170500  0.41575000  1
  Lu  Lu14  1  0.40121500  0.02151000  0.69625300  1
  Lu  Lu15  1  0.09878500  0.02151000  0.19625300  1
  Al  Al0  1  0.17441300  0.65576400  0.88893200  1
  Al  Al1  1  0.67765800  0.78653300  0.62691400  1
  Al  Al2  1  0.32558700  0.65576400  0.38893200  1
  Al  Al3  1  0.82234200  0.78653300  0.12691400  1
  Al  Al4  1  0.17765800  0.21346700  0.87308600  1
  Al  Al5  1  0.67441300  0.34423600  0.61106800  1
  Al  Al6  1  0.32234200  0.21346700  0.37308600  1
  Al  Al7  1  0.82558700  0.34423600  0.11106800  1
  O  O0  1  0.76622000  0.93201300  0.97836500  1
  O  O1  1  0.49292000  0.92230900  0.89301700  1
  O  O2  1  0.73378000  0.93201300  0.47836500  1
  O  O3  1  0.75882000  0.76740800  0.77161900  1
  O  O4  1  0.25975000  0.79201700  0.75225000  1
  O  O5  1  0.00708000  0.92230900  0.39301700  1
  O  O6  1  0.51193900  0.78839100  0.65431500  1
  O  O7  1  0.01212100  0.69571200  0.84063400  1
  O  O8  1  0.26986400  0.63888100  0.54236100  1
  O  O9  1  0.74118000  0.76740800  0.27161900  1
  O  O10  1  0.24025000  0.79201700  0.25225000  1
  O  O11  1  0.50813000  0.43615400  0.89186800  1
  O  O12  1  0.74335600  0.56806000  0.61307700  1
  O  O13  1  0.98806100  0.78839100  0.15431500  1
  O  O14  1  0.24335600  0.43194000  0.88692300  1
  O  O15  1  0.00813000  0.56384600  0.60813200  1
  O  O16  1  0.48787900  0.69571200  0.34063400  1
  O  O17  1  0.76986400  0.36111900  0.95763900  1
  O  O18  1  0.23013600  0.63888100  0.04236100  1
  O  O19  1  0.51212100  0.30428800  0.65936600  1
  O  O20  1  0.99187000  0.43615400  0.39186800  1
  O  O21  1  0.75664400  0.56806000  0.11307700  1
  O  O22  1  0.01193900  0.21160900  0.84568500  1
  O  O23  1  0.25664400  0.43194000  0.38692300  1
  O  O24  1  0.49187000  0.56384600  0.10813200  1
  O  O25  1  0.75975000  0.20798300  0.74775000  1
  O  O26  1  0.25882000  0.23259200  0.72838100  1
  O  O27  1  0.73013600  0.36111900  0.45763900  1
  O  O28  1  0.98787900  0.30428800  0.15936600  1
  O  O29  1  0.48806100  0.21160900  0.34568500  1
  O  O30  1  0.99292000  0.07769100  0.60698300  1
  O  O31  1  0.74025000  0.20798300  0.24775000  1
  O  O32  1  0.24118000  0.23259200  0.22838100  1
  O  O33  1  0.26622000  0.06798700  0.52163500  1
  O  O34  1  0.50708000  0.07769100  0.10698300  1
  O  O35  1  0.23378000  0.06798700  0.02163500  1
loop_
_geom_bond_atom_site_label_1
_geom_bond_atom_site_label_2
_geom_bond_distance
_geom_bond_site_symmetry_2
Lu0 O25 2.151287 1_565
Lu0 O22 2.200428 1_665
Lu0 O3 2.225019 1_555
Lu0 O7 2.264854 1_655
Lu0 O30 2.275359 1_565
Lu0 O0 2.320685 1_555
Lu1 O31 2.151287 1_565
Lu1 O29 2.200428 1_565
Lu1 O9 2.225019 1_555
Lu1 O16 2.264854 1_555
Lu1 O34 2.275359 1_565
Lu1 O2 2.320685 1_555
Lu2 O33 2.182003 1_565
Lu2 O15 2.244015 1_555
Lu2 O8 2.249874 1_555
Lu2 O30 2.253463 1_465
Lu2 O4 2.286414 1_555
Lu2 O5 2.331186 1_555
Lu3 O11 2.208176 1_555
Lu3 O3 2.236363 1_555
Lu3 O24 2.261437 1_556
Lu3 O1 2.267018 1_555
Lu3 O21 2.279621 1_556
Lu3 O17 2.573933 1_555
Lu3 O0 2.586952 1_555
Lu4 O35 2.182003 1_565
Lu4 O24 2.244015 1_555
Lu4 O18 2.249874 1_555
Lu4 O34 2.253463 1_565
Lu4 O10 2.286414 1_555
Lu4 O1 2.331186 1_554
Lu5 O20 2.208176 1_555
Lu5 O9 2.236363 1_555
Lu5 O15 2.261437 1_655
Lu5 O5 2.267018 1_655
Lu5 O12 2.279621 1_555
Lu5 O27 2.573933 1_555
Lu5 O2 2.586952 1_555
Lu6 O11 2.215005 1_555
Lu6 O8 2.220234 1_555
Lu6 O6 2.229293 1_555
Lu6 O19 2.279075 1_555
Lu6 O14 2.324494 1_555
Lu6 O26 2.456342 1_555
Lu6 O4 2.475455 1_555
Lu7 O15 2.215005 1_655
Lu7 O17 2.220234 1_555
Lu7 O22 2.229293 1_655
Lu7 O7 2.279075 1_655
Lu7 O12 2.324494 1_555
Lu7 O3 2.456342 1_555
Lu7 O25 2.475455 1_555
Lu8 O20 2.215005 1_455
Lu8 O18 2.220234 1_555
Lu8 O13 2.229293 1_455
Lu8 O28 2.279075 1_455
Lu8 O23 2.324494 1_555
Lu8 O32 2.456342 1_555
Lu8 O10 2.475455 1_555
Lu9 O24 2.215005 1_555
Lu9 O27 2.220234 1_555
Lu9 O29 2.229293 1_555
Lu9 O16 2.279075 1_555
Lu9 O21 2.324494 1_555
Lu9 O9 2.456342 1_555
Lu9 O31 2.475455 1_555
Lu10 O15 2.208176 1_555
Lu10 O26 2.236363 1_555
Lu10 O20 2.261437 1_455
Lu10 O30 2.267018 1_455
Lu10 O23 2.279621 1_555
Lu10 O8 2.573933 1_555
Lu10 O33 2.586952 1_555
Lu11 O0 2.182003 1_545
Lu11 O11 2.244015 1_555
Lu11 O17 2.249874 1_555
Lu11 O1 2.253463 1_545
Lu11 O25 2.286414 1_555
Lu11 O34 2.331186 1_556
Lu12 O24 2.208176 1_555
Lu12 O32 2.236363 1_555
Lu12 O11 2.261437 1_554
Lu12 O34 2.267018 1_555
Lu12 O14 2.279621 1_554
Lu12 O18 2.573933 1_555
Lu12 O35 2.586952 1_555
Lu13 O2 2.182003 1_545
Lu13 O20 2.244015 1_555
Lu13 O27 2.249874 1_555
Lu13 O5 2.253463 1_645
Lu13 O31 2.286414 1_555
Lu13 O30 2.331186 1_555
Lu14 O4 2.151287 1_545
Lu14 O6 2.200428 1_545
Lu14 O26 2.225019 1_555
Lu14 O19 2.264854 1_555
Lu14 O1 2.275359 1_545
Lu14 O33 2.320685 1_555
Lu15 O10 2.151287 1_545
Lu15 O13 2.200428 1_445
Lu15 O32 2.225019 1_555
Lu15 O28 2.264854 1_455
Lu15 O5 2.275359 1_545
Lu15 O35 2.320685 1_555
Al0 O7 1.756833 1_555
Al0 O18 1.759800 1_556
Al0 O4 1.762328 1_555
Al0 O14 1.772319 1_555
Al1 O6 1.740230 1_555
Al1 O2 1.750837 1_555
Al1 O12 1.766848 1_555
Al1 O3 1.773764 1_555
Al2 O16 1.756833 1_555
Al2 O8 1.759800 1_555
Al2 O10 1.762328 1_555
Al2 O23 1.772319 1_555
Al3 O13 1.740230 1_555
Al3 O0 1.750837 1_554
Al3 O21 1.766848 1_555
Al3 O9 1.773764 1_555
Al4 O22 1.740230 1_555
Al4 O35 1.750837 1_556
Al4 O14 1.766848 1_555
Al4 O26 1.773764 1_555
Al5 O19 1.756833 1_555
Al5 O27 1.759800 1_555
Al5 O25 1.762328 1_555
Al5 O12 1.772319 1_555
Al6 O29 1.740230 1_555
Al6 O33 1.750837 1_555
Al6 O23 1.766848 1_555
Al6 O32 1.773764 1_555
Al7 O28 1.756833 1_555
Al7 O17 1.759800 1_554
Al7 O31 1.762328 1_555
Al7 O21 1.772319 1_555
