# generated using pymatgen
data_Rb2ZrO3
_symmetry_space_group_name_H-M   'P 1'
_cell_length_a   7.01970230
_cell_length_b   7.01970230
_cell_length_c   13.93868600
_cell_angle_alpha   90.00000000
_cell_angle_beta   90.00000000
_cell_angle_gamma   125.15214240
_symmetry_Int_Tables_number   1
_chemical_formula_structural   Rb2ZrO3
_chemical_formula_sum   'Rb8 Zr4 O12'
_cell_volume   561.58301709
_cell_formula_units_Z   4
loop_
 _symmetry_equiv_pos_site_id
 _symmetry_equiv_pos_as_xyz
  1  'x, y, z'
loop_
 _atom_site_type_symbol
 _atom_site_label
 _atom_site_symmetry_multiplicity
 _atom_site_fract_x
 _atom_site_fract_y
 _atom_site_fract_z
 _atom_site_occupancy
  Rb  Rb0  1  0.94561500  0.05438500  0.13350100  1
  Rb  Rb1  1  0.87135400  0.12864600  0.57284000  1
  Rb  Rb2  1  0.44561500  0.55438500  0.36649900  1
  Rb  Rb3  1  0.62864600  0.37135400  0.07284000  1
  Rb  Rb4  1  0.55438500  0.44561500  0.63350100  1
  Rb  Rb5  1  0.05438500  0.94561500  0.86649900  1
  Rb  Rb6  1  0.37135400  0.62864600  0.92716000  1
  Rb  Rb7  1  0.12864600  0.87135400  0.42716000  1
  Zr  Zr0  1  0.75458000  0.24542000  0.33298500  1
  Zr  Zr1  1  0.74542000  0.25458000  0.83298500  1
  Zr  Zr2  1  0.25458000  0.74542000  0.16701500  1
  Zr  Zr3  1  0.24542000  0.75458000  0.66701500  1
  O  O0  1  0.47033900  0.02966100  0.25000000  1
  O  O1  1  0.02966100  0.47033900  0.75000000  1
  O  O2  1  0.90719600  0.09280400  0.36605900  1
  O  O3  1  0.66289400  0.33710600  0.44648300  1
  O  O4  1  0.33710600  0.66289400  0.55351700  1
  O  O5  1  0.59280400  0.40719600  0.86605900  1
  O  O6  1  0.83710600  0.16289400  0.94648300  1
  O  O7  1  0.16289400  0.83710600  0.05351700  1
  O  O8  1  0.40719600  0.59280400  0.13394100  1
  O  O9  1  0.09280400  0.90719600  0.63394100  1
  O  O10  1  0.97033900  0.52966100  0.25000000  1
  O  O11  1  0.52966100  0.97033900  0.75000000  1
loop_
_geom_bond_atom_site_label_1
_geom_bond_atom_site_label_2
_geom_bond_distance
_geom_bond_site_symmetry_2
O0 Zr2 2.033031 1_545
O0 Zr0 2.033031 1_555
O0 Rb3 3.164911 1_555
O0 Rb7 3.164911 1_545
O1 Zr1 2.033031 1_455
O1 Zr3 2.033031 1_555
O1 Rb6 3.164911 1_555
O1 Rb1 3.164911 1_455
O2 Zr0 1.956931 1_555
O2 Rb7 2.888074 1_645
O2 Rb1 2.916658 1_555
O2 Rb2 3.268330 1_545
O2 Rb2 3.268330 1_655
O2 Rb0 3.276718 1_555
O3 Zr0 1.951465 1_555
O3 Rb2 2.928206 1_555
O3 Rb4 2.936629 1_555
O3 Rb1 3.138533 1_555
O3 Rb7 3.272219 1_655
O3 Rb7 3.272219 1_545
O4 Zr3 1.951465 1_555
O4 Rb4 2.928206 1_555
O4 Rb2 2.936629 1_555
O4 Rb7 3.138533 1_555
O4 Rb1 3.272219 1_565
O4 Rb1 3.272219 1_455
O5 Zr1 1.956931 1_555
O5 Rb6 2.888074 1_555
O5 Rb3 2.916658 1_556
O5 Rb5 3.268330 1_655
O5 Rb5 3.268330 1_545
O5 Rb4 3.276718 1_555
O6 Zr1 1.951465 1_555
O6 Rb5 2.928206 1_645
O6 Rb0 2.936629 1_556
O6 Rb3 3.138533 1_556
O6 Rb6 3.272219 1_655
O6 Rb6 3.272219 1_545
O7 Zr2 1.951465 1_555
O7 Rb0 2.928206 1_465
O7 Rb5 2.936629 1_554
O7 Rb6 3.138533 1_554
O7 Rb3 3.272219 1_565
O7 Rb3 3.272219 1_455
O8 Zr2 1.956931 1_555
O8 Rb3 2.888074 1_555
O8 Rb6 2.916658 1_554
O8 Rb0 3.268330 1_565
O8 Rb0 3.268330 1_455
O8 Rb2 3.276718 1_555
O9 Zr3 1.956931 1_555
O9 Rb1 2.888074 1_465
O9 Rb7 2.916658 1_555
O9 Rb4 3.268330 1_565
O9 Rb4 3.268330 1_455
O9 Rb5 3.276718 1_555
O10 Zr0 2.033031 1_555
O10 Zr2 2.033031 1_655
O10 Rb3 3.164911 1_555
O10 Rb7 3.164911 1_655
O11 Zr3 2.033031 1_555
O11 Zr1 2.033031 1_565
O11 Rb1 3.164911 1_565
O11 Rb6 3.164911 1_555
