# generated using pymatgen
data_Li4Ti2Mn3O10
_symmetry_space_group_name_H-M   'P 1'
_cell_length_a   6.51353200
_cell_length_b   7.88577653
_cell_length_c   7.97892205
_cell_angle_alpha   97.99869048
_cell_angle_beta   113.06139788
_cell_angle_gamma   89.40443615
_symmetry_Int_Tables_number   1
_chemical_formula_structural   Li4Ti2Mn3O10
_chemical_formula_sum   'Li8 Ti4 Mn6 O20'
_cell_volume   372.97355734
_cell_formula_units_Z   2
loop_
 _symmetry_equiv_pos_site_id
 _symmetry_equiv_pos_as_xyz
  1  'x, y, z'
loop_
 _atom_site_type_symbol
 _atom_site_label
 _atom_site_symmetry_multiplicity
 _atom_site_fract_x
 _atom_site_fract_y
 _atom_site_fract_z
 _atom_site_occupancy
  Li  Li0  1  0.59463753  0.21281898  0.76300929  1
  Li  Li1  1  0.30838569  0.08911373  0.40243845  1
  Li  Li2  1  0.75379260  0.25873249  0.48248550  1
  Li  Li3  1  0.24620740  0.74126751  0.51751450  1
  Li  Li4  1  0.69161431  0.91088627  0.59756155  1
  Li  Li5  1  0.40536247  0.78718102  0.23699071  1
  Li  Li6  1  0.81631561  0.57395001  0.39703621  1
  Li  Li7  1  0.18368439  0.42604999  0.60296379  1
  Ti  Ti0  1  0.84579101  0.94520106  0.31606980  1
  Ti  Ti1  1  0.15420899  0.05479894  0.68393020  1
  Ti  Ti2  1  0.33411727  0.43212621  0.31913609  1
  Ti  Ti3  1  0.66588273  0.56787379  0.68086391  1
  Mn  Mn0  1  0.46613698  0.14982527  0.11099951  1
  Mn  Mn1  1  0.53386302  0.85017473  0.88900049  1
  Mn  Mn2  1  -0.00000000  -0.00000000  -0.00000000  1
  Mn  Mn3  1  0.50000000  0.50000000  -0.00000000  1
  Mn  Mn4  1  0.96212137  0.64243553  0.11542174  1
  Mn  Mn5  1  0.03787863  0.35756447  0.88457826  1
  O  O0  1  0.28619844  0.95082349  0.93697314  1
  O  O1  1  0.41259101  0.98854587  0.65251592  1
  O  O2  1  0.58740899  0.01145413  0.34748408  1
  O  O3  1  0.89904686  0.13462760  0.76691188  1
  O  O4  1  0.02669309  0.14781024  0.46059826  1
  O  O5  1  0.71380156  0.04917651  0.06302686  1
  O  O6  1  0.40845827  0.63012948  0.76383069  1
  O  O7  1  0.21108586  0.21621092  0.16519647  1
  O  O8  1  0.52560393  0.65298714  0.45581790  1
  O  O9  1  0.78891414  0.78378908  0.83480353  1
  O  O10  1  0.70485497  0.71859408  0.16453098  1
  O  O11  1  0.97330691  0.85218976  0.53940174  1
  O  O12  1  0.29514503  0.28140592  0.83546902  1
  O  O13  1  0.10095314  0.86537240  0.23308812  1
  O  O14  1  0.78159664  0.44572722  0.92680983  1
  O  O15  1  0.47439607  0.34701286  0.54418210  1
  O  O16  1  0.59154173  0.36987052  0.23616931  1
  O  O17  1  0.90624928  0.47455652  0.64347676  1
  O  O18  1  0.09375072  0.52544348  0.35652324  1
  O  O19  1  0.21840336  0.55427278  0.07319017  1
loop_
_geom_bond_atom_site_label_1
_geom_bond_atom_site_label_2
_geom_bond_distance
_geom_bond_site_symmetry_2
Li0 O1 2.025289 1_545
Li0 O15 2.051201 1_555
Li0 O3 2.060131 1_555
Li0 O14 2.167019 1_555
Li0 O12 2.281853 1_555
Li1 O4 2.094219 1_555
Li1 O2 2.096853 1_555
Li1 O1 2.106945 1_545
Li1 O7 2.136425 1_555
Li1 O13 2.172587 1_545
Li1 O15 2.243193 1_555
Li2 O17 1.990005 1_555
Li2 O4 2.030676 1_655
Li2 O16 2.140192 1_555
Li2 O15 2.149185 1_555
Li2 O2 2.163800 1_555
Li2 O3 2.433082 1_555
Li3 O18 1.990005 1_555
Li3 O11 2.030676 1_455
Li3 O6 2.140192 1_555
Li3 O8 2.149185 1_555
Li3 O1 2.163800 1_555
Li3 O13 2.433082 1_555
Li4 O11 2.094219 1_555
Li4 O1 2.096853 1_555
Li4 O2 2.106945 1_565
Li4 O9 2.136425 1_555
Li4 O3 2.172587 1_565
Li4 O8 2.243193 1_555
Li5 O2 2.025289 1_565
Li5 O8 2.051201 1_555
Li5 O13 2.060131 1_555
Li5 O19 2.167019 1_555
Li5 O10 2.281853 1_555
Li6 O18 1.981213 1_655
Li6 O17 2.083484 1_555
Li6 O16 2.093514 1_555
Li6 O8 2.187211 1_555
Li6 O10 2.187735 1_555
Li6 O11 2.364997 1_555
Li7 O17 1.981213 1_455
Li7 O18 2.083484 1_555
Li7 O6 2.093514 1_555
Li7 O15 2.187211 1_555
Li7 O12 2.187735 1_555
Li7 O4 2.364997 1_555
Mn0 O16 1.893072 1_555
Mn0 O7 1.924227 1_555
Mn0 O5 1.936845 1_555
Mn0 O0 1.980203 1_544
Mn0 O2 2.182280 1_555
Mn0 O12 2.417185 1_554
Mn1 O6 1.893072 1_555
Mn1 O9 1.924227 1_555
Mn1 O0 1.936845 1_555
Mn1 O5 1.980203 1_566
Mn1 O1 2.182280 1_555
Mn1 O10 2.417185 1_556
Mn2 O9 2.130318 1_444
Mn2 O7 2.130318 1_555
Mn2 O5 2.131554 1_455
Mn2 O0 2.131554 1_544
Mn2 O3 2.143639 1_454
Mn2 O13 2.143639 1_545
Mn3 O12 2.126256 1_554
Mn3 O10 2.126256 1_555
Mn3 O16 2.145835 1_555
Mn3 O6 2.145835 1_554
Mn3 O19 2.154468 1_555
Mn3 O14 2.154468 1_554
Mn4 O13 1.923128 1_655
Mn4 O19 1.932565 1_655
Mn4 O10 1.936552 1_555
Mn4 O14 2.013836 1_554
Mn4 O18 2.114778 1_655
Mn4 O9 2.493599 1_554
Mn5 O3 1.923128 1_455
Mn5 O14 1.932565 1_455
Mn5 O12 1.936552 1_555
Mn5 O19 2.013836 1_556
Mn5 O17 2.114778 1_455
Mn5 O7 2.493599 1_556
O0 Ti1 2.138687 1_565
O1 Ti1 1.855794 1_565
O2 Ti0 1.855794 1_545
O3 Ti1 2.078772 1_655
O4 Ti1 1.895976 1_555
O4 Ti0 1.932053 1_445
O5 Ti0 2.138687 1_545
O6 Ti3 2.062218 1_555
O7 Ti2 1.930054 1_555
O8 Ti3 1.883326 1_555
O8 Ti2 2.056521 1_555
O9 Ti3 1.930054 1_555
O10 Ti0 2.015229 1_555
O11 Ti0 1.895976 1_555
O11 Ti1 1.932053 1_665
O12 Ti1 2.015229 1_555
O13 Ti0 2.078772 1_455
O14 Ti3 2.167723 1_555
O15 Ti2 1.883326 1_555
O15 Ti3 2.056521 1_555
O16 Ti2 2.062218 1_555
O17 Ti3 1.833732 1_555
O18 Ti2 1.833732 1_555
O19 Ti2 2.167723 1_555
