# generated using pymatgen
data_LiFeSiO4
_symmetry_space_group_name_H-M   'P 1'
_cell_length_a   5.21636800
_cell_length_b   7.91448200
_cell_length_c   18.91125700
_cell_angle_alpha   90.00000000
_cell_angle_beta   90.00000000
_cell_angle_gamma   90.00000000
_symmetry_Int_Tables_number   1
_chemical_formula_structural   LiFeSiO4
_chemical_formula_sum   'Li8 Fe8 Si8 O32'
_cell_volume   780.74842069
_cell_formula_units_Z   8
loop_
 _symmetry_equiv_pos_site_id
 _symmetry_equiv_pos_as_xyz
  1  'x, y, z'
loop_
 _atom_site_type_symbol
 _atom_site_label
 _atom_site_symmetry_multiplicity
 _atom_site_fract_x
 _atom_site_fract_y
 _atom_site_fract_z
 _atom_site_occupancy
  Li  Li0  1  0.45119900  0.45003800  0.54413300  1
  Li  Li1  1  0.45119900  0.95003800  0.95586700  1
  Li  Li2  1  0.29759300  0.91414500  0.76991800  1
  Li  Li3  1  0.29759300  0.41414500  0.73008200  1
  Li  Li4  1  0.95119900  0.04996200  0.04413300  1
  Li  Li5  1  0.95119900  0.54996200  0.45586700  1
  Li  Li6  1  0.79759300  0.08585500  0.23008200  1
  Li  Li7  1  0.79759300  0.58585500  0.26991800  1
  Fe  Fe0  1  0.29338700  0.52291800  0.07018900  1
  Fe  Fe1  1  0.29338700  0.02291800  0.42981100  1
  Fe  Fe2  1  0.24664500  0.34475900  0.33352400  1
  Fe  Fe3  1  0.24664500  0.84475900  0.16647600  1
  Fe  Fe4  1  0.79338700  0.97708200  0.57018900  1
  Fe  Fe5  1  0.79338700  0.47708200  0.92981100  1
  Fe  Fe6  1  0.74664500  0.15524100  0.83352400  1
  Fe  Fe7  1  0.74664500  0.65524100  0.66647600  1
  Si  Si0  1  0.23899700  0.18141600  0.17847700  1
  Si  Si1  1  0.23899700  0.68141600  0.32152300  1
  Si  Si2  1  0.23042200  0.27355400  0.93354500  1
  Si  Si3  1  0.23042200  0.77355400  0.56645500  1
  Si  Si4  1  0.73899700  0.81858400  0.82152300  1
  Si  Si5  1  0.73899700  0.31858400  0.67847700  1
  Si  Si6  1  0.73042200  0.22644600  0.43354500  1
  Si  Si7  1  0.73042200  0.72644600  0.06645500  1
  O  O0  1  0.96589800  0.45584400  0.69719900  1
  O  O1  1  0.96589800  0.95584400  0.80280100  1
  O  O2  1  0.03193700  0.69589800  0.09358600  1
  O  O3  1  0.03193700  0.19589800  0.40641400  1
  O  O4  1  0.13342300  0.94185400  0.51852900  1
  O  O5  1  0.13342300  0.44185400  0.98147100  1
  O  O6  1  0.02281800  0.30245000  0.86699400  1
  O  O7  1  0.02281800  0.80245000  0.63300600  1
  O  O8  1  0.02826300  0.04659500  0.14403900  1
  O  O9  1  0.02826300  0.54659500  0.35596100  1
  O  O10  1  0.09337400  0.75401000  0.24981800  1
  O  O11  1  0.09337400  0.25401000  0.25018200  1
  O  O12  1  0.31818000  0.33588300  0.12692400  1
  O  O13  1  0.31818000  0.83588300  0.37307600  1
  O  O14  1  0.18995100  0.60201600  0.52509000  1
  O  O15  1  0.18995100  0.10201600  0.97491000  1
  O  O16  1  0.46589800  0.04415600  0.19719900  1
  O  O17  1  0.46589800  0.54415600  0.30280100  1
  O  O18  1  0.53193700  0.30410200  0.90641400  1
  O  O19  1  0.53193700  0.80410200  0.59358600  1
  O  O20  1  0.63342300  0.05814600  0.48147100  1
  O  O21  1  0.63342300  0.55814600  0.01852900  1
  O  O22  1  0.52281800  0.19755000  0.36699400  1
  O  O23  1  0.52281800  0.69755000  0.13300600  1
  O  O24  1  0.52826300  0.95340500  0.85596100  1
  O  O25  1  0.52826300  0.45340500  0.64403900  1
  O  O26  1  0.59337400  0.74599000  0.74981800  1
  O  O27  1  0.59337400  0.24599000  0.75018200  1
  O  O28  1  0.81818000  0.66411700  0.87307600  1
  O  O29  1  0.81818000  0.16411700  0.62692400  1
  O  O30  1  0.68995100  0.39798400  0.47491000  1
  O  O31  1  0.68995100  0.89798400  0.02509000  1
loop_
_geom_bond_atom_site_label_1
_geom_bond_atom_site_label_2
_geom_bond_distance
_geom_bond_site_symmetry_2
Li0 O14 1.853002 1_555
Li0 O30 1.853246 1_555
Li0 O25 1.931824 1_555
Li1 O15 1.853002 1_565
Li1 O31 1.853246 1_556
Li1 O24 1.931824 1_555
Li2 O1 1.867985 1_455
Li2 O24 2.047462 1_555
Li2 O26 2.072734 1_555
Li3 O0 1.867985 1_455
Li3 O25 2.047462 1_555
Li3 O27 2.072734 1_555
Li4 O31 1.853002 1_545
Li4 O15 1.853246 1_654
Li4 O8 1.931824 1_655
Li5 O30 1.853002 1_555
Li5 O14 1.853246 1_655
Li5 O9 1.931824 1_655
Li6 O16 1.867985 1_555
Li6 O8 2.047462 1_655
Li6 O11 2.072734 1_655
Li7 O17 1.867985 1_555
Li7 O9 2.047462 1_655
Li7 O10 2.072734 1_655
Fe0 O12 1.832798 1_555
Fe0 O5 1.980608 1_554
Fe0 O2 1.982440 1_555
Fe0 O21 2.044108 1_555
Fe0 O23 2.180322 1_555
Fe1 O13 1.832798 1_545
Fe1 O4 1.980608 1_545
Fe1 O3 1.982440 1_555
Fe1 O20 2.044108 1_555
Fe1 O22 2.180322 1_555
Fe2 O11 1.907664 1_555
Fe2 O22 1.957918 1_555
Fe2 O9 2.007362 1_555
Fe2 O17 2.033742 1_555
Fe2 O3 2.131325 1_555
Fe3 O10 1.907664 1_555
Fe3 O23 1.957918 1_555
Fe3 O8 2.007362 1_565
Fe3 O16 2.033742 1_565
Fe3 O2 2.131325 1_555
Fe4 O29 1.832798 1_565
Fe4 O20 1.980608 1_565
Fe4 O19 1.982440 1_555
Fe4 O4 2.044108 1_655
Fe4 O7 2.180322 1_655
Fe5 O28 1.832798 1_555
Fe5 O21 1.980608 1_556
Fe5 O18 1.982440 1_555
Fe5 O5 2.044108 1_655
Fe5 O6 2.180322 1_655
Fe6 O27 1.907664 1_555
Fe6 O6 1.957918 1_655
Fe6 O24 2.007362 1_545
Fe6 O1 2.033742 1_545
Fe6 O18 2.131325 1_555
Fe7 O26 1.907664 1_555
Fe7 O7 1.957918 1_655
Fe7 O25 2.007362 1_555
Fe7 O0 2.033742 1_555
Fe7 O19 2.131325 1_555
O0 Si5 1.645114 1_555
O1 Si4 1.645114 1_555
O2 Si7 1.671959 1_455
O3 Si6 1.671959 1_455
O4 Si3 1.688702 1_555
O5 Si2 1.688702 1_555
O6 Si2 1.676019 1_555
O7 Si3 1.676019 1_555
O8 Si0 1.664663 1_555
O9 Si1 1.664663 1_555
O10 Si1 1.657091 1_555
O11 Si0 1.657091 1_555
O12 Si0 1.617304 1_555
O13 Si1 1.617304 1_555
O14 Si3 1.581037 1_555
O15 Si2 1.581037 1_555
O16 Si0 1.645114 1_555
O17 Si1 1.645114 1_555
O18 Si2 1.671959 1_555
O19 Si3 1.671959 1_555
O20 Si6 1.688702 1_555
O21 Si7 1.688702 1_555
O22 Si6 1.676019 1_555
O23 Si7 1.676019 1_555
O24 Si4 1.664663 1_555
O25 Si5 1.664663 1_555
O26 Si4 1.657091 1_555
O27 Si5 1.657091 1_555
O28 Si4 1.617304 1_555
O29 Si5 1.617304 1_555
O30 Si6 1.581037 1_555
O31 Si7 1.581037 1_555
