# generated using pymatgen
data_Rb2S2NO6
_symmetry_space_group_name_H-M   'P 1'
_cell_length_a   7.52893606
_cell_length_b   7.52893606
_cell_length_c   7.75735333
_cell_angle_alpha   86.45605071
_cell_angle_beta   86.45605071
_cell_angle_gamma   62.36572817
_symmetry_Int_Tables_number   1
_chemical_formula_structural   Rb2S2NO6
_chemical_formula_sum   'Rb4 S4 N2 O12'
_cell_volume   388.54541323
_cell_formula_units_Z   2
loop_
 _symmetry_equiv_pos_site_id
 _symmetry_equiv_pos_as_xyz
  1  'x, y, z'
loop_
 _atom_site_type_symbol
 _atom_site_label
 _atom_site_symmetry_multiplicity
 _atom_site_fract_x
 _atom_site_fract_y
 _atom_site_fract_z
 _atom_site_occupancy
  Rb  Rb0  1  0.28881200  0.00832500  0.13704200  1
  Rb  Rb1  1  0.99167500  0.71118800  0.36295800  1
  Rb  Rb2  1  0.71118800  0.99167500  0.86295800  1
  Rb  Rb3  1  0.00832500  0.28881200  0.63704200  1
  S  S0  1  0.76865400  0.42665100  0.13567000  1
  S  S1  1  0.57334900  0.23134600  0.36433000  1
  S  S2  1  0.23134600  0.57334900  0.86433000  1
  S  S3  1  0.42665100  0.76865400  0.63567000  1
  N  N0  1  0.56887000  0.43113000  0.25000000  1
  N  N1  1  0.43113000  0.56887000  0.75000000  1
  O  O0  1  0.81576600  0.28662800  0.99601100  1
  O  O1  1  0.71337200  0.18423400  0.50398900  1
  O  O2  1  0.18423400  0.71337200  0.00398900  1
  O  O3  1  0.28662800  0.81576600  0.49601100  1
  O  O4  1  0.69650000  0.63569800  0.07537600  1
  O  O5  1  0.36430200  0.30350000  0.42462400  1
  O  O6  1  0.30350000  0.36430200  0.92462400  1
  O  O7  1  0.63569800  0.69650000  0.57537600  1
  O  O8  1  0.93347200  0.36016800  0.25613900  1
  O  O9  1  0.63983200  0.06652800  0.24386100  1
  O  O10  1  0.06652800  0.63983200  0.74386100  1
  O  O11  1  0.36016800  0.93347200  0.75613900  1
loop_
_geom_bond_atom_site_label_1
_geom_bond_atom_site_label_2
_geom_bond_distance
_geom_bond_site_symmetry_2
N0 S0 1.685807 1_555
N0 S1 1.685807 1_555
N1 S3 1.685807 1_555
N1 S2 1.685807 1_555
O0 S0 1.468922 1_556
O0 Rb2 2.936408 1_545
O0 Rb3 3.061652 1_655
O1 S1 1.468922 1_555
O1 Rb3 2.936408 1_655
O1 Rb2 3.061652 1_545
O2 S2 1.468922 1_554
O2 Rb0 2.936408 1_565
O2 Rb1 3.061652 1_455
O3 S3 1.468922 1_555
O3 Rb1 2.936408 1_455
O3 Rb0 3.061652 1_565
O4 S0 1.462291 1_555
O4 Rb0 3.085001 1_565
O4 Rb2 3.101128 1_554
O5 S1 1.462291 1_555
O5 Rb1 3.085001 1_455
O5 Rb3 3.101128 1_555
O6 S2 1.462291 1_555
O6 Rb2 3.085001 1_545
O6 Rb0 3.101128 1_556
O7 S3 1.462291 1_555
O7 Rb3 3.085001 1_655
O7 Rb1 3.101128 1_555
O8 S0 1.474131 1_555
O8 Rb0 2.907048 1_655
O8 Rb3 3.010950 1_655
O8 Rb1 3.041878 1_555
O9 S1 1.474131 1_555
O9 Rb1 2.907048 1_545
O9 Rb2 3.010950 1_544
O9 Rb0 3.041878 1_555
O10 S2 1.474131 1_555
O10 Rb2 2.907048 1_455
O10 Rb1 3.010950 1_455
O10 Rb3 3.041878 1_555
O11 S3 1.474131 1_555
O11 Rb3 2.907048 1_565
O11 Rb0 3.010950 1_566
O11 Rb2 3.041878 1_555
