# generated using pymatgen
data_Li3Sn2(PO3)7
_symmetry_space_group_name_H-M   'P 1'
_cell_length_a   6.76164300
_cell_length_b   7.50299876
_cell_length_c   20.47271199
_cell_angle_alpha   91.85200761
_cell_angle_beta   93.29062936
_cell_angle_gamma   115.38250433
_symmetry_Int_Tables_number   1
_chemical_formula_structural   Li3Sn2(PO3)7
_chemical_formula_sum   'Li6 Sn4 P14 O42'
_cell_volume   934.95601382
_cell_formula_units_Z   2
loop_
 _symmetry_equiv_pos_site_id
 _symmetry_equiv_pos_as_xyz
  1  'x, y, z'
loop_
 _atom_site_type_symbol
 _atom_site_label
 _atom_site_symmetry_multiplicity
 _atom_site_fract_x
 _atom_site_fract_y
 _atom_site_fract_z
 _atom_site_occupancy
  Li  Li0  1  0.22999900  0.80986800  0.75071100  1
  Li  Li1  1  0.44489100  0.25572300  0.56589000  1
  Li  Li2  1  0.75430500  0.85349200  0.91324900  1
  Li  Li3  1  0.24569500  0.14650800  0.08675100  1
  Li  Li4  1  0.55510900  0.74427700  0.43411000  1
  Li  Li5  1  0.77000100  0.19013200  0.24928900  1
  Sn  Sn0  1  0.59695200  0.80423300  0.62129100  1
  Sn  Sn1  1  0.37280300  0.15383600  0.88082500  1
  Sn  Sn2  1  0.62719700  0.84616400  0.11917500  1
  Sn  Sn3  1  0.40304800  0.19576700  0.37870900  1
  P  P0  1  0.27057700  0.70202100  0.93937400  1
  P  P1  1  0.17605700  0.77366700  0.48494100  1
  P  P2  1  0.07244900  0.71167100  0.06677100  1
  P  P3  1  0.04979700  0.42731600  0.39592000  1
  P  P4  1  0.04917000  0.11619600  0.72306500  1
  P  P5  1  0.35032300  0.82430600  0.26144200  1
  P  P6  1  0.47057700  0.46291600  0.75628000  1
  P  P7  1  0.52942300  0.53708400  0.24372000  1
  P  P8  1  0.64967700  0.17569400  0.73855800  1
  P  P9  1  0.95083000  0.88380400  0.27693500  1
  P  P10  1  0.95020300  0.57268400  0.60408000  1
  P  P11  1  0.92755100  0.28832900  0.93322900  1
  P  P12  1  0.82394300  0.22633300  0.51505900  1
  P  P13  1  0.72942300  0.29797900  0.06062600  1
  O  O0  1  0.13178300  0.76026100  0.99164000  1
  O  O1  1  0.01143400  0.71121700  0.54229000  1
  O  O2  1  0.21081500  0.76254900  0.87479800  1
  O  O3  1  0.11832700  0.66559300  0.66051900  1
  O  O4  1  0.17312800  0.46407800  0.94336400  1
  O  O5  1  0.95404200  0.11118900  0.90649400  1
  O  O6  1  0.02666400  0.62448100  0.42288100  1
  O  O7  1  0.21738200  0.98126800  0.47195000  1
  O  O8  1  0.09447700  0.77485200  0.24938100  1
  O  O9  1  0.50933800  0.78234000  0.96324900  1
  O  O10  1  0.10237000  0.00656600  0.77634500  1
  O  O11  1  0.26915400  0.30627400  0.70608900  1
  O  O12  1  0.36643600  0.72409600  0.50050000  1
  O  O13  1  0.22639400  0.64208100  0.10088900  1
  O  O14  1  0.28917300  0.47593000  0.38830100  1
  O  O15  1  0.40661300  0.42568900  0.82582900  1
  O  O16  1  0.44016500  0.91228200  0.33011800  1
  O  O17  1  0.47680800  0.94660300  0.20736800  1
  O  O18  1  0.05362300  0.99673600  0.34111300  1
  O  O19  1  0.53675500  0.66559500  0.73345300  1
  O  O20  1  0.33289800  0.60367500  0.25420800  1
  O  O21  1  0.66710200  0.39632500  0.74579200  1
  O  O22  1  0.46324500  0.33440500  0.26654700  1
  O  O23  1  0.94637700  0.00326400  0.65888700  1
  O  O24  1  0.52319200  0.05339700  0.79263200  1
  O  O25  1  0.55983500  0.08771800  0.66988200  1
  O  O26  1  0.59338700  0.57431100  0.17417100  1
  O  O27  1  0.71082700  0.52407000  0.61169900  1
  O  O28  1  0.77360600  0.35791900  0.89911100  1
  O  O29  1  0.63356400  0.27590400  0.49950000  1
  O  O30  1  0.73084600  0.69372600  0.29391100  1
  O  O31  1  0.89763000  0.99343400  0.22365500  1
  O  O32  1  0.49066200  0.21766000  0.03675100  1
  O  O33  1  0.90552300  0.22514800  0.75061900  1
  O  O34  1  0.78261800  0.01873200  0.52805000  1
  O  O35  1  0.97333600  0.37551900  0.57711900  1
  O  O36  1  0.04595800  0.88881100  0.09350600  1
  O  O37  1  0.82687200  0.53592200  0.05663600  1
  O  O38  1  0.88167300  0.33440700  0.33948100  1
  O  O39  1  0.78918500  0.23745100  0.12520200  1
  O  O40  1  0.98856600  0.28878300  0.45771000  1
  O  O41  1  0.86821700  0.23973900  0.00836000  1
loop_
_geom_bond_atom_site_label_1
_geom_bond_atom_site_label_2
_geom_bond_distance
_geom_bond_site_symmetry_2
Li0 O3 2.039954 1_555
Li0 O10 2.071721 1_565
Li0 O24 2.145505 1_565
Li1 O29 1.882704 1_555
Li1 O27 2.178812 1_555
Li2 O5 1.838900 1_565
Li2 O9 1.883692 1_555
Li3 O36 1.838900 1_545
Li3 O32 1.883692 1_555
Li4 O12 1.882704 1_555
Li4 O14 2.178812 1_555
Li5 O38 2.039954 1_555
Li5 O31 2.071721 1_545
Li5 O17 2.145505 1_545
O0 P2 1.625246 1_556
O0 P0 1.628889 1_555
O1 P1 1.604843 1_555
O1 P10 1.621178 1_455
O2 P0 1.500715 1_555
O2 Sn1 2.652969 1_565
O3 P10 1.493683 1_455
O4 P11 1.613913 1_455
O4 P0 1.623325 1_555
O5 P11 1.505476 1_555
O5 Sn1 2.793019 1_655
O6 P3 1.634948 1_555
O6 P1 1.636750 1_555
O7 P1 1.495725 1_555
O7 Sn3 2.559606 1_565
O8 P5 1.608126 1_555
O8 P9 1.625938 1_455
O9 P0 1.504893 1_555
O10 P4 1.504136 1_555
O10 Sn1 2.608809 1_555
O11 P4 1.624790 1_555
O11 P6 1.637389 1_555
O12 P1 1.505962 1_555
O12 Sn0 2.750315 1_555
O13 P2 1.500028 1_555
O13 Sn2 2.473498 1_555
O14 P3 1.517788 1_555
O14 Sn3 2.535428 1_555
O15 P6 1.511713 1_555
O15 Sn1 2.293164 1_555
O16 P5 1.509874 1_555
O16 Sn3 2.434382 1_565
O17 P5 1.516747 1_555
O17 Sn2 2.375238 1_555
O18 P9 1.498560 1_455
O18 Sn3 2.257617 1_565
O19 P6 1.489201 1_555
O19 Sn0 2.533615 1_555
O20 P5 1.609684 1_555
O20 P7 1.629892 1_555
O21 P8 1.609684 1_555
O21 P6 1.629892 1_555
O22 P7 1.489201 1_555
O22 Sn3 2.533615 1_555
O23 P4 1.498560 1_655
O23 Sn0 2.257617 1_545
O24 P8 1.516747 1_555
O24 Sn1 2.375238 1_555
O25 P8 1.509874 1_555
O25 Sn0 2.434382 1_545
O26 P7 1.511713 1_555
O26 Sn2 2.293164 1_555
O27 P10 1.517788 1_555
O27 Sn0 2.535428 1_555
O28 P11 1.500028 1_555
O28 Sn1 2.473498 1_555
O29 P12 1.505962 1_555
O29 Sn3 2.750315 1_555
O30 P9 1.624790 1_555
O30 P7 1.637389 1_555
O31 P9 1.504136 1_555
O31 Sn2 2.608809 1_555
O32 P13 1.504893 1_555
O33 P8 1.608126 1_555
O33 P4 1.625938 1_655
O34 P12 1.495725 1_555
O34 Sn0 2.559606 1_545
O35 P10 1.634948 1_555
O35 P12 1.636750 1_555
O36 P2 1.505476 1_555
O36 Sn2 2.793019 1_455
O37 P2 1.613913 1_655
O37 P13 1.623325 1_555
O38 P3 1.493683 1_655
O39 P13 1.500715 1_555
O39 Sn2 2.652969 1_545
O40 P12 1.604843 1_555
O40 P3 1.621178 1_655
O41 P11 1.625246 1_554
O41 P13 1.628889 1_555
