# generated using pymatgen
data_Cr3(FeO6)2
_symmetry_space_group_name_H-M   'P 1'
_cell_length_a   9.01334000
_cell_length_b   9.12073300
_cell_length_c   12.52912200
_cell_angle_alpha   90.00000000
_cell_angle_beta   90.00000000
_cell_angle_gamma   90.00000000
_symmetry_Int_Tables_number   1
_chemical_formula_structural   Cr3(FeO6)2
_chemical_formula_sum   'Cr12 Fe8 O48'
_cell_volume   1029.99741390
_cell_formula_units_Z   4
loop_
 _symmetry_equiv_pos_site_id
 _symmetry_equiv_pos_as_xyz
  1  'x, y, z'
loop_
 _atom_site_type_symbol
 _atom_site_label
 _atom_site_symmetry_multiplicity
 _atom_site_fract_x
 _atom_site_fract_y
 _atom_site_fract_z
 _atom_site_occupancy
  Cr  Cr0  1  0.25000000  0.46235300  0.00000000  1
  Cr  Cr1  1  0.75000000  0.53764700  0.00000000  1
  Cr  Cr2  1  0.60621300  0.10283400  0.14378700  1
  Cr  Cr3  1  0.10621300  0.89716600  0.14378700  1
  Cr  Cr4  1  0.10621300  0.39716600  0.35621300  1
  Cr  Cr5  1  0.60621300  0.60283400  0.35621300  1
  Cr  Cr6  1  0.75000000  0.03764700  0.50000000  1
  Cr  Cr7  1  0.25000000  0.96235300  0.50000000  1
  Cr  Cr8  1  0.39378700  0.39716600  0.64378700  1
  Cr  Cr9  1  0.89378700  0.60283400  0.64378700  1
  Cr  Cr10  1  0.89378700  0.10283400  0.85621300  1
  Cr  Cr11  1  0.39378700  0.89716600  0.85621300  1
  Fe  Fe0  1  0.96977900  0.25046300  0.12298500  1
  Fe  Fe1  1  0.46977900  0.74953700  0.12298500  1
  Fe  Fe2  1  0.96977900  0.75046300  0.37701500  1
  Fe  Fe3  1  0.46977900  0.24953700  0.37701500  1
  Fe  Fe4  1  0.03022100  0.24953700  0.62298500  1
  Fe  Fe5  1  0.53022100  0.75046300  0.62298500  1
  Fe  Fe6  1  0.53022100  0.25046300  0.87701500  1
  Fe  Fe7  1  0.03022100  0.74953700  0.87701500  1
  O  O0  1  0.56437400  0.15093700  0.01984600  1
  O  O1  1  0.06437400  0.84906300  0.01984600  1
  O  O2  1  0.36602900  0.56799900  0.06834000  1
  O  O3  1  0.86602900  0.43200100  0.06834000  1
  O  O4  1  0.15755700  0.35582200  0.08494800  1
  O  O5  1  0.65755700  0.64417800  0.08494800  1
  O  O6  1  0.09882800  0.07860400  0.15882600  1
  O  O7  1  0.59882800  0.92139600  0.15882600  1
  O  O8  1  0.77664200  0.16011400  0.17273600  1
  O  O9  1  0.27664200  0.83988600  0.17273600  1
  O  O10  1  0.98303900  0.82242700  0.22686100  1
  O  O11  1  0.48303900  0.17757300  0.22686100  1
  O  O12  1  0.98303900  0.32242700  0.27313900  1
  O  O13  1  0.48303900  0.67757300  0.27313900  1
  O  O14  1  0.77664200  0.66011400  0.32726400  1
  O  O15  1  0.27664200  0.33988600  0.32726400  1
  O  O16  1  0.59882800  0.42139600  0.34117400  1
  O  O17  1  0.09882800  0.57860400  0.34117400  1
  O  O18  1  0.65755700  0.14417800  0.41505200  1
  O  O19  1  0.15755700  0.85582200  0.41505200  1
  O  O20  1  0.36602900  0.06799900  0.43166000  1
  O  O21  1  0.86602900  0.93200100  0.43166000  1
  O  O22  1  0.56437400  0.65093700  0.48015400  1
  O  O23  1  0.06437400  0.34906300  0.48015400  1
  O  O24  1  0.43562600  0.34906300  0.51984600  1
  O  O25  1  0.93562600  0.65093700  0.51984600  1
  O  O26  1  0.13397100  0.06799900  0.56834000  1
  O  O27  1  0.63397100  0.93200100  0.56834000  1
  O  O28  1  0.84244300  0.14417800  0.58494800  1
  O  O29  1  0.34244300  0.85582200  0.58494800  1
  O  O30  1  0.90117200  0.42139600  0.65882600  1
  O  O31  1  0.40117200  0.57860400  0.65882600  1
  O  O32  1  0.22335800  0.33988600  0.67273600  1
  O  O33  1  0.72335800  0.66011400  0.67273600  1
  O  O34  1  0.51696100  0.32242700  0.72686100  1
  O  O35  1  0.01696100  0.67757300  0.72686100  1
  O  O36  1  0.01696100  0.17757300  0.77313900  1
  O  O37  1  0.51696100  0.82242700  0.77313900  1
  O  O38  1  0.72335800  0.16011400  0.82726400  1
  O  O39  1  0.22335800  0.83988600  0.82726400  1
  O  O40  1  0.40117200  0.07860400  0.84117400  1
  O  O41  1  0.90117200  0.92139600  0.84117400  1
  O  O42  1  0.34244300  0.35582200  0.91505200  1
  O  O43  1  0.84244300  0.64417800  0.91505200  1
  O  O44  1  0.63397100  0.43200100  0.93166000  1
  O  O45  1  0.13397100  0.56799900  0.93166000  1
  O  O46  1  0.93562600  0.15093700  0.98015400  1
  O  O47  1  0.43562600  0.84906300  0.98015400  1
loop_
_geom_bond_atom_site_label_1
_geom_bond_atom_site_label_2
_geom_bond_distance
_geom_bond_site_symmetry_2
Cr0 O45 1.659918 1_554
Cr0 O2 1.659918 1_555
Cr0 O4 1.664670 1_555
Cr0 O42 1.664670 1_554
Cr1 O44 1.659918 1_554
Cr1 O3 1.659918 1_555
Cr1 O5 1.664670 1_555
Cr1 O43 1.664670 1_554
Cr2 O0 1.657139 1_555
Cr2 O8 1.662589 1_555
Cr2 O7 1.666870 1_545
Cr2 O11 1.667513 1_555
Cr3 O1 1.657139 1_555
Cr3 O9 1.662589 1_555
Cr3 O6 1.666870 1_565
Cr3 O10 1.667513 1_455
Cr4 O23 1.657139 1_555
Cr4 O15 1.662589 1_555
Cr4 O17 1.666870 1_555
Cr4 O12 1.667513 1_455
Cr5 O22 1.657139 1_555
Cr5 O14 1.662589 1_555
Cr5 O16 1.666870 1_555
Cr5 O13 1.667513 1_555
Cr6 O27 1.659918 1_545
Cr6 O21 1.659918 1_545
Cr6 O28 1.664670 1_555
Cr6 O18 1.664670 1_555
Cr7 O26 1.659918 1_565
Cr7 O20 1.659918 1_565
Cr7 O19 1.664670 1_555
Cr7 O29 1.664670 1_555
Cr8 O24 1.657139 1_555
Cr8 O32 1.662589 1_555
Cr8 O31 1.666870 1_555
Cr8 O34 1.667513 1_555
Cr9 O25 1.657139 1_555
Cr9 O33 1.662589 1_555
Cr9 O30 1.666870 1_555
Cr9 O35 1.667513 1_655
Cr10 O46 1.657139 1_555
Cr10 O38 1.662589 1_555
Cr10 O41 1.666870 1_545
Cr10 O36 1.667513 1_655
Cr11 O47 1.657139 1_555
Cr11 O39 1.662589 1_555
Cr11 O40 1.666870 1_565
Cr11 O37 1.667513 1_555
Fe0 O12 1.996091 1_555
Fe0 O6 2.002896 1_655
Fe0 O4 2.003778 1_655
Fe0 O3 2.021081 1_555
Fe0 O8 2.024357 1_555
Fe0 O46 2.030086 1_554
Fe1 O13 1.996091 1_555
Fe1 O7 2.002896 1_555
Fe1 O5 2.003778 1_555
Fe1 O2 2.021081 1_555
Fe1 O9 2.024357 1_555
Fe1 O47 2.030086 1_554
Fe2 O10 1.996091 1_555
Fe2 O17 2.002896 1_655
Fe2 O19 2.003778 1_655
Fe2 O21 2.021081 1_555
Fe2 O14 2.024357 1_555
Fe2 O25 2.030086 1_555
Fe3 O11 1.996091 1_555
Fe3 O16 2.002896 1_555
Fe3 O18 2.003778 1_555
Fe3 O20 2.021081 1_555
Fe3 O15 2.024357 1_555
Fe3 O24 2.030086 1_555
Fe4 O36 1.996091 1_555
Fe4 O30 2.002896 1_455
Fe4 O28 2.003778 1_455
Fe4 O26 2.021081 1_555
Fe4 O32 2.024357 1_555
Fe4 O23 2.030086 1_555
Fe5 O37 1.996091 1_555
Fe5 O31 2.002896 1_555
Fe5 O29 2.003778 1_555
Fe5 O27 2.021081 1_555
Fe5 O33 2.024357 1_555
Fe5 O22 2.030086 1_555
Fe6 O34 1.996091 1_555
Fe6 O40 2.002896 1_555
Fe6 O42 2.003778 1_555
Fe6 O44 2.021081 1_555
Fe6 O38 2.024357 1_555
Fe6 O0 2.030086 1_556
Fe7 O35 1.996091 1_555
Fe7 O41 2.002896 1_455
Fe7 O43 2.003778 1_455
Fe7 O45 2.021081 1_555
Fe7 O39 2.024357 1_555
Fe7 O1 2.030086 1_556
