# generated using pymatgen
data_FeOF
_symmetry_space_group_name_H-M   'P 1'
_cell_length_a   3.08724800
_cell_length_b   9.48814800
_cell_length_c   14.25965327
_cell_angle_alpha   89.88793694
_cell_angle_beta   90.00000000
_cell_angle_gamma   90.00000000
_symmetry_Int_Tables_number   1
_chemical_formula_structural   FeOF
_chemical_formula_sum   'Fe12 O12 F12'
_cell_volume   417.69675695
_cell_formula_units_Z   12
loop_
 _symmetry_equiv_pos_site_id
 _symmetry_equiv_pos_as_xyz
  1  'x, y, z'
loop_
 _atom_site_type_symbol
 _atom_site_label
 _atom_site_symmetry_multiplicity
 _atom_site_fract_x
 _atom_site_fract_y
 _atom_site_fract_z
 _atom_site_occupancy
  Fe  Fe0  1  0.00000000  0.00905200  0.99335700  1
  Fe  Fe1  1  0.00000000  0.49510000  0.99480800  1
  Fe  Fe2  1  0.50000000  0.25481800  0.85092700  1
  Fe  Fe3  1  0.50000000  0.74724100  0.85189400  1
  Fe  Fe4  1  0.00000000  0.00585300  0.66195600  1
  Fe  Fe5  1  0.00000000  0.49722700  0.65860100  1
  Fe  Fe6  1  0.50000000  0.71946200  0.50003300  1
  Fe  Fe7  1  0.50000000  0.25048400  0.51409400  1
  Fe  Fe8  1  0.00000000  0.99338300  0.32700500  1
  Fe  Fe9  1  0.00000000  0.51483600  0.33064200  1
  Fe  Fe10  1  0.50000000  0.25371400  0.14580000  1
  Fe  Fe11  1  0.50000000  0.75057800  0.17920600  1
  O  O0  1  0.50000000  0.41074500  0.93457200  1
  O  O1  1  0.50000000  0.90563700  0.93593600  1
  O  O2  1  0.00000000  0.15219300  0.89225700  1
  O  O3  1  0.00000000  0.65407000  0.89956300  1
  O  O4  1  0.50000000  0.40003000  0.60024600  1
  O  O5  1  0.00000000  0.14538800  0.56691400  1
  O  O6  1  0.00000000  0.66012300  0.56636600  1
  O  O7  1  0.50000000  0.59012700  0.39624400  1
  O  O8  1  0.50000000  0.90720700  0.27136900  1
  O  O9  1  0.00000000  0.65106800  0.22966400  1
  O  O10  1  0.00000000  0.35552100  0.10181500  1
  O  O11  1  0.50000000  0.09430200  0.06282000  1
  F  F0  1  0.00000000  0.34326000  0.76712800  1
  F  F1  1  0.00000000  0.85421100  0.76214600  1
  F  F2  1  0.50000000  0.09412300  0.72938800  1
  F  F3  1  0.50000000  0.59788000  0.73310200  1
  F  F4  1  0.50000000  0.90226000  0.60343400  1
  F  F5  1  0.00000000  0.33834700  0.43390700  1
  F  F6  1  0.00000000  0.85439100  0.43611600  1
  F  F7  1  0.50000000  0.09740400  0.39651500  1
  F  F8  1  0.50000000  0.39431700  0.27056600  1
  F  F9  1  0.00000000  0.15310500  0.23229600  1
  F  F10  1  0.00000000  0.84476800  0.10394400  1
  F  F11  1  0.50000000  0.60777700  0.06537300  1
loop_
_geom_bond_atom_site_label_1
_geom_bond_atom_site_label_2
_geom_bond_distance
_geom_bond_site_symmetry_2
Fe0 O2 1.978699 1_555
Fe0 O1 2.004780 1_445
Fe0 O1 2.004780 1_545
Fe0 O11 2.005317 1_456
Fe0 O11 2.005317 1_556
Fe1 O0 1.940064 1_455
Fe1 O0 1.940064 1_555
Fe1 O10 2.018491 1_556
Fe1 O3 2.027720 1_555
Fe2 O0 1.902196 1_555
Fe2 O2 1.917289 1_655
Fe2 O2 1.917289 1_555
Fe3 O3 1.903672 1_655
Fe3 O3 1.903672 1_555
Fe3 O1 1.924031 1_555
Fe4 O5 1.892753 1_555
Fe5 O4 1.982093 1_455
Fe5 O4 1.982093 1_555
Fe5 O6 2.027492 1_555
Fe6 O6 1.895357 1_555
Fe6 O6 1.895357 1_655
Fe6 O7 1.924418 1_555
Fe7 O4 1.878655 1_555
Fe7 O5 1.985316 1_655
Fe7 O5 1.985316 1_555
Fe8 O8 1.919185 1_455
Fe8 O8 1.919185 1_555
Fe9 O9 1.933094 1_555
Fe9 O7 1.941856 1_455
Fe9 O7 1.941856 1_555
Fe10 O11 1.922199 1_555
Fe10 O10 1.925325 1_555
Fe10 O10 1.925325 1_655
Fe11 O9 1.946604 1_655
Fe11 O9 1.946604 1_555
Fe11 O8 1.985786 1_555
F0 Fe2 2.123893 1_555
F0 Fe2 2.123893 1_455
F0 Fe5 2.126078 1_555
F1 Fe4 2.025641 1_565
F1 Fe3 2.246250 1_555
F1 Fe3 2.246250 1_455
F2 Fe4 2.002986 1_555
F2 Fe4 2.002986 1_655
F2 Fe2 2.310561 1_555
F3 Fe5 2.104137 1_655
F3 Fe5 2.104137 1_555
F3 Fe3 2.210687 1_555
F4 Fe4 2.012084 1_665
F4 Fe4 2.012084 1_565
F4 Fe6 2.278648 1_555
F5 Fe7 2.093199 1_555
F5 Fe7 2.093199 1_455
F5 Fe9 2.227736 1_555
F6 Fe8 2.037627 1_555
F6 Fe6 2.201795 1_555
F6 Fe6 2.201795 1_455
F7 Fe8 2.084025 1_545
F7 Fe8 2.084025 1_645
F7 Fe7 2.220413 1_555
F8 Fe9 2.104299 1_555
F8 Fe9 2.104299 1_655
F8 Fe10 2.225820 1_555
F9 Fe8 2.027937 1_545
F9 Fe10 2.193331 1_555
F9 Fe10 2.193331 1_455
F10 Fe11 2.080741 1_455
F10 Fe11 2.080741 1_555
F10 Fe0 2.215131 1_564
F11 Fe11 2.116422 1_555
F11 Fe1 2.131303 1_554
F11 Fe1 2.131303 1_654
