# generated using pymatgen
data_Li2Fe3CoO8
_symmetry_space_group_name_H-M   'P 1'
_cell_length_a   8.25131723
_cell_length_b   8.34687315
_cell_length_c   8.27553014
_cell_angle_alpha   90.01045730
_cell_angle_beta   89.98214901
_cell_angle_gamma   89.94027391
_symmetry_Int_Tables_number   1
_chemical_formula_structural   Li2Fe3CoO8
_chemical_formula_sum   'Li8 Fe12 Co4 O32'
_cell_volume   569.95774358
_cell_formula_units_Z   4
loop_
 _symmetry_equiv_pos_site_id
 _symmetry_equiv_pos_as_xyz
  1  'x, y, z'
loop_
 _atom_site_type_symbol
 _atom_site_label
 _atom_site_symmetry_multiplicity
 _atom_site_fract_x
 _atom_site_fract_y
 _atom_site_fract_z
 _atom_site_occupancy
  Li  Li0  1  0.12214100  0.87798300  0.37677400  1
  Li  Li1  1  0.25077700  0.75214900  0.74804500  1
  Li  Li2  1  0.24896600  0.24860200  0.24712000  1
  Li  Li3  1  0.37744000  0.12227600  0.87845900  1
  Li  Li4  1  0.62291300  0.62280800  0.62270000  1
  Li  Li5  1  0.75207300  0.74887700  0.25231900  1
  Li  Li6  1  0.74856400  0.25124400  0.75133800  1
  Li  Li7  1  0.87708200  0.37663900  0.12278300  1
  Fe  Fe0  1  0.12230600  0.62205500  0.12188600  1
  Fe  Fe1  1  0.12153400  0.37831500  0.87866600  1
  Fe  Fe2  1  0.12396800  0.12093300  0.62393100  1
  Fe  Fe3  1  0.37727500  0.87751500  0.12262400  1
  Fe  Fe4  1  0.37592200  0.62447400  0.37861200  1
  Fe  Fe5  1  0.37922400  0.37606500  0.62470400  1
  Fe  Fe6  1  0.62404800  0.87765500  0.87731900  1
  Fe  Fe7  1  0.62353900  0.12278300  0.12356000  1
  Fe  Fe8  1  0.62354000  0.37547900  0.37545900  1
  Fe  Fe9  1  0.87710500  0.62373200  0.87665600  1
  Fe  Fe10  1  0.87591000  0.87729200  0.62332600  1
  Fe  Fe11  1  0.87629100  0.12295500  0.37668900  1
  Co  Co0  1  0.99850000  0.49969600  0.49843900  1
  Co  Co1  1  0.50077000  0.49920800  0.00062000  1
  Co  Co2  1  0.49986900  0.99995500  0.50072400  1
  Co  Co3  1  0.00051900  0.00026000  0.00120000  1
  O  O0  1  0.10175300  0.12643600  0.38826800  1
  O  O1  1  0.10490000  0.89170800  0.62759500  1
  O  O2  1  0.11394400  0.61098800  0.88732700  1
  O  O3  1  0.12713600  0.39578100  0.10496400  1
  O  O4  1  0.12129900  0.14738200  0.86377600  1
  O  O5  1  0.13396000  0.36422000  0.63970700  1
  O  O6  1  0.13561700  0.62271800  0.35421000  1
  O  O7  1  0.14440100  0.85816600  0.12214600  1
  O  O8  1  0.36039200  0.13949600  0.62392800  1
  O  O9  1  0.35723100  0.37701800  0.86268700  1
  O  O10  1  0.36143200  0.63826800  0.13649300  1
  O  O11  1  0.37892200  0.86023600  0.35687500  1
  O  O12  1  0.37200800  0.61124900  0.60441700  1
  O  O13  1  0.38865300  0.38264100  0.38097200  1
  O  O14  1  0.39514700  0.10290000  0.12753800  1
  O  O15  1  0.39562800  0.87343800  0.89493100  1
  O  O16  1  0.61030900  0.37395300  0.60450200  1
  O  O17  1  0.61089600  0.60031700  0.37241500  1
  O  O18  1  0.61430100  0.88900900  0.11235300  1
  O  O19  1  0.62795600  0.10354200  0.89544300  1
  O  O20  1  0.62220000  0.35417000  0.14106400  1
  O  O21  1  0.63830800  0.13832500  0.36272300  1
  O  O22  1  0.64134500  0.87732700  0.64434600  1
  O  O23  1  0.64380500  0.64262700  0.87876000  1
  O  O24  1  0.85672600  0.35874500  0.37616400  1
  O  O25  1  0.85875300  0.12369800  0.14287900  1
  O  O26  1  0.86296300  0.86045200  0.86325800  1
  O  O27  1  0.87808900  0.64579100  0.64195600  1
  O  O28  1  0.87171000  0.89593600  0.39579800  1
  O  O29  1  0.88016300  0.11146100  0.61045700  1
  O  O30  1  0.89401200  0.39721000  0.87282200  1
  O  O31  1  0.89576800  0.62591600  0.10535000  1
loop_
_geom_bond_atom_site_label_1
_geom_bond_atom_site_label_2
_geom_bond_distance
_geom_bond_site_symmetry_2
Li0 O28 2.077579 1_455
Li0 O0 2.082597 1_565
Li0 O1 2.083625 1_555
Li0 O7 2.121528 1_555
Li0 O11 2.130121 1_555
Li0 O6 2.141568 1_555
Li1 O12 1.947522 1_555
Li1 O1 1.948749 1_555
Li1 O15 1.983435 1_555
Li1 O2 1.998514 1_555
Li2 O13 1.951984 1_555
Li2 O0 1.970235 1_555
Li2 O3 1.975440 1_555
Li2 O14 1.977118 1_555
Li3 O14 2.072814 1_556
Li3 O19 2.077636 1_555
Li3 O15 2.086763 1_545
Li3 O8 2.116018 1_555
Li3 O4 2.127160 1_555
Li3 O9 2.136672 1_555
Li4 O12 2.078205 1_555
Li4 O17 2.082100 1_555
Li4 O16 2.085291 1_555
Li4 O27 2.120501 1_555
Li4 O23 2.132496 1_555
Li4 O22 2.137524 1_555
Li5 O17 1.971067 1_555
Li5 O28 1.973262 1_555
Li5 O31 1.983572 1_555
Li5 O18 2.000154 1_555
Li6 O16 1.955994 1_555
Li6 O29 1.973759 1_555
Li6 O19 1.983636 1_555
Li6 O30 1.984641 1_555
Li7 O3 2.074821 1_655
Li7 O30 2.080369 1_554
Li7 O31 2.091553 1_555
Li7 O24 2.108862 1_555
Li7 O20 2.117021 1_555
Li7 O25 2.123383 1_555
Fe0 O31 1.874526 1_455
Fe0 O3 1.894216 1_555
Fe0 O6 1.925780 1_555
Fe0 O2 1.944529 1_554
Fe0 O7 1.979393 1_555
Fe0 O10 1.981607 1_555
Fe1 O3 1.878962 1_556
Fe1 O30 1.884442 1_455
Fe1 O4 1.931484 1_555
Fe1 O2 1.944344 1_555
Fe1 O9 1.949279 1_555
Fe1 O5 1.983601 1_555
Fe2 O1 1.920178 1_545
Fe2 O8 1.957114 1_555
Fe2 O0 1.959431 1_555
Fe2 O4 1.997156 1_555
Fe2 O29 2.016467 1_455
Fe2 O5 2.036611 1_555
Fe3 O14 1.887616 1_565
Fe3 O15 1.890606 1_554
Fe3 O7 1.928465 1_555
Fe3 O11 1.943986 1_555
Fe3 O18 1.960046 1_555
Fe3 O10 2.004681 1_555
Fe4 O12 1.872204 1_555
Fe4 O17 1.949750 1_555
Fe4 O11 1.976293 1_555
Fe4 O6 1.993221 1_555
Fe4 O10 2.010578 1_555
Fe4 O13 2.021270 1_555
Fe5 O16 1.914081 1_555
Fe5 O12 1.971087 1_555
Fe5 O9 1.977736 1_555
Fe5 O8 1.980887 1_555
Fe5 O13 2.019246 1_555
Fe5 O5 2.030030 1_555
Fe6 O15 1.890712 1_555
Fe6 O19 1.891688 1_565
Fe6 O22 1.933207 1_555
Fe6 O18 1.948952 1_556
Fe6 O23 1.968380 1_555
Fe6 O26 1.979822 1_555
Fe7 O14 1.892277 1_555
Fe7 O19 1.894915 1_554
Fe7 O20 1.936776 1_555
Fe7 O25 1.947471 1_555
Fe7 O18 1.955035 1_545
Fe7 O21 1.987210 1_555
Fe8 O17 1.879657 1_555
Fe8 O16 1.898606 1_555
Fe8 O24 1.929020 1_555
Fe8 O13 1.939509 1_555
Fe8 O20 1.947884 1_555
Fe8 O21 1.985892 1_555
Fe9 O30 1.896004 1_555
Fe9 O31 1.898952 1_556
Fe9 O23 1.931391 1_555
Fe9 O27 1.951023 1_555
Fe9 O2 1.959036 1_655
Fe9 O26 1.982319 1_555
Fe10 O28 1.889689 1_555
Fe10 O1 1.893762 1_655
Fe10 O27 1.938543 1_555
Fe10 O22 1.943217 1_555
Fe10 O29 1.957848 1_565
Fe10 O26 1.993398 1_555
Fe11 O0 1.863111 1_655
Fe11 O28 1.901929 1_545
Fe11 O29 1.937221 1_555
Fe11 O25 1.940361 1_555
Fe11 O21 1.971155 1_555
Fe11 O24 1.974557 1_555
Co0 O6 1.939360 1_655
Co0 O24 1.944153 1_555
Co0 O27 1.970015 1_555
Co0 O5 1.973169 1_655
Co1 O9 1.936198 1_554
Co1 O20 1.954236 1_555
Co1 O23 1.961024 1_554
Co1 O10 1.982267 1_555
Co2 O8 1.927869 1_565
Co2 O11 1.943138 1_555
Co2 O22 1.954962 1_555
Co2 O21 1.986313 1_565
Co3 O4 1.948567 1_554
Co3 O25 1.949555 1_455
Co3 O7 1.953509 1_545
Co3 O26 1.989036 1_444
