# generated using pymatgen
data_B10H13CSN
_symmetry_space_group_name_H-M   'P 1'
_cell_length_a   15.13896400
_cell_length_b   7.95141500
_cell_length_c   11.26303956
_cell_angle_alpha   56.50963267
_cell_angle_beta   90.00000000
_cell_angle_gamma   90.00000000
_symmetry_Int_Tables_number   1
_chemical_formula_structural   B10H13CSN
_chemical_formula_sum   'B40 H52 C4 S4 N4'
_cell_volume   1130.70964019
_cell_formula_units_Z   4
loop_
 _symmetry_equiv_pos_site_id
 _symmetry_equiv_pos_as_xyz
  1  'x, y, z'
loop_
 _atom_site_type_symbol
 _atom_site_label
 _atom_site_symmetry_multiplicity
 _atom_site_fract_x
 _atom_site_fract_y
 _atom_site_fract_z
 _atom_site_occupancy
  B  B0  1  0.70571500  0.27967600  0.00173800  1
  B  B1  1  0.79428500  0.27967600  0.50173800  1
  B  B2  1  0.29428500  0.72032400  0.99826200  1
  B  B3  1  0.20571500  0.72032400  0.49826200  1
  B  B4  1  0.59817500  0.27475800  0.94324900  1
  B  B5  1  0.90182500  0.27475800  0.44324900  1
  B  B6  1  0.40182500  0.72524200  0.05675100  1
  B  B7  1  0.09817500  0.72524200  0.55675100  1
  B  B8  1  0.63411600  0.48766100  0.94072000  1
  B  B9  1  0.86588400  0.48766100  0.44072000  1
  B  B10  1  0.36588400  0.51233900  0.05928000  1
  B  B11  1  0.13411600  0.51233900  0.55928000  1
  B  B12  1  0.74988900  0.52506700  0.92482300  1
  B  B13  1  0.75011100  0.52506700  0.42482300  1
  B  B14  1  0.25011100  0.47493300  0.07517700  1
  B  B15  1  0.24988900  0.47493300  0.57517700  1
  B  B16  1  0.69263600  0.19426200  0.88967100  1
  B  B17  1  0.80736400  0.19426200  0.38967100  1
  B  B18  1  0.30736400  0.80573800  0.11032900  1
  B  B19  1  0.19263600  0.80573800  0.61032900  1
  B  B20  1  0.60004600  0.32236100  0.77408300  1
  B  B21  1  0.89995400  0.32236100  0.27408300  1
  B  B22  1  0.39995400  0.67763900  0.22591700  1
  B  B23  1  0.10004600  0.67763900  0.72591700  1
  B  B24  1  0.57696300  0.52828600  0.79260100  1
  B  B25  1  0.92303700  0.52828600  0.29260100  1
  B  B26  1  0.42303700  0.47171400  0.20739900  1
  B  B27  1  0.07696300  0.47171400  0.70739900  1
  B  B28  1  0.67751700  0.68995200  0.78079800  1
  B  B29  1  0.82248300  0.68995200  0.28079800  1
  B  B30  1  0.32248300  0.31004800  0.21920200  1
  B  B31  1  0.17751700  0.31004800  0.71920200  1
  B  B32  1  0.78468600  0.62345700  0.75274300  1
  B  B33  1  0.71531400  0.62345700  0.25274300  1
  B  B34  1  0.21531400  0.37654300  0.24725700  1
  B  B35  1  0.28468600  0.37654300  0.74725700  1
  B  B36  1  0.79291000  0.35660100  0.88074300  1
  B  B37  1  0.70709000  0.35660100  0.38074300  1
  B  B38  1  0.20709000  0.64339900  0.11925700  1
  B  B39  1  0.29291000  0.64339900  0.61925700  1
  H  H0  1  0.72383300  0.15404000  0.12231900  1
  H  H1  1  0.77616700  0.15404000  0.62231900  1
  H  H2  1  0.27616700  0.84596000  0.87768100  1
  H  H3  1  0.22383300  0.84596000  0.37768100  1
  H  H4  1  0.54362800  0.15993500  0.02323900  1
  H  H5  1  0.95637200  0.15993500  0.52323900  1
  H  H6  1  0.45637200  0.84006500  0.97676100  1
  H  H7  1  0.04362800  0.84006500  0.47676100  1
  H  H8  1  0.59368200  0.53791200  0.00713100  1
  H  H9  1  0.90631800  0.53791200  0.50713100  1
  H  H10  1  0.40631800  0.46208800  0.99286900  1
  H  H11  1  0.09368200  0.46208800  0.49286900  1
  H  H12  1  0.78632100  0.56908400  0.99822100  1
  H  H13  1  0.71367900  0.56908400  0.49822100  1
  H  H14  1  0.21367900  0.43091600  0.00177900  1
  H  H15  1  0.28632100  0.43091600  0.50177900  1
  H  H16  1  0.70589300  0.02325700  0.92985100  1
  H  H17  1  0.79410700  0.02325700  0.42985100  1
  H  H18  1  0.29410700  0.97674300  0.07014900  1
  H  H19  1  0.20589300  0.97674300  0.57014900  1
  H  H20  1  0.50772200  0.61313800  0.75806900  1
  H  H21  1  0.99227800  0.61313800  0.25806900  1
  H  H22  1  0.49227800  0.38686200  0.24193100  1
  H  H23  1  0.00772200  0.38686200  0.74193100  1
  H  H24  1  0.66181600  0.86204100  0.73600900  1
  H  H25  1  0.83818400  0.86204100  0.23600900  1
  H  H26  1  0.33818400  0.13795900  0.26399100  1
  H  H27  1  0.16181600  0.13795900  0.76399100  1
  H  H28  1  0.84360400  0.73639400  0.68644900  1
  H  H29  1  0.65639600  0.73639400  0.18644900  1
  H  H30  1  0.15639600  0.26360600  0.31355100  1
  H  H31  1  0.34360400  0.26360600  0.81355100  1
  H  H32  1  0.86390900  0.27817700  0.91290100  1
  H  H33  1  0.63609100  0.27817700  0.41290100  1
  H  H34  1  0.13609100  0.72182300  0.08709900  1
  H  H35  1  0.36390900  0.72182300  0.58709900  1
  H  H36  1  0.68875200  0.29920700  0.75010700  1
  H  H37  1  0.81124800  0.29920700  0.25010700  1
  H  H38  1  0.31124800  0.70079300  0.24989300  1
  H  H39  1  0.18875200  0.70079300  0.74989300  1
  H  H40  1  0.60575400  0.52989900  0.68213800  1
  H  H41  1  0.89424600  0.52989900  0.18213800  1
  H  H42  1  0.39424600  0.47010100  0.31786200  1
  H  H43  1  0.10575400  0.47010100  0.81786200  1
  H  H44  1  0.71272500  0.69421700  0.67079700  1
  H  H45  1  0.78727500  0.69421700  0.17079700  1
  H  H46  1  0.28727500  0.30578300  0.32920300  1
  H  H47  1  0.21272500  0.30578300  0.82920300  1
  H  H48  1  0.79414300  0.46618100  0.73876800  1
  H  H49  1  0.70585700  0.46618100  0.23876800  1
  H  H50  1  0.20585700  0.53381900  0.26123200  1
  H  H51  1  0.29414300  0.53381900  0.76123200  1
  C  C0  1  0.49705600  0.17383300  0.66661800  1
  C  C1  1  0.00294400  0.17383300  0.16661800  1
  C  C2  1  0.50294400  0.82616700  0.33338200  1
  C  C3  1  0.99705600  0.82616700  0.83338200  1
  S  S0  1  0.43481700  0.07745000  0.60834800  1
  S  S1  1  0.06518300  0.07745000  0.10834800  1
  S  S2  1  0.56518300  0.92255000  0.39165200  1
  S  S3  1  0.93481700  0.92255000  0.89165200  1
  N  N0  1  0.54477100  0.24601000  0.71231400  1
  N  N1  1  0.95522900  0.24601000  0.21231400  1
  N  N2  1  0.45522900  0.75399000  0.28768600  1
  N  N3  1  0.04477100  0.75399000  0.78768600  1
loop_
_geom_bond_atom_site_label_1
_geom_bond_atom_site_label_2
_geom_bond_distance
_geom_bond_site_symmetry_2
B0 H0 1.191799 1_555
B1 H1 1.191799 1_555
B2 H2 1.191799 1_555
B3 H3 1.191799 1_555
B4 H4 1.191390 1_556
B5 H5 1.191390 1_555
B6 H6 1.191390 1_554
B7 H7 1.191390 1_555
B8 H8 1.193179 1_556
B9 H9 1.193179 1_555
B10 H10 1.193179 1_554
B11 H11 1.193179 1_555
B12 H12 1.195582 1_555
B13 H13 1.195582 1_555
B14 H14 1.195582 1_555
B15 H15 1.195582 1_555
B16 H16 1.189479 1_555
B16 H36 1.312674 1_555
B17 H17 1.189479 1_555
B17 H37 1.312674 1_555
B18 H18 1.189479 1_555
B18 H38 1.312674 1_555
B19 H19 1.189479 1_555
B19 H39 1.312674 1_555
B20 H40 1.384612 1_555
B20 H36 1.401824 1_555
B20 N0 1.420893 1_555
B21 H41 1.384612 1_555
B21 H37 1.401824 1_555
B21 N1 1.420893 1_555
B22 H42 1.384612 1_555
B22 H38 1.401824 1_555
B22 N2 1.420893 1_555
B23 H43 1.384612 1_555
B23 H39 1.401824 1_555
B23 N3 1.420893 1_555
B24 H20 1.189826 1_555
B24 H40 1.311656 1_555
B25 H21 1.189826 1_555
B25 H41 1.311656 1_555
B26 H22 1.189826 1_555
B26 H42 1.311656 1_555
B27 H23 1.189826 1_555
B27 H43 1.311656 1_555
B28 H24 1.192299 1_555
B28 H44 1.331867 1_555
B29 H25 1.192299 1_555
B29 H45 1.331867 1_555
B30 H26 1.192299 1_555
B30 H46 1.331867 1_555
B31 H27 1.192299 1_555
B31 H47 1.331867 1_555
B32 H28 1.191448 1_555
B32 H44 1.334974 1_555
B32 H48 1.351452 1_555
B33 H29 1.191448 1_555
B33 H45 1.334974 1_555
B33 H49 1.351452 1_555
B34 H30 1.191448 1_555
B34 H46 1.334974 1_555
B34 H50 1.351452 1_555
B35 H31 1.191448 1_555
B35 H47 1.334974 1_555
B35 H51 1.351452 1_555
B36 H32 1.194190 1_555
B36 H48 1.333767 1_555
B37 H33 1.194190 1_555
B37 H49 1.333767 1_555
B38 H34 1.194190 1_555
B38 H50 1.333767 1_555
B39 H35 1.194190 1_555
B39 H51 1.333767 1_555
C0 N0 1.200849 1_555
C0 S0 1.568742 1_555
C1 N1 1.200849 1_455
C1 S1 1.568742 1_555
C2 N2 1.200849 1_555
C2 S2 1.568742 1_555
C3 N3 1.200849 1_655
C3 S3 1.568742 1_555
