# generated using pymatgen
data_LiFeSiO4
_symmetry_space_group_name_H-M   'P 1'
_cell_length_a   10.18506536
_cell_length_b   10.18506536
_cell_length_c   16.39797141
_cell_angle_alpha   82.35490050
_cell_angle_beta   82.35490050
_cell_angle_gamma   58.63094956
_symmetry_Int_Tables_number   1
_chemical_formula_structural   LiFeSiO4
_chemical_formula_sum   'Li16 Fe16 Si16 O64'
_cell_volume   1435.40819424
_cell_formula_units_Z   16
loop_
 _symmetry_equiv_pos_site_id
 _symmetry_equiv_pos_as_xyz
  1  'x, y, z'
loop_
 _atom_site_type_symbol
 _atom_site_label
 _atom_site_symmetry_multiplicity
 _atom_site_fract_x
 _atom_site_fract_y
 _atom_site_fract_z
 _atom_site_occupancy
  Li  Li0  1  0.20476500  0.80695800  0.00300900  1
  Li  Li1  1  0.80695800  0.20476500  0.50300900  1
  Li  Li2  1  0.70255000  0.57666900  0.25303500  1
  Li  Li3  1  0.26380700  0.07590800  0.25112400  1
  Li  Li4  1  0.13985500  0.30719200  0.00121100  1
  Li  Li5  1  0.57666900  0.70255000  0.75303500  1
  Li  Li6  1  0.70628300  0.80563400  0.00387300  1
  Li  Li7  1  0.07590800  0.26380700  0.75112400  1
  Li  Li8  1  0.30719200  0.13985500  0.50121100  1
  Li  Li9  1  0.80563400  0.70628300  0.50387300  1
  Li  Li10  1  0.20425200  0.56732500  0.25215400  1
  Li  Li11  1  0.76472900  0.08354100  0.25419500  1
  Li  Li12  1  0.63986600  0.30681400  0.00211500  1
  Li  Li13  1  0.56732500  0.20425200  0.75215400  1
  Li  Li14  1  0.08354100  0.76472900  0.75419500  1
  Li  Li15  1  0.30681400  0.63986600  0.50211500  1
  Fe  Fe0  1  0.87875500  0.27172000  0.12824700  1
  Fe  Fe1  1  0.44627600  0.77319000  0.12822600  1
  Fe  Fe2  1  0.27172000  0.87875500  0.62824700  1
  Fe  Fe3  1  0.77319000  0.44627600  0.62822600  1
  Fe  Fe4  1  0.00429100  0.32103100  0.37791800  1
  Fe  Fe5  1  0.50842600  0.88138400  0.37929600  1
  Fe  Fe6  1  0.32103100  0.00429100  0.87791800  1
  Fe  Fe7  1  0.88138400  0.50842600  0.87929600  1
  Fe  Fe8  1  0.37663600  0.27516400  0.12725000  1
  Fe  Fe9  1  0.94727400  0.77082200  0.12974100  1
  Fe  Fe10  1  0.27516400  0.37663600  0.62725000  1
  Fe  Fe11  1  0.77082200  0.94727400  0.62974100  1
  Fe  Fe12  1  0.00843200  0.82090900  0.37889100  1
  Fe  Fe13  1  0.50370600  0.38269300  0.37932700  1
  Fe  Fe14  1  0.82090900  0.00843200  0.87889100  1
  Fe  Fe15  1  0.38269300  0.50370600  0.87932700  1
  Si  Si0  1  0.10205700  0.91665800  0.19072300  1
  Si  Si1  1  0.91665800  0.10205700  0.69072300  1
  Si  Si2  1  0.16651600  0.98072900  0.43992300  1
  Si  Si3  1  0.66451800  0.53823500  0.44152100  1
  Si  Si4  1  0.98072900  0.16651600  0.93992300  1
  Si  Si5  1  0.53823500  0.66451800  0.94152100  1
  Si  Si6  1  0.04077400  0.41927800  0.18855700  1
  Si  Si7  1  0.60320700  0.92101100  0.19035200  1
  Si  Si8  1  0.41927800  0.04077400  0.68855700  1
  Si  Si9  1  0.92101100  0.60320700  0.69035200  1
  Si  Si10  1  0.16408800  0.47980400  0.43999700  1
  Si  Si11  1  0.66576100  0.03980800  0.44210200  1
  Si  Si12  1  0.47980400  0.16408800  0.93999700  1
  Si  Si13  1  0.03980800  0.66576100  0.94210200  1
  Si  Si14  1  0.54245100  0.42177700  0.18866400  1
  Si  Si15  1  0.42177700  0.54245100  0.68866400  1
  O  O0  1  0.67156200  0.33522800  0.11241500  1
  O  O1  1  0.95071800  0.09005800  0.20143400  1
  O  O2  1  0.52254900  0.58953900  0.19886600  1
  O  O3  1  0.41855000  0.74253300  0.02216300  1
  O  O4  1  0.33522800  0.67156200  0.61241500  1
  O  O5  1  0.50544600  0.54624500  0.42321500  1
  O  O6  1  0.98561800  0.23796500  0.02324200  1
  O  O7  1  0.25842100  0.92810100  0.17863900  1
  O  O8  1  0.09005800  0.95071800  0.70143400  1
  O  O9  1  0.00143200  0.14110500  0.42448200  1
  O  O10  1  0.58953900  0.52254900  0.69886600  1
  O  O11  1  0.74253300  0.41855000  0.52216300  1
  O  O12  1  0.54624500  0.50544600  0.92321500  1
  O  O13  1  0.79336600  0.47101300  0.36219900  1
  O  O14  1  0.29526100  0.96777500  0.36385700  1
  O  O15  1  0.87630900  0.43779600  0.17186600  1
  O  O16  1  0.23796500  0.98561800  0.52324200  1
  O  O17  1  0.92810100  0.25842100  0.67863900  1
  O  O18  1  0.14110500  0.00143200  0.92448200  1
  O  O19  1  0.62570800  0.71190100  0.45549800  1
  O  O20  1  0.59283100  0.83915400  0.11274000  1
  O  O21  1  0.10816900  0.29924000  0.27096600  1
  O  O22  1  0.60525400  0.81054500  0.27399200  1
  O  O23  1  0.47101300  0.79336600  0.86219900  1
  O  O24  1  0.96777500  0.29526100  0.86385700  1
  O  O25  1  0.43779600  0.87630900  0.67186600  1
  O  O26  1  0.16964600  0.33919600  0.11089200  1
  O  O27  1  0.44881100  0.09288000  0.19947500  1
  O  O28  1  0.13118200  0.33697800  0.44870200  1
  O  O29  1  0.71190100  0.62570800  0.95549800  1
  O  O30  1  0.83915400  0.59283100  0.61274000  1
  O  O31  1  0.29924000  0.10816900  0.77096600  1
  O  O32  1  0.81054500  0.60525400  0.77399200  1
  O  O33  1  0.02163300  0.58596100  0.20102800  1
  O  O34  1  0.92036900  0.74002700  0.02346100  1
  O  O35  1  0.33919600  0.16964600  0.61089200  1
  O  O36  1  0.50864400  0.04583000  0.42225800  1
  O  O37  1  0.48275400  0.24020700  0.02194500  1
  O  O38  1  0.75953900  0.93234600  0.17715400  1
  O  O39  1  0.09288000  0.44881100  0.69947500  1
  O  O40  1  0.33697800  0.13118200  0.94870200  1
  O  O41  1  0.00105500  0.64302200  0.42532000  1
  O  O42  1  0.58596100  0.02163300  0.70102800  1
  O  O43  1  0.74002700  0.92036900  0.52346100  1
  O  O44  1  0.04583000  0.50864400  0.92225800  1
  O  O45  1  0.29133500  0.46421300  0.36226600  1
  O  O46  1  0.79914200  0.97398700  0.36474800  1
  O  O47  1  0.24020700  0.48275400  0.52194500  1
  O  O48  1  0.37916100  0.43734100  0.17221100  1
  O  O49  1  0.93234600  0.75953900  0.67715400  1
  O  O50  1  0.64302200  0.00105500  0.92532000  1
  O  O51  1  0.62374200  0.21462500  0.45580400  1
  O  O52  1  0.09043100  0.84108200  0.11062400  1
  O  O53  1  0.10368900  0.79805900  0.27015200  1
  O  O54  1  0.60851200  0.31282200  0.27457500  1
  O  O55  1  0.46421300  0.29133500  0.86226600  1
  O  O56  1  0.97398700  0.79914200  0.86474800  1
  O  O57  1  0.43734100  0.37916100  0.67221100  1
  O  O58  1  0.21462500  0.62374200  0.95580400  1
  O  O59  1  0.13772300  0.83517900  0.44798700  1
  O  O60  1  0.84108200  0.09043100  0.61062400  1
  O  O61  1  0.79805900  0.10368900  0.77015200  1
  O  O62  1  0.31282200  0.60851200  0.77457500  1
  O  O63  1  0.83517900  0.13772300  0.94798700  1
loop_
_geom_bond_atom_site_label_1
_geom_bond_atom_site_label_2
_geom_bond_distance
_geom_bond_site_symmetry_2
Li0 O52 1.945755 1_555
Li0 O3 1.977372 1_555
Li0 O18 2.051411 1_564
Li0 O58 2.063981 1_554
Li1 O60 1.945755 1_555
Li1 O11 1.977372 1_555
Li1 O9 2.051411 1_655
Li1 O51 2.063981 1_555
Li2 O13 2.027230 1_555
Li2 O15 2.042622 1_555
Li2 O2 2.078312 1_555
Li2 O22 2.108056 1_555
Li3 O14 1.995349 1_545
Li3 O21 2.024468 1_555
Li3 O27 2.042847 1_555
Li3 O7 2.064346 1_545
Li4 O26 1.958888 1_555
Li4 O6 2.007434 1_455
Li4 O40 2.046857 1_554
Li4 O44 2.092984 1_554
Li5 O23 2.027230 1_555
Li5 O25 2.042622 1_555
Li5 O10 2.078312 1_555
Li5 O32 2.108056 1_555
Li6 O20 1.959923 1_555
Li6 O34 1.979018 1_555
Li6 O50 2.059003 1_564
Li6 O29 2.063088 1_554
Li7 O24 1.995349 1_455
Li7 O31 2.024468 1_555
Li7 O39 2.042847 1_555
Li7 O17 2.064346 1_455
Li8 O35 1.958888 1_555
Li8 O16 2.007434 1_545
Li8 O28 2.046857 1_555
Li8 O36 2.092984 1_555
Li9 O30 1.959923 1_555
Li9 O43 1.979018 1_555
Li9 O41 2.059003 1_655
Li9 O19 2.063088 1_555
Li10 O48 2.007430 1_555
Li10 O45 2.025254 1_555
Li10 O33 2.050229 1_555
Li10 O53 2.063261 1_555
Li11 O46 1.969260 1_545
Li11 O1 2.005217 1_555
Li11 O54 2.072315 1_555
Li11 O38 2.142496 1_545
Li12 O0 1.962459 1_555
Li12 O37 2.014851 1_555
Li12 O63 2.020201 1_554
Li12 O12 2.073513 1_554
Li13 O57 2.007430 1_555
Li13 O55 2.025254 1_555
Li13 O42 2.050229 1_555
Li13 O61 2.063261 1_555
Li14 O56 1.969260 1_455
Li14 O8 2.005217 1_555
Li14 O62 2.072315 1_555
Li14 O49 2.142496 1_455
Li15 O4 1.962459 1_555
Li15 O47 2.014851 1_555
Li15 O59 2.020201 1_555
Li15 O5 2.073513 1_555
Fe0 O6 1.880678 1_555
Fe0 O0 1.902379 1_555
Fe0 O1 1.905846 1_555
Fe0 O15 1.909627 1_555
Fe1 O3 1.889204 1_555
Fe1 O2 1.895826 1_555
Fe1 O7 1.901813 1_555
Fe1 O20 1.908337 1_555
Fe2 O16 1.880678 1_555
Fe2 O4 1.902379 1_555
Fe2 O8 1.905846 1_555
Fe2 O25 1.909627 1_555
Fe3 O11 1.889204 1_555
Fe3 O10 1.895826 1_555
Fe3 O17 1.901813 1_555
Fe3 O30 1.908337 1_555
Fe4 O21 1.899954 1_555
Fe4 O9 1.902490 1_555
Fe4 O13 1.908165 1_455
Fe4 O28 1.926591 1_555
Fe5 O22 1.900656 1_555
Fe5 O36 1.902582 1_565
Fe5 O19 1.909069 1_555
Fe5 O14 1.910526 1_555
Fe6 O31 1.899954 1_555
Fe6 O18 1.902490 1_555
Fe6 O23 1.908165 1_545
Fe6 O40 1.926591 1_555
Fe7 O32 1.900656 1_555
Fe7 O44 1.902582 1_655
Fe7 O29 1.909069 1_555
Fe7 O24 1.910526 1_555
Fe8 O37 1.882313 1_555
Fe8 O26 1.901136 1_555
Fe8 O27 1.901487 1_555
Fe8 O48 1.909427 1_555
Fe9 O34 1.890166 1_555
Fe9 O38 1.907062 1_555
Fe9 O52 1.908213 1_655
Fe9 O33 1.910617 1_655
Fe10 O47 1.882313 1_555
Fe10 O35 1.901136 1_555
Fe10 O39 1.901487 1_555
Fe10 O57 1.909427 1_555
Fe11 O43 1.890166 1_555
Fe11 O49 1.907062 1_555
Fe11 O60 1.908213 1_565
Fe11 O42 1.910617 1_565
Fe12 O53 1.894713 1_555
Fe12 O46 1.898357 1_455
Fe12 O41 1.904562 1_555
Fe12 O59 1.918074 1_555
Fe13 O54 1.908657 1_555
Fe13 O5 1.909502 1_555
Fe13 O51 1.911949 1_555
Fe13 O45 1.917224 1_555
Fe14 O61 1.894713 1_555
Fe14 O56 1.898357 1_545
Fe14 O50 1.904562 1_555
Fe14 O63 1.918074 1_555
Fe15 O62 1.908657 1_555
Fe15 O12 1.909502 1_555
Fe15 O58 1.911949 1_555
Fe15 O55 1.917224 1_555
O0 Si14 1.648810 1_555
O1 Si0 1.643839 1_645
O2 Si14 1.641665 1_555
O3 Si5 1.645674 1_554
O4 Si15 1.648810 1_555
O5 Si3 1.645283 1_555
O6 Si4 1.648966 1_554
O7 Si0 1.640817 1_555
O8 Si1 1.643839 1_465
O9 Si2 1.644148 1_545
O10 Si15 1.641665 1_555
O11 Si3 1.645674 1_555
O12 Si5 1.645283 1_555
O13 Si3 1.652326 1_555
O14 Si2 1.649595 1_555
O15 Si6 1.641869 1_655
O16 Si2 1.648966 1_555
O17 Si1 1.640817 1_555
O18 Si4 1.644148 1_455
O19 Si3 1.641122 1_555
O20 Si7 1.654026 1_555
O21 Si6 1.650923 1_555
O22 Si7 1.649237 1_555
O23 Si5 1.652326 1_555
O24 Si4 1.649595 1_555
O25 Si8 1.641869 1_565
O26 Si6 1.651382 1_555
O27 Si7 1.643387 1_545
O28 Si10 1.639643 1_555
O29 Si5 1.641122 1_555
O30 Si9 1.654026 1_555
O31 Si8 1.650923 1_555
O32 Si9 1.649237 1_555
O33 Si6 1.642904 1_555
O34 Si13 1.646387 1_654
O35 Si8 1.651382 1_555
O36 Si11 1.643622 1_555
O37 Si12 1.649210 1_554
O38 Si7 1.639656 1_555
O39 Si9 1.643387 1_455
O40 Si12 1.639643 1_555
O41 Si10 1.644615 1_555
O42 Si8 1.642904 1_555
O43 Si11 1.646387 1_565
O44 Si13 1.643622 1_555
O45 Si10 1.652157 1_555
O46 Si11 1.650305 1_565
O47 Si10 1.649210 1_555
O48 Si14 1.642382 1_555
O49 Si9 1.639656 1_555
O50 Si12 1.644615 1_555
O51 Si11 1.640561 1_555
O52 Si0 1.654386 1_555
O53 Si0 1.649871 1_555
O54 Si14 1.651574 1_555
O55 Si12 1.652157 1_555
O56 Si13 1.650305 1_655
O57 Si15 1.642382 1_555
O58 Si13 1.640561 1_555
O59 Si2 1.640497 1_555
O60 Si1 1.654386 1_555
O61 Si1 1.649871 1_555
O62 Si15 1.651574 1_555
O63 Si4 1.640497 1_555
