# generated using pymatgen
data_Na6Cu2C4SO16
_symmetry_space_group_name_H-M   'P 1'
_cell_length_a   9.87146522
_cell_length_b   9.87146522
_cell_length_c   9.87146522
_cell_angle_alpha   60.00000000
_cell_angle_beta   60.00000000
_cell_angle_gamma   60.00000000
_symmetry_Int_Tables_number   1
_chemical_formula_structural   Na6Cu2C4SO16
_chemical_formula_sum   'Na12 Cu4 C8 S2 O32'
_cell_volume   680.18940339
_cell_formula_units_Z   2
loop_
 _symmetry_equiv_pos_site_id
 _symmetry_equiv_pos_as_xyz
  1  'x, y, z'
loop_
 _atom_site_type_symbol
 _atom_site_label
 _atom_site_symmetry_multiplicity
 _atom_site_fract_x
 _atom_site_fract_y
 _atom_site_fract_z
 _atom_site_occupancy
  Na  Na0  1  0.96435800  0.96435800  0.53564200  1
  Na  Na1  1  0.71435800  0.71435800  0.28564200  1
  Na  Na2  1  0.53564200  0.96435800  0.96435800  1
  Na  Na3  1  0.28564200  0.71435800  0.71435800  1
  Na  Na4  1  0.53564200  0.96435800  0.53564200  1
  Na  Na5  1  0.28564200  0.71435800  0.28564200  1
  Na  Na6  1  0.96435800  0.53564200  0.96435800  1
  Na  Na7  1  0.96435800  0.53564200  0.53564200  1
  Na  Na8  1  0.71435800  0.28564200  0.71435800  1
  Na  Na9  1  0.71435800  0.28564200  0.28564200  1
  Na  Na10  1  0.53564200  0.53564200  0.96435800  1
  Na  Na11  1  0.28564200  0.28564200  0.71435800  1
  Cu  Cu0  1  0.12500000  0.62500000  0.12500000  1
  Cu  Cu1  1  0.12500000  0.12500000  0.12500000  1
  Cu  Cu2  1  0.12500000  0.12500000  0.62500000  1
  Cu  Cu3  1  0.62500000  0.12500000  0.12500000  1
  C  C0  1  0.90474000  0.90474000  0.28577900  1
  C  C1  1  0.90474000  0.90474000  0.90474000  1
  C  C2  1  0.90474000  0.28577900  0.90474000  1
  C  C3  1  0.96422100  0.34526000  0.34526000  1
  C  C4  1  0.34526000  0.96422100  0.34526000  1
  C  C5  1  0.28577900  0.90474000  0.90474000  1
  C  C6  1  0.34526000  0.34526000  0.96422100  1
  C  C7  1  0.34526000  0.34526000  0.34526000  1
  S  S0  1  0.75000000  0.75000000  0.75000000  1
  S  S1  1  0.50000000  0.50000000  0.50000000  1
  O  O0  1  0.02487000  0.76391700  0.28792700  1
  O  O1  1  0.93535700  0.68821400  0.68821400  1
  O  O2  1  0.92328600  0.76391700  0.02487000  1
  O  O3  1  0.02487000  0.92328600  0.76391700  1
  O  O4  1  0.68821400  0.68821400  0.93535700  1
  O  O5  1  0.68821400  0.68821400  0.68821400  1
  O  O6  1  0.92328600  0.02487000  0.28792700  1
  O  O7  1  0.76391700  0.92328600  0.28792700  1
  O  O8  1  0.68821400  0.93535700  0.68821400  1
  O  O9  1  0.02487000  0.28792700  0.92328600  1
  O  O10  1  0.96207300  0.22513000  0.48608300  1
  O  O11  1  0.76391700  0.02487000  0.92328600  1
  O  O12  1  0.92328600  0.28792700  0.76391700  1
  O  O13  1  0.96207300  0.32671400  0.22513000  1
  O  O14  1  0.28792700  0.76391700  0.92328600  1
  O  O15  1  0.48608300  0.96207300  0.22513000  1
  O  O16  1  0.96207300  0.48608300  0.32671400  1
  O  O17  1  0.76391700  0.28792700  0.02487000  1
  O  O18  1  0.28792700  0.92328600  0.02487000  1
  O  O19  1  0.32671400  0.96207300  0.48608300  1
  O  O20  1  0.48608300  0.22513000  0.32671400  1
  O  O21  1  0.28792700  0.02487000  0.76391700  1
  O  O22  1  0.22513000  0.96207300  0.32671400  1
  O  O23  1  0.56178600  0.31464300  0.56178600  1
  O  O24  1  0.48608300  0.32671400  0.96207300  1
  O  O25  1  0.32671400  0.22513000  0.96207300  1
  O  O26  1  0.56178600  0.56178600  0.56178600  1
  O  O27  1  0.56178600  0.56178600  0.31464300  1
  O  O28  1  0.22513000  0.32671400  0.48608300  1
  O  O29  1  0.32671400  0.48608300  0.22513000  1
  O  O30  1  0.31464300  0.56178600  0.56178600  1
  O  O31  1  0.22513000  0.48608300  0.96207300  1
loop_
_geom_bond_atom_site_label_1
_geom_bond_atom_site_label_2
_geom_bond_distance
_geom_bond_site_symmetry_2
Na0 O22 2.357961 1_655
Na0 O10 2.357961 1_565
Na0 O6 2.406096 1_565
Na0 O3 2.406096 1_655
Na0 O1 2.454536 1_555
Na0 O8 2.454536 1_555
Na1 O2 2.357961 1_555
Na1 O7 2.357961 1_555
Na1 O15 2.406096 1_555
Na1 O16 2.406096 1_555
Na1 O27 2.454528 1_555
Na1 O26 2.454533 1_555
Na2 O25 2.357961 1_565
Na2 O15 2.357961 1_556
Na2 O18 2.406096 1_556
Na2 O11 2.406096 1_565
Na2 O4 2.454536 1_555
Na2 O8 2.454536 1_555
Na3 O3 2.357961 1_555
Na3 O14 2.357961 1_555
Na3 O31 2.406096 1_555
Na3 O19 2.406096 1_555
Na3 O30 2.454528 1_555
Na3 O26 2.454533 1_555
Na4 O19 2.357961 1_555
Na4 O20 2.357961 1_565
Na4 O7 2.406096 1_555
Na4 O21 2.406096 1_565
Na4 O8 2.454528 1_555
Na4 O5 2.454533 1_555
Na5 O0 2.357961 1_555
Na5 O18 2.357961 1_555
Na5 O29 2.406096 1_555
Na5 O22 2.406096 1_555
Na5 O27 2.454536 1_555
Na5 O30 2.454536 1_555
Na6 O13 2.357961 1_556
Na6 O31 2.357961 1_655
Na6 O9 2.406096 1_655
Na6 O2 2.406096 1_556
Na6 O1 2.454536 1_555
Na6 O4 2.454536 1_555
Na7 O16 2.357961 1_555
Na7 O28 2.357961 1_655
Na7 O12 2.406096 1_555
Na7 O0 2.406096 1_655
Na7 O1 2.454528 1_555
Na7 O5 2.454533 1_555
Na8 O11 2.357961 1_555
Na8 O12 2.357961 1_555
Na8 O10 2.406096 1_555
Na8 O24 2.406096 1_555
Na8 O23 2.454528 1_555
Na8 O26 2.454533 1_555
Na9 O17 2.357961 1_555
Na9 O6 2.357961 1_555
Na9 O20 2.406096 1_555
Na9 O13 2.406096 1_555
Na9 O23 2.454536 1_555
Na9 O27 2.454536 1_555
Na10 O24 2.357961 1_555
Na10 O29 2.357961 1_556
Na10 O14 2.406096 1_555
Na10 O17 2.406096 1_556
Na10 O4 2.454528 1_555
Na10 O5 2.454533 1_555
Na11 O21 2.357961 1_555
Na11 O9 2.357961 1_555
Na11 O28 2.406096 1_555
Na11 O25 2.406096 1_555
Na11 O23 2.454536 1_555
Na11 O30 2.454536 1_555
Cu0 O0 2.169003 1_555
Cu0 O29 2.169003 1_555
Cu0 O31 2.169003 1_554
Cu0 O16 2.169003 1_455
Cu0 O14 2.169003 1_554
Cu0 O2 2.169003 1_455
Cu1 O22 2.169003 1_545
Cu1 O13 2.169003 1_455
Cu1 O25 2.169003 1_554
Cu1 O18 2.169003 1_545
Cu1 O6 2.169003 1_455
Cu1 O9 2.169003 1_554
Cu2 O21 2.169003 1_555
Cu2 O28 2.169003 1_555
Cu2 O19 2.169003 1_545
Cu2 O10 2.169003 1_455
Cu2 O12 2.169003 1_455
Cu2 O3 2.169003 1_545
Cu3 O17 2.169003 1_555
Cu3 O20 2.169003 1_555
Cu3 O15 2.169003 1_545
Cu3 O24 2.169003 1_554
Cu3 O7 2.169003 1_545
Cu3 O11 2.169003 1_554
C0 O7 1.298589 1_555
C0 O0 1.298592 1_655
C0 O6 1.298598 1_565
C1 O11 1.298593 1_565
C1 O3 1.298593 1_655
C1 O2 1.298593 1_556
C2 O12 1.298589 1_555
C2 O17 1.298592 1_556
C2 O9 1.298598 1_655
C3 O16 1.298589 1_555
C3 O10 1.298592 1_555
C3 O13 1.298598 1_555
C4 O19 1.298589 1_555
C4 O15 1.298592 1_555
C4 O22 1.298598 1_555
C5 O14 1.298589 1_555
C5 O21 1.298592 1_565
C5 O18 1.298598 1_556
C6 O24 1.298589 1_555
C6 O31 1.298592 1_555
C6 O25 1.298598 1_555
C7 O29 1.298593 1_555
C7 O20 1.298593 1_555
C7 O28 1.298593 1_555
O1 S0 1.493981 1_555
O4 S0 1.493981 1_555
O5 S0 1.493989 1_555
O8 S0 1.493981 1_555
O23 S1 1.493981 1_555
O26 S1 1.493989 1_555
O27 S1 1.493981 1_555
O30 S1 1.493981 1_555
