# generated using pymatgen
data_Y2O3
_symmetry_space_group_name_H-M   'P 1'
_cell_length_a   14.32113535
_cell_length_b   3.47081529
_cell_length_c   8.53851731
_cell_angle_alpha   90.00000000
_cell_angle_beta   98.75476689
_cell_angle_gamma   90.00000000
_symmetry_Int_Tables_number   1
_chemical_formula_structural   Y2O3
_chemical_formula_sum   'Y12 O18'
_cell_volume   419.47074361
_cell_formula_units_Z   6
loop_
 _symmetry_equiv_pos_site_id
 _symmetry_equiv_pos_as_xyz
  1  'x, y, z'
loop_
 _atom_site_type_symbol
 _atom_site_label
 _atom_site_symmetry_multiplicity
 _atom_site_fract_x
 _atom_site_fract_y
 _atom_site_fract_z
 _atom_site_occupancy
  Y  Y0  1  0.00805307  0.25000000  0.18320687  1
  Y  Y1  1  0.11605394  0.25000000  0.54429683  1
  Y  Y2  1  0.21920535  0.75000000  0.17875134  1
  Y  Y3  1  0.28471563  0.75000000  0.81833449  1
  Y  Y4  1  0.39245776  0.25000000  0.49445825  1
  Y  Y5  1  0.43658312  0.25000000  0.13189010  1
  Y  Y6  1  0.56341688  0.75000000  0.86810990  1
  Y  Y7  1  0.60754224  0.75000000  0.50554175  1
  Y  Y8  1  0.71528437  0.25000000  0.18166551  1
  Y  Y9  1  0.78079465  0.25000000  0.82124866  1
  Y  Y10  1  0.88394606  0.75000000  0.45570317  1
  Y  Y11  1  0.99194693  0.75000000  0.81679313  1
  O  O0  1  0.03143836  0.75000000  0.37961701  1
  O  O1  1  0.13077990  0.75000000  0.71738609  1
  O  O2  1  0.07099444  0.75000000  0.06243274  1
  O  O3  1  0.18506675  0.25000000  0.31869678  1
  O  O4  1  0.28326099  0.25000000  0.65359035  1
  O  O5  1  0.27146017  0.25000000  0.01317571  1
  O  O6  1  0.42653278  0.75000000  0.96763174  1
  O  O7  1  0.37120353  0.75000000  0.29786118  1
  O  O8  1  0.46417253  0.75000000  0.62657476  1
  O  O9  1  0.53582747  0.25000000  0.37342524  1
  O  O10  1  0.62879647  0.25000000  0.70213882  1
  O  O11  1  0.57346722  0.25000000  0.03236826  1
  O  O12  1  0.72853983  0.75000000  0.98682429  1
  O  O13  1  0.71673901  0.75000000  0.34640965  1
  O  O14  1  0.81493325  0.75000000  0.68130322  1
  O  O15  1  0.92900556  0.25000000  0.93756726  1
  O  O16  1  0.86922010  0.25000000  0.28261391  1
  O  O17  1  0.96856164  0.25000000  0.62038299  1
loop_
_geom_bond_atom_site_label_1
_geom_bond_atom_site_label_2
_geom_bond_distance
_geom_bond_site_symmetry_2
O0 Y10 2.302482 1_455
O0 Y0 2.401110 1_555
O0 Y0 2.401110 1_565
O0 Y1 2.436916 1_565
O0 Y1 2.436916 1_555
O1 Y3 2.241537 1_555
O1 Y1 2.268369 1_565
O1 Y1 2.268369 1_555
O1 Y11 2.277562 1_455
O2 Y2 2.202251 1_555
O2 Y11 2.226619 1_454
O2 Y0 2.273884 1_555
O2 Y0 2.273884 1_565
O3 Y2 2.203714 1_555
O3 Y2 2.203714 1_545
O3 Y1 2.294986 1_555
O3 Y0 2.621456 1_555
O4 Y4 2.222290 1_555
O4 Y3 2.232012 1_545
O4 Y3 2.232012 1_555
O4 Y1 2.434071 1_555
O5 Y5 2.426897 1_555
O5 Y2 2.427442 1_545
O5 Y2 2.427442 1_555
O5 Y3 2.431371 1_554
O5 Y3 2.431371 1_544
O6 Y5 2.222156 1_556
O6 Y5 2.222156 1_566
O6 Y3 2.227512 1_555
O6 Y6 2.252137 1_555
O7 Y2 2.258056 1_555
O7 Y4 2.401376 1_555
O7 Y4 2.401376 1_565
O7 Y5 2.510088 1_555
O7 Y5 2.510088 1_565
O8 Y4 2.233008 1_565
O8 Y4 2.233008 1_555
O8 Y6 2.319714 1_555
O8 Y7 2.435083 1_555
O9 Y7 2.233008 1_555
O9 Y7 2.233008 1_545
O9 Y5 2.319714 1_555
O9 Y4 2.435083 1_555
O10 Y9 2.258056 1_555
O10 Y7 2.401376 1_545
O10 Y7 2.401376 1_555
O10 Y6 2.510088 1_555
O10 Y6 2.510088 1_545
O11 Y6 2.222156 1_554
O11 Y6 2.222156 1_544
O11 Y8 2.227512 1_555
O11 Y5 2.252137 1_555
O12 Y6 2.426897 1_555
O12 Y9 2.427442 1_555
O12 Y9 2.427442 1_565
O12 Y8 2.431371 1_556
O12 Y8 2.431371 1_566
O13 Y7 2.222290 1_555
O13 Y8 2.232012 1_565
O13 Y8 2.232012 1_555
O13 Y10 2.434071 1_555
O14 Y9 2.203714 1_555
O14 Y9 2.203714 1_565
O14 Y10 2.294986 1_555
O14 Y11 2.621456 1_555
O15 Y9 2.202251 1_555
O15 Y0 2.226619 1_656
O15 Y11 2.273884 1_555
O15 Y11 2.273884 1_545
O16 Y8 2.241537 1_555
O16 Y10 2.268369 1_555
O16 Y10 2.268369 1_545
O16 Y0 2.277562 1_655
O17 Y1 2.302482 1_655
O17 Y11 2.401110 1_545
O17 Y11 2.401110 1_555
O17 Y10 2.436916 1_555
O17 Y10 2.436916 1_545
