# generated using pymatgen
data_Li6V3P8O29
_symmetry_space_group_name_H-M   'P 1'
_cell_length_a   9.78306400
_cell_length_b   9.78936005
_cell_length_c   13.97569010
_cell_angle_alpha   89.90622853
_cell_angle_beta   90.20552532
_cell_angle_gamma   119.72263358
_symmetry_Int_Tables_number   1
_chemical_formula_structural   Li6V3P8O29
_chemical_formula_sum   'Li12 V6 P16 O58'
_cell_volume   1162.35112412
_cell_formula_units_Z   2
loop_
 _symmetry_equiv_pos_site_id
 _symmetry_equiv_pos_as_xyz
  1  'x, y, z'
loop_
 _atom_site_type_symbol
 _atom_site_label
 _atom_site_symmetry_multiplicity
 _atom_site_fract_x
 _atom_site_fract_y
 _atom_site_fract_z
 _atom_site_occupancy
  Li  Li0  1  0.09815300  0.76605200  0.55920600  1
  Li  Li1  1  0.66539500  0.90572900  0.56083200  1
  Li  Li2  1  0.66944900  0.76603400  0.05743400  1
  Li  Li3  1  0.10442900  0.33716800  0.05908000  1
  Li  Li4  1  0.76196400  0.66717300  0.44099600  1
  Li  Li5  1  0.23410100  0.33716600  0.56284700  1
  Li  Li6  1  0.91598600  0.67892500  0.93694900  1
  Li  Li7  1  0.65409500  0.32923500  0.11147300  1
  Li  Li8  1  0.33327000  0.09788100  0.43851500  1
  Li  Li9  1  0.77261600  0.09460800  0.93860300  1
  Li  Li10  1  0.08004500  0.02282300  0.00703400  1
  Li  Li11  1  0.98571400  0.03828400  0.49442500  1
  V  V0  1  0.56000800  0.56127300  0.24957500  1
  V  V1  1  0.43522900  0.43228500  0.75442400  1
  V  V2  1  0.00236400  0.56393500  0.74779500  1
  V  V3  1  0.99644300  0.43232600  0.25233200  1
  V  V4  1  0.43226800  0.99418100  0.24856600  1
  V  V5  1  0.56315100  0.00083900  0.75106600  1
  P  P0  1  0.22295600  0.91381400  0.83992100  1
  P  P1  1  0.08289800  0.77281200  0.34084000  1
  P  P2  1  0.69099800  0.91462300  0.34506000  1
  P  P3  1  0.33191800  0.66392600  0.12969600  1
  P  P4  1  0.33557900  0.66627900  0.63065800  1
  P  P5  1  0.68595700  0.77298000  0.84150600  1
  P  P6  1  0.77164500  0.68557000  0.65760200  1
  P  P7  1  0.08692100  0.31224600  0.84543200  1
  P  P8  1  0.90937600  0.68565600  0.15433000  1
  P  P9  1  0.22632300  0.31309400  0.34429200  1
  P  P10  1  0.30797600  0.21726600  0.15993400  1
  P  P11  1  0.66272700  0.33139300  0.36832600  1
  P  P12  1  0.67177000  0.33710600  0.87100100  1
  P  P13  1  0.31070300  0.08545000  0.65513900  1
  P  P14  1  0.91351300  0.22049800  0.66080600  1
  P  P15  1  0.77439900  0.08919300  0.15948000  1
  O  O0  1  0.22761100  0.00007800  0.56422200  1
  O  O1  1  0.25063400  0.91542100  0.34157000  1
  O  O2  1  0.99281100  0.77076700  0.06519400  1
  O  O3  1  0.08529000  0.74045300  0.83604000  1
  O  O4  1  0.38326000  0.91985300  0.83076900  1
  O  O5  1  0.33370800  0.80989200  0.17768900  1
  O  O6  1  0.53777500  0.92084200  0.33425300  1
  O  O7  1  0.76341000  0.99592500  0.07091800  1
  O  O8  1  0.66549100  0.92023300  0.84070600  1
  O  O9  1  0.19038800  0.67768400  0.66935900  1
  O  O10  1  0.08392900  0.61723200  0.32982000  1
  O  O11  1  0.48877100  0.81153300  0.67197100  1
  O  O12  1  0.34391800  0.66774600  0.02366700  1
  O  O13  1  0.33639500  0.66469700  0.52367600  1
  O  O14  1  0.48262900  0.66569400  0.17403800  1
  O  O15  1  0.08607600  0.46763500  0.83004600  1
  O  O16  1  0.18284300  0.51265400  0.16761500  1
  O  O17  1  0.66309100  0.74528500  0.33922200  1
  O  O18  1  0.79630500  0.79496300  0.75024900  1
  O  O19  1  0.77480900  0.77707000  0.56942700  1
  O  O20  1  0.77151400  0.77030500  0.93081000  1
  O  O21  1  0.52655000  0.62278500  0.82767800  1
  O  O22  1  0.32600300  0.51211500  0.67267100  1
  O  O23  1  0.74033800  0.66092700  0.15614400  1
  O  O24  1  0.38182400  0.46876500  0.33353100  1
  O  O25  1  0.08574200  0.33914900  0.33471600  1
  O  O26  1  0.99735700  0.79298600  0.24701100  1
  O  O27  1  0.99436900  0.77478200  0.42922500  1
  O  O28  1  0.00598000  0.20684000  0.57956200  1
  O  O29  1  0.91636700  0.66032100  0.65729900  1
  O  O30  1  0.61708400  0.53078400  0.66967600  1
  O  O31  1  0.25411200  0.33904100  0.83922500  1
  O  O32  1  0.66908200  0.48357600  0.32232300  1
  O  O33  1  0.46978200  0.37228800  0.16561400  1
  O  O34  1  0.20405500  0.21200200  0.07929200  1
  O  O35  1  0.21871100  0.22575300  0.43584500  1
  O  O36  1  0.21339100  0.19894700  0.25795700  1
  O  O37  1  0.33278500  0.25212200  0.65849100  1
  O  O38  1  0.81570500  0.49005400  0.83111800  1
  O  O39  1  0.89749000  0.52246700  0.16875100  1
  O  O40  1  0.52138000  0.33211000  0.82629100  1
  O  O41  1  0.67355500  0.34138700  0.97844800  1
  O  O42  1  0.66471500  0.34587100  0.47450000  1
  O  O43  1  0.50756000  0.18513000  0.33043600  1
  O  O44  1  0.91851100  0.37994400  0.66842200  1
  O  O45  1  0.80493400  0.32475900  0.32151700  1
  O  O46  1  0.33974900  0.07921000  0.15860200  1
  O  O47  1  0.19850300  0.99054800  0.74314500  1
  O  O48  1  0.20707100  0.99697500  0.92351200  1
  O  O49  1  0.46860200  0.08939500  0.67095500  1
  O  O50  1  0.67902400  0.19032600  0.83352900  1
  O  O51  1  0.62584700  0.10717600  0.17251700  1
  O  O52  1  0.91957300  0.25513000  0.15610800  1
  O  O53  1  0.00456000  0.22950300  0.93647200  1
  O  O54  1  0.98605100  0.19606400  0.75885800  1
  O  O55  1  0.74098400  0.08299600  0.65908900  1
  O  O56  1  0.78153400  0.99160400  0.43496800  1
  O  O57  1  0.79747500  0.00527300  0.25212000  1
loop_
_geom_bond_atom_site_label_1
_geom_bond_atom_site_label_2
_geom_bond_distance
_geom_bond_site_symmetry_2
Li0 O0 1.995044 1_565
Li0 O29 2.073904 1_455
Li0 O27 2.100103 1_455
Li0 O9 2.166152 1_555
Li1 O19 2.020379 1_555
Li1 O56 2.038191 1_555
Li1 O55 2.042535 1_565
Li1 O11 2.164067 1_555
Li2 O7 1.973318 1_555
Li2 O20 2.025214 1_554
Li2 O23 2.034419 1_555
Li2 O14 2.279658 1_555
Li3 O34 1.926700 1_555
Li3 O53 1.993593 1_554
Li3 O52 2.080425 1_455
Li3 O16 2.129293 1_555
Li4 O27 1.983255 1_555
Li4 O17 2.064816 1_555
Li4 O19 2.065318 1_555
Li4 O32 2.277325 1_555
Li5 O28 1.960169 1_555
Li5 O37 2.048414 1_555
Li5 O35 2.050418 1_555
Li5 O22 2.137551 1_555
Li6 O2 1.977663 1_556
Li6 O20 2.014405 1_555
Li6 O3 2.029717 1_655
Li6 O38 2.183688 1_555
Li7 O41 1.867101 1_554
Li7 O33 2.183095 1_555
Li7 O51 2.220271 1_555
Li7 O39 2.326750 1_555
Li8 O0 2.024303 1_555
Li8 O35 2.053071 1_555
Li8 O1 2.061026 1_545
Li8 O43 2.118615 1_555
Li9 O53 1.980575 1_655
Li9 O8 2.026711 1_545
Li9 O7 2.066384 1_546
Li9 O50 2.170113 1_555
Li10 O48 1.814954 1_544
Li10 O34 1.921138 1_555
Li10 O2 2.321145 1_445
Li11 O28 1.964196 1_655
Li11 O56 1.993373 1_545
Li11 O35 2.257077 1_655
O0 P13 1.515306 1_555
O1 P1 1.539524 1_555
O1 V4 2.023904 1_555
O2 P8 1.497278 1_555
O3 P0 1.558928 1_555
O3 V2 1.942891 1_555
O4 P0 1.545570 1_555
O4 V5 1.895827 1_565
O5 P3 1.571696 1_555
O5 V4 1.854636 1_555
O6 P2 1.536987 1_555
O6 V4 1.933409 1_555
O7 P15 1.510807 1_565
O8 P5 1.550580 1_555
O8 V5 1.991398 1_565
O9 P4 1.576561 1_555
O9 V2 1.950529 1_555
O10 P1 1.536050 1_555
O10 V3 1.909279 1_455
O11 P4 1.576286 1_555
O11 V5 1.962008 1_565
O12 P3 1.485836 1_555
O13 P4 1.495344 1_555
O14 P3 1.589470 1_555
O14 V0 1.868288 1_555
O15 P7 1.540005 1_555
O15 V2 1.906844 1_555
O16 P3 1.569124 1_555
O16 V3 1.983949 1_455
O17 P2 1.542952 1_555
O17 V0 2.007130 1_555
O18 P5 1.617692 1_555
O18 P6 1.620999 1_555
O19 P6 1.513615 1_555
O20 P5 1.507687 1_555
O21 P5 1.535011 1_555
O21 V1 1.916150 1_555
O22 P4 1.577472 1_555
O22 V1 1.968338 1_555
O23 P8 1.548325 1_555
O23 V0 2.018615 1_555
O24 P9 1.536647 1_555
O24 V0 1.918688 1_555
O25 P9 1.523439 1_555
O25 V3 1.923641 1_455
O26 P1 1.616806 1_655
O26 P8 1.619335 1_555
O27 P1 1.516777 1_655
O28 P14 1.501074 1_455
O29 P6 1.553297 1_555
O29 V2 1.993316 1_655
O30 P6 1.529674 1_555
O30 V1 1.951432 1_555
O31 P7 1.525502 1_555
O31 V1 1.945528 1_555
O32 P11 1.594350 1_555
O32 V0 1.882911 1_555
O33 P10 1.559643 1_555
O33 V0 1.989741 1_555
O34 P10 1.498825 1_555
O35 P9 1.519118 1_555
O36 P9 1.607372 1_555
O36 P10 1.615201 1_555
O37 P13 1.536777 1_555
O37 V1 2.039097 1_555
O38 P12 1.564470 1_555
O38 V2 1.979050 1_655
O39 P8 1.555992 1_555
O39 V3 1.978854 1_555
O40 P12 1.574686 1_555
O40 V1 1.868447 1_555
O41 P12 1.502097 1_555
O42 P11 1.489980 1_555
O43 P11 1.573633 1_555
O43 V4 1.995378 1_545
O44 P14 1.541063 1_555
O44 V2 1.918985 1_655
O45 P11 1.569692 1_555
O45 V3 1.899284 1_555
O46 P10 1.529755 1_555
O46 V4 1.956632 1_545
O47 P13 1.604826 1_565
O47 P0 1.619669 1_555
O48 P0 1.477008 1_555
O49 P13 1.541098 1_555
O49 V5 1.909231 1_555
O50 P12 1.564535 1_555
O50 V5 1.991636 1_555
O51 P15 1.559470 1_555
O51 V4 1.967997 1_545
O52 P15 1.539669 1_555
O52 V3 2.022331 1_555
O53 P7 1.510298 1_555
O54 P14 1.612116 1_555
O54 P7 1.616883 1_655
O55 P14 1.551856 1_555
O55 V5 1.987744 1_555
O56 P2 1.504828 1_555
O57 P15 1.606381 1_555
O57 P2 1.627581 1_545
