# generated using pymatgen
data_Li4V7O12
_symmetry_space_group_name_H-M   'P 1'
_cell_length_a   5.20968360
_cell_length_b   8.92676563
_cell_length_c   9.89365841
_cell_angle_alpha   89.99999914
_cell_angle_beta   100.24705621
_cell_angle_gamma   90.00000881
_symmetry_Int_Tables_number   1
_chemical_formula_structural   Li4V7O12
_chemical_formula_sum   'Li8 V14 O24'
_cell_volume   452.77192201
_cell_formula_units_Z   2
loop_
 _symmetry_equiv_pos_site_id
 _symmetry_equiv_pos_as_xyz
  1  'x, y, z'
loop_
 _atom_site_type_symbol
 _atom_site_label
 _atom_site_symmetry_multiplicity
 _atom_site_fract_x
 _atom_site_fract_y
 _atom_site_fract_z
 _atom_site_occupancy
  Li  Li0  1  0.75847300  0.08058500  0.51060100  1
  Li  Li1  1  0.25432100  0.41169600  0.99350100  1
  Li  Li2  1  0.50505200  0.41713400  0.74719800  1
  Li  Li3  1  0.74200700  0.42176800  0.50771500  1
  Li  Li4  1  0.74152700  0.58058500  0.98939900  1
  Li  Li5  1  0.99494800  0.91713400  0.75280200  1
  Li  Li6  1  0.24567900  0.91169600  0.50649900  1
  Li  Li7  1  0.75799300  0.92176800  0.99228500  1
  V  V0  1  0.01221600  0.08323400  0.24781100  1
  V  V1  1  0.00058600  0.24313900  0.75715600  1
  V  V2  1  0.49117300  0.07698400  0.75282600  1
  V  V3  1  0.25820500  0.26011400  0.50723700  1
  V  V4  1  0.50066700  0.24455300  0.24700000  1
  V  V5  1  0.99871100  0.43250200  0.25344600  1
  V  V6  1  0.73548900  0.25248900  0.99590400  1
  V  V7  1  0.00882700  0.57698400  0.74717400  1
  V  V8  1  0.99933300  0.74455300  0.25300000  1
  V  V9  1  0.48778400  0.58323400  0.25218900  1
  V  V10  1  0.24179500  0.76011400  0.99276300  1
  V  V11  1  0.49941400  0.74313900  0.74284400  1
  V  V12  1  0.76451100  0.75248900  0.50409600  1
  V  V13  1  0.50128900  0.93250200  0.24655400  1
  O  O0  1  0.13337000  0.09247200  0.63203800  1
  O  O1  1  0.37788900  0.08975800  0.37853100  1
  O  O2  1  0.10195200  0.25755700  0.13572800  1
  O  O3  1  0.39152800  0.24533800  0.87324300  1
  O  O4  1  0.64808100  0.08775900  0.12521200  1
  O  O5  1  0.84675100  0.08846000  0.86644900  1
  O  O6  1  0.61062300  0.23955800  0.62743900  1
  O  O7  1  0.11669000  0.39921300  0.63426100  1
  O  O8  1  0.38010100  0.41452700  0.36635800  1
  O  O9  1  0.89955400  0.25019500  0.37050700  1
  O  O10  1  0.61906600  0.42079600  0.13010100  1
  O  O11  1  0.12211100  0.58975800  0.12146900  1
  O  O12  1  0.36663000  0.59247200  0.86796200  1
  O  O13  1  0.88259200  0.40542800  0.87510300  1
  O  O14  1  0.10847200  0.74533800  0.62675700  1
  O  O15  1  0.65324900  0.58846000  0.63355100  1
  O  O16  1  0.39804800  0.75755700  0.36427200  1
  O  O17  1  0.85191900  0.58775900  0.37478800  1
  O  O18  1  0.11989900  0.91452700  0.13364200  1
  O  O19  1  0.60044600  0.75019500  0.12949300  1
  O  O20  1  0.88937700  0.73955800  0.87256100  1
  O  O21  1  0.38331000  0.89921300  0.86573900  1
  O  O22  1  0.61740800  0.90542800  0.62489700  1
  O  O23  1  0.88093400  0.92079600  0.36989900  1
loop_
_geom_bond_atom_site_label_1
_geom_bond_atom_site_label_2
_geom_bond_distance
_geom_bond_site_symmetry_2
Li0 O6 2.064023 1_555
Li0 O0 2.105817 1_655
Li0 O22 2.135246 1_545
Li0 O23 2.166896 1_545
Li0 O1 2.173360 1_555
Li0 O9 2.261895 1_555
Li1 O13 2.078116 1_455
Li1 O3 2.105820 1_555
Li1 O10 2.128421 1_556
Li1 O12 2.178927 1_555
Li1 O2 2.213786 1_556
Li1 O11 2.216793 1_556
Li2 O6 2.109743 1_555
Li2 O15 2.123251 1_555
Li2 O3 2.125838 1_555
Li2 O7 2.136183 1_555
Li2 O13 2.143664 1_555
Li2 O12 2.168866 1_555
Li3 O15 2.045192 1_555
Li3 O17 2.126265 1_555
Li3 O7 2.132786 1_655
Li3 O8 2.139330 1_555
Li3 O6 2.192183 1_555
Li3 O9 2.293169 1_555
Li4 O20 2.064023 1_555
Li4 O12 2.105817 1_555
Li4 O13 2.135246 1_555
Li4 O10 2.166896 1_556
Li4 O11 2.173360 1_656
Li4 O19 2.261896 1_556
Li5 O20 2.109743 1_555
Li5 O5 2.123251 1_565
Li5 O14 2.125838 1_655
Li5 O21 2.136183 1_655
Li5 O22 2.143664 1_555
Li5 O0 2.168866 1_665
Li6 O22 2.078116 1_555
Li6 O14 2.105819 1_555
Li6 O23 2.128421 1_455
Li6 O0 2.178928 1_565
Li6 O16 2.213786 1_555
Li6 O1 2.216792 1_565
Li7 O5 2.045192 1_565
Li7 O4 2.126265 1_566
Li7 O21 2.132786 1_555
Li7 O18 2.139330 1_656
Li7 O20 2.192183 1_555
Li7 O19 2.293169 1_556
O0 V1 2.030881 1_555
O0 V2 2.032074 1_555
O0 V3 2.114888 1_555
O1 V4 2.075606 1_555
O1 V13 2.094638 1_545
O1 V0 2.104427 1_555
O1 V3 2.146008 1_555
O2 V0 2.013518 1_555
O2 V5 2.075447 1_455
O2 V6 2.149647 1_454
O2 V4 2.174054 1_555
O3 V6 1.978414 1_555
O3 V2 2.041434 1_555
O3 V1 2.152981 1_555
O4 V6 2.052730 1_554
O4 V0 2.062265 1_655
O4 V13 2.067255 1_545
O4 V4 2.080850 1_555
O5 V2 1.991198 1_555
O5 V1 2.006590 1_655
O5 V6 2.093931 1_555
O6 V3 2.010466 1_555
O6 V2 2.075331 1_555
O6 V1 2.201766 1_655
O7 V3 1.998596 1_555
O7 V1 2.011715 1_555
O7 V7 2.074943 1_555
O8 V9 2.020917 1_555
O8 V4 2.086904 1_555
O8 V5 2.105193 1_455
O8 V3 2.135627 1_555
O9 V0 2.071937 1_655
O9 V3 2.104676 1_655
O9 V5 2.114123 1_555
O9 V4 2.215992 1_555
O10 V9 2.079265 1_555
O10 V4 2.108820 1_555
O10 V5 2.133827 1_555
O10 V6 2.162056 1_554
O11 V8 2.075607 1_455
O11 V5 2.094638 1_455
O11 V9 2.104427 1_555
O11 V10 2.146007 1_554
O12 V11 2.030881 1_555
O12 V7 2.032074 1_555
O12 V10 2.114888 1_555
O13 V1 2.023260 1_655
O13 V6 2.050733 1_555
O13 V7 2.162386 1_655
O14 V12 1.978414 1_455
O14 V7 2.041434 1_555
O14 V11 2.152981 1_555
O15 V7 1.991198 1_655
O15 V11 2.006590 1_555
O15 V12 2.093931 1_555
O16 V9 2.013518 1_555
O16 V13 2.075446 1_555
O16 V12 2.149647 1_555
O16 V8 2.174054 1_455
O17 V12 2.052730 1_555
O17 V9 2.062265 1_555
O17 V5 2.067256 1_555
O17 V8 2.080850 1_555
O18 V0 2.020917 1_565
O18 V8 2.086904 1_455
O18 V13 2.105193 1_555
O18 V10 2.135627 1_554
O19 V9 2.071937 1_555
O19 V10 2.104676 1_554
O19 V13 2.114124 1_555
O19 V8 2.215992 1_555
O20 V10 2.010466 1_655
O20 V7 2.075331 1_655
O20 V11 2.201766 1_555
O21 V10 1.998595 1_555
O21 V11 2.011715 1_555
O21 V2 2.074943 1_565
O22 V11 2.023260 1_555
O22 V12 2.050733 1_555
O22 V2 2.162386 1_565
O23 V0 2.079265 1_665
O23 V8 2.108820 1_555
O23 V13 2.133827 1_555
O23 V12 2.162056 1_555
