# generated using pymatgen
data_LiCoPO4
_symmetry_space_group_name_H-M   'P 1'
_cell_length_a   9.89762192
_cell_length_b   9.89762192
_cell_length_c   23.91032300
_cell_angle_alpha   90.00000000
_cell_angle_beta   90.00000000
_cell_angle_gamma   119.99999948
_symmetry_Int_Tables_number   1
_chemical_formula_structural   LiCoPO4
_chemical_formula_sum   'Li24 Co24 P24 O96'
_cell_volume   2028.51301012
_cell_formula_units_Z   24
loop_
 _symmetry_equiv_pos_site_id
 _symmetry_equiv_pos_as_xyz
  1  'x, y, z'
loop_
 _atom_site_type_symbol
 _atom_site_label
 _atom_site_symmetry_multiplicity
 _atom_site_fract_x
 _atom_site_fract_y
 _atom_site_fract_z
 _atom_site_occupancy
  Li  Li0  1  0.02311100  0.97606700  0.69531700  1
  Li  Li1  1  0.03412700  0.58775400  0.03373900  1
  Li  Li2  1  0.05191800  0.45951500  0.19339700  1
  Li  Li3  1  0.03956900  0.47764400  0.84966300  1
  Li  Li4  1  0.40759800  0.94808200  0.86006400  1
  Li  Li5  1  0.43807500  0.96043100  0.51632900  1
  Li  Li6  1  0.02393300  0.04704400  0.02865100  1
  Li  Li7  1  0.04704400  0.02311100  0.86198400  1
  Li  Li8  1  0.55362700  0.96587300  0.70040500  1
  Li  Li9  1  0.41224600  0.44637300  0.36707200  1
  Li  Li10  1  0.52235600  0.56192500  0.18299600  1
  Li  Li11  1  0.54048500  0.59240200  0.52673100  1
  Li  Li12  1  0.45951500  0.40759800  0.02673100  1
  Li  Li13  1  0.47764400  0.43807500  0.68299600  1
  Li  Li14  1  0.58775400  0.55362700  0.86707200  1
  Li  Li15  1  0.44637300  0.03412700  0.20040500  1
  Li  Li16  1  0.95295600  0.97688900  0.36198400  1
  Li  Li17  1  0.97606700  0.95295600  0.52865100  1
  Li  Li18  1  0.56192500  0.03956900  0.01632900  1
  Li  Li19  1  0.59240200  0.05191800  0.36006400  1
  Li  Li20  1  0.96043100  0.52235600  0.34966300  1
  Li  Li21  1  0.94808200  0.54048500  0.69339700  1
  Li  Li22  1  0.96587300  0.41224600  0.53373900  1
  Li  Li23  1  0.97688900  0.02393300  0.19531700  1
  Co  Co0  1  0.10124100  0.81996700  0.26989200  1
  Co  Co1  1  0.08565900  0.76486300  0.91982400  1
  Co  Co2  1  0.12470400  0.75463100  0.59346700  1
  Co  Co3  1  0.31059000  0.66767700  0.75665300  1
  Co  Co4  1  0.33232300  0.64291200  0.08998600  1
  Co  Co5  1  0.35708800  0.68941000  0.42331900  1
  Co  Co6  1  0.18003300  0.28127400  0.60322600  1
  Co  Co7  1  0.24536900  0.37007300  0.92680100  1
  Co  Co8  1  0.23513700  0.32079500  0.25315700  1
  Co  Co9  1  0.62992700  0.87529600  0.26013400  1
  Co  Co10  1  0.67920500  0.91434100  0.58649100  1
  Co  Co11  1  0.28127400  0.10124100  0.43655900  1
  Co  Co12  1  0.71872600  0.89875900  0.93655900  1
  Co  Co13  1  0.32079500  0.08565900  0.08649100  1
  Co  Co14  1  0.37007300  0.12470400  0.76013400  1
  Co  Co15  1  0.76486300  0.67920500  0.75315700  1
  Co  Co16  1  0.75463100  0.62992700  0.42680100  1
  Co  Co17  1  0.81996700  0.71872600  0.10322600  1
  Co  Co18  1  0.64291200  0.31059000  0.92331900  1
  Co  Co19  1  0.66767700  0.35708800  0.58998600  1
  Co  Co20  1  0.68941000  0.33232300  0.25665300  1
  Co  Co21  1  0.87529600  0.24536900  0.09346700  1
  Co  Co22  1  0.91434100  0.23513700  0.41982400  1
  Co  Co23  1  0.89875900  0.18003300  0.76989200  1
  P  P0  1  0.09271500  0.78996000  0.79054300  1
  P  P1  1  0.08212000  0.75545400  0.46653300  1
  P  P2  1  0.13215100  0.77182300  0.13976300  1
  P  P3  1  0.28577700  0.64731500  0.29579700  1
  P  P4  1  0.36153800  0.71422300  0.96246300  1
  P  P5  1  0.35268500  0.63846200  0.62913000  1
  P  P6  1  0.22817700  0.36032700  0.47309700  1
  P  P7  1  0.21004000  0.30275500  0.12387600  1
  P  P8  1  0.24454600  0.32666600  0.79986600  1
  P  P9  1  0.63967300  0.86784900  0.80643000  1
  P  P10  1  0.67333400  0.91788000  0.13320000  1
  P  P11  1  0.69724500  0.90728500  0.45721000  1
  P  P12  1  0.30275500  0.09271500  0.95721000  1
  P  P13  1  0.32666600  0.08212000  0.63320000  1
  P  P14  1  0.36032700  0.13215100  0.30643000  1
  P  P15  1  0.75545400  0.67333400  0.29986600  1
  P  P16  1  0.78996000  0.69724500  0.62387600  1
  P  P17  1  0.77182300  0.63967300  0.97309700  1
  P  P18  1  0.64731500  0.36153800  0.12913000  1
  P  P19  1  0.63846200  0.28577700  0.46246300  1
  P  P20  1  0.71422300  0.35268500  0.79579700  1
  P  P21  1  0.86784900  0.22817700  0.63976300  1
  P  P22  1  0.91788000  0.24454600  0.96653300  1
  P  P23  1  0.90728500  0.21004000  0.29054300  1
  O  O0  1  0.03745300  0.76599200  0.08685900  1
  O  O1  1  0.09212000  0.91801600  0.47132300  1
  O  O2  1  0.01565400  0.68805300  0.84300200  1
  O  O3  1  0.13956400  0.98449500  0.93000500  1
  O  O4  1  0.03461600  0.76259900  0.19135600  1
  O  O5  1  0.01545000  0.66460000  0.52187500  1
  O  O6  1  0.24187600  0.94182800  0.80956500  1
  O  O7  1  0.13785200  0.66127900  0.30511000  1
  O  O8  1  0.12264400  0.69052600  0.74775200  1
  O  O9  1  0.30977600  0.96983500  0.58452000  1
  O  O10  1  0.29555700  0.92404600  0.13917800  1
  O  O11  1  0.16171100  0.63146000  0.13803900  1
  O  O12  1  0.25179200  0.78976200  0.45718800  1
  O  O13  1  0.18700200  0.60492000  0.61358700  1
  O  O14  1  0.07595400  0.37151100  0.47251100  1
  O  O15  1  0.27264600  0.74234600  0.91420200  1
  O  O16  1  0.03016500  0.33994100  0.91785300  1
  O  O17  1  0.05817200  0.30004800  0.14289800  1
  O  O18  1  0.01550500  0.15507000  0.26333800  1
  O  O19  1  0.08198400  0.17410400  0.80465600  1
  O  O20  1  0.26306100  0.67703000  0.01680100  1
  O  O21  1  0.25765400  0.53030000  0.24753500  1
  O  O22  1  0.32297000  0.58603100  0.35013500  1
  O  O23  1  0.21023800  0.46203000  0.79052100  1
  O  O24  1  0.41396900  0.73693900  0.68346800  1
  O  O25  1  0.41791900  0.81299800  0.28025400  1
  O  O26  1  0.46974900  0.83828900  0.80470500  1
  O  O27  1  0.30947400  0.43211800  0.08108500  1
  O  O28  1  0.33872100  0.47657300  0.63844300  1
  O  O29  1  0.36854000  0.53025100  0.47137200  1
  O  O30  1  0.23740100  0.27201700  0.52468900  1
  O  O31  1  0.39508000  0.58208100  0.94692100  1
  O  O32  1  0.46970000  0.72735400  0.58086900  1
  O  O33  1  0.52342700  0.86214800  0.97177600  1
  O  O34  1  0.56788200  0.87735600  0.41441800  1
  O  O35  1  0.15507000  0.13956400  0.09667200  1
  O  O36  1  0.23400800  0.27146200  0.42019300  1
  O  O37  1  0.31194700  0.32760100  0.17633500  1
  O  O38  1  0.17410400  0.09212000  0.63798900  1
  O  O39  1  0.33540000  0.35084900  0.85520800  1
  O  O40  1  0.53797000  0.74820800  0.12385400  1
  O  O41  1  0.30004800  0.24187600  0.97623100  1
  O  O42  1  0.64915100  0.98455000  0.18854100  1
  O  O43  1  0.33994100  0.30977600  0.75118600  1
  O  O44  1  0.37151100  0.29555700  0.30584500  1
  O  O45  1  0.67239900  0.98434600  0.50966800  1
  O  O46  1  0.72798300  0.96538400  0.85802200  1
  O  O47  1  0.27146200  0.03745300  0.25352600  1
  O  O48  1  0.72853800  0.96254700  0.75352600  1
  O  O49  1  0.27201700  0.03461600  0.35802200  1
  O  O50  1  0.32760100  0.01565400  0.00966800  1
  O  O51  1  0.62848900  0.70444300  0.80584500  1
  O  O52  1  0.66005900  0.69022400  0.25118600  1
  O  O53  1  0.35084900  0.01545000  0.68854100  1
  O  O54  1  0.69995200  0.75812400  0.47623100  1
  O  O55  1  0.46203000  0.25179200  0.62385400  1
  O  O56  1  0.66460000  0.64915100  0.35520800  1
  O  O57  1  0.82589600  0.90788000  0.13798900  1
  O  O58  1  0.68805300  0.67239900  0.67633500  1
  O  O59  1  0.76599200  0.72853800  0.92019300  1
  O  O60  1  0.84493000  0.86043600  0.59667200  1
  O  O61  1  0.43211800  0.12264400  0.91441800  1
  O  O62  1  0.47657300  0.13785200  0.47177600  1
  O  O63  1  0.53030000  0.27264600  0.08086900  1
  O  O64  1  0.60492000  0.41791900  0.44692100  1
  O  O65  1  0.76259900  0.72798300  0.02468900  1
  O  O66  1  0.63146000  0.46974900  0.97137200  1
  O  O67  1  0.66127900  0.52342700  0.13844300  1
  O  O68  1  0.69052600  0.56788200  0.58108500  1
  O  O69  1  0.53025100  0.16171100  0.30470500  1
  O  O70  1  0.58208100  0.18700200  0.78025400  1
  O  O71  1  0.58603100  0.26306100  0.18346800  1
  O  O72  1  0.78976200  0.53797000  0.29052100  1
  O  O73  1  0.67703000  0.41396900  0.85013500  1
  O  O74  1  0.74234600  0.46970000  0.74753500  1
  O  O75  1  0.73693900  0.32297000  0.51680100  1
  O  O76  1  0.91801600  0.82589600  0.30465600  1
  O  O77  1  0.98449500  0.84493000  0.76333800  1
  O  O78  1  0.94182800  0.69995200  0.64289800  1
  O  O79  1  0.96983500  0.66005900  0.41785300  1
  O  O80  1  0.72735400  0.25765400  0.41420200  1
  O  O81  1  0.92404600  0.62848900  0.97251100  1
  O  O82  1  0.81299800  0.39508000  0.11358700  1
  O  O83  1  0.74820800  0.21023800  0.95718800  1
  O  O84  1  0.83828900  0.36854000  0.63803900  1
  O  O85  1  0.70444300  0.07595400  0.63917800  1
  O  O86  1  0.69022400  0.03016500  0.08452000  1
  O  O87  1  0.87735600  0.30947400  0.24775200  1
  O  O88  1  0.86214800  0.33872100  0.80511000  1
  O  O89  1  0.75812400  0.05817200  0.30956500  1
  O  O90  1  0.98455000  0.33540000  0.02187500  1
  O  O91  1  0.96538400  0.23740100  0.69135600  1
  O  O92  1  0.86043600  0.01550500  0.43000500  1
  O  O93  1  0.98434600  0.31194700  0.34300200  1
  O  O94  1  0.90788000  0.08198400  0.97132300  1
  O  O95  1  0.96254700  0.23400800  0.58685900  1
loop_
_geom_bond_atom_site_label_1
_geom_bond_atom_site_label_2
_geom_bond_distance
_geom_bond_site_symmetry_2
Li0 O38 1.927465 1_565
Li0 O77 1.994956 1_455
Li1 O81 1.982971 1_454
Li1 O20 2.019138 1_555
Li1 O0 2.160641 1_555
Li1 O90 2.309582 1_455
Li2 O11 1.994940 1_555
Li2 O17 2.012618 1_555
Li2 O87 2.076963 1_455
Li2 O21 2.210505 1_555
Li3 O88 1.922129 1_455
Li3 O16 2.097079 1_555
Li3 O2 2.216156 1_555
Li3 O23 2.266734 1_555
Li4 O26 1.994951 1_555
Li4 O6 2.012626 1_555
Li4 O61 2.076951 1_565
Li4 O15 2.210507 1_555
Li5 O62 1.922129 1_565
Li5 O9 2.097098 1_555
Li5 O45 2.216156 1_555
Li5 O12 2.266719 1_555
Li6 O94 1.927465 1_454
Li6 O35 1.994955 1_555
Li7 O19 1.927465 1_555
Li7 O3 1.994950 1_545
Li8 O85 1.982953 1_565
Li8 O24 2.019134 1_555
Li8 O48 2.160647 1_555
Li8 O53 2.309592 1_565
Li9 O44 1.982953 1_555
Li9 O22 2.019134 1_555
Li9 O36 2.160651 1_555
Li9 O56 2.309585 1_555
Li10 O67 1.922129 1_555
Li10 O52 2.097079 1_555
Li10 O37 2.216156 1_555
Li10 O40 2.266734 1_555
Li11 O29 1.994957 1_555
Li11 O54 2.012636 1_555
Li11 O68 2.076943 1_555
Li11 O32 2.210513 1_555
Li12 O66 1.994957 1_554
Li12 O41 2.012636 1_554
Li12 O27 2.076943 1_555
Li12 O63 2.210513 1_555
Li13 O28 1.922129 1_555
Li13 O43 2.097079 1_555
Li13 O58 2.216156 1_555
Li13 O55 2.266734 1_555
Li14 O51 1.982953 1_555
Li14 O73 2.019134 1_555
Li14 O59 2.160651 1_555
Li14 O39 2.309585 1_555
Li15 O10 1.982953 1_545
Li15 O71 2.019134 1_555
Li15 O47 2.160647 1_555
Li15 O42 2.309592 1_545
Li16 O76 1.927465 1_555
Li16 O92 1.994950 1_565
Li17 O1 1.927465 1_655
Li17 O60 1.994955 1_555
Li18 O33 1.922129 1_544
Li18 O86 2.097098 1_555
Li18 O50 2.216156 1_555
Li18 O83 2.266719 1_554
Li19 O69 1.994951 1_555
Li19 O89 2.012626 1_555
Li19 O34 2.076951 1_545
Li19 O80 2.210507 1_555
Li20 O7 1.922129 1_655
Li20 O79 2.097079 1_555
Li20 O93 2.216156 1_555
Li20 O72 2.266734 1_555
Li21 O84 1.994940 1_555
Li21 O78 2.012618 1_555
Li21 O8 2.076963 1_655
Li21 O74 2.210505 1_555
Li22 O14 1.982971 1_655
Li22 O75 2.019138 1_555
Li22 O95 2.160641 1_555
Li22 O5 2.309582 1_655
Li23 O57 1.927465 1_545
Li23 O18 1.994956 1_655
Co0 O7 1.968863 1_555
Co0 O4 1.977128 1_555
Co0 O47 1.999657 1_565
Co0 O76 2.022261 1_455
Co1 O81 1.951535 1_455
Co1 O2 1.976175 1_555
Co1 O15 1.976206 1_555
Co1 O3 1.977287 1_555
Co2 O13 1.928985 1_555
Co2 O5 1.982424 1_555
Co2 O78 1.996612 1_455
Co2 O9 2.009079 1_555
Co3 O23 1.939989 1_555
Co3 O24 1.969145 1_555
Co3 O8 1.994377 1_555
Co3 O26 1.998259 1_555
Co4 O40 1.939989 1_555
Co4 O20 1.969149 1_555
Co4 O27 1.994368 1_555
Co4 O11 1.998276 1_555
Co5 O12 1.940006 1_555
Co5 O22 1.969123 1_555
Co5 O34 1.994372 1_555
Co5 O29 1.998268 1_555
Co6 O28 1.968853 1_555
Co6 O30 1.977151 1_555
Co6 O95 1.999659 1_455
Co6 O38 2.022252 1_555
Co7 O31 1.928978 1_555
Co7 O39 1.982448 1_555
Co7 O41 1.996598 1_555
Co7 O16 2.009082 1_555
Co8 O44 1.951546 1_555
Co8 O37 1.976174 1_555
Co8 O21 1.976216 1_555
Co8 O18 1.977281 1_555
Co9 O25 1.928976 1_555
Co9 O42 1.982443 1_555
Co9 O89 1.996612 1_565
Co9 O52 2.009082 1_555
Co10 O85 1.951538 1_565
Co10 O45 1.976199 1_555
Co10 O32 1.976212 1_555
Co10 O60 1.977267 1_555
Co11 O62 1.968853 1_555
Co11 O49 1.977151 1_555
Co11 O36 1.999664 1_555
Co11 O1 2.022261 1_545
Co12 O33 1.968853 1_555
Co12 O46 1.977151 1_555
Co12 O59 1.999664 1_555
Co12 O94 2.022261 1_565
Co13 O10 1.951538 1_545
Co13 O50 1.976199 1_555
Co13 O63 1.976212 1_555
Co13 O35 1.977267 1_555
Co14 O70 1.928976 1_555
Co14 O53 1.982443 1_555
Co14 O6 1.996612 1_545
Co14 O43 2.009082 1_555
Co15 O51 1.951546 1_555
Co15 O58 1.976174 1_555
Co15 O74 1.976216 1_555
Co15 O77 1.977281 1_555
Co16 O64 1.928978 1_555
Co16 O56 1.982448 1_555
Co16 O54 1.996598 1_555
Co16 O79 2.009082 1_555
Co17 O67 1.968853 1_555
Co17 O65 1.977151 1_555
Co17 O0 1.999659 1_655
Co17 O57 2.022252 1_555
Co18 O83 1.940006 1_555
Co18 O73 1.969123 1_555
Co18 O61 1.994372 1_555
Co18 O66 1.998268 1_555
Co19 O55 1.939989 1_555
Co19 O75 1.969149 1_555
Co19 O68 1.994368 1_555
Co19 O84 1.998276 1_555
Co20 O72 1.939989 1_555
Co20 O71 1.969145 1_555
Co20 O87 1.994377 1_555
Co20 O69 1.998259 1_555
Co21 O82 1.928985 1_555
Co21 O90 1.982424 1_555
Co21 O17 1.996612 1_655
Co21 O86 2.009079 1_555
Co22 O14 1.951535 1_655
Co22 O93 1.976175 1_555
Co22 O80 1.976206 1_555
Co22 O92 1.977287 1_555
Co23 O88 1.968863 1_555
Co23 O91 1.977128 1_555
Co23 O48 1.999657 1_545
Co23 O19 2.022261 1_655
O0 P2 1.558154 1_555
O1 P1 1.566037 1_555
O2 P0 1.550187 1_555
O3 P12 1.565001 1_565
O4 P2 1.540750 1_555
O5 P1 1.549728 1_555
O6 P0 1.557791 1_555
O7 P3 1.553914 1_555
O8 P0 1.547477 1_555
O9 P13 1.559506 1_565
O10 P2 1.564989 1_555
O11 P2 1.556857 1_555
O12 P1 1.554089 1_555
O13 P5 1.546959 1_555
O14 P6 1.564995 1_555
O15 P4 1.558213 1_555
O16 P22 1.559506 1_455
O17 P7 1.557791 1_555
O18 P23 1.564994 1_455
O19 P8 1.566037 1_555
O20 P4 1.553946 1_554
O21 P3 1.558231 1_555
O22 P3 1.553946 1_555
O23 P8 1.554089 1_555
O24 P5 1.553946 1_555
O25 P3 1.546962 1_555
O26 P9 1.556867 1_555
O27 P7 1.547477 1_555
O28 P5 1.553914 1_555
O29 P6 1.556864 1_555
O30 P6 1.540725 1_555
O31 P4 1.546963 1_555
O32 P5 1.558213 1_555
O33 P4 1.553914 1_555
O34 P11 1.547492 1_555
O35 P7 1.564992 1_555
O36 P6 1.558142 1_555
O37 P7 1.550187 1_555
O38 P13 1.566035 1_555
O39 P8 1.549729 1_555
O40 P10 1.554093 1_555
O41 P12 1.557784 1_555
O42 P10 1.549704 1_555
O43 P8 1.559506 1_555
O44 P14 1.564985 1_555
O45 P11 1.550168 1_555
O46 P9 1.540729 1_555
O47 P14 1.558149 1_555
O48 P9 1.558149 1_555
O49 P14 1.540729 1_555
O50 P12 1.550168 1_554
O51 P9 1.564985 1_555
O52 P15 1.559506 1_555
O53 P13 1.549704 1_555
O54 P11 1.557784 1_555
O55 P13 1.554093 1_555
O56 P15 1.549729 1_555
O57 P10 1.566035 1_555
O58 P16 1.550187 1_555
O59 P17 1.558142 1_555
O60 P16 1.564992 1_555
O61 P12 1.547492 1_555
O62 P19 1.553914 1_555
O63 P18 1.558213 1_555
O64 P19 1.546963 1_555
O65 P17 1.540725 1_554
O66 P17 1.556864 1_555
O67 P18 1.553914 1_555
O68 P16 1.547477 1_555
O69 P14 1.556867 1_555
O70 P20 1.546962 1_555
O71 P18 1.553946 1_555
O72 P15 1.554089 1_555
O73 P20 1.553946 1_555
O74 P20 1.558231 1_555
O75 P19 1.553946 1_555
O76 P15 1.566037 1_555
O77 P0 1.564994 1_655
O78 P16 1.557791 1_555
O79 P1 1.559506 1_655
O80 P19 1.558213 1_555
O81 P17 1.564995 1_555
O82 P18 1.546959 1_555
O83 P22 1.554089 1_555
O84 P21 1.556857 1_555
O85 P21 1.564989 1_555
O86 P10 1.559506 1_545
O87 P23 1.547477 1_555
O88 P20 1.553914 1_555
O89 P23 1.557791 1_555
O90 P22 1.549728 1_554
O91 P21 1.540750 1_555
O92 P11 1.565001 1_545
O93 P23 1.550187 1_555
O94 P22 1.566037 1_555
O95 P21 1.558154 1_555
