# generated using pymatgen
data_Ti2(SO4)3
_symmetry_space_group_name_H-M   'P 1'
_cell_length_a   8.99880966
_cell_length_b   8.99880966
_cell_length_c   8.99881021
_cell_angle_alpha   56.97965777
_cell_angle_beta   56.97965777
_cell_angle_gamma   56.97965898
_symmetry_Int_Tables_number   1
_chemical_formula_structural   Ti2(SO4)3
_chemical_formula_sum   'Ti4 S6 O24'
_cell_volume   479.38780709
_cell_formula_units_Z   2
loop_
 _symmetry_equiv_pos_site_id
 _symmetry_equiv_pos_as_xyz
  1  'x, y, z'
loop_
 _atom_site_type_symbol
 _atom_site_label
 _atom_site_symmetry_multiplicity
 _atom_site_fract_x
 _atom_site_fract_y
 _atom_site_fract_z
 _atom_site_occupancy
  Ti  Ti0  1  0.85548100  0.85548100  0.85548100  1
  Ti  Ti1  1  0.14451900  0.14451900  0.14451900  1
  Ti  Ti2  1  0.64849800  0.64849800  0.64849800  1
  Ti  Ti3  1  0.35150200  0.35150200  0.35150200  1
  S  S0  1  0.03711200  0.75066700  0.46184700  1
  S  S1  1  0.46184700  0.03711200  0.75066700  1
  S  S2  1  0.75066700  0.46184700  0.03711200  1
  S  S3  1  0.96288800  0.24933300  0.53815300  1
  S  S4  1  0.53815300  0.96288800  0.24933300  1
  S  S5  1  0.24933300  0.53815300  0.96288800  1
  O  O0  1  0.00988800  0.79029300  0.61654800  1
  O  O1  1  0.61654800  0.00988800  0.79029300  1
  O  O2  1  0.79029300  0.61654800  0.00988800  1
  O  O3  1  0.99011200  0.20970700  0.38345200  1
  O  O4  1  0.38345200  0.99011200  0.20970700  1
  O  O5  1  0.20970700  0.38345200  0.99011200  1
  O  O6  1  0.85573000  0.75993800  0.48532300  1
  O  O7  1  0.48532300  0.85573000  0.75993800  1
  O  O8  1  0.75993800  0.48532300  0.85573000  1
  O  O9  1  0.14427000  0.24006200  0.51467700  1
  O  O10  1  0.51467700  0.14427000  0.24006200  1
  O  O11  1  0.24006200  0.51467700  0.14427000  1
  O  O12  1  0.09919400  0.89428600  0.27703400  1
  O  O13  1  0.27703400  0.09919400  0.89428600  1
  O  O14  1  0.89428600  0.27703400  0.09919400  1
  O  O15  1  0.90080600  0.10571400  0.72296600  1
  O  O16  1  0.72296600  0.90080600  0.10571400  1
  O  O17  1  0.10571400  0.72296600  0.90080600  1
  O  O18  1  0.18285100  0.56004400  0.46743900  1
  O  O19  1  0.46743900  0.18285100  0.56004400  1
  O  O20  1  0.56004400  0.46743900  0.18285100  1
  O  O21  1  0.81714900  0.43995600  0.53256100  1
  O  O22  1  0.53256100  0.81714900  0.43995600  1
  O  O23  1  0.43995600  0.53256100  0.81714900  1
loop_
_geom_bond_atom_site_label_1
_geom_bond_atom_site_label_2
_geom_bond_distance
_geom_bond_site_symmetry_2
O0 S0 1.483005 1_555
O0 Ti0 2.031752 1_455
O1 S1 1.483005 1_555
O1 Ti0 2.031752 1_545
O2 S2 1.483005 1_555
O2 Ti0 2.031752 1_554
O3 S3 1.483005 1_555
O3 Ti1 2.031752 1_655
O4 S4 1.483005 1_555
O4 Ti1 2.031752 1_565
O5 S5 1.483005 1_555
O5 Ti1 2.031752 1_556
O6 S0 1.486852 1_655
O6 Ti2 2.021968 1_555
O7 S1 1.486852 1_565
O7 Ti2 2.021968 1_555
O8 S2 1.486852 1_556
O8 Ti2 2.021968 1_555
O9 S3 1.486852 1_455
O9 Ti3 2.021968 1_555
O10 S4 1.486852 1_545
O10 Ti3 2.021968 1_555
O11 S5 1.486852 1_554
O11 Ti3 2.021968 1_555
O12 S0 1.476492 1_555
O12 Ti1 2.050197 1_565
O13 S1 1.476492 1_555
O13 Ti1 2.050197 1_556
O14 S2 1.476492 1_555
O14 Ti1 2.050197 1_655
O15 S3 1.476492 1_555
O15 Ti0 2.050197 1_545
O16 S4 1.476492 1_555
O16 Ti0 2.050197 1_554
O17 S5 1.476492 1_555
O17 Ti0 2.050197 1_455
O18 S0 1.480207 1_555
O18 Ti3 2.053683 1_555
O19 S1 1.480207 1_555
O19 Ti3 2.053683 1_555
O20 S2 1.480207 1_555
O20 Ti3 2.053683 1_555
O21 S3 1.480207 1_555
O21 Ti2 2.053683 1_555
O22 S4 1.480207 1_555
O22 Ti2 2.053683 1_555
O23 S5 1.480207 1_555
O23 Ti2 2.053683 1_555
