# generated using pymatgen
data_LiTi2V3O10
_symmetry_space_group_name_H-M   'P 1'
_cell_length_a   5.10595602
_cell_length_b   15.00746114
_cell_length_c   5.14595838
_cell_angle_alpha   82.71369516
_cell_angle_beta   100.76702915
_cell_angle_gamma   98.88465408
_symmetry_Int_Tables_number   1
_chemical_formula_structural   LiTi2V3O10
_chemical_formula_sum   'Li2 Ti4 V6 O20'
_cell_volume   380.77661758
_cell_formula_units_Z   2
loop_
 _symmetry_equiv_pos_site_id
 _symmetry_equiv_pos_as_xyz
  1  'x, y, z'
loop_
 _atom_site_type_symbol
 _atom_site_label
 _atom_site_symmetry_multiplicity
 _atom_site_fract_x
 _atom_site_fract_y
 _atom_site_fract_z
 _atom_site_occupancy
  Li  Li0  1  0.77075400  0.27299000  0.42655000  1
  Li  Li1  1  0.27041700  0.77296600  0.92699100  1
  Ti  Ti0  1  0.38106700  0.34321600  0.78391000  1
  Ti  Ti1  1  0.88068600  0.84330500  0.28351300  1
  Ti  Ti2  1  0.18328900  0.16213600  0.74843500  1
  Ti  Ti3  1  0.68323000  0.66211700  0.24846000  1
  V  V0  1  0.99259700  0.50145900  0.50544400  1
  V  V1  1  0.41619800  0.44515900  0.24764500  1
  V  V2  1  0.04528600  0.06553300  0.26713500  1
  V  V3  1  0.49274400  0.00168900  0.00523600  1
  V  V4  1  0.91594600  0.94511300  0.74741800  1
  V  V5  1  0.54520500  0.56534900  0.76670500  1
  O  O0  1  0.65254900  0.43080800  0.60505500  1
  O  O1  1  0.15261300  0.93071900  0.10447100  1
  O  O2  1  0.05978500  0.26332100  0.81639200  1
  O  O3  1  0.55956200  0.76327600  0.31626700  1
  O  O4  1  0.25919300  0.46751500  0.86119300  1
  O  O5  1  0.75937400  0.96764000  0.36131300  1
  O  O6  1  0.35473400  0.10921600  0.09537900  1
  O  O7  1  0.85480900  0.60920400  0.59530200  1
  O  O8  1  0.53743200  0.34502000  0.13417000  1
  O  O9  1  0.03703000  0.84505200  0.63389100  1
  O  O10  1  0.96764900  0.16132800  0.37984400  1
  O  O11  1  0.46758700  0.66115800  0.87997600  1
  O  O12  1  0.13223600  0.39316400  0.40100400  1
  O  O13  1  0.63216400  0.89320800  0.90134200  1
  O  O14  1  0.22921800  0.03227800  0.64016800  1
  O  O15  1  0.72928400  0.53219000  0.14044500  1
  O  O16  1  0.48024100  0.23969000  0.66999400  1
  O  O17  1  0.98007000  0.73971600  0.16995400  1
  O  O18  1  0.84316800  0.06438800  0.89941100  1
  O  O19  1  0.34303100  0.56436500  0.39926800  1
loop_
_geom_bond_atom_site_label_1
_geom_bond_atom_site_label_2
_geom_bond_distance
_geom_bond_site_symmetry_2
Li0 O8 2.041343 1_555
Li0 O16 2.079899 1_555
Li0 O10 2.142309 1_555
Li0 O2 2.260443 1_655
Li0 O12 2.383036 1_655
Li1 O9 2.044040 1_555
Li1 O17 2.077445 1_456
Li1 O11 2.145547 1_555
Li1 O3 2.258545 1_556
Li1 O13 2.384638 1_555
O0 V0 2.006894 1_555
O0 V1 2.008973 1_555
O0 Ti0 2.025714 1_555
O0 V5 2.451008 1_555
O1 V4 2.008298 1_454
O1 V3 2.008310 1_565
O1 Ti1 2.026422 1_455
O1 V2 2.457201 1_565
O2 Ti2 1.827232 1_555
O2 Ti0 1.897556 1_555
O3 Ti3 1.827026 1_555
O3 Ti1 1.898142 1_555
O4 V5 1.986636 1_555
O4 V1 2.007037 1_556
O4 V0 2.123761 1_455
O4 Ti0 2.159716 1_555
O5 V2 1.986363 1_665
O5 V4 2.005175 1_555
O5 V3 2.125414 1_565
O5 Ti1 2.159838 1_555
O6 V2 1.939665 1_555
O6 Ti2 1.963595 1_554
O6 V3 1.994756 1_555
O7 V5 1.939715 1_555
O7 Ti3 1.963383 1_555
O7 V0 1.996500 1_555
O8 Ti0 1.831645 1_554
O8 V1 1.904646 1_555
O9 Ti1 1.832106 1_455
O9 V4 1.903357 1_455
O10 V2 1.741778 1_655
O10 Ti2 2.007870 1_655
O11 V5 1.743317 1_555
O11 Ti3 2.007506 1_556
O12 V1 1.804367 1_555
O12 V0 2.039915 1_455
O12 Ti0 2.245622 1_555
O13 V4 1.804825 1_555
O13 V3 2.040595 1_566
O13 Ti1 2.241938 1_556
O14 V2 2.011013 1_555
O14 V4 2.018600 1_445
O14 V3 2.139641 1_556
O14 Ti2 2.151458 1_555
O15 V5 2.014014 1_554
O15 V1 2.016819 1_555
O15 V0 2.139267 1_555
O15 Ti3 2.152126 1_555
O16 Ti2 1.838724 1_555
O16 Ti0 1.897069 1_555
O17 Ti3 1.838706 1_555
O17 Ti1 1.897555 1_555
O18 V2 1.979702 1_656
O18 V3 2.024202 1_556
O18 V4 2.150161 1_545
O18 Ti2 2.280257 1_655
O19 V5 1.978413 1_555
O19 V0 2.025840 1_455
O19 V1 2.149003 1_555
O19 Ti3 2.280228 1_555
