# generated using pymatgen
data_LiFe2OF3
_symmetry_space_group_name_H-M   'P 1'
_cell_length_a   5.18074400
_cell_length_b   6.24199100
_cell_length_c   10.48246400
_cell_angle_alpha   90.00000000
_cell_angle_beta   90.00000000
_cell_angle_gamma   90.00000000
_symmetry_Int_Tables_number   1
_chemical_formula_structural   LiFe2OF3
_chemical_formula_sum   'Li4 Fe8 O4 F12'
_cell_volume   338.98357100
_cell_formula_units_Z   4
loop_
 _symmetry_equiv_pos_site_id
 _symmetry_equiv_pos_as_xyz
  1  'x, y, z'
loop_
 _atom_site_type_symbol
 _atom_site_label
 _atom_site_symmetry_multiplicity
 _atom_site_fract_x
 _atom_site_fract_y
 _atom_site_fract_z
 _atom_site_occupancy
  Li  Li0  1  0.97764400  0.25000000  0.59188300  1
  Li  Li1  1  0.52235600  0.25000000  0.09188300  1
  Li  Li2  1  0.47764400  0.75000000  0.90811700  1
  Li  Li3  1  0.02235600  0.75000000  0.40811700  1
  Fe  Fe0  1  0.00000000  0.50000000  0.00000000  1
  Fe  Fe1  1  0.00000000  0.00000000  0.00000000  1
  Fe  Fe2  1  0.99963900  0.75000000  0.74057800  1
  Fe  Fe3  1  0.50036100  0.75000000  0.24057800  1
  Fe  Fe4  1  0.50000000  0.00000000  0.50000000  1
  Fe  Fe5  1  0.50000000  0.50000000  0.50000000  1
  Fe  Fe6  1  0.49963900  0.25000000  0.75942200  1
  Fe  Fe7  1  0.00036100  0.25000000  0.25942200  1
  O  O0  1  0.84418700  0.75000000  0.91396100  1
  O  O1  1  0.65581300  0.75000000  0.41396100  1
  O  O2  1  0.34418700  0.25000000  0.58603900  1
  O  O3  1  0.15581300  0.25000000  0.08603900  1
  F  F0  1  0.79539900  0.25000000  0.42733000  1
  F  F1  1  0.77559000  0.48313100  0.66641400  1
  F  F2  1  0.77559000  0.01686900  0.66641400  1
  F  F3  1  0.72441000  0.48313100  0.16641400  1
  F  F4  1  0.72441000  0.01686900  0.16641400  1
  F  F5  1  0.70460100  0.25000000  0.92733000  1
  F  F6  1  0.29539900  0.75000000  0.07267000  1
  F  F7  1  0.27559000  0.51686900  0.83358600  1
  F  F8  1  0.27559000  0.98313100  0.83358600  1
  F  F9  1  0.22441000  0.98313100  0.33358600  1
  F  F10  1  0.22441000  0.51686900  0.33358600  1
  F  F11  1  0.20460100  0.75000000  0.57267000  1
loop_
_geom_bond_atom_site_label_1
_geom_bond_atom_site_label_2
_geom_bond_distance
_geom_bond_site_symmetry_2
Li0 O2 1.899953 1_655
Li1 O3 1.899953 1_555
Li2 O0 1.899953 1_555
Li3 O1 1.899953 1_455
Fe0 O3 1.974891 1_555
Fe0 O0 1.974891 1_454
Fe1 O3 1.974891 1_555
Fe1 O0 1.974891 1_444
Fe2 O0 1.987923 1_555
Fe3 O1 1.987923 1_555
Fe4 O2 1.974891 1_555
Fe4 O1 1.974891 1_545
Fe5 O2 1.974891 1_555
Fe5 O1 1.974891 1_555
Fe6 O2 1.987923 1_555
Fe7 O3 1.987923 1_555
F0 Li0 1.966418 1_555
F0 Fe7 2.055591 1_655
F0 Fe4 2.314631 1_555
F0 Fe5 2.314631 1_555
F1 Li0 1.955444 1_555
F1 Fe2 2.174068 1_555
F1 Fe5 2.256684 1_555
F1 Fe6 2.260971 1_555
F2 Li0 1.955444 1_555
F2 Fe2 2.174068 1_545
F2 Fe4 2.256684 1_555
F2 Fe6 2.260971 1_555
F3 Li1 1.955444 1_555
F3 Fe3 2.174068 1_555
F3 Fe0 2.256684 1_655
F3 Fe7 2.260971 1_655
F4 Li1 1.955444 1_555
F4 Fe3 2.174068 1_545
F4 Fe1 2.256684 1_655
F4 Fe7 2.260971 1_655
F5 Li1 1.966418 1_556
F5 Fe6 2.055591 1_555
F5 Fe1 2.314631 1_656
F5 Fe0 2.314631 1_656
F6 Li2 1.966418 1_554
F6 Fe3 2.055591 1_555
F6 Fe1 2.314631 1_565
F6 Fe0 2.314631 1_555
F7 Li2 1.955444 1_555
F7 Fe6 2.174068 1_555
F7 Fe0 2.256684 1_556
F7 Fe2 2.260971 1_455
F8 Li2 1.955444 1_555
F8 Fe6 2.174068 1_565
F8 Fe1 2.256684 1_566
F8 Fe2 2.260971 1_455
F9 Li3 1.955444 1_555
F9 Fe7 2.174068 1_565
F9 Fe4 2.256684 1_565
F9 Fe3 2.260971 1_555
F10 Li3 1.955444 1_555
F10 Fe7 2.174068 1_555
F10 Fe5 2.256684 1_555
F10 Fe3 2.260971 1_555
F11 Li3 1.966418 1_555
F11 Fe2 2.055591 1_455
F11 Fe5 2.314631 1_555
F11 Fe4 2.314631 1_565
