# generated using pymatgen
data_Li5Mn6(BO3)6
_symmetry_space_group_name_H-M   'P 1'
_cell_length_a   14.68826585
_cell_length_b   14.68826585
_cell_length_c   8.25832036
_cell_angle_alpha   89.55328158
_cell_angle_beta   89.55328158
_cell_angle_gamma   25.02083621
_symmetry_Int_Tables_number   1
_chemical_formula_structural   Li5Mn6(BO3)6
_chemical_formula_sum   'Li10 Mn12 B12 O36'
_cell_volume   753.53897124
_cell_formula_units_Z   2
loop_
 _symmetry_equiv_pos_site_id
 _symmetry_equiv_pos_as_xyz
  1  'x, y, z'
loop_
 _atom_site_type_symbol
 _atom_site_label
 _atom_site_symmetry_multiplicity
 _atom_site_fract_x
 _atom_site_fract_y
 _atom_site_fract_z
 _atom_site_occupancy
  Li  Li0  1  0.24563500  0.24563500  0.29072700  1
  Li  Li1  1  0.74584400  0.74584400  0.28943200  1
  Li  Li2  1  0.92987000  0.92987000  0.34159600  1
  Li  Li3  1  0.07446500  0.07446500  0.36772700  1
  Li  Li4  1  0.57507400  0.57507400  0.36956600  1
  Li  Li5  1  0.49568400  0.49568400  0.79012800  1
  Li  Li6  1  0.99585700  0.99585700  0.79038700  1
  Li  Li7  1  0.17985600  0.17985600  0.84143200  1
  Li  Li8  1  0.82505800  0.82505800  0.86846000  1
  Li  Li9  1  0.32456700  0.32456700  0.86899000  1
  Mn  Mn0  1  0.74846300  0.25285700  0.13757000  1
  Mn  Mn1  1  0.25285700  0.74846300  0.13757000  1
  Mn  Mn2  1  0.90459000  0.41038700  0.16597800  1
  Mn  Mn3  1  0.41038700  0.90459000  0.16597800  1
  Mn  Mn4  1  0.58957600  0.09447800  0.19549800  1
  Mn  Mn5  1  0.09447700  0.58957600  0.19549800  1
  Mn  Mn6  1  0.50268400  0.99870800  0.63758100  1
  Mn  Mn7  1  0.99870800  0.50268400  0.63758100  1
  Mn  Mn8  1  0.65404700  0.16098100  0.66581300  1
  Mn  Mn9  1  0.16098100  0.65404700  0.66581300  1
  Mn  Mn10  1  0.83924400  0.34487700  0.69551800  1
  Mn  Mn11  1  0.34487700  0.83924400  0.69551800  1
  B  B0  1  0.00475900  0.49721500  0.00167700  1
  B  B1  1  0.49721500  0.00475900  0.00167700  1
  B  B2  1  0.41583100  0.41583100  0.99557700  1
  B  B3  1  0.91671000  0.91671000  0.99654700  1
  B  B4  1  0.58219700  0.58219700  0.00403800  1
  B  B5  1  0.08300700  0.08300700  0.99998500  1
  B  B6  1  0.75551100  0.24648100  0.50181800  1
  B  B7  1  0.24648100  0.75551100  0.50181800  1
  B  B8  1  0.83307800  0.83307800  0.50026700  1
  B  B9  1  0.33202900  0.33202900  0.50369100  1
  B  B10  1  0.16646400  0.16646400  0.49603300  1
  B  B11  1  0.66610500  0.66610500  0.49620100  1
  O  O0  1  0.96492000  0.96492000  0.01049200  1
  O  O1  1  0.46389200  0.46389200  0.01147100  1
  O  O2  1  0.13147500  0.13147500  0.01508600  1
  O  O3  1  0.62971000  0.62971000  0.02208400  1
  O  O4  1  0.55273200  0.55273200  0.13976700  1
  O  O5  1  0.05440800  0.05440800  0.13572700  1
  O  O6  1  0.38613600  0.38613600  0.12745600  1
  O  O7  1  0.88947300  0.88947300  0.13702600  1
  O  O8  1  0.98075300  0.47975600  0.15597200  1
  O  O9  1  0.47975600  0.98075300  0.15597200  1
  O  O10  1  0.31290700  0.31290700  0.34782500  1
  O  O11  1  0.81379100  0.81379100  0.34523500  1
  O  O12  1  0.14553400  0.14553400  0.34513600  1
  O  O13  1  0.64677900  0.64677900  0.34221500  1
  O  O14  1  0.74223500  0.20582200  0.36603500  1
  O  O15  1  0.20582200  0.74223500  0.36603500  1
  O  O16  1  0.79877600  0.30077900  0.48895200  1
  O  O17  1  0.30077900  0.79877600  0.48895200  1
  O  O18  1  0.71429900  0.71429900  0.51241800  1
  O  O19  1  0.21456500  0.21456500  0.50948200  1
  O  O20  1  0.37959500  0.37959500  0.52168400  1
  O  O21  1  0.88147700  0.88147700  0.51551500  1
  O  O22  1  0.30257300  0.30257300  0.63900100  1
  O  O23  1  0.80445300  0.80445300  0.63638800  1
  O  O24  1  0.13926900  0.13926900  0.63675700  1
  O  O25  1  0.63643600  0.63643600  0.62786300  1
  O  O26  1  0.73069900  0.22981700  0.65605500  1
  O  O27  1  0.22981700  0.73069900  0.65605500  1
  O  O28  1  0.56291900  0.56291900  0.84854800  1
  O  O29  1  0.06383500  0.06383500  0.84463300  1
  O  O30  1  0.39629600  0.39629600  0.84176500  1
  O  O31  1  0.89596500  0.89596500  0.84545700  1
  O  O32  1  0.99151800  0.45650200  0.86593700  1
  O  O33  1  0.45650200  0.99151800  0.86593700  1
  O  O34  1  0.55241600  0.04711100  0.98887600  1
  O  O35  1  0.04711100  0.55241600  0.98887600  1
loop_
_geom_bond_atom_site_label_1
_geom_bond_atom_site_label_2
_geom_bond_distance
_geom_bond_site_symmetry_2
Li0 O10 1.989738 1_555
Li0 O8 1.990380 1_455
Li0 O9 1.990380 1_545
Li0 O19 2.007957 1_555
Li1 O8 1.990845 1_555
Li1 O9 1.990845 1_555
Li1 O11 2.005984 1_555
Li1 O18 2.045219 1_555
Li2 O15 1.955580 1_655
Li2 O14 1.955580 1_565
Li2 O21 1.989278 1_555
Li2 O7 2.056108 1_555
Li3 O5 2.004810 1_555
Li3 O16 2.010811 1_455
Li3 O17 2.010811 1_545
Li3 O12 2.045227 1_555
Li4 O17 1.999391 1_555
Li4 O16 1.999391 1_555
Li4 O4 2.007847 1_555
Li4 O13 2.067004 1_555
Li5 O28 1.991408 1_555
Li5 O27 1.992301 1_555
Li5 O26 1.992301 1_555
Li5 O1 2.036170 1_556
Li6 O27 1.990142 1_655
Li6 O26 1.990142 1_565
Li6 O29 2.003835 1_665
Li6 O0 2.016300 1_556
Li7 O33 1.958910 1_545
Li7 O32 1.958910 1_455
Li7 O2 1.987472 1_556
Li7 O24 2.059935 1_555
Li8 O34 1.995256 1_565
Li8 O35 1.995256 1_655
Li8 O23 2.010064 1_555
Li8 O31 2.040887 1_555
Li9 O22 2.006098 1_555
Li9 O34 2.014897 1_555
Li9 O35 2.014897 1_555
Li9 O30 2.067583 1_555
Mn0 O14 2.033951 1_555
Mn0 O1 2.168053 1_555
Mn0 O4 2.171979 1_555
Mn0 O0 2.178224 1_545
Mn0 O5 2.225180 1_655
Mn1 O15 2.033951 1_555
Mn1 O1 2.168053 1_555
Mn1 O4 2.171979 1_555
Mn1 O0 2.178224 1_455
Mn1 O5 2.225180 1_565
Mn2 O8 2.087946 1_555
Mn2 O3 2.129415 1_555
Mn2 O13 2.162857 1_555
Mn2 O2 2.171199 1_655
Mn2 O12 2.210965 1_655
Mn3 O9 2.087946 1_555
Mn3 O3 2.129415 1_555
Mn3 O13 2.162857 1_555
Mn3 O2 2.171199 1_565
Mn3 O12 2.210965 1_565
Mn4 O6 2.094301 1_555
Mn4 O34 2.101155 1_554
Mn4 O7 2.157526 1_545
Mn4 O10 2.178213 1_555
Mn4 O11 2.179356 1_545
Mn5 O6 2.094312 1_555
Mn5 O35 2.101146 1_554
Mn5 O7 2.157532 1_455
Mn5 O10 2.178210 1_555
Mn5 O11 2.179348 1_455
Mn6 O33 2.033334 1_555
Mn6 O18 2.160088 1_555
Mn6 O19 2.186687 1_565
Mn6 O22 2.187504 1_565
Mn6 O23 2.206230 1_555
Mn7 O32 2.033334 1_555
Mn7 O18 2.160088 1_555
Mn7 O19 2.186687 1_655
Mn7 O22 2.187504 1_655
Mn7 O23 2.206230 1_555
Mn8 O26 2.087288 1_555
Mn8 O20 2.129365 1_555
Mn8 O30 2.160691 1_555
Mn8 O21 2.171295 1_545
Mn8 O31 2.214573 1_545
Mn9 O27 2.087288 1_555
Mn9 O20 2.129365 1_555
Mn9 O30 2.160691 1_555
Mn9 O21 2.171295 1_455
Mn9 O31 2.214573 1_455
Mn10 O25 2.096326 1_555
Mn10 O16 2.100884 1_555
Mn10 O24 2.155509 1_655
Mn10 O29 2.178067 1_655
Mn10 O28 2.180108 1_555
Mn11 O25 2.096326 1_555
Mn11 O17 2.100884 1_555
Mn11 O24 2.155509 1_565
Mn11 O29 2.178067 1_565
Mn11 O28 2.180108 1_555
B0 O32 1.369916 1_454
B0 O8 1.401962 1_455
B0 O35 1.402606 1_554
B1 O33 1.369916 1_544
B1 O9 1.401962 1_545
B1 O34 1.402606 1_554
B2 O6 1.377166 1_556
B2 O1 1.385622 1_556
B2 O30 1.392380 1_555
B3 O31 1.386614 1_555
B3 O0 1.388320 1_556
B3 O7 1.393403 1_556
B4 O3 1.371935 1_555
B4 O4 1.398337 1_555
B4 O28 1.402101 1_554
B5 O5 1.383717 1_556
B5 O2 1.396590 1_556
B5 O29 1.399835 1_555
B6 O14 1.370035 1_555
B6 O26 1.401679 1_555
B6 O16 1.402628 1_555
B7 O15 1.370035 1_555
B7 O27 1.401679 1_555
B7 O17 1.402628 1_555
B8 O23 1.386675 1_555
B8 O21 1.394738 1_555
B8 O11 1.398730 1_555
B9 O20 1.373395 1_555
B9 O22 1.395427 1_555
B9 O10 1.403168 1_555
B10 O19 1.384838 1_555
B10 O12 1.387499 1_555
B10 O24 1.394412 1_555
B11 O25 1.375301 1_555
B11 O18 1.389695 1_555
B11 O13 1.391253 1_555
