# generated using pymatgen
data_Tb2(WO4)3
_symmetry_space_group_name_H-M   'P 1'
_cell_length_a   10.32268800
_cell_length_b   10.19760700
_cell_length_c   17.42915405
_cell_angle_alpha   54.60038632
_cell_angle_beta   90.00000000
_cell_angle_gamma   90.00000000
_symmetry_Int_Tables_number   1
_chemical_formula_structural   Tb2(WO4)3
_chemical_formula_sum   'Tb8 W12 O48'
_cell_volume   1495.53012073
_cell_formula_units_Z   4
loop_
 _symmetry_equiv_pos_site_id
 _symmetry_equiv_pos_as_xyz
  1  'x, y, z'
loop_
 _atom_site_type_symbol
 _atom_site_label
 _atom_site_symmetry_multiplicity
 _atom_site_fract_x
 _atom_site_fract_y
 _atom_site_fract_z
 _atom_site_occupancy
  Tb  Tb0  1  0.97057400  0.13340200  0.11829600  1
  Tb  Tb1  1  0.03365700  0.63739100  0.61800500  1
  Tb  Tb2  1  0.53365700  0.36260900  0.88199500  1
  Tb  Tb3  1  0.47057400  0.86659800  0.38170400  1
  Tb  Tb4  1  0.52942600  0.13340200  0.61829600  1
  Tb  Tb5  1  0.46634300  0.63739100  0.11800500  1
  Tb  Tb6  1  0.96634300  0.36260900  0.38199500  1
  Tb  Tb7  1  0.02942600  0.86659800  0.88170400  1
  W  W0  1  0.74890600  0.97420200  0.49992500  1
  W  W1  1  0.61901000  0.25288200  0.14323300  1
  W  W2  1  0.88056100  0.53508300  0.85738400  1
  W  W3  1  0.38056100  0.46491700  0.64261600  1
  W  W4  1  0.11901000  0.74711800  0.35676700  1
  W  W5  1  0.24890600  0.02579800  0.00007500  1
  W  W6  1  0.75109400  0.97420200  0.99992500  1
  W  W7  1  0.88099000  0.25288200  0.64323300  1
  W  W8  1  0.61943900  0.53508300  0.35738400  1
  W  W9  1  0.11943900  0.46491700  0.14261600  1
  W  W10  1  0.38099000  0.74711800  0.85676700  1
  W  W11  1  0.25109400  0.02579800  0.50007500  1
  O  O0  1  0.09697200  0.29913400  0.13282500  1
  O  O1  1  0.34279800  0.00394000  0.41941800  1
  O  O2  1  0.17479900  0.83542900  0.58782600  1
  O  O3  1  0.41138100  0.56631200  0.86278900  1
  O  O4  1  0.87287300  0.82185700  0.56429000  1
  O  O5  1  0.79004000  0.20134100  0.16475500  1
  O  O6  1  0.71137000  0.52382200  0.83346000  1
  O  O7  1  0.64188300  0.91637700  0.44223800  1
  O  O8  1  0.98082900  0.56585300  0.76278800  1
  O  O9  1  0.52326000  0.08726300  0.23689500  1
  O  O10  1  0.57566500  0.28742600  0.03215500  1
  O  O11  1  0.92707700  0.34968400  0.96699600  1
  O  O12  1  0.42707700  0.65031600  0.53300400  1
  O  O13  1  0.07566500  0.71257400  0.46784500  1
  O  O14  1  0.02326000  0.91273700  0.26310500  1
  O  O15  1  0.48082900  0.43414700  0.73721200  1
  O  O16  1  0.14188300  0.08362300  0.05776200  1
  O  O17  1  0.21137000  0.47617800  0.66654000  1
  O  O18  1  0.29004000  0.79865900  0.33524500  1
  O  O19  1  0.37287300  0.17814300  0.93571000  1
  O  O20  1  0.84279800  0.99606000  0.08058200  1
  O  O21  1  0.91138100  0.43368800  0.63721100  1
  O  O22  1  0.67479900  0.16457100  0.91217400  1
  O  O23  1  0.59697200  0.70086600  0.36717500  1
  O  O24  1  0.40302800  0.29913400  0.63282500  1
  O  O25  1  0.32520100  0.83542900  0.08782600  1
  O  O26  1  0.08861900  0.56631200  0.36278900  1
  O  O27  1  0.15720200  0.00394000  0.91941800  1
  O  O28  1  0.62712700  0.82185700  0.06429000  1
  O  O29  1  0.70996000  0.20134100  0.66475500  1
  O  O30  1  0.78863000  0.52382200  0.33346000  1
  O  O31  1  0.85811700  0.91637700  0.94223800  1
  O  O32  1  0.51917100  0.56585300  0.26278800  1
  O  O33  1  0.97674000  0.08726300  0.73689500  1
  O  O34  1  0.92433500  0.28742600  0.53215500  1
  O  O35  1  0.57292300  0.34968400  0.46699600  1
  O  O36  1  0.07292300  0.65031600  0.03300400  1
  O  O37  1  0.42433500  0.71257400  0.96784500  1
  O  O38  1  0.47674000  0.91273700  0.76310500  1
  O  O39  1  0.01917100  0.43414700  0.23721200  1
  O  O40  1  0.35811700  0.08362300  0.55776200  1
  O  O41  1  0.28863000  0.47617800  0.16654000  1
  O  O42  1  0.20996000  0.79865900  0.83524500  1
  O  O43  1  0.12712700  0.17814300  0.43571000  1
  O  O44  1  0.58861900  0.43368800  0.13721100  1
  O  O45  1  0.82520100  0.16457100  0.41217400  1
  O  O46  1  0.65720200  0.99606000  0.58058200  1
  O  O47  1  0.90302800  0.70086600  0.86717500  1
loop_
_geom_bond_atom_site_label_1
_geom_bond_atom_site_label_2
_geom_bond_distance
_geom_bond_site_symmetry_2
O0 W9 1.809763 1_555
O0 Tb0 2.262456 1_455
O1 W11 1.812471 1_555
O1 Tb3 2.280343 1_545
O2 W11 1.813352 1_565
O2 Tb1 2.290672 1_555
O3 W10 1.812398 1_555
O3 Tb2 2.283581 1_555
O4 W0 1.813958 1_555
O4 Tb1 2.264820 1_655
O5 W1 1.818102 1_555
O5 Tb0 2.293166 1_555
O6 W2 1.814611 1_555
O6 Tb2 2.274291 1_555
O7 W0 1.807210 1_555
O7 Tb3 2.262399 1_555
O8 W2 1.813477 1_555
O8 Tb1 2.250462 1_655
O9 W1 1.816605 1_555
O9 Tb3 2.269273 1_545
O10 W1 1.811699 1_555
O10 Tb2 2.302325 1_554
O11 W2 1.808374 1_555
O11 Tb0 2.298205 1_556
O12 W3 1.808374 1_555
O12 Tb3 2.298205 1_555
O13 W4 1.811699 1_555
O13 Tb1 2.302325 1_555
O14 W4 1.816605 1_555
O14 Tb0 2.269273 1_465
O15 W3 1.813477 1_555
O15 Tb2 2.250462 1_555
O16 W5 1.807210 1_555
O16 Tb0 2.262399 1_455
O17 W3 1.814611 1_555
O17 Tb1 2.274291 1_555
O18 W4 1.818102 1_555
O18 Tb3 2.293166 1_555
O19 W5 1.813958 1_556
O19 Tb2 2.264820 1_555
O20 W6 1.812471 1_554
O20 Tb0 2.280343 1_565
O21 W7 1.812398 1_555
O21 Tb1 2.283581 1_655
O22 W6 1.813352 1_545
O22 Tb2 2.290672 1_555
O23 W8 1.809763 1_555
O23 Tb3 2.262456 1_555
O24 W3 1.809763 1_555
O24 Tb4 2.262456 1_555
O25 W5 1.813352 1_565
O25 Tb5 2.290672 1_555
O26 W4 1.812398 1_555
O26 Tb6 2.283581 1_455
O27 W5 1.812471 1_556
O27 Tb7 2.280343 1_545
O28 W6 1.813958 1_554
O28 Tb5 2.264820 1_555
O29 W7 1.818102 1_555
O29 Tb4 2.293166 1_555
O30 W8 1.814611 1_555
O30 Tb6 2.274291 1_555
O31 W6 1.807210 1_555
O31 Tb7 2.262399 1_655
O32 W8 1.813477 1_555
O32 Tb5 2.250462 1_555
O33 W7 1.816605 1_555
O33 Tb7 2.269273 1_645
O34 W7 1.811699 1_555
O34 Tb6 2.302325 1_555
O35 W8 1.808374 1_555
O35 Tb4 2.298205 1_555
O36 W9 1.808374 1_555
O36 Tb7 2.298205 1_554
O37 W10 1.811699 1_555
O37 Tb5 2.302325 1_556
O38 W10 1.816605 1_555
O38 Tb4 2.269273 1_565
O39 W9 1.813477 1_555
O39 Tb6 2.250462 1_455
O40 W11 1.807210 1_555
O40 Tb4 2.262399 1_555
O41 W9 1.814611 1_555
O41 Tb5 2.274291 1_555
O42 W10 1.818102 1_555
O42 Tb7 2.293166 1_555
O43 W11 1.813958 1_555
O43 Tb6 2.264820 1_455
O44 W1 1.812398 1_555
O44 Tb5 2.283581 1_555
O45 W0 1.813352 1_545
O45 Tb6 2.290672 1_555
O46 W0 1.812471 1_555
O46 Tb4 2.280343 1_565
O47 W2 1.809763 1_555
O47 Tb7 2.262456 1_655
