# generated using pymatgen
data_Li3V2(O2F)2
_symmetry_space_group_name_H-M   'P 1'
_cell_length_a   5.97824853
_cell_length_b   5.97824853
_cell_length_c   14.94073027
_cell_angle_alpha   89.90706133
_cell_angle_beta   89.90706133
_cell_angle_gamma   60.21697584
_symmetry_Int_Tables_number   1
_chemical_formula_structural   Li3V2(O2F)2
_chemical_formula_sum   'Li12 V8 O16 F8'
_cell_volume   463.44160260
_cell_formula_units_Z   4
loop_
 _symmetry_equiv_pos_site_id
 _symmetry_equiv_pos_as_xyz
  1  'x, y, z'
loop_
 _atom_site_type_symbol
 _atom_site_label
 _atom_site_symmetry_multiplicity
 _atom_site_fract_x
 _atom_site_fract_y
 _atom_site_fract_z
 _atom_site_occupancy
  Li  Li0  1  0.13652200  0.71092700  0.16641200  1
  Li  Li1  1  0.14762600  0.66909000  0.66711200  1
  Li  Li2  1  0.49922500  0.49922500  0.02689400  1
  Li  Li3  1  0.71092700  0.13652200  0.16641200  1
  Li  Li4  1  0.66909000  0.14762600  0.66711200  1
  Li  Li5  1  0.33114500  0.33114500  0.29241700  1
  Li  Li6  1  0.16368000  0.16368000  0.66306500  1
  Li  Li7  1  0.47441000  0.99662900  0.04588600  1
  Li  Li8  1  0.67325100  0.67325100  0.17523400  1
  Li  Li9  1  0.99662900  0.47441000  0.04588600  1
  Li  Li10  1  0.32931300  0.86105000  0.29658200  1
  Li  Li11  1  0.86105000  0.32931300  0.29658200  1
  V  V0  1  0.50344600  0.50344600  0.50819100  1
  V  V1  1  0.99694600  0.99694600  0.49302900  1
  V  V2  1  0.33258200  0.33258200  0.83549100  1
  V  V3  1  0.49590100  0.00203400  0.49945100  1
  V  V4  1  0.83061000  0.83061000  0.83605100  1
  V  V5  1  0.00203400  0.49590100  0.49945100  1
  V  V6  1  0.33425000  0.83193600  0.82730900  1
  V  V7  1  0.83193600  0.33425000  0.82730900  1
  O  O0  1  0.16714200  0.66741500  0.89663000  1
  O  O1  1  0.17110500  0.66717300  0.43747100  1
  O  O2  1  0.48956000  0.48956000  0.75909500  1
  O  O3  1  0.66717300  0.17110500  0.43747100  1
  O  O4  1  0.66741500  0.16714200  0.89663000  1
  O  O5  1  0.99221900  0.99221900  0.75528000  1
  O  O6  1  0.32789700  0.32789700  0.57716700  1
  O  O7  1  0.17391200  0.17391200  0.89602500  1
  O  O8  1  0.16339200  0.16339200  0.42583300  1
  O  O9  1  0.50152500  0.00976500  0.75973500  1
  O  O10  1  0.83996500  0.83996500  0.57174900  1
  O  O11  1  0.66985900  0.66985900  0.43824000  1
  O  O12  1  0.67560400  0.67560400  0.89847700  1
  O  O13  1  0.00976500  0.50152500  0.75973500  1
  O  O14  1  0.31446300  0.85145200  0.57225000  1
  O  O15  1  0.85145200  0.31446300  0.57225000  1
  F  F0  1  0.50777500  0.50777500  0.25681900  1
  F  F1  1  0.00081700  0.00081700  0.25129800  1
  F  F2  1  0.33622200  0.33622200  0.07186500  1
  F  F3  1  0.50977100  0.00513600  0.24569900  1
  F  F4  1  0.81990100  0.81990100  0.08999200  1
  F  F5  1  0.00513600  0.50977100  0.24569900  1
  F  F6  1  0.35097600  0.79971200  0.09102200  1
  F  F7  1  0.79971200  0.35097600  0.09102200  1
loop_
_geom_bond_atom_site_label_1
_geom_bond_atom_site_label_2
_geom_bond_distance
_geom_bond_site_symmetry_2
Li1 O13 2.099949 1_555
Li1 O5 2.133406 1_455
Li1 O10 2.143299 1_455
Li1 O6 2.224474 1_555
Li1 O2 2.245885 1_555
Li1 O14 2.294063 1_555
Li2 O0 2.600633 1_554
Li2 O4 2.600633 1_554
Li4 O9 2.099949 1_555
Li4 O5 2.133406 1_545
Li4 O10 2.143299 1_545
Li4 O6 2.224474 1_555
Li4 O2 2.245885 1_555
Li4 O15 2.294063 1_555
Li5 O8 2.640273 1_555
Li6 O14 2.114336 1_545
Li6 O15 2.114336 1_455
Li6 O6 2.126955 1_555
Li6 O5 2.243715 1_445
Li6 O9 2.273966 1_555
Li6 O13 2.273966 1_555
Li10 O8 2.490793 1_565
Li11 O8 2.490793 1_655
O0 V2 1.963593 1_555
O0 V4 1.967681 1_455
O0 V6 2.001885 1_555
O1 V1 1.903442 1_455
O1 V5 1.987341 1_555
O1 V0 2.023225 1_555
O2 V2 1.982971 1_555
O2 V7 2.050843 1_555
O2 V6 2.050843 1_555
O3 V1 1.903442 1_545
O3 V3 1.987341 1_555
O3 V0 2.023225 1_555
O4 V2 1.963593 1_555
O4 V4 1.967681 1_545
O4 V7 2.001885 1_555
O5 V4 2.059828 1_555
O5 V7 2.077173 1_565
O5 V6 2.077173 1_655
O6 V5 2.052278 1_555
O6 V3 2.052278 1_555
O6 V0 2.086141 1_555
O7 V2 1.872392 1_555
O7 V6 2.051662 1_545
O7 V7 2.051662 1_455
O8 V1 1.991320 1_445
O8 V5 2.047064 1_555
O8 V3 2.047064 1_555
O9 V2 2.023022 1_555
O9 V6 2.049122 1_545
O9 V4 2.056145 1_545
O10 V1 2.003131 1_555
O10 V3 2.088151 1_565
O10 V5 2.088151 1_655
O11 V3 1.952584 1_565
O11 V5 1.952584 1_655
O11 V0 2.012028 1_555
O12 V4 1.853317 1_555
O12 V7 2.068247 1_555
O12 V6 2.068247 1_555
O13 V2 2.023022 1_555
O13 V7 2.049122 1_455
O13 V4 2.056145 1_455
O14 V1 2.030860 1_455
O14 V3 2.032974 1_565
O14 V0 2.046626 1_555
O15 V1 2.030860 1_545
O15 V5 2.032974 1_655
O15 V0 2.046626 1_555
F0 Li5 1.901822 1_555
F0 Li10 1.927477 1_555
F0 Li11 1.927477 1_555
F0 Li8 2.099393 1_555
F0 Li0 2.356277 1_555
F0 Li3 2.356277 1_555
F1 Li10 1.839810 1_545
F1 Li11 1.839810 1_455
F1 Li3 1.969039 1_455
F1 Li0 1.969039 1_545
F2 Li2 1.813768 1_555
F2 Li9 1.813860 1_455
F2 Li7 1.813860 1_545
F2 Li0 2.405559 1_555
F2 Li3 2.405559 1_555
F3 Li5 1.833148 1_555
F3 Li10 1.844499 1_545
F3 Li8 2.019217 1_545
F3 Li3 2.096928 1_555
F4 Li7 1.910708 1_555
F4 Li9 1.910708 1_555
F4 Li8 1.978780 1_555
F4 Li3 2.022488 1_565
F4 Li0 2.022488 1_655
F5 Li5 1.833148 1_555
F5 Li11 1.844499 1_455
F5 Li8 2.019217 1_455
F5 Li0 2.096928 1_555
F6 Li7 1.801093 1_555
F6 Li2 1.830757 1_555
F6 Li0 1.965588 1_555
F6 Li8 2.103405 1_555
F7 Li9 1.801093 1_555
F7 Li2 1.830757 1_555
F7 Li3 1.965588 1_555
F7 Li8 2.103405 1_555
