# generated using pymatgen
data_Mn2F7
_symmetry_space_group_name_H-M   'P 1'
_cell_length_a   5.62127145
_cell_length_b   5.62127145
_cell_length_c   9.98667708
_cell_angle_alpha   84.09091071
_cell_angle_beta   84.09091071
_cell_angle_gamma   124.60684545
_symmetry_Int_Tables_number   1
_chemical_formula_structural   Mn2F7
_chemical_formula_sum   'Mn4 F14'
_cell_volume   253.28079440
_cell_formula_units_Z   2
loop_
 _symmetry_equiv_pos_site_id
 _symmetry_equiv_pos_as_xyz
  1  'x, y, z'
loop_
 _atom_site_type_symbol
 _atom_site_label
 _atom_site_symmetry_multiplicity
 _atom_site_fract_x
 _atom_site_fract_y
 _atom_site_fract_z
 _atom_site_occupancy
  Mn  Mn0  1  0.81965800  0.75049900  0.42564900  1
  Mn  Mn1  1  0.24950100  0.18034200  0.07435100  1
  Mn  Mn2  1  0.75049900  0.81965800  0.92564900  1
  Mn  Mn3  1  0.18034200  0.24950100  0.57435100  1
  F  F0  1  0.57570400  0.44624900  0.60202300  1
  F  F1  1  0.98161800  0.01838200  0.25000000  1
  F  F2  1  0.02841800  0.80060200  0.01744200  1
  F  F3  1  0.55375100  0.42429600  0.89797700  1
  F  F4  1  0.51534700  0.88606700  0.85463800  1
  F  F5  1  0.88606700  0.51534700  0.35463800  1
  F  F6  1  0.80060200  0.02841800  0.51744200  1
  F  F7  1  0.19939800  0.97158200  0.48255800  1
  F  F8  1  0.11393300  0.48465300  0.64536200  1
  F  F9  1  0.48465300  0.11393300  0.14536200  1
  F  F10  1  0.44624900  0.57570400  0.10202300  1
  F  F11  1  0.97158200  0.19939800  0.98255800  1
  F  F12  1  0.01838200  0.98161800  0.75000000  1
  F  F13  1  0.42429600  0.55375100  0.39797700  1
loop_
_geom_bond_atom_site_label_1
_geom_bond_atom_site_label_2
_geom_bond_distance
_geom_bond_site_symmetry_2
F0 Mn3 1.906885 1_555
F0 Mn0 2.031359 1_555
F1 Mn1 1.934818 1_655
F1 Mn0 1.934818 1_545
F2 Mn2 1.938356 1_454
F2 Mn1 1.950894 1_565
F3 Mn2 1.906885 1_555
F3 Mn1 2.031359 1_556
F4 Mn2 1.757434 1_555
F5 Mn0 1.757434 1_555
F6 Mn0 1.938356 1_545
F6 Mn3 1.950894 1_655
F7 Mn3 1.938356 1_565
F7 Mn0 1.950894 1_455
F8 Mn3 1.757434 1_555
F9 Mn1 1.757434 1_555
F10 Mn1 1.906885 1_555
F10 Mn2 2.031359 1_554
F11 Mn1 1.938356 1_656
F11 Mn2 1.950894 1_545
F12 Mn2 1.934818 1_455
F12 Mn3 1.934818 1_565
F13 Mn0 1.906885 1_555
F13 Mn3 2.031359 1_555
