# generated using pymatgen
data_Li(CoO2)2
_symmetry_space_group_name_H-M   'P 1'
_cell_length_a   4.86000500
_cell_length_b   5.62396100
_cell_length_c   10.10389600
_cell_angle_alpha   90.00000000
_cell_angle_beta   90.00000000
_cell_angle_gamma   90.00000000
_symmetry_Int_Tables_number   1
_chemical_formula_structural   Li(CoO2)2
_chemical_formula_sum   'Li4 Co8 O16'
_cell_volume   276.16452099
_cell_formula_units_Z   4
loop_
 _symmetry_equiv_pos_site_id
 _symmetry_equiv_pos_as_xyz
  1  'x, y, z'
loop_
 _atom_site_type_symbol
 _atom_site_label
 _atom_site_symmetry_multiplicity
 _atom_site_fract_x
 _atom_site_fract_y
 _atom_site_fract_z
 _atom_site_occupancy
  Li  Li0  1  0.52028900  0.50000000  0.00000000  1
  Li  Li1  1  0.85670500  0.50000000  0.50000000  1
  Li  Li2  1  0.14329500  0.00000000  0.00000000  1
  Li  Li3  1  0.47971100  0.00000000  0.50000000  1
  Co  Co0  1  0.50391800  0.00000000  0.75505900  1
  Co  Co1  1  0.49608200  0.50000000  0.74494100  1
  Co  Co2  1  0.50391800  0.00000000  0.24494100  1
  Co  Co3  1  0.49608200  0.50000000  0.25505900  1
  Co  Co4  1  0.00000000  0.75000000  0.75000000  1
  Co  Co5  1  0.00000000  0.75000000  0.25000000  1
  Co  Co6  1  0.00000000  0.25000000  0.75000000  1
  Co  Co7  1  0.00000000  0.25000000  0.25000000  1
  O  O0  1  0.67036600  0.75152100  0.35028000  1
  O  O1  1  0.67036600  0.75152100  0.64972000  1
  O  O2  1  0.67036600  0.24847900  0.35028000  1
  O  O3  1  0.67036600  0.24847900  0.64972000  1
  O  O4  1  0.84608500  0.00000000  0.84953000  1
  O  O5  1  0.84608500  0.00000000  0.15047000  1
  O  O6  1  0.82593600  0.50000000  0.84498500  1
  O  O7  1  0.82593600  0.50000000  0.15501500  1
  O  O8  1  0.17406400  0.00000000  0.34498500  1
  O  O9  1  0.17406400  0.00000000  0.65501500  1
  O  O10  1  0.15391500  0.50000000  0.34953000  1
  O  O11  1  0.15391500  0.50000000  0.65047000  1
  O  O12  1  0.32963400  0.74847900  0.14972000  1
  O  O13  1  0.32963400  0.25152100  0.14972000  1
  O  O14  1  0.32963400  0.74847900  0.85028000  1
  O  O15  1  0.32963400  0.25152100  0.85028000  1
loop_
_geom_bond_atom_site_label_1
_geom_bond_atom_site_label_2
_geom_bond_distance
_geom_bond_site_symmetry_2
Li0 O7 2.158635 1_555
Li0 O6 2.158635 1_554
Li0 O15 2.258277 1_554
Li0 O14 2.258277 1_554
Li0 O12 2.258277 1_555
Li0 O13 2.258277 1_555
Li1 O10 2.097099 1_655
Li1 O11 2.097099 1_655
Li1 O0 2.260418 1_555
Li1 O1 2.260418 1_555
Li1 O2 2.260418 1_555
Li1 O3 2.260418 1_555
Li2 O4 2.097099 1_454
Li2 O5 2.097099 1_455
Li2 O15 2.260418 1_554
Li2 O14 2.260418 1_544
Li2 O13 2.260418 1_555
Li2 O12 2.260418 1_545
Li3 O9 2.158635 1_555
Li3 O8 2.158635 1_555
Li3 O2 2.258277 1_555
Li3 O3 2.258277 1_555
Li3 O0 2.258277 1_545
Li3 O1 2.258277 1_545
Co0 O9 1.895175 1_555
Co0 O14 1.908932 1_545
Co0 O15 1.908932 1_555
Co0 O4 1.917411 1_555
Co0 O3 1.933912 1_555
Co0 O1 1.933912 1_545
Co1 O6 1.895175 1_555
Co1 O1 1.908932 1_555
Co1 O3 1.908932 1_555
Co1 O11 1.917411 1_555
Co1 O15 1.933912 1_555
Co1 O14 1.933912 1_555
Co2 O8 1.895175 1_555
Co2 O12 1.908932 1_545
Co2 O13 1.908932 1_555
Co2 O5 1.917411 1_555
Co2 O2 1.933912 1_555
Co2 O0 1.933912 1_545
Co3 O7 1.895175 1_555
Co3 O0 1.908932 1_555
Co3 O2 1.908932 1_555
Co3 O10 1.917411 1_555
Co3 O12 1.933912 1_555
Co3 O13 1.933912 1_555
Co4 O11 1.883525 1_555
Co4 O4 1.883525 1_465
Co4 O1 1.895564 1_455
Co4 O14 1.895564 1_555
Co4 O6 1.900922 1_455
Co4 O9 1.900922 1_565
Co5 O10 1.883525 1_555
Co5 O5 1.883525 1_465
Co5 O12 1.895564 1_555
Co5 O0 1.895564 1_455
Co5 O8 1.900922 1_565
Co5 O7 1.900922 1_455
Co6 O11 1.883525 1_555
Co6 O4 1.883525 1_455
Co6 O3 1.895564 1_455
Co6 O15 1.895564 1_555
Co6 O6 1.900922 1_455
Co6 O9 1.900922 1_555
Co7 O10 1.883525 1_555
Co7 O5 1.883525 1_455
Co7 O13 1.895564 1_555
Co7 O2 1.895564 1_455
Co7 O8 1.900922 1_555
Co7 O7 1.900922 1_455
