# generated using pymatgen
data_La2UO6
_symmetry_space_group_name_H-M   'P 1'
_cell_length_a   3.94956761
_cell_length_b   6.69058064
_cell_length_c   5.58144245
_cell_angle_alpha   114.74977540
_cell_angle_beta   90.16021357
_cell_angle_gamma   72.75864216
_symmetry_Int_Tables_number   1
_chemical_formula_structural   La2UO6
_chemical_formula_sum   'La2 U1 O6'
_cell_volume   126.66568600
_cell_formula_units_Z   1
loop_
 _symmetry_equiv_pos_site_id
 _symmetry_equiv_pos_as_xyz
  1  'x, y, z'
loop_
 _atom_site_type_symbol
 _atom_site_label
 _atom_site_symmetry_multiplicity
 _atom_site_fract_x
 _atom_site_fract_y
 _atom_site_fract_z
 _atom_site_occupancy
  La  La0  1  0.66822937  0.66954028  0.33406395  1
  La  La1  1  0.34033339  0.32496333  0.66232551  1
  U  U0  1  0.00398133  0.99727574  0.99819560  1
  O  O0  1  0.15212826  0.69976292  0.08274192  1
  O  O1  1  0.50270263  0.99723326  0.21856192  1
  O  O2  1  0.15403216  0.69956657  0.61841655  1
  O  O3  1  0.85445172  0.29489361  0.37807179  1
  O  O4  1  0.50585289  0.99721227  0.77757997  1
  O  O5  1  0.85629524  0.29479903  0.91376779  1
loop_
_geom_bond_atom_site_label_1
_geom_bond_atom_site_label_2
_geom_bond_distance
_geom_bond_site_symmetry_2
La0 O4 2.444745 1_555
La0 O1 2.445668 1_555
La0 O0 2.478047 1_555
La0 O0 2.478467 1_655
La0 O2 2.487004 1_655
La0 O2 2.488538 1_555
La0 O3 2.511173 1_555
La0 O5 2.514363 1_554
La1 O4 2.445147 1_545
La1 O1 2.445780 1_545
La1 O5 2.477981 1_555
La1 O5 2.479096 1_455
La1 O3 2.486931 1_455
La1 O3 2.487832 1_555
La1 O2 2.510611 1_555
La1 O0 2.514914 1_556
O0 U0 2.149836 1_554
O1 U0 2.319282 1_554
O1 U0 2.333837 1_654
O2 U0 2.140998 1_555
O3 U0 2.141052 1_644
O4 U0 2.318053 1_655
O4 U0 2.336229 1_555
O5 U0 2.149507 1_645
