# generated using pymatgen
data_Li4Ti4V4CoO18
_symmetry_space_group_name_H-M   'P 1'
_cell_length_a   2.97834800
_cell_length_b   9.28099900
_cell_length_c   24.36862400
_cell_angle_alpha   90.00000000
_cell_angle_beta   90.00000000
_cell_angle_gamma   90.00000000
_symmetry_Int_Tables_number   1
_chemical_formula_structural   Li4Ti4V4CoO18
_chemical_formula_sum   'Li8 Ti8 V8 Co2 O36'
_cell_volume   673.59859656
_cell_formula_units_Z   2
loop_
 _symmetry_equiv_pos_site_id
 _symmetry_equiv_pos_as_xyz
  1  'x, y, z'
loop_
 _atom_site_type_symbol
 _atom_site_label
 _atom_site_symmetry_multiplicity
 _atom_site_fract_x
 _atom_site_fract_y
 _atom_site_fract_z
 _atom_site_occupancy
  Li  Li0  1  0.00000000  0.19639900  0.49276500  1
  Li  Li1  1  0.00000000  0.18656300  0.68994600  1
  Li  Li2  1  0.00000000  0.31343700  0.18994600  1
  Li  Li3  1  0.00000000  0.30360100  0.99276500  1
  Li  Li4  1  0.00000000  0.69639900  0.00723500  1
  Li  Li5  1  0.00000000  0.68656300  0.81005400  1
  Li  Li6  1  0.00000000  0.81343700  0.31005400  1
  Li  Li7  1  0.00000000  0.80360100  0.50723500  1
  Ti  Ti0  1  0.00000000  0.98560500  0.60072600  1
  Ti  Ti1  1  0.50000000  0.16877600  0.30557900  1
  Ti  Ti2  1  0.50000000  0.33122400  0.80557900  1
  Ti  Ti3  1  0.00000000  0.51439500  0.10072600  1
  Ti  Ti4  1  0.00000000  0.48560500  0.89927400  1
  Ti  Ti5  1  0.50000000  0.66877600  0.19442100  1
  Ti  Ti6  1  0.50000000  0.83122400  0.69442100  1
  Ti  Ti7  1  0.00000000  0.01439500  0.39927400  1
  V  V0  1  0.00000000  0.98952800  0.81834100  1
  V  V1  1  0.50000000  0.16203300  0.08758600  1
  V  V2  1  0.50000000  0.33796700  0.58758600  1
  V  V3  1  0.00000000  0.51047200  0.31834100  1
  V  V4  1  0.00000000  0.48952800  0.68165900  1
  V  V5  1  0.50000000  0.66203300  0.41241400  1
  V  V6  1  0.50000000  0.83796700  0.91241400  1
  V  V7  1  0.00000000  0.01047200  0.18165900  1
  Co  Co0  1  0.00000000  0.00000000  0.00000000  1
  Co  Co1  1  0.00000000  0.50000000  0.50000000  1
  O  O0  1  0.00000000  0.97908500  0.90419100  1
  O  O1  1  0.00000000  0.02091500  0.09580900  1
  O  O2  1  0.50000000  0.06826500  0.44484900  1
  O  O3  1  0.50000000  0.02999800  0.65802500  1
  O  O4  1  0.50000000  0.16241000  0.16534900  1
  O  O5  1  0.00000000  0.12087000  0.25529800  1
  O  O6  1  0.50000000  0.14846500  0.01037900  1
  O  O7  1  0.50000000  0.12455400  0.79566300  1
  O  O8  1  0.00000000  0.19447300  0.35816200  1
  O  O9  1  0.00000000  0.19184300  0.58237800  1
  O  O10  1  0.00000000  0.30815700  0.08237800  1
  O  O11  1  0.00000000  0.30552700  0.85816200  1
  O  O12  1  0.50000000  0.37544600  0.29566300  1
  O  O13  1  0.50000000  0.35153500  0.51037900  1
  O  O14  1  0.00000000  0.37913000  0.75529800  1
  O  O15  1  0.50000000  0.33759000  0.66534900  1
  O  O16  1  0.50000000  0.47000200  0.15802500  1
  O  O17  1  0.50000000  0.43173500  0.94484900  1
  O  O18  1  0.00000000  0.47908500  0.59580900  1
  O  O19  1  0.00000000  0.52091500  0.40419100  1
  O  O20  1  0.50000000  0.56826500  0.05515100  1
  O  O21  1  0.50000000  0.52999800  0.84197500  1
  O  O22  1  0.50000000  0.66241000  0.33465100  1
  O  O23  1  0.00000000  0.62087000  0.24470200  1
  O  O24  1  0.50000000  0.64846500  0.48962100  1
  O  O25  1  0.50000000  0.62455400  0.70433700  1
  O  O26  1  0.00000000  0.69447300  0.14183800  1
  O  O27  1  0.00000000  0.69184300  0.91762200  1
  O  O28  1  0.00000000  0.80815700  0.41762200  1
  O  O29  1  0.00000000  0.80552700  0.64183800  1
  O  O30  1  0.50000000  0.87544600  0.20433700  1
  O  O31  1  0.50000000  0.85153500  0.98962100  1
  O  O32  1  0.00000000  0.87913000  0.74470200  1
  O  O33  1  0.50000000  0.83759000  0.83465100  1
  O  O34  1  0.50000000  0.97000200  0.34197500  1
  O  O35  1  0.50000000  0.93173500  0.55515100  1
loop_
_geom_bond_atom_site_label_1
_geom_bond_atom_site_label_2
_geom_bond_distance
_geom_bond_site_symmetry_2
Li0 O13 2.115408 1_455
Li0 O13 2.115408 1_555
Li0 O9 2.184155 1_555
Li0 O2 2.235008 1_455
Li0 O2 2.235008 1_555
Li1 O15 2.131109 1_455
Li1 O15 2.131109 1_555
Li1 O3 2.221298 1_455
Li1 O3 2.221298 1_555
Li1 O14 2.393807 1_555
Li2 O4 2.131109 1_455
Li2 O4 2.131109 1_555
Li2 O16 2.221298 1_455
Li2 O16 2.221298 1_555
Li2 O5 2.393807 1_555
Li3 O6 2.115408 1_456
Li3 O6 2.115408 1_556
Li3 O10 2.184155 1_556
Li3 O17 2.235008 1_455
Li3 O17 2.235008 1_555
Li4 O31 2.115408 1_554
Li4 O31 2.115408 1_454
Li4 O27 2.184155 1_554
Li4 O20 2.235008 1_555
Li4 O20 2.235008 1_455
Li5 O33 2.131109 1_455
Li5 O33 2.131109 1_555
Li5 O21 2.221298 1_555
Li5 O21 2.221298 1_455
Li5 O32 2.393807 1_555
Li6 O22 2.131109 1_455
Li6 O22 2.131109 1_555
Li6 O34 2.221298 1_455
Li6 O34 2.221298 1_555
Li6 O23 2.393807 1_555
Li7 O24 2.115408 1_555
Li7 O24 2.115408 1_455
Li7 O28 2.184155 1_555
Li7 O35 2.235008 1_555
Li7 O35 2.235008 1_455
Co0 O31 2.044560 1_444
Co0 O31 2.044560 1_544
Co0 O6 2.044560 1_555
Co0 O6 2.044560 1_455
Co0 O1 2.342789 1_555
Co0 O0 2.342789 1_544
Co1 O24 2.044560 1_555
Co1 O24 2.044560 1_455
Co1 O13 2.044560 1_455
Co1 O13 2.044560 1_555
Co1 O19 2.342789 1_555
Co1 O18 2.342789 1_555
O0 V6 1.993276 1_555
O0 V6 1.993276 1_455
O0 V0 2.094290 1_555
O1 V1 1.993276 1_555
O1 V1 1.993276 1_455
O1 V7 2.094290 1_555
O2 Ti7 1.923808 1_555
O2 Ti7 1.923808 1_655
O3 Ti6 2.046947 1_545
O3 Ti0 2.082556 1_645
O3 Ti0 2.082556 1_545
O4 V1 1.894981 1_555
O4 V7 2.089041 1_555
O4 V7 2.089041 1_655
O5 Ti1 1.979048 1_455
O5 Ti1 1.979048 1_555
O5 V7 2.066392 1_555
O6 V1 1.885638 1_555
O7 Ti2 1.933265 1_555
O7 V0 2.023238 1_545
O7 V0 2.023238 1_645
O8 Ti7 1.948575 1_555
O8 Ti1 1.979000 1_555
O8 Ti1 1.979000 1_455
O9 Ti0 1.965622 1_545
O9 V2 2.018158 1_555
O9 V2 2.018158 1_455
O10 Ti3 1.965622 1_555
O10 V1 2.018158 1_555
O10 V1 2.018158 1_455
O11 Ti4 1.948575 1_555
O11 Ti2 1.979000 1_455
O11 Ti2 1.979000 1_555
O12 Ti1 1.933265 1_555
O12 V3 2.023238 1_555
O12 V3 2.023238 1_655
O13 V2 1.885638 1_555
O14 Ti2 1.979048 1_555
O14 Ti2 1.979048 1_455
O14 V4 2.066392 1_555
O15 V2 1.894981 1_555
O15 V4 2.089041 1_655
O15 V4 2.089041 1_555
O16 Ti5 2.046947 1_555
O16 Ti3 2.082556 1_555
O16 Ti3 2.082556 1_655
O17 Ti4 1.923808 1_555
O17 Ti4 1.923808 1_655
O18 V2 1.993276 1_555
O18 V2 1.993276 1_455
O18 V4 2.094290 1_555
O19 V5 1.993276 1_455
O19 V5 1.993276 1_555
O19 V3 2.094290 1_555
O20 Ti3 1.923808 1_555
O20 Ti3 1.923808 1_655
O21 Ti2 2.046947 1_555
O21 Ti4 2.082556 1_555
O21 Ti4 2.082556 1_655
O22 V5 1.894981 1_555
O22 V3 2.089041 1_555
O22 V3 2.089041 1_655
O23 Ti5 1.979048 1_455
O23 Ti5 1.979048 1_555
O23 V3 2.066392 1_555
O24 V5 1.885638 1_555
O25 Ti6 1.933265 1_555
O25 V4 2.023238 1_655
O25 V4 2.023238 1_555
O26 Ti3 1.948575 1_555
O26 Ti5 1.979000 1_455
O26 Ti5 1.979000 1_555
O27 Ti4 1.965622 1_555
O27 V6 2.018158 1_455
O27 V6 2.018158 1_555
O28 Ti7 1.965622 1_565
O28 V5 2.018158 1_455
O28 V5 2.018158 1_555
O29 Ti0 1.948575 1_555
O29 Ti6 1.979000 1_455
O29 Ti6 1.979000 1_555
O30 Ti5 1.933265 1_555
O30 V7 2.023238 1_565
O30 V7 2.023238 1_665
O31 V6 1.885638 1_555
O32 Ti6 1.979048 1_555
O32 Ti6 1.979048 1_455
O32 V0 2.066392 1_555
O33 V6 1.894981 1_555
O33 V0 2.089041 1_655
O33 V0 2.089041 1_555
O34 Ti1 2.046947 1_565
O34 Ti7 2.082556 1_565
O34 Ti7 2.082556 1_665
O35 Ti0 1.923808 1_655
O35 Ti0 1.923808 1_555
