# generated using pymatgen
data_Li3CoBO4
_symmetry_space_group_name_H-M   'P 1'
_cell_length_a   9.56549726
_cell_length_b   9.56549726
_cell_length_c   9.56549726
_cell_angle_alpha   116.38186124
_cell_angle_beta   116.38186124
_cell_angle_gamma   96.39007677
_symmetry_Int_Tables_number   1
_chemical_formula_structural   Li3CoBO4
_chemical_formula_sum   'Li24 Co8 B8 O32'
_cell_volume   648.35982323
_cell_formula_units_Z   8
loop_
 _symmetry_equiv_pos_site_id
 _symmetry_equiv_pos_as_xyz
  1  'x, y, z'
loop_
 _atom_site_type_symbol
 _atom_site_label
 _atom_site_symmetry_multiplicity
 _atom_site_fract_x
 _atom_site_fract_y
 _atom_site_fract_z
 _atom_site_occupancy
  Li  Li0  1  0.91549400  0.09705200  0.13614200  1
  Li  Li1  1  0.83450600  0.15294800  0.36385800  1
  Li  Li2  1  0.90294800  0.03909000  0.81844200  1
  Li  Li3  1  0.52935200  0.16549400  0.31844200  1
  Li  Li4  1  0.41738600  0.26994300  0.10504700  1
  Li  Li5  1  0.72155400  0.56390100  0.14259500  1
  Li  Li6  1  0.22064800  0.08450600  0.18155800  1
  Li  Li7  1  0.84705200  0.21091000  0.68155800  1
  Li  Li8  1  0.73005700  0.83510400  0.14744400  1
  Li  Li9  1  0.43609900  0.57869400  0.15765200  1
  Li  Li10  1  0.78909000  0.47064800  0.63614200  1
  Li  Li11  1  0.96091000  0.77935200  0.86385800  1
  Li  Li12  1  0.42104200  0.27844600  0.84234800  1
  Li  Li13  1  0.31390100  0.67130600  0.34234800  1
  Li  Li14  1  0.01994300  0.41489600  0.35255600  1
  Li  Li15  1  0.68766000  0.58261400  0.85255600  1
  Li  Li16  1  0.02844600  0.68609900  0.35740500  1
  Li  Li17  1  0.42130600  0.57895800  0.85740500  1
  Li  Li18  1  0.58510400  0.93766000  0.60504700  1
  Li  Li19  1  0.33261400  0.98005700  0.39495300  1
  Li  Li20  1  0.16489600  0.31234000  0.89495300  1
  Li  Li21  1  0.32869400  0.67104200  0.64259500  1
  Li  Li22  1  0.06234000  0.66738600  0.64744400  1
  Li  Li23  1  0.32895800  0.97155400  0.65765200  1
  Co  Co0  1  0.46100000  0.91693100  0.99619900  1
  Co  Co1  1  0.53519900  0.53900000  0.45593100  1
  Co  Co2  1  0.66693100  0.17073200  0.95593100  1
  Co  Co3  1  0.82926800  0.78519900  0.49619900  1
  Co  Co4  1  0.28900000  0.33306900  0.50380100  1
  Co  Co5  1  0.08306900  0.07926800  0.54406900  1
  Co  Co6  1  0.21480100  0.71100000  0.04406900  1
  Co  Co7  1  0.92073200  0.46480100  0.00380100  1
  B  B0  1  0.72838700  0.39474400  0.27492600  1
  B  B1  1  0.14474400  0.36981800  0.16635700  1
  B  B2  1  0.54653900  0.27161300  0.66635700  1
  B  B3  1  0.60525600  0.88018200  0.33364300  1
  B  B4  1  0.63018200  0.79653900  0.77492600  1
  B  B5  1  0.02161300  0.85525600  0.22507400  1
  B  B6  1  0.11981800  0.45346100  0.72507400  1
  B  B7  1  0.20346100  0.97838700  0.83364300  1
  O  O0  1  0.79949100  0.25982000  0.22898600  1
  O  O1  1  0.32050500  0.04949100  0.03967100  1
  O  O2  1  0.59914800  0.35556400  0.08504900  1
  O  O3  1  0.88302200  0.68123100  0.11231600  1
  O  O4  1  0.86697800  0.56876900  0.38768400  1
  O  O5  1  0.64411400  0.38363300  0.36993700  1
  O  O6  1  0.42949500  0.20050900  0.46032900  1
  O  O7  1  0.31876900  0.43108500  0.20179100  1
  O  O8  1  0.52070600  0.13302200  0.70179100  1
  O  O9  1  0.95050900  0.99018000  0.27101400  1
  O  O10  1  0.13363300  0.26369600  0.23951900  1
  O  O11  1  0.72582400  0.35588600  0.73951900  1
  O  O12  1  0.64443600  0.72948500  0.24358400  1
  O  O13  1  0.10556400  0.52051500  0.25641600  1
  O  O14  1  0.48590100  0.40085200  0.75641600  1
  O  O15  1  0.61636700  0.98630400  0.26048100  1
  O  O16  1  0.71916600  0.67949500  0.72898600  1
  O  O17  1  0.22929400  0.11697800  0.79820900  1
  O  O18  1  0.43123100  0.81891500  0.29820900  1
  O  O19  1  0.74018000  0.96916600  0.53967100  1
  O  O20  1  0.47948500  0.73590100  0.58504900  1
  O  O21  1  0.10588600  0.86636700  0.13006300  1
  O  O22  1  0.01369600  0.27417600  0.63006300  1
  O  O23  1  0.18108500  0.47929400  0.61231600  1
  O  O24  1  0.56891500  0.77070600  0.88768400  1
  O  O25  1  0.73630400  0.97582400  0.86993700  1
  O  O26  1  0.27051500  0.51409900  0.91495100  1
  O  O27  1  0.15085200  0.89443600  0.41495100  1
  O  O28  1  0.00982000  0.28083400  0.96032900  1
  O  O29  1  0.03083400  0.57050500  0.77101400  1
  O  O30  1  0.26409900  0.84914800  0.74358400  1
  O  O31  1  0.02417600  0.89411400  0.76048100  1
loop_
_geom_bond_atom_site_label_1
_geom_bond_atom_site_label_2
_geom_bond_distance
_geom_bond_site_symmetry_2
Li0 O9 1.919878 1_545
Li0 O25 1.954804 1_544
Li0 O10 1.974284 1_655
Li0 O0 2.115563 1_555
Li1 O0 1.919878 1_555
Li1 O22 1.954804 1_655
Li1 O15 1.974284 1_545
Li1 O9 2.115563 1_545
Li2 O28 1.919878 1_655
Li2 O31 1.954795 1_645
Li2 O25 1.974280 1_545
Li2 O19 2.115563 1_545
Li3 O6 1.919878 1_555
Li3 O15 1.954803 1_545
Li3 O5 1.974284 1_555
Li3 O1 2.115563 1_555
Li4 O1 1.890680 1_555
Li4 O2 1.961654 1_555
Li4 O7 1.988452 1_555
Li4 O5 2.109244 1_555
Li4 O17 2.212919 1_554
Li5 O12 1.876074 1_555
Li5 O2 1.891646 1_555
Li5 O3 2.007392 1_555
Li5 O4 2.103269 1_555
Li6 O1 1.919878 1_555
Li6 O10 1.954803 1_555
Li6 O21 1.974284 1_545
Li6 O6 2.115563 1_555
Li7 O19 1.919878 1_545
Li7 O11 1.954795 1_555
Li7 O22 1.974280 1_655
Li7 O28 2.115563 1_655
Li8 O9 1.890682 1_555
Li8 O12 1.961645 1_555
Li8 O24 1.988459 1_554
Li8 O15 2.109240 1_555
Li8 O3 2.212920 1_555
Li9 O26 1.876067 1_554
Li9 O12 1.891643 1_555
Li9 O7 2.007399 1_555
Li9 O18 2.103271 1_555
Li10 O29 1.919878 1_655
Li10 O5 1.954803 1_555
Li10 O11 1.974279 1_555
Li10 O16 2.115563 1_555
Li11 O16 1.919878 1_555
Li11 O21 1.954803 1_656
Li11 O31 1.974279 1_655
Li11 O29 2.115563 1_655
Li12 O2 1.876064 1_556
Li12 O14 1.891650 1_555
Li12 O17 2.007394 1_555
Li12 O8 2.103267 1_555
Li13 O20 1.876067 1_555
Li13 O13 1.891643 1_555
Li13 O18 2.007399 1_555
Li13 O7 2.103271 1_555
Li14 O0 1.890682 1_455
Li14 O13 1.961645 1_555
Li14 O23 1.988459 1_555
Li14 O10 2.109240 1_555
Li14 O4 2.212920 1_455
Li15 O16 1.890675 1_555
Li15 O14 1.961651 1_555
Li15 O3 1.988461 1_556
Li15 O11 2.109253 1_555
Li15 O24 2.212913 1_555
Li16 O13 1.876074 1_555
Li16 O27 1.891646 1_555
Li16 O4 2.007392 1_455
Li16 O3 2.103269 1_455
Li17 O14 1.876067 1_555
Li17 O26 1.891643 1_555
Li17 O24 2.007399 1_555
Li17 O23 2.103271 1_555
Li18 O19 1.890682 1_555
Li18 O20 1.961645 1_555
Li18 O8 1.988459 1_565
Li18 O25 2.109236 1_555
Li18 O18 2.212920 1_555
Li19 O6 1.890680 1_565
Li19 O27 1.961654 1_555
Li19 O18 1.988452 1_555
Li19 O21 2.109244 1_555
Li19 O8 2.212919 1_565
Li20 O28 1.890682 1_555
Li20 O26 1.961645 1_555
Li20 O17 1.988459 1_555
Li20 O22 2.109236 1_555
Li20 O7 2.212920 1_556
Li21 O30 1.876067 1_555
Li21 O20 1.891643 1_555
Li21 O23 2.007399 1_555
Li21 O24 2.103271 1_555
Li22 O29 1.890675 1_555
Li22 O30 1.961651 1_555
Li22 O4 1.988461 1_455
Li22 O31 2.109253 1_555
Li22 O23 2.212913 1_555
Li23 O27 1.876064 1_555
Li23 O30 1.891650 1_555
Li23 O8 2.007394 1_565
Li23 O17 2.103267 1_565
Co0 O15 1.997633 1_556
Co0 O1 1.998547 1_566
Co0 O24 2.020583 1_555
Co0 O30 2.024330 1_555
Co1 O5 1.997633 1_555
Co1 O16 1.998547 1_555
Co1 O7 2.020583 1_555
Co1 O20 2.024330 1_555
Co2 O25 1.997625 1_545
Co2 O0 1.998547 1_556
Co2 O8 2.020583 1_555
Co2 O2 2.024330 1_556
Co3 O31 1.997630 1_655
Co3 O19 1.998547 1_555
Co3 O4 2.020583 1_555
Co3 O12 2.024330 1_555
Co4 O10 1.997633 1_555
Co4 O6 1.998547 1_555
Co4 O23 2.020583 1_555
Co4 O14 2.024330 1_555
Co5 O22 1.997625 1_555
Co5 O9 1.998547 1_445
Co5 O17 2.020583 1_555
Co5 O27 2.024330 1_545
Co6 O21 1.997633 1_555
Co6 O29 1.998547 1_554
Co6 O18 2.020583 1_555
Co6 O26 2.024330 1_554
Co7 O11 1.997630 1_554
Co7 O28 1.998547 1_654
Co7 O3 2.020583 1_555
Co7 O13 2.024330 1_655
B0 O5 1.484901 1_555
B0 O2 1.504680 1_555
B0 O0 1.509430 1_555
B0 O4 1.527823 1_555
B1 O10 1.484901 1_555
B1 O13 1.504680 1_555
B1 O28 1.509430 1_554
B1 O7 1.527823 1_555
B2 O11 1.484910 1_555
B2 O14 1.504680 1_555
B2 O6 1.509430 1_555
B2 O8 1.527823 1_555
B3 O15 1.484901 1_555
B3 O12 1.504680 1_555
B3 O19 1.509430 1_555
B3 O18 1.527823 1_555
B4 O25 1.484909 1_555
B4 O20 1.504680 1_555
B4 O16 1.509430 1_555
B4 O24 1.527823 1_555
B5 O21 1.484901 1_555
B5 O27 1.504680 1_555
B5 O9 1.509430 1_455
B5 O3 1.527823 1_455
B6 O22 1.484909 1_555
B6 O26 1.504680 1_555
B6 O29 1.509430 1_555
B6 O23 1.527823 1_555
B7 O31 1.484910 1_555
B7 O30 1.504680 1_555
B7 O1 1.509430 1_566
B7 O17 1.527823 1_565
