# generated using pymatgen
data_LiFe2OF5
_symmetry_space_group_name_H-M   'P 1'
_cell_length_a   4.85368900
_cell_length_b   5.34813300
_cell_length_c   15.21430511
_cell_angle_alpha   89.31129171
_cell_angle_beta   90.00000000
_cell_angle_gamma   90.00000000
_symmetry_Int_Tables_number   1
_chemical_formula_structural   LiFe2OF5
_chemical_formula_sum   'Li4 Fe8 O4 F20'
_cell_volume   394.90705320
_cell_formula_units_Z   4
loop_
 _symmetry_equiv_pos_site_id
 _symmetry_equiv_pos_as_xyz
  1  'x, y, z'
loop_
 _atom_site_type_symbol
 _atom_site_label
 _atom_site_symmetry_multiplicity
 _atom_site_fract_x
 _atom_site_fract_y
 _atom_site_fract_z
 _atom_site_occupancy
  Li  Li0  1  0.25695900  0.12910200  0.57436900  1
  Li  Li1  1  0.74304100  0.12910200  0.07436900  1
  Li  Li2  1  0.75504600  0.81484300  0.92660000  1
  Li  Li3  1  0.24495400  0.81484300  0.42660000  1
  Fe  Fe0  1  0.76846700  0.28116100  0.74932000  1
  Fe  Fe1  1  0.21629800  0.30294900  0.90439700  1
  Fe  Fe2  1  0.23153300  0.28116100  0.24931900  1
  Fe  Fe3  1  0.78370200  0.30294900  0.40439700  1
  Fe  Fe4  1  0.72713700  0.61708100  0.58698600  1
  Fe  Fe5  1  0.27090900  0.79249500  0.75241400  1
  Fe  Fe6  1  0.27286300  0.61708100  0.08698600  1
  Fe  Fe7  1  0.72909100  0.79249500  0.25241400  1
  O  O0  1  0.08184700  0.09278800  0.80220400  1
  O  O1  1  0.91815300  0.09278800  0.30220400  1
  O  O2  1  0.52648800  0.54810400  0.69580400  1
  O  O3  1  0.47351200  0.54810400  0.19580400  1
  F  F0  1  0.57607000  0.16583500  0.86183100  1
  F  F1  1  0.00180000  0.07867900  0.97564200  1
  F  F2  1  0.42393000  0.16583500  0.36183100  1
  F  F3  1  0.99820000  0.07867900  0.47564200  1
  F  F4  1  0.53922800  0.35007600  0.51683300  1
  F  F5  1  0.97274800  0.33449800  0.63736800  1
  F  F6  1  0.96939400  0.56566400  0.80846700  1
  F  F7  1  0.46077200  0.35007600  0.01683300  1
  F  F8  1  0.43478900  0.64512900  0.86324500  1
  F  F9  1  0.02725200  0.33449800  0.13736800  1
  F  F10  1  0.02449400  0.57119800  0.97806100  1
  F  F11  1  0.03060600  0.56566400  0.30846700  1
  F  F12  1  0.56521100  0.64512900  0.36324500  1
  F  F13  1  0.97550600  0.57119800  0.47806100  1
  F  F14  1  0.48728600  0.84810300  0.53014300  1
  F  F15  1  0.02782100  0.82336100  0.64438600  1
  F  F16  1  0.52358400  0.03893200  0.69193200  1
  F  F17  1  0.51271400  0.84810300  0.03014300  1
  F  F18  1  0.97217900  0.82336100  0.14438600  1
  F  F19  1  0.47641600  0.03893200  0.19193200  1
loop_
_geom_bond_atom_site_label_1
_geom_bond_atom_site_label_2
_geom_bond_distance
_geom_bond_site_symmetry_2
Fe0 O0 1.989075 1_655
Fe0 O2 2.013106 1_555
Fe1 O0 2.036804 1_555
Fe2 O1 1.989081 1_455
Fe2 O3 2.013100 1_555
Fe3 O1 2.036804 1_555
Fe4 O2 1.952137 1_555
Fe5 O2 2.004009 1_555
Fe5 O0 2.006096 1_565
Fe6 O3 1.952137 1_555
Fe7 O3 2.004009 1_555
Fe7 O1 2.006096 1_565
F0 Fe1 2.004455 1_555
F0 Fe0 2.038937 1_555
F0 Li2 2.281426 1_545
F1 Fe1 1.914733 1_555
F1 Li1 1.978895 1_456
F1 Li2 2.001861 1_445
F2 Fe3 2.004455 1_555
F2 Fe2 2.038949 1_555
F2 Li3 2.281426 1_545
F3 Fe3 1.914733 1_555
F3 Li0 1.978895 1_655
F3 Li3 2.001861 1_645
F4 Li0 2.003766 1_555
F4 Fe4 2.011664 1_555
F4 Fe3 2.099568 1_555
F5 Fe0 1.988449 1_555
F5 Li0 2.013360 1_655
F5 Fe4 2.065155 1_555
F6 Fe0 2.027050 1_555
F6 Fe5 2.077448 1_655
F6 Fe1 2.343318 1_655
F6 Li2 2.479159 1_555
F7 Li1 2.003766 1_555
F7 Fe6 2.011664 1_555
F7 Fe1 2.099568 1_554
F8 Fe5 2.016241 1_555
F8 Li2 2.047003 1_555
F8 Fe1 2.199563 1_555
F9 Fe2 1.988436 1_555
F9 Li1 2.013360 1_455
F9 Fe6 2.065155 1_555
F10 Li2 1.999197 1_455
F10 Fe1 2.054160 1_555
F10 Fe6 2.066303 1_556
F11 Fe2 2.027057 1_555
F11 Fe7 2.077448 1_455
F11 Fe3 2.343318 1_455
F11 Li3 2.479159 1_555
F12 Fe7 2.016241 1_555
F12 Li3 2.047003 1_555
F12 Fe3 2.199563 1_555
F13 Li3 1.999197 1_655
F13 Fe3 2.054160 1_555
F13 Fe4 2.066303 1_555
F14 Fe4 1.898437 1_555
F14 Li3 1.975731 1_555
F14 Li0 1.996324 1_565
F15 Fe5 2.028338 1_555
F15 Fe4 2.032934 1_455
F15 Li0 2.236853 1_565
F16 Fe0 1.969902 1_555
F16 Fe5 2.014630 1_545
F16 Li0 2.255168 1_555
F17 Fe6 1.898437 1_555
F17 Li2 1.975731 1_554
F17 Li1 1.996324 1_565
F18 Fe7 2.028338 1_555
F18 Fe6 2.032934 1_655
F18 Li1 2.236853 1_565
F19 Fe2 1.969895 1_555
F19 Fe7 2.014630 1_545
F19 Li1 2.255168 1_555
