# generated using pymatgen
data_LiNbNiO4
_symmetry_space_group_name_H-M   'P 1'
_cell_length_a   6.06372000
_cell_length_b   6.06376000
_cell_length_c   8.59772300
_cell_angle_alpha   89.99997444
_cell_angle_beta   90.00006833
_cell_angle_gamma   90.00000000
_symmetry_Int_Tables_number   1
_chemical_formula_structural   LiNbNiO4
_chemical_formula_sum   'Li4 Nb4 Ni4 O16'
_cell_volume   316.12918509
_cell_formula_units_Z   4
loop_
 _symmetry_equiv_pos_site_id
 _symmetry_equiv_pos_as_xyz
  1  'x, y, z'
loop_
 _atom_site_type_symbol
 _atom_site_label
 _atom_site_symmetry_multiplicity
 _atom_site_fract_x
 _atom_site_fract_y
 _atom_site_fract_z
 _atom_site_occupancy
  Li  Li0  1  0.00000000  0.23450200  0.00000000  1
  Li  Li1  1  0.00000000  0.76549800  0.50000000  1
  Li  Li2  1  0.23450200  0.00000000  0.25000000  1
  Li  Li3  1  0.76549800  0.00000000  0.75000000  1
  Nb  Nb0  1  0.25467100  0.25467100  0.62499900  1
  Nb  Nb1  1  0.25467100  0.74532800  0.87499900  1
  Nb  Nb2  1  0.74532900  0.25467100  0.37500000  1
  Nb  Nb3  1  0.74532900  0.74532900  0.12500000  1
  Ni  Ni0  1  0.24356600  0.50000000  0.24999800  1
  Ni  Ni1  1  0.49999900  0.24357200  0.00000000  1
  Ni  Ni2  1  0.50000400  0.75642900  0.50000000  1
  Ni  Ni3  1  0.75643200  0.49999800  0.75000000  1
  O  O0  1  0.00213300  0.25711200  0.25411600  1
  O  O1  1  0.00213100  0.74288800  0.24588500  1
  O  O2  1  0.25711300  0.00212900  0.99588500  1
  O  O3  1  0.25711300  0.99787000  0.50411600  1
  O  O4  1  0.25749400  0.49374200  0.00726100  1
  O  O5  1  0.25749300  0.50625800  0.49273900  1
  O  O6  1  0.49374200  0.25749400  0.24273900  1
  O  O7  1  0.49374100  0.74250800  0.25726100  1
  O  O8  1  0.50625700  0.25749400  0.75726200  1
  O  O9  1  0.50625800  0.74250800  0.74273900  1
  O  O10  1  0.74250700  0.50625700  0.50726200  1
  O  O11  1  0.74250500  0.49374500  0.99273900  1
  O  O12  1  0.74288600  0.00213000  0.00411600  1
  O  O13  1  0.74288900  0.99786800  0.49588400  1
  O  O14  1  0.99786900  0.25711200  0.74588400  1
  O  O15  1  0.99786800  0.74288700  0.75411500  1
loop_
_geom_bond_atom_site_label_1
_geom_bond_atom_site_label_2
_geom_bond_distance
_geom_bond_site_symmetry_2
Li0 O2 2.101751 1_554
Li0 O12 2.101752 1_455
Li0 O14 2.189155 1_454
Li0 O0 2.189155 1_555
Li0 O4 2.216498 1_555
Li0 O11 2.216516 1_454
Li1 O13 2.101730 1_455
Li1 O3 2.101747 1_555
Li1 O1 2.189146 1_555
Li1 O15 2.189146 1_455
Li1 O5 2.216494 1_555
Li1 O10 2.216499 1_455
Li2 O0 2.101732 1_555
Li2 O1 2.101740 1_545
Li2 O2 2.189146 1_554
Li2 O3 2.189155 1_545
Li2 O7 2.216485 1_545
Li2 O6 2.216498 1_555
Li3 O14 2.101740 1_555
Li3 O15 2.101740 1_545
Li3 O13 2.189154 1_545
Li3 O12 2.189155 1_556
Li3 O9 2.216490 1_545
Li3 O8 2.216503 1_555
Nb0 O3 1.872221 1_545
Nb0 O14 1.872228 1_455
Nb0 O5 1.902816 1_555
Nb0 O8 1.902818 1_555
Nb1 O15 1.872226 1_455
Nb1 O2 1.872235 1_565
Nb1 O9 1.902810 1_555
Nb1 O4 1.902822 1_556
Nb2 O0 1.872233 1_655
Nb2 O13 1.872235 1_545
Nb2 O6 1.902813 1_555
Nb2 O10 1.902823 1_555
Nb3 O12 1.872225 1_565
Nb3 O1 1.872226 1_655
Nb3 O11 1.902808 1_554
Nb3 O7 1.902820 1_555
Ni0 O0 2.076940 1_555
Ni0 O1 2.076948 1_555
Ni0 O4 2.089038 1_555
Ni0 O5 2.089072 1_555
Ni0 O6 2.113656 1_555
Ni0 O7 2.113661 1_555
Ni1 O2 2.076974 1_554
Ni1 O12 2.076974 1_555
Ni1 O8 2.089045 1_554
Ni1 O6 2.089054 1_555
Ni1 O4 2.113626 1_555
Ni1 O11 2.113644 1_554
Ni2 O13 2.076952 1_555
Ni2 O3 2.076987 1_555
Ni2 O9 2.089053 1_555
Ni2 O7 2.089054 1_555
Ni2 O10 2.113627 1_555
Ni2 O5 2.113656 1_555
Ni3 O14 2.076948 1_555
Ni3 O15 2.076957 1_555
Ni3 O10 2.089046 1_555
Ni3 O11 2.089055 1_555
Ni3 O8 2.113644 1_555
Ni3 O9 2.113664 1_555
