# generated using pymatgen
data_CeZr9O20
_symmetry_space_group_name_H-M   'P 1'
_cell_length_a   6.46175100
_cell_length_b   7.43153027
_cell_length_c   8.20935677
_cell_angle_alpha   77.23293671
_cell_angle_beta   75.28285167
_cell_angle_gamma   72.06121965
_symmetry_Int_Tables_number   1
_chemical_formula_structural   CeZr9O20
_chemical_formula_sum   'Ce1 Zr9 O20'
_cell_volume   358.35856394
_cell_formula_units_Z   1
loop_
 _symmetry_equiv_pos_site_id
 _symmetry_equiv_pos_as_xyz
  1  'x, y, z'
loop_
 _atom_site_type_symbol
 _atom_site_label
 _atom_site_symmetry_multiplicity
 _atom_site_fract_x
 _atom_site_fract_y
 _atom_site_fract_z
 _atom_site_occupancy
  Ce  Ce0  1  0.20059500  0.30104400  0.60019000  1
  Zr  Zr0  1  0.39814500  0.60371700  0.19968600  1
  Zr  Zr1  1  0.19926300  0.80164800  0.59578300  1
  Zr  Zr2  1  0.60085200  0.89545900  0.80227100  1
  Zr  Zr3  1  0.40337700  0.09926600  0.19574200  1
  Zr  Zr4  1  0.79605400  0.70168600  0.39908100  1
  Zr  Zr5  1  0.60192700  0.39737300  0.80282400  1
  Zr  Zr6  1  0.80338100  0.19706100  0.39913000  1
  Zr  Zr7  1  0.99750800  0.00006200  0.00227600  1
  Zr  Zr8  1  0.99945100  0.50239300  0.00231500  1
  O  O0  1  0.38382600  0.92056100  0.04022700  1
  O  O1  1  0.08531000  0.72099200  0.13316500  1
  O  O2  1  0.21783900  0.97472700  0.76355600  1
  O  O3  1  0.31697800  0.37591000  0.05939400  1
  O  O4  1  0.01753200  0.17710200  0.16149400  1
  O  O5  1  0.11858600  0.59486400  0.45209300  1
  O  O6  1  0.71815300  0.97887600  0.26163300  1
  O  O7  1  0.42769800  0.77273900  0.36198400  1
  O  O8  1  0.28157900  0.52437300  0.74165300  1
  O  O9  1  0.87938200  0.92136900  0.54175200  1
  O  O10  1  0.58294000  0.72200400  0.63896800  1
  O  O11  1  0.48649600  0.32085100  0.33502800  1
  O  O12  1  0.17994800  0.10860500  0.43392100  1
  O  O13  1  0.78440300  0.52236600  0.23891600  1
  O  O14  1  0.53391500  0.17654800  0.66517000  1
  O  O15  1  0.81472400  0.38370500  0.55724900  1
  O  O16  1  0.60944000  0.58288900  0.95971400  1
  O  O17  1  0.91587400  0.77679500  0.86112200  1
  O  O18  1  0.96541900  0.32389800  0.84897800  1
  O  O19  1  0.67940300  0.12111500  0.94468700  1
loop_
_geom_bond_atom_site_label_1
_geom_bond_atom_site_label_2
_geom_bond_distance
_geom_bond_site_symmetry_2
Ce0 O14 2.217581 1_555
Ce0 O18 2.219657 1_455
Ce0 O5 2.228905 1_555
Ce0 O12 2.235838 1_555
Ce0 O8 2.464281 1_555
Ce0 O15 2.475086 1_455
Ce0 O11 2.481074 1_555
Ce0 O2 2.482717 1_545
O0 Zr3 2.084288 1_565
O0 Zr2 2.103678 1_554
O0 Zr0 2.414852 1_555
O0 Zr7 2.466352 1_465
O1 Zr7 2.092276 1_465
O1 Zr0 2.099853 1_555
O1 Zr8 2.393752 1_455
O1 Zr4 2.496641 1_455
O2 Zr7 2.117385 1_466
O2 Zr1 2.127885 1_555
O2 Zr2 2.447888 1_555
O3 Zr3 2.093958 1_555
O3 Zr8 2.102073 1_455
O3 Zr5 2.431878 1_554
O3 Zr0 2.486612 1_555
O4 Zr6 2.091046 1_455
O4 Zr7 2.099300 1_455
O4 Zr3 2.454741 1_555
O4 Zr8 2.464252 1_455
O5 Zr4 2.110010 1_455
O5 Zr1 2.373154 1_555
O5 Zr0 2.381648 1_555
O6 Zr4 2.095828 1_555
O6 Zr3 2.110537 1_565
O6 Zr6 2.425145 1_565
O6 Zr7 2.427068 1_565
O7 Zr0 2.099080 1_555
O7 Zr1 2.110988 1_555
O7 Zr4 2.357977 1_555
O7 Zr3 2.487159 1_565
O8 Zr1 2.126215 1_555
O8 Zr5 2.131456 1_555
O8 Zr8 2.444592 1_456
O9 Zr1 2.102227 1_655
O9 Zr6 2.102807 1_565
O9 Zr2 2.434346 1_555
O9 Zr4 2.456438 1_555
O10 Zr2 2.099232 1_555
O10 Zr4 2.103048 1_555
O10 Zr1 2.464241 1_555
O10 Zr5 2.472225 1_555
O11 Zr6 2.118769 1_555
O11 Zr0 2.128400 1_555
O11 Zr3 2.448813 1_555
O12 Zr3 2.115732 1_555
O12 Zr1 2.356717 1_545
O12 Zr6 2.391520 1_455
O13 Zr8 2.086784 1_555
O13 Zr4 2.096882 1_555
O13 Zr6 2.466436 1_555
O13 Zr0 2.468117 1_555
O14 Zr2 2.114024 1_545
O14 Zr5 2.383170 1_555
O14 Zr6 2.430879 1_555
O15 Zr6 2.126255 1_555
O15 Zr5 2.135730 1_555
O15 Zr4 2.415068 1_555
O16 Zr0 2.099288 1_556
O16 Zr5 2.102319 1_555
O16 Zr2 2.387357 1_555
O16 Zr8 2.501604 1_556
O17 Zr2 2.088139 1_555
O17 Zr8 2.094898 1_556
O17 Zr7 2.464452 1_566
O17 Zr1 2.477100 1_655
O18 Zr8 2.109705 1_556
O18 Zr5 2.351437 1_555
O18 Zr7 2.430036 1_556
O19 Zr7 2.103485 1_556
O19 Zr5 2.104326 1_555
O19 Zr3 2.370249 1_556
O19 Zr2 2.475714 1_545
