# generated using pymatgen
data_Gd2W4O15
_symmetry_space_group_name_H-M   'P 1'
_cell_length_a   7.41919600
_cell_length_b   7.57402803
_cell_length_c   11.80168350
_cell_angle_alpha   88.71572110
_cell_angle_beta   83.61458278
_cell_angle_gamma   84.00501650
_symmetry_Int_Tables_number   1
_chemical_formula_structural   Gd2W4O15
_chemical_formula_sum   'Gd4 W8 O30'
_cell_volume   655.41669458
_cell_formula_units_Z   2
loop_
 _symmetry_equiv_pos_site_id
 _symmetry_equiv_pos_as_xyz
  1  'x, y, z'
loop_
 _atom_site_type_symbol
 _atom_site_label
 _atom_site_symmetry_multiplicity
 _atom_site_fract_x
 _atom_site_fract_y
 _atom_site_fract_z
 _atom_site_occupancy
  Gd  Gd0  1  0.24230300  0.40824900  0.22047800  1
  Gd  Gd1  1  0.31845400  0.90756200  0.77729400  1
  Gd  Gd2  1  0.68154600  0.09243800  0.22270600  1
  Gd  Gd3  1  0.75769700  0.59175100  0.77952200  1
  W  W0  1  0.09765900  0.66851100  0.53187300  1
  W  W1  1  0.22809200  0.92250500  0.12918300  1
  W  W2  1  0.27631900  0.42583500  0.87143300  1
  W  W3  1  0.43192000  0.24491000  0.52608000  1
  W  W4  1  0.56808000  0.75509000  0.47392000  1
  W  W5  1  0.72368100  0.57416500  0.12856700  1
  W  W6  1  0.77190800  0.07749500  0.87081700  1
  W  W7  1  0.90234100  0.33148900  0.46812700  1
  O  O0  1  0.04034000  0.16749200  0.53306600  1
  O  O1  1  0.08728200  0.47957900  0.40169600  1
  O  O2  1  0.00932300  0.99658600  0.84830000  1
  O  O3  1  0.04955900  0.50873000  0.84314000  1
  O  O4  1  0.13139100  0.76957400  0.66520800  1
  O  O5  1  0.28016500  0.39967400  0.02310500  1
  O  O6  1  0.26262600  0.70575900  0.19722100  1
  O  O7  1  0.35383300  0.09268000  0.18707300  1
  O  O8  1  0.29253500  0.43325600  0.58993400  1
  O  O9  1  0.33376700  0.71780000  0.44414700  1
  O  O10  1  0.37417000  0.03960400  0.59626700  1
  O  O11  1  0.34201900  0.20803200  0.81076000  1
  O  O12  1  0.41422500  0.26328400  0.37491200  1
  O  O13  1  0.29764200  0.89654000  0.97891300  1
  O  O14  1  0.43151500  0.59403600  0.81915100  1
  O  O15  1  0.56848500  0.40596400  0.18084900  1
  O  O16  1  0.70235800  0.10346000  0.02108700  1
  O  O17  1  0.58577500  0.73671600  0.62508800  1
  O  O18  1  0.65798100  0.79196800  0.18924000  1
  O  O19  1  0.62583000  0.96039600  0.40373300  1
  O  O20  1  0.66623300  0.28220000  0.55585300  1
  O  O21  1  0.70746500  0.56674400  0.41006600  1
  O  O22  1  0.64616700  0.90732000  0.81292700  1
  O  O23  1  0.73737400  0.29424100  0.80277900  1
  O  O24  1  0.71983500  0.60032600  0.97689500  1
  O  O25  1  0.86860900  0.23042600  0.33479200  1
  O  O26  1  0.95044100  0.49127000  0.15686000  1
  O  O27  1  0.99067700  0.00341400  0.15170000  1
  O  O28  1  0.91271800  0.52042100  0.59830400  1
  O  O29  1  0.95966000  0.83250800  0.46693400  1
loop_
_geom_bond_atom_site_label_1
_geom_bond_atom_site_label_2
_geom_bond_distance
_geom_bond_site_symmetry_2
Gd0 O6 2.282475 1_555
Gd0 O5 2.316538 1_555
Gd0 O1 2.358705 1_555
Gd0 O26 2.388308 1_455
Gd0 O15 2.411501 1_555
Gd0 O7 2.471718 1_555
Gd0 O12 2.507819 1_555
Gd1 O11 2.346154 1_565
Gd1 O10 2.351489 1_565
Gd1 O4 2.354050 1_555
Gd1 O13 2.367410 1_555
Gd1 O2 2.385756 1_555
Gd1 O14 2.492014 1_555
Gd1 O22 2.512938 1_555
Gd1 O17 2.758669 1_555
Gd2 O18 2.346154 1_545
Gd2 O19 2.351489 1_545
Gd2 O25 2.354050 1_555
Gd2 O16 2.367410 1_555
Gd2 O27 2.385756 1_555
Gd2 O15 2.492014 1_555
Gd2 O7 2.512938 1_555
Gd2 O12 2.758669 1_555
Gd3 O23 2.282475 1_555
Gd3 O24 2.316538 1_555
Gd3 O28 2.358705 1_555
Gd3 O3 2.388308 1_655
Gd3 O14 2.411501 1_555
Gd3 O22 2.471718 1_555
Gd3 O17 2.507819 1_555
O0 W7 1.744901 1_455
O1 W7 1.948896 1_455
O1 W0 2.135821 1_555
O2 W6 1.796244 1_465
O3 W2 1.797497 1_555
O4 W0 1.818324 1_555
O5 W2 1.799556 1_554
O6 W1 1.817744 1_555
O7 W1 1.852230 1_545
O8 W3 1.799726 1_555
O8 W0 2.315674 1_555
O9 W4 1.862308 1_555
O9 W0 1.998919 1_555
O10 W3 1.813889 1_555
O11 W2 1.810801 1_555
O12 W3 1.804589 1_555
O13 W1 1.800253 1_556
O14 W2 1.855428 1_555
O15 W5 1.855428 1_555
O16 W6 1.800253 1_554
O17 W4 1.804589 1_555
O18 W5 1.810801 1_555
O19 W4 1.813889 1_555
O20 W3 1.862308 1_555
O20 W7 1.998919 1_555
O21 W4 1.799726 1_555
O21 W7 2.315674 1_555
O22 W6 1.852230 1_565
O23 W6 1.817744 1_555
O24 W5 1.799556 1_556
O25 W7 1.818324 1_555
O26 W5 1.797497 1_555
O27 W1 1.796244 1_645
O28 W0 1.948896 1_655
O28 W7 2.135821 1_555
O29 W0 1.744901 1_655
