# generated using pymatgen
data_Li3FeO2F
_symmetry_space_group_name_H-M   'P 1'
_cell_length_a   3.59196900
_cell_length_b   8.78852200
_cell_length_c   9.70746800
_cell_angle_alpha   90.00039035
_cell_angle_beta   90.00221215
_cell_angle_gamma   90.00091241
_symmetry_Int_Tables_number   1
_chemical_formula_structural   Li3FeO2F
_chemical_formula_sum   'Li12 Fe4 O8 F4'
_cell_volume   306.44630665
_cell_formula_units_Z   4
loop_
 _symmetry_equiv_pos_site_id
 _symmetry_equiv_pos_as_xyz
  1  'x, y, z'
loop_
 _atom_site_type_symbol
 _atom_site_label
 _atom_site_symmetry_multiplicity
 _atom_site_fract_x
 _atom_site_fract_y
 _atom_site_fract_z
 _atom_site_occupancy
  Li  Li0  1  0.49997800  0.10084500  0.34094300  1
  Li  Li1  1  0.00001500  0.39915900  0.84095200  1
  Li  Li2  1  0.99998400  0.60084100  0.15905900  1
  Li  Li3  1  0.50002100  0.89916000  0.65905400  1
  Li  Li4  1  0.00001200  0.14327300  0.57777400  1
  Li  Li5  1  0.49997800  0.35677700  0.07777100  1
  Li  Li6  1  0.50002000  0.64326300  0.92222300  1
  Li  Li7  1  0.99999300  0.85677500  0.42222800  1
  Li  Li8  1  0.99996300  0.16332800  0.17727100  1
  Li  Li9  1  0.50001000  0.33665700  0.67727500  1
  Li  Li10  1  0.49999100  0.66335000  0.32272800  1
  Li  Li11  1  0.00003600  0.83665600  0.82272500  1
  Fe  Fe0  1  0.00000100  0.61736800  0.59539500  1
  Fe  Fe1  1  0.49997400  0.88260800  0.09544000  1
  Fe  Fe2  1  0.50002300  0.11741100  0.90463600  1
  Fe  Fe3  1  0.99999900  0.38258400  0.40456400  1
  O  O0  1  0.49996100  0.10498300  0.11614300  1
  O  O1  1  0.00000500  0.39500300  0.61611300  1
  O  O2  1  0.99999500  0.60496400  0.38384600  1
  O  O3  1  0.50003800  0.89503500  0.88386800  1
  O  O4  1  0.99998900  0.16720700  0.37989800  1
  O  O5  1  0.50001400  0.33278300  0.87990900  1
  O  O6  1  0.49998700  0.66723600  0.12009500  1
  O  O7  1  0.00001100  0.83274000  0.62009400  1
  F  F0  1  0.50002100  0.11707100  0.65207900  1
  F  F1  1  0.99998700  0.38292200  0.15208200  1
  F  F2  1  0.00001100  0.61706100  0.84792400  1
  F  F3  1  0.49998300  0.88293900  0.34791000  1
loop_
_geom_bond_atom_site_label_1
_geom_bond_atom_site_label_2
_geom_bond_distance
_geom_bond_site_symmetry_2
Li0 O4 1.925786 1_455
Li0 O4 1.925815 1_555
Li0 O0 2.182542 1_555
Li1 O5 1.925835 1_555
Li1 O5 1.925852 1_455
Li1 O1 2.182923 1_555
Li2 O6 1.925892 1_555
Li2 O6 1.925922 1_655
Li2 O2 2.182413 1_555
Li3 O7 1.925953 1_655
Li3 O7 1.925976 1_555
Li3 O3 2.182676 1_555
Li4 O4 1.932359 1_455
Li4 O1 2.243419 1_555
Li5 O5 1.932278 1_554
Li5 O0 2.244031 1_555
Li6 O6 1.932355 1_556
Li6 O3 2.243813 1_555
Li7 O7 1.932359 1_655
Li7 O2 2.244190 1_555
Li8 O0 1.959725 1_555
Li8 O0 1.959769 1_655
Li8 O4 1.967290 1_555
Li9 O1 1.959848 1_655
Li9 O1 1.959854 1_555
Li9 O5 1.967358 1_555
Li10 O2 1.959813 1_555
Li10 O2 1.959814 1_455
Li10 O6 1.967350 1_555
Li11 O3 1.959847 1_555
Li11 O3 1.959891 1_455
Li11 O7 1.967335 1_555
Fe0 O7 1.907925 1_555
Fe0 O1 1.964583 1_555
Fe0 O2 2.056496 1_455
Fe1 O6 1.907875 1_555
Fe1 O0 1.964653 1_565
Fe1 O3 2.056731 1_554
Fe2 O5 1.907963 1_555
Fe2 O3 1.964726 1_545
Fe2 O0 2.056101 1_556
Fe3 O4 1.907929 1_555
Fe3 O2 1.964714 1_555
Fe3 O1 2.056503 1_655
F0 Li3 1.916313 1_545
F0 Li9 1.945273 1_555
F0 Li4 1.949065 1_655
F0 Li4 1.949080 1_555
F0 Fe2 2.451691 1_555
F1 Li2 1.916383 1_555
F1 Li8 1.945337 1_555
F1 Li5 1.949033 1_655
F1 Li5 1.949034 1_555
F1 Fe3 2.450963 1_555
F2 Li1 1.916232 1_555
F2 Li11 1.945358 1_555
F2 Li6 1.949049 1_455
F2 Li6 1.949050 1_555
F2 Fe0 2.451419 1_555
F3 Li0 1.916266 1_565
F3 Li10 1.945282 1_555
F3 Li7 1.949069 1_455
F3 Li7 1.949090 1_555
F3 Fe1 2.450846 1_555
