# generated using pymatgen
data_LiFePCO7
_symmetry_space_group_name_H-M   'P 1'
_cell_length_a   5.16647600
_cell_length_b   10.59116360
_cell_length_c   10.65512642
_cell_angle_alpha   74.76078976
_cell_angle_beta   85.87911090
_cell_angle_gamma   85.88470586
_symmetry_Int_Tables_number   1
_chemical_formula_structural   LiFePCO7
_chemical_formula_sum   'Li4 Fe4 P4 C4 O28'
_cell_volume   560.23442602
_cell_formula_units_Z   4
loop_
 _symmetry_equiv_pos_site_id
 _symmetry_equiv_pos_as_xyz
  1  'x, y, z'
loop_
 _atom_site_type_symbol
 _atom_site_label
 _atom_site_symmetry_multiplicity
 _atom_site_fract_x
 _atom_site_fract_y
 _atom_site_fract_z
 _atom_site_occupancy
  Li  Li0  1  0.77322400  0.93230000  0.17912800  1
  Li  Li1  1  0.77224000  0.43153300  0.67549500  1
  Li  Li2  1  0.23054200  0.07047300  0.81791200  1
  Li  Li3  1  0.75281800  0.58607200  0.13365800  1
  Fe  Fe0  1  0.19794500  0.71003000  0.95307700  1
  Fe  Fe1  1  0.79938100  0.79067500  0.54125300  1
  Fe  Fe2  1  0.19530000  0.21030200  0.45786900  1
  Fe  Fe3  1  0.80236000  0.29401100  0.04330400  1
  P  P0  1  0.27085600  0.91311000  0.66089300  1
  P  P1  1  0.72507500  0.58345000  0.83781800  1
  P  P2  1  0.26516900  0.41614600  0.16312200  1
  P  P3  1  0.72515300  0.08816700  0.33757700  1
  C  C0  1  0.71322500  0.65188500  0.39338800  1
  C  C1  1  0.70696400  0.14550500  0.89736500  1
  C  C2  1  0.29657200  0.84589400  0.10736200  1
  C  C3  1  0.29587100  0.35504900  0.60058400  1
  O  O0  1  0.20724200  0.87336400  0.81115800  1
  O  O1  1  0.86102700  0.65692500  0.92106700  1
  O  O2  1  0.56503800  0.88468500  0.63392300  1
  O  O3  1  0.42981000  0.60836300  0.86542500  1
  O  O4  1  0.12091600  0.83924500  0.58629200  1
  O  O5  1  0.79174400  0.93853100  0.37081400  1
  O  O6  1  0.80004300  0.62343000  0.69052700  1
  O  O7  1  0.79917100  0.43370900  0.87477900  1
  O  O8  1  0.54093600  0.20911400  0.96005600  1
  O  O9  1  0.53232500  0.70422900  0.45846000  1
  O  O10  1  0.38263000  0.91561000  0.17236500  1
  O  O11  1  0.37915100  0.42194500  0.66941900  1
  O  O12  1  0.94553900  0.67205300  0.42122700  1
  O  O13  1  0.94940500  0.15830800  0.91136000  1
  O  O14  1  0.05389500  0.83896300  0.08663700  1
  O  O15  1  0.05428700  0.33757200  0.58788500  1
  O  O16  1  0.61945700  0.07795200  0.82991600  1
  O  O17  1  0.66643600  0.59043900  0.31266700  1
  O  O18  1  0.46187000  0.77536200  0.04953700  1
  O  O19  1  0.46372400  0.29348400  0.53686700  1
  O  O20  1  0.15916100  0.56158900  0.12191600  1
  O  O21  1  0.20041100  0.37047200  0.31039200  1
  O  O22  1  0.20750800  0.06344900  0.62608100  1
  O  O23  1  0.87159300  0.16127800  0.41510700  1
  O  O24  1  0.56576000  0.40833400  0.12912500  1
  O  O25  1  0.43097000  0.11413300  0.36651400  1
  O  O26  1  0.13435900  0.33385600  0.08696600  1
  O  O27  1  0.78841100  0.13092000  0.18761100  1
loop_
_geom_bond_atom_site_label_1
_geom_bond_atom_site_label_2
_geom_bond_distance
_geom_bond_site_symmetry_2
Li0 O14 2.037692 1_655
Li0 O10 2.046347 1_555
Li0 O5 2.070004 1_555
Li0 O27 2.136398 1_565
Li1 O15 2.017393 1_655
Li1 O11 2.047181 1_555
Li1 O6 2.096026 1_555
Li1 O7 2.144143 1_555
Li2 O13 2.012883 1_455
Li2 O16 2.031036 1_555
Li2 O22 2.076952 1_555
Li2 O0 2.119928 1_545
Li3 O17 1.939181 1_555
Li3 O20 2.095563 1_655
Li3 O24 2.189878 1_555
Li3 O1 2.234130 1_554
Li3 O18 2.428706 1_555
Fe0 O3 1.910353 1_555
Fe0 O1 1.946619 1_455
Fe0 O0 1.976818 1_555
Fe0 O18 2.026116 1_556
Fe0 O20 2.062719 1_556
Fe0 O14 2.273177 1_556
Fe1 O2 1.898475 1_555
Fe1 O4 1.903029 1_655
Fe1 O6 2.046025 1_555
Fe1 O5 2.063553 1_555
Fe1 O9 2.073885 1_555
Fe1 O12 2.086594 1_555
Fe2 O23 1.905968 1_455
Fe2 O25 1.907960 1_555
Fe2 O21 1.986656 1_555
Fe2 O19 2.034911 1_555
Fe2 O22 2.042590 1_555
Fe2 O15 2.227672 1_555
Fe3 O26 1.912706 1_655
Fe3 O27 1.989672 1_555
Fe3 O24 2.001366 1_555
Fe3 O7 2.004456 1_554
Fe3 O8 2.045798 1_554
Fe3 O13 2.317619 1_554
C0 O17 1.252369 1_555
C0 O12 1.302104 1_555
C0 O9 1.302364 1_555
C1 O16 1.263415 1_555
C1 O13 1.292825 1_555
C1 O8 1.306571 1_555
C2 O10 1.258102 1_555
C2 O14 1.299097 1_555
C2 O18 1.319755 1_555
C3 O11 1.259897 1_555
C3 O15 1.296541 1_555
C3 O19 1.305786 1_555
O0 P0 1.561612 1_555
O1 P1 1.554548 1_555
O2 P0 1.549289 1_555
O3 P1 1.549766 1_555
O4 P0 1.531778 1_555
O5 P3 1.549076 1_565
O6 P1 1.542456 1_555
O7 P1 1.556603 1_555
O20 P2 1.556767 1_555
O21 P2 1.535252 1_555
O22 P0 1.553119 1_545
O23 P3 1.537729 1_555
O24 P2 1.570453 1_555
O25 P3 1.548545 1_555
O26 P2 1.552395 1_555
O27 P3 1.559157 1_555
