# generated using pymatgen
data_Li4Mn5Co(PO4)6
_symmetry_space_group_name_H-M   'P 1'
_cell_length_a   8.53343200
_cell_length_b   8.53799211
_cell_length_c   8.61754343
_cell_angle_alpha   63.31851224
_cell_angle_beta   63.36297409
_cell_angle_gamma   62.75717739
_symmetry_Int_Tables_number   1
_chemical_formula_structural   Li4Mn5Co(PO4)6
_chemical_formula_sum   'Li4 Mn5 Co1 P6 O24'
_cell_volume   474.90888285
_cell_formula_units_Z   1
loop_
 _symmetry_equiv_pos_site_id
 _symmetry_equiv_pos_as_xyz
  1  'x, y, z'
loop_
 _atom_site_type_symbol
 _atom_site_label
 _atom_site_symmetry_multiplicity
 _atom_site_fract_x
 _atom_site_fract_y
 _atom_site_fract_z
 _atom_site_occupancy
  Li  Li0  1  0.64717600  0.85032000  0.24783400  1
  Li  Li1  1  0.33970400  0.15812600  0.75827800  1
  Li  Li2  1  0.15091200  0.75310100  0.34851400  1
  Li  Li3  1  0.76331900  0.34641800  0.14810200  1
  Mn  Mn0  1  0.01215100  0.99530200  0.99149100  1
  Mn  Mn1  1  0.64290800  0.64909300  0.64651100  1
  Mn  Mn2  1  0.50276500  0.48834000  0.50701300  1
  Mn  Mn3  1  0.85013300  0.85683300  0.85343400  1
  Mn  Mn4  1  0.34609500  0.34251000  0.34262500  1
  Co  Co0  1  0.15092300  0.15061600  0.15204900  1
  P  P0  1  0.55852500  0.25186200  0.93565300  1
  P  P1  1  0.24839600  0.94047800  0.56325000  1
  P  P2  1  0.94337900  0.55613300  0.24941200  1
  P  P3  1  0.03648800  0.46225200  0.75154100  1
  P  P4  1  0.75014700  0.04336100  0.44415600  1
  P  P5  1  0.45569200  0.75309200  0.05601300  1
  O  O0  1  0.30659400  0.09591800  0.54325100  1
  O  O1  1  0.09332700  0.52647700  0.31981900  1
  O  O2  1  0.53872500  0.30634600  0.09255400  1
  O  O3  1  0.74812700  0.08440800  0.92487400  1
  O  O4  1  0.39750000  0.19595600  0.96574500  1
  O  O5  1  0.58111000  0.40603800  0.74807400  1
  O  O6  1  0.09369600  0.91630100  0.75004400  1
  O  O7  1  0.41545500  0.75072600  0.57235800  1
  O  O8  1  0.99004100  0.61398800  0.82881500  1
  O  O9  1  0.74423800  0.57836700  0.39260500  1
  O  O10  1  0.05274500  0.26746900  0.90229200  1
  O  O11  1  0.81047700  0.99181300  0.60599700  1
  O  O12  1  0.19574700  0.97008400  0.40058500  1
  O  O13  1  0.92087800  0.75423600  0.10417000  1
  O  O14  1  0.23298100  0.44047000  0.60650300  1
  O  O15  1  0.98008400  0.40042100  0.18198900  1
  O  O16  1  0.59732400  0.23965400  0.42772100  1
  O  O17  1  0.90701400  0.06694800  0.25469800  1
  O  O18  1  0.42680200  0.60102400  0.24706100  1
  O  O19  1  0.60663300  0.81686000  0.03912200  1
  O  O20  1  0.26127200  0.91032600  0.06726100  1
  O  O21  1  0.50695500  0.69121200  0.89477100  1
  O  O22  1  0.88579400  0.50685500  0.67320700  1
  O  O23  1  0.68476900  0.89326700  0.46061000  1
loop_
_geom_bond_atom_site_label_1
_geom_bond_atom_site_label_2
_geom_bond_distance
_geom_bond_site_symmetry_2
Li0 O9 2.048947 1_555
Li0 O13 2.055709 1_555
Li0 O19 2.132161 1_555
Li0 O23 2.199641 1_555
Li1 O14 2.139598 1_555
Li1 O10 2.151893 1_555
Li1 O4 2.235865 1_555
Li1 O0 2.299187 1_555
Li1 O20 2.579398 1_546
Li2 O18 2.090012 1_555
Li2 O20 2.179929 1_555
Li2 O12 2.308524 1_555
Li2 O1 2.335734 1_555
Li2 O17 2.573529 1_465
Li2 O14 2.629325 1_555
Li3 O17 2.098524 1_555
Li3 O16 2.189225 1_555
Li3 O15 2.259546 1_555
Li3 O2 2.364199 1_555
Li3 O10 2.471509 1_654
Mn0 O13 2.186428 1_456
Mn0 O6 2.191076 1_555
Mn0 O20 2.208879 1_556
Mn0 O10 2.237139 1_565
Mn0 O3 2.276569 1_465
Mn0 O17 2.289699 1_466
Mn1 O22 1.922456 1_555
Mn1 O7 2.000206 1_555
Mn1 O21 2.033634 1_555
Mn1 O23 2.051724 1_555
Mn1 O5 2.075454 1_555
Mn1 O9 2.216286 1_555
Mn2 O9 2.180997 1_555
Mn2 O5 2.181837 1_555
Mn2 O16 2.205970 1_555
Mn2 O14 2.231381 1_555
Mn2 O7 2.262637 1_555
Mn2 O18 2.271488 1_555
Mn3 O8 1.915991 1_555
Mn3 O3 1.989316 1_565
Mn3 O11 2.018034 1_555
Mn3 O19 2.042558 1_556
Mn3 O6 2.066616 1_655
Mn3 O13 2.187745 1_556
Mn4 O1 2.039463 1_555
Mn4 O0 2.096102 1_555
Mn4 O2 2.097129 1_555
Mn4 O16 2.238912 1_555
Mn4 O18 2.296726 1_555
Mn4 O14 2.408938 1_555
Co0 O15 2.012734 1_455
Co0 O4 2.076858 1_554
Co0 O12 2.083122 1_545
Co0 O20 2.142475 1_545
Co0 O17 2.183525 1_455
Co0 O10 2.291907 1_554
O0 P1 1.535879 1_545
O1 P2 1.526793 1_455
O2 P0 1.536611 1_554
O3 P0 1.592859 1_555
O4 P0 1.533961 1_555
O5 P0 1.557206 1_555
O6 P1 1.556317 1_555
O7 P1 1.592114 1_555
O8 P3 1.531959 1_655
O9 P2 1.575206 1_555
O10 P3 1.575691 1_555
O11 P4 1.512939 1_565
O12 P1 1.540531 1_555
O13 P2 1.575197 1_555
O14 P3 1.566000 1_555
O15 P2 1.533773 1_555
O16 P4 1.575124 1_555
O17 P4 1.577933 1_555
O18 P5 1.570497 1_555
O19 P5 1.542538 1_555
O20 P5 1.580406 1_555
O21 P5 1.517857 1_556
O22 P3 1.534116 1_655
O23 P4 1.547268 1_565
