# generated using pymatgen
data_NClO4
_symmetry_space_group_name_H-M   'P 1'
_cell_length_a   5.45267717
_cell_length_b   5.45267717
_cell_length_c   5.45267717
_cell_angle_alpha   60.00000000
_cell_angle_beta   60.00000000
_cell_angle_gamma   60.00000000
_symmetry_Int_Tables_number   1
_chemical_formula_structural   NClO4
_chemical_formula_sum   'N1 Cl1 O4'
_cell_volume   114.63424063
_cell_formula_units_Z   1
loop_
 _symmetry_equiv_pos_site_id
 _symmetry_equiv_pos_as_xyz
  1  'x, y, z'
loop_
 _atom_site_type_symbol
 _atom_site_label
 _atom_site_symmetry_multiplicity
 _atom_site_fract_x
 _atom_site_fract_y
 _atom_site_fract_z
 _atom_site_occupancy
  N  N0  1  0.50000000  0.50000000  0.50000000  1
  Cl  Cl0  1  0.00000000  0.00000000  0.00000000  1
  O  O0  1  0.10938900  0.10938900  0.67183400  1
  O  O1  1  0.10938900  0.67183400  0.10938900  1
  O  O2  1  0.67183400  0.10938900  0.10938900  1
  O  O3  1  0.10938900  0.10938900  0.10938900  1
loop_
_geom_bond_atom_site_label_1
_geom_bond_atom_site_label_2
_geom_bond_distance
_geom_bond_site_symmetry_2
Cl0 O0 1.461025 1_554
Cl0 O1 1.461025 1_545
Cl0 O2 1.461025 1_455
Cl0 O3 1.461030 1_555
