# generated using pymatgen
data_H4NClO4
_symmetry_space_group_name_H-M   'P 1'
_cell_length_a   6.01235800
_cell_length_b   7.36555300
_cell_length_c   9.06356800
_cell_angle_alpha   90.00000000
_cell_angle_beta   90.00000000
_cell_angle_gamma   90.00000000
_symmetry_Int_Tables_number   1
_chemical_formula_structural   H4NClO4
_chemical_formula_sum   'H16 N4 Cl4 O16'
_cell_volume   401.37414056
_cell_formula_units_Z   4
loop_
 _symmetry_equiv_pos_site_id
 _symmetry_equiv_pos_as_xyz
  1  'x, y, z'
loop_
 _atom_site_type_symbol
 _atom_site_label
 _atom_site_symmetry_multiplicity
 _atom_site_fract_x
 _atom_site_fract_y
 _atom_site_fract_z
 _atom_site_occupancy
  H  H0  1  0.25000000  0.88460800  0.71559200  1
  H  H1  1  0.25000000  0.61539200  0.21559200  1
  H  H2  1  0.75000000  0.11539200  0.28440800  1
  H  H3  1  0.75000000  0.38460800  0.78440800  1
  H  H4  1  0.25000000  0.68653000  0.80935700  1
  H  H5  1  0.25000000  0.81347000  0.30935700  1
  H  H6  1  0.75000000  0.31347000  0.19064300  1
  H  H7  1  0.75000000  0.18653000  0.69064300  1
  H  H8  1  0.38944300  0.86639500  0.87621000  1
  H  H9  1  0.11055700  0.63360500  0.37621000  1
  H  H10  1  0.88944300  0.13360500  0.12379000  1
  H  H11  1  0.61055700  0.36639500  0.62379000  1
  H  H12  1  0.61055700  0.13360500  0.12379000  1
  H  H13  1  0.88944300  0.36639500  0.62379000  1
  H  H14  1  0.11055700  0.86639500  0.87621000  1
  H  H15  1  0.38944300  0.63360500  0.37621000  1
  N  N0  1  0.25000000  0.82666200  0.81873300  1
  N  N1  1  0.25000000  0.67333800  0.31873300  1
  N  N2  1  0.75000000  0.17333800  0.18126700  1
  N  N3  1  0.75000000  0.32666200  0.68126700  1
  Cl  Cl0  1  0.25000000  0.30712600  0.92534500  1
  Cl  Cl1  1  0.25000000  0.19287400  0.42534500  1
  Cl  Cl2  1  0.75000000  0.69287400  0.07465500  1
  Cl  Cl3  1  0.75000000  0.80712600  0.57465500  1
  O  O0  1  0.25000000  0.42491800  0.79455200  1
  O  O1  1  0.25000000  0.07508200  0.29455200  1
  O  O2  1  0.75000000  0.57508200  0.20544800  1
  O  O3  1  0.75000000  0.92491800  0.70544800  1
  O  O4  1  0.25000000  0.41615900  0.05856800  1
  O  O5  1  0.25000000  0.08384100  0.55856800  1
  O  O6  1  0.75000000  0.58384100  0.94143200  1
  O  O7  1  0.75000000  0.91615900  0.44143200  1
  O  O8  1  0.05168900  0.19191000  0.92173100  1
  O  O9  1  0.44831100  0.30809000  0.42173100  1
  O  O10  1  0.55168900  0.80809000  0.07826900  1
  O  O11  1  0.94831100  0.69191000  0.57826900  1
  O  O12  1  0.94831100  0.80809000  0.07826900  1
  O  O13  1  0.55168900  0.69191000  0.57826900  1
  O  O14  1  0.44831100  0.19191000  0.92173100  1
  O  O15  1  0.05168900  0.30809000  0.42173100  1
loop_
_geom_bond_atom_site_label_1
_geom_bond_atom_site_label_2
_geom_bond_distance
_geom_bond_site_symmetry_2
H0 N0 1.027648 1_555
H1 N1 1.027648 1_555
H2 N2 1.027648 1_555
H3 N3 1.027648 1_555
H4 N0 1.035642 1_555
H5 N1 1.035642 1_555
H6 N2 1.035642 1_555
H7 N3 1.035642 1_555
H8 N0 1.029522 1_555
H9 N1 1.029522 1_555
H10 N2 1.029522 1_555
H11 N3 1.029522 1_555
H12 N2 1.029522 1_555
H13 N3 1.029522 1_555
H14 N0 1.029522 1_555
H15 N1 1.029522 1_555
Cl0 O4 1.450155 1_556
Cl0 O8 1.463853 1_555
Cl0 O14 1.463853 1_555
Cl0 O0 1.469023 1_555
Cl1 O5 1.450155 1_555
Cl1 O15 1.463853 1_555
Cl1 O9 1.463853 1_555
Cl1 O1 1.469023 1_555
Cl2 O6 1.450155 1_554
Cl2 O10 1.463853 1_555
Cl2 O12 1.463853 1_555
Cl2 O2 1.469023 1_555
Cl3 O7 1.450155 1_555
Cl3 O11 1.463853 1_555
Cl3 O13 1.463853 1_555
Cl3 O3 1.469023 1_555
