# generated using pymatgen
data_Li3Mn2(FeO4)2
_symmetry_space_group_name_H-M   'P 1'
_cell_length_a   5.83849380
_cell_length_b   5.83849380
_cell_length_c   5.92026755
_cell_angle_alpha   59.18124231
_cell_angle_beta   59.18124231
_cell_angle_gamma   59.42783100
_symmetry_Int_Tables_number   1
_chemical_formula_structural   Li3Mn2(FeO4)2
_chemical_formula_sum   'Li3 Mn2 Fe2 O8'
_cell_volume   140.30569578
_cell_formula_units_Z   1
loop_
 _symmetry_equiv_pos_site_id
 _symmetry_equiv_pos_as_xyz
  1  'x, y, z'
loop_
 _atom_site_type_symbol
 _atom_site_label
 _atom_site_symmetry_multiplicity
 _atom_site_fract_x
 _atom_site_fract_y
 _atom_site_fract_z
 _atom_site_occupancy
  Li  Li0  1  0.00000000  0.50000000  0.50000000  1
  Li  Li1  1  0.50000000  0.00000000  0.50000000  1
  Li  Li2  1  0.50000000  0.50000000  0.50000000  1
  Mn  Mn0  1  0.00000000  0.50000000  0.00000000  1
  Mn  Mn1  1  0.50000000  0.00000000  0.00000000  1
  Fe  Fe0  1  0.00000000  0.00000000  0.50000000  1
  Fe  Fe1  1  0.00000000  0.00000000  0.00000000  1
  O  O0  1  0.75160900  0.75160900  0.22915300  1
  O  O1  1  0.24258600  0.78359500  0.25530300  1
  O  O2  1  0.76107100  0.76107100  0.76695900  1
  O  O3  1  0.78359500  0.24258600  0.25530300  1
  O  O4  1  0.21640500  0.75741400  0.74469700  1
  O  O5  1  0.23892900  0.23892900  0.23304100  1
  O  O6  1  0.75741400  0.21640500  0.74469700  1
  O  O7  1  0.24839100  0.24839100  0.77084700  1
loop_
_geom_bond_atom_site_label_1
_geom_bond_atom_site_label_2
_geom_bond_distance
_geom_bond_site_symmetry_2
Li0 O7 2.152748 1_555
Li0 O0 2.152748 1_455
Li0 O1 2.161395 1_555
Li0 O6 2.161395 1_455
Li0 O2 2.193991 1_455
Li0 O5 2.193991 1_555
Li1 O7 2.152748 1_555
Li1 O0 2.152748 1_545
Li1 O3 2.161395 1_555
Li1 O4 2.161395 1_545
Li1 O2 2.193991 1_545
Li1 O5 2.193991 1_555
Li2 O0 2.062815 1_555
Li2 O7 2.062815 1_555
Li2 O6 2.083427 1_555
Li2 O4 2.083427 1_555
Li2 O3 2.083427 1_555
Li2 O1 2.083427 1_555
Mn0 O4 1.946003 1_554
Mn0 O3 1.946003 1_455
Mn0 O5 1.956294 1_555
Mn0 O2 1.956294 1_454
Mn0 O0 1.990134 1_455
Mn0 O7 1.990134 1_554
Mn1 O6 1.946003 1_554
Mn1 O1 1.946003 1_545
Mn1 O5 1.956294 1_555
Mn1 O2 1.956294 1_544
Mn1 O0 1.990134 1_545
Mn1 O7 1.990134 1_554
Fe0 O4 1.911483 1_545
Fe0 O6 1.911483 1_455
Fe0 O3 1.911483 1_455
Fe0 O1 1.911483 1_545
Fe0 O5 1.962460 1_555
Fe0 O2 1.962460 1_445
Fe1 O7 2.038228 1_554
Fe1 O0 2.038228 1_445
Fe1 O3 2.074431 1_455
Fe1 O1 2.074431 1_545
Fe1 O4 2.074431 1_544
Fe1 O6 2.074431 1_454
