# generated using pymatgen
data_CsPrHgSe3
_symmetry_space_group_name_H-M   'P 1'
_cell_length_a   8.48733253
_cell_length_b   8.48733253
_cell_length_c   11.47397300
_cell_angle_alpha   90.00000000
_cell_angle_beta   90.00000000
_cell_angle_gamma   149.71670666
_symmetry_Int_Tables_number   1
_chemical_formula_structural   CsPrHgSe3
_chemical_formula_sum   'Cs2 Pr2 Hg2 Se6'
_cell_volume   416.79685011
_cell_formula_units_Z   2
loop_
 _symmetry_equiv_pos_site_id
 _symmetry_equiv_pos_as_xyz
  1  'x, y, z'
loop_
 _atom_site_type_symbol
 _atom_site_label
 _atom_site_symmetry_multiplicity
 _atom_site_fract_x
 _atom_site_fract_y
 _atom_site_fract_z
 _atom_site_occupancy
  Cs  Cs0  1  0.25515500  0.74484500  0.75000000  1
  Cs  Cs1  1  0.74484500  0.25515500  0.25000000  1
  Pr  Pr0  1  0.00000000  0.00000000  0.50000000  1
  Pr  Pr1  1  0.00000000  0.00000000  0.00000000  1
  Hg  Hg0  1  0.45853100  0.54146900  0.25000000  1
  Hg  Hg1  1  0.54146900  0.45853100  0.75000000  1
  Se  Se0  1  0.06285600  0.93714400  0.25000000  1
  Se  Se1  1  0.93714400  0.06285600  0.75000000  1
  Se  Se2  1  0.62137200  0.37862800  0.54963100  1
  Se  Se3  1  0.62137200  0.37862800  0.95036900  1
  Se  Se4  1  0.37862800  0.62137200  0.04963100  1
  Se  Se5  1  0.37862800  0.62137200  0.45036900  1
loop_
_geom_bond_atom_site_label_1
_geom_bond_atom_site_label_2
_geom_bond_distance
_geom_bond_site_symmetry_2
Cs0 Se1 3.715763 1_455
Cs0 Se1 3.715763 1_565
Cs0 Se3 3.873706 1_565
Cs0 Se3 3.873706 1_455
Cs0 Se2 3.873706 1_565
Cs0 Se2 3.873706 1_455
Cs0 Se4 3.989071 1_556
Cs0 Se5 3.989071 1_555
Cs1 Se0 3.715763 1_545
Cs1 Se0 3.715763 1_655
Cs1 Se5 3.873706 1_655
Cs1 Se5 3.873706 1_545
Cs1 Se4 3.873706 1_655
Cs1 Se4 3.873706 1_545
Cs1 Se2 3.989071 1_555
Cs1 Se3 3.989071 1_554
Pr0 Se2 3.032186 1_555
Pr0 Se5 3.032186 1_555
Pr0 Se2 3.032186 1_445
Pr0 Se5 3.032186 1_445
Pr0 Se1 3.047784 1_455
Pr0 Se0 3.047784 1_545
Pr1 Se4 3.032186 1_555
Pr1 Se3 3.032186 1_554
Pr1 Se4 3.032186 1_445
Pr1 Se3 3.032186 1_444
Pr1 Se1 3.047784 1_454
Pr1 Se0 3.047784 1_545
Hg0 Se5 2.645683 1_555
Hg0 Se4 2.645683 1_555
Hg0 Se0 2.799446 1_545
Hg0 Se0 2.799446 1_655
Hg1 Se3 2.645683 1_555
Hg1 Se2 2.645683 1_555
Hg1 Se1 2.799446 1_455
Hg1 Se1 2.799446 1_565
