# generated using pymatgen
data_Li2NbV3O8
_symmetry_space_group_name_H-M   'P 1'
_cell_length_a   6.06097341
_cell_length_b   10.58110659
_cell_length_c   6.06097361
_cell_angle_alpha   73.35712467
_cell_angle_beta   60.00000066
_cell_angle_gamma   73.35712481
_symmetry_Int_Tables_number   1
_chemical_formula_structural   Li2NbV3O8
_chemical_formula_sum   'Li4 Nb2 V6 O16'
_cell_volume   317.68372977
_cell_formula_units_Z   2
loop_
 _symmetry_equiv_pos_site_id
 _symmetry_equiv_pos_as_xyz
  1  'x, y, z'
loop_
 _atom_site_type_symbol
 _atom_site_label
 _atom_site_symmetry_multiplicity
 _atom_site_fract_x
 _atom_site_fract_y
 _atom_site_fract_z
 _atom_site_occupancy
  Li  Li0  1  0.43602600  0.69192100  0.43602600  1
  Li  Li1  1  0.93602600  0.19192100  0.93602600  1
  Li  Li2  1  0.06397400  0.80807900  0.06397400  1
  Li  Li3  1  0.56397400  0.30807900  0.56397400  1
  Nb  Nb0  1  0.25000000  0.25000000  0.25000000  1
  Nb  Nb1  1  0.75000000  0.75000000  0.75000000  1
  V  V0  1  0.50000000  0.00000000  0.50000000  1
  V  V1  1  0.50000000  0.00000000  0.00000000  1
  V  V2  1  0.00000000  0.00000000  0.50000000  1
  V  V3  1  0.00000000  0.50000000  0.00000000  1
  V  V4  1  0.00000000  0.50000000  0.50000000  1
  V  V5  1  0.50000000  0.50000000  0.00000000  1
  O  O0  1  0.36742100  0.89773700  0.36742100  1
  O  O1  1  0.86742100  0.39773700  0.86742100  1
  O  O2  1  0.13257900  0.60226300  0.13257900  1
  O  O3  1  0.63257900  0.10226300  0.63257900  1
  O  O4  1  0.59543900  0.12399000  0.14028600  1
  O  O5  1  0.09543900  0.62399000  0.64028600  1
  O  O6  1  0.14028600  0.12399000  0.59543900  1
  O  O7  1  0.64028600  0.62399000  0.09543900  1
  O  O8  1  0.14028600  0.12399000  0.14028600  1
  O  O9  1  0.64028600  0.62399000  0.64028600  1
  O  O10  1  0.35971400  0.37601000  0.35971400  1
  O  O11  1  0.85971400  0.87601000  0.85971400  1
  O  O12  1  0.35971400  0.37601000  0.90456100  1
  O  O13  1  0.85971400  0.87601000  0.40456100  1
  O  O14  1  0.90456100  0.37601000  0.35971400  1
  O  O15  1  0.40456100  0.87601000  0.85971400  1
loop_
_geom_bond_atom_site_label_1
_geom_bond_atom_site_label_2
_geom_bond_distance
_geom_bond_site_symmetry_2
Li0 O5 2.023660 1_555
Li0 O7 2.023660 1_555
Li0 O9 2.023670 1_555
Li0 O0 2.055222 1_555
Li1 O4 2.023660 1_556
Li1 O6 2.023660 1_655
Li1 O8 2.023670 1_656
Li1 O1 2.055222 1_555
Li2 O15 2.023660 1_554
Li2 O13 2.023660 1_455
Li2 O11 2.023670 1_454
Li2 O2 2.055222 1_555
Li3 O14 2.023660 1_555
Li3 O12 2.023660 1_555
Li3 O10 2.023670 1_555
Li3 O3 2.055222 1_555
Nb0 O10 2.029794 1_555
Nb0 O8 2.029794 1_555
Nb0 O4 2.029798 1_555
Nb0 O14 2.029798 1_455
Nb0 O6 2.029798 1_555
Nb0 O12 2.029798 1_554
Nb1 O9 2.029794 1_555
Nb1 O11 2.029794 1_555
Nb1 O5 2.029798 1_655
Nb1 O15 2.029798 1_555
Nb1 O13 2.029798 1_555
Nb1 O7 2.029798 1_556
O0 V0 2.025851 1_565
O0 V2 2.025851 1_565
O0 V1 2.025851 1_565
O1 V3 2.025851 1_656
O1 V5 2.025851 1_556
O1 V4 2.025851 1_655
O2 V3 2.025851 1_555
O2 V5 2.025851 1_555
O2 V4 2.025851 1_555
O3 V0 2.025851 1_555
O3 V2 2.025851 1_655
O3 V1 2.025851 1_556
O4 V0 2.084297 1_555
O4 V1 2.084301 1_555
O5 V3 2.084297 1_556
O5 V4 2.084301 1_555
O6 V0 2.084296 1_555
O6 V2 2.084301 1_555
O7 V3 2.084296 1_655
O7 V5 2.084301 1_555
O8 V1 2.084297 1_555
O8 V2 2.084297 1_555
O9 V4 2.084297 1_655
O9 V5 2.084297 1_556
O10 V4 2.084297 1_555
O10 V5 2.084297 1_555
O11 V1 2.084297 1_566
O11 V2 2.084297 1_665
O12 V3 2.084296 1_556
O12 V5 2.084301 1_556
O13 V0 2.084296 1_565
O13 V2 2.084301 1_665
O14 V3 2.084297 1_655
O14 V4 2.084301 1_655
O15 V0 2.084297 1_565
O15 V1 2.084301 1_566
