# generated using pymatgen
data_Sb2N3Cl7O
_symmetry_space_group_name_H-M   'P 1'
_cell_length_a   10.69949400
_cell_length_b   11.26526400
_cell_length_c   13.17602200
_cell_angle_alpha   90.00000000
_cell_angle_beta   90.00000000
_cell_angle_gamma   90.00000000
_symmetry_Int_Tables_number   1
_chemical_formula_structural   Sb2N3Cl7O
_chemical_formula_sum   'Sb8 N12 Cl28 O4'
_cell_volume   1588.14051314
_cell_formula_units_Z   4
loop_
 _symmetry_equiv_pos_site_id
 _symmetry_equiv_pos_as_xyz
  1  'x, y, z'
loop_
 _atom_site_type_symbol
 _atom_site_label
 _atom_site_symmetry_multiplicity
 _atom_site_fract_x
 _atom_site_fract_y
 _atom_site_fract_z
 _atom_site_occupancy
  Sb  Sb0  1  0.15992800  0.28583400  0.92343700  1
  Sb  Sb1  1  0.15992800  0.71416600  0.07656300  1
  Sb  Sb2  1  0.34007200  0.78583400  0.57656300  1
  Sb  Sb3  1  0.34007200  0.21416600  0.42343700  1
  Sb  Sb4  1  0.84007200  0.71416600  0.07656300  1
  Sb  Sb5  1  0.84007200  0.28583400  0.92343700  1
  Sb  Sb6  1  0.65992800  0.21416600  0.42343700  1
  Sb  Sb7  1  0.65992800  0.78583400  0.57656300  1
  N  N0  1  0.00000000  0.00000000  0.00000000  1
  N  N1  1  0.50000000  0.50000000  0.50000000  1
  N  N2  1  0.50000000  0.00000000  0.00000000  1
  N  N3  1  0.00000000  0.50000000  0.50000000  1
  N  N4  1  0.00000000  0.10452700  0.59467900  1
  N  N5  1  0.00000000  0.89547300  0.40532100  1
  N  N6  1  0.50000000  0.60452700  0.90532100  1
  N  N7  1  0.50000000  0.39547300  0.09467900  1
  N  N8  1  0.00000000  0.28752400  0.22850000  1
  N  N9  1  0.00000000  0.71247600  0.77150000  1
  N  N10  1  0.50000000  0.78752400  0.27150000  1
  N  N11  1  0.50000000  0.21247600  0.72850000  1
  Cl  Cl0  1  0.19696300  0.13904500  0.79798600  1
  Cl  Cl1  1  0.19696300  0.86095500  0.20201400  1
  Cl  Cl2  1  0.30303700  0.63904500  0.70201400  1
  Cl  Cl3  1  0.30303700  0.36095500  0.29798600  1
  Cl  Cl4  1  0.80303700  0.86095500  0.20201400  1
  Cl  Cl5  1  0.80303700  0.13904500  0.79798600  1
  Cl  Cl6  1  0.69696300  0.36095500  0.29798600  1
  Cl  Cl7  1  0.69696300  0.63904500  0.70201400  1
  Cl  Cl8  1  0.27894500  0.18533000  0.04902000  1
  Cl  Cl9  1  0.27894500  0.81467000  0.95098000  1
  Cl  Cl10  1  0.22105500  0.68533000  0.45098000  1
  Cl  Cl11  1  0.22105500  0.31467000  0.54902000  1
  Cl  Cl12  1  0.72105500  0.81467000  0.95098000  1
  Cl  Cl13  1  0.72105500  0.18533000  0.04902000  1
  Cl  Cl14  1  0.77894500  0.31467000  0.54902000  1
  Cl  Cl15  1  0.77894500  0.68533000  0.45098000  1
  Cl  Cl16  1  0.00000000  0.38841000  0.79085400  1
  Cl  Cl17  1  0.00000000  0.61159000  0.20914600  1
  Cl  Cl18  1  0.50000000  0.88841000  0.70914600  1
  Cl  Cl19  1  0.50000000  0.11159000  0.29085400  1
  Cl  Cl20  1  0.50000000  0.33048400  0.79861500  1
  Cl  Cl21  1  0.50000000  0.66951600  0.20138500  1
  Cl  Cl22  1  0.00000000  0.83048400  0.70138500  1
  Cl  Cl23  1  0.00000000  0.16951600  0.29861500  1
  Cl  Cl24  1  0.19780600  0.50000000  0.00000000  1
  Cl  Cl25  1  0.30219400  0.00000000  0.50000000  1
  Cl  Cl26  1  0.80219400  0.50000000  0.00000000  1
  Cl  Cl27  1  0.69780600  0.00000000  0.50000000  1
  O  O0  1  0.00000000  0.23802300  0.98587700  1
  O  O1  1  0.00000000  0.76197700  0.01412300  1
  O  O2  1  0.50000000  0.73802300  0.51412300  1
  O  O3  1  0.50000000  0.26197700  0.48587700  1
loop_
_geom_bond_atom_site_label_1
_geom_bond_atom_site_label_2
_geom_bond_distance
_geom_bond_site_symmetry_2
Cl0 Sb0 2.371433 1_555
Cl1 Sb1 2.371433 1_555
Cl2 Sb2 2.371433 1_555
Cl3 Sb3 2.371433 1_555
Cl4 Sb4 2.371433 1_555
Cl5 Sb5 2.371433 1_555
Cl6 Sb6 2.371433 1_555
Cl7 Sb7 2.371433 1_555
Cl8 Sb0 2.375178 1_554
Cl9 Sb1 2.375178 1_556
Cl10 Sb2 2.375178 1_555
Cl11 Sb3 2.375178 1_555
Cl12 Sb4 2.375178 1_556
Cl13 Sb5 2.375178 1_554
Cl14 Sb6 2.375178 1_555
Cl15 Sb7 2.375178 1_555
Cl16 Sb0 2.704632 1_555
Cl16 Sb5 2.704632 1_455
Cl17 Sb1 2.704632 1_555
Cl17 Sb4 2.704632 1_455
Cl18 Sb7 2.704632 1_555
Cl18 Sb2 2.704632 1_555
Cl19 Sb6 2.704632 1_555
Cl19 Sb3 2.704632 1_555
Cl20 N11 1.618875 1_555
Cl21 N10 1.618875 1_555
Cl22 N9 1.618875 1_555
Cl23 N8 1.618875 1_555
Cl24 Sb1 2.646268 1_555
Cl24 Sb0 2.646268 1_554
Cl25 Sb3 2.646268 1_555
Cl25 Sb2 2.646268 1_545
Cl26 Sb4 2.646268 1_555
Cl26 Sb5 2.646268 1_554
Cl27 Sb6 2.646268 1_555
Cl27 Sb7 2.646268 1_545
O0 Sb0 1.973570 1_555
O0 Sb5 1.973570 1_455
O1 Sb1 1.973570 1_555
O1 Sb4 1.973570 1_455
O2 Sb7 1.973570 1_555
O2 Sb2 1.973570 1_555
O3 Sb6 1.973570 1_555
O3 Sb3 1.973570 1_555
