# generated using pymatgen
data_Sr2CuH2(SeO3)4
_symmetry_space_group_name_H-M   'P 1'
_cell_length_a   5.81450500
_cell_length_b   7.15799433
_cell_length_c   9.01084779
_cell_angle_alpha   72.85723440
_cell_angle_beta   71.32818420
_cell_angle_gamma   80.93628719
_symmetry_Int_Tables_number   1
_chemical_formula_structural   Sr2CuH2(SeO3)4
_chemical_formula_sum   'Sr2 Cu1 H2 Se4 O12'
_cell_volume   338.68233864
_cell_formula_units_Z   1
loop_
 _symmetry_equiv_pos_site_id
 _symmetry_equiv_pos_as_xyz
  1  'x, y, z'
loop_
 _atom_site_type_symbol
 _atom_site_label
 _atom_site_symmetry_multiplicity
 _atom_site_fract_x
 _atom_site_fract_y
 _atom_site_fract_z
 _atom_site_occupancy
  Sr  Sr0  1  0.10599000  0.20632500  0.57989100  1
  Sr  Sr1  1  0.89401000  0.79367500  0.42010900  1
  Cu  Cu0  1  0.00000000  0.00000000  0.00000000  1
  H  H0  1  0.30781600  0.82536900  0.14125300  1
  H  H1  1  0.69218400  0.17463100  0.85874700  1
  Se  Se0  1  0.45810600  0.12295100  0.20736400  1
  Se  Se1  1  0.20163600  0.55996300  0.77212600  1
  Se  Se2  1  0.79836400  0.44003700  0.22787400  1
  Se  Se3  1  0.54189400  0.87704900  0.79263600  1
  O  O0  1  0.15155400  0.79695300  0.14018100  1
  O  O1  1  0.15435300  0.55459000  0.59633300  1
  O  O2  1  0.97767400  0.70252000  0.85946300  1
  O  O3  1  0.54486000  0.24764500  0.33161400  1
  O  O4  1  0.31314800  0.06279200  0.81493200  1
  O  O5  1  0.24616600  0.00103700  0.36987800  1
  O  O6  1  0.75383400  0.99896300  0.63012200  1
  O  O7  1  0.68685200  0.93720800  0.18506800  1
  O  O8  1  0.45514000  0.75235500  0.66838600  1
  O  O9  1  0.02232600  0.29748000  0.14053700  1
  O  O10  1  0.84564700  0.44541000  0.40366700  1
  O  O11  1  0.84844600  0.20304700  0.85981900  1
loop_
_geom_bond_atom_site_label_1
_geom_bond_atom_site_label_2
_geom_bond_distance
_geom_bond_site_symmetry_2
Cu0 O11 1.926501 1_454
Cu0 O0 1.926501 1_545
Cu0 O7 2.042079 1_445
Cu0 O4 2.042079 1_554
H0 O0 0.965401 1_555
H1 O11 0.965401 1_555
O0 Sr1 2.482559 1_455
O1 Se1 1.704216 1_555
O1 Sr0 2.603986 1_555
O1 Sr1 2.619671 1_455
O2 Se1 1.659803 1_655
O3 Se0 1.843143 1_555
O3 Se2 1.985305 1_555
O3 Sr0 2.792237 1_555
O4 Se3 1.733869 1_545
O4 Sr0 2.636817 1_555
O5 Se0 1.689557 1_555
O5 Sr1 2.562970 1_445
O5 Sr0 2.584397 1_555
O6 Se3 1.689557 1_555
O6 Sr0 2.562970 1_665
O6 Sr1 2.584397 1_555
O7 Se0 1.733869 1_565
O7 Sr1 2.636817 1_555
O8 Se3 1.843143 1_555
O8 Se1 1.985305 1_555
O8 Sr1 2.792237 1_555
O9 Se2 1.659803 1_455
O10 Se2 1.704216 1_555
O10 Sr1 2.603986 1_555
O10 Sr0 2.619671 1_655
O11 Sr0 2.482559 1_655
