# generated using pymatgen
data_LaAlO3
_symmetry_space_group_name_H-M   'P 1'
_cell_length_a   8.92658200
_cell_length_b   8.80158800
_cell_length_c   10.76172607
_cell_angle_alpha   79.35831772
_cell_angle_beta   90.00000000
_cell_angle_gamma   90.00000000
_symmetry_Int_Tables_number   1
_chemical_formula_structural   LaAlO3
_chemical_formula_sum   'La12 Al12 O36'
_cell_volume   830.98632045
_cell_formula_units_Z   12
loop_
 _symmetry_equiv_pos_site_id
 _symmetry_equiv_pos_as_xyz
  1  'x, y, z'
loop_
 _atom_site_type_symbol
 _atom_site_label
 _atom_site_symmetry_multiplicity
 _atom_site_fract_x
 _atom_site_fract_y
 _atom_site_fract_z
 _atom_site_occupancy
  La  La0  1  0.47275500  0.04370000  0.17333500  1
  La  La1  1  0.02724500  0.04370000  0.67333500  1
  La  La2  1  0.64039000  0.16950400  0.44302600  1
  La  La3  1  0.85961000  0.16950400  0.94302600  1
  La  La4  1  0.43445200  0.48652700  0.16936300  1
  La  La5  1  0.93445200  0.51347300  0.33063700  1
  La  La6  1  0.06554800  0.48652700  0.66936300  1
  La  La7  1  0.56554800  0.51347300  0.83063700  1
  La  La8  1  0.14039000  0.83049600  0.05697400  1
  La  La9  1  0.35961000  0.83049600  0.55697400  1
  La  La10  1  0.97275500  0.95630000  0.32666500  1
  La  La11  1  0.52724500  0.95630000  0.82666500  1
  Al  Al0  1  0.23430900  0.20644500  0.42064800  1
  Al  Al1  1  0.09064700  0.27023800  0.14256600  1
  Al  Al2  1  0.26569100  0.20644500  0.92064800  1
  Al  Al3  1  0.74589400  0.32083300  0.16182500  1
  Al  Al4  1  0.40935300  0.27023800  0.64256600  1
  Al  Al5  1  0.75410600  0.32083300  0.66182500  1
  Al  Al6  1  0.24589400  0.67916700  0.33817500  1
  Al  Al7  1  0.59064700  0.72976200  0.35743400  1
  Al  Al8  1  0.25410600  0.67916700  0.83817500  1
  Al  Al9  1  0.73430900  0.79355500  0.07935200  1
  Al  Al10  1  0.90935300  0.72976200  0.85743400  1
  Al  Al11  1  0.76569100  0.79355500  0.57935200  1
  O  O0  1  0.66669000  0.98495900  0.01417400  1
  O  O1  1  0.03787100  0.08271000  0.11044400  1
  O  O2  1  0.83331000  0.98495900  0.51417400  1
  O  O3  1  0.74144100  0.12502200  0.24227200  1
  O  O4  1  0.46212900  0.08271000  0.61044400  1
  O  O5  1  0.75855900  0.12502200  0.74227200  1
  O  O6  1  0.40126300  0.23354200  0.32566500  1
  O  O7  1  0.08365700  0.25709900  0.31034000  1
  O  O8  1  0.26431500  0.30040900  0.05801700  1
  O  O9  1  0.60207000  0.34266100  0.04592300  1
  O  O10  1  0.09873700  0.23354200  0.82566500  1
  O  O11  1  0.41634300  0.25709900  0.81034000  1
  O  O12  1  0.23568500  0.30040900  0.55801700  1
  O  O13  1  0.92314300  0.37623500  0.09969800  1
  O  O14  1  0.89793000  0.34266100  0.54592300  1
  O  O15  1  0.69204200  0.42353700  0.28181000  1
  O  O16  1  0.57685700  0.37623500  0.59969800  1
  O  O17  1  0.80795800  0.42353700  0.78181000  1
  O  O18  1  0.19204200  0.57646300  0.21819000  1
  O  O19  1  0.42314300  0.62376500  0.40030200  1
  O  O20  1  0.30795800  0.57646300  0.71819000  1
  O  O21  1  0.10207000  0.65733900  0.45407700  1
  O  O22  1  0.07685700  0.62376500  0.90030200  1
  O  O23  1  0.76431500  0.69959100  0.44198300  1
  O  O24  1  0.58365700  0.74290100  0.18966000  1
  O  O25  1  0.90126300  0.76645800  0.17433500  1
  O  O26  1  0.39793000  0.65733900  0.95407700  1
  O  O27  1  0.73568500  0.69959100  0.94198300  1
  O  O28  1  0.91634300  0.74290100  0.68966000  1
  O  O29  1  0.59873700  0.76645800  0.67433500  1
  O  O30  1  0.24144100  0.87497800  0.25772800  1
  O  O31  1  0.53787100  0.91729000  0.38955600  1
  O  O32  1  0.25855900  0.87497800  0.75772800  1
  O  O33  1  0.16669000  0.01504100  0.48582600  1
  O  O34  1  0.96212900  0.91729000  0.88955600  1
  O  O35  1  0.33331000  0.01504100  0.98582600  1
loop_
_geom_bond_atom_site_label_1
_geom_bond_atom_site_label_2
_geom_bond_distance
_geom_bond_site_symmetry_2
La0 O35 2.423442 1_554
La0 O31 2.456440 1_545
La0 O0 2.554445 1_545
La0 O30 2.606836 1_545
La0 O6 2.626462 1_555
La0 O3 2.647900 1_555
La0 O24 2.801506 1_545
La0 O9 2.967148 1_555
La0 O8 3.011920 1_555
La1 O33 2.423442 1_555
La1 O34 2.456440 1_445
La1 O2 2.554445 1_445
La1 O32 2.606836 1_545
La1 O10 2.626462 1_555
La1 O5 2.647900 1_455
La1 O28 2.801506 1_445
La1 O14 2.967148 1_455
La1 O12 3.011920 1_555
La2 O2 2.393935 1_545
La2 O4 2.419401 1_555
La2 O3 2.438635 1_555
La2 O6 2.491267 1_555
La2 O31 2.562864 1_545
La2 O15 2.605608 1_555
La2 O16 2.758318 1_555
La2 O14 3.075298 1_555
La3 O0 2.393935 1_546
La3 O1 2.419401 1_656
La3 O5 2.438635 1_555
La3 O10 2.491267 1_655
La3 O34 2.562864 1_545
La3 O17 2.605608 1_555
La3 O13 2.758318 1_556
La3 O9 3.075298 1_556
La4 O18 2.395572 1_555
La4 O9 2.495626 1_555
La4 O26 2.539268 1_554
La4 O6 2.547923 1_555
La4 O15 2.609831 1_555
La4 O24 2.663732 1_555
La4 O8 2.674117 1_555
La4 O19 2.958837 1_555
La5 O15 2.395572 1_555
La5 O21 2.495626 1_655
La5 O14 2.539268 1_555
La5 O25 2.547923 1_555
La5 O18 2.609831 1_655
La5 O7 2.663732 1_655
La5 O23 2.674117 1_555
La5 O13 2.958837 1_555
La6 O20 2.395572 1_555
La6 O14 2.495626 1_455
La6 O21 2.539268 1_555
La6 O10 2.547923 1_555
La6 O17 2.609831 1_455
La6 O28 2.663732 1_455
La6 O12 2.674117 1_555
La6 O22 2.958837 1_555
La7 O17 2.395572 1_555
La7 O26 2.495626 1_555
La7 O9 2.539268 1_556
La7 O29 2.547923 1_555
La7 O20 2.609831 1_555
La7 O11 2.663732 1_555
La7 O27 2.674117 1_555
La7 O16 2.958837 1_555
La8 O35 2.393935 1_564
La8 O34 2.419401 1_454
La8 O30 2.438635 1_555
La8 O25 2.491267 1_455
La8 O1 2.562864 1_565
La8 O18 2.605608 1_555
La8 O22 2.758318 1_554
La8 O26 3.075298 1_554
La9 O33 2.393935 1_565
La9 O31 2.419401 1_555
La9 O32 2.438635 1_555
La9 O29 2.491267 1_555
La9 O4 2.562864 1_565
La9 O20 2.605608 1_555
La9 O19 2.758318 1_555
La9 O21 3.075298 1_555
La10 O2 2.423442 1_555
La10 O1 2.456440 1_665
La10 O33 2.554445 1_665
La10 O3 2.606836 1_565
La10 O25 2.626462 1_555
La10 O30 2.647900 1_655
La10 O7 2.801506 1_665
La10 O21 2.967148 1_655
La10 O23 3.011920 1_555
La11 O0 2.423442 1_556
La11 O4 2.456440 1_565
La11 O35 2.554445 1_565
La11 O5 2.606836 1_565
La11 O29 2.626462 1_555
La11 O32 2.647900 1_555
La11 O11 2.801506 1_565
La11 O26 2.967148 1_555
La11 O27 3.011920 1_555
Al0 O7 1.794721 1_555
Al0 O6 1.797992 1_555
Al0 O33 1.804990 1_555
Al0 O12 1.822400 1_555
Al1 O13 1.777635 1_455
Al1 O7 1.788887 1_555
Al1 O8 1.792343 1_555
Al1 O1 1.810103 1_555
Al2 O11 1.794721 1_555
Al2 O10 1.797992 1_555
Al2 O35 1.804990 1_555
Al2 O8 1.822400 1_556
Al3 O13 1.751522 1_555
Al3 O15 1.773877 1_555
Al3 O9 1.775518 1_555
Al3 O3 1.780534 1_555
Al4 O16 1.777635 1_555
Al4 O11 1.788887 1_555
Al4 O12 1.792343 1_555
Al4 O4 1.810103 1_555
Al5 O16 1.751522 1_555
Al5 O17 1.773877 1_555
Al5 O14 1.775518 1_555
Al5 O5 1.780534 1_555
Al6 O19 1.751522 1_555
Al6 O18 1.773877 1_555
Al6 O21 1.775518 1_555
Al6 O30 1.780534 1_555
Al7 O19 1.777635 1_555
Al7 O24 1.788887 1_555
Al7 O23 1.792343 1_555
Al7 O31 1.810103 1_555
Al8 O22 1.751522 1_555
Al8 O20 1.773877 1_555
Al8 O26 1.775518 1_555
Al8 O32 1.780534 1_555
Al9 O24 1.794721 1_555
Al9 O25 1.797992 1_555
Al9 O0 1.804990 1_555
Al9 O27 1.822400 1_554
Al10 O22 1.777635 1_655
Al10 O28 1.788887 1_555
Al10 O27 1.792343 1_555
Al10 O34 1.810103 1_555
Al11 O28 1.794721 1_555
Al11 O29 1.797992 1_555
Al11 O2 1.804990 1_555
Al11 O23 1.822400 1_555
