# generated using pymatgen
data_Li2CrSiO4
_symmetry_space_group_name_H-M   'P 1'
_cell_length_a   5.08006000
_cell_length_b   6.64017400
_cell_length_c   10.74434800
_cell_angle_alpha   90.00000000
_cell_angle_beta   90.00000000
_cell_angle_gamma   90.00000000
_symmetry_Int_Tables_number   1
_chemical_formula_structural   Li2CrSiO4
_chemical_formula_sum   'Li8 Cr4 Si4 O16'
_cell_volume   362.43352906
_cell_formula_units_Z   4
loop_
 _symmetry_equiv_pos_site_id
 _symmetry_equiv_pos_as_xyz
  1  'x, y, z'
loop_
 _atom_site_type_symbol
 _atom_site_label
 _atom_site_symmetry_multiplicity
 _atom_site_fract_x
 _atom_site_fract_y
 _atom_site_fract_z
 _atom_site_occupancy
  Li  Li0  1  0.29304300  0.86958200  0.07721400  1
  Li  Li1  1  0.69798500  0.11951700  0.16318600  1
  Li  Li2  1  0.19798500  0.61951700  0.33681400  1
  Li  Li3  1  0.79304300  0.36958200  0.42278600  1
  Li  Li4  1  0.20695700  0.86958200  0.57721400  1
  Li  Li5  1  0.80201500  0.11951700  0.66318600  1
  Li  Li6  1  0.30201500  0.61951700  0.83681400  1
  Li  Li7  1  0.70695700  0.36958200  0.92278600  1
  Cr  Cr0  1  0.70384600  0.61662400  0.16019900  1
  Cr  Cr1  1  0.20384600  0.11662400  0.33980100  1
  Cr  Cr2  1  0.79615400  0.61662400  0.66019900  1
  Cr  Cr3  1  0.29615400  0.11662400  0.83980100  1
  Si  Si0  1  0.19518600  0.36625900  0.08346200  1
  Si  Si1  1  0.69518600  0.86625900  0.41653800  1
  Si  Si2  1  0.30481400  0.36625900  0.58346200  1
  Si  Si3  1  0.80481400  0.86625900  0.91653800  1
  O  O0  1  0.70512700  0.87517100  0.06293700  1
  O  O1  1  0.86994200  0.35393700  0.08988900  1
  O  O2  1  0.29149400  0.57771000  0.15301000  1
  O  O3  1  0.31486200  0.16345900  0.15155400  1
  O  O4  1  0.81486200  0.66345900  0.34844600  1
  O  O5  1  0.79149400  0.07771000  0.34699000  1
  O  O6  1  0.36994200  0.85393700  0.41011100  1
  O  O7  1  0.20512700  0.37517100  0.43706300  1
  O  O8  1  0.79487300  0.87517100  0.56293700  1
  O  O9  1  0.63005800  0.35393700  0.58988900  1
  O  O10  1  0.20850600  0.57771000  0.65301000  1
  O  O11  1  0.18513800  0.16345900  0.65155400  1
  O  O12  1  0.68513800  0.66345900  0.84844600  1
  O  O13  1  0.70850600  0.07771000  0.84699000  1
  O  O14  1  0.13005800  0.85393700  0.91011100  1
  O  O15  1  0.29487300  0.37517100  0.93706300  1
loop_
_geom_bond_atom_site_label_1
_geom_bond_atom_site_label_2
_geom_bond_distance
_geom_bond_site_symmetry_2
Li0 O14 1.979858 1_554
Li0 O0 2.099352 1_555
Li0 O2 2.102244 1_555
Li0 O3 2.111446 1_565
Li1 O0 1.947816 1_545
Li1 O1 1.950965 1_555
Li1 O3 1.972002 1_555
Li1 O5 2.050066 1_555
Li2 O7 1.947816 1_555
Li2 O6 1.950965 1_555
Li2 O4 1.972002 1_455
Li2 O2 2.050066 1_555
Li3 O9 1.979858 1_555
Li3 O7 2.099352 1_655
Li3 O5 2.102244 1_555
Li3 O4 2.111446 1_555
Li4 O6 1.979858 1_555
Li4 O8 2.099352 1_455
Li4 O10 2.102244 1_555
Li4 O11 2.111446 1_565
Li5 O8 1.947816 1_545
Li5 O9 1.950965 1_555
Li5 O11 1.972002 1_655
Li5 O13 2.050066 1_555
Li6 O15 1.947816 1_555
Li6 O14 1.950965 1_555
Li6 O12 1.972002 1_555
Li6 O10 2.050066 1_555
Li7 O1 1.979858 1_556
Li7 O15 2.099352 1_555
Li7 O13 2.102244 1_555
Li7 O12 2.111446 1_555
Cr0 O0 2.009849 1_555
Cr0 O1 2.079707 1_555
Cr0 O2 2.112063 1_555
Cr0 O4 2.122652 1_555
Cr1 O7 2.009849 1_555
Cr1 O6 2.079707 1_545
Cr1 O5 2.112063 1_455
Cr1 O3 2.122652 1_555
Cr2 O8 2.009849 1_555
Cr2 O9 2.079707 1_555
Cr2 O10 2.112063 1_655
Cr2 O12 2.122652 1_555
Cr3 O15 2.009849 1_555
Cr3 O14 2.079707 1_545
Cr3 O13 2.112063 1_555
Cr3 O11 2.122652 1_555
O0 Si3 1.653532 1_554
O1 Si0 1.655724 1_655
O2 Si0 1.664080 1_555
O3 Si0 1.648717 1_555
O4 Si1 1.648717 1_555
O5 Si1 1.664080 1_545
O6 Si1 1.655724 1_555
O7 Si2 1.653532 1_555
O8 Si1 1.653532 1_555
O9 Si2 1.655724 1_555
O10 Si2 1.664080 1_555
O11 Si2 1.648717 1_555
O12 Si3 1.648717 1_555
O13 Si3 1.664080 1_545
O14 Si3 1.655724 1_455
O15 Si0 1.653532 1_556
