# generated using pymatgen
data_Na3FeAsCO7
_symmetry_space_group_name_H-M   'P 1'
_cell_length_a   8.43295647
_cell_length_b   8.43292850
_cell_length_c   9.13702059
_cell_angle_alpha   89.59731623
_cell_angle_beta   89.60233428
_cell_angle_gamma   104.75388521
_symmetry_Int_Tables_number   1
_chemical_formula_structural   Na3FeAsCO7
_chemical_formula_sum   'Na12 Fe4 As4 C4 O28'
_cell_volume   628.30975891
_cell_formula_units_Z   4
loop_
 _symmetry_equiv_pos_site_id
 _symmetry_equiv_pos_as_xyz
  1  'x, y, z'
loop_
 _atom_site_type_symbol
 _atom_site_label
 _atom_site_symmetry_multiplicity
 _atom_site_fract_x
 _atom_site_fract_y
 _atom_site_fract_z
 _atom_site_occupancy
  Na  Na0  1  0.50950214  0.25955474  0.08131874  1
  Na  Na1  1  0.00965884  0.75965117  0.08138551  1
  Na  Na2  1  0.49058184  0.74054712  0.91871867  1
  Na  Na3  1  0.99032015  0.24030896  0.91861423  1
  Na  Na4  1  0.12295047  0.12520221  0.25540462  1
  Na  Na5  1  0.62299226  0.62516989  0.25541714  1
  Na  Na6  1  0.37519290  0.87293850  0.25539416  1
  Na  Na7  1  0.87522664  0.37290301  0.25537804  1
  Na  Na8  1  0.62480891  0.12707598  0.74458307  1
  Na  Na9  1  0.12476572  0.62707448  0.74463753  1
  Na  Na10  1  0.87704542  0.87480164  0.74457293  1
  Na  Na11  1  0.37700430  0.37482588  0.74459659  1
  Fe  Fe0  1  0.26503684  0.51496765  0.34367054  1
  Fe  Fe1  1  0.73496534  0.48502669  0.65630549  1
  Fe  Fe2  1  0.76505528  0.01500062  0.34381284  1
  Fe  Fe3  1  0.23493629  0.98499193  0.65621390  1
  As  As0  1  0.47164391  0.22162143  0.41449674  1
  As  As1  1  0.97161427  0.72156905  0.41448978  1
  As  As2  1  0.52834295  0.77837130  0.58548109  1
  As  As3  1  0.02838121  0.27841641  0.58547984  1
  C  C0  1  0.73600407  0.98599482  0.05376916  1
  C  C1  1  0.23592643  0.48591820  0.05368355  1
  C  C2  1  0.26401279  0.01403995  0.94624868  1
  C  C3  1  0.76406937  0.51407001  0.94627460  1
  O  O0  1  0.26952397  0.01957261  0.08712103  1
  O  O1  1  0.76971041  0.51970361  0.08712868  1
  O  O2  1  0.73052586  0.98049677  0.91290136  1
  O  O3  1  0.23025321  0.48024831  0.91283938  1
  O  O4  1  0.84769695  0.09767377  0.11811093  1
  O  O5  1  0.34766354  0.59768918  0.11787955  1
  O  O6  1  0.15230240  0.90235434  0.88194067  1
  O  O7  1  0.65233310  0.40230657  0.88207163  1
  O  O8  1  0.63102139  0.88104662  0.13279045  1
  O  O9  1  0.13106402  0.38102239  0.13286652  1
  O  O10  1  0.36898325  0.11895958  0.86719940  1
  O  O11  1  0.86895868  0.61899206  0.86714276  1
  O  O12  1  0.30701648  0.05707937  0.43973296  1
  O  O13  1  0.80704221  0.55699224  0.43979181  1
  O  O14  1  0.69295345  0.94292233  0.56028127  1
  O  O15  1  0.19297564  0.44297701  0.56022194  1
  O  O16  1  0.45524375  0.70517966  0.42117775  1
  O  O17  1  0.95525816  0.20520107  0.42121728  1
  O  O18  1  0.54473723  0.29480485  0.57881821  1
  O  O19  1  0.04473482  0.79477573  0.57879800  1
  O  O20  1  0.41244326  0.36183474  0.30580694  1
  O  O21  1  0.91234628  0.86177279  0.30585354  1
  O  O22  1  0.61187726  0.16230339  0.30593079  1
  O  O23  1  0.11187623  0.66231815  0.30591287  1
  O  O24  1  0.38811192  0.83768604  0.69408676  1
  O  O25  1  0.88811727  0.33767664  0.69407779  1
  O  O26  1  0.58756158  0.63816463  0.69417682  1
  O  O27  1  0.08762535  0.13820189  0.69417448  1
loop_
_geom_bond_atom_site_label_1
_geom_bond_atom_site_label_2
_geom_bond_distance
_geom_bond_site_symmetry_2
Na0 O7 2.326909 1_554
Na0 O20 2.445862 1_555
Na0 O10 2.446765 1_554
Na0 O22 2.447723 1_555
Na0 O0 2.470801 1_555
Na0 O1 2.679936 1_555
Na1 O6 2.327553 1_554
Na1 O21 2.446011 1_455
Na1 O23 2.446773 1_555
Na1 O11 2.448432 1_454
Na1 O1 2.470465 1_455
Na1 O0 2.676978 1_565
Na2 O5 2.326919 1_556
Na2 O8 2.445873 1_556
Na2 O26 2.446377 1_555
Na2 O24 2.447833 1_555
Na2 O2 2.470460 1_555
Na2 O3 2.681347 1_555
Na3 O4 2.327638 1_556
Na3 O27 2.445714 1_655
Na3 O25 2.446910 1_555
Na3 O9 2.448806 1_656
Na3 O3 2.470347 1_655
Na3 O2 2.676044 1_545
Na4 O17 2.284903 1_455
Na4 O0 2.288928 1_555
Na4 O9 2.408748 1_555
Na4 O12 2.460254 1_555
Na4 O21 2.503280 1_445
Na4 O4 2.604914 1_455
Na4 O20 2.775109 1_555
Na5 O16 2.284958 1_555
Na5 O1 2.289000 1_555
Na5 O8 2.409685 1_555
Na5 O13 2.460631 1_555
Na5 O20 2.502401 1_555
Na5 O5 2.606610 1_555
Na5 O21 2.774223 1_555
Na6 O16 2.285192 1_555
Na6 O0 2.289238 1_565
Na6 O8 2.409185 1_555
Na6 O12 2.461059 1_565
Na6 O23 2.502795 1_555
Na6 O5 2.605950 1_555
Na6 O22 2.774795 1_565
Na7 O17 2.285122 1_555
Na7 O1 2.289300 1_555
Na7 O9 2.408846 1_655
Na7 O13 2.461253 1_555
Na7 O22 2.502959 1_555
Na7 O4 2.604697 1_555
Na7 O23 2.774942 1_655
Na8 O18 2.284985 1_555
Na8 O2 2.289436 1_545
Na8 O10 2.409203 1_555
Na8 O14 2.460797 1_545
Na8 O25 2.502644 1_555
Na8 O7 2.605702 1_555
Na8 O24 2.774930 1_545
Na9 O19 2.285118 1_555
Na9 O3 2.289017 1_555
Na9 O11 2.408657 1_455
Na9 O15 2.461397 1_555
Na9 O24 2.502985 1_555
Na9 O6 2.605222 1_555
Na9 O25 2.774876 1_455
Na10 O19 2.284763 1_655
Na10 O2 2.289208 1_555
Na10 O11 2.408847 1_555
Na10 O14 2.460169 1_555
Na10 O27 2.502928 1_665
Na10 O6 2.605243 1_655
Na10 O26 2.775065 1_555
Na11 O18 2.285018 1_555
Na11 O3 2.288700 1_555
Na11 O10 2.409521 1_555
Na11 O15 2.460419 1_555
Na11 O26 2.502503 1_555
Na11 O7 2.606331 1_555
Na11 O27 2.774435 1_555
Fe0 O23 2.036884 1_555
Fe0 O20 2.037264 1_555
Fe0 O16 2.090117 1_555
Fe0 O15 2.105080 1_555
Fe0 O5 2.222743 1_555
Fe0 O9 2.381815 1_555
Fe1 O25 2.036846 1_555
Fe1 O26 2.037292 1_555
Fe1 O18 2.090204 1_555
Fe1 O13 2.104741 1_555
Fe1 O7 2.222541 1_555
Fe1 O11 2.382186 1_555
Fe2 O22 2.036883 1_555
Fe2 O21 2.037296 1_545
Fe2 O17 2.089714 1_555
Fe2 O14 2.104596 1_545
Fe2 O4 2.221927 1_555
Fe2 O8 2.383654 1_545
Fe3 O24 2.036873 1_555
Fe3 O27 2.037309 1_565
Fe3 O19 2.089820 1_555
Fe3 O12 2.104681 1_565
Fe3 O6 2.222054 1_555
Fe3 O10 2.383460 1_565
As0 O18 1.687353 1_555
As0 O12 1.707567 1_555
As0 O20 1.710151 1_555
As0 O22 1.710181 1_555
As1 O19 1.687363 1_655
As1 O13 1.707536 1_555
As1 O21 1.710075 1_555
As1 O23 1.710155 1_655
As2 O16 1.687238 1_555
As2 O14 1.707485 1_555
As2 O26 1.710211 1_555
As2 O24 1.710363 1_555
As3 O17 1.687016 1_455
As3 O15 1.707518 1_555
As3 O25 1.710316 1_455
As3 O27 1.710357 1_555
C0 O2 1.288997 1_554
C0 O8 1.292836 1_555
C0 O4 1.297460 1_565
C1 O3 1.288887 1_554
C1 O9 1.292911 1_555
C1 O5 1.297469 1_555
C2 O0 1.289058 1_556
C2 O10 1.292802 1_555
C2 O6 1.297428 1_545
C3 O1 1.288958 1_556
C3 O11 1.292881 1_555
C3 O7 1.297460 1_555
