# generated using pymatgen
data_PrHfO3
_symmetry_space_group_name_H-M   'P 1'
_cell_length_a   5.75929200
_cell_length_b   5.88939000
_cell_length_c   8.15655400
_cell_angle_alpha   90.00000000
_cell_angle_beta   90.00000000
_cell_angle_gamma   90.00000000
_symmetry_Int_Tables_number   1
_chemical_formula_structural   PrHfO3
_chemical_formula_sum   'Pr4 Hf4 O12'
_cell_volume   276.65984447
_cell_formula_units_Z   4
loop_
 _symmetry_equiv_pos_site_id
 _symmetry_equiv_pos_as_xyz
  1  'x, y, z'
loop_
 _atom_site_type_symbol
 _atom_site_label
 _atom_site_symmetry_multiplicity
 _atom_site_fract_x
 _atom_site_fract_y
 _atom_site_fract_z
 _atom_site_occupancy
  Pr  Pr0  1  0.50413100  0.06070800  0.25000000  1
  Pr  Pr1  1  0.00413100  0.43929200  0.75000000  1
  Pr  Pr2  1  0.99586900  0.56070800  0.25000000  1
  Pr  Pr3  1  0.49586900  0.93929200  0.75000000  1
  Hf  Hf0  1  0.00000000  0.00000000  0.00000000  1
  Hf  Hf1  1  0.00000000  0.00000000  0.50000000  1
  Hf  Hf2  1  0.50000000  0.50000000  0.00000000  1
  Hf  Hf3  1  0.50000000  0.50000000  0.50000000  1
  O  O0  1  0.08410200  0.03076400  0.75000000  1
  O  O1  1  0.68904600  0.19500500  0.54279000  1
  O  O2  1  0.68904600  0.19500500  0.95721000  1
  O  O3  1  0.18904600  0.30499500  0.04279000  1
  O  O4  1  0.18904600  0.30499500  0.45721000  1
  O  O5  1  0.58410200  0.46923600  0.25000000  1
  O  O6  1  0.41589800  0.53076400  0.75000000  1
  O  O7  1  0.81095400  0.69500500  0.54279000  1
  O  O8  1  0.81095400  0.69500500  0.95721000  1
  O  O9  1  0.31095400  0.80499500  0.04279000  1
  O  O10  1  0.31095400  0.80499500  0.45721000  1
  O  O11  1  0.91589800  0.96923600  0.25000000  1
loop_
_geom_bond_atom_site_label_1
_geom_bond_atom_site_label_2
_geom_bond_distance
_geom_bond_site_symmetry_2
Hf0 O11 2.103693 1_445
Hf0 O0 2.103693 1_554
Hf0 O3 2.129248 1_555
Hf0 O8 2.129248 1_444
Hf0 O9 2.155924 1_545
Hf0 O2 2.155924 1_454
Hf1 O11 2.103693 1_445
Hf1 O0 2.103693 1_555
Hf1 O4 2.129248 1_555
Hf1 O7 2.129248 1_445
Hf1 O10 2.155924 1_545
Hf1 O1 2.155924 1_455
Hf2 O5 2.103693 1_555
Hf2 O6 2.103693 1_554
Hf2 O9 2.129248 1_555
Hf2 O2 2.129248 1_554
Hf2 O8 2.155924 1_554
Hf2 O3 2.155924 1_555
Hf3 O5 2.103693 1_555
Hf3 O6 2.103693 1_555
Hf3 O10 2.129248 1_555
Hf3 O1 2.129248 1_555
Hf3 O7 2.155924 1_555
Hf3 O4 2.155924 1_555
O0 Pr3 2.431905 1_545
O0 Pr1 2.449668 1_555
O1 Pr3 2.522363 1_545
O1 Pr0 2.731857 1_555
O1 Pr1 2.866946 1_655
O2 Pr3 2.522363 1_545
O2 Pr0 2.731857 1_556
O2 Pr1 2.866946 1_655
O3 Pr2 2.522363 1_455
O3 Pr1 2.731857 1_554
O3 Pr0 2.866946 1_555
O4 Pr2 2.522363 1_455
O4 Pr1 2.731857 1_555
O4 Pr0 2.866946 1_555
O5 Pr2 2.431905 1_555
O5 Pr0 2.449668 1_555
O6 Pr1 2.431905 1_555
O6 Pr3 2.449668 1_555
O7 Pr1 2.522363 1_655
O7 Pr2 2.731857 1_555
O7 Pr3 2.866946 1_555
O8 Pr1 2.522363 1_655
O8 Pr2 2.731857 1_556
O8 Pr3 2.866946 1_555
O9 Pr0 2.522363 1_565
O9 Pr3 2.731857 1_554
O9 Pr2 2.866946 1_455
O10 Pr0 2.522363 1_565
O10 Pr3 2.731857 1_555
O10 Pr2 2.866946 1_455
O11 Pr0 2.431905 1_565
O11 Pr2 2.449668 1_555
