# generated using pymatgen
data_Li4CrO5
_symmetry_space_group_name_H-M   'P 1'
_cell_length_a   5.00994200
_cell_length_b   8.86936943
_cell_length_c   8.91559435
_cell_angle_alpha   113.35526709
_cell_angle_beta   96.74589230
_cell_angle_gamma   96.45095885
_symmetry_Int_Tables_number   1
_chemical_formula_structural   Li4CrO5
_chemical_formula_sum   'Li16 Cr4 O20'
_cell_volume   355.65723778
_cell_formula_units_Z   4
loop_
 _symmetry_equiv_pos_site_id
 _symmetry_equiv_pos_as_xyz
  1  'x, y, z'
loop_
 _atom_site_type_symbol
 _atom_site_label
 _atom_site_symmetry_multiplicity
 _atom_site_fract_x
 _atom_site_fract_y
 _atom_site_fract_z
 _atom_site_occupancy
  Li  Li0  1  0.51587300  0.10445600  0.91462800  1
  Li  Li1  1  0.97682200  0.19969200  0.80236000  1
  Li  Li2  1  0.74567400  0.04793100  0.46178000  1
  Li  Li3  1  0.28437100  0.15677800  0.35658400  1
  Li  Li4  1  0.00000000  0.00000000  0.00000000  1
  Li  Li5  1  0.00347900  0.39595500  0.59493500  1
  Li  Li6  1  0.21458400  0.54976300  0.93497500  1
  Li  Li7  1  0.74228700  0.64294200  0.83956400  1
  Li  Li8  1  0.50000000  0.50000000  0.50000000  1
  Li  Li9  1  0.25771300  0.35705800  0.16043600  1
  Li  Li10  1  0.78541600  0.45023700  0.06502500  1
  Li  Li11  1  0.99652100  0.60404500  0.40506500  1
  Li  Li12  1  0.71562900  0.84322200  0.64341600  1
  Li  Li13  1  0.25432600  0.95206900  0.53822000  1
  Li  Li14  1  0.02317800  0.80030800  0.19764000  1
  Li  Li15  1  0.48412700  0.89554400  0.08537200  1
  Cr  Cr0  1  0.47716000  0.29898700  0.73943500  1
  Cr  Cr1  1  0.78745100  0.21364700  0.24653500  1
  Cr  Cr2  1  0.21254900  0.78635300  0.75346500  1
  Cr  Cr3  1  0.52284000  0.70101300  0.26056500  1
  O  O0  1  0.60882300  0.10318000  0.68105800  1
  O  O1  1  0.89478700  0.03133200  0.22295800  1
  O  O2  1  0.36785700  0.31978200  0.91793300  1
  O  O3  1  0.17815400  0.18121200  0.58530900  1
  O  O4  1  0.82959400  0.40504500  0.81765200  1
  O  O5  1  0.65961000  0.27240100  0.43617500  1
  O  O6  1  0.43619700  0.14307000  0.14053000  1
  O  O7  1  0.87031300  0.22893300  0.05658700  1
  O  O8  1  0.39811300  0.47904800  0.71450600  1
  O  O9  1  0.08632600  0.36438100  0.35721900  1
  O  O10  1  0.91367400  0.63561900  0.64278100  1
  O  O11  1  0.60188700  0.52095200  0.28549400  1
  O  O12  1  0.12968700  0.77106700  0.94341300  1
  O  O13  1  0.56380300  0.85693000  0.85947000  1
  O  O14  1  0.34039000  0.72759900  0.56382500  1
  O  O15  1  0.17040600  0.59495500  0.18234800  1
  O  O16  1  0.82184600  0.81878800  0.41469100  1
  O  O17  1  0.63214300  0.68021800  0.08206700  1
  O  O18  1  0.10521300  0.96866800  0.77704200  1
  O  O19  1  0.39117700  0.89682000  0.31894200  1
loop_
_geom_bond_atom_site_label_1
_geom_bond_atom_site_label_2
_geom_bond_distance
_geom_bond_site_symmetry_2
Li0 O7 1.974221 1_556
Li0 O6 2.001432 1_556
Li0 O13 2.099877 1_545
Li0 O2 2.115862 1_555
Li0 O0 2.182602 1_555
Li0 O18 2.206125 1_545
Li1 O0 1.935034 1_555
Li1 O4 2.002146 1_555
Li1 O2 2.054471 1_655
Li1 O18 2.151002 1_645
Li1 O3 2.243493 1_655
Li1 O7 2.310534 1_556
Li2 O16 1.996939 1_545
Li2 O19 2.037840 1_545
Li2 O0 2.040350 1_555
Li2 O5 2.175283 1_555
Li2 O3 2.266395 1_655
Li2 O1 2.294185 1_555
Li3 O5 1.940553 1_555
Li3 O1 2.093213 1_455
Li3 O3 2.102146 1_555
Li3 O6 2.117335 1_555
Li3 O9 2.185972 1_555
Li3 O19 2.328293 1_545
Li4 O18 2.036549 1_544
Li4 O1 2.036549 1_455
Li4 O7 2.088256 1_455
Li4 O12 2.088256 1_544
Li4 O6 2.329959 1_555
Li4 O13 2.329959 1_444
Li5 O5 1.986293 1_455
Li5 O8 2.035437 1_555
Li5 O10 2.108060 1_455
Li5 O9 2.122421 1_555
Li5 O3 2.159490 1_555
Li5 O4 2.236845 1_455
Li6 O12 2.029110 1_555
Li6 O4 2.089747 1_455
Li6 O15 2.123086 1_556
Li6 O8 2.163135 1_555
Li6 O2 2.215201 1_555
Li6 O17 2.245737 1_556
Li7 O8 2.007353 1_555
Li7 O10 2.023764 1_555
Li7 O12 2.040476 1_655
Li7 O4 2.140609 1_555
Li7 O13 2.141220 1_555
Li7 O17 2.200645 1_556
Li8 O11 2.107689 1_555
Li8 O8 2.107689 1_555
Li8 O14 2.144078 1_555
Li8 O5 2.144078 1_555
Li8 O10 2.229015 1_555
Li8 O9 2.229015 1_555
Li9 O11 2.007353 1_555
Li9 O9 2.023764 1_555
Li9 O7 2.040476 1_455
Li9 O15 2.140609 1_555
Li9 O6 2.141220 1_555
Li9 O2 2.200645 1_554
Li10 O7 2.029110 1_555
Li10 O15 2.089747 1_655
Li10 O4 2.123086 1_554
Li10 O11 2.163135 1_555
Li10 O17 2.215201 1_555
Li10 O2 2.245737 1_554
Li11 O14 1.986293 1_655
Li11 O11 2.035437 1_555
Li11 O9 2.108060 1_655
Li11 O10 2.122421 1_555
Li11 O16 2.159490 1_555
Li11 O15 2.236845 1_655
Li12 O14 1.940553 1_555
Li12 O18 2.093213 1_655
Li12 O16 2.102146 1_555
Li12 O13 2.117335 1_555
Li12 O10 2.185972 1_555
Li12 O0 2.328293 1_565
Li13 O3 1.996939 1_565
Li13 O0 2.037840 1_565
Li13 O19 2.040350 1_555
Li13 O14 2.175283 1_555
Li13 O16 2.266395 1_455
Li13 O18 2.294185 1_555
Li14 O19 1.935034 1_555
Li14 O15 2.002146 1_555
Li14 O17 2.054471 1_455
Li14 O1 2.151002 1_465
Li14 O16 2.243493 1_455
Li14 O12 2.310534 1_554
Li15 O12 1.974221 1_554
Li15 O13 2.001432 1_554
Li15 O6 2.099877 1_565
Li15 O17 2.115862 1_555
Li15 O19 2.182602 1_555
Li15 O1 2.206125 1_565
Cr0 O2 1.691508 1_555
Cr0 O8 1.777524 1_555
Cr0 O3 1.802807 1_555
Cr0 O4 1.818288 1_555
Cr0 O0 1.828517 1_555
Cr1 O1 1.703103 1_555
Cr1 O9 1.777701 1_655
Cr1 O5 1.780800 1_555
Cr1 O6 1.809557 1_555
Cr1 O7 1.842068 1_555
Cr2 O18 1.703103 1_555
Cr2 O10 1.777701 1_455
Cr2 O14 1.780800 1_555
Cr2 O13 1.809557 1_555
Cr2 O12 1.842068 1_555
Cr3 O17 1.691508 1_555
Cr3 O11 1.777524 1_555
Cr3 O16 1.802807 1_555
Cr3 O15 1.818288 1_555
Cr3 O19 1.828517 1_555
