# generated using pymatgen
data_Hf3Zn3C
_symmetry_space_group_name_H-M   'P 1'
_cell_length_a   8.50156969
_cell_length_b   8.50157056
_cell_length_c   8.50157099
_cell_angle_alpha   60.00109069
_cell_angle_beta   60.00108913
_cell_angle_gamma   60.00108957
_symmetry_Int_Tables_number   1
_chemical_formula_structural   Hf3Zn3C
_chemical_formula_sum   'Hf12 Zn12 C4'
_cell_volume   434.50342174
_cell_formula_units_Z   4
loop_
 _symmetry_equiv_pos_site_id
 _symmetry_equiv_pos_as_xyz
  1  'x, y, z'
loop_
 _atom_site_type_symbol
 _atom_site_label
 _atom_site_symmetry_multiplicity
 _atom_site_fract_x
 _atom_site_fract_y
 _atom_site_fract_z
 _atom_site_occupancy
  Hf  Hf0  1  0.43950444  0.43950431  0.06049266  1
  Hf  Hf1  1  0.06049217  0.43950601  0.06049499  1
  Hf  Hf2  1  0.43950485  0.06049590  0.06049317  1
  Hf  Hf3  1  0.06049104  0.06049687  0.43950554  1
  Hf  Hf4  1  0.43950381  0.06049476  0.43950380  1
  Hf  Hf5  1  0.06049090  0.43950490  0.43950478  1
  Hf  Hf6  1  0.81049463  0.81049465  0.18950205  1
  Hf  Hf7  1  0.18950237  0.81049642  0.18950510  1
  Hf  Hf8  1  0.81049515  0.18950641  0.18950363  1
  Hf  Hf9  1  0.18950143  0.18950688  0.81049593  1
  Hf  Hf10  1  0.81049393  0.18950414  0.81049415  1
  Hf  Hf11  1  0.18950035  0.81049504  0.81049498  1
  Zn  Zn0  1  0.83129772  0.83129643  0.50610996  1
  Zn  Zn1  1  0.83129792  0.50610902  0.83129777  1
  Zn  Zn2  1  0.50611173  0.83129602  0.83129721  1
  Zn  Zn3  1  0.83129662  0.83129525  0.83129633  1
  Zn  Zn4  1  0.41870356  0.41870202  0.74389159  1
  Zn  Zn5  1  0.41870374  0.74388991  0.41870339  1
  Zn  Zn6  1  0.74389339  0.41870244  0.41870221  1
  Zn  Zn7  1  0.41870705  0.41870547  0.41870661  1
  Zn  Zn8  1  0.62500656  0.62500013  0.12499956  1
  Zn  Zn9  1  0.62500509  0.12499979  0.62500221  1
  Zn  Zn10  1  0.12499863  0.62500157  0.62500451  1
  Zn  Zn11  1  0.62500269  0.62499647  0.62499933  1
  C  C0  1  0.12499981  0.12499965  0.62500040  1
  C  C1  1  0.12500040  0.62499937  0.12499997  1
  C  C2  1  0.62500161  0.12499937  0.12499933  1
  C  C3  1  0.12500040  0.12500078  0.12500083  1
loop_
_geom_bond_atom_site_label_1
_geom_bond_atom_site_label_2
_geom_bond_distance
_geom_bond_site_symmetry_2
Hf0 Zn4 2.879329 1_554
Hf0 Zn7 2.879449 1_555
Hf0 Zn11 3.080810 1_554
Hf0 Zn8 3.080816 1_555
Hf0 Zn2 3.082961 1_554
Hf0 Zn1 3.082965 1_554
Hf1 Zn6 2.879388 1_455
Hf1 Zn4 2.879425 1_554
Hf1 Zn8 3.080739 1_455
Hf1 Zn10 3.080773 1_554
Hf1 Zn1 3.082884 1_454
Hf1 Zn3 3.082954 1_454
Hf2 Zn4 2.879393 1_554
Hf2 Zn5 2.879429 1_545
Hf2 Zn9 3.080780 1_554
Hf2 Zn8 3.080811 1_545
Hf2 Zn2 3.082901 1_544
Hf2 Zn3 3.082975 1_544
Hf3 Zn6 2.879376 1_455
Hf3 Zn5 2.879444 1_545
Hf3 Zn9 3.080744 1_455
Hf3 Zn10 3.080806 1_545
Hf3 Zn0 3.082895 1_445
Hf3 Zn3 3.082966 1_445
Hf4 Zn5 2.879348 1_545
Hf4 Zn7 2.879430 1_555
Hf4 Zn9 3.080818 1_555
Hf4 Zn11 3.080845 1_545
Hf4 Zn0 3.082973 1_545
Hf4 Zn2 3.082976 1_545
Hf5 Zn6 2.879308 1_455
Hf5 Zn7 2.879462 1_555
Hf5 Zn11 3.080774 1_455
Hf5 Zn10 3.080810 1_555
Hf5 Zn0 3.082953 1_455
Hf5 Zn1 3.082960 1_455
Hf6 Zn3 2.879356 1_554
Hf6 Zn0 2.879395 1_555
Hf6 Zn8 3.080679 1_555
Hf6 Zn11 3.080833 1_555
Hf6 Zn6 3.082944 1_555
Hf6 Zn5 3.082946 1_555
Hf7 Zn0 2.879398 1_455
Hf7 Zn2 2.879430 1_554
Hf7 Zn10 3.080842 1_555
Hf7 Zn8 3.080873 1_555
Hf7 Zn5 3.082930 1_555
Hf7 Zn7 3.083002 1_555
Hf8 Zn1 2.879396 1_554
Hf8 Zn0 2.879429 1_545
Hf8 Zn8 3.080800 1_555
Hf8 Zn9 3.080831 1_555
Hf8 Zn6 3.082911 1_555
Hf8 Zn7 3.082976 1_555
Hf9 Zn1 2.879382 1_455
Hf9 Zn2 2.879448 1_545
Hf9 Zn10 3.080808 1_555
Hf9 Zn9 3.080867 1_555
Hf9 Zn4 3.082921 1_555
Hf9 Zn7 3.082989 1_555
Hf10 Zn3 2.879374 1_545
Hf10 Zn1 2.879383 1_555
Hf10 Zn9 3.080677 1_555
Hf10 Zn11 3.080798 1_555
Hf10 Zn4 3.082935 1_555
Hf10 Zn6 3.082940 1_555
Hf11 Zn3 2.879342 1_455
Hf11 Zn2 2.879416 1_555
Hf11 Zn10 3.080684 1_555
Hf11 Zn11 3.080868 1_555
Hf11 Zn5 3.082953 1_555
Hf11 Zn4 3.082957 1_555
Zn0 Zn11 2.589251 1_555
Zn0 Zn10 2.589262 1_655
Zn0 Zn9 2.589268 1_565
Zn0 Zn3 2.764585 1_555
Zn0 Zn2 2.764642 1_555
Zn0 Zn1 2.764651 1_555
Zn1 Zn11 2.589246 1_555
Zn1 Zn10 2.589251 1_655
Zn1 Zn8 2.589252 1_556
Zn1 Zn3 2.764582 1_555
Zn1 Zn2 2.764642 1_555
Zn2 Zn8 2.589273 1_556
Zn2 Zn9 2.589276 1_565
Zn2 Zn3 2.764575 1_555
Zn3 Zn8 2.589234 1_556
Zn3 Zn9 2.589239 1_565
Zn4 Zn9 2.589248 1_555
Zn4 Zn7 2.764554 1_555
Zn4 Zn5 2.764655 1_555
Zn4 Zn6 2.764668 1_555
Zn5 Zn8 2.589261 1_555
Zn5 Zn7 2.764551 1_555
Zn5 Zn6 2.764659 1_555
Zn6 Zn8 2.589239 1_555
Zn6 Zn9 2.589246 1_555
Zn6 Zn7 2.764563 1_555
Zn7 Zn9 2.589278 1_555
Zn7 Zn8 2.589284 1_555
Zn10 Zn3 2.589232 1_455
Zn10 Zn4 2.589256 1_555
Zn10 Zn5 2.589263 1_555
Zn10 Zn7 2.589287 1_555
Zn11 Zn6 2.589221 1_555
Zn11 Zn4 2.589234 1_555
Zn11 Zn5 2.589240 1_555
Zn11 Zn2 2.589264 1_555
C0 Hf9 2.262451 1_555
C0 Hf3 2.262462 1_555
C0 Hf4 2.262501 1_555
C0 Hf11 2.262501 1_545
C0 Hf10 2.262507 1_455
C0 Hf5 2.262507 1_555
C1 Hf7 2.262453 1_555
C1 Hf1 2.262460 1_555
C1 Hf0 2.262498 1_555
C1 Hf5 2.262502 1_555
C1 Hf11 2.262505 1_554
C1 Hf6 2.262509 1_455
C2 Hf8 2.262450 1_555
C2 Hf2 2.262466 1_555
C2 Hf6 2.262498 1_545
C2 Hf10 2.262500 1_554
C2 Hf4 2.262506 1_555
C2 Hf0 2.262508 1_555
C3 Hf2 2.262478 1_555
C3 Hf3 2.262480 1_555
C3 Hf1 2.262482 1_555
C3 Hf7 2.262490 1_545
C3 Hf8 2.262493 1_455
C3 Hf9 2.262493 1_554
