# generated using pymatgen
data_Li10Cu(SiO5)2
_symmetry_space_group_name_H-M   'P 1'
_cell_length_a   15.39619181
_cell_length_b   15.39619181
_cell_length_c   5.19563644
_cell_angle_alpha   80.64262807
_cell_angle_beta   80.64262807
_cell_angle_gamma   22.99356711
_symmetry_Int_Tables_number   1
_chemical_formula_structural   Li10Cu(SiO5)2
_chemical_formula_sum   'Li20 Cu2 Si4 O20'
_cell_volume   474.42400931
_cell_formula_units_Z   2
loop_
 _symmetry_equiv_pos_site_id
 _symmetry_equiv_pos_as_xyz
  1  'x, y, z'
loop_
 _atom_site_type_symbol
 _atom_site_label
 _atom_site_symmetry_multiplicity
 _atom_site_fract_x
 _atom_site_fract_y
 _atom_site_fract_z
 _atom_site_occupancy
  Li  Li0  1  0.49004100  0.49004100  0.27208700  1
  Li  Li1  1  0.22708700  0.63619900  0.90195300  1
  Li  Li2  1  0.63619900  0.22708700  0.90195300  1
  Li  Li3  1  0.86729200  0.86729200  0.77843500  1
  Li  Li4  1  0.08580100  0.64979000  0.24665300  1
  Li  Li5  1  0.64979000  0.08580100  0.24665300  1
  Li  Li6  1  0.32500000  0.32500000  0.92789100  1
  Li  Li7  1  0.04795700  0.56070400  0.60396000  1
  Li  Li8  1  0.56070400  0.04795700  0.60396000  1
  Li  Li9  1  0.26924500  0.26924500  0.32230700  1
  Li  Li10  1  0.73075500  0.73075500  0.67769300  1
  Li  Li11  1  0.95204300  0.43929600  0.39604000  1
  Li  Li12  1  0.43929600  0.95204300  0.39604000  1
  Li  Li13  1  0.67500000  0.67500000  0.07210900  1
  Li  Li14  1  0.35021000  0.91419900  0.75334700  1
  Li  Li15  1  0.91419900  0.35021000  0.75334700  1
  Li  Li16  1  0.13270800  0.13270800  0.22156500  1
  Li  Li17  1  0.77291300  0.36380100  0.09804700  1
  Li  Li18  1  0.36380100  0.77291300  0.09804700  1
  Li  Li19  1  0.50995900  0.50995900  0.72791300  1
  Cu  Cu0  1  0.96315800  0.96315800  0.12057700  1
  Cu  Cu1  1  0.03684200  0.03684200  0.87942300  1
  Si  Si0  1  0.39952500  0.39952500  0.51249900  1
  Si  Si1  1  0.78058800  0.78058800  0.13105700  1
  Si  Si2  1  0.21941200  0.21941200  0.86894300  1
  Si  Si3  1  0.60047500  0.60047500  0.48750100  1
  O  O0  1  0.44887600  0.44887600  0.61037200  1
  O  O1  1  0.90526400  0.90526400  0.05249300  1
  O  O2  1  0.40506100  0.40506100  0.18905500  1
  O  O3  1  0.15705400  0.58286800  0.62695500  1
  O  O4  1  0.58286800  0.15705400  0.62695500  1
  O  O5  1  0.02887200  0.58272600  0.22034700  1
  O  O6  1  0.58272600  0.02887200  0.22034700  1
  O  O7  1  0.78575900  0.78575900  0.81021000  1
  O  O8  1  0.27103800  0.27103800  0.72063600  1
  O  O9  1  0.72896200  0.72896200  0.27936400  1
  O  O10  1  0.21424100  0.21424100  0.18979000  1
  O  O11  1  0.41727400  0.97112800  0.77965300  1
  O  O12  1  0.97112800  0.41727400  0.77965300  1
  O  O13  1  0.41713200  0.84294600  0.37304500  1
  O  O14  1  0.84294600  0.41713200  0.37304500  1
  O  O15  1  0.59493900  0.59493900  0.81094500  1
  O  O16  1  0.09473600  0.09473600  0.94750700  1
  O  O17  1  0.55112400  0.55112400  0.38962800  1
  O  O18  1  0.24580600  0.75419400  0.00000000  1
  O  O19  1  0.75419400  0.24580600  0.00000000  1
loop_
_geom_bond_atom_site_label_1
_geom_bond_atom_site_label_2
_geom_bond_distance
_geom_bond_site_symmetry_2
Li0 O0 1.976767 1_555
Li0 O17 2.035606 1_555
Li0 O19 2.093227 1_555
Li0 O18 2.093227 1_555
Li1 O0 1.969809 1_555
Li1 O2 2.011845 1_556
Li1 O1 2.080038 1_456
Li1 O18 2.226093 1_556
Li1 O3 2.527984 1_555
Li2 O0 1.969809 1_555
Li2 O2 2.011845 1_556
Li2 O1 2.080038 1_546
Li2 O19 2.226093 1_556
Li2 O4 2.527984 1_555
Li3 O3 1.925995 1_655
Li3 O4 1.925995 1_565
Li3 O1 1.970212 1_556
Li3 O7 2.438272 1_555
Li4 O5 1.898441 1_555
Li4 O1 1.925508 1_455
Li4 O3 2.032517 1_555
Li4 O2 2.058546 1_555
Li5 O6 1.898441 1_555
Li5 O1 1.925508 1_545
Li5 O4 2.032517 1_555
Li5 O2 2.058546 1_555
Li6 O8 2.095872 1_555
Li6 O6 2.289325 1_556
Li6 O5 2.289325 1_556
Li6 O3 2.299733 1_555
Li6 O4 2.299733 1_555
Li7 O7 1.870495 1_455
Li7 O8 1.910583 1_555
Li7 O5 1.990244 1_555
Li7 O3 2.021342 1_555
Li8 O7 1.870495 1_545
Li8 O8 1.910583 1_555
Li8 O6 1.990244 1_555
Li8 O4 2.021342 1_555
Li9 O10 1.899455 1_555
Li9 O6 2.047425 1_555
Li9 O5 2.047425 1_555
Li9 O8 2.079234 1_555
Li10 O7 1.899455 1_555
Li10 O12 2.047425 1_555
Li10 O11 2.047425 1_555
Li10 O9 2.079234 1_555
Li11 O10 1.870495 1_655
Li11 O9 1.910583 1_555
Li11 O12 1.990244 1_555
Li11 O14 2.021342 1_555
Li12 O10 1.870495 1_565
Li12 O9 1.910583 1_555
Li12 O11 1.990244 1_555
Li12 O13 2.021342 1_555
Li13 O9 2.095872 1_555
Li13 O12 2.289325 1_554
Li13 O11 2.289325 1_554
Li13 O13 2.299733 1_555
Li13 O14 2.299733 1_555
Li14 O11 1.898441 1_555
Li14 O16 1.925508 1_565
Li14 O13 2.032517 1_555
Li14 O15 2.058546 1_555
Li15 O12 1.898441 1_555
Li15 O16 1.925508 1_655
Li15 O14 2.032517 1_555
Li15 O15 2.058546 1_555
Li16 O14 1.925995 1_455
Li16 O13 1.925995 1_545
Li16 O16 1.970212 1_554
Li16 O10 2.438272 1_555
Li17 O17 1.969809 1_555
Li17 O15 2.011845 1_554
Li17 O16 2.080038 1_654
Li17 O19 2.226093 1_555
Li17 O14 2.527984 1_555
Li18 O17 1.969809 1_555
Li18 O15 2.011845 1_554
Li18 O16 2.080038 1_564
Li18 O18 2.226093 1_555
Li18 O13 2.527984 1_555
Li19 O17 1.976767 1_555
Li19 O0 2.035606 1_555
Li19 O19 2.093227 1_556
Li19 O18 2.093227 1_556
Cu0 O1 1.839007 1_555
Cu0 O19 1.916523 1_565
Cu0 O18 1.916523 1_655
Cu1 O16 1.839007 1_555
Cu1 O18 1.916523 1_546
Cu1 O19 1.916523 1_456
O0 Si0 1.651491 1_555
O2 Si0 1.660970 1_555
O3 Si0 1.637318 1_555
O4 Si0 1.637318 1_555
O5 Si1 1.668951 1_455
O6 Si1 1.668951 1_545
O7 Si1 1.648313 1_556
O8 Si2 1.619300 1_555
O9 Si1 1.619300 1_555
O10 Si2 1.648313 1_554
O11 Si2 1.668951 1_565
O12 Si2 1.668951 1_655
O13 Si3 1.637318 1_555
O14 Si3 1.637318 1_555
O15 Si3 1.660970 1_555
O17 Si3 1.651491 1_555
