# generated using pymatgen
data_PrHfO4
_symmetry_space_group_name_H-M   'P 1'
_cell_length_a   7.68046100
_cell_length_b   7.68046100
_cell_length_c   10.73774400
_cell_angle_alpha   90.00000000
_cell_angle_beta   90.00000000
_cell_angle_gamma   90.00000000
_symmetry_Int_Tables_number   1
_chemical_formula_structural   PrHfO4
_chemical_formula_sum   'Pr8 Hf8 O32'
_cell_volume   633.41394752
_cell_formula_units_Z   8
loop_
 _symmetry_equiv_pos_site_id
 _symmetry_equiv_pos_as_xyz
  1  'x, y, z'
loop_
 _atom_site_type_symbol
 _atom_site_label
 _atom_site_symmetry_multiplicity
 _atom_site_fract_x
 _atom_site_fract_y
 _atom_site_fract_z
 _atom_site_occupancy
  Pr  Pr0  1  0.00149600  0.24944600  0.87443400  1
  Pr  Pr1  1  0.50145700  0.25062700  0.87657800  1
  Pr  Pr2  1  0.75055400  0.00149600  0.62443400  1
  Pr  Pr3  1  0.74937300  0.50145700  0.62657800  1
  Pr  Pr4  1  0.99850400  0.75055400  0.37443400  1
  Pr  Pr5  1  0.49854300  0.74937300  0.37657800  1
  Pr  Pr6  1  0.24944600  0.99850400  0.12443400  1
  Pr  Pr7  1  0.25062700  0.49854300  0.12657800  1
  Hf  Hf0  1  0.99476900  0.76199000  0.87610500  1
  Hf  Hf1  1  0.49753100  0.73911900  0.87604400  1
  Hf  Hf2  1  0.23801000  0.99476900  0.62610500  1
  Hf  Hf3  1  0.26088100  0.49753100  0.62604400  1
  Hf  Hf4  1  0.00523100  0.23801000  0.37610500  1
  Hf  Hf5  1  0.50246900  0.26088100  0.37604400  1
  Hf  Hf6  1  0.76199000  0.00523100  0.12610500  1
  Hf  Hf7  1  0.73911900  0.50246900  0.12604400  1
  O  O0  1  0.24499800  0.75530300  0.96849800  1
  O  O1  1  0.51892000  0.52676000  0.99898000  1
  O  O2  1  0.96865300  0.52995400  0.99878700  1
  O  O3  1  0.25196800  0.24933900  0.00050500  1
  O  O4  1  0.77600700  0.72688500  0.00797400  1
  O  O5  1  0.97383000  0.98427900  0.00023000  1
  O  O6  1  0.54978200  0.95055300  0.99999900  1
  O  O7  1  0.04944700  0.54978200  0.74999900  1
  O  O8  1  0.01572100  0.97383000  0.75023000  1
  O  O9  1  0.27311500  0.77600700  0.75797400  1
  O  O10  1  0.74547200  0.74371500  0.78621100  1
  O  O11  1  0.47004600  0.96865300  0.74878700  1
  O  O12  1  0.75066100  0.25196800  0.75050500  1
  O  O13  1  0.24469700  0.24499800  0.71849800  1
  O  O14  1  0.47324000  0.51892000  0.74898000  1
  O  O15  1  0.25628500  0.74547200  0.53621100  1
  O  O16  1  0.74803200  0.75066100  0.50050500  1
  O  O17  1  0.22399300  0.27311500  0.50797400  1
  O  O18  1  0.48108000  0.47324000  0.49898000  1
  O  O19  1  0.45021800  0.04944700  0.49999900  1
  O  O20  1  0.03134700  0.47004600  0.49878700  1
  O  O21  1  0.02617000  0.01572100  0.50023000  1
  O  O22  1  0.75500200  0.24469700  0.46849800  1
  O  O23  1  0.95055300  0.45021800  0.24999900  1
  O  O24  1  0.98427900  0.02617000  0.25023000  1
  O  O25  1  0.72688500  0.22399300  0.25797400  1
  O  O26  1  0.25452800  0.25628500  0.28621100  1
  O  O27  1  0.52995400  0.03134700  0.24878700  1
  O  O28  1  0.24933900  0.74803200  0.25050500  1
  O  O29  1  0.75530300  0.75500200  0.21849800  1
  O  O30  1  0.52676000  0.48108000  0.24898000  1
  O  O31  1  0.74371500  0.25452800  0.03621100  1
loop_
_geom_bond_atom_site_label_1
_geom_bond_atom_site_label_2
_geom_bond_distance
_geom_bond_site_symmetry_2
Hf0 O8 2.121315 1_655
Hf0 O10 2.148851 1_555
Hf0 O7 2.160176 1_655
Hf0 O0 2.163443 1_655
Hf0 O5 2.171887 1_556
Hf0 O4 2.213760 1_556
Hf0 O2 2.225224 1_555
Hf0 O9 2.488148 1_655
Hf1 O1 2.104695 1_555
Hf1 O10 2.134964 1_555
Hf1 O6 2.137683 1_555
Hf1 O9 2.158346 1_555
Hf1 O14 2.180963 1_555
Hf1 O0 2.182414 1_555
Hf1 O11 2.240461 1_555
Hf1 O4 2.567146 1_556
Hf2 O21 2.121315 1_565
Hf2 O15 2.148851 1_555
Hf2 O19 2.160176 1_565
Hf2 O13 2.163443 1_565
Hf2 O8 2.171887 1_555
Hf2 O9 2.213760 1_555
Hf2 O11 2.225224 1_555
Hf2 O17 2.488148 1_565
Hf3 O14 2.104695 1_555
Hf3 O15 2.134964 1_555
Hf3 O7 2.137683 1_555
Hf3 O17 2.158346 1_555
Hf3 O18 2.180963 1_555
Hf3 O13 2.182414 1_555
Hf3 O20 2.240461 1_555
Hf3 O9 2.567146 1_555
Hf4 O24 2.121315 1_455
Hf4 O26 2.148851 1_555
Hf4 O23 2.160176 1_455
Hf4 O22 2.163443 1_455
Hf4 O21 2.171887 1_555
Hf4 O17 2.213760 1_555
Hf4 O20 2.225224 1_555
Hf4 O25 2.488148 1_455
Hf5 O18 2.104695 1_555
Hf5 O26 2.134964 1_555
Hf5 O19 2.137683 1_555
Hf5 O25 2.158346 1_555
Hf5 O30 2.180963 1_555
Hf5 O22 2.182414 1_555
Hf5 O27 2.240461 1_555
Hf5 O17 2.567146 1_555
Hf6 O5 2.121315 1_545
Hf6 O31 2.148851 1_555
Hf6 O6 2.160176 1_544
Hf6 O29 2.163443 1_545
Hf6 O24 2.171887 1_555
Hf6 O25 2.213760 1_555
Hf6 O27 2.225224 1_555
Hf6 O4 2.488148 1_545
Hf7 O30 2.104695 1_555
Hf7 O31 2.134964 1_555
Hf7 O23 2.137683 1_555
Hf7 O4 2.158346 1_555
Hf7 O1 2.180963 1_554
Hf7 O29 2.182414 1_555
Hf7 O2 2.240461 1_554
Hf7 O25 2.567146 1_555
O0 Pr6 2.508749 1_556
O0 Pr7 2.602313 1_556
O1 Pr7 2.484011 1_556
O1 Pr1 2.498669 1_555
O2 Pr0 2.547185 1_655
O2 Pr7 2.575134 1_656
O3 Pr1 2.332946 1_554
O3 Pr6 2.341516 1_545
O3 Pr7 2.344380 1_555
O3 Pr0 2.352303 1_554
O5 Pr0 2.453055 1_664
O5 Pr6 2.504337 1_655
O6 Pr1 2.684353 1_565
O6 Pr6 2.691075 1_556
O7 Pr3 2.684353 1_455
O7 Pr0 2.691075 1_555
O8 Pr2 2.453055 1_465
O8 Pr0 2.504337 1_565
O10 Pr3 2.530032 1_555
O10 Pr2 2.634202 1_565
O11 Pr2 2.547185 1_565
O11 Pr1 2.575134 1_565
O12 Pr3 2.332946 1_555
O12 Pr0 2.341516 1_655
O12 Pr1 2.344380 1_555
O12 Pr2 2.352303 1_555
O13 Pr0 2.508749 1_555
O13 Pr1 2.602313 1_555
O14 Pr1 2.484011 1_555
O14 Pr3 2.498669 1_555
O15 Pr5 2.530032 1_555
O15 Pr4 2.634202 1_455
O16 Pr5 2.332946 1_555
O16 Pr2 2.341516 1_565
O16 Pr3 2.344380 1_555
O16 Pr4 2.352303 1_555
O18 Pr3 2.484011 1_555
O18 Pr5 2.498669 1_555
O19 Pr5 2.684353 1_545
O19 Pr2 2.691075 1_555
O20 Pr4 2.547185 1_455
O20 Pr3 2.575134 1_455
O21 Pr4 2.453055 1_445
O21 Pr2 2.504337 1_455
O22 Pr2 2.508749 1_555
O22 Pr3 2.602313 1_555
O23 Pr7 2.684353 1_655
O23 Pr4 2.691075 1_555
O24 Pr6 2.453055 1_645
O24 Pr4 2.504337 1_545
O26 Pr7 2.530032 1_555
O26 Pr6 2.634202 1_545
O27 Pr6 2.547185 1_545
O27 Pr5 2.575134 1_545
O28 Pr7 2.332946 1_555
O28 Pr4 2.341516 1_455
O28 Pr5 2.344380 1_555
O28 Pr6 2.352303 1_555
O29 Pr4 2.508749 1_555
O29 Pr5 2.602313 1_555
O30 Pr5 2.484011 1_555
O30 Pr7 2.498669 1_555
O31 Pr1 2.530032 1_554
O31 Pr0 2.634202 1_654
