# generated using pymatgen
data_Li4VO4F
_symmetry_space_group_name_H-M   'P 1'
_cell_length_a   5.26241382
_cell_length_b   5.26241382
_cell_length_c   8.97108842
_cell_angle_alpha   89.59601051
_cell_angle_beta   89.59601051
_cell_angle_gamma   109.85544632
_symmetry_Int_Tables_number   1
_chemical_formula_structural   Li4VO4F
_chemical_formula_sum   'Li8 V2 O8 F2'
_cell_volume   233.64983899
_cell_formula_units_Z   2
loop_
 _symmetry_equiv_pos_site_id
 _symmetry_equiv_pos_as_xyz
  1  'x, y, z'
loop_
 _atom_site_type_symbol
 _atom_site_label
 _atom_site_symmetry_multiplicity
 _atom_site_fract_x
 _atom_site_fract_y
 _atom_site_fract_z
 _atom_site_occupancy
  Li  Li0  1  0.12385400  0.36241900  0.57830900  1
  Li  Li1  1  0.88677900  0.25458000  0.25147600  1
  Li  Li2  1  0.15554600  0.53196400  0.95819600  1
  Li  Li3  1  0.53196400  0.15554600  0.45819600  1
  Li  Li4  1  0.36241900  0.12385400  0.07830900  1
  Li  Li5  1  0.74162400  0.94322600  0.96452700  1
  Li  Li6  1  0.25458000  0.88677900  0.75147600  1
  Li  Li7  1  0.94322600  0.74162400  0.46452700  1
  V  V0  1  0.64147000  0.46131200  0.77232500  1
  V  V1  1  0.46131200  0.64147000  0.27232500  1
  O  O0  1  0.70061400  0.90124200  0.36817400  1
  O  O1  1  0.41584600  0.76610800  0.09771100  1
  O  O2  1  0.35800800  0.56011100  0.75384700  1
  O  O3  1  0.15720700  0.53685500  0.37160700  1
  O  O4  1  0.76610800  0.41584600  0.59771100  1
  O  O5  1  0.56011100  0.35800800  0.25384700  1
  O  O6  1  0.90124200  0.70061400  0.86817400  1
  O  O7  1  0.53685500  0.15720700  0.87160700  1
  F  F0  1  0.03034500  0.19774100  0.06554700  1
  F  F1  1  0.19774100  0.03034500  0.56554700  1
loop_
_geom_bond_atom_site_label_1
_geom_bond_atom_site_label_2
_geom_bond_distance
_geom_bond_site_symmetry_2
Li0 O4 2.002293 1_455
Li0 O3 2.043035 1_555
Li0 O2 2.064028 1_555
Li1 O5 1.971574 1_555
Li1 O3 2.000359 1_655
Li1 O0 2.057634 1_545
Li2 O1 1.964813 1_556
Li2 O6 2.010656 1_455
Li2 O2 2.092670 1_555
Li3 O4 1.964813 1_555
Li3 O0 2.010656 1_545
Li3 O5 2.092670 1_555
Li4 O1 2.002293 1_545
Li4 O7 2.043035 1_554
Li4 O5 2.064028 1_555
Li5 O6 1.953605 1_555
Li5 O7 1.986896 1_565
Li5 O1 2.026168 1_556
Li6 O2 1.971574 1_555
Li6 O7 2.000359 1_565
Li6 O6 2.057634 1_455
Li7 O0 1.953605 1_555
Li7 O3 1.986896 1_655
Li7 O4 2.026168 1_555
O0 V1 1.748264 1_555
O1 V1 1.743186 1_555
O2 V0 1.747014 1_555
O3 V1 1.741242 1_555
O4 V0 1.743186 1_555
O5 V1 1.747014 1_555
O6 V0 1.748264 1_555
O7 V0 1.741242 1_555
F0 Li5 1.891523 1_444
F0 Li1 1.893462 1_455
F0 Li2 1.906569 1_554
F0 Li4 1.918813 1_555
F1 Li7 1.891523 1_445
F1 Li6 1.893462 1_545
F1 Li3 1.906569 1_555
F1 Li0 1.918813 1_555
