# generated using pymatgen
data_LiV(OF)2
_symmetry_space_group_name_H-M   'P 1'
_cell_length_a   5.08605000
_cell_length_b   6.71041000
_cell_length_c   8.46496400
_cell_angle_alpha   90.00000000
_cell_angle_beta   90.00000000
_cell_angle_gamma   90.00000000
_symmetry_Int_Tables_number   1
_chemical_formula_structural   LiV(OF)2
_chemical_formula_sum   'Li4 V4 O8 F8'
_cell_volume   288.90482615
_cell_formula_units_Z   4
loop_
 _symmetry_equiv_pos_site_id
 _symmetry_equiv_pos_as_xyz
  1  'x, y, z'
loop_
 _atom_site_type_symbol
 _atom_site_label
 _atom_site_symmetry_multiplicity
 _atom_site_fract_x
 _atom_site_fract_y
 _atom_site_fract_z
 _atom_site_occupancy
  Li  Li0  1  0.02873300  0.24699100  0.72686900  1
  Li  Li1  1  0.02873300  0.25300900  0.22686900  1
  Li  Li2  1  0.97126700  0.74699100  0.72686900  1
  Li  Li3  1  0.97126700  0.75300900  0.22686900  1
  V  V0  1  0.54588400  0.98966500  0.02165800  1
  V  V1  1  0.54588400  0.51033500  0.52165800  1
  V  V2  1  0.45411600  0.48966500  0.02165800  1
  V  V3  1  0.45411600  0.01033500  0.52165800  1
  O  O0  1  0.31577100  0.03651500  0.69628400  1
  O  O1  1  0.60829000  0.24613000  0.96856300  1
  O  O2  1  0.60829000  0.25387000  0.46856300  1
  O  O3  1  0.31577100  0.46348500  0.19628400  1
  O  O4  1  0.68422900  0.53651500  0.69628400  1
  O  O5  1  0.39171000  0.74613000  0.96856300  1
  O  O6  1  0.39171000  0.75387000  0.46856300  1
  O  O7  1  0.68422900  0.96348500  0.19628400  1
  F  F0  1  0.17884200  0.08528800  0.38844400  1
  F  F1  1  0.20315800  0.06340000  0.08002200  1
  F  F2  1  0.20315800  0.43660000  0.58002200  1
  F  F3  1  0.17884200  0.41471200  0.88844400  1
  F  F4  1  0.82115800  0.58528800  0.38844400  1
  F  F5  1  0.79684200  0.56340000  0.08002200  1
  F  F6  1  0.79684200  0.93660000  0.58002200  1
  F  F7  1  0.82115800  0.91471200  0.88844400  1
loop_
_geom_bond_atom_site_label_1
_geom_bond_atom_site_label_2
_geom_bond_distance
_geom_bond_site_symmetry_2
Li0 O0 2.047712 1_555
Li1 O3 2.047712 1_555
Li2 O4 2.047712 1_555
Li3 O7 2.047712 1_555
O0 V3 1.646524 1_555
O1 V0 1.806803 1_546
O1 V2 1.867498 1_556
O2 V1 1.806803 1_555
O2 V3 1.867498 1_555
O3 V2 1.646524 1_555
O4 V1 1.646524 1_555
O5 V2 1.806803 1_556
O5 V0 1.867498 1_556
O6 V3 1.806803 1_565
O6 V1 1.867498 1_555
O7 V0 1.646524 1_555
F0 V3 1.866744 1_555
F0 Li1 1.928794 1_555
F1 V0 1.878131 1_545
F1 Li1 1.987732 1_555
F2 V1 1.878131 1_555
F2 Li0 1.987732 1_555
F3 V2 1.866744 1_556
F3 Li0 1.928794 1_555
F4 V1 1.866744 1_555
F4 Li3 1.928794 1_555
F5 V2 1.878131 1_555
F5 Li3 1.987732 1_555
F6 V3 1.878131 1_565
F6 Li2 1.987732 1_555
F7 V0 1.866744 1_556
F7 Li2 1.928794 1_555
