# generated using pymatgen
data_Mg7Cu17O24
_symmetry_space_group_name_H-M   'P 1'
_cell_length_a   8.08846102
_cell_length_b   9.42752606
_cell_length_c   6.47254106
_cell_angle_alpha   90.01265712
_cell_angle_beta   90.00814681
_cell_angle_gamma   90.00055538
_symmetry_Int_Tables_number   1
_chemical_formula_structural   Mg7Cu17O24
_chemical_formula_sum   'Mg7 Cu17 O24'
_cell_volume   493.55827450
_cell_formula_units_Z   1
loop_
 _symmetry_equiv_pos_site_id
 _symmetry_equiv_pos_as_xyz
  1  'x, y, z'
loop_
 _atom_site_type_symbol
 _atom_site_label
 _atom_site_symmetry_multiplicity
 _atom_site_fract_x
 _atom_site_fract_y
 _atom_site_fract_z
 _atom_site_occupancy
  Mg  Mg0  1  0.12582800  0.25002000  0.18484500  1
  Mg  Mg1  1  0.12462500  0.24999900  0.68473700  1
  Mg  Mg2  1  0.37494600  0.74998000  0.31512500  1
  Mg  Mg3  1  0.37496900  0.75000200  0.81442800  1
  Mg  Mg4  1  0.62417600  0.24999800  0.18485800  1
  Mg  Mg5  1  0.62536900  0.24998900  0.68467900  1
  Mg  Mg6  1  0.87508400  0.75000100  0.31740500  1
  Cu  Cu0  1  0.12462400  0.58515000  0.08565900  1
  Cu  Cu1  1  0.12372700  0.58514300  0.58473300  1
  Cu  Cu2  1  0.12461700  0.91483100  0.08565600  1
  Cu  Cu3  1  0.12377000  0.91486500  0.58470900  1
  Cu  Cu4  1  0.37502600  0.08514600  0.41602800  1
  Cu  Cu5  1  0.37505900  0.08541000  0.91559900  1
  Cu  Cu6  1  0.37505600  0.41484100  0.41604300  1
  Cu  Cu7  1  0.37501300  0.41460900  0.91560000  1
  Cu  Cu8  1  0.62523500  0.58522000  0.08558800  1
  Cu  Cu9  1  0.62626800  0.58520000  0.58470900  1
  Cu  Cu10  1  0.62524300  0.91479200  0.08566000  1
  Cu  Cu11  1  0.62622600  0.91479000  0.58457500  1
  Cu  Cu12  1  0.87503300  0.08568400  0.40727400  1
  Cu  Cu13  1  0.87508400  0.08621900  0.91510100  1
  Cu  Cu14  1  0.87501600  0.41431700  0.40726800  1
  Cu  Cu15  1  0.87511100  0.41374000  0.91518400  1
  Cu  Cu16  1  0.87486400  0.74995600  0.82230500  1
  O  O0  1  0.12510400  0.09626300  0.93984200  1
  O  O1  1  0.12496800  0.40365800  0.93979700  1
  O  O2  1  0.12391000  0.09626700  0.44007100  1
  O  O3  1  0.12398300  0.40368600  0.44006600  1
  O  O4  1  0.12493000  0.75008200  0.26047900  1
  O  O5  1  0.11936900  0.75004000  0.75756200  1
  O  O6  1  0.37499800  0.24998300  0.23855700  1
  O  O7  1  0.37502100  0.24996900  0.73916900  1
  O  O8  1  0.37553500  0.59773200  0.05839800  1
  O  O9  1  0.37502400  0.59775400  0.56292200  1
  O  O10  1  0.37506300  0.90229500  0.05836900  1
  O  O11  1  0.37522100  0.90227500  0.56293700  1
  O  O12  1  0.62491900  0.09630400  0.93984800  1
  O  O13  1  0.62608500  0.09627700  0.44001100  1
  O  O14  1  0.62601400  0.40358500  0.44001100  1
  O  O15  1  0.62504600  0.40387000  0.93992800  1
  O  O16  1  0.62509600  0.74986300  0.26008300  1
  O  O17  1  0.63063100  0.75014100  0.75751100  1
  O  O18  1  0.87500100  0.24996400  0.23351800  1
  O  O19  1  0.87499000  0.25000700  0.73877900  1
  O  O20  1  0.87443100  0.59047000  0.07140600  1
  O  O21  1  0.87498300  0.59145000  0.55577200  1
  O  O22  1  0.87490800  0.90951800  0.07138200  1
  O  O23  1  0.87480300  0.90864300  0.55581400  1
loop_
_geom_bond_atom_site_label_1
_geom_bond_atom_site_label_2
_geom_bond_distance
_geom_bond_site_symmetry_2
Mg0 O6 2.045118 1_555
Mg0 O18 2.053163 1_455
Mg0 O1 2.148176 1_554
Mg0 O0 2.148242 1_554
Mg0 O3 2.196985 1_555
Mg0 O2 2.198036 1_555
Mg1 O19 2.049286 1_455
Mg1 O7 2.055684 1_555
Mg1 O2 2.146473 1_555
Mg1 O3 2.146681 1_555
Mg1 O1 2.196107 1_555
Mg1 O0 2.197288 1_555
Mg2 O4 2.052894 1_555
Mg2 O16 2.054504 1_555
Mg2 O9 2.152438 1_555
Mg2 O11 2.152473 1_555
Mg2 O8 2.195515 1_555
Mg2 O10 2.196545 1_555
Mg3 O5 2.099868 1_555
Mg3 O17 2.100523 1_555
Mg3 O10 2.133858 1_556
Mg3 O8 2.134324 1_556
Mg3 O9 2.170051 1_555
Mg3 O11 2.170611 1_555
Mg4 O6 2.045265 1_555
Mg4 O18 2.053046 1_555
Mg4 O12 2.147876 1_554
Mg4 O15 2.149102 1_554
Mg4 O14 2.196160 1_555
Mg4 O13 2.197478 1_555
Mg5 O19 2.049140 1_555
Mg5 O7 2.055464 1_555
Mg5 O14 2.146089 1_555
Mg5 O13 2.146357 1_555
Mg5 O12 2.197282 1_555
Mg5 O15 2.198408 1_555
Mg6 O4 2.054236 1_655
Mg6 O16 2.055724 1_555
Mg6 O21 2.148403 1_555
Mg6 O23 2.148722 1_555
Mg6 O20 2.190013 1_555
Mg6 O22 2.190512 1_555
Cu0 O4 1.922837 1_555
Cu0 O1 1.954023 1_554
Cu0 O20 2.026387 1_455
Cu0 O8 2.040616 1_555
Cu1 O5 1.915343 1_555
Cu1 O3 1.950009 1_555
Cu1 O21 2.021519 1_455
Cu1 O9 2.040989 1_555
Cu2 O4 1.921858 1_555
Cu2 O0 1.953745 1_564
Cu2 O22 2.022480 1_455
Cu2 O10 2.036863 1_555
Cu3 O5 1.915290 1_555
Cu3 O2 1.949826 1_565
Cu3 O23 2.023248 1_455
Cu3 O11 2.042199 1_555
Cu4 O6 1.932668 1_555
Cu4 O11 1.969045 1_545
Cu4 O13 2.039282 1_555
Cu4 O2 2.039812 1_555
Cu5 O7 1.926558 1_555
Cu5 O10 1.958270 1_546
Cu5 O12 2.029643 1_555
Cu5 O0 2.030432 1_555
Cu6 O6 1.932477 1_555
Cu6 O9 1.968929 1_555
Cu6 O14 2.038528 1_555
Cu6 O3 2.039474 1_555
Cu7 O7 1.926771 1_555
Cu7 O8 1.958067 1_556
Cu7 O15 2.031008 1_555
Cu7 O1 2.031183 1_555
Cu8 O16 1.919396 1_555
Cu8 O15 1.952218 1_554
Cu8 O20 2.018321 1_555
Cu8 O8 2.030749 1_555
Cu9 O17 1.915572 1_555
Cu9 O14 1.951412 1_555
Cu9 O21 2.021308 1_555
Cu9 O9 2.040482 1_555
Cu10 O16 1.921707 1_555
Cu10 O12 1.954397 1_564
Cu10 O22 2.022144 1_555
Cu10 O10 2.034652 1_555
Cu11 O17 1.914253 1_555
Cu11 O13 1.950299 1_565
Cu11 O23 2.020062 1_555
Cu11 O11 2.038464 1_555
Cu12 O18 1.914218 1_555
Cu12 O23 1.926349 1_545
Cu12 O2 2.026618 1_655
Cu12 O13 2.027214 1_555
Cu13 O19 1.920293 1_555
Cu13 O22 1.949107 1_546
Cu13 O0 2.030791 1_655
Cu13 O12 2.032027 1_555
Cu13 O18 2.574728 1_556
Cu14 O18 1.914350 1_555
Cu14 O21 1.926615 1_555
Cu14 O3 2.027370 1_655
Cu14 O14 2.027720 1_555
Cu15 O19 1.919790 1_555
Cu15 O20 1.948768 1_556
Cu15 O1 2.029435 1_655
Cu15 O15 2.031128 1_555
Cu15 O18 2.575019 1_556
Cu16 O17 2.019437 1_555
Cu16 O5 2.021637 1_655
Cu16 O22 2.204730 1_556
Cu16 O20 2.204844 1_556
Cu16 O21 2.282100 1_555
Cu16 O23 2.283511 1_555
