# generated using pymatgen
data_Ca7Si6H4CO23
_symmetry_space_group_name_H-M   'P 1'
_cell_length_a   9.47227711
_cell_length_b   9.47227711
_cell_length_c   6.69318619
_cell_angle_alpha   75.43674315
_cell_angle_beta   75.43674315
_cell_angle_gamma   108.17625913
_symmetry_Int_Tables_number   1
_chemical_formula_structural   Ca7Si6H4CO23
_chemical_formula_sum   'Ca7 Si6 H4 C1 O23'
_cell_volume   515.48340544
_cell_formula_units_Z   1
loop_
 _symmetry_equiv_pos_site_id
 _symmetry_equiv_pos_as_xyz
  1  'x, y, z'
loop_
 _atom_site_type_symbol
 _atom_site_label
 _atom_site_symmetry_multiplicity
 _atom_site_fract_x
 _atom_site_fract_y
 _atom_site_fract_z
 _atom_site_occupancy
  Ca  Ca0  1  0.99803500  0.99803500  0.54005200  1
  Ca  Ca1  1  0.32701300  0.05710700  0.99931400  1
  Ca  Ca2  1  0.05710700  0.32701300  0.99931400  1
  Ca  Ca3  1  0.23908600  0.73927600  0.51422500  1
  Ca  Ca4  1  0.73927600  0.23908600  0.51422500  1
  Ca  Ca5  1  0.91735500  0.62503500  0.02587300  1
  Ca  Ca6  1  0.62503500  0.91735500  0.02587300  1
  Si  Si0  1  0.82005400  0.61195100  0.57883200  1
  Si  Si1  1  0.61195100  0.82005400  0.57883200  1
  Si  Si2  1  0.66309500  0.30989800  0.01610200  1
  Si  Si3  1  0.30989800  0.66309500  0.01610200  1
  Si  Si4  1  0.37009100  0.16025800  0.44392000  1
  Si  Si5  1  0.16025800  0.37009100  0.44392000  1
  H  H0  1  0.33565300  0.33565300  0.70688700  1
  H  H1  1  0.42889600  0.42889600  0.83487500  1
  H  H2  1  0.66102800  0.66102800  0.29643300  1
  H  H3  1  0.57241400  0.57241400  0.15819800  1
  C  C0  1  0.00080600  0.00080600  0.00137600  1
  O  O0  1  0.96905300  0.72740300  0.62027400  1
  O  O1  1  0.72740300  0.96905300  0.62027400  1
  O  O2  1  0.71737600  0.71737600  0.49752000  1
  O  O3  1  0.69911600  0.48011000  0.82725700  1
  O  O4  1  0.48011000  0.69911600  0.82725700  1
  O  O5  1  0.85097200  0.52504900  0.40452800  1
  O  O6  1  0.52504900  0.85097200  0.40452800  1
  O  O7  1  0.80813900  0.33593600  0.11088400  1
  O  O8  1  0.33593600  0.80813900  0.11088400  1
  O  O9  1  0.62034700  0.16608300  0.92210900  1
  O  O10  1  0.16608300  0.62034700  0.92210900  1
  O  O11  1  0.50336500  0.29499200  0.20547300  1
  O  O12  1  0.29499200  0.50336500  0.20547300  1
  O  O13  1  0.45366500  0.12844400  0.62190200  1
  O  O14  1  0.12844400  0.45366500  0.62190200  1
  O  O15  1  0.26390000  0.01077700  0.39442800  1
  O  O16  1  0.01077700  0.26390000  0.39442800  1
  O  O17  1  0.24654700  0.24654700  0.53208200  1
  O  O18  1  0.05064300  0.90397200  0.92901300  1
  O  O19  1  0.90397200  0.05064300  0.92901300  1
  O  O20  1  0.05799100  0.05799100  0.13566700  1
  O  O21  1  0.33635300  0.33635300  0.85467600  1
  O  O22  1  0.66411400  0.66411400  0.14416400  1
loop_
_geom_bond_atom_site_label_1
_geom_bond_atom_site_label_2
_geom_bond_distance
_geom_bond_site_symmetry_2
Ca0 O1 2.393703 1_555
Ca0 O0 2.393703 1_555
Ca0 O16 2.413183 1_665
Ca0 O15 2.413183 1_665
Ca0 O20 2.494715 1_665
Ca0 O17 2.738956 1_665
Ca0 O18 2.753673 1_655
Ca0 O19 2.753673 1_565
Ca1 O13 2.321371 1_555
Ca1 O8 2.323101 1_546
Ca1 O15 2.449763 1_556
Ca1 O20 2.484786 1_556
Ca1 O9 2.504627 1_555
Ca1 O21 2.542581 1_555
Ca1 O18 2.787878 1_545
Ca2 O14 2.321371 1_555
Ca2 O7 2.323101 1_456
Ca2 O16 2.449763 1_556
Ca2 O20 2.484786 1_556
Ca2 O10 2.504627 1_555
Ca2 O21 2.542581 1_555
Ca2 O19 2.787878 1_455
Ca3 O15 2.408955 1_565
Ca3 O14 2.409896 1_555
Ca3 O6 2.411816 1_555
Ca3 O0 2.434399 1_455
Ca3 O8 2.459823 1_555
Ca3 O10 2.493661 1_555
Ca4 O16 2.408955 1_655
Ca4 O13 2.409896 1_555
Ca4 O5 2.411816 1_555
Ca4 O1 2.434399 1_545
Ca4 O7 2.459823 1_555
Ca4 O9 2.493661 1_555
Ca5 O10 2.300663 1_654
Ca5 O5 2.309872 1_555
Ca5 O18 2.375107 1_654
Ca5 O7 2.458845 1_555
Ca5 O0 2.502257 1_554
Ca5 O22 2.502844 1_555
Ca6 O9 2.300663 1_564
Ca6 O6 2.309872 1_555
Ca6 O19 2.375107 1_564
Ca6 O8 2.458845 1_555
Ca6 O1 2.502257 1_554
Ca6 O22 2.502844 1_555
H0 O21 0.992539 1_555
H1 O21 0.978849 1_555
H2 O22 1.004942 1_555
H2 O2 1.710570 1_555
H3 O22 0.982351 1_555
C0 O18 1.295119 1_544
C0 O19 1.295119 1_454
C0 O20 1.304363 1_555
O0 Si0 1.628285 1_555
O1 Si1 1.628285 1_555
O2 Si1 1.684692 1_555
O2 Si0 1.684692 1_555
O3 Si2 1.651847 1_556
O3 Si0 1.655878 1_555
O4 Si3 1.651847 1_556
O4 Si1 1.655878 1_555
O5 Si0 1.608092 1_555
O6 Si1 1.608092 1_555
O7 Si2 1.629871 1_555
O8 Si3 1.629871 1_555
O9 Si2 1.621864 1_556
O10 Si3 1.621864 1_556
O11 Si4 1.651327 1_555
O11 Si2 1.651657 1_555
O12 Si5 1.651327 1_555
O12 Si3 1.651657 1_555
O13 Si4 1.605980 1_555
O14 Si5 1.605980 1_555
O15 Si4 1.625190 1_555
O16 Si5 1.625190 1_555
O17 Si4 1.696396 1_555
O17 Si5 1.696396 1_555
