# generated using pymatgen
data_Li4Cr2Fe3Sn3O16
_symmetry_space_group_name_H-M   'P 1'
_cell_length_a   6.12183844
_cell_length_b   6.12183844
_cell_length_c   9.66941757
_cell_angle_alpha   89.77475537
_cell_angle_beta   89.77475537
_cell_angle_gamma   59.94789008
_symmetry_Int_Tables_number   1
_chemical_formula_structural   Li4Cr2Fe3Sn3O16
_chemical_formula_sum   'Li4 Cr2 Fe3 Sn3 O16'
_cell_volume   313.66200826
_cell_formula_units_Z   1
loop_
 _symmetry_equiv_pos_site_id
 _symmetry_equiv_pos_as_xyz
  1  'x, y, z'
loop_
 _atom_site_type_symbol
 _atom_site_label
 _atom_site_symmetry_multiplicity
 _atom_site_fract_x
 _atom_site_fract_y
 _atom_site_fract_z
 _atom_site_occupancy
  Li  Li0  1  0.66938700  0.66938700  0.88814500  1
  Li  Li1  1  0.98864600  0.98864600  0.99131600  1
  Li  Li2  1  0.99103400  0.99103400  0.50019700  1
  Li  Li3  1  0.33428100  0.33428100  0.39545000  1
  Cr  Cr0  1  0.66910600  0.66910600  0.48970900  1
  Cr  Cr1  1  0.33827200  0.33827200  0.98246000  1
  Fe  Fe0  1  0.83124000  0.83124000  0.21526900  1
  Fe  Fe1  1  0.65960600  0.17054000  0.71442600  1
  Fe  Fe2  1  0.17054000  0.65960600  0.71442600  1
  Sn  Sn0  1  0.83163100  0.33913900  0.21293100  1
  Sn  Sn1  1  0.33913900  0.83163100  0.21293100  1
  Sn  Sn2  1  0.17093100  0.17093100  0.71252700  1
  O  O0  1  0.83393200  0.33020500  0.59685100  1
  O  O1  1  0.51982500  0.51982500  0.34756300  1
  O  O2  1  0.67187200  0.67187200  0.09768900  1
  O  O3  1  0.99674900  0.99674900  0.31507600  1
  O  O4  1  0.99493900  0.99493900  0.80596600  1
  O  O5  1  0.33020500  0.83393200  0.59685100  1
  O  O6  1  0.95865900  0.52391500  0.34567600  1
  O  O7  1  0.52391500  0.95865900  0.34567600  1
  O  O8  1  0.16328200  0.16328200  0.09400800  1
  O  O9  1  0.83223800  0.83223800  0.60259700  1
  O  O10  1  0.48407500  0.04267500  0.84433600  1
  O  O11  1  0.04267500  0.48407500  0.84433600  1
  O  O12  1  0.34056900  0.34056900  0.60194800  1
  O  O13  1  0.67140100  0.16319400  0.09933500  1
  O  O14  1  0.47985000  0.47985000  0.84081100  1
  O  O15  1  0.16319400  0.67140100  0.09933500  1
loop_
_geom_bond_atom_site_label_1
_geom_bond_atom_site_label_2
_geom_bond_distance
_geom_bond_site_symmetry_2
Li0 O11 2.021937 1_655
Li0 O10 2.021937 1_565
Li0 O2 2.026459 1_556
Li0 O14 2.063721 1_555
Li1 O4 1.793166 1_555
Li1 O15 1.979617 1_656
Li1 O13 1.979617 1_566
Li1 O8 2.105557 1_666
Li2 O3 1.790763 1_555
Li2 O9 1.949825 1_555
Li2 O5 2.029227 1_655
Li2 O0 2.029227 1_565
Li3 O12 1.998131 1_555
Li3 O1 2.019597 1_555
Li3 O6 2.048812 1_455
Li3 O7 2.048812 1_545
Cr0 O9 2.049934 1_555
Cr0 O7 2.069801 1_555
Cr0 O6 2.069801 1_555
Cr0 O5 2.071328 1_555
Cr0 O0 2.071328 1_555
Cr0 O1 2.101364 1_555
Cr1 O14 2.027829 1_555
Cr1 O10 2.060822 1_555
Cr1 O11 2.060822 1_555
Cr1 O15 2.098636 1_556
Cr1 O13 2.098636 1_556
Cr1 O8 2.142387 1_556
Fe0 O3 2.007039 1_555
Fe0 O2 2.041344 1_555
Fe0 O6 2.063331 1_555
Fe0 O7 2.063331 1_555
Fe0 O15 2.083974 1_655
Fe0 O13 2.083974 1_565
Fe1 O4 1.987415 1_545
Fe1 O12 2.013091 1_555
Fe1 O10 2.041930 1_555
Fe1 O14 2.051961 1_555
Fe1 O9 2.095653 1_545
Fe1 O0 2.100784 1_555
Fe2 O4 1.987415 1_455
Fe2 O12 2.013091 1_555
Fe2 O11 2.041930 1_555
Fe2 O14 2.051961 1_555
Fe2 O9 2.095653 1_455
Fe2 O5 2.100784 1_555
O0 Sn2 2.110170 1_655
O1 Sn0 2.106871 1_555
O1 Sn1 2.106871 1_555
O2 Sn1 2.083932 1_555
O2 Sn0 2.083932 1_555
O3 Sn1 2.064031 1_655
O3 Sn0 2.064031 1_565
O4 Sn2 2.070066 1_665
O5 Sn2 2.110170 1_565
O6 Sn0 2.105259 1_555
O7 Sn1 2.105259 1_555
O8 Sn1 2.098963 1_545
O8 Sn0 2.098963 1_455
O10 Sn2 2.102291 1_555
O11 Sn2 2.102291 1_555
O12 Sn2 2.088761 1_555
O13 Sn0 2.098762 1_555
O15 Sn1 2.098762 1_555
