# generated using pymatgen
data_Li2MnFe(BO3)2
_symmetry_space_group_name_H-M   'P 1'
_cell_length_a   5.16619920
_cell_length_b   6.17719308
_cell_length_c   8.05039653
_cell_angle_alpha   78.83018712
_cell_angle_beta   88.65899453
_cell_angle_gamma   87.76263573
_symmetry_Int_Tables_number   1
_chemical_formula_structural   Li2MnFe(BO3)2
_chemical_formula_sum   'Li4 Mn2 Fe2 B4 O12'
_cell_volume   251.81760507
_cell_formula_units_Z   2
loop_
 _symmetry_equiv_pos_site_id
 _symmetry_equiv_pos_as_xyz
  1  'x, y, z'
loop_
 _atom_site_type_symbol
 _atom_site_label
 _atom_site_symmetry_multiplicity
 _atom_site_fract_x
 _atom_site_fract_y
 _atom_site_fract_z
 _atom_site_occupancy
  Li  Li0  1  0.91667800  0.52451600  0.14818200  1
  Li  Li1  1  0.08347600  0.47524400  0.85171500  1
  Li  Li2  1  0.41711300  0.02486600  0.65218700  1
  Li  Li3  1  0.58316300  0.97514000  0.34795300  1
  Mn  Mn0  1  0.09551400  0.74357300  0.49510400  1
  Mn  Mn1  1  0.90450700  0.25655400  0.50484700  1
  Fe  Fe0  1  0.40898100  0.75531500  0.01215000  1
  Fe  Fe1  1  0.58983200  0.24341000  0.98785100  1
  B  B0  1  0.09590700  0.09357500  0.16719600  1
  B  B1  1  0.90381500  0.90676700  0.83263800  1
  B  B2  1  0.40151600  0.41015500  0.32942300  1
  B  B3  1  0.59884300  0.59003600  0.67072700  1
  O  O0  1  0.98289500  0.25202200  0.04314800  1
  O  O1  1  0.01697600  0.74836700  0.95665800  1
  O  O2  1  0.95707700  0.00728300  0.31401600  1
  O  O3  1  0.04284400  0.99287200  0.68581100  1
  O  O4  1  0.35734100  0.02577600  0.15053900  1
  O  O5  1  0.64239800  0.97397700  0.84946900  1
  O  O6  1  0.54496500  0.50059900  0.18541200  1
  O  O7  1  0.45574500  0.49998500  0.81504000  1
  O  O8  1  0.50782300  0.24668300  0.45329300  1
  O  O9  1  0.49234200  0.75322300  0.54675300  1
  O  O10  1  0.14329300  0.48250600  0.34401500  1
  O  O11  1  0.85695300  0.51755600  0.65587300  1
loop_
_geom_bond_atom_site_label_1
_geom_bond_atom_site_label_2
_geom_bond_distance
_geom_bond_site_symmetry_2
Li0 O1 1.936584 1_654
Li0 O6 1.943562 1_555
Li0 O10 1.956423 1_655
Li0 O0 2.039183 1_555
Li1 O0 1.934299 1_456
Li1 O7 1.946324 1_555
Li1 O11 1.956103 1_455
Li1 O1 2.042444 1_555
Li2 O8 1.955977 1_555
Li2 O3 1.958456 1_545
Li2 O5 1.959669 1_545
Li2 O9 2.042691 1_545
Li3 O9 1.955947 1_555
Li3 O2 1.956991 1_565
Li3 O4 1.962227 1_565
Li3 O8 2.041792 1_565
Mn0 O2 2.080416 1_465
Mn0 O9 2.106742 1_555
Mn0 O11 2.121998 1_455
Mn0 O10 2.203607 1_555
Mn0 O3 2.380402 1_555
Mn1 O3 2.079580 1_645
Mn1 O8 2.105984 1_555
Mn1 O10 2.122699 1_655
Mn1 O11 2.202840 1_555
Mn1 O2 2.380998 1_555
Fe0 O6 2.005999 1_555
Fe0 O1 2.087896 1_554
Fe0 O5 2.088457 1_554
Fe0 O4 2.185402 1_565
Fe0 O7 2.446617 1_554
Fe1 O7 2.008073 1_555
Fe1 O4 2.082199 1_556
Fe1 O0 2.093902 1_556
Fe1 O5 2.180307 1_545
Fe1 O6 2.457676 1_556
B0 O0 1.378440 1_455
B0 O2 1.393429 1_455
B0 O4 1.409494 1_555
B1 O1 1.378463 1_655
B1 O3 1.393722 1_655
B1 O5 1.408585 1_555
B2 O8 1.381277 1_555
B2 O6 1.395203 1_555
B2 O10 1.399870 1_555
B3 O9 1.381146 1_555
B3 O7 1.395423 1_555
B3 O11 1.399823 1_555
