# generated using pymatgen
data_Na2CoO3
_symmetry_space_group_name_H-M   'P 1'
_cell_length_a   5.79843004
_cell_length_b   8.59696999
_cell_length_c   7.20371633
_cell_angle_alpha   79.79925920
_cell_angle_beta   81.93562471
_cell_angle_gamma   81.49690886
_symmetry_Int_Tables_number   1
_chemical_formula_structural   Na2CoO3
_chemical_formula_sum   'Na8 Co4 O12'
_cell_volume   347.12681948
_cell_formula_units_Z   4
loop_
 _symmetry_equiv_pos_site_id
 _symmetry_equiv_pos_as_xyz
  1  'x, y, z'
loop_
 _atom_site_type_symbol
 _atom_site_label
 _atom_site_symmetry_multiplicity
 _atom_site_fract_x
 _atom_site_fract_y
 _atom_site_fract_z
 _atom_site_occupancy
  Na  Na0  1  0.75000100  0.25000200  0.24999900  1
  Na  Na1  1  0.24999800  0.75000000  0.75000200  1
  Na  Na2  1  0.00001200  0.99999400  0.00000000  1
  Na  Na3  1  0.49998800  0.50000600  0.49999900  1
  Na  Na4  1  0.89019700  0.46143400  0.81295300  1
  Na  Na5  1  0.39019600  0.96142800  0.31295300  1
  Na  Na6  1  0.10980500  0.53857200  0.18704800  1
  Na  Na7  1  0.60980300  0.03856500  0.68704600  1
  Co  Co0  1  0.12533900  0.21166500  0.54890300  1
  Co  Co1  1  0.37466200  0.28833400  0.95109800  1
  Co  Co2  1  0.62533700  0.71166500  0.04889700  1
  Co  Co3  1  0.87466000  0.78833600  0.45110100  1
  O  O0  1  0.37035300  0.83533300  0.04054700  1
  O  O1  1  0.87036700  0.33532800  0.54054900  1
  O  O2  1  0.62963300  0.16467200  0.95945200  1
  O  O3  1  0.12964700  0.66466800  0.45945200  1
  O  O4  1  0.89255100  0.74759500  0.94010200  1
  O  O5  1  0.39257700  0.24759900  0.44011500  1
  O  O6  1  0.66887500  0.52358300  0.16373700  1
  O  O7  1  0.16887300  0.02356800  0.66374100  1
  O  O8  1  0.33112800  0.47643200  0.83625900  1
  O  O9  1  0.83112400  0.97641600  0.33626300  1
  O  O10  1  0.10742400  0.25240100  0.05988700  1
  O  O11  1  0.60744900  0.75240500  0.55989600  1
loop_
_geom_bond_atom_site_label_1
_geom_bond_atom_site_label_2
_geom_bond_distance
_geom_bond_site_symmetry_2
Na0 O6 2.318694 1_555
Na0 O9 2.318735 1_545
Na0 O10 2.318945 1_655
Na0 O5 2.318964 1_555
Na0 O1 2.551683 1_555
Na0 O2 2.551685 1_554
Na1 O8 2.318587 1_555
Na1 O7 2.318588 1_565
Na1 O4 2.319020 1_455
Na1 O11 2.319058 1_555
Na1 O0 2.551651 1_556
Na1 O3 2.551670 1_555
Na2 O0 2.414765 1_555
Na2 O2 2.415010 1_464
Na2 O7 2.467129 1_564
Na2 O9 2.467197 1_455
Na2 O10 2.467644 1_565
Na2 O4 2.467723 1_454
Na3 O3 2.414768 1_555
Na3 O1 2.415012 1_555
Na3 O8 2.467134 1_555
Na3 O6 2.467189 1_555
Na3 O5 2.467634 1_555
Na3 O11 2.467721 1_555
Na4 O1 2.427540 1_555
Na4 O8 2.609052 1_655
Na4 O10 2.609065 1_656
Na4 O6 2.771900 1_556
Na4 O4 2.775406 1_555
Na5 O0 2.427514 1_555
Na5 O9 2.609023 1_555
Na5 O11 2.609135 1_555
Na5 O7 2.771905 1_565
Na5 O5 2.775561 1_565
Na6 O3 2.427504 1_555
Na6 O6 2.609038 1_455
Na6 O4 2.609151 1_454
Na6 O8 2.771911 1_554
Na6 O10 2.775558 1_555
Na7 O2 2.427558 1_555
Na7 O7 2.609043 1_555
Na7 O5 2.609053 1_555
Na7 O9 2.771892 1_545
Na7 O11 2.775401 1_545
Co0 O5 1.681019 1_555
Co0 O7 1.681379 1_555
Co0 O1 1.690304 1_455
Co1 O10 1.681019 1_556
Co1 O8 1.681389 1_555
Co1 O2 1.690295 1_555
Co2 O4 1.680903 1_554
Co2 O6 1.681276 1_555
Co2 O0 1.690379 1_555
Co3 O11 1.680889 1_555
Co3 O9 1.681255 1_555
Co3 O3 1.690393 1_655
