# generated using pymatgen
data_LiV(CO3)2
_symmetry_space_group_name_H-M   'P 1'
_cell_length_a   8.04904125
_cell_length_b   8.04904125
_cell_length_c   5.36848271
_cell_angle_alpha   89.95011747
_cell_angle_beta   89.95011747
_cell_angle_gamma   59.74436188
_symmetry_Int_Tables_number   1
_chemical_formula_structural   LiV(CO3)2
_chemical_formula_sum   'Li3 V3 C6 O18'
_cell_volume   300.43171019
_cell_formula_units_Z   3
loop_
 _symmetry_equiv_pos_site_id
 _symmetry_equiv_pos_as_xyz
  1  'x, y, z'
loop_
 _atom_site_type_symbol
 _atom_site_label
 _atom_site_symmetry_multiplicity
 _atom_site_fract_x
 _atom_site_fract_y
 _atom_site_fract_z
 _atom_site_occupancy
  Li  Li0  1  0.66374400  0.99918500  0.50113100  1
  Li  Li1  1  0.00081500  0.33625600  0.49886900  1
  Li  Li2  1  0.33468500  0.66531500  0.50000000  1
  V  V0  1  0.32820600  0.00433600  0.99923000  1
  V  V1  1  0.99566400  0.67179400  0.00077000  1
  V  V2  1  0.66963800  0.33036200  0.00000000  1
  C  C0  1  0.66621200  0.66697400  0.75138900  1
  C  C1  1  0.66564600  0.66586800  0.22311300  1
  C  C2  1  0.00132500  0.99862100  0.76189200  1
  C  C3  1  0.00137900  0.99867500  0.23810800  1
  C  C4  1  0.33302600  0.33378800  0.24861100  1
  C  C5  1  0.33413200  0.33435400  0.77688700  1
  O  O0  1  0.18692000  0.91026200  0.23820800  1
  O  O1  1  0.48132600  0.77686400  0.74991800  1
  O  O2  1  0.57289700  0.85277400  0.21902800  1
  O  O3  1  0.91321200  0.90035800  0.23948500  1
  O  O4  1  0.57201200  0.57391500  0.22199300  1
  O  O5  1  0.77672500  0.74179000  0.74964700  1
  O  O6  1  0.74274300  0.48140600  0.75060800  1
  O  O7  1  0.08973800  0.81308000  0.76179200  1
  O  O8  1  0.85219900  0.57195900  0.22398000  1
  O  O9  1  0.22313600  0.51867400  0.25008200  1
  O  O10  1  0.14722600  0.42710300  0.78097200  1
  O  O11  1  0.90201800  0.18539800  0.23738500  1
  O  O12  1  0.09964200  0.08678800  0.76051500  1
  O  O13  1  0.42608500  0.42798800  0.77800700  1
  O  O14  1  0.25821000  0.22327500  0.25035300  1
  O  O15  1  0.51859500  0.25725700  0.24939200  1
  O  O16  1  0.42804100  0.14780100  0.77602000  1
  O  O17  1  0.81460200  0.09798200  0.76261500  1
loop_
_geom_bond_atom_site_label_1
_geom_bond_atom_site_label_2
_geom_bond_distance
_geom_bond_site_symmetry_2
Li0 O16 2.217945 1_565
Li0 O5 2.235608 1_555
Li0 O3 2.241694 1_555
Li0 O17 2.248412 1_565
Li0 O15 2.249123 1_565
Li0 O2 2.256216 1_555
Li1 O8 2.217945 1_455
Li1 O14 2.235608 1_555
Li1 O12 2.241694 1_555
Li1 O11 2.248412 1_455
Li1 O6 2.249124 1_455
Li1 O10 2.256216 1_555
Li2 O0 2.216308 1_555
Li2 O7 2.216308 1_555
Li2 O4 2.235743 1_555
Li2 O13 2.235743 1_555
Li2 O1 2.252158 1_555
Li2 O9 2.252158 1_555
C0 O1 1.292512 1_555
C0 O6 1.297408 1_555
C0 O5 1.301445 1_555
C1 O4 1.295367 1_555
C1 O8 1.297048 1_555
C1 O2 1.299716 1_555
C2 O7 1.290648 1_555
C2 O17 1.298919 1_465
C2 O12 1.302240 1_565
C3 O0 1.290648 1_555
C3 O11 1.298919 1_465
C3 O3 1.302240 1_455
C4 O9 1.292512 1_555
C4 O15 1.297415 1_555
C4 O14 1.301445 1_555
C5 O13 1.295367 1_555
C5 O16 1.297048 1_555
C5 O10 1.299716 1_555
O0 V0 2.091913 1_564
O1 V0 2.095254 1_565
O2 V0 2.083251 1_564
O3 V1 2.059031 1_555
O4 V2 2.081087 1_555
O5 V1 2.059793 1_556
O6 V2 2.081718 1_556
O7 V1 2.091913 1_456
O8 V1 2.084736 1_555
O9 V1 2.095254 1_455
O10 V1 2.083251 1_456
O11 V2 2.070349 1_555
O12 V0 2.059031 1_555
O13 V2 2.081087 1_556
O14 V0 2.059793 1_554
O15 V2 2.081712 1_555
O16 V0 2.084736 1_555
O17 V2 2.070349 1_556
