# generated using pymatgen
data_Na2NiPCO7
_symmetry_space_group_name_H-M   'P 1'
_cell_length_a   6.61506900
_cell_length_b   10.17738189
_cell_length_c   10.38001444
_cell_angle_alpha   60.95293318
_cell_angle_beta   89.86708269
_cell_angle_gamma   89.90882670
_symmetry_Int_Tables_number   1
_chemical_formula_structural   Na2NiPCO7
_chemical_formula_sum   'Na8 Ni4 P4 C4 O28'
_cell_volume   610.92583156
_cell_formula_units_Z   4
loop_
 _symmetry_equiv_pos_site_id
 _symmetry_equiv_pos_as_xyz
  1  'x, y, z'
loop_
 _atom_site_type_symbol
 _atom_site_label
 _atom_site_symmetry_multiplicity
 _atom_site_fract_x
 _atom_site_fract_y
 _atom_site_fract_z
 _atom_site_occupancy
  Na  Na0  1  0.54137800  0.73228600  0.25460200  1
  Na  Na1  1  0.01043400  0.25350200  0.26027000  1
  Na  Na2  1  0.49052200  0.25470600  0.25920500  1
  Na  Na3  1  0.23256400  0.07247100  0.07492100  1
  Na  Na4  1  0.98918600  0.74892300  0.74913300  1
  Na  Na5  1  0.50886800  0.74952600  0.74471600  1
  Na  Na6  1  0.01125300  0.26142600  0.73708700  1
  Na  Na7  1  0.48747800  0.26142500  0.73701200  1
  Ni  Ni0  1  0.24627500  0.65081600  0.06698700  1
  Ni  Ni1  1  0.75030800  0.35221600  0.43566900  1
  Ni  Ni2  1  0.24614800  0.65128700  0.56087700  1
  Ni  Ni3  1  0.74840400  0.34841600  0.93511000  1
  P  P0  1  0.75014300  0.57858300  0.06545400  1
  P  P1  1  0.24977000  0.42524400  0.42832800  1
  P  P2  1  0.74899400  0.57702900  0.57324000  1
  P  P3  1  0.24949900  0.42001500  0.93223400  1
  C  C0  1  0.74586200  0.07709100  0.10654900  1
  C  C1  1  0.74989700  0.07588400  0.60252600  1
  C  C2  1  0.25283700  0.92622800  0.39145500  1
  C  C3  1  0.25320100  0.92869900  0.89366500  1
  O  O0  1  0.25566400  0.86393700  0.03656200  1
  O  O1  1  0.93915900  0.67498800  0.04193000  1
  O  O2  1  0.56385700  0.67484800  0.05403100  1
  O  O3  1  0.25938200  0.57328200  0.28382700  1
  O  O4  1  0.74360100  0.53844100  0.44526500  1
  O  O5  1  0.24984100  0.45284100  0.06496800  1
  O  O6  1  0.75249200  0.43052600  0.21329300  1
  O  O7  1  0.06138500  0.33032100  0.44198700  1
  O  O8  1  0.43671800  0.32592900  0.44640100  1
  O  O9  1  0.75012200  0.17718300  0.15105500  1
  O  O10  1  0.75071900  0.16988400  0.65345100  1
  O  O11  1  0.75082300  0.14082800  0.45926600  1
  O  O12  1  0.25105100  0.06783900  0.30732600  1
  O  O13  1  0.25111300  0.07114400  0.81781700  1
  O  O14  1  0.73768100  0.93937100  0.19148000  1
  O  O15  1  0.74816500  0.93599100  0.68252300  1
  O  O16  1  0.24561800  0.86331400  0.53432700  1
  O  O17  1  0.26081600  0.83292900  0.34095800  1
  O  O18  1  0.25173600  0.83832900  0.83943900  1
  O  O19  1  0.93666400  0.66932200  0.56540100  1
  O  O20  1  0.56183900  0.67310600  0.56042700  1
  O  O21  1  0.25070400  0.57003100  0.78717900  1
  O  O22  1  0.74292400  0.54105300  0.93536400  1
  O  O23  1  0.24946400  0.45752300  0.56228700  1
  O  O24  1  0.74696100  0.42447600  0.71868200  1
  O  O25  1  0.43342200  0.31886400  0.94750900  1
  O  O26  1  0.06356900  0.32144200  0.94594900  1
  O  O27  1  0.75133300  0.13623800  0.96340100  1
loop_
_geom_bond_atom_site_label_1
_geom_bond_atom_site_label_2
_geom_bond_distance
_geom_bond_site_symmetry_2
Na0 O14 2.285013 1_555
Na0 O3 2.391825 1_555
Na0 O4 2.410567 1_555
Na0 O2 2.424532 1_555
Na0 O17 2.484944 1_555
Na0 O0 2.748971 1_555
Na0 O20 2.933160 1_555
Na1 O12 2.332452 1_555
Na1 O6 2.352901 1_455
Na1 O7 2.391332 1_555
Na1 O9 2.392084 1_455
Na1 O11 2.494111 1_455
Na1 O5 2.595229 1_555
Na2 O12 2.336513 1_555
Na2 O6 2.368564 1_555
Na2 O9 2.382973 1_555
Na2 O8 2.406536 1_555
Na2 O11 2.508734 1_555
Na2 O5 2.592841 1_555
Na3 O0 2.346368 1_545
Na3 O12 2.393243 1_555
Na3 O26 2.483220 1_554
Na3 O25 2.566078 1_554
Na3 O17 2.658502 1_545
Na3 O13 2.677854 1_554
Na4 O15 2.315591 1_555
Na4 O18 2.358790 1_655
Na4 O21 2.399676 1_655
Na4 O19 2.432795 1_555
Na4 O16 2.583104 1_655
Na4 O22 2.625143 1_555
Na4 O1 2.772739 1_556
Na5 O15 2.310643 1_555
Na5 O18 2.350962 1_555
Na5 O21 2.381696 1_555
Na5 O20 2.414064 1_555
Na5 O16 2.588089 1_555
Na5 O22 2.596461 1_555
Na5 O2 2.941678 1_556
Na6 O10 2.321507 1_455
Na6 O13 2.321780 1_555
Na6 O24 2.351858 1_455
Na6 O23 2.497733 1_555
Na6 O26 2.546189 1_555
Na6 O27 2.679536 1_455
Na6 O7 2.809780 1_555
Na7 O13 2.307553 1_555
Na7 O10 2.329191 1_555
Na7 O24 2.331788 1_555
Na7 O23 2.497955 1_555
Na7 O25 2.545521 1_555
Na7 O27 2.701207 1_555
Na7 O8 2.779258 1_555
Ni0 O3 1.993063 1_555
Ni0 O5 2.025225 1_555
Ni0 O0 2.035529 1_555
Ni0 O1 2.047991 1_455
Ni0 O2 2.111815 1_555
Ni0 O18 2.201100 1_554
Ni1 O4 1.946026 1_555
Ni1 O11 2.043699 1_555
Ni1 O6 2.043761 1_555
Ni1 O7 2.067234 1_655
Ni1 O8 2.087811 1_555
Ni1 O10 2.116665 1_555
Ni2 O23 1.965034 1_555
Ni2 O16 2.038360 1_555
Ni2 O19 2.057642 1_455
Ni2 O21 2.077638 1_555
Ni2 O20 2.100197 1_555
Ni2 O17 2.130627 1_555
Ni3 O22 1.962099 1_555
Ni3 O24 1.989367 1_555
Ni3 O27 2.033176 1_555
Ni3 O9 2.065999 1_556
Ni3 O26 2.098534 1_655
Ni3 O25 2.100402 1_555
C0 O14 1.242906 1_545
C0 O27 1.304902 1_554
C0 O9 1.307303 1_555
C1 O15 1.252472 1_545
C1 O10 1.298371 1_555
C1 O11 1.301438 1_555
C2 O12 1.271896 1_565
C2 O17 1.289252 1_555
C2 O16 1.299720 1_555
C3 O13 1.270186 1_565
C3 O18 1.290570 1_555
C3 O0 1.298278 1_556
O1 P0 1.534767 1_555
O2 P0 1.541591 1_555
O3 P1 1.526172 1_555
O4 P2 1.557870 1_555
O5 P3 1.567445 1_554
O6 P0 1.542828 1_555
O7 P1 1.541544 1_555
O8 P1 1.548927 1_555
O19 P2 1.535946 1_555
O20 P2 1.541812 1_555
O21 P3 1.538131 1_555
O22 P0 1.572507 1_556
O23 P1 1.576379 1_555
O24 P2 1.553630 1_555
O25 P3 1.550352 1_555
O26 P3 1.550448 1_555
