# generated using pymatgen
data_LiVCrP2(O4F)2
_symmetry_space_group_name_H-M   'P 1'
_cell_length_a   5.16401300
_cell_length_b   7.33488513
_cell_length_c   10.29207872
_cell_angle_alpha   102.99575489
_cell_angle_beta   99.14328915
_cell_angle_gamma   106.12411486
_symmetry_Int_Tables_number   1
_chemical_formula_structural   LiVCrP2(O4F)2
_chemical_formula_sum   'Li2 V2 Cr2 P4 O16 F4'
_cell_volume   354.56005367
_cell_formula_units_Z   2
loop_
 _symmetry_equiv_pos_site_id
 _symmetry_equiv_pos_as_xyz
  1  'x, y, z'
loop_
 _atom_site_type_symbol
 _atom_site_label
 _atom_site_symmetry_multiplicity
 _atom_site_fract_x
 _atom_site_fract_y
 _atom_site_fract_z
 _atom_site_occupancy
  Li  Li0  1  0.85906400  0.60106900  0.78074500  1
  Li  Li1  1  0.14093600  0.39893100  0.21925500  1
  V  V0  1  0.50000000  0.50000000  0.50000000  1
  V  V1  1  0.00000000  0.00000000  0.00000000  1
  Cr  Cr0  1  0.75677000  0.75469600  0.25134800  1
  Cr  Cr1  1  0.24323000  0.24530400  0.74865200  1
  P  P0  1  0.87565800  0.20039800  0.44008000  1
  P  P1  1  0.38220800  0.69834600  0.94468700  1
  P  P2  1  0.61779200  0.30165400  0.05531300  1
  P  P3  1  0.12434200  0.79960200  0.55992000  1
  O  O0  1  0.69368600  0.34119100  0.43060900  1
  O  O1  1  0.43616000  0.68716200  0.09173300  1
  O  O2  1  0.20993400  0.84418500  0.93097300  1
  O  O3  1  0.69756700  0.00132000  0.33976300  1
  O  O4  1  0.34255800  0.22639700  0.10173800  1
  O  O5  1  0.94295800  0.20017800  0.58953900  1
  O  O6  1  0.18636100  0.50387300  0.83956900  1
  O  O7  1  0.85952100  0.70654100  0.60983400  1
  O  O8  1  0.14047900  0.29345900  0.39016600  1
  O  O9  1  0.81363900  0.49612700  0.16043100  1
  O  O10  1  0.05704200  0.79982200  0.41046100  1
  O  O11  1  0.65744200  0.77360300  0.89826200  1
  O  O12  1  0.30243300  0.99868000  0.66023700  1
  O  O13  1  0.79006600  0.15581500  0.06902700  1
  O  O14  1  0.56384000  0.31283800  0.90826700  1
  O  O15  1  0.30631400  0.65880900  0.56939100  1
  F  F0  1  0.48128600  0.60032200  0.33613000  1
  F  F1  1  0.98268700  0.10081300  0.84165800  1
  F  F2  1  0.01731300  0.89918700  0.15834200  1
  F  F3  1  0.51871400  0.39967800  0.66387000  1
loop_
_geom_bond_atom_site_label_1
_geom_bond_atom_site_label_2
_geom_bond_distance
_geom_bond_site_symmetry_2
Li0 O6 2.066314 1_655
Li0 O7 2.074858 1_555
Li0 O11 2.142924 1_555
Li0 O2 2.220014 1_655
Li1 O9 2.066314 1_455
Li1 O8 2.074858 1_555
Li1 O4 2.142924 1_555
Li1 O13 2.220014 1_455
Cr0 O3 1.961912 1_565
Cr0 O10 1.964644 1_655
Cr0 F2 1.980731 1_655
Cr0 O1 1.999823 1_555
Cr0 F0 2.002874 1_555
Cr0 O9 2.038956 1_555
Cr1 O12 1.961912 1_545
Cr1 O5 1.964644 1_455
Cr1 F1 1.980731 1_455
Cr1 O14 1.999823 1_555
Cr1 F3 2.002874 1_555
Cr1 O6 2.038956 1_555
O0 P0 1.585622 1_555
O0 V0 1.835019 1_555
O1 P1 1.519634 1_554
O2 P1 1.584998 1_555
O2 V1 1.885195 1_566
O3 P0 1.522586 1_555
O4 P2 1.565826 1_555
O4 V1 1.995224 1_555
O5 P0 1.522665 1_555
O6 P1 1.544319 1_555
O7 P3 1.569235 1_655
O7 V0 2.005080 1_555
O8 P0 1.569235 1_455
O8 V0 2.005080 1_555
O9 P2 1.544319 1_555
O10 P3 1.522665 1_555
O11 P1 1.565826 1_555
O11 V1 1.995224 1_666
O12 P3 1.522586 1_555
O13 P2 1.584998 1_555
O13 V1 1.885195 1_655
O14 P2 1.519634 1_556
O15 P3 1.585622 1_555
O15 V0 1.835019 1_555
F0 Li1 1.950625 1_555
F0 V0 1.985242 1_555
F1 V1 1.934684 1_656
F2 V1 1.934684 1_565
F3 Li0 1.950625 1_555
F3 V0 1.985242 1_555
