# generated using pymatgen
data_Li8Ti16CuS32
_symmetry_space_group_name_H-M   'P 1'
_cell_length_a   7.03955200
_cell_length_b   7.04430505
_cell_length_c   23.44277564
_cell_angle_alpha   90.19516402
_cell_angle_beta   98.43071869
_cell_angle_gamma   119.95667025
_symmetry_Int_Tables_number   1
_chemical_formula_structural   Li8Ti16CuS32
_chemical_formula_sum   'Li8 Ti16 Cu1 S32'
_cell_volume   992.31906538
_cell_formula_units_Z   1
loop_
 _symmetry_equiv_pos_site_id
 _symmetry_equiv_pos_as_xyz
  1  'x, y, z'
loop_
 _atom_site_type_symbol
 _atom_site_label
 _atom_site_symmetry_multiplicity
 _atom_site_fract_x
 _atom_site_fract_y
 _atom_site_fract_z
 _atom_site_occupancy
  Li  Li0  1  0.24385700  0.11921600  0.86317200  1
  Li  Li1  1  0.49933700  0.49995000  0.50041700  1
  Li  Li2  1  0.99858200  0.25116000  0.74973500  1
  Li  Li3  1  0.25204900  0.62806800  0.37611300  1
  Li  Li4  1  0.75004900  0.37506600  0.62481100  1
  Li  Li5  1  0.99880100  0.75138200  0.25020300  1
  Li  Li6  1  0.74630600  0.87317100  0.12345800  1
  Li  Li7  1  0.99954700  0.24794700  0.25026100  1
  Ti  Ti0  1  0.25650700  0.63035100  0.87445700  1
  Ti  Ti1  1  0.24965500  0.87484000  0.62489900  1
  Ti  Ti2  1  0.74830900  0.62662400  0.87468400  1
  Ti  Ti3  1  0.00205100  0.49984600  0.00396400  1
  Ti  Ti4  1  0.49931200  0.74817900  0.74742800  1
  Ti  Ti5  1  0.74436200  0.11803200  0.87458500  1
  Ti  Ti6  1  0.75025800  0.87513100  0.62494200  1
  Ti  Ti7  1  0.24963400  0.37467100  0.62485900  1
  Ti  Ti8  1  0.00123300  0.00213200  0.50109100  1
  Ti  Ti9  1  0.75174800  0.62743500  0.37633100  1
  Ti  Ti10  1  0.25211200  0.12357300  0.37614000  1
  Ti  Ti11  1  0.24847000  0.86684000  0.12469000  1
  Ti  Ti12  1  0.74774700  0.12391900  0.37616300  1
  Ti  Ti13  1  0.24829600  0.38134900  0.12473700  1
  Ti  Ti14  1  0.49882800  0.25037000  0.24888200  1
  Ti  Ti15  1  0.75505600  0.37743100  0.12506600  1
  Cu  Cu0  1  0.31421200  0.15826800  0.97329500  1
  S  S0  1  0.11802900  0.80064300  0.93691600  1
  S  S1  1  0.11813500  0.31818600  0.93652100  1
  S  S2  1  0.62276100  0.81090800  0.93398000  1
  S  S3  1  0.38194800  0.93050700  0.81213800  1
  S  S4  1  0.86371000  0.93065900  0.81208400  1
  S  S5  1  0.38163700  0.44845300  0.81212500  1
  S  S6  1  0.63598500  0.31875800  0.93698700  1
  S  S7  1  0.13226500  0.56793700  0.68666500  1
  S  S8  1  0.61935800  0.56693400  0.68629200  1
  S  S9  1  0.11826400  0.81729000  0.43706400  1
  S  S10  1  0.37691100  0.68907600  0.56573600  1
  S  S11  1  0.87842000  0.43857600  0.81674800  1
  S  S12  1  0.12300800  0.06110800  0.68427900  1
  S  S13  1  0.36694100  0.18171800  0.56307000  1
  S  S14  1  0.88151900  0.69671500  0.56305800  1
  S  S15  1  0.38170100  0.94717800  0.31313400  1
  S  S16  1  0.61861600  0.05420500  0.68662000  1
  S  S17  1  0.11854500  0.30306300  0.43703900  1
  S  S18  1  0.63338000  0.81804300  0.43745500  1
  S  S19  1  0.87637800  0.93851300  0.31574700  1
  S  S20  1  0.62389600  0.31232500  0.43489900  1
  S  S21  1  0.88089600  0.18252200  0.56339300  1
  S  S22  1  0.38101300  0.43301600  0.31361900  1
  S  S23  1  0.12549500  0.56312700  0.18625200  1
  S  S24  1  0.36704600  0.68307900  0.06288300  1
  S  S25  1  0.86738700  0.43303800  0.31336100  1
  S  S26  1  0.61966700  0.55419400  0.18696800  1
  S  S27  1  0.13179600  0.06615700  0.18664900  1
  S  S28  1  0.61996300  0.06609100  0.18681300  1
  S  S29  1  0.37874100  0.18870300  0.06867400  1
  S  S30  1  0.88137900  0.68337600  0.06370000  1
  S  S31  1  0.88139100  0.19720000  0.06349000  1
loop_
_geom_bond_atom_site_label_1
_geom_bond_atom_site_label_2
_geom_bond_distance
_geom_bond_site_symmetry_2
Li0 S3 2.400860 1_545
Li0 S4 2.420635 1_445
Li0 S5 2.421655 1_555
Li0 S6 2.701438 1_555
Li0 S0 2.701774 1_545
Li0 S1 2.715348 1_555
Li1 S10 2.526292 1_555
Li1 S13 2.527544 1_555
Li1 S18 2.531646 1_555
Li1 S20 2.532436 1_555
Li1 S14 2.533633 1_555
Li1 S17 2.534141 1_555
Li2 S7 2.526739 1_655
Li2 S16 2.527444 1_555
Li2 S11 2.533231 1_555
Li2 S4 2.534502 1_545
Li2 S5 2.535543 1_655
Li2 S12 2.542710 1_655
Li3 S18 2.516368 1_555
Li3 S9 2.518063 1_555
Li3 S17 2.536096 1_555
Li3 S15 2.536658 1_555
Li3 S22 2.545672 1_555
Li3 S25 2.546930 1_455
Li4 S8 2.523460 1_555
Li4 S7 2.525812 1_655
Li4 S21 2.526738 1_555
Li4 S16 2.528081 1_555
Li4 S13 2.529203 1_555
Li4 S14 2.531218 1_555
Li5 S19 2.519990 1_555
Li5 S23 2.522164 1_655
Li5 S27 2.524139 1_665
Li5 S26 2.524599 1_555
Li5 S25 2.535600 1_555
Li5 S15 2.539978 1_655
Li6 S24 2.498506 1_555
Li6 S30 2.510290 1_555
Li6 S31 2.517302 1_565
Li6 S28 2.534646 1_565
Li6 S26 2.543968 1_555
Li6 S27 2.555358 1_665
Li7 S27 2.512990 1_655
Li7 S25 2.521016 1_555
Li7 S19 2.526947 1_545
Li7 S28 2.529140 1_555
Li7 S23 2.532594 1_655
Li7 S22 2.537278 1_655
Cu0 S29 2.203048 1_556
Cu0 S1 2.264510 1_555
Cu0 S0 2.268583 1_545
Cu0 S6 2.268891 1_555
Cu0 Li0 2.543570 1_555
S0 Ti2 2.468414 1_455
S0 Ti0 2.471363 1_555
S0 Ti3 2.509612 1_556
S1 Ti5 2.485987 1_455
S1 Ti0 2.489868 1_555
S1 Ti3 2.492884 1_556
S2 Ti0 2.422860 1_555
S2 Ti5 2.423344 1_565
S2 Ti2 2.427413 1_555
S3 Ti0 2.432982 1_555
S3 Ti5 2.433687 1_565
S3 Ti4 2.459150 1_555
S4 Ti2 2.456400 1_555
S4 Ti5 2.459695 1_565
S4 Ti4 2.466482 1_555
S5 Ti2 2.455752 1_555
S5 Ti0 2.458626 1_555
S5 Ti4 2.467362 1_555
S6 Ti2 2.471713 1_555
S6 Ti5 2.472226 1_555
S6 Ti3 2.500032 1_656
S7 Ti4 2.439159 1_555
S7 Ti1 2.457920 1_555
S7 Ti7 2.469091 1_555
S8 Ti4 2.412152 1_555
S8 Ti6 2.458233 1_555
S8 Ti7 2.459594 1_555
S9 Ti9 2.436478 1_455
S9 Ti10 2.442950 1_565
S9 Ti8 2.459196 1_565
S10 Ti1 2.441552 1_555
S10 Ti6 2.455498 1_555
S10 Ti7 2.456063 1_555
S11 Ti2 2.450007 1_555
S11 Ti0 2.465767 1_655
S11 Ti5 2.468904 1_555
S12 Ti1 2.444181 1_545
S12 Ti6 2.453723 1_445
S12 Ti7 2.456133 1_555
S13 Ti8 2.444838 1_555
S13 Ti1 2.458754 1_545
S13 Ti7 2.466955 1_555
S14 Ti8 2.453315 1_665
S14 Ti1 2.455719 1_655
S14 Ti6 2.465456 1_555
S15 Ti12 2.457695 1_565
S15 Ti10 2.464242 1_565
S15 Ti14 2.477408 1_565
S16 Ti4 2.438955 1_545
S16 Ti1 2.458498 1_545
S16 Ti6 2.467510 1_545
S17 Ti12 2.459328 1_455
S17 Ti8 2.463206 1_555
S17 Ti10 2.467689 1_555
S18 Ti12 2.446066 1_565
S18 Ti9 2.450462 1_555
S18 Ti8 2.472481 1_665
S19 Ti9 2.460758 1_555
S19 Ti12 2.465001 1_565
S19 Ti10 2.479050 1_665
S20 Ti12 2.431600 1_555
S20 Ti10 2.443382 1_555
S20 Ti9 2.451588 1_555
S21 Ti8 2.427074 1_655
S21 Ti7 2.455074 1_655
S21 Ti6 2.457243 1_545
S22 Ti14 2.463295 1_555
S22 Ti9 2.477850 1_555
S22 Ti10 2.481834 1_555
S23 Ti13 2.434140 1_555
S23 Ti11 2.438676 1_555
S23 Ti15 2.460182 1_455
S24 Ti3 2.410549 1_555
S24 Ti11 2.427503 1_555
S24 Ti13 2.433315 1_555
S25 Ti9 2.483733 1_555
S25 Ti12 2.484425 1_555
S25 Ti14 2.484883 1_555
S26 Ti14 2.444555 1_555
S26 Ti13 2.477078 1_555
S26 Ti15 2.478527 1_555
S27 Ti14 2.453863 1_555
S27 Ti11 2.498654 1_545
S27 Ti13 2.502269 1_555
S28 Ti14 2.446623 1_555
S28 Ti11 2.476588 1_545
S28 Ti15 2.480330 1_555
S29 Ti15 2.444722 1_555
S29 Ti13 2.449162 1_555
S29 Ti11 2.450091 1_545
S30 Ti3 2.405700 1_655
S30 Ti11 2.441524 1_655
S30 Ti15 2.446901 1_555
S31 Ti3 2.402757 1_655
S31 Ti13 2.443187 1_655
S31 Ti15 2.445021 1_555
