# generated using pymatgen
data_V4OF11
_symmetry_space_group_name_H-M   'P 1'
_cell_length_a   5.27334100
_cell_length_b   5.44487930
_cell_length_c   17.45710484
_cell_angle_alpha   83.61875227
_cell_angle_beta   81.44041556
_cell_angle_gamma   61.18846679
_symmetry_Int_Tables_number   1
_chemical_formula_structural   V4OF11
_chemical_formula_sum   'V8 O2 F22'
_cell_volume   433.85049714
_cell_formula_units_Z   2
loop_
 _symmetry_equiv_pos_site_id
 _symmetry_equiv_pos_as_xyz
  1  'x, y, z'
loop_
 _atom_site_type_symbol
 _atom_site_label
 _atom_site_symmetry_multiplicity
 _atom_site_fract_x
 _atom_site_fract_y
 _atom_site_fract_z
 _atom_site_occupancy
  V  V0  1  0.24197800  0.26027800  0.75207000  1
  V  V1  1  0.75802200  0.73972200  0.24793000  1
  V  V2  1  0.87939200  0.85361500  0.87073300  1
  V  V3  1  0.37736400  0.37066600  0.37450800  1
  V  V4  1  0.50000000  0.50000000  0.00000000  1
  V  V5  1  0.00000000  0.00000000  0.50000000  1
  V  V6  1  0.62263600  0.62933400  0.62549200  1
  V  V7  1  0.12060800  0.14638500  0.12926700  1
  O  O0  1  0.02452300  0.42220400  0.18408400  1
  O  O1  1  0.97547700  0.57779600  0.81591600  1
  F  F0  1  0.46440500  0.46130700  0.71301400  1
  F  F1  1  0.53391400  0.94256700  0.68915200  1
  F  F2  1  0.25766600  0.67482200  0.91382400  1
  F  F3  1  0.96871600  0.95488100  0.21137900  1
  F  F4  1  0.76708300  0.15771300  0.41147200  1
  F  F5  1  0.01188400  0.41294900  0.66265600  1
  F  F6  1  0.03128400  0.04511900  0.78862100  1
  F  F7  1  0.53559500  0.53869300  0.28698600  1
  F  F8  1  0.74233400  0.32517800  0.08617600  1
  F  F9  1  0.78254100  0.18054800  0.93478300  1
  F  F10  1  0.46608600  0.05743300  0.31084800  1
  F  F11  1  0.71304400  0.71485900  0.96301400  1
  F  F12  1  0.51223200  0.91528300  0.16065100  1
  F  F13  1  0.21294200  0.21282700  0.46242600  1
  F  F14  1  0.23291700  0.84228700  0.58852800  1
  F  F15  1  0.28695600  0.28514100  0.03698600  1
  F  F16  1  0.48776800  0.08471700  0.83934900  1
  F  F17  1  0.98811600  0.58705100  0.33734400  1
  F  F18  1  0.29361700  0.68398000  0.43760600  1
  F  F19  1  0.70638300  0.31602000  0.56239400  1
  F  F20  1  0.21745900  0.81945200  0.06521700  1
  F  F21  1  0.78705800  0.78717300  0.53757400  1
loop_
_geom_bond_atom_site_label_1
_geom_bond_atom_site_label_2
_geom_bond_distance
_geom_bond_site_symmetry_2
O0 V7 1.693979 1_555
O0 V1 1.956122 1_455
O1 V2 1.693979 1_555
O1 V0 1.956122 1_655
F0 V0 1.967805 1_555
F0 V6 1.978193 1_555
F1 V6 1.964725 1_555
F1 V0 1.980169 1_565
F2 V4 1.970736 1_556
F2 V2 1.976067 1_455
F3 V1 1.972671 1_555
F3 V7 1.978523 1_665
F4 V5 1.971760 1_655
F4 V3 1.978889 1_555
F5 V0 1.975570 1_555
F5 V6 1.979361 1_455
F6 V0 1.972671 1_555
F6 V2 1.978523 1_445
F7 V1 1.967805 1_555
F7 V3 1.978193 1_555
F8 V4 1.970736 1_555
F8 V7 1.976067 1_655
F9 V4 1.994710 1_556
F9 V2 2.018910 1_545
F10 V3 1.964725 1_555
F10 V1 1.980169 1_545
F11 V2 1.970549 1_555
F11 V4 1.982582 1_556
F12 V7 1.956345 1_565
F12 V1 1.996272 1_555
F13 V3 1.968467 1_555
F13 V5 1.974856 1_555
F14 V5 1.971760 1_565
F14 V6 1.978889 1_555
F15 V7 1.970549 1_555
F15 V4 1.982582 1_555
F16 V2 1.956345 1_545
F16 V0 1.996272 1_555
F17 V1 1.975570 1_555
F17 V3 1.979361 1_655
F18 V3 1.966056 1_555
F18 V5 1.972610 1_565
F19 V6 1.966056 1_555
F19 V5 1.972610 1_655
F20 V4 1.994710 1_555
F20 V7 2.018910 1_565
F21 V6 1.968467 1_555
F21 V5 1.974856 1_665
