# generated using pymatgen
data_Al2(SeO4)3
_symmetry_space_group_name_H-M   'P 1'
_cell_length_a   8.70960900
_cell_length_b   8.78209300
_cell_length_c   12.20260000
_cell_angle_alpha   90.00000000
_cell_angle_beta   90.00000000
_cell_angle_gamma   90.00000000
_symmetry_Int_Tables_number   1
_chemical_formula_structural   Al2(SeO4)3
_chemical_formula_sum   'Al8 Se12 O48'
_cell_volume   933.35974438
_cell_formula_units_Z   4
loop_
 _symmetry_equiv_pos_site_id
 _symmetry_equiv_pos_as_xyz
  1  'x, y, z'
loop_
 _atom_site_type_symbol
 _atom_site_label
 _atom_site_symmetry_multiplicity
 _atom_site_fract_x
 _atom_site_fract_y
 _atom_site_fract_z
 _atom_site_occupancy
  Al  Al0  1  0.24872400  0.96418500  0.11556800  1
  Al  Al1  1  0.75127600  0.46418500  0.11556800  1
  Al  Al2  1  0.25127600  0.46418500  0.38443200  1
  Al  Al3  1  0.74872400  0.96418500  0.38443200  1
  Al  Al4  1  0.25127600  0.03581500  0.61556800  1
  Al  Al5  1  0.74872400  0.53581500  0.61556800  1
  Al  Al6  1  0.24872400  0.53581500  0.88443200  1
  Al  Al7  1  0.75127600  0.03581500  0.88443200  1
  Se  Se0  1  0.47615800  0.25000000  0.00000000  1
  Se  Se1  1  0.52384200  0.75000000  0.00000000  1
  Se  Se2  1  0.10367100  0.61748200  0.14799800  1
  Se  Se3  1  0.89632900  0.11748200  0.14799800  1
  Se  Se4  1  0.39632900  0.11748200  0.35200200  1
  Se  Se5  1  0.60367100  0.61748200  0.35200200  1
  Se  Se6  1  0.02384200  0.75000000  0.50000000  1
  Se  Se7  1  0.97615800  0.25000000  0.50000000  1
  Se  Se8  1  0.39632900  0.38251800  0.64799800  1
  Se  Se9  1  0.60367100  0.88251800  0.64799800  1
  Se  Se10  1  0.10367100  0.88251800  0.85200200  1
  Se  Se11  1  0.89632900  0.38251800  0.85200200  1
  O  O0  1  0.81782200  0.06917100  0.02982200  1
  O  O1  1  0.18217800  0.56917100  0.02982200  1
  O  O2  1  0.63236100  0.63089700  0.06893900  1
  O  O3  1  0.36763900  0.13089700  0.06893900  1
  O  O4  1  0.58013900  0.33092700  0.09871900  1
  O  O5  1  0.41986100  0.83092700  0.09871900  1
  O  O6  1  0.08637900  0.10377100  0.14433700  1
  O  O7  1  0.91362100  0.60377100  0.14433700  1
  O  O8  1  0.13081700  0.80159800  0.17619400  1
  O  O9  1  0.86918300  0.30159800  0.17619400  1
  O  O10  1  0.18289400  0.49821300  0.23690100  1
  O  O11  1  0.81710600  0.99821300  0.23690100  1
  O  O12  1  0.31710600  0.99821300  0.26309900  1
  O  O13  1  0.68289400  0.49821300  0.26309900  1
  O  O14  1  0.36918300  0.30159800  0.32380600  1
  O  O15  1  0.63081700  0.80159800  0.32380600  1
  O  O16  1  0.41362100  0.60377100  0.35566300  1
  O  O17  1  0.58637900  0.10377100  0.35566300  1
  O  O18  1  0.08013900  0.33092700  0.40128100  1
  O  O19  1  0.91986100  0.83092700  0.40128100  1
  O  O20  1  0.13236100  0.63089700  0.43106100  1
  O  O21  1  0.86763900  0.13089700  0.43106100  1
  O  O22  1  0.31782200  0.06917100  0.47017800  1
  O  O23  1  0.68217800  0.56917100  0.47017800  1
  O  O24  1  0.31782200  0.43082900  0.52982200  1
  O  O25  1  0.68217800  0.93082900  0.52982200  1
  O  O26  1  0.13236100  0.86910300  0.56893900  1
  O  O27  1  0.86763900  0.36910300  0.56893900  1
  O  O28  1  0.08013900  0.16907300  0.59871900  1
  O  O29  1  0.91986100  0.66907300  0.59871900  1
  O  O30  1  0.41362100  0.89622900  0.64433700  1
  O  O31  1  0.58637900  0.39622900  0.64433700  1
  O  O32  1  0.36918300  0.19840200  0.67619400  1
  O  O33  1  0.63081700  0.69840200  0.67619400  1
  O  O34  1  0.31710600  0.50178700  0.73690100  1
  O  O35  1  0.68289400  0.00178700  0.73690100  1
  O  O36  1  0.18289400  0.00178700  0.76309900  1
  O  O37  1  0.81710600  0.50178700  0.76309900  1
  O  O38  1  0.13081700  0.69840200  0.82380600  1
  O  O39  1  0.86918300  0.19840200  0.82380600  1
  O  O40  1  0.08637900  0.39622900  0.85566300  1
  O  O41  1  0.91362100  0.89622900  0.85566300  1
  O  O42  1  0.41986100  0.66907300  0.90128100  1
  O  O43  1  0.58013900  0.16907300  0.90128100  1
  O  O44  1  0.36763900  0.36910300  0.93106100  1
  O  O45  1  0.63236100  0.86910300  0.93106100  1
  O  O46  1  0.18217800  0.93082900  0.97017800  1
  O  O47  1  0.81782200  0.43082900  0.97017800  1
loop_
_geom_bond_atom_site_label_1
_geom_bond_atom_site_label_2
_geom_bond_distance
_geom_bond_site_symmetry_2
Al0 O3 1.881480 1_565
Al0 O46 1.889258 1_554
Al0 O6 1.904010 1_565
Al0 O5 1.906184 1_555
Al0 O8 1.908045 1_555
Al0 O12 1.919626 1_555
Al1 O2 1.881480 1_555
Al1 O47 1.889258 1_554
Al1 O7 1.904010 1_555
Al1 O4 1.906184 1_555
Al1 O9 1.908045 1_555
Al1 O13 1.919626 1_555
Al2 O20 1.881480 1_555
Al2 O24 1.889258 1_555
Al2 O16 1.904010 1_555
Al2 O18 1.906184 1_555
Al2 O14 1.908045 1_555
Al2 O10 1.919626 1_555
Al3 O21 1.881480 1_565
Al3 O25 1.889258 1_555
Al3 O17 1.904010 1_565
Al3 O19 1.906184 1_555
Al3 O15 1.908045 1_555
Al3 O11 1.919626 1_555
Al4 O26 1.881480 1_545
Al4 O22 1.889258 1_555
Al4 O30 1.904010 1_545
Al4 O28 1.906184 1_555
Al4 O32 1.908045 1_555
Al4 O36 1.919626 1_555
Al5 O27 1.881480 1_555
Al5 O23 1.889258 1_555
Al5 O31 1.904010 1_555
Al5 O29 1.906184 1_555
Al5 O33 1.908045 1_555
Al5 O37 1.919626 1_555
Al6 O44 1.881480 1_555
Al6 O1 1.889258 1_556
Al6 O40 1.904010 1_555
Al6 O42 1.906184 1_555
Al6 O38 1.908045 1_555
Al6 O34 1.919626 1_555
Al7 O45 1.881480 1_545
Al7 O0 1.889258 1_556
Al7 O41 1.904010 1_545
Al7 O43 1.906184 1_555
Al7 O39 1.908045 1_555
Al7 O35 1.919626 1_555
O0 Se3 1.651382 1_555
O1 Se2 1.651382 1_555
O2 Se1 1.641664 1_555
O3 Se0 1.641664 1_555
O4 Se0 1.666256 1_555
O5 Se1 1.666256 1_555
O6 Se3 1.660236 1_455
O7 Se2 1.660236 1_655
O8 Se2 1.669947 1_555
O9 Se3 1.669947 1_555
O10 Se2 1.658345 1_555
O11 Se3 1.658345 1_565
O12 Se4 1.658345 1_565
O13 Se5 1.658345 1_555
O14 Se4 1.669947 1_555
O15 Se5 1.669947 1_555
O16 Se5 1.660236 1_555
O17 Se4 1.660236 1_555
O18 Se7 1.666256 1_455
O19 Se6 1.666256 1_655
O20 Se6 1.641664 1_555
O21 Se7 1.641664 1_555
O22 Se4 1.651382 1_555
O23 Se5 1.651382 1_555
O24 Se8 1.651382 1_555
O25 Se9 1.651382 1_555
O26 Se6 1.641664 1_555
O27 Se7 1.641664 1_555
O28 Se7 1.666256 1_455
O29 Se6 1.666256 1_655
O30 Se9 1.660236 1_555
O31 Se8 1.660236 1_555
O32 Se8 1.669947 1_555
O33 Se9 1.669947 1_555
O34 Se8 1.658345 1_555
O35 Se9 1.658345 1_545
O36 Se10 1.658345 1_545
O37 Se11 1.658345 1_555
O38 Se10 1.669947 1_555
O39 Se11 1.669947 1_555
O40 Se11 1.660236 1_455
O41 Se10 1.660236 1_655
O42 Se1 1.666256 1_556
O43 Se0 1.666256 1_556
O44 Se0 1.641664 1_556
O45 Se1 1.641664 1_556
O46 Se10 1.651382 1_555
O47 Se11 1.651382 1_555
