# generated using pymatgen
data_ErTiO3
_symmetry_space_group_name_H-M   'P 1'
_cell_length_a   5.30388300
_cell_length_b   5.68893600
_cell_length_c   7.66029400
_cell_angle_alpha   90.00000000
_cell_angle_beta   90.00000000
_cell_angle_gamma   90.00000000
_symmetry_Int_Tables_number   1
_chemical_formula_structural   ErTiO3
_chemical_formula_sum   'Er4 Ti4 O12'
_cell_volume   231.13750518
_cell_formula_units_Z   4
loop_
 _symmetry_equiv_pos_site_id
 _symmetry_equiv_pos_as_xyz
  1  'x, y, z'
loop_
 _atom_site_type_symbol
 _atom_site_label
 _atom_site_symmetry_multiplicity
 _atom_site_fract_x
 _atom_site_fract_y
 _atom_site_fract_z
 _atom_site_occupancy
  Er  Er0  1  0.02306600  0.92605500  0.25000000  1
  Er  Er1  1  0.47693400  0.42605500  0.25000000  1
  Er  Er2  1  0.52306600  0.57394500  0.75000000  1
  Er  Er3  1  0.97693400  0.07394500  0.75000000  1
  Ti  Ti0  1  0.00000000  0.50000000  0.50000000  1
  Ti  Ti1  1  0.00000000  0.50000000  0.00000000  1
  Ti  Ti2  1  0.50000000  0.00000000  0.50000000  1
  Ti  Ti3  1  0.50000000  0.00000000  0.00000000  1
  O  O0  1  0.12704400  0.45103900  0.75000000  1
  O  O1  1  0.18741300  0.19492800  0.06064800  1
  O  O2  1  0.18741300  0.19492800  0.43935200  1
  O  O3  1  0.31258700  0.69492800  0.06064800  1
  O  O4  1  0.31258700  0.69492800  0.43935200  1
  O  O5  1  0.37295600  0.95103900  0.75000000  1
  O  O6  1  0.62704400  0.04896100  0.25000000  1
  O  O7  1  0.68741300  0.30507200  0.56064800  1
  O  O8  1  0.68741300  0.30507200  0.93935200  1
  O  O9  1  0.81258700  0.80507200  0.56064800  1
  O  O10  1  0.81258700  0.80507200  0.93935200  1
  O  O11  1  0.87295600  0.54896100  0.25000000  1
loop_
_geom_bond_atom_site_label_1
_geom_bond_atom_site_label_2
_geom_bond_distance
_geom_bond_site_symmetry_2
Er0 O6 2.213774 1_465
Er0 O2 2.281102 1_565
Er0 O1 2.281102 1_565
Er0 O11 2.288239 1_455
Er0 O4 2.488137 1_555
Er0 O3 2.488137 1_555
Er0 O9 2.717116 1_455
Er0 O10 2.717116 1_454
Er1 O11 2.213774 1_555
Er1 O4 2.281102 1_555
Er1 O3 2.281102 1_555
Er1 O6 2.288239 1_555
Er1 O2 2.488137 1_555
Er1 O1 2.488137 1_555
Er1 O7 2.717116 1_555
Er1 O8 2.717116 1_554
Er2 O0 2.213774 1_555
Er2 O8 2.281102 1_555
Er2 O7 2.281102 1_555
Er2 O5 2.288239 1_555
Er2 O10 2.488137 1_555
Er2 O9 2.488137 1_555
Er2 O3 2.717116 1_556
Er2 O4 2.717116 1_555
Er3 O5 2.213774 1_645
Er3 O10 2.281102 1_545
Er3 O9 2.281102 1_545
Er3 O0 2.288239 1_655
Er3 O8 2.488137 1_555
Er3 O7 2.488137 1_555
Er3 O1 2.717116 1_656
Er3 O2 2.717116 1_655
O0 Ti1 2.049178 1_556
O0 Ti0 2.049178 1_555
O1 Ti3 2.047995 1_555
O1 Ti1 2.053287 1_555
O2 Ti2 2.047995 1_555
O2 Ti0 2.053287 1_555
O3 Ti1 2.047995 1_555
O3 Ti3 2.053287 1_565
O4 Ti0 2.047995 1_555
O4 Ti2 2.053287 1_565
O5 Ti3 2.049178 1_566
O5 Ti2 2.049178 1_565
O6 Ti3 2.049178 1_555
O6 Ti2 2.049178 1_555
O7 Ti0 2.047995 1_655
O7 Ti2 2.053287 1_555
O8 Ti1 2.047995 1_656
O8 Ti3 2.053287 1_556
O9 Ti2 2.047995 1_565
O9 Ti0 2.053287 1_655
O10 Ti3 2.047995 1_566
O10 Ti1 2.053287 1_656
O11 Ti0 2.049178 1_655
O11 Ti1 2.049178 1_655
