# generated using pymatgen
data_Li2Mn(CO3)2
_symmetry_space_group_name_H-M   'P 1'
_cell_length_a   5.41301992
_cell_length_b   11.84382091
_cell_length_c   8.75455530
_cell_angle_alpha   90.00052193
_cell_angle_beta   72.01023860
_cell_angle_gamma   89.99757270
_symmetry_Int_Tables_number   1
_chemical_formula_structural   Li2Mn(CO3)2
_chemical_formula_sum   'Li8 Mn4 C8 O24'
_cell_volume   533.82275328
_cell_formula_units_Z   4
loop_
 _symmetry_equiv_pos_site_id
 _symmetry_equiv_pos_as_xyz
  1  'x, y, z'
loop_
 _atom_site_type_symbol
 _atom_site_label
 _atom_site_symmetry_multiplicity
 _atom_site_fract_x
 _atom_site_fract_y
 _atom_site_fract_z
 _atom_site_occupancy
  Li  Li0  1  0.49851200  0.27686600  0.17302600  1
  Li  Li1  1  0.99849700  0.77689300  0.17301700  1
  Li  Li2  1  0.17175600  0.02688800  0.32705300  1
  Li  Li3  1  0.67168300  0.52694000  0.32707800  1
  Li  Li4  1  0.99864400  0.47310200  0.67304500  1
  Li  Li5  1  0.49860100  0.97307900  0.67301200  1
  Li  Li6  1  0.17142900  0.22319900  0.82704700  1
  Li  Li7  1  0.67134900  0.72315900  0.82709200  1
  Mn  Mn0  1  0.38091400  0.49996900  0.00011300  1
  Mn  Mn1  1  0.88085300  0.24994700  0.49989700  1
  Mn  Mn2  1  0.88100900  0.00005800  0.99998300  1
  Mn  Mn3  1  0.38059700  0.75002600  0.50006200  1
  C  C0  1  0.95956500  0.19996900  0.19431300  1
  C  C1  1  0.45952500  0.69996100  0.19432700  1
  C  C2  1  0.15396800  0.44997900  0.30568700  1
  C  C3  1  0.65398000  0.94999600  0.30564000  1
  C  C4  1  0.95962700  0.05005500  0.69430700  1
  C  C5  1  0.45965200  0.55004400  0.69438300  1
  C  C6  1  0.65351500  0.30000300  0.80563800  1
  C  C7  1  0.15342800  0.80004100  0.80569100  1
  O  O0  1  0.98190700  0.17073900  0.04831900  1
  O  O1  1  0.48187200  0.67068300  0.04833700  1
  O  O2  1  0.03040200  0.42069800  0.45166000  1
  O  O3  1  0.53037900  0.92072600  0.45162300  1
  O  O4  1  0.98201000  0.07932600  0.54830300  1
  O  O5  1  0.48192200  0.57934800  0.54840200  1
  O  O6  1  0.52983900  0.32915500  0.95167600  1
  O  O7  1  0.02976000  0.82922000  0.95169500  1
  O  O8  1  0.40763600  0.44639600  0.24921500  1
  O  O9  1  0.90764300  0.94644300  0.24919500  1
  O  O10  1  0.15674400  0.19639600  0.25082400  1
  O  O11  1  0.65668200  0.69641700  0.25085200  1
  O  O12  1  0.90718200  0.30365600  0.74924600  1
  O  O13  1  0.40710700  0.80367800  0.74930000  1
  O  O14  1  0.15679300  0.05362500  0.75083300  1
  O  O15  1  0.65686300  0.55361600  0.75085800  1
  O  O16  1  0.02915200  0.48151100  0.20785600  1
  O  O17  1  0.52917500  0.98150100  0.20779200  1
  O  O18  1  0.73693600  0.23142600  0.29214600  1
  O  O19  1  0.23689800  0.73143600  0.29213900  1
  O  O20  1  0.52884000  0.26852700  0.70772100  1
  O  O21  1  0.02873700  0.76856500  0.70777300  1
  O  O22  1  0.73703600  0.01855700  0.79210200  1
  O  O23  1  0.23708900  0.51851900  0.79219800  1
loop_
_geom_bond_atom_site_label_1
_geom_bond_atom_site_label_2
_geom_bond_distance
_geom_bond_site_symmetry_2
Li0 O18 1.968271 1_555
Li0 O6 1.991104 1_554
Li0 O10 2.004140 1_555
Li0 O8 2.125014 1_555
Li1 O19 1.968237 1_655
Li1 O7 1.991086 1_654
Li1 O11 2.004399 1_555
Li1 O9 2.125199 1_555
Li2 O17 1.968338 1_545
Li2 O4 1.990848 1_455
Li2 O9 2.004570 1_445
Li2 O10 2.125092 1_555
Li3 O16 1.968618 1_655
Li3 O5 1.991282 1_555
Li3 O8 2.004859 1_555
Li3 O11 2.124728 1_555
Li4 O23 1.968526 1_655
Li4 O2 1.991301 1_655
Li4 O15 2.004372 1_555
Li4 O12 2.124580 1_555
Li5 O22 1.968276 1_565
Li5 O3 1.991123 1_555
Li5 O14 2.004676 1_565
Li5 O13 2.124285 1_555
Li6 O20 1.968291 1_555
Li6 O0 1.990863 1_456
Li6 O12 2.004899 1_455
Li6 O14 2.125508 1_555
Li7 O21 1.968427 1_655
Li7 O1 1.990678 1_556
Li7 O13 2.005182 1_555
Li7 O15 2.125110 1_555
Mn0 O1 2.169695 1_555
Mn0 O6 2.170543 1_554
Mn0 O16 2.200458 1_555
Mn0 O23 2.200643 1_554
Mn0 O8 2.318227 1_555
Mn0 O15 2.320192 1_554
Mn1 O4 2.169404 1_555
Mn1 O2 2.170832 1_655
Mn1 O18 2.199571 1_555
Mn1 O20 2.201808 1_555
Mn1 O10 2.318543 1_655
Mn1 O12 2.319987 1_555
Mn2 O0 2.169497 1_556
Mn2 O7 2.170410 1_645
Mn2 O22 2.200792 1_555
Mn2 O17 2.201135 1_546
Mn2 O14 2.318936 1_655
Mn2 O9 2.319120 1_546
Mn3 O5 2.170160 1_555
Mn3 O3 2.170805 1_555
Mn3 O19 2.200344 1_555
Mn3 O21 2.200701 1_555
Mn3 O13 2.319214 1_555
Mn3 O11 2.319992 1_555
C0 O0 1.293274 1_555
C0 O18 1.298859 1_555
C0 O10 1.308401 1_655
C1 O1 1.293387 1_555
C1 O19 1.298844 1_555
C1 O11 1.308356 1_555
C2 O2 1.293367 1_555
C2 O16 1.298808 1_555
C2 O8 1.308558 1_555
C3 O3 1.293445 1_555
C3 O17 1.298795 1_555
C3 O9 1.308509 1_555
C4 O4 1.293450 1_555
C4 O22 1.298759 1_555
C4 O14 1.308420 1_655
C5 O5 1.293492 1_555
C5 O23 1.298807 1_555
C5 O15 1.308366 1_555
C6 O6 1.293535 1_555
C6 O20 1.298695 1_555
C6 O12 1.308547 1_555
C7 O7 1.293364 1_555
C7 O21 1.298765 1_555
C7 O13 1.308601 1_555
