# generated using pymatgen
data_LiMn2(BO3)2
_symmetry_space_group_name_H-M   'P 1'
_cell_length_a   5.31082000
_cell_length_b   5.76890363
_cell_length_c   9.14836689
_cell_angle_alpha   103.21677023
_cell_angle_beta   90.07294462
_cell_angle_gamma   114.09217654
_symmetry_Int_Tables_number   1
_chemical_formula_structural   LiMn2(BO3)2
_chemical_formula_sum   'Li2 Mn4 B4 O12'
_cell_volume   247.67574269
_cell_formula_units_Z   2
loop_
 _symmetry_equiv_pos_site_id
 _symmetry_equiv_pos_as_xyz
  1  'x, y, z'
loop_
 _atom_site_type_symbol
 _atom_site_label
 _atom_site_symmetry_multiplicity
 _atom_site_fract_x
 _atom_site_fract_y
 _atom_site_fract_z
 _atom_site_occupancy
  Li  Li0  1  0.81898600  0.33076600  0.21810500  1
  Li  Li1  1  0.18101400  0.66923400  0.78189500  1
  Mn  Mn0  1  0.28784900  0.25477100  0.05110700  1
  Mn  Mn1  1  0.78564300  0.24806000  0.56055100  1
  Mn  Mn2  1  0.71215100  0.74522900  0.94889300  1
  Mn  Mn3  1  0.21435700  0.75194000  0.43944900  1
  B  B0  1  0.30032800  0.25356200  0.37637900  1
  B  B1  1  0.69967200  0.74643800  0.62362100  1
  B  B2  1  0.80527700  0.25868200  0.88844400  1
  B  B3  1  0.19472300  0.74131800  0.11155600  1
  O  O0  1  0.36795800  0.15106200  0.48738400  1
  O  O1  1  0.44771600  0.27066100  0.25469500  1
  O  O2  1  0.60363600  0.35303400  0.91483900  1
  O  O3  1  0.08885700  0.34358700  0.39653400  1
  O  O4  1  0.86261500  0.15079400  0.00280300  1
  O  O5  1  0.55228400  0.72933900  0.74530500  1
  O  O6  1  0.95987900  0.29407700  0.77094600  1
  O  O7  1  0.63204200  0.84893800  0.51261600  1
  O  O8  1  0.39636400  0.64696600  0.08516100  1
  O  O9  1  0.91114300  0.65641300  0.60346600  1
  O  O10  1  0.04012100  0.70592300  0.22905400  1
  O  O11  1  0.13738500  0.84920600  0.99719700  1
loop_
_geom_bond_atom_site_label_1
_geom_bond_atom_site_label_2
_geom_bond_distance
_geom_bond_site_symmetry_2
Li0 O1 1.901751 1_555
Li0 O10 1.974517 1_655
Li0 O4 2.067281 1_555
Li0 O3 2.139262 1_655
Li1 O5 1.901751 1_555
Li1 O6 1.974517 1_455
Li1 O11 2.067281 1_555
Li1 O9 2.139262 1_455
Mn0 O1 2.013084 1_555
Mn0 O8 2.039841 1_555
Mn0 O2 2.059214 1_554
Mn0 O11 2.073837 1_544
Mn0 O4 2.103687 1_455
Mn1 O7 2.040389 1_545
Mn1 O6 2.047615 1_555
Mn1 O9 2.107717 1_555
Mn1 O0 2.119753 1_555
Mn1 O3 2.192725 1_655
Mn2 O5 2.013084 1_555
Mn2 O2 2.039841 1_555
Mn2 O8 2.059214 1_556
Mn2 O4 2.073837 1_566
Mn2 O11 2.103687 1_655
Mn3 O0 2.040389 1_565
Mn3 O10 2.047615 1_555
Mn3 O3 2.107717 1_555
Mn3 O7 2.119753 1_555
Mn3 O9 2.192725 1_455
B0 O1 1.360537 1_555
B0 O0 1.398918 1_555
B0 O3 1.413493 1_555
B1 O5 1.360537 1_555
B1 O7 1.398918 1_555
B1 O9 1.413493 1_555
B2 O6 1.355367 1_555
B2 O2 1.384845 1_555
B2 O4 1.423484 1_556
B3 O10 1.355367 1_555
B3 O8 1.384845 1_555
B3 O11 1.423484 1_554
