# generated using pymatgen
data_Sm2Mn2O7
_symmetry_space_group_name_H-M   'P 1'
_cell_length_a   7.11048778
_cell_length_b   7.11048778
_cell_length_c   7.11048778
_cell_angle_alpha   60.00000000
_cell_angle_beta   60.00000000
_cell_angle_gamma   60.00000000
_symmetry_Int_Tables_number   1
_chemical_formula_structural   Sm2Mn2O7
_chemical_formula_sum   'Sm4 Mn4 O14'
_cell_volume   254.20447183
_cell_formula_units_Z   2
loop_
 _symmetry_equiv_pos_site_id
 _symmetry_equiv_pos_as_xyz
  1  'x, y, z'
loop_
 _atom_site_type_symbol
 _atom_site_label
 _atom_site_symmetry_multiplicity
 _atom_site_fract_x
 _atom_site_fract_y
 _atom_site_fract_z
 _atom_site_occupancy
  Sm  Sm0  1  0.12500000  0.62500000  0.12500000  1
  Sm  Sm1  1  0.12500000  0.12500000  0.62500000  1
  Sm  Sm2  1  0.62500000  0.12500000  0.12500000  1
  Sm  Sm3  1  0.12500000  0.12500000  0.12500000  1
  Mn  Mn0  1  0.62500000  0.62500000  0.62500000  1
  Mn  Mn1  1  0.12500000  0.62500000  0.62500000  1
  Mn  Mn2  1  0.62500000  0.62500000  0.12500000  1
  Mn  Mn3  1  0.62500000  0.12500000  0.62500000  1
  O  O0  1  0.30012510  0.69987490  0.69987490  1
  O  O1  1  0.55012510  0.94987490  0.94987490  1
  O  O2  1  0.69987490  0.69987490  0.30012510  1
  O  O3  1  0.30012510  0.30012510  0.69987490  1
  O  O4  1  -0.00000000  -0.00000000  -0.00000000  1
  O  O5  1  0.30012510  0.69987490  0.30012510  1
  O  O6  1  0.69987490  0.30012510  0.69987490  1
  O  O7  1  0.94987490  0.55012510  0.94987490  1
  O  O8  1  0.55012510  0.55012510  0.94987490  1
  O  O9  1  0.94987490  0.94987490  0.55012510  1
  O  O10  1  0.25000000  0.25000000  0.25000000  1
  O  O11  1  0.55012510  0.94987490  0.55012510  1
  O  O12  1  0.69987490  0.30012510  0.30012510  1
  O  O13  1  0.94987490  0.55012510  0.55012510  1
loop_
_geom_bond_atom_site_label_1
_geom_bond_atom_site_label_2
_geom_bond_distance
_geom_bond_site_symmetry_2
Mn0 O8 1.930501 1_555
Mn0 O11 1.930501 1_555
Mn0 O13 1.930501 1_555
Mn0 O2 1.930501 1_555
Mn0 O6 1.930501 1_555
Mn0 O0 1.930501 1_555
Mn1 O0 1.930501 1_555
Mn1 O9 1.930501 1_455
Mn1 O13 1.930501 1_455
Mn1 O7 1.930501 1_455
Mn1 O3 1.930501 1_555
Mn1 O5 1.930501 1_555
Mn2 O2 1.930501 1_555
Mn2 O8 1.930501 1_554
Mn2 O7 1.930501 1_554
Mn2 O1 1.930501 1_554
Mn2 O12 1.930501 1_555
Mn2 O5 1.930501 1_555
Mn3 O6 1.930501 1_555
Mn3 O1 1.930501 1_545
Mn3 O11 1.930501 1_545
Mn3 O9 1.930501 1_545
Mn3 O12 1.930501 1_555
Mn3 O3 1.930501 1_555
O0 Sm0 2.502221 1_556
O0 Sm1 2.502221 1_565
O1 Sm2 2.502221 1_566
O1 Sm3 2.502221 1_566
O2 Sm2 2.502221 1_565
O2 Sm0 2.502221 1_655
O3 Sm1 2.502221 1_555
O3 Sm3 2.502221 1_556
O4 Sm2 2.177133 1_455
O4 Sm0 2.177133 1_545
O4 Sm3 2.177133 1_555
O4 Sm1 2.177133 1_554
O5 Sm0 2.502221 1_555
O5 Sm3 2.502221 1_565
O6 Sm1 2.502221 1_655
O6 Sm2 2.502221 1_556
O7 Sm3 2.502221 1_656
O7 Sm0 2.502221 1_656
O8 Sm0 2.502221 1_556
O8 Sm2 2.502221 1_556
O9 Sm1 2.502221 1_665
O9 Sm3 2.502221 1_665
O10 Sm2 2.177133 1_555
O10 Sm1 2.177133 1_555
O10 Sm3 2.177133 1_555
O10 Sm0 2.177133 1_555
O11 Sm2 2.502221 1_565
O11 Sm1 2.502221 1_565
O12 Sm2 2.502221 1_555
O12 Sm3 2.502221 1_655
O13 Sm1 2.502221 1_655
O13 Sm0 2.502221 1_655
