# generated using pymatgen
data_Cs4La(NO3)8
_symmetry_space_group_name_H-M   'P 1'
_cell_length_a   13.68835400
_cell_length_b   7.96752100
_cell_length_c   11.52651906
_cell_angle_alpha   85.64968028
_cell_angle_beta   90.00000000
_cell_angle_gamma   90.00000000
_symmetry_Int_Tables_number   1
_chemical_formula_structural   Cs4La(NO3)8
_chemical_formula_sum   'Cs8 La2 N16 O48'
_cell_volume   1253.48622499
_cell_formula_units_Z   2
loop_
 _symmetry_equiv_pos_site_id
 _symmetry_equiv_pos_as_xyz
  1  'x, y, z'
loop_
 _atom_site_type_symbol
 _atom_site_label
 _atom_site_symmetry_multiplicity
 _atom_site_fract_x
 _atom_site_fract_y
 _atom_site_fract_z
 _atom_site_occupancy
  Cs  Cs0  1  0.66297900  0.99271000  0.39422500  1
  Cs  Cs1  1  0.16297900  0.00729000  0.10577500  1
  Cs  Cs2  1  0.33702100  0.00729000  0.60577500  1
  Cs  Cs3  1  0.83702100  0.99271000  0.89422500  1
  Cs  Cs4  1  0.40141900  0.48495000  0.22304600  1
  Cs  Cs5  1  0.90141900  0.51505000  0.27695400  1
  Cs  Cs6  1  0.59858100  0.51505000  0.77695400  1
  Cs  Cs7  1  0.09858100  0.48495000  0.72304600  1
  La  La0  1  0.50000000  0.00000000  0.00000000  1
  La  La1  1  0.00000000  0.00000000  0.50000000  1
  N  N0  1  0.66599200  0.21645300  0.09323200  1
  N  N1  1  0.16599200  0.78354700  0.40676800  1
  N  N2  1  0.33400800  0.78354700  0.90676800  1
  N  N3  1  0.83400800  0.21645300  0.59323200  1
  N  N4  1  0.57439600  0.99339500  0.74574600  1
  N  N5  1  0.07439600  0.00660500  0.75425400  1
  N  N6  1  0.42560400  0.00660500  0.25425400  1
  N  N7  1  0.92560400  0.99339500  0.24574600  1
  N  N8  1  0.63397000  0.71262800  0.10194100  1
  N  N9  1  0.13397000  0.28737200  0.39805900  1
  N  N10  1  0.36603000  0.28737200  0.89805900  1
  N  N11  1  0.86603000  0.71262800  0.60194100  1
  N  N12  1  0.13928300  0.47974500  0.06353000  1
  N  N13  1  0.63928300  0.52025500  0.43647000  1
  N  N14  1  0.86071700  0.52025500  0.93647000  1
  N  N15  1  0.36071700  0.47974500  0.56353000  1
  O  O0  1  0.65711600  0.20430800  0.98293400  1
  O  O1  1  0.15711600  0.79569200  0.51706600  1
  O  O2  1  0.34288400  0.79569200  0.01706600  1
  O  O3  1  0.84288400  0.20430800  0.48293400  1
  O  O4  1  0.08864300  0.81239800  0.34555700  1
  O  O5  1  0.58864300  0.18760200  0.15444300  1
  O  O6  1  0.91135700  0.18760200  0.65444300  1
  O  O7  1  0.41135700  0.81239800  0.84555700  1
  O  O8  1  0.74573800  0.24811800  0.13800700  1
  O  O9  1  0.24573800  0.75188200  0.36199300  1
  O  O10  1  0.25426200  0.75188200  0.86199300  1
  O  O11  1  0.75426200  0.24811800  0.63800700  1
  O  O12  1  0.38310400  0.09517900  0.17108900  1
  O  O13  1  0.88310400  0.90482100  0.32891100  1
  O  O14  1  0.61689600  0.90482100  0.82891100  1
  O  O15  1  0.11689600  0.09517900  0.67108900  1
  O  O16  1  0.52327200  0.11881600  0.77436300  1
  O  O17  1  0.02327200  0.88118400  0.72563700  1
  O  O18  1  0.47672800  0.88118400  0.22563700  1
  O  O19  1  0.97672800  0.11881600  0.27436300  1
  O  O20  1  0.92009100  0.95585200  0.14357900  1
  O  O21  1  0.42009100  0.04414800  0.35642100  1
  O  O22  1  0.07990900  0.04414800  0.85642100  1
  O  O23  1  0.57990900  0.95585200  0.64357900  1
  O  O24  1  0.33596400  0.13434700  0.90526700  1
  O  O25  1  0.83596400  0.86565300  0.59473300  1
  O  O26  1  0.66403600  0.86565300  0.09473300  1
  O  O27  1  0.16403600  0.13434700  0.40526700  1
  O  O28  1  0.94272800  0.68239000  0.54174200  1
  O  O29  1  0.44272800  0.31761000  0.95825800  1
  O  O30  1  0.05727200  0.31761000  0.45825800  1
  O  O31  1  0.55727200  0.68239000  0.04174200  1
  O  O32  1  0.17461500  0.39914000  0.33564600  1
  O  O33  1  0.67461500  0.60086000  0.16435400  1
  O  O34  1  0.82538500  0.60086000  0.66435400  1
  O  O35  1  0.32538500  0.39914000  0.83564600  1
  O  O36  1  0.12092100  0.61468500  0.10561600  1
  O  O37  1  0.62092100  0.38531500  0.39438400  1
  O  O38  1  0.87907900  0.38531500  0.89438400  1
  O  O39  1  0.37907900  0.61468500  0.60561600  1
  O  O40  1  0.42671100  0.40342200  0.50906600  1
  O  O41  1  0.92671100  0.59657800  0.99093400  1
  O  O42  1  0.57328900  0.59657800  0.49093400  1
  O  O43  1  0.07328900  0.40342200  0.00906600  1
  O  O44  1  0.22178500  0.40911700  0.07279800  1
  O  O45  1  0.72178500  0.59088300  0.42720200  1
  O  O46  1  0.77821500  0.59088300  0.92720200  1
  O  O47  1  0.27821500  0.40911700  0.57279800  1
loop_
_geom_bond_atom_site_label_1
_geom_bond_atom_site_label_2
_geom_bond_distance
_geom_bond_site_symmetry_2
Cs0 O23 3.084169 1_555
Cs0 O37 3.180762 1_565
Cs0 O3 3.195897 1_565
Cs0 O13 3.196276 1_555
Cs0 O5 3.230228 1_565
Cs0 O45 3.295123 1_555
Cs0 O18 3.365634 1_555
Cs0 O21 3.374111 1_565
Cs0 O25 3.408545 1_555
Cs0 O42 3.489649 1_555
Cs0 O8 3.637946 1_565
Cs0 O26 3.670448 1_555
Cs1 O22 3.084169 1_554
Cs1 O36 3.180762 1_545
Cs1 O2 3.195897 1_545
Cs1 O12 3.196276 1_555
Cs1 O4 3.230228 1_545
Cs1 O44 3.295123 1_555
Cs1 O19 3.365634 1_455
Cs1 O20 3.374111 1_445
Cs1 O24 3.408545 1_554
Cs1 O43 3.489649 1_555
Cs1 O9 3.637946 1_545
Cs1 O27 3.670448 1_555
Cs2 O21 3.084169 1_555
Cs2 O39 3.180762 1_545
Cs2 O1 3.195897 1_545
Cs2 O15 3.196276 1_555
Cs2 O7 3.230228 1_545
Cs2 O47 3.295123 1_555
Cs2 O16 3.365634 1_555
Cs2 O23 3.374111 1_545
Cs2 O27 3.408545 1_555
Cs2 O40 3.489649 1_555
Cs2 O10 3.637946 1_545
Cs2 O24 3.670448 1_555
Cs3 O20 3.084169 1_556
Cs3 O38 3.180762 1_565
Cs3 O0 3.195897 1_565
Cs3 O14 3.196276 1_555
Cs3 O6 3.230228 1_565
Cs3 O46 3.295123 1_555
Cs3 O17 3.365634 1_655
Cs3 O22 3.374111 1_665
Cs3 O26 3.408545 1_556
Cs3 O41 3.489649 1_555
Cs3 O11 3.637946 1_565
Cs3 O25 3.670448 1_555
Cs4 O44 3.093416 1_555
Cs4 O12 3.216808 1_555
Cs4 O31 3.300678 1_555
Cs4 O18 3.323331 1_555
Cs4 O40 3.329551 1_555
Cs4 O2 3.393670 1_555
Cs4 O32 3.414045 1_555
Cs4 O29 3.468422 1_554
Cs4 O9 3.485147 1_555
Cs4 O5 3.618031 1_555
Cs4 O37 3.649718 1_555
Cs5 O45 3.093416 1_555
Cs5 O13 3.216808 1_555
Cs5 O30 3.300678 1_655
Cs5 O19 3.323331 1_555
Cs5 O41 3.329551 1_554
Cs5 O3 3.393670 1_555
Cs5 O33 3.414045 1_555
Cs5 O28 3.468422 1_555
Cs5 O8 3.485147 1_555
Cs5 O4 3.618031 1_655
Cs5 O36 3.649718 1_655
Cs6 O46 3.093416 1_555
Cs6 O14 3.216808 1_555
Cs6 O29 3.300678 1_555
Cs6 O16 3.323331 1_555
Cs6 O42 3.329551 1_555
Cs6 O0 3.393670 1_555
Cs6 O34 3.414045 1_555
Cs6 O31 3.468422 1_556
Cs6 O11 3.485147 1_555
Cs6 O7 3.618031 1_555
Cs6 O39 3.649718 1_555
Cs7 O47 3.093416 1_555
Cs7 O15 3.216808 1_555
Cs7 O28 3.300678 1_455
Cs7 O17 3.323331 1_555
Cs7 O43 3.329551 1_556
Cs7 O1 3.393670 1_555
Cs7 O35 3.414045 1_555
Cs7 O30 3.468422 1_555
Cs7 O10 3.485147 1_555
Cs7 O6 3.618031 1_455
Cs7 O38 3.649718 1_455
La0 O31 2.658031 1_545
La0 O29 2.658031 1_554
La0 O26 2.683755 1_545
La0 O24 2.683755 1_554
La0 O12 2.692833 1_555
La0 O14 2.692833 1_544
La0 O0 2.695418 1_554
La0 O2 2.695418 1_545
La0 O5 2.698006 1_555
La0 O7 2.698006 1_544
La0 O18 2.718151 1_545
La0 O16 2.718151 1_554
La1 O30 2.658031 1_555
La1 O28 2.658031 1_445
La1 O27 2.683755 1_555
La1 O25 2.683755 1_445
La1 O15 2.692833 1_555
La1 O13 2.692833 1_445
La1 O3 2.695418 1_455
La1 O1 2.695418 1_545
La1 O6 2.698006 1_455
La1 O4 2.698006 1_545
La1 O17 2.718151 1_545
La1 O19 2.718151 1_455
N0 O8 1.241505 1_555
N0 O5 1.283375 1_555
N0 O0 1.288070 1_554
N1 O9 1.241505 1_555
N1 O4 1.283375 1_555
N1 O1 1.288070 1_555
N2 O10 1.241505 1_555
N2 O7 1.283375 1_555
N2 O2 1.288070 1_556
N3 O11 1.241505 1_555
N3 O6 1.283375 1_555
N3 O3 1.288070 1_555
N4 O23 1.239122 1_555
N4 O16 1.283404 1_565
N4 O14 1.285598 1_555
N5 O22 1.239122 1_555
N5 O17 1.283404 1_545
N5 O15 1.285598 1_555
N6 O21 1.239122 1_555
N6 O18 1.283404 1_545
N6 O12 1.285598 1_555
N7 O20 1.239122 1_555
N7 O19 1.283404 1_565
N7 O13 1.285598 1_555
N8 O33 1.234061 1_555
N8 O26 1.283524 1_555
N8 O31 1.291165 1_555
N9 O32 1.234061 1_555
N9 O27 1.283524 1_555
N9 O30 1.291165 1_555
N10 O35 1.234061 1_555
N10 O24 1.283524 1_555
N10 O29 1.291165 1_555
N11 O34 1.234061 1_555
N11 O25 1.283524 1_555
N11 O28 1.291165 1_555
N12 O36 1.238364 1_555
N12 O44 1.262661 1_555
N12 O43 1.279787 1_555
N13 O37 1.238364 1_555
N13 O45 1.262661 1_555
N13 O42 1.279787 1_555
N14 O38 1.238364 1_555
N14 O46 1.262661 1_555
N14 O41 1.279787 1_555
N15 O39 1.238364 1_555
N15 O47 1.262661 1_555
N15 O40 1.279787 1_555
