# generated using pymatgen
data_Na2FePCO7
_symmetry_space_group_name_H-M   'P 1'
_cell_length_a   10.34180915
_cell_length_b   8.38652461
_cell_length_c   8.41347653
_cell_angle_alpha   77.44209057
_cell_angle_beta   71.00623577
_cell_angle_gamma   107.74020942
_symmetry_Int_Tables_number   1
_chemical_formula_structural   Na2FePCO7
_chemical_formula_sum   'Na8 Fe4 P4 C4 O28'
_cell_volume   615.22955972
_cell_formula_units_Z   4
loop_
 _symmetry_equiv_pos_site_id
 _symmetry_equiv_pos_as_xyz
  1  'x, y, z'
loop_
 _atom_site_type_symbol
 _atom_site_label
 _atom_site_symmetry_multiplicity
 _atom_site_fract_x
 _atom_site_fract_y
 _atom_site_fract_z
 _atom_site_occupancy
  Na  Na0  1  0.91871200  0.72213500  0.53959700  1
  Na  Na1  1  0.91011700  0.18344000  0.07612400  1
  Na  Na2  1  0.74303100  0.49416000  0.00672100  1
  Na  Na3  1  0.74264700  0.24300000  0.75427800  1
  Na  Na4  1  0.26289100  0.75135700  0.23860400  1
  Na  Na5  1  0.26323400  0.25277400  0.73821900  1
  Na  Na6  1  0.08010900  0.27963300  0.43770100  1
  Na  Na7  1  0.08282700  0.79526500  0.94914500  1
  Fe  Fe0  1  0.65420800  0.31006800  0.43879100  1
  Fe  Fe1  1  0.65409900  0.81123600  0.93901800  1
  Fe  Fe2  1  0.34234000  0.19557100  0.06911500  1
  Fe  Fe3  1  0.34837600  0.69685000  0.56542000  1
  P  P0  1  0.57474000  0.55424800  0.69503300  1
  P  P1  1  0.57623200  0.06087600  0.18835100  1
  P  P2  1  0.42416500  0.44579900  0.31031900  1
  P  P3  1  0.42385600  0.94364400  0.80831100  1
  C  C0  1  0.93650100  0.48107000  0.27536600  1
  C  C1  1  0.93635000  0.97752500  0.77258100  1
  C  C2  1  0.06466400  0.01942400  0.22309200  1
  C  C3  1  0.06351000  0.51855900  0.72437700  1
  O  O0  1  0.92433100  0.93983100  0.30589700  1
  O  O1  1  0.92088700  0.43314700  0.81216100  1
  O  O2  1  0.87245800  0.33982600  0.42351100  1
  O  O3  1  0.87286700  0.82242400  0.90483900  1
  O  O4  1  0.84316000  0.52000700  0.21593700  1
  O  O5  1  0.84251600  0.02893900  0.72432500  1
  O  O6  1  0.68014300  0.99482800  0.06566800  1
  O  O7  1  0.67090000  0.66249700  0.77558900  1
  O  O8  1  0.67781600  0.47885200  0.58334600  1
  O  O9  1  0.67276600  0.18029800  0.25994000  1
  O  O10  1  0.56835500  0.59347900  0.15272100  1
  O  O11  1  0.56839100  0.09700100  0.65644500  1
  O  O12  1  0.53387600  0.18507300  0.06410100  1
  O  O13  1  0.52653700  0.67139500  0.57748800  1
  O  O14  1  0.46942900  0.82826400  0.93434400  1
  O  O15  1  0.46944100  0.33037500  0.43633300  1
  O  O16  1  0.43328500  0.90536300  0.33761700  1
  O  O17  1  0.43048900  0.39781200  0.84479700  1
  O  O18  1  0.32700100  0.82773600  0.73511300  1
  O  O19  1  0.32369700  0.52356900  0.42026400  1
  O  O20  1  0.32492600  0.32588300  0.24168000  1
  O  O21  1  0.32090400  0.01657200  0.92240900  1
  O  O22  1  0.15817700  0.96931500  0.27482400  1
  O  O23  1  0.15630900  0.46924000  0.77455700  1
  O  O24  1  0.13159900  0.16582500  0.07797600  1
  O  O25  1  0.12464300  0.66274000  0.58156400  1
  O  O26  1  0.07644800  0.57106700  0.19608900  1
  O  O27  1  0.07604100  0.06954300  0.69784100  1
loop_
_geom_bond_atom_site_label_1
_geom_bond_atom_site_label_2
_geom_bond_distance
_geom_bond_site_symmetry_2
Na0 O0 2.345765 1_555
Na0 O25 2.442927 1_655
Na0 O7 2.497046 1_555
Na0 O8 2.546333 1_555
Na0 O22 2.581686 1_655
Na1 O24 2.344570 1_655
Na1 O9 2.426834 1_555
Na1 O6 2.463828 1_545
Na1 O0 2.565800 1_545
Na1 O1 2.646609 1_554
Na1 O23 2.845442 1_654
Na2 O1 2.302711 1_554
Na2 O10 2.320228 1_555
Na2 O4 2.330948 1_555
Na2 O3 2.467513 1_554
Na2 O7 2.592934 1_554
Na2 O12 2.643923 1_555
Na2 O9 2.717257 1_555
Na3 O1 2.304060 1_555
Na3 O11 2.341691 1_555
Na3 O5 2.347407 1_555
Na3 O2 2.475338 1_555
Na3 O8 2.574683 1_555
Na3 O12 2.615166 1_556
Na3 O6 2.705555 1_546
Na4 O26 2.244859 1_555
Na4 O16 2.346027 1_555
Na4 O22 2.416731 1_555
Na4 O14 2.532722 1_554
Na4 O19 2.543404 1_555
Na4 O25 2.580125 1_555
Na4 O21 2.821192 1_564
Na5 O27 2.250943 1_555
Na5 O17 2.340356 1_555
Na5 O23 2.420035 1_555
Na5 O15 2.516374 1_555
Na5 O24 2.551820 1_556
Na5 O21 2.582232 1_555
Na5 O19 2.847578 1_555
Na6 O2 2.383716 1_455
Na6 O20 2.384532 1_555
Na6 O27 2.472741 1_555
Na6 O19 2.653506 1_555
Na6 O5 2.657677 1_455
Na6 O26 2.837848 1_555
Na7 O3 2.386841 1_455
Na7 O26 2.448012 1_556
Na7 O18 2.470071 1_555
Na7 O21 2.496121 1_565
Na7 O4 2.673807 1_456
Na7 O27 2.801165 1_565
Fe0 O11 1.971489 1_555
Fe0 O15 1.975649 1_555
Fe0 O9 2.033965 1_555
Fe0 O8 2.067305 1_555
Fe0 O4 2.125288 1_555
Fe0 O2 2.151094 1_555
Fe1 O14 1.970281 1_555
Fe1 O10 1.975255 1_556
Fe1 O7 2.049211 1_555
Fe1 O6 2.055769 1_556
Fe1 O5 2.121296 1_565
Fe1 O3 2.155368 1_555
Fe2 O17 1.953336 1_554
Fe2 O20 1.993600 1_555
Fe2 O12 1.996675 1_555
Fe2 O24 2.091072 1_555
Fe2 O22 2.108852 1_545
Fe2 O21 2.146452 1_554
Fe3 O13 1.950068 1_555
Fe3 O18 1.978897 1_555
Fe3 O16 2.003425 1_555
Fe3 O19 2.101696 1_555
Fe3 O23 2.153848 1_555
Fe3 O25 2.197530 1_555
C0 O26 1.263431 1_655
C0 O4 1.312914 1_555
C0 O2 1.318283 1_555
C1 O27 1.263426 1_665
C1 O5 1.314452 1_565
C1 O3 1.317513 1_555
C2 O0 1.259547 1_445
C2 O22 1.320391 1_545
C2 O24 1.325663 1_555
C3 O1 1.284961 1_455
C3 O23 1.303868 1_555
C3 O25 1.308970 1_555
O6 P1 1.554480 1_565
O7 P0 1.558396 1_555
O8 P0 1.560850 1_555
O9 P1 1.551430 1_555
O10 P2 1.545658 1_555
O11 P3 1.546496 1_545
O12 P1 1.572324 1_555
O13 P0 1.545522 1_555
O14 P3 1.562017 1_555
O15 P2 1.559939 1_555
O16 P1 1.538795 1_565
O17 P0 1.548958 1_555
O18 P3 1.547901 1_555
O19 P2 1.552522 1_555
O20 P2 1.551632 1_555
O21 P3 1.554364 1_545
