# generated using pymatgen
data_TiMn3Te2(PO4)6
_symmetry_space_group_name_H-M   'P 1'
_cell_length_a   8.89045184
_cell_length_b   8.89045184
_cell_length_c   8.89045173
_cell_angle_alpha   59.83388028
_cell_angle_beta   59.83388028
_cell_angle_gamma   59.83388416
_symmetry_Int_Tables_number   1
_chemical_formula_structural   TiMn3Te2(PO4)6
_chemical_formula_sum   'Ti1 Mn3 Te2 P6 O24'
_cell_volume   495.01232252
_cell_formula_units_Z   1
loop_
 _symmetry_equiv_pos_site_id
 _symmetry_equiv_pos_as_xyz
  1  'x, y, z'
loop_
 _atom_site_type_symbol
 _atom_site_label
 _atom_site_symmetry_multiplicity
 _atom_site_fract_x
 _atom_site_fract_y
 _atom_site_fract_z
 _atom_site_occupancy
  Ti  Ti0  1  0.14678800  0.14678800  0.14678800  1
  Mn  Mn0  1  0.83751800  0.83751800  0.83751800  1
  Mn  Mn1  1  0.65106800  0.65106800  0.65106800  1
  Mn  Mn2  1  0.34397000  0.34397000  0.34397000  1
  Te  Te0  1  0.98133400  0.98133400  0.98133400  1
  Te  Te1  1  0.48880100  0.48880100  0.48880100  1
  P  P0  1  0.54365400  0.95568900  0.25161500  1
  P  P1  1  0.25161500  0.54365400  0.95568900  1
  P  P2  1  0.95568900  0.25161500  0.54365400  1
  P  P3  1  0.05694400  0.75594100  0.44649300  1
  P  P4  1  0.75594100  0.44649300  0.05694400  1
  P  P5  1  0.44649300  0.05694400  0.75594100  1
  O  O0  1  0.47206600  0.90833900  0.70036800  1
  O  O1  1  0.90833900  0.70036800  0.47206600  1
  O  O2  1  0.74506500  0.93564600  0.08159600  1
  O  O3  1  0.70036800  0.47206600  0.90833900  1
  O  O4  1  0.55996200  0.76022300  0.39485900  1
  O  O5  1  0.39251600  0.02084600  0.17223900  1
  O  O6  1  0.08159600  0.74506500  0.93564600  1
  O  O7  1  0.39485900  0.55996200  0.76022300  1
  O  O8  1  0.76022300  0.39485900  0.55996200  1
  O  O9  1  0.03247700  0.80298900  0.59949000  1
  O  O10  1  0.08942200  0.91557900  0.25451700  1
  O  O11  1  0.80298900  0.59949000  0.03247700  1
  O  O12  1  0.17223900  0.39251600  0.02084600  1
  O  O13  1  0.93564600  0.08159600  0.74506500  1
  O  O14  1  0.02084600  0.17223900  0.39251600  1
  O  O15  1  0.25645800  0.59227700  0.41992200  1
  O  O16  1  0.59227700  0.41992200  0.25645800  1
  O  O17  1  0.91557900  0.25451700  0.08942200  1
  O  O18  1  0.59949000  0.03247700  0.80298900  1
  O  O19  1  0.41992200  0.25645800  0.59227700  1
  O  O20  1  0.31473200  0.52483000  0.09376500  1
  O  O21  1  0.25451700  0.08942200  0.91557900  1
  O  O22  1  0.09376500  0.31473200  0.52483000  1
  O  O23  1  0.52483000  0.09376500  0.31473200  1
loop_
_geom_bond_atom_site_label_1
_geom_bond_atom_site_label_2
_geom_bond_distance
_geom_bond_site_symmetry_2
Mn0 O11 2.002122 1_556
Mn0 O9 2.002122 1_655
Mn0 O18 2.002122 1_565
Mn0 O13 2.352614 1_565
Mn0 O2 2.352614 1_556
Mn0 O6 2.352614 1_655
Mn1 O1 2.145815 1_555
Mn1 O3 2.145815 1_555
Mn1 O0 2.145815 1_555
Mn1 O7 2.372536 1_555
Mn1 O4 2.372536 1_555
Mn1 O8 2.372536 1_555
Mn2 O22 2.041444 1_555
Mn2 O20 2.041444 1_555
Mn2 O23 2.041444 1_555
Mn2 O16 2.275652 1_555
Mn2 O19 2.275652 1_555
Mn2 O15 2.275652 1_555
O0 P5 1.510802 1_565
O1 P3 1.510801 1_655
O2 P0 1.659129 1_555
O2 Te0 1.995908 1_554
O3 P4 1.510801 1_556
O4 P0 1.539769 1_555
O4 Te1 2.428673 1_555
O5 P0 1.548844 1_545
O5 Ti0 1.965023 1_555
O6 P1 1.659129 1_555
O6 Te0 1.995908 1_455
O7 P1 1.539769 1_555
O7 Te1 2.428673 1_555
O8 P2 1.539769 1_555
O8 Te1 2.428673 1_555
O9 P3 1.501815 1_555
O10 P3 1.578848 1_555
O10 Ti0 1.996697 1_565
O11 P4 1.501815 1_555
O12 P1 1.548844 1_554
O12 Ti0 1.965023 1_555
O13 P2 1.659129 1_555
O13 Te0 1.995908 1_545
O14 P2 1.548844 1_455
O14 Ti0 1.965023 1_555
O15 P3 1.627786 1_555
O15 Te1 2.069645 1_555
O16 P4 1.627786 1_555
O16 Te1 2.069644 1_555
O17 P4 1.578848 1_555
O17 Ti0 1.996697 1_655
O18 P5 1.501815 1_555
O19 P5 1.627786 1_555
O19 Te1 2.069644 1_555
O20 P1 1.497071 1_554
O21 P5 1.578848 1_555
O21 Ti0 1.996697 1_556
O22 P2 1.497071 1_455
O23 P0 1.497071 1_545
