# generated using pymatgen
data_LiMn2O3F
_symmetry_space_group_name_H-M   'P 1'
_cell_length_a   4.93838700
_cell_length_b   5.79634800
_cell_length_c   10.38303500
_cell_angle_alpha   90.00000000
_cell_angle_beta   90.00000000
_cell_angle_gamma   90.00000000
_symmetry_Int_Tables_number   1
_chemical_formula_structural   LiMn2O3F
_chemical_formula_sum   'Li4 Mn8 O12 F4'
_cell_volume   297.21032345
_cell_formula_units_Z   4
loop_
 _symmetry_equiv_pos_site_id
 _symmetry_equiv_pos_as_xyz
  1  'x, y, z'
loop_
 _atom_site_type_symbol
 _atom_site_label
 _atom_site_symmetry_multiplicity
 _atom_site_fract_x
 _atom_site_fract_y
 _atom_site_fract_z
 _atom_site_occupancy
  Li  Li0  1  0.96868400  0.75469300  0.41216500  1
  Li  Li1  1  0.53131600  0.75469300  0.91216500  1
  Li  Li2  1  0.46868400  0.25469300  0.08783500  1
  Li  Li3  1  0.03131600  0.25469300  0.58783500  1
  Mn  Mn0  1  0.98124600  0.00646300  0.99025900  1
  Mn  Mn1  1  0.01875400  0.50646300  0.00974100  1
  Mn  Mn2  1  0.04101200  0.24334100  0.26819500  1
  Mn  Mn3  1  0.45898800  0.24334100  0.76819500  1
  Mn  Mn4  1  0.48124600  0.50646300  0.50974100  1
  Mn  Mn5  1  0.51875400  0.00646300  0.49025900  1
  Mn  Mn6  1  0.54101200  0.74334100  0.23180500  1
  Mn  Mn7  1  0.95898800  0.74334100  0.73180500  1
  O  O0  1  0.73712600  0.74988300  0.57016600  1
  O  O1  1  0.77784400  0.99442700  0.32345500  1
  O  O2  1  0.84330500  0.25290500  0.09697800  1
  O  O3  1  0.65669500  0.25290500  0.59697800  1
  O  O4  1  0.72215600  0.99442700  0.82345500  1
  O  O5  1  0.76287400  0.74988300  0.07016600  1
  O  O6  1  0.23712600  0.24988300  0.92983400  1
  O  O7  1  0.27784400  0.49442700  0.17654500  1
  O  O8  1  0.34330500  0.75290500  0.40302200  1
  O  O9  1  0.15669500  0.75290500  0.90302200  1
  O  O10  1  0.22215600  0.49442700  0.67654500  1
  O  O11  1  0.26287400  0.24988300  0.42983400  1
  F  F0  1  0.78310500  0.49828900  0.34513300  1
  F  F1  1  0.71689500  0.49828900  0.84513300  1
  F  F2  1  0.28310500  0.99828900  0.15486700  1
  F  F3  1  0.21689500  0.99828900  0.65486700  1
loop_
_geom_bond_atom_site_label_1
_geom_bond_atom_site_label_2
_geom_bond_distance
_geom_bond_site_symmetry_2
Li0 O8 1.852487 1_655
Li0 O1 1.915077 1_555
Li0 O0 1.999940 1_555
Li1 O9 1.852487 1_555
Li1 O4 1.915077 1_555
Li1 O5 1.999940 1_556
Li2 O2 1.852487 1_555
Li2 O7 1.915077 1_555
Li2 O6 1.999940 1_554
Li3 O3 1.852487 1_455
Li3 O10 1.915077 1_555
Li3 O11 1.999940 1_555
Mn0 O9 1.931633 1_645
Mn0 O2 1.931932 1_556
Mn0 O6 1.995286 1_655
Mn0 O5 2.015730 1_546
Mn0 O4 2.154424 1_545
Mn1 O2 1.931633 1_455
Mn1 O9 1.931932 1_554
Mn1 O5 1.995286 1_455
Mn1 O6 2.015730 1_554
Mn1 O7 2.154424 1_555
Mn2 O11 2.004637 1_555
Mn2 O1 2.024817 1_445
Mn2 O2 2.028976 1_455
Mn2 O7 2.095609 1_555
Mn3 O6 2.004637 1_555
Mn3 O4 2.024817 1_545
Mn3 O3 2.028976 1_555
Mn3 O10 2.095609 1_555
Mn4 O3 1.931633 1_555
Mn4 O8 1.931932 1_555
Mn4 O0 1.995286 1_555
Mn4 O11 2.015730 1_555
Mn4 O10 2.154424 1_555
Mn5 O8 1.931633 1_545
Mn5 O3 1.931932 1_555
Mn5 O11 1.995286 1_555
Mn5 O0 2.015730 1_545
Mn5 O1 2.154424 1_545
Mn6 O5 2.004637 1_555
Mn6 O7 2.024817 1_555
Mn6 O8 2.028976 1_555
Mn6 O1 2.095609 1_555
Mn7 O0 2.004637 1_555
Mn7 O10 2.024817 1_655
Mn7 O9 2.028976 1_655
Mn7 O4 2.095609 1_555
F0 Li0 1.879660 1_555
F0 Mn2 2.108110 1_655
F0 Mn6 2.198065 1_555
F0 Mn4 2.268380 1_555
F1 Li1 1.879660 1_555
F1 Mn3 2.108110 1_555
F1 Mn7 2.198065 1_555
F1 Mn1 2.268380 1_656
F2 Li2 1.879660 1_565
F2 Mn6 2.108110 1_555
F2 Mn2 2.198065 1_565
F2 Mn0 2.268380 1_464
F3 Li3 1.879660 1_565
F3 Mn7 2.108110 1_455
F3 Mn3 2.198065 1_565
F3 Mn5 2.268380 1_565
