# generated using pymatgen
data_GaH7(NF2)2
_symmetry_space_group_name_H-M   'P 1'
_cell_length_a   6.35989049
_cell_length_b   6.35989049
_cell_length_c   7.57668748
_cell_angle_alpha   65.74656634
_cell_angle_beta   65.74656634
_cell_angle_gamma   65.19387925
_symmetry_Int_Tables_number   1
_chemical_formula_structural   GaH7(NF2)2
_chemical_formula_sum   'Ga2 H14 N4 F8'
_cell_volume   242.87955612
_cell_formula_units_Z   2
loop_
 _symmetry_equiv_pos_site_id
 _symmetry_equiv_pos_as_xyz
  1  'x, y, z'
loop_
 _atom_site_type_symbol
 _atom_site_label
 _atom_site_symmetry_multiplicity
 _atom_site_fract_x
 _atom_site_fract_y
 _atom_site_fract_z
 _atom_site_occupancy
  Ga  Ga0  1  0.00000000  0.00000000  0.00000000  1
  Ga  Ga1  1  0.00000000  0.00000000  0.50000000  1
  H  H0  1  0.79171300  0.79171300  0.92661200  1
  H  H1  1  0.52892100  0.52892100  0.76645200  1
  H  H2  1  0.80466800  0.56389300  0.66348200  1
  H  H3  1  0.56389300  0.80466800  0.66348200  1
  H  H4  1  0.38407100  0.14112300  0.85648500  1
  H  H5  1  0.14112300  0.38407100  0.85648500  1
  H  H6  1  0.63664700  0.63664700  0.51126300  1
  H  H7  1  0.36335300  0.36335300  0.48873700  1
  H  H8  1  0.61592900  0.85887700  0.14351500  1
  H  H9  1  0.85887700  0.61592900  0.14351500  1
  H  H10  1  0.43610700  0.19533200  0.33651800  1
  H  H11  1  0.19533200  0.43610700  0.33651800  1
  H  H12  1  0.47107900  0.47107900  0.23354800  1
  H  H13  1  0.20828700  0.20828700  0.07338800  1
  N  N0  1  0.20848900  0.20848900  0.93805100  1
  N  N1  1  0.63173200  0.63173200  0.64915600  1
  N  N2  1  0.36826800  0.36826800  0.35084400  1
  N  N3  1  0.79151100  0.79151100  0.06194900  1
  F  F0  1  0.72427000  0.27573000  0.00000000  1
  F  F1  1  0.27573000  0.72427000  0.00000000  1
  F  F2  1  0.93071600  0.93071600  0.30253400  1
  F  F3  1  0.66273700  0.05675500  0.64975600  1
  F  F4  1  0.05675500  0.66273700  0.64975600  1
  F  F5  1  0.94324500  0.33726300  0.35024400  1
  F  F6  1  0.33726300  0.94324500  0.35024400  1
  F  F7  1  0.06928400  0.06928400  0.69746600  1
loop_
_geom_bond_atom_site_label_1
_geom_bond_atom_site_label_2
_geom_bond_distance
_geom_bond_site_symmetry_2
Ga0 N0 2.046795 1_554
Ga0 N3 2.046795 1_445
H0 N3 1.024352 1_556
H1 N1 1.024131 1_555
H2 N1 1.033942 1_555
H3 N1 1.033942 1_555
H4 N0 1.030331 1_555
H5 N0 1.030331 1_555
H6 N1 1.020129 1_555
H7 N2 1.020129 1_555
H8 N3 1.030331 1_555
H9 N3 1.030331 1_555
H10 N2 1.033942 1_555
H11 N2 1.033942 1_555
H12 N2 1.024131 1_555
H13 N0 1.024352 1_554
F0 Ga0 1.889433 1_655
F1 Ga0 1.889433 1_565
F2 Ga1 1.967967 1_665
F2 Ga0 2.036141 1_665
F3 Ga1 1.925074 1_655
F4 Ga1 1.925074 1_565
F5 Ga1 1.925074 1_655
F6 Ga1 1.925074 1_565
F7 Ga1 1.967967 1_555
F7 Ga0 2.036141 1_556
