# generated using pymatgen
data_CoSnO3
_symmetry_space_group_name_H-M   'P 1'
_cell_length_a   5.35988358
_cell_length_b   5.66803385
_cell_length_c   9.28031052
_cell_angle_alpha   105.84800920
_cell_angle_beta   89.99906724
_cell_angle_gamma   61.79111672
_symmetry_Int_Tables_number   1
_chemical_formula_structural   CoSnO3
_chemical_formula_sum   'Co4 Sn4 O12'
_cell_volume   236.21887517
_cell_formula_units_Z   4
loop_
 _symmetry_equiv_pos_site_id
 _symmetry_equiv_pos_as_xyz
  1  'x, y, z'
loop_
 _atom_site_type_symbol
 _atom_site_label
 _atom_site_symmetry_multiplicity
 _atom_site_fract_x
 _atom_site_fract_y
 _atom_site_fract_z
 _atom_site_occupancy
  Co  Co0  1  0.96190900  0.07629200  0.67926400  1
  Co  Co1  1  0.03808900  0.92371500  0.32074100  1
  Co  Co2  1  0.46191700  0.07628700  0.17925200  1
  Co  Co3  1  0.53808400  0.92371300  0.82074600  1
  Sn  Sn0  1  0.77892500  0.44218700  0.07368000  1
  Sn  Sn1  1  0.27891500  0.44218100  0.57366400  1
  Sn  Sn2  1  0.72109100  0.55781600  0.42632800  1
  Sn  Sn3  1  0.22107200  0.55781900  0.92632800  1
  O  O0  1  0.01922900  0.25403600  0.22403100  1
  O  O1  1  0.51923500  0.25405900  0.72402200  1
  O  O2  1  0.57248400  0.25396500  0.37836900  1
  O  O3  1  0.07246000  0.25396100  0.87836100  1
  O  O4  1  0.97264600  0.74606000  0.47546800  1
  O  O5  1  0.47263500  0.74602300  0.97547700  1
  O  O6  1  0.52736300  0.25398400  0.02452600  1
  O  O7  1  0.02735400  0.25394800  0.52453100  1
  O  O8  1  0.92754700  0.74602300  0.12163300  1
  O  O9  1  0.42751900  0.74603500  0.62162800  1
  O  O10  1  0.48076400  0.74593600  0.27598200  1
  O  O11  1  0.98076000  0.74596200  0.77596800  1
loop_
_geom_bond_atom_site_label_1
_geom_bond_atom_site_label_2
_geom_bond_distance
_geom_bond_site_symmetry_2
Co0 O7 2.079105 1_655
Co0 O3 2.080156 1_655
Co0 O1 2.080546 1_555
Co0 O4 2.246882 1_545
Co0 O9 2.248323 1_645
Co0 O11 2.249466 1_545
Co1 O4 2.079051 1_455
Co1 O8 2.080257 1_455
Co1 O10 2.080544 1_555
Co1 O7 2.246855 1_565
Co1 O2 2.248294 1_465
Co1 O0 2.249437 1_565
Co2 O6 2.079229 1_555
Co2 O2 2.080359 1_555
Co2 O0 2.080638 1_555
Co2 O5 2.246907 1_544
Co2 O8 2.248408 1_545
Co2 O10 2.249734 1_545
Co3 O5 2.079244 1_555
Co3 O9 2.080361 1_555
Co3 O11 2.080578 1_555
Co3 O6 2.246953 1_566
Co3 O3 2.248363 1_565
Co3 O1 2.249669 1_565
O0 Sn0 2.063335 1_455
O0 Sn2 2.162414 1_455
O1 Sn1 2.063353 1_555
O1 Sn3 2.162493 1_555
O2 Sn1 2.062940 1_555
O2 Sn2 2.162601 1_555
O3 Sn0 2.063005 1_456
O3 Sn3 2.162657 1_555
O4 Sn2 2.063641 1_555
O4 Sn1 2.162448 1_655
O5 Sn3 2.063513 1_555
O5 Sn0 2.162398 1_556
O6 Sn0 2.063507 1_555
O6 Sn3 2.162367 1_554
O7 Sn1 2.063617 1_555
O7 Sn2 2.162443 1_455
O8 Sn3 2.062892 1_654
O8 Sn0 2.162584 1_555
O9 Sn2 2.062981 1_555
O9 Sn1 2.162605 1_555
O10 Sn2 2.063272 1_555
O10 Sn0 2.162452 1_555
O11 Sn3 2.063401 1_655
O11 Sn1 2.162491 1_655
