# generated using pymatgen
data_Li3Mn2Fe(BO3)3
_symmetry_space_group_name_H-M   'P 1'
_cell_length_a   3.17373600
_cell_length_b   8.26508200
_cell_length_c   14.30866845
_cell_angle_alpha   89.87610777
_cell_angle_beta   90.00000000
_cell_angle_gamma   90.00000000
_symmetry_Int_Tables_number   1
_chemical_formula_structural   Li3Mn2Fe(BO3)3
_chemical_formula_sum   'Li6 Mn4 Fe2 B6 O18'
_cell_volume   375.33249881
_cell_formula_units_Z   2
loop_
 _symmetry_equiv_pos_site_id
 _symmetry_equiv_pos_as_xyz
  1  'x, y, z'
loop_
 _atom_site_type_symbol
 _atom_site_label
 _atom_site_symmetry_multiplicity
 _atom_site_fract_x
 _atom_site_fract_y
 _atom_site_fract_z
 _atom_site_occupancy
  Li  Li0  1  0.50000000  0.70707100  0.00914200  1
  Li  Li1  1  0.50000000  0.66066700  0.64111600  1
  Li  Li2  1  0.50000000  0.63435300  0.34932900  1
  Li  Li3  1  0.50000000  0.20707400  0.50761400  1
  Li  Li4  1  0.50000000  0.15908500  0.14279200  1
  Li  Li5  1  0.50000000  0.13299100  0.84916000  1
  Mn  Mn0  1  0.00000000  0.82645700  0.18602600  1
  Mn  Mn1  1  0.00000000  0.80898600  0.82043700  1
  Mn  Mn2  1  0.00000000  0.36491200  0.99446500  1
  Mn  Mn3  1  0.00000000  0.32564700  0.68606600  1
  Fe  Fe0  1  0.00000000  0.86328700  0.49565400  1
  Fe  Fe1  1  0.00000000  0.31225700  0.32052400  1
  B  B0  1  0.50000000  0.00163900  0.33443400  1
  B  B1  1  0.00000000  0.99993400  0.00006800  1
  B  B2  1  0.50000000  0.99897700  0.66549400  1
  B  B3  1  0.50000000  0.50011400  0.83314000  1
  B  B4  1  0.00000000  0.49954800  0.49894100  1
  B  B5  1  0.50000000  0.49893400  0.16773100  1
  O  O0  1  0.50000000  0.98780100  0.56849000  1
  O  O1  1  0.50000000  0.98491000  0.23741500  1
  O  O2  1  0.50000000  0.86434600  0.39134500  1
  O  O3  1  0.50000000  0.85950100  0.71968300  1
  O  O4  1  0.00000000  0.84519200  0.03904900  1
  O  O5  1  0.50000000  0.65204100  0.87487500  1
  O  O6  1  0.50000000  0.64969900  0.21024300  1
  O  O7  1  0.00000000  0.63847300  0.55448300  1
  O  O8  1  0.00000000  0.51432300  0.40191500  1
  O  O9  1  0.50000000  0.48821800  0.07079300  1
  O  O10  1  0.50000000  0.48668500  0.73606400  1
  O  O11  1  0.50000000  0.36138800  0.88841900  1
  O  O12  1  0.50000000  0.35901300  0.22199900  1
  O  O13  1  0.00000000  0.34692000  0.53990300  1
  O  O14  1  0.50000000  0.15568600  0.37350600  1
  O  O15  1  0.50000000  0.14945400  0.70863900  1
  O  O16  1  0.00000000  0.13544600  0.05791100  1
  O  O17  1  0.00000000  0.01897700  0.90313000  1
loop_
_geom_bond_atom_site_label_1
_geom_bond_atom_site_label_2
_geom_bond_distance
_geom_bond_site_symmetry_2
Li0 O5 1.975244 1_554
Li0 O4 2.001648 1_555
Li0 O4 2.001648 1_655
Li0 O9 2.010764 1_555
Li1 O10 1.976123 1_555
Li1 O3 1.993110 1_555
Li1 O7 2.022226 1_655
Li1 O7 2.022226 1_555
Li2 O6 1.993899 1_555
Li2 O2 1.994953 1_555
Li2 O8 2.016249 1_555
Li2 O8 2.016249 1_655
Li3 O14 1.966245 1_555
Li3 O0 2.009073 1_545
Li3 O13 2.017394 1_555
Li3 O13 2.017394 1_655
Li4 O1 1.974097 1_545
Li4 O12 2.005759 1_555
Li4 O16 2.008094 1_655
Li4 O16 2.008094 1_555
Li5 O11 1.970692 1_555
Li5 O17 1.999838 1_555
Li5 O17 1.999838 1_655
Li5 O15 2.014974 1_555
Mn0 O4 2.108404 1_555
Mn0 O6 2.184106 1_455
Mn0 O6 2.184106 1_555
Mn0 O1 2.185890 1_455
Mn0 O1 2.185890 1_555
Mn1 O17 2.102662 1_565
Mn1 O3 2.183628 1_455
Mn1 O3 2.183628 1_555
Mn1 O5 2.191610 1_555
Mn1 O5 2.191610 1_455
Mn2 O16 2.100863 1_556
Mn2 O9 2.180457 1_456
Mn2 O9 2.180457 1_556
Mn2 O11 2.195819 1_555
Mn2 O11 2.195819 1_455
Mn3 O13 2.098397 1_555
Mn3 O15 2.177407 1_455
Mn3 O15 2.177407 1_555
Mn3 O10 2.192171 1_555
Mn3 O10 2.192171 1_455
Fe0 O7 2.038225 1_555
Fe0 O0 2.160561 1_455
Fe0 O0 2.160561 1_555
Fe0 O2 2.178485 1_455
Fe0 O2 2.178485 1_555
Fe1 O8 2.038113 1_555
Fe1 O12 2.156979 1_555
Fe1 O12 2.156979 1_455
Fe1 O14 2.182487 1_555
Fe1 O14 2.182487 1_455
B0 O14 1.391654 1_555
B0 O2 1.395261 1_545
B0 O1 1.395379 1_545
B1 O16 1.394082 1_565
B1 O4 1.394182 1_555
B1 O17 1.395617 1_564
B2 O3 1.387890 1_555
B2 O15 1.389691 1_565
B2 O0 1.391268 1_555
B3 O11 1.391531 1_555
B3 O5 1.391622 1_555
B3 O10 1.393695 1_555
B4 O13 1.389845 1_555
B4 O8 1.393410 1_555
B4 O7 1.397845 1_555
B5 O6 1.387812 1_555
B5 O9 1.390070 1_555
B5 O12 1.391571 1_555
