# generated using pymatgen
data_Li3Fe2SnO6
_symmetry_space_group_name_H-M   'P 1'
_cell_length_a   6.79573813
_cell_length_b   6.79573813
_cell_length_c   6.12272469
_cell_angle_alpha   77.31539112
_cell_angle_beta   77.31539112
_cell_angle_gamma   26.15171811
_symmetry_Int_Tables_number   1
_chemical_formula_structural   Li3Fe2SnO6
_chemical_formula_sum   'Li3 Fe2 Sn1 O6'
_cell_volume   121.41842534
_cell_formula_units_Z   1
loop_
 _symmetry_equiv_pos_site_id
 _symmetry_equiv_pos_as_xyz
  1  'x, y, z'
loop_
 _atom_site_type_symbol
 _atom_site_label
 _atom_site_symmetry_multiplicity
 _atom_site_fract_x
 _atom_site_fract_y
 _atom_site_fract_z
 _atom_site_occupancy
  Li  Li0  1  0.00000000  0.00000000  0.00000000  1
  Li  Li1  1  0.67296800  0.67296800  0.66761200  1
  Li  Li2  1  0.32703200  0.32703200  0.33238800  1
  Fe  Fe0  1  0.67358100  0.67358100  0.14907000  1
  Fe  Fe1  1  0.32641900  0.32641900  0.85093000  1
  Sn  Sn0  1  0.00000000  0.00000000  0.50000000  1
  O  O0  1  0.16066500  0.16066500  0.40249800  1
  O  O1  1  0.83336700  0.83336700  0.07451000  1
  O  O2  1  0.83933500  0.83933500  0.59750200  1
  O  O3  1  0.49818800  0.49818800  0.73769200  1
  O  O4  1  0.50181200  0.50181200  0.26230800  1
  O  O5  1  0.16663300  0.16663300  0.92549000  1
loop_
_geom_bond_atom_site_label_1
_geom_bond_atom_site_label_2
_geom_bond_distance
_geom_bond_site_symmetry_2
Li0 O1 2.149674 1_445
Li0 O5 2.149674 1_554
Li0 O4 2.227361 1_455
Li0 O4 2.227361 1_545
Li0 O3 2.227361 1_454
Li0 O3 2.227361 1_544
Li1 O2 2.146903 1_555
Li1 O5 2.191833 1_655
Li1 O5 2.191833 1_565
Li1 O3 2.256262 1_555
Li1 O0 2.268127 1_655
Li1 O0 2.268127 1_565
Li2 O0 2.146903 1_555
Li2 O1 2.191833 1_455
Li2 O1 2.191833 1_545
Li2 O4 2.256262 1_555
Li2 O2 2.268127 1_545
Li2 O2 2.268127 1_455
Fe0 O1 2.061067 1_555
Fe0 O5 2.074367 1_564
Fe0 O5 2.074367 1_654
Fe0 O0 2.163589 1_655
Fe0 O0 2.163589 1_565
Fe0 O4 2.222882 1_555
Fe1 O5 2.061067 1_555
Fe1 O1 2.074367 1_546
Fe1 O1 2.074367 1_456
Fe1 O2 2.163589 1_455
Fe1 O2 2.163589 1_545
Fe1 O3 2.222882 1_555
O0 Sn0 2.075631 1_555
O2 Sn0 2.075631 1_665
O3 Sn0 2.113439 1_565
O3 Sn0 2.113439 1_655
O4 Sn0 2.113439 1_565
O4 Sn0 2.113439 1_655
