# generated using pymatgen
data_BaSrI4
_symmetry_space_group_name_H-M   'P 1'
_cell_length_a   8.23986200
_cell_length_b   8.80657000
_cell_length_c   18.03913316
_cell_angle_alpha   71.85427659
_cell_angle_beta   90.00000000
_cell_angle_gamma   90.00000000
_symmetry_Int_Tables_number   1
_chemical_formula_structural   BaSrI4
_chemical_formula_sum   'Ba4 Sr4 I16'
_cell_volume   1243.90802937
_cell_formula_units_Z   4
loop_
 _symmetry_equiv_pos_site_id
 _symmetry_equiv_pos_as_xyz
  1  'x, y, z'
loop_
 _atom_site_type_symbol
 _atom_site_label
 _atom_site_symmetry_multiplicity
 _atom_site_fract_x
 _atom_site_fract_y
 _atom_site_fract_z
 _atom_site_occupancy
  Ba  Ba0  1  0.05065900  0.71936300  0.84536600  1
  Ba  Ba1  1  0.44934100  0.71936300  0.34536600  1
  Ba  Ba2  1  0.55065900  0.28063700  0.65463400  1
  Ba  Ba3  1  0.94934100  0.28063700  0.15463400  1
  Sr  Sr0  1  0.34264800  0.80265400  0.60253300  1
  Sr  Sr1  1  0.15735200  0.80265400  0.10253300  1
  Sr  Sr2  1  0.84264800  0.19734600  0.89746700  1
  Sr  Sr3  1  0.65735200  0.19734600  0.39746700  1
  I  I0  1  0.18457000  0.04264400  0.68264300  1
  I  I1  1  0.31543000  0.04264400  0.18264300  1
  I  I2  1  0.69773100  0.97038600  0.58030700  1
  I  I3  1  0.80226900  0.97038600  0.08030700  1
  I  I4  1  0.34888400  0.51882000  0.76821400  1
  I  I5  1  0.25965600  0.52473200  0.52633900  1
  I  I6  1  0.15111600  0.51882000  0.26821400  1
  I  I7  1  0.75965600  0.47526800  0.97366100  1
  I  I8  1  0.24034400  0.52473200  0.02633900  1
  I  I9  1  0.84888400  0.48118000  0.73178600  1
  I  I10  1  0.74034400  0.47526800  0.47366100  1
  I  I11  1  0.65111600  0.48118000  0.23178600  1
  I  I12  1  0.19773100  0.02961400  0.91969300  1
  I  I13  1  0.30226900  0.02961400  0.41969300  1
  I  I14  1  0.68457000  0.95735600  0.81735700  1
  I  I15  1  0.81543000  0.95735600  0.31735700  1
loop_
_geom_bond_atom_site_label_1
_geom_bond_atom_site_label_2
_geom_bond_distance
_geom_bond_site_symmetry_2
Ba0 I8 3.543028 1_556
Ba0 I4 3.553246 1_555
Ba0 I7 3.553572 1_455
Ba0 I0 3.568477 1_565
Ba0 I12 3.607396 1_565
Ba0 I14 3.617720 1_455
Ba0 I9 3.746850 1_455
Ba1 I5 3.543028 1_555
Ba1 I6 3.553246 1_555
Ba1 I10 3.553572 1_555
Ba1 I1 3.568477 1_565
Ba1 I13 3.607396 1_565
Ba1 I15 3.617720 1_555
Ba1 I11 3.746850 1_555
Ba2 I10 3.543028 1_555
Ba2 I9 3.553246 1_555
Ba2 I5 3.553572 1_555
Ba2 I14 3.568477 1_545
Ba2 I2 3.607396 1_545
Ba2 I0 3.617720 1_555
Ba2 I4 3.746850 1_555
Ba3 I7 3.543028 1_554
Ba3 I11 3.553246 1_555
Ba3 I8 3.553572 1_655
Ba3 I15 3.568477 1_545
Ba3 I3 3.607396 1_545
Ba3 I1 3.617720 1_655
Ba3 I6 3.746850 1_655
I0 Sr0 3.186565 1_545
I1 Sr1 3.186565 1_545
I2 Sr0 3.245662 1_555
I2 Sr3 3.298193 1_565
I3 Sr1 3.245662 1_655
I3 Sr2 3.298193 1_564
I4 Sr0 3.244993 1_555
I5 Sr0 3.231509 1_555
I6 Sr1 3.244993 1_555
I7 Sr2 3.231509 1_555
I8 Sr1 3.231509 1_555
I9 Sr2 3.244993 1_555
I10 Sr3 3.231509 1_555
I11 Sr3 3.244993 1_555
I12 Sr2 3.245662 1_455
I12 Sr1 3.298193 1_546
I13 Sr3 3.245662 1_555
I13 Sr0 3.298193 1_545
I14 Sr2 3.186565 1_565
I15 Sr3 3.186565 1_565
