# generated using pymatgen
data_Li2MnV5O12
_symmetry_space_group_name_H-M   'P 1'
_cell_length_a   6.90093921
_cell_length_b   6.90093921
_cell_length_c   5.81485543
_cell_angle_alpha   75.10380986
_cell_angle_beta   75.10380986
_cell_angle_gamma   83.56567814
_symmetry_Int_Tables_number   1
_chemical_formula_structural   Li2MnV5O12
_chemical_formula_sum   'Li2 Mn1 V5 O12'
_cell_volume   258.30692043
_cell_formula_units_Z   1
loop_
 _symmetry_equiv_pos_site_id
 _symmetry_equiv_pos_as_xyz
  1  'x, y, z'
loop_
 _atom_site_type_symbol
 _atom_site_label
 _atom_site_symmetry_multiplicity
 _atom_site_fract_x
 _atom_site_fract_y
 _atom_site_fract_z
 _atom_site_occupancy
  Li  Li0  1  0.75448400  0.24551600  0.50000000  1
  Li  Li1  1  0.24697900  0.75302100  0.00000000  1
  Mn  Mn0  1  0.08503100  0.91496900  0.50000000  1
  V  V0  1  0.91349800  0.08650200  0.00000000  1
  V  V1  1  0.80458400  0.60465700  0.01798600  1
  V  V2  1  0.60777600  0.79636300  0.51438600  1
  V  V3  1  0.39534300  0.19541600  0.98201400  1
  V  V4  1  0.20363700  0.39222400  0.48561400  1
  O  O0  1  0.97738800  0.80825700  0.90793100  1
  O  O1  1  0.89880900  0.35238100  0.07546200  1
  O  O2  1  0.79620500  0.98174800  0.38711000  1
  O  O3  1  0.63786100  0.65153400  0.80763800  1
  O  O4  1  0.64761900  0.10119100  0.92453800  1
  O  O5  1  0.63928500  0.62956900  0.31597500  1
  O  O6  1  0.34846600  0.36213900  0.19236200  1
  O  O7  1  0.36919600  0.90658600  0.57620000  1
  O  O8  1  0.37043100  0.36071500  0.68402500  1
  O  O9  1  0.19174300  0.02261200  0.09206900  1
  O  O10  1  0.09341400  0.63080400  0.42380000  1
  O  O11  1  0.01825200  0.20379500  0.61289000  1
loop_
_geom_bond_atom_site_label_1
_geom_bond_atom_site_label_2
_geom_bond_distance
_geom_bond_site_symmetry_2
Li0 O11 2.055920 1_655
Li0 O2 2.055920 1_545
Li0 O4 2.365262 1_555
Li0 O1 2.365262 1_555
Li1 O0 2.035030 1_454
Li1 O9 2.035030 1_565
Li1 O7 2.386706 1_554
Li1 O10 2.386706 1_555
Mn0 O7 2.110296 1_555
Mn0 O10 2.110296 1_555
Mn0 O2 2.219754 1_455
Mn0 O11 2.219754 1_565
Mn0 O9 2.244849 1_565
Mn0 O0 2.244849 1_455
O0 V1 1.823900 1_556
O0 V0 2.094139 1_566
O1 V1 1.767555 1_555
O1 V0 1.979584 1_555
O2 V2 1.807364 1_555
O2 V0 2.145336 1_565
O3 V2 1.791384 1_555
O3 V1 1.833348 1_556
O4 V3 1.767555 1_555
O4 V0 1.979584 1_556
O5 V2 1.789120 1_555
O5 V1 1.851006 1_555
O6 V4 1.791384 1_555
O6 V3 1.833348 1_554
O7 V2 1.724562 1_555
O8 V4 1.789120 1_555
O8 V3 1.851006 1_555
O9 V3 1.823900 1_554
O9 V0 2.094139 1_455
O10 V4 1.724562 1_555
O11 V4 1.807364 1_555
O11 V0 2.145336 1_456
