# generated using pymatgen
data_LiFeSbO4
_symmetry_space_group_name_H-M   'P 1'
_cell_length_a   6.09310503
_cell_length_b   8.98046850
_cell_length_c   6.23423146
_cell_angle_alpha   90.00471712
_cell_angle_beta   89.98902111
_cell_angle_gamma   89.99918263
_symmetry_Int_Tables_number   1
_chemical_formula_structural   LiFeSbO4
_chemical_formula_sum   'Li4 Fe4 Sb4 O16'
_cell_volume   341.13051602
_cell_formula_units_Z   4
loop_
 _symmetry_equiv_pos_site_id
 _symmetry_equiv_pos_as_xyz
  1  'x, y, z'
loop_
 _atom_site_type_symbol
 _atom_site_label
 _atom_site_symmetry_multiplicity
 _atom_site_fract_x
 _atom_site_fract_y
 _atom_site_fract_z
 _atom_site_occupancy
  Li  Li0  1  0.24999900  0.10281000  0.99999300  1
  Li  Li1  1  0.75000000  0.60281000  0.49998500  1
  Li  Li2  1  0.75000000  0.89719000  0.00000800  1
  Li  Li3  1  0.24999900  0.39719000  0.50001500  1
  Fe  Fe0  1  0.00000100  0.00000200  0.50000100  1
  Fe  Fe1  1  0.00000200  0.50000000  0.00000200  1
  Fe  Fe2  1  0.50000300  0.49999900  0.99999900  1
  Fe  Fe3  1  0.50000800  0.00000100  0.49999600  1
  Sb  Sb0  1  0.75000100  0.25001300  0.24999800  1
  Sb  Sb1  1  0.24999800  0.74998700  0.75000200  1
  Sb  Sb2  1  0.75000800  0.24998500  0.74999700  1
  Sb  Sb3  1  0.24999100  0.75001500  0.25000300  1
  O  O0  1  0.52526800  0.25078400  0.99997500  1
  O  O1  1  0.02524100  0.75078800  0.50001800  1
  O  O2  1  0.97475600  0.25078800  0.99999400  1
  O  O3  1  0.47473400  0.75078400  0.49993500  1
  O  O4  1  0.02524200  0.74921200  0.00000600  1
  O  O5  1  0.52526600  0.24921500  0.50006600  1
  O  O6  1  0.47473100  0.74921600  0.00002500  1
  O  O7  1  0.97475700  0.24921200  0.49998300  1
  O  O8  1  0.74997700  0.46975500  0.23524600  1
  O  O9  1  0.25009300  0.96977300  0.73522000  1
  O  O10  1  0.75002800  0.46979700  0.76482100  1
  O  O11  1  0.24990400  0.96978200  0.26479500  1
  O  O12  1  0.25002300  0.53024400  0.76475500  1
  O  O13  1  0.74990700  0.03022600  0.26478000  1
  O  O14  1  0.24997100  0.53020200  0.23517900  1
  O  O15  1  0.75009600  0.03021800  0.73520500  1
loop_
_geom_bond_atom_site_label_1
_geom_bond_atom_site_label_2
_geom_bond_distance
_geom_bond_site_symmetry_2
Li0 O9 2.037580 1_545
Li0 O11 2.037838 1_546
Li0 O2 2.139756 1_455
Li0 O0 2.139887 1_555
Li1 O8 2.037503 1_555
Li1 O10 2.037931 1_555
Li1 O1 2.139776 1_655
Li1 O3 2.139844 1_555
Li2 O13 2.037570 1_565
Li2 O15 2.037843 1_564
Li2 O4 2.139751 1_655
Li2 O6 2.139887 1_555
Li3 O12 2.037503 1_555
Li3 O14 2.037926 1_555
Li3 O7 2.139781 1_455
Li3 O5 2.139854 1_555
Fe0 O15 2.131054 1_455
Fe0 O11 2.131058 1_545
Fe0 O9 2.132380 1_545
Fe0 O13 2.132391 1_455
Fe0 O7 2.243300 1_455
Fe0 O1 2.243334 1_545
Fe1 O14 2.131608 1_555
Fe1 O10 2.131648 1_454
Fe1 O12 2.131812 1_554
Fe1 O8 2.131817 1_455
Fe1 O4 2.243320 1_555
Fe1 O2 2.243323 1_454
Fe2 O10 2.131449 1_555
Fe2 O14 2.131489 1_556
Fe2 O8 2.132003 1_556
Fe2 O12 2.132017 1_555
Fe2 O0 2.243353 1_555
Fe2 O6 2.243374 1_556
Fe3 O13 2.131126 1_555
Fe3 O9 2.131233 1_545
Fe3 O15 2.132280 1_555
Fe3 O11 2.132318 1_545
Fe3 O5 2.243346 1_555
Fe3 O3 2.243379 1_545
O0 Sb2 2.074383 1_555
O0 Sb0 2.074960 1_556
O1 Sb3 2.074596 1_555
O1 Sb1 2.074875 1_555
O2 Sb0 2.074566 1_556
O2 Sb2 2.074899 1_555
O3 Sb3 2.074573 1_555
O3 Sb1 2.074785 1_555
O4 Sb1 2.074570 1_554
O4 Sb3 2.074903 1_555
O5 Sb2 2.074565 1_555
O5 Sb0 2.074786 1_555
O6 Sb3 2.074383 1_555
O6 Sb1 2.074960 1_554
O7 Sb2 2.074587 1_555
O7 Sb0 2.074875 1_555
O8 Sb0 1.975536 1_555
O9 Sb1 1.975939 1_555
O10 Sb2 1.976169 1_555
O11 Sb3 1.975756 1_555
O12 Sb1 1.975545 1_555
O13 Sb0 1.975948 1_555
O14 Sb3 1.976178 1_555
O15 Sb2 1.975756 1_555
