# generated using pymatgen
data_Li6Bi2O7
_symmetry_space_group_name_H-M   'P 1'
_cell_length_a   6.20833561
_cell_length_b   5.53208618
_cell_length_c   10.73025285
_cell_angle_alpha   70.60455996
_cell_angle_beta   90.00000000
_cell_angle_gamma   90.00000000
_symmetry_Int_Tables_number   1
_chemical_formula_structural   Li6Bi2O7
_chemical_formula_sum   'Li12 Bi4 O14'
_cell_volume   347.61657311
_cell_formula_units_Z   2
loop_
 _symmetry_equiv_pos_site_id
 _symmetry_equiv_pos_as_xyz
  1  'x, y, z'
loop_
 _atom_site_type_symbol
 _atom_site_label
 _atom_site_symmetry_multiplicity
 _atom_site_fract_x
 _atom_site_fract_y
 _atom_site_fract_z
 _atom_site_occupancy
  Li  Li0  1  0.78658107  0.18983994  0.14978974  1
  Li  Li1  1  0.24182800  0.22308977  0.13527698  1
  Li  Li2  1  0.49057979  0.84961573  0.11821251  1
  Li  Li3  1  0.74182800  0.77691023  0.36472302  1
  Li  Li4  1  0.28658107  0.81016006  0.35021026  1
  Li  Li5  1  0.99057979  0.15038427  0.38178749  1
  Li  Li6  1  0.00942021  0.84961573  0.61821251  1
  Li  Li7  1  0.71341893  0.18983994  0.64978974  1
  Li  Li8  1  0.25817200  0.22308977  0.63527698  1
  Li  Li9  1  0.50942021  0.15038427  0.88178749  1
  Li  Li10  1  0.75817200  0.77691023  0.86472302  1
  Li  Li11  1  0.21341893  0.81016006  0.85021026  1
  Bi  Bi0  1  0.01352506  0.72807121  0.13368314  1
  Bi  Bi1  1  0.51352506  0.27192879  0.36631686  1
  Bi  Bi2  1  0.48647494  0.72807121  0.63368314  1
  Bi  Bi3  1  0.98647494  0.27192879  0.86631686  1
  O  O0  1  0.00000000  0.50000000  0.00000000  1
  O  O1  1  0.75174218  0.97645879  0.00761280  1
  O  O2  1  0.01951160  0.97292741  0.25396424  1
  O  O3  1  0.51951160  0.02707259  0.24603576  1
  O  O4  1  0.31577396  0.53765202  0.21561986  1
  O  O5  1  0.81577396  0.46234798  0.28438014  1
  O  O6  1  0.25174218  0.02354121  0.49238720  1
  O  O7  1  0.74825782  0.97645879  0.50761280  1
  O  O8  1  0.50000000  0.50000000  0.50000000  1
  O  O9  1  0.18422604  0.53765202  0.71561986  1
  O  O10  1  0.68422604  0.46234798  0.78438014  1
  O  O11  1  0.48048840  0.97292741  0.75396424  1
  O  O12  1  0.98048840  0.02707259  0.74603576  1
  O  O13  1  0.24825782  0.02354121  0.99238720  1
loop_
_geom_bond_atom_site_label_1
_geom_bond_atom_site_label_2
_geom_bond_distance
_geom_bond_site_symmetry_2
Li0 O2 1.972260 1_645
Li0 O3 2.002219 1_555
Li0 O1 2.227949 1_545
Li0 O0 2.334808 1_655
Li0 O5 2.416033 1_555
Li1 O2 2.066773 1_545
Li1 O13 2.166848 1_554
Li1 O3 2.168964 1_555
Li1 O4 2.231281 1_555
Li1 O0 2.287113 1_555
Li2 O3 1.942042 1_565
Li2 O1 1.994138 1_555
Li2 O4 2.012610 1_555
Li2 O13 2.036936 1_564
Li3 O3 2.066773 1_565
Li3 O7 2.166848 1_555
Li3 O2 2.168964 1_655
Li3 O5 2.231281 1_555
Li3 O8 2.287113 1_555
Li4 O3 1.972260 1_565
Li4 O2 2.002219 1_555
Li4 O6 2.227949 1_565
Li4 O8 2.334808 1_555
Li4 O4 2.416033 1_555
Li5 O2 1.942042 1_645
Li5 O6 1.994138 1_655
Li5 O5 2.012610 1_555
Li5 O7 2.036936 1_545
Li6 O12 1.942042 1_465
Li6 O7 1.994138 1_455
Li6 O9 2.012610 1_555
Li6 O6 2.036936 1_565
Li7 O11 1.972260 1_545
Li7 O12 2.002219 1_555
Li7 O7 2.227949 1_545
Li7 O8 2.334808 1_555
Li7 O10 2.416033 1_555
Li8 O11 2.066773 1_545
Li8 O6 2.166848 1_555
Li8 O12 2.168964 1_455
Li8 O9 2.231281 1_555
Li8 O8 2.287113 1_555
Li9 O11 1.942042 1_545
Li9 O13 1.994138 1_555
Li9 O10 2.012610 1_555
Li9 O1 2.036936 1_546
Li10 O12 2.066773 1_565
Li10 O1 2.166848 1_556
Li10 O11 2.168964 1_555
Li10 O10 2.231281 1_555
Li10 O0 2.287113 1_656
Li11 O12 1.972260 1_465
Li11 O11 2.002219 1_555
Li11 O13 2.227949 1_565
Li11 O0 2.334808 1_556
Li11 O9 2.416033 1_555
Bi0 O2 2.159432 1_555
Bi0 O5 2.168908 1_455
Bi0 O4 2.188300 1_555
Bi0 O0 2.204242 1_555
Bi0 O1 2.263832 1_455
Bi0 O13 2.334146 1_564
Bi1 O3 2.159432 1_555
Bi1 O4 2.168908 1_555
Bi1 O5 2.188300 1_555
Bi1 O8 2.204242 1_555
Bi1 O6 2.263832 1_555
Bi1 O7 2.334146 1_545
Bi2 O11 2.159432 1_555
Bi2 O10 2.168908 1_555
Bi2 O9 2.188300 1_555
Bi2 O8 2.204242 1_555
Bi2 O7 2.263832 1_555
Bi2 O6 2.334146 1_565
Bi3 O12 2.159432 1_555
Bi3 O9 2.168908 1_655
Bi3 O10 2.188300 1_555
Bi3 O0 2.204242 1_656
Bi3 O13 2.263832 1_655
Bi3 O1 2.334146 1_546
