# generated using pymatgen
data_Li5BiS4
_symmetry_space_group_name_H-M   'P 1'
_cell_length_a   7.90907751
_cell_length_b   7.90907751
_cell_length_c   7.90907751
_cell_angle_alpha   151.09898227
_cell_angle_beta   125.59815819
_cell_angle_gamma   62.77069508
_symmetry_Int_Tables_number   1
_chemical_formula_structural   Li5BiS4
_chemical_formula_sum   'Li5 Bi1 S4'
_cell_volume   192.70987725
_cell_formula_units_Z   1
loop_
 _symmetry_equiv_pos_site_id
 _symmetry_equiv_pos_as_xyz
  1  'x, y, z'
loop_
 _atom_site_type_symbol
 _atom_site_label
 _atom_site_symmetry_multiplicity
 _atom_site_fract_x
 _atom_site_fract_y
 _atom_site_fract_z
 _atom_site_occupancy
  Li  Li0  1  0.97511800  0.18016900  0.79494900  1
  Li  Li1  1  0.38521900  0.18016900  0.20505100  1
  Li  Li2  1  0.61478100  0.81983100  0.79494900  1
  Li  Li3  1  0.02488200  0.81983100  0.20505100  1
  Li  Li4  1  0.50000000  0.50000000  0.00000000  1
  Bi  Bi0  1  0.00000000  0.50000000  0.50000000  1
  S  S0  1  0.27485300  0.00000000  0.27485300  1
  S  S1  1  0.21365400  0.71365400  0.50000000  1
  S  S2  1  0.78634600  0.28634600  0.50000000  1
  S  S3  1  0.72514700  0.00000000  0.72514700  1
loop_
_geom_bond_atom_site_label_1
_geom_bond_atom_site_label_2
_geom_bond_distance
_geom_bond_site_symmetry_2
Li0 S3 2.484749 1_555
Li0 S1 2.509594 1_645
Li0 S1 2.509594 1_656
Li0 S2 2.569836 1_555
Li1 S0 2.484743 1_555
Li1 S1 2.509592 1_555
Li1 S1 2.509595 1_544
Li1 S2 2.569842 1_555
Li2 S3 2.484743 1_565
Li2 S2 2.509592 1_555
Li2 S2 2.509595 1_566
Li2 S1 2.569842 1_555
Li3 S0 2.484749 1_565
Li3 S2 2.509594 1_454
Li3 S2 2.509594 1_465
Li3 S1 2.569836 1_555
Li4 S3 2.558437 1_565
Li4 S0 2.558437 1_554
Li4 S0 2.558437 1_565
Li4 S3 2.558437 1_554
Bi0 S0 2.800889 1_555
Bi0 S3 2.800889 1_454
Bi0 S0 2.800889 1_566
Bi0 S3 2.800889 1_465
Bi0 S1 2.885121 1_555
Bi0 S2 2.885121 1_455
