# generated using pymatgen
data_BrClO
_symmetry_space_group_name_H-M   'P 1'
_cell_length_a   9.27490670
_cell_length_b   9.27490670
_cell_length_c   9.27490734
_cell_angle_alpha   114.85015621
_cell_angle_beta   114.85015621
_cell_angle_gamma   114.85016031
_symmetry_Int_Tables_number   1
_chemical_formula_structural   BrClO
_chemical_formula_sum   'Br6 Cl6 O6'
_cell_volume   452.56611093
_cell_formula_units_Z   6
loop_
 _symmetry_equiv_pos_site_id
 _symmetry_equiv_pos_as_xyz
  1  'x, y, z'
loop_
 _atom_site_type_symbol
 _atom_site_label
 _atom_site_symmetry_multiplicity
 _atom_site_fract_x
 _atom_site_fract_y
 _atom_site_fract_z
 _atom_site_occupancy
  Br  Br0  1  0.26115500  0.41781400  0.74026900  1
  Br  Br1  1  0.58218600  0.25973100  0.73884500  1
  Br  Br2  1  0.25973100  0.73884500  0.58218600  1
  Br  Br3  1  0.74026900  0.26115500  0.41781400  1
  Br  Br4  1  0.41781400  0.74026900  0.26115500  1
  Br  Br5  1  0.73884500  0.58218600  0.25973100  1
  Cl  Cl0  1  0.86606200  0.62185900  0.91326300  1
  Cl  Cl1  1  0.08673700  0.13393800  0.37814100  1
  Cl  Cl2  1  0.62185900  0.91326300  0.86606200  1
  Cl  Cl3  1  0.37814100  0.08673700  0.13393800  1
  Cl  Cl4  1  0.91326300  0.86606200  0.62185900  1
  Cl  Cl5  1  0.13393800  0.37814100  0.08673700  1
  O  O0  1  0.48620600  0.31327200  0.86167300  1
  O  O1  1  0.13832700  0.51379400  0.68672800  1
  O  O2  1  0.68672800  0.13832700  0.51379400  1
  O  O3  1  0.31327200  0.86167300  0.48620600  1
  O  O4  1  0.86167300  0.48620600  0.31327200  1
  O  O5  1  0.51379400  0.68672800  0.13832700  1
loop_
_geom_bond_atom_site_label_1
_geom_bond_atom_site_label_2
_geom_bond_distance
_geom_bond_site_symmetry_2
Br0 O1 1.756510 1_555
Br0 Cl1 2.291472 1_555
Br0 O5 2.327917 1_556
Br1 O0 1.756510 1_555
Br1 Cl0 2.291471 1_555
Br1 O3 2.327917 1_545
Br2 O3 1.756510 1_555
Br2 Cl2 2.291471 1_555
Br2 O4 2.327917 1_455
Br3 O2 1.756510 1_555
Br3 Cl3 2.291471 1_555
Br3 O1 2.327917 1_655
Br4 O5 1.756510 1_555
Br4 Cl5 2.291471 1_555
Br4 O2 2.327917 1_565
Br5 O4 1.756510 1_555
Br5 Cl4 2.291472 1_555
Br5 O0 2.327917 1_554
