# generated using pymatgen
data_Li3MnF5
_symmetry_space_group_name_H-M   'P 1'
_cell_length_a   5.86237600
_cell_length_b   6.03266300
_cell_length_c   10.84020300
_cell_angle_alpha   90.00000000
_cell_angle_beta   90.00000000
_cell_angle_gamma   90.00000000
_symmetry_Int_Tables_number   1
_chemical_formula_structural   Li3MnF5
_chemical_formula_sum   'Li12 Mn4 F20'
_cell_volume   383.37178770
_cell_formula_units_Z   4
loop_
 _symmetry_equiv_pos_site_id
 _symmetry_equiv_pos_as_xyz
  1  'x, y, z'
loop_
 _atom_site_type_symbol
 _atom_site_label
 _atom_site_symmetry_multiplicity
 _atom_site_fract_x
 _atom_site_fract_y
 _atom_site_fract_z
 _atom_site_occupancy
  Li  Li0  1  0.75808600  0.17042900  0.00589200  1
  Li  Li1  1  0.01036800  0.54163300  0.23010900  1
  Li  Li2  1  0.56194500  0.86958400  0.26773100  1
  Li  Li3  1  0.43805500  0.36958400  0.23226900  1
  Li  Li4  1  0.98963200  0.04163300  0.26989100  1
  Li  Li5  1  0.24191400  0.67042900  0.49410800  1
  Li  Li6  1  0.74191400  0.82957100  0.50589200  1
  Li  Li7  1  0.48963200  0.45836700  0.73010900  1
  Li  Li8  1  0.93805500  0.13041600  0.76773100  1
  Li  Li9  1  0.06194500  0.63041600  0.73226900  1
  Li  Li10  1  0.51036800  0.95836700  0.76989100  1
  Li  Li11  1  0.25808600  0.32957100  0.99410800  1
  Mn  Mn0  1  0.19632700  0.84821500  0.03862500  1
  Mn  Mn1  1  0.80367300  0.34821500  0.46137500  1
  Mn  Mn2  1  0.30367300  0.15178500  0.53862500  1
  Mn  Mn3  1  0.69632700  0.65178500  0.96137500  1
  F  F0  1  0.50719600  0.97778500  0.95477000  1
  F  F1  1  0.55853400  0.40177600  0.06972600  1
  F  F2  1  0.83380300  0.89278600  0.12003800  1
  F  F3  1  0.22690900  0.14442200  0.16589700  1
  F  F4  1  0.30485000  0.69643400  0.20467400  1
  F  F5  1  0.69515000  0.19643400  0.29532600  1
  F  F6  1  0.77309100  0.64442200  0.33410300  1
  F  F7  1  0.16619700  0.39278600  0.37996200  1
  F  F8  1  0.44146600  0.90177600  0.43027400  1
  F  F9  1  0.49280400  0.47778500  0.54523000  1
  F  F10  1  0.99280400  0.02221500  0.45477000  1
  F  F11  1  0.94146600  0.59822400  0.56972600  1
  F  F12  1  0.66619700  0.10721400  0.62003800  1
  F  F13  1  0.27309100  0.85557800  0.66589700  1
  F  F14  1  0.19515000  0.30356600  0.70467400  1
  F  F15  1  0.80485000  0.80356600  0.79532600  1
  F  F16  1  0.72690900  0.35557800  0.83410300  1
  F  F17  1  0.33380300  0.60721400  0.87996200  1
  F  F18  1  0.05853400  0.09822400  0.93027400  1
  F  F19  1  0.00719600  0.52221500  0.04523000  1
loop_
_geom_bond_atom_site_label_1
_geom_bond_atom_site_label_2
_geom_bond_distance
_geom_bond_site_symmetry_2
F0 Li0 1.954738 1_566
F0 Li10 2.007633 1_555
F0 Mn0 2.181404 1_556
F0 Mn3 2.258799 1_555
F1 Li3 1.908194 1_555
F1 Li0 1.948122 1_555
F1 Li11 1.990976 1_554
F1 Mn3 2.075288 1_554
F2 Li4 2.068727 1_565
F2 Li0 2.129198 1_565
F2 Li2 2.263372 1_555
F2 Mn0 2.316864 1_655
F2 Mn3 2.391962 1_554
F3 Li4 1.894797 1_455
F3 Li3 1.973551 1_555
F3 Li11 2.179187 1_554
F3 Mn0 2.264655 1_545
F4 Li2 1.957026 1_555
F4 Li1 1.982033 1_555
F4 Mn0 2.117351 1_555
F4 Li3 2.141771 1_555
F5 Li3 1.957026 1_555
F5 Li4 1.982033 1_555
F5 Mn1 2.117351 1_555
F5 Li2 2.141771 1_545
F6 Li1 1.894797 1_655
F6 Li2 1.973551 1_555
F6 Li6 2.179187 1_555
F6 Mn1 2.264655 1_555
F7 Li1 2.068727 1_555
F7 Li5 2.129198 1_555
F7 Li3 2.263372 1_555
F7 Mn1 2.316864 1_455
F7 Mn2 2.391962 1_555
F8 Li2 1.908194 1_555
F8 Li5 1.948122 1_555
F8 Li6 1.990976 1_555
F8 Mn2 2.075288 1_565
F9 Li5 1.954738 1_555
F9 Li7 2.007633 1_555
F9 Mn1 2.181404 1_555
F9 Mn2 2.258799 1_555
F10 Li6 1.954738 1_545
F10 Li4 2.007633 1_555
F10 Mn2 2.181404 1_655
F10 Mn1 2.258799 1_555
F11 Li9 1.908194 1_655
F11 Li6 1.948122 1_555
F11 Li5 1.990976 1_655
F11 Mn1 2.075288 1_555
F12 Li10 2.068727 1_545
F12 Li6 2.129198 1_545
F12 Li8 2.263372 1_555
F12 Mn2 2.316864 1_555
F12 Mn1 2.391962 1_555
F13 Li10 1.894797 1_555
F13 Li9 1.973551 1_555
F13 Li5 2.179187 1_555
F13 Mn2 2.264655 1_565
F14 Li8 1.957026 1_455
F14 Li7 1.982033 1_555
F14 Mn2 2.117351 1_555
F14 Li9 2.141771 1_555
F15 Li9 1.957026 1_655
F15 Li10 1.982033 1_555
F15 Mn3 2.117351 1_555
F15 Li8 2.141771 1_565
F16 Li7 1.894797 1_555
F16 Li8 1.973551 1_555
F16 Li0 2.179187 1_556
F16 Mn3 2.264655 1_555
F17 Li7 2.068727 1_555
F17 Li11 2.129198 1_555
F17 Li9 2.263372 1_555
F17 Mn3 2.316864 1_555
F17 Mn0 2.391962 1_556
F18 Li8 1.908194 1_455
F18 Li11 1.948122 1_555
F18 Li0 1.990976 1_456
F18 Mn0 2.075288 1_546
F19 Li11 1.954738 1_554
F19 Li1 2.007633 1_555
F19 Mn3 2.181404 1_454
F19 Mn0 2.258799 1_555
