# generated using pymatgen
data_Li2Mg3Ti6O16
_symmetry_space_group_name_H-M   'P 1'
_cell_length_a   8.47408300
_cell_length_b   8.47816200
_cell_length_c   8.48316368
_cell_angle_alpha   89.73802269
_cell_angle_beta   90.00000000
_cell_angle_gamma   90.00000000
_symmetry_Int_Tables_number   1
_chemical_formula_structural   Li2Mg3Ti6O16
_chemical_formula_sum   'Li4 Mg6 Ti12 O32'
_cell_volume   609.46354137
_cell_formula_units_Z   2
loop_
 _symmetry_equiv_pos_site_id
 _symmetry_equiv_pos_as_xyz
  1  'x, y, z'
loop_
 _atom_site_type_symbol
 _atom_site_label
 _atom_site_symmetry_multiplicity
 _atom_site_fract_x
 _atom_site_fract_y
 _atom_site_fract_z
 _atom_site_occupancy
  Li  Li0  1  0.62438400  0.87516600  0.62604300  1
  Li  Li1  1  0.12438400  0.12483400  0.37395700  1
  Li  Li2  1  0.50233000  0.00461200  0.24822200  1
  Li  Li3  1  0.00233000  0.99538800  0.75177800  1
  Mg  Mg0  1  0.49502000  0.49837500  0.74395600  1
  Mg  Mg1  1  0.24735700  0.74977200  0.50564700  1
  Mg  Mg2  1  0.74735700  0.25022800  0.49435300  1
  Mg  Mg3  1  0.99502000  0.50162500  0.25604400  1
  Mg  Mg4  1  0.75532200  0.75778100  0.00208700  1
  Mg  Mg5  1  0.25532200  0.24221900  0.99791300  1
  Ti  Ti0  1  0.86839300  0.62516400  0.63393600  1
  Ti  Ti1  1  0.11536200  0.36403200  0.63178200  1
  Ti  Ti2  1  0.37301800  0.11735800  0.61591700  1
  Ti  Ti3  1  0.87301800  0.88264200  0.38408300  1
  Ti  Ti4  1  0.61536200  0.63596800  0.36821800  1
  Ti  Ti5  1  0.36839300  0.37483600  0.36606400  1
  Ti  Ti6  1  0.13624700  0.87343100  0.13028400  1
  Ti  Ti7  1  0.87966700  0.13177100  0.11681200  1
  Ti  Ti8  1  0.62504600  0.38077700  0.11574600  1
  Ti  Ti9  1  0.12504600  0.61922300  0.88425400  1
  Ti  Ti10  1  0.37966700  0.86822900  0.88318800  1
  Ti  Ti11  1  0.63624700  0.12656900  0.86971600  1
  O  O0  1  0.61100600  0.13087300  0.64400700  1
  O  O1  1  0.37230100  0.89539000  0.63885200  1
  O  O2  1  0.11033600  0.61158100  0.63770600  1
  O  O3  1  0.14034000  0.14501600  0.62776600  1
  O  O4  1  0.89612300  0.39173000  0.60747100  1
  O  O5  1  0.36151900  0.36096000  0.61233600  1
  O  O6  1  0.64514400  0.61999200  0.61062900  1
  O  O7  1  0.87752900  0.85762900  0.60327400  1
  O  O8  1  0.37752900  0.14237100  0.39672600  1
  O  O9  1  0.14514400  0.38000800  0.38937100  1
  O  O10  1  0.86151900  0.63904000  0.38766400  1
  O  O11  1  0.39612300  0.60827000  0.39252900  1
  O  O12  1  0.64034000  0.85498400  0.37223400  1
  O  O13  1  0.61033600  0.38841900  0.36229400  1
  O  O14  1  0.87230100  0.10461000  0.36114800  1
  O  O15  1  0.11100600  0.86912700  0.35599300  1
  O  O16  1  0.39227100  0.35953600  0.14667500  1
  O  O17  1  0.64269000  0.60427900  0.14076000  1
  O  O18  1  0.88782400  0.89020800  0.13992100  1
  O  O19  1  0.85764600  0.35212800  0.14256100  1
  O  O20  1  0.10579900  0.11066400  0.12189500  1
  O  O21  1  0.64059900  0.13958300  0.10852900  1
  O  O22  1  0.35387100  0.88999300  0.10807500  1
  O  O23  1  0.10753100  0.64064600  0.10483300  1
  O  O24  1  0.60753100  0.35935400  0.89516700  1
  O  O25  1  0.85387100  0.11000700  0.89192500  1
  O  O26  1  0.14059900  0.86041700  0.89147100  1
  O  O27  1  0.60579900  0.88933600  0.87810500  1
  O  O28  1  0.35764600  0.64787200  0.85743900  1
  O  O29  1  0.38782400  0.10979200  0.86007900  1
  O  O30  1  0.14269000  0.39572100  0.85924000  1
  O  O31  1  0.89227100  0.64046400  0.85332500  1
loop_
_geom_bond_atom_site_label_1
_geom_bond_atom_site_label_2
_geom_bond_distance
_geom_bond_site_symmetry_2
Li0 O1 2.145835 1_555
Li0 O27 2.147985 1_555
Li0 O7 2.159037 1_555
Li0 O12 2.164898 1_555
Li0 O6 2.175077 1_555
Li0 O0 2.176924 1_565
Li1 O14 2.145835 1_455
Li1 O20 2.147985 1_555
Li1 O8 2.159037 1_555
Li1 O3 2.164898 1_555
Li1 O9 2.175077 1_555
Li1 O15 2.176924 1_545
Li2 O22 1.987722 1_545
Li2 O12 2.017808 1_545
Li2 O21 2.018475 1_555
Li2 O8 2.020659 1_555
Li3 O25 1.987722 1_465
Li3 O3 2.017808 1_565
Li3 O26 2.018475 1_555
Li3 O7 2.020659 1_455
Mg0 O5 1.973756 1_555
Mg0 O28 1.974732 1_555
Mg0 O24 1.982382 1_555
Mg0 O6 1.987490 1_555
Mg1 O1 1.983647 1_555
Mg1 O15 1.989726 1_555
Mg1 O11 1.989933 1_555
Mg1 O2 1.990954 1_555
Mg2 O14 1.983647 1_555
Mg2 O0 1.989726 1_555
Mg2 O4 1.989933 1_555
Mg2 O13 1.990954 1_555
Mg3 O10 1.973756 1_555
Mg3 O19 1.974732 1_555
Mg3 O23 1.982382 1_655
Mg3 O9 1.987490 1_655
Mg4 O18 1.974965 1_555
Mg4 O31 1.984980 1_554
Mg4 O27 1.986185 1_554
Mg4 O17 1.993626 1_555
Mg5 O29 1.974965 1_555
Mg5 O16 1.984980 1_556
Mg5 O20 1.986185 1_556
Mg5 O30 1.993626 1_555
O0 Ti11 1.926816 1_555
O0 Ti2 2.034051 1_555
O1 Ti2 1.891036 1_565
O1 Ti10 2.085382 1_555
O2 Ti0 2.053717 1_455
O2 Ti9 2.096515 1_555
O2 Ti1 2.100024 1_555
O3 Ti1 1.869343 1_555
O3 Ti2 1.988224 1_555
O4 Ti1 1.883836 1_655
O4 Ti0 2.006611 1_555
O5 Ti2 2.067679 1_555
O5 Ti1 2.092639 1_555
O5 Ti5 2.092749 1_555
O6 Ti0 1.902660 1_555
O6 Ti4 2.075650 1_555
O7 Ti3 1.870914 1_555
O7 Ti0 1.988295 1_555
O8 Ti2 1.870914 1_555
O8 Ti5 1.988295 1_555
O9 Ti5 1.902660 1_555
O9 Ti1 2.075650 1_555
O10 Ti3 2.067679 1_555
O10 Ti4 2.092639 1_555
O10 Ti0 2.092749 1_555
O11 Ti4 1.883836 1_555
O11 Ti5 2.006611 1_555
O12 Ti4 1.869343 1_555
O12 Ti3 1.988224 1_555
O13 Ti5 2.053717 1_555
O13 Ti8 2.096515 1_555
O13 Ti4 2.100024 1_555
O14 Ti3 1.891036 1_545
O14 Ti7 2.085382 1_555
O15 Ti6 1.926816 1_555
O15 Ti3 2.034051 1_455
O16 Ti5 1.877157 1_555
O16 Ti8 1.997952 1_555
O17 Ti8 1.913545 1_555
O17 Ti4 1.963101 1_555
O18 Ti7 2.057640 1_565
O18 Ti3 2.075761 1_555
O18 Ti6 2.111565 1_655
O19 Ti7 1.891169 1_555
O19 Ti8 1.998840 1_555
O20 Ti7 1.925063 1_455
O20 Ti6 2.028708 1_545
O21 Ti7 2.028171 1_555
O21 Ti11 2.029731 1_554
O21 Ti8 2.050318 1_555
O22 Ti6 1.859008 1_555
O22 Ti10 1.929915 1_554
O23 Ti9 1.886676 1_554
O23 Ti6 2.001195 1_555
O24 Ti8 1.886676 1_556
O24 Ti11 2.001195 1_555
O25 Ti11 1.859008 1_555
O25 Ti7 1.929915 1_556
O26 Ti10 2.028171 1_555
O26 Ti6 2.029731 1_556
O26 Ti9 2.050318 1_555
O27 Ti10 1.925063 1_555
O27 Ti11 2.028708 1_565
O28 Ti10 1.891169 1_555
O28 Ti9 1.998840 1_555
O29 Ti10 2.057640 1_545
O29 Ti2 2.075761 1_555
O29 Ti11 2.111565 1_555
O30 Ti9 1.913545 1_555
O30 Ti1 1.963101 1_555
O31 Ti0 1.877157 1_555
O31 Ti9 1.997952 1_655
