# generated using pymatgen
data_KNb2PO8
_symmetry_space_group_name_H-M   'P 1'
_cell_length_a   8.52236369
_cell_length_b   8.52236369
_cell_length_c   8.52236338
_cell_angle_alpha   104.13103007
_cell_angle_beta   104.13103007
_cell_angle_gamma   104.13102101
_symmetry_Int_Tables_number   1
_chemical_formula_structural   KNb2PO8
_chemical_formula_sum   'K3 Nb6 P3 O24'
_cell_volume   550.89081457
_cell_formula_units_Z   3
loop_
 _symmetry_equiv_pos_site_id
 _symmetry_equiv_pos_as_xyz
  1  'x, y, z'
loop_
 _atom_site_type_symbol
 _atom_site_label
 _atom_site_symmetry_multiplicity
 _atom_site_fract_x
 _atom_site_fract_y
 _atom_site_fract_z
 _atom_site_occupancy
  K  K0  1  0.40447900  0.09134800  0.68903900  1
  K  K1  1  0.09134800  0.68903900  0.40447900  1
  K  K2  1  0.68903900  0.40447900  0.09134800  1
  Nb  Nb0  1  0.64679400  0.84050100  0.96381300  1
  Nb  Nb1  1  0.96381300  0.64679400  0.84050100  1
  Nb  Nb2  1  0.03343900  0.15815100  0.35023800  1
  Nb  Nb3  1  0.84050100  0.96381300  0.64679400  1
  Nb  Nb4  1  0.35023800  0.03343900  0.15815100  1
  Nb  Nb5  1  0.15815100  0.35023800  0.03343900  1
  P  P0  1  0.27648300  0.49970600  0.72447300  1
  P  P1  1  0.72447300  0.27648300  0.49970600  1
  P  P2  1  0.49970600  0.72447300  0.27648300  1
  O  O0  1  0.02559500  0.50081900  0.97582700  1
  O  O1  1  0.15345000  0.84678300  0.00011700  1
  O  O2  1  0.29230800  0.41587900  0.86765500  1
  O  O3  1  0.79376800  0.68467800  0.93699700  1
  O  O4  1  0.00011700  0.15345000  0.84678300  1
  O  O5  1  0.13283300  0.58294600  0.70820000  1
  O  O6  1  0.44709100  0.64208700  0.76616700  1
  O  O7  1  0.23565300  0.35783400  0.55385000  1
  O  O8  1  0.68467800  0.93699700  0.79376800  1
  O  O9  1  0.70820000  0.13283300  0.58294600  1
  O  O10  1  0.76616700  0.44709100  0.64208700  1
  O  O11  1  0.93699700  0.79376800  0.68467800  1
  O  O12  1  0.97582700  0.02559500  0.50081900  1
  O  O13  1  0.20705200  0.06341800  0.31714600  1
  O  O14  1  0.55385000  0.23565300  0.35783400  1
  O  O15  1  0.86765500  0.29230800  0.41587900  1
  O  O16  1  0.06341800  0.31714600  0.20705200  1
  O  O17  1  0.64208700  0.76616700  0.44709100  1
  O  O18  1  0.35783400  0.55385000  0.23565300  1
  O  O19  1  0.41587900  0.86765500  0.29230800  1
  O  O20  1  0.31714600  0.20705200  0.06341800  1
  O  O21  1  0.58294600  0.70820000  0.13283300  1
  O  O22  1  0.84678300  0.00011700  0.15345000  1
  O  O23  1  0.50081900  0.97582700  0.02559500  1
loop_
_geom_bond_atom_site_label_1
_geom_bond_atom_site_label_2
_geom_bond_distance
_geom_bond_site_symmetry_2
K0 O9 2.914520 1_555
K0 O8 3.048887 1_545
K0 O13 3.124900 1_555
K0 O23 3.239426 1_546
K0 O7 3.258701 1_555
K0 O2 3.290342 1_555
K1 O5 2.914519 1_555
K1 O11 3.048887 1_455
K1 O16 3.124900 1_555
K1 O12 3.239426 1_465
K1 O18 3.258701 1_555
K1 O19 3.290343 1_555
K2 O21 2.914519 1_555
K2 O3 3.048887 1_554
K2 O20 3.124900 1_555
K2 O0 3.239426 1_654
K2 O14 3.258701 1_555
K2 O15 3.290342 1_555
Nb0 O8 1.887170 1_555
Nb0 O22 1.953657 1_566
Nb0 O23 1.969490 1_556
Nb0 O3 2.046573 1_555
Nb0 O6 2.097001 1_555
Nb0 O21 2.125665 1_556
Nb1 O3 1.887170 1_555
Nb1 O1 1.953657 1_656
Nb1 O0 1.969490 1_655
Nb1 O11 2.046574 1_555
Nb1 O10 2.097001 1_555
Nb1 O5 2.125665 1_655
Nb2 O13 1.896415 1_555
Nb2 O22 1.924941 1_455
Nb2 O12 1.977082 1_455
Nb2 O16 2.044747 1_555
Nb2 O15 2.116306 1_455
Nb2 O7 2.131426 1_555
Nb3 O11 1.887170 1_555
Nb3 O4 1.953657 1_665
Nb3 O12 1.969490 1_565
Nb3 O8 2.046574 1_555
Nb3 O17 2.097001 1_555
Nb3 O9 2.125665 1_565
Nb4 O20 1.896415 1_555
Nb4 O1 1.924941 1_545
Nb4 O23 1.977082 1_545
Nb4 O13 2.044747 1_555
Nb4 O19 2.116306 1_545
Nb4 O14 2.131426 1_555
Nb5 O16 1.896415 1_555
Nb5 O4 1.924941 1_554
Nb5 O0 1.977082 1_554
Nb5 O20 2.044747 1_555
Nb5 O2 2.116306 1_554
Nb5 O18 2.131426 1_555
O2 P0 1.552391 1_555
O5 P0 1.552559 1_555
O6 P0 1.545462 1_555
O7 P0 1.544813 1_555
O9 P1 1.552559 1_555
O10 P1 1.545462 1_555
O14 P1 1.544813 1_555
O15 P1 1.552391 1_555
O17 P2 1.545462 1_555
O18 P2 1.544813 1_555
O19 P2 1.552391 1_555
O21 P2 1.552559 1_555
