# generated using pymatgen
data_Li3MnFe3O8
_symmetry_space_group_name_H-M   'P 1'
_cell_length_a   5.98953964
_cell_length_b   5.98953964
_cell_length_c   5.98953943
_cell_angle_alpha   59.52564396
_cell_angle_beta   59.52564396
_cell_angle_gamma   59.52564275
_symmetry_Int_Tables_number   1
_chemical_formula_structural   Li3MnFe3O8
_chemical_formula_sum   'Li3 Mn1 Fe3 O8'
_cell_volume   150.29875068
_cell_formula_units_Z   1
loop_
 _symmetry_equiv_pos_site_id
 _symmetry_equiv_pos_as_xyz
  1  'x, y, z'
loop_
 _atom_site_type_symbol
 _atom_site_label
 _atom_site_symmetry_multiplicity
 _atom_site_fract_x
 _atom_site_fract_y
 _atom_site_fract_z
 _atom_site_occupancy
  Li  Li0  1  0.00000000  0.00000000  0.50000000  1
  Li  Li1  1  0.00000000  0.50000000  0.00000000  1
  Li  Li2  1  0.50000000  0.00000000  0.00000000  1
  Mn  Mn0  1  0.00000000  0.00000000  0.00000000  1
  Fe  Fe0  1  0.50000000  0.50000000  0.00000000  1
  Fe  Fe1  1  0.50000000  0.00000000  0.50000000  1
  Fe  Fe2  1  0.00000000  0.50000000  0.50000000  1
  O  O0  1  0.74191200  0.74191200  0.74191200  1
  O  O1  1  0.22997200  0.22997200  0.75717600  1
  O  O2  1  0.22997200  0.75717600  0.22997200  1
  O  O3  1  0.25808800  0.25808800  0.25808800  1
  O  O4  1  0.75717600  0.22997200  0.22997200  1
  O  O5  1  0.77002800  0.77002800  0.24282400  1
  O  O6  1  0.77002800  0.24282400  0.77002800  1
  O  O7  1  0.24282400  0.77002800  0.77002800  1
loop_
_geom_bond_atom_site_label_1
_geom_bond_atom_site_label_2
_geom_bond_distance
_geom_bond_site_symmetry_2
Li0 O6 2.173173 1_455
Li0 O7 2.173173 1_545
Li0 O4 2.173173 1_455
Li0 O2 2.173173 1_545
Li0 O0 2.181435 1_445
Li0 O3 2.181435 1_555
Li1 O5 2.173173 1_455
Li1 O1 2.173173 1_554
Li1 O7 2.173173 1_554
Li1 O4 2.173173 1_455
Li1 O3 2.181435 1_555
Li1 O0 2.181435 1_454
Li2 O5 2.173173 1_545
Li2 O1 2.173173 1_554
Li2 O6 2.173173 1_554
Li2 O2 2.173173 1_545
Li2 O3 2.181435 1_555
Li2 O0 2.181435 1_544
Mn0 O2 1.941741 1_545
Mn0 O4 1.941741 1_455
Mn0 O6 1.941741 1_454
Mn0 O7 1.941741 1_544
Mn0 O1 1.941741 1_554
Mn0 O5 1.941741 1_445
Fe0 O3 2.043086 1_555
Fe0 O0 2.043086 1_554
Fe0 O2 2.061878 1_555
Fe0 O4 2.061878 1_555
Fe0 O7 2.061878 1_554
Fe0 O6 2.061878 1_554
Fe1 O3 2.043086 1_555
Fe1 O0 2.043086 1_545
Fe1 O1 2.061878 1_555
Fe1 O5 2.061878 1_545
Fe1 O4 2.061879 1_555
Fe1 O7 2.061879 1_545
Fe2 O3 2.043086 1_555
Fe2 O0 2.043086 1_455
Fe2 O1 2.061878 1_555
Fe2 O5 2.061878 1_455
Fe2 O2 2.061879 1_555
Fe2 O6 2.061879 1_455
