# generated using pymatgen
data_Li6VNi3(PO4)6
_symmetry_space_group_name_H-M   'P 1'
_cell_length_a   8.61594700
_cell_length_b   8.66542771
_cell_length_c   8.67128870
_cell_angle_alpha   60.82254166
_cell_angle_beta   60.61360660
_cell_angle_gamma   60.98533069
_symmetry_Int_Tables_number   1
_chemical_formula_structural   Li6VNi3(PO4)6
_chemical_formula_sum   'Li6 V1 Ni3 P6 O24'
_cell_volume   466.10936341
_cell_formula_units_Z   1
loop_
 _symmetry_equiv_pos_site_id
 _symmetry_equiv_pos_as_xyz
  1  'x, y, z'
loop_
 _atom_site_type_symbol
 _atom_site_label
 _atom_site_symmetry_multiplicity
 _atom_site_fract_x
 _atom_site_fract_y
 _atom_site_fract_z
 _atom_site_occupancy
  Li  Li0  1  0.02847000  0.01888700  0.00578100  1
  Li  Li1  1  0.74755700  0.15818600  0.35172300  1
  Li  Li2  1  0.47907100  0.50391700  0.48947600  1
  Li  Li3  1  0.29729000  0.85121800  0.64144000  1
  Li  Li4  1  0.64592700  0.30215700  0.84428000  1
  Li  Li5  1  0.84831900  0.64374800  0.29894700  1
  V  V0  1  0.85105700  0.85046400  0.85291800  1
  Ni  Ni0  1  0.14296400  0.14669500  0.14175600  1
  Ni  Ni1  1  0.35737900  0.36156000  0.35394200  1
  Ni  Ni2  1  0.64493000  0.64776600  0.64653500  1
  P  P0  1  0.04531000  0.74868600  0.44941700  1
  P  P1  1  0.45149200  0.04402300  0.74730100  1
  P  P2  1  0.74818400  0.45170500  0.04207400  1
  P  P3  1  0.24226700  0.54461700  0.95842900  1
  P  P4  1  0.54612600  0.96258700  0.24570900  1
  P  P5  1  0.95641700  0.24248200  0.53808200  1
  O  O0  1  0.13604300  0.25893400  0.51093300  1
  O  O1  1  0.26661700  0.52801800  0.12827200  1
  O  O2  1  0.04768700  0.92133600  0.27078000  1
  O  O3  1  0.55159300  0.12121000  0.27354100  1
  O  O4  1  0.23282800  0.59330700  0.44961500  1
  O  O5  1  0.97923400  0.81502400  0.62185000  1
  O  O6  1  0.26579500  0.07420700  0.90545900  1
  O  O7  1  0.48199100  0.21960300  0.57746100  1
  O  O8  1  0.59290000  0.45100400  0.23343700  1
  O  O9  1  0.18573600  0.38868300  0.98906900  1
  O  O10  1  0.08919300  0.74502500  0.90321700  1
  O  O11  1  0.37972100  0.00943300  0.19707600  1
  O  O12  1  0.62198500  0.97153800  0.82087400  1
  O  O13  1  0.90504600  0.26212400  0.06797100  1
  O  O14  1  0.81990100  0.61867200  0.97941900  1
  O  O15  1  0.41557200  0.55388300  0.77322100  1
  O  O16  1  0.55566100  0.77515800  0.41491700  1
  O  O17  1  0.74308400  0.90479100  0.08613600  1
  O  O18  1  0.96499500  0.19560400  0.38473300  1
  O  O19  1  0.77502100  0.41634500  0.55712600  1
  O  O20  1  0.47411800  0.88887500  0.69266100  1
  O  O21  1  0.90546300  0.08722300  0.73896800  1
  O  O22  1  0.68683400  0.48172800  0.88918700  1
  O  O23  1  0.89022200  0.68857100  0.47726800  1
loop_
_geom_bond_atom_site_label_1
_geom_bond_atom_site_label_2
_geom_bond_distance
_geom_bond_site_symmetry_2
Li0 O6 1.991544 1_554
Li0 O13 2.058015 1_455
Li0 O2 2.089476 1_545
Li1 O13 2.110613 1_555
Li1 O7 2.188423 1_555
Li1 O8 2.188565 1_555
Li1 O18 2.214239 1_555
Li1 O3 2.296290 1_555
Li1 O2 2.422147 1_645
Li2 O4 2.021176 1_555
Li2 O8 2.126206 1_555
Li2 O7 2.185983 1_555
Li2 O16 2.445848 1_555
Li2 O15 2.455277 1_555
Li2 O19 2.564912 1_555
Li3 O20 1.978031 1_555
Li3 O15 2.169767 1_555
Li3 O10 2.187182 1_555
Li3 O16 2.189969 1_555
Li4 O22 1.988641 1_555
Li4 O19 2.088928 1_555
Li4 O15 2.183320 1_555
Li4 O21 2.217505 1_555
Li5 O23 1.985362 1_555
Li5 O16 2.123368 1_555
Li5 O19 2.193658 1_555
Li5 O17 2.219609 1_555
Ni0 O9 1.962057 1_554
Ni0 O11 1.963749 1_555
Ni0 O18 2.009883 1_455
Ni0 O6 2.048147 1_554
Ni0 O2 2.064613 1_545
Ni0 O13 2.070272 1_455
Ni1 O1 2.043725 1_555
Ni1 O0 2.048843 1_555
Ni1 O8 2.113174 1_555
Ni1 O3 2.124614 1_555
Ni1 O4 2.129046 1_555
Ni1 O7 2.204288 1_555
Ni2 O22 1.979285 1_555
Ni2 O23 1.980029 1_555
Ni2 O20 1.986309 1_555
Ni2 O15 2.081208 1_555
Ni2 O19 2.088428 1_555
Ni2 O16 2.091548 1_555
O0 P5 1.514829 1_455
O1 P3 1.516948 1_554
O2 P0 1.541794 1_555
O3 P4 1.532065 1_545
O4 P0 1.520990 1_555
O5 P0 1.604813 1_655
O5 V0 1.851470 1_555
O6 P1 1.516408 1_555
O7 P1 1.541474 1_555
O8 P2 1.537147 1_555
O9 P3 1.514946 1_555
O10 P3 1.603646 1_555
O10 V0 1.976344 1_455
O11 P4 1.503361 1_545
O12 P1 1.610380 1_565
O12 V0 1.821695 1_555
O13 P2 1.536280 1_555
O14 P2 1.594266 1_556
O14 V0 1.842688 1_555
O15 P3 1.566017 1_555
O16 P4 1.569321 1_555
O17 P4 1.609974 1_555
O17 V0 1.958025 1_554
O18 P5 1.529630 1_555
O19 P5 1.563609 1_555
O20 P1 1.531717 1_565
O21 P5 1.604538 1_555
O21 V0 1.976611 1_545
O22 P2 1.524032 1_556
O23 P0 1.533319 1_655
