# generated using pymatgen
data_FeOF
_symmetry_space_group_name_H-M   'P 1'
_cell_length_a   4.77181926
_cell_length_b   4.77181926
_cell_length_c   12.22597100
_cell_angle_alpha   90.00000000
_cell_angle_beta   90.00000000
_cell_angle_gamma   90.04477791
_symmetry_Int_Tables_number   1
_chemical_formula_structural   FeOF
_chemical_formula_sum   'Fe8 O8 F8'
_cell_volume   278.38844184
_cell_formula_units_Z   8
loop_
 _symmetry_equiv_pos_site_id
 _symmetry_equiv_pos_as_xyz
  1  'x, y, z'
loop_
 _atom_site_type_symbol
 _atom_site_label
 _atom_site_symmetry_multiplicity
 _atom_site_fract_x
 _atom_site_fract_y
 _atom_site_fract_z
 _atom_site_occupancy
  Fe  Fe0  1  0.03642000  0.96358000  0.00000000  1
  Fe  Fe1  1  0.94526200  0.01755000  0.25000000  1
  Fe  Fe2  1  0.03642000  0.96358000  0.50000000  1
  Fe  Fe3  1  0.98245000  0.05473800  0.75000000  1
  Fe  Fe4  1  0.52907300  0.52876900  0.12464300  1
  Fe  Fe5  1  0.47123100  0.47092700  0.62464300  1
  Fe  Fe6  1  0.47123100  0.47092700  0.87535700  1
  Fe  Fe7  1  0.52907300  0.52876900  0.37535700  1
  O  O0  1  0.18285600  0.18501700  0.62206500  1
  O  O1  1  0.18285600  0.18501700  0.87793500  1
  O  O2  1  0.68640300  0.32699800  0.25000000  1
  O  O3  1  0.67300200  0.31359700  0.75000000  1
  O  O4  1  0.32087200  0.67912800  0.00000000  1
  O  O5  1  0.32087200  0.67912800  0.50000000  1
  O  O6  1  0.81498300  0.81714400  0.12206500  1
  O  O7  1  0.81498300  0.81714400  0.37793500  1
  F  F0  1  0.20235300  0.19987700  0.12709600  1
  F  F1  1  0.20235300  0.19987700  0.37290400  1
  F  F2  1  0.70425800  0.29574200  0.00000000  1
  F  F3  1  0.70425800  0.29574200  0.50000000  1
  F  F4  1  0.30489900  0.71635400  0.25000000  1
  F  F5  1  0.28364600  0.69510100  0.75000000  1
  F  F6  1  0.80012300  0.79764700  0.62709600  1
  F  F7  1  0.80012300  0.79764700  0.87290400  1
loop_
_geom_bond_atom_site_label_1
_geom_bond_atom_site_label_2
_geom_bond_distance
_geom_bond_site_symmetry_2
Fe0 O4 1.920338 1_555
Fe0 O6 1.957241 1_455
Fe0 O1 1.957241 1_564
Fe1 O2 1.925896 1_555
Fe1 O7 1.935602 1_545
Fe1 O6 1.935602 1_545
Fe2 O5 1.920338 1_555
Fe2 O0 1.957241 1_565
Fe2 O7 1.957241 1_455
Fe3 O3 1.925896 1_555
Fe3 O1 1.935602 1_655
Fe3 O0 1.935602 1_655
Fe4 O6 1.937261 1_555
Fe4 O4 1.955800 1_555
Fe4 O2 1.959761 1_555
Fe5 O0 1.937261 1_555
Fe5 O5 1.955800 1_555
Fe5 O3 1.959761 1_555
Fe6 O1 1.937261 1_555
Fe6 O4 1.955800 1_556
Fe6 O3 1.959761 1_555
Fe7 O7 1.937261 1_555
Fe7 O5 1.955800 1_555
Fe7 O2 1.959761 1_555
F0 Fe0 2.076410 1_545
F0 Fe1 2.125600 1_455
F0 Fe4 2.211508 1_555
F1 Fe2 2.076410 1_545
F1 Fe1 2.125600 1_455
F1 Fe7 2.211508 1_555
F2 Fe4 2.063721 1_555
F2 Fe6 2.063721 1_554
F2 Fe0 2.242428 1_645
F3 Fe7 2.063721 1_555
F3 Fe5 2.063721 1_555
F3 Fe2 2.242428 1_645
F4 Fe7 2.072663 1_555
F4 Fe4 2.072663 1_555
F4 Fe1 2.239337 1_465
F5 Fe6 2.072663 1_555
F5 Fe5 2.072663 1_555
F5 Fe3 2.239337 1_465
F6 Fe2 2.076410 1_655
F6 Fe3 2.125600 1_565
F6 Fe5 2.211508 1_555
F7 Fe0 2.076410 1_656
F7 Fe3 2.125600 1_565
F7 Fe6 2.211508 1_555
