# generated using pymatgen
data_LiCr2(PO5)2
_symmetry_space_group_name_H-M   'P 1'
_cell_length_a   6.73254742
_cell_length_b   6.97414818
_cell_length_c   8.03872082
_cell_angle_alpha   89.96172990
_cell_angle_beta   90.67257991
_cell_angle_gamma   116.05799534
_symmetry_Int_Tables_number   1
_chemical_formula_structural   LiCr2(PO5)2
_chemical_formula_sum   'Li2 Cr4 P4 O20'
_cell_volume   339.05308395
_cell_formula_units_Z   2
loop_
 _symmetry_equiv_pos_site_id
 _symmetry_equiv_pos_as_xyz
  1  'x, y, z'
loop_
 _atom_site_type_symbol
 _atom_site_label
 _atom_site_symmetry_multiplicity
 _atom_site_fract_x
 _atom_site_fract_y
 _atom_site_fract_z
 _atom_site_occupancy
  Li  Li0  1  0.22165500  0.28035100  0.07236600  1
  Li  Li1  1  0.68985200  0.18432900  0.56858600  1
  Cr  Cr0  1  0.24250700  0.00292600  0.75475900  1
  Cr  Cr1  1  0.24748700  0.50224100  0.73965300  1
  Cr  Cr2  1  0.76019900  0.50260700  0.24891300  1
  Cr  Cr3  1  0.75193100  0.00082500  0.24331700  1
  P  P0  1  0.24016500  0.75602200  0.08392100  1
  P  P1  1  0.26323100  0.24293200  0.41535000  1
  P  P2  1  0.73975400  0.75462600  0.58313400  1
  P  P3  1  0.76026300  0.24737600  0.91405700  1
  O  O0  1  0.14603200  0.88132100  0.97679100  1
  O  O1  1  0.07237700  0.63387600  0.22303600  1
  O  O2  1  0.23505800  0.74140500  0.69649700  1
  O  O3  1  0.28103900  0.58516200  0.98576200  1
  O  O4  1  0.19182000  0.38916100  0.51822200  1
  O  O5  1  0.06554200  0.09030000  0.30767000  1
  O  O6  1  0.45169200  0.91713100  0.17177400  1
  O  O7  1  0.26026000  0.25844700  0.82662700  1
  O  O8  1  0.65708700  0.89084800  0.47568100  1
  O  O9  1  0.43467300  0.37163000  0.28066000  1
  O  O10  1  0.56264700  0.62399800  0.71237400  1
  O  O11  1  0.35921100  0.12726700  0.53162600  1
  O  O12  1  0.73945400  0.75219100  0.19380900  1
  O  O13  1  0.55448500  0.08578500  0.81798000  1
  O  O14  1  0.94274000  0.91201800  0.68274000  1
  O  O15  1  0.79837600  0.59798000  0.48333700  1
  O  O16  1  0.70493900  0.40289200  0.01773400  1
  O  O17  1  0.76295900  0.24856000  0.32373800  1
  O  O18  1  0.92198400  0.35888300  0.76999700  1
  O  O19  1  0.86539700  0.13552800  0.02882400  1
loop_
_geom_bond_atom_site_label_1
_geom_bond_atom_site_label_2
_geom_bond_distance
_geom_bond_site_symmetry_2
Li0 O7 2.010110 1_554
Li0 O9 2.099682 1_555
Li0 O3 2.102711 1_554
Li0 O19 2.178984 1_455
Li0 O5 2.293213 1_555
Li1 O17 2.035890 1_555
Li1 O8 2.096959 1_545
Li1 O11 2.099596 1_555
Li1 O13 2.193842 1_555
Li1 O18 2.194906 1_555
Cr0 O7 1.826568 1_555
Cr0 O2 1.862433 1_545
Cr0 O14 1.912890 1_445
Cr0 O0 1.966742 1_545
Cr0 O13 1.978103 1_555
Cr0 O11 2.004772 1_555
Cr1 O2 1.740871 1_555
Cr1 O7 1.874179 1_555
Cr1 O4 1.912440 1_555
Cr1 O10 1.923286 1_555
Cr1 O18 1.987181 1_455
Cr1 O3 2.043478 1_555
Cr2 O12 1.859205 1_555
Cr2 O17 1.878436 1_555
Cr2 O1 1.902183 1_655
Cr2 O16 1.958012 1_555
Cr2 O15 1.974793 1_555
Cr2 O9 1.989149 1_555
Cr3 O12 1.744822 1_545
Cr3 O17 1.815545 1_555
Cr3 O6 1.921973 1_545
Cr3 O19 1.958930 1_555
Cr3 O5 1.982995 1_655
Cr3 O8 2.020126 1_545
O0 P0 1.542611 1_556
O1 P0 1.560550 1_555
O3 P0 1.553295 1_556
O4 P1 1.547990 1_555
O5 P1 1.543790 1_555
O6 P0 1.536543 1_555
O8 P2 1.552611 1_555
O9 P1 1.558221 1_555
O10 P2 1.550660 1_555
O11 P1 1.544255 1_555
O13 P3 1.546042 1_555
O14 P2 1.539872 1_555
O15 P2 1.542812 1_555
O16 P3 1.540486 1_554
O18 P3 1.554298 1_555
O19 P3 1.558660 1_554
