# generated using pymatgen
data_Ba(SbO2)3
_symmetry_space_group_name_H-M   'P 1'
_cell_length_a   5.50942300
_cell_length_b   9.55735800
_cell_length_c   14.43386855
_cell_angle_alpha   82.97731148
_cell_angle_beta   90.00000000
_cell_angle_gamma   90.00000000
_symmetry_Int_Tables_number   1
_chemical_formula_structural   Ba(SbO2)3
_chemical_formula_sum   'Ba4 Sb12 O24'
_cell_volume   754.32113655
_cell_formula_units_Z   4
loop_
 _symmetry_equiv_pos_site_id
 _symmetry_equiv_pos_as_xyz
  1  'x, y, z'
loop_
 _atom_site_type_symbol
 _atom_site_label
 _atom_site_symmetry_multiplicity
 _atom_site_fract_x
 _atom_site_fract_y
 _atom_site_fract_z
 _atom_site_occupancy
  Ba  Ba0  1  0.72027000  0.94902100  0.39014800  1
  Ba  Ba1  1  0.22027000  0.05097900  0.10985200  1
  Ba  Ba2  1  0.27973000  0.05097900  0.60985200  1
  Ba  Ba3  1  0.77973000  0.94902100  0.89014800  1
  Sb  Sb0  1  0.19002900  0.67328800  0.29351200  1
  Sb  Sb1  1  0.69002900  0.32671200  0.20648800  1
  Sb  Sb2  1  0.80997100  0.32671200  0.70648800  1
  Sb  Sb3  1  0.30997100  0.67328800  0.79351200  1
  Sb  Sb4  1  0.22074100  0.60515900  0.02323600  1
  Sb  Sb5  1  0.72074100  0.39484100  0.47676400  1
  Sb  Sb6  1  0.77925900  0.39484100  0.97676400  1
  Sb  Sb7  1  0.27925900  0.60515900  0.52323600  1
  Sb  Sb8  1  0.70456700  0.76746500  0.14802400  1
  Sb  Sb9  1  0.20456700  0.23253500  0.35197600  1
  Sb  Sb10  1  0.29543300  0.23253500  0.85197600  1
  Sb  Sb11  1  0.79543300  0.76746500  0.64802400  1
  O  O0  1  0.47437900  0.55333700  0.41374600  1
  O  O1  1  0.97437900  0.44666300  0.08625400  1
  O  O2  1  0.52562100  0.44666300  0.58625400  1
  O  O3  1  0.02562100  0.55333700  0.91374600  1
  O  O4  1  0.66757500  0.94889800  0.07914600  1
  O  O5  1  0.16757500  0.05110200  0.42085400  1
  O  O6  1  0.33242500  0.05110200  0.92085400  1
  O  O7  1  0.83242500  0.94889800  0.57914600  1
  O  O8  1  0.10533400  0.73278100  0.41736300  1
  O  O9  1  0.60533400  0.26721900  0.08263700  1
  O  O10  1  0.89466600  0.26721900  0.58263700  1
  O  O11  1  0.39466600  0.73278100  0.91736300  1
  O  O12  1  0.02861300  0.76139100  0.05931800  1
  O  O13  1  0.52861300  0.23860900  0.44068200  1
  O  O14  1  0.97138700  0.23860900  0.94068200  1
  O  O15  1  0.47138700  0.76139100  0.55931800  1
  O  O16  1  0.44182600  0.81419900  0.24983600  1
  O  O17  1  0.94182600  0.18580100  0.25016400  1
  O  O18  1  0.55817400  0.18580100  0.75016400  1
  O  O19  1  0.05817400  0.81419900  0.74983600  1
  O  O20  1  0.93738400  0.82037000  0.24389600  1
  O  O21  1  0.43738400  0.17963000  0.25610400  1
  O  O22  1  0.06261600  0.17963000  0.75610400  1
  O  O23  1  0.56261600  0.82037000  0.74389600  1
loop_
_geom_bond_atom_site_label_1
_geom_bond_atom_site_label_2
_geom_bond_distance
_geom_bond_site_symmetry_2
Ba0 O5 2.706887 1_665
Ba0 O7 2.796938 1_555
Ba0 O20 2.834358 1_555
Ba0 O8 2.954260 1_655
Ba0 O16 2.958620 1_555
Ba0 O17 3.094431 1_565
Ba0 O13 3.130618 1_565
Ba0 O21 3.160276 1_565
Ba0 O15 3.160301 1_555
Ba0 O5 3.244414 1_565
Ba1 O4 2.706887 1_545
Ba1 O6 2.796938 1_554
Ba1 O21 2.834358 1_555
Ba1 O9 2.954260 1_555
Ba1 O17 2.958620 1_455
Ba1 O16 3.094431 1_545
Ba1 O12 3.130618 1_545
Ba1 O20 3.160276 1_445
Ba1 O14 3.160301 1_454
Ba1 O4 3.244414 1_445
Ba2 O7 2.706887 1_445
Ba2 O5 2.796938 1_555
Ba2 O22 2.834358 1_555
Ba2 O10 2.954260 1_455
Ba2 O18 2.958620 1_555
Ba2 O19 3.094431 1_545
Ba2 O15 3.130618 1_545
Ba2 O23 3.160276 1_545
Ba2 O13 3.160301 1_555
Ba2 O7 3.244414 1_545
Ba3 O6 2.706887 1_565
Ba3 O4 2.796938 1_556
Ba3 O23 2.834358 1_555
Ba3 O11 2.954260 1_555
Ba3 O19 2.958620 1_655
Ba3 O18 3.094431 1_565
Ba3 O14 3.130618 1_565
Ba3 O22 3.160276 1_665
Ba3 O12 3.160301 1_656
Ba3 O6 3.244414 1_665
O0 Sb7 2.022343 1_555
O0 Sb5 2.151131 1_555
O0 Sb0 2.508741 1_555
O1 Sb6 2.022343 1_554
O1 Sb4 2.151131 1_655
O1 Sb1 2.508741 1_555
O2 Sb5 2.022343 1_555
O2 Sb7 2.151131 1_555
O2 Sb2 2.508741 1_555
O3 Sb4 2.022343 1_556
O3 Sb6 2.151131 1_455
O3 Sb3 2.508741 1_555
O4 Sb8 1.901370 1_555
O5 Sb9 1.901370 1_555
O6 Sb10 1.901370 1_555
O7 Sb11 1.901370 1_555
O8 Sb0 1.996315 1_555
O8 Sb7 2.070126 1_555
O9 Sb1 1.996315 1_555
O9 Sb6 2.070126 1_554
O10 Sb2 1.996315 1_555
O10 Sb5 2.070126 1_555
O11 Sb3 1.996315 1_555
O11 Sb4 2.070126 1_556
O12 Sb4 1.952277 1_555
O12 Sb8 2.201866 1_455
O13 Sb5 1.952277 1_555
O13 Sb9 2.201866 1_555
O14 Sb6 1.952277 1_555
O14 Sb10 2.201866 1_655
O15 Sb7 1.952277 1_555
O15 Sb11 2.201866 1_555
O16 Sb0 1.981918 1_555
O16 Sb8 2.148245 1_555
O17 Sb1 1.981918 1_555
O17 Sb9 2.148245 1_655
O18 Sb2 1.981918 1_555
O18 Sb10 2.148245 1_555
O19 Sb3 1.981918 1_555
O19 Sb11 2.148245 1_455
O20 Sb8 1.996736 1_555
O20 Sb0 2.044556 1_655
O21 Sb9 1.996736 1_555
O21 Sb1 2.044556 1_555
O22 Sb10 1.996736 1_555
O22 Sb2 2.044556 1_455
O23 Sb11 1.996736 1_555
O23 Sb3 2.044556 1_555
