# generated using pymatgen
data_Cr2Fe3Cu(PO4)6
_symmetry_space_group_name_H-M   'P 1'
_cell_length_a   8.38852408
_cell_length_b   8.38852408
_cell_length_c   8.38852416
_cell_angle_alpha   61.84276622
_cell_angle_beta   61.84276622
_cell_angle_gamma   61.84276375
_symmetry_Int_Tables_number   1
_chemical_formula_structural   Cr2Fe3Cu(PO4)6
_chemical_formula_sum   'Cr2 Fe3 Cu1 P6 O24'
_cell_volume   434.61320844
_cell_formula_units_Z   1
loop_
 _symmetry_equiv_pos_site_id
 _symmetry_equiv_pos_as_xyz
  1  'x, y, z'
loop_
 _atom_site_type_symbol
 _atom_site_label
 _atom_site_symmetry_multiplicity
 _atom_site_fract_x
 _atom_site_fract_y
 _atom_site_fract_z
 _atom_site_occupancy
  Cr  Cr0  1  0.00082700  0.00082700  0.00082700  1
  Cr  Cr1  1  0.50053000  0.50053000  0.50053000  1
  Fe  Fe0  1  0.85484800  0.85484800  0.85484800  1
  Fe  Fe1  1  0.64654700  0.64654700  0.64654700  1
  Fe  Fe2  1  0.35424700  0.35424700  0.35424700  1
  Cu  Cu0  1  0.14588700  0.14588700  0.14588700  1
  P  P0  1  0.54667100  0.95155800  0.25005700  1
  P  P1  1  0.25005700  0.54667100  0.95155800  1
  P  P2  1  0.95155800  0.25005700  0.54667100  1
  P  P3  1  0.04945800  0.75131700  0.45172400  1
  P  P4  1  0.75131700  0.45172400  0.04945800  1
  P  P5  1  0.45172400  0.04945800  0.75131700  1
  O  O0  1  0.49523100  0.89484000  0.67604100  1
  O  O1  1  0.89484000  0.67604100  0.49523100  1
  O  O2  1  0.75061600  0.93969400  0.09499000  1
  O  O3  1  0.67604100  0.49523100  0.89484000  1
  O  O4  1  0.39276500  0.98298000  0.18064800  1
  O  O5  1  0.56694200  0.74666500  0.40454400  1
  O  O6  1  0.09499000  0.75061600  0.93969400  1
  O  O7  1  0.40454400  0.56694200  0.74666500  1
  O  O8  1  0.00623700  0.82560100  0.60620200  1
  O  O9  1  0.74666500  0.40454400  0.56694200  1
  O  O10  1  0.05937600  0.90545000  0.24900100  1
  O  O11  1  0.82560100  0.60620200  0.00623700  1
  O  O12  1  0.18064800  0.39276500  0.98298000  1
  O  O13  1  0.93969400  0.09499000  0.75061600  1
  O  O14  1  0.25273800  0.59614000  0.43654000  1
  O  O15  1  0.98298000  0.18064800  0.39276500  1
  O  O16  1  0.59614000  0.43654000  0.25273800  1
  O  O17  1  0.90545000  0.24900100  0.05937600  1
  O  O18  1  0.43654000  0.25273800  0.59614000  1
  O  O19  1  0.60620200  0.00623700  0.82560100  1
  O  O20  1  0.32525000  0.50172900  0.10610700  1
  O  O21  1  0.24900100  0.05937600  0.90545000  1
  O  O22  1  0.10610700  0.32525000  0.50172900  1
  O  O23  1  0.50172900  0.10610700  0.32525000  1
loop_
_geom_bond_atom_site_label_1
_geom_bond_atom_site_label_2
_geom_bond_distance
_geom_bond_site_symmetry_2
Cr0 O17 2.058504 1_455
Cr0 O10 2.058504 1_545
Cr0 O21 2.058504 1_554
Cr0 O6 2.088333 1_544
Cr0 O13 2.088333 1_454
Cr0 O2 2.088333 1_445
Cr1 O9 2.077240 1_555
Cr1 O7 2.077240 1_555
Cr1 O5 2.077240 1_555
Cr1 O14 2.079745 1_555
Cr1 O16 2.079745 1_555
Cr1 O18 2.079745 1_555
Fe0 O19 1.926754 1_565
Fe0 O8 1.926755 1_655
Fe0 O11 1.926755 1_556
Fe0 O6 2.105354 1_655
Fe0 O2 2.105354 1_556
Fe0 O13 2.105354 1_565
Fe1 O0 1.924917 1_555
Fe1 O3 1.924917 1_555
Fe1 O1 1.924917 1_555
Fe1 O9 2.100802 1_555
Fe1 O5 2.100802 1_555
Fe1 O7 2.100802 1_555
Fe2 O23 1.919872 1_555
Fe2 O22 1.919872 1_555
Fe2 O20 1.919872 1_555
Fe2 O14 2.110804 1_555
Fe2 O18 2.110804 1_555
Fe2 O16 2.110804 1_555
Cu0 O4 1.940149 1_545
Cu0 O15 1.940149 1_455
Cu0 O12 1.940149 1_554
Cu0 O17 2.117832 1_455
Cu0 O21 2.117832 1_554
Cu0 O10 2.117832 1_545
O0 P5 1.524106 1_565
O1 P3 1.524107 1_655
O2 P0 1.577967 1_555
O3 P4 1.524106 1_556
O4 P0 1.522729 1_555
O5 P0 1.578737 1_555
O6 P1 1.577967 1_555
O7 P1 1.578737 1_555
O8 P3 1.518028 1_555
O9 P2 1.578737 1_555
O10 P3 1.569513 1_555
O11 P4 1.518028 1_555
O12 P1 1.522729 1_555
O13 P2 1.577967 1_555
O14 P3 1.573217 1_555
O15 P2 1.522729 1_555
O16 P4 1.573217 1_555
O17 P4 1.569513 1_555
O18 P5 1.573217 1_555
O19 P5 1.518028 1_555
O20 P1 1.518815 1_554
O21 P5 1.569513 1_555
O22 P2 1.518815 1_455
O23 P0 1.518815 1_545
