# generated using pymatgen
data_LiAlCoO3
_symmetry_space_group_name_H-M   'P 1'
_cell_length_a   5.72924623
_cell_length_b   5.79698625
_cell_length_c   8.91429116
_cell_angle_alpha   71.63914423
_cell_angle_beta   91.55026465
_cell_angle_gamma   119.99279614
_symmetry_Int_Tables_number   1
_chemical_formula_structural   LiAlCoO3
_chemical_formula_sum   'Li4 Al4 Co4 O12'
_cell_volume   240.28190480
_cell_formula_units_Z   4
loop_
 _symmetry_equiv_pos_site_id
 _symmetry_equiv_pos_as_xyz
  1  'x, y, z'
loop_
 _atom_site_type_symbol
 _atom_site_label
 _atom_site_symmetry_multiplicity
 _atom_site_fract_x
 _atom_site_fract_y
 _atom_site_fract_z
 _atom_site_occupancy
  Li  Li0  1  0.70068323  0.74332011  0.38262137  1
  Li  Li1  1  0.20066694  0.74332380  0.88261885  1
  Li  Li2  1  0.79933406  0.25667720  0.11737815  1
  Li  Li3  1  0.29931677  0.25667989  0.61738163  1
  Al  Al0  1  0.37593072  0.08169814  0.37690847  1
  Al  Al1  1  0.87592558  0.08172274  0.87691514  1
  Al  Al2  1  0.12407442  0.91827726  0.12308386  1
  Al  Al3  1  0.62406928  0.91830086  0.62309353  1
  Co  Co0  1  0.54476907  0.42062121  0.86682348  1
  Co  Co1  1  0.45523293  0.57937779  0.13317952  1
  Co  Co2  1  0.04476644  0.42058887  0.36682828  1
  Co  Co3  1  0.95523256  0.57941213  0.63316872  1
  O  O0  1  0.37308860  0.38907260  0.37586730  1
  O  O1  1  0.87308827  0.38910163  0.87586521  1
  O  O2  1  0.12691273  0.61090037  0.12413279  1
  O  O3  1  0.62691040  0.61092640  0.62413370  1
  O  O4  1  0.06551593  0.78221587  0.35808353  1
  O  O5  1  0.56550410  0.78224582  0.85808262  1
  O  O6  1  0.43449490  0.21775518  0.14191738  1
  O  O7  1  0.93448407  0.21778213  0.64191747  1
  O  O8  1  0.68796210  0.07632398  0.39411876  1
  O  O9  1  0.18796285  0.07634519  0.89410767  1
  O  O10  1  0.81203715  0.92365481  0.10589233  1
  O  O11  1  0.31203790  0.92367702  0.60588224  1
loop_
_geom_bond_atom_site_label_1
_geom_bond_atom_site_label_2
_geom_bond_distance
_geom_bond_site_symmetry_2
Li0 O0 1.990414 1_555
Li0 O4 1.997539 1_655
Li0 O8 2.002011 1_565
Li0 O3 2.021548 1_555
Li0 O10 2.319241 1_555
Li1 O1 1.990290 1_455
Li1 O5 1.997495 1_555
Li1 O9 2.002034 1_565
Li1 O2 2.021546 1_556
Li1 O11 2.319309 1_555
Li2 O2 1.990296 1_655
Li2 O6 1.997509 1_555
Li2 O10 2.002027 1_545
Li2 O1 2.021537 1_554
Li2 O8 2.319342 1_555
Li3 O3 1.990402 1_555
Li3 O7 1.997532 1_455
Li3 O11 2.002011 1_545
Li3 O0 2.021565 1_555
Li3 O9 2.319216 1_555
Al0 O0 1.787150 1_555
Al0 O8 1.805056 1_555
Al0 O4 1.812613 1_545
Al0 O11 1.914837 1_545
Al0 O6 1.963498 1_555
Al1 O1 1.787138 1_555
Al1 O9 1.805091 1_655
Al1 O5 1.812641 1_545
Al1 O10 1.914878 1_546
Al1 O7 1.963553 1_555
Al2 O2 1.787132 1_555
Al2 O10 1.805090 1_455
Al2 O6 1.812645 1_565
Al2 O9 1.914870 1_564
Al2 O4 1.963569 1_555
Al3 O3 1.787150 1_555
Al3 O11 1.805062 1_555
Al3 O7 1.812607 1_565
Al3 O8 1.914845 1_565
Al3 O5 1.963481 1_555
Co0 O9 1.965525 1_555
Co0 O1 1.975921 1_555
Co0 O5 2.015790 1_555
Co0 O3 2.037467 1_555
Co0 O6 2.306495 1_556
Co1 O10 1.965517 1_555
Co1 O2 1.975936 1_555
Co1 O6 2.015778 1_555
Co1 O0 2.037451 1_555
Co1 O5 2.306519 1_554
Co2 O8 1.965480 1_455
Co2 O0 1.975928 1_555
Co2 O4 2.015755 1_555
Co2 O2 2.037516 1_555
Co2 O7 2.306446 1_455
Co3 O11 1.965489 1_655
Co3 O3 1.975922 1_555
Co3 O7 2.015765 1_555
Co3 O1 2.037524 1_555
Co3 O4 2.306413 1_655
