# generated using pymatgen
data_Li3Sb(PO4)2
_symmetry_space_group_name_H-M   'P 1'
_cell_length_a   8.37244495
_cell_length_b   8.37244495
_cell_length_c   8.37244489
_cell_angle_alpha   68.96868173
_cell_angle_beta   68.96868173
_cell_angle_gamma   68.96868043
_symmetry_Int_Tables_number   1
_chemical_formula_structural   Li3Sb(PO4)2
_chemical_formula_sum   'Li9 Sb3 P6 O24'
_cell_volume   493.14908182
_cell_formula_units_Z   3
loop_
 _symmetry_equiv_pos_site_id
 _symmetry_equiv_pos_as_xyz
  1  'x, y, z'
loop_
 _atom_site_type_symbol
 _atom_site_label
 _atom_site_symmetry_multiplicity
 _atom_site_fract_x
 _atom_site_fract_y
 _atom_site_fract_z
 _atom_site_occupancy
  Li  Li0  1  0.83884200  0.30102300  0.62291600  1
  Li  Li1  1  0.74661600  0.35275700  0.13930900  1
  Li  Li2  1  0.35275700  0.13930900  0.74661600  1
  Li  Li3  1  0.99745700  0.99745700  0.99745700  1
  Li  Li4  1  0.51182400  0.51182400  0.51182400  1
  Li  Li5  1  0.65353800  0.65353800  0.65353800  1
  Li  Li6  1  0.62291600  0.83884200  0.30102300  1
  Li  Li7  1  0.30102300  0.62291600  0.83884200  1
  Li  Li8  1  0.13930900  0.74661600  0.35275700  1
  Sb  Sb0  1  0.15495200  0.15495200  0.15495200  1
  Sb  Sb1  1  0.34150200  0.34150200  0.34150200  1
  Sb  Sb2  1  0.84450700  0.84450700  0.84450700  1
  P  P0  1  0.75271100  0.08359600  0.42245000  1
  P  P1  1  0.91000400  0.58203000  0.24509100  1
  P  P2  1  0.58203000  0.24509100  0.91000400  1
  P  P3  1  0.42245000  0.75271100  0.08359600  1
  P  P4  1  0.08359600  0.42245000  0.75271100  1
  P  P5  1  0.24509100  0.91000400  0.58203000  1
  O  O0  1  0.89841100  0.10061800  0.23256400  1
  O  O1  1  0.76780200  0.09541800  0.89492900  1
  O  O2  1  0.91699100  0.46366100  0.69610000  1
  O  O3  1  0.09377500  0.56354800  0.82146600  1
  O  O4  1  0.59724700  0.26273900  0.39351100  1
  O  O5  1  0.42955800  0.17051100  0.93118000  1
  O  O6  1  0.30418600  0.07209600  0.56282300  1
  O  O7  1  0.73895100  0.59390200  0.39688600  1
  O  O8  1  0.89492900  0.76780200  0.09541800  1
  O  O9  1  0.17051100  0.93118000  0.42955800  1
  O  O10  1  0.56282300  0.30418600  0.07209600  1
  O  O11  1  0.59390200  0.39688600  0.73895100  1
  O  O12  1  0.39351100  0.59724700  0.26273900  1
  O  O13  1  0.46366100  0.69610000  0.91699100  1
  O  O14  1  0.82146600  0.09377500  0.56354800  1
  O  O15  1  0.26273900  0.39351100  0.59724700  1
  O  O16  1  0.10061800  0.23256400  0.89841100  1
  O  O17  1  0.56354800  0.82146600  0.09377500  1
  O  O18  1  0.69610000  0.91699100  0.46366100  1
  O  O19  1  0.39688600  0.73895100  0.59390200  1
  O  O20  1  0.93118000  0.42955800  0.17051100  1
  O  O21  1  0.07209600  0.56282300  0.30418600  1
  O  O22  1  0.23256400  0.89841100  0.10061800  1
  O  O23  1  0.09541800  0.89492900  0.76780200  1
loop_
_geom_bond_atom_site_label_1
_geom_bond_atom_site_label_2
_geom_bond_distance
_geom_bond_site_symmetry_2
Li0 O11 1.934382 1_555
Li0 O14 2.032532 1_555
Li0 O2 2.045433 1_555
Li0 O1 2.335041 1_555
Li0 O7 2.574277 1_555
Li1 O20 1.998248 1_555
Li1 O10 2.021106 1_555
Li1 O4 2.067951 1_555
Li1 O0 2.069956 1_555
Li2 O5 1.998248 1_555
Li2 O6 2.021106 1_555
Li2 O15 2.067951 1_555
Li2 O16 2.069956 1_555
Li3 O1 2.157324 1_565
Li3 O23 2.157324 1_655
Li3 O8 2.157324 1_556
Li3 O22 2.200667 1_656
Li3 O0 2.200667 1_566
Li3 O16 2.200667 1_665
Li4 O19 2.040646 1_555
Li4 O11 2.040647 1_555
Li4 O7 2.040647 1_555
Li4 O12 2.396983 1_555
Li4 O4 2.396983 1_555
Li4 O15 2.396983 1_555
Li5 O19 2.188359 1_555
Li5 O7 2.188359 1_555
Li5 O11 2.188359 1_555
Li5 O2 2.271621 1_555
Li5 O13 2.271621 1_555
Li5 O18 2.271621 1_555
Li6 O7 1.934382 1_555
Li6 O17 2.032532 1_555
Li6 O18 2.045433 1_555
Li6 O8 2.335041 1_555
Li6 O19 2.574277 1_555
Li7 O19 1.934382 1_555
Li7 O3 2.032532 1_555
Li7 O13 2.045433 1_555
Li7 O23 2.335041 1_555
Li7 O11 2.574277 1_555
Li8 O9 1.998248 1_555
Li8 O21 2.021106 1_555
Li8 O12 2.067951 1_555
Li8 O22 2.069956 1_555
O0 P0 1.614327 1_555
O0 Sb0 2.174839 1_655
O1 P2 1.605953 1_555
O1 Sb2 2.115977 1_545
O2 P4 1.516948 1_655
O3 P4 1.526354 1_555
O3 Sb2 2.537556 1_455
O4 P0 1.602119 1_555
O4 Sb1 2.158448 1_555
O5 P2 1.543102 1_555
O5 Sb0 2.400230 1_556
O6 P5 1.542915 1_545
O6 Sb1 2.389399 1_555
O7 P1 1.535634 1_555
O8 P1 1.605953 1_555
O8 Sb2 2.115977 1_554
O9 P5 1.543102 1_555
O9 Sb0 2.400230 1_565
O10 P2 1.542915 1_554
O10 Sb1 2.389399 1_555
O11 P2 1.535634 1_555
O12 P3 1.602119 1_555
O12 Sb1 2.158448 1_555
O13 P3 1.516948 1_556
O14 P0 1.526354 1_555
O14 Sb2 2.537556 1_545
O15 P4 1.602119 1_555
O15 Sb1 2.158448 1_555
O16 P4 1.614327 1_555
O16 Sb0 2.174839 1_556
O17 P3 1.526354 1_555
O17 Sb2 2.537556 1_554
O18 P0 1.516948 1_565
O19 P5 1.535634 1_555
O20 P1 1.543102 1_555
O20 Sb0 2.400230 1_655
O21 P1 1.542915 1_455
O21 Sb1 2.389399 1_555
O22 P3 1.614327 1_555
O22 Sb0 2.174839 1_565
O23 P5 1.605953 1_555
O23 Sb2 2.115977 1_455
