# generated using pymatgen
data_Li3Mn2Fe(BO3)3
_symmetry_space_group_name_H-M   'P 1'
_cell_length_a   8.84738017
_cell_length_b   8.84738017
_cell_length_c   8.27254358
_cell_angle_alpha   62.14287831
_cell_angle_beta   62.14287831
_cell_angle_gamma   42.04876255
_symmetry_Int_Tables_number   1
_chemical_formula_structural   Li3Mn2Fe(BO3)3
_chemical_formula_sum   'Li6 Mn4 Fe2 B6 O18'
_cell_volume   375.44643785
_cell_formula_units_Z   2
loop_
 _symmetry_equiv_pos_site_id
 _symmetry_equiv_pos_as_xyz
  1  'x, y, z'
loop_
 _atom_site_type_symbol
 _atom_site_label
 _atom_site_symmetry_multiplicity
 _atom_site_fract_x
 _atom_site_fract_y
 _atom_site_fract_z
 _atom_site_occupancy
  Li  Li0  1  0.24088500  0.74084900  0.30176700  1
  Li  Li1  1  0.74084900  0.24088500  0.30176700  1
  Li  Li2  1  0.40147300  0.89968100  0.71574600  1
  Li  Li3  1  0.89968100  0.40147300  0.71574600  1
  Li  Li4  1  0.10803700  0.60797200  0.98242700  1
  Li  Li5  1  0.60797200  0.10803700  0.98242700  1
  Mn  Mn0  1  0.17986100  0.17986100  0.01224600  1
  Mn  Mn1  1  0.67988200  0.67988200  0.01206000  1
  Mn  Mn2  1  0.00636900  0.00636900  0.62810600  1
  Mn  Mn3  1  0.31420000  0.31420000  0.35934500  1
  Fe  Fe0  1  0.50404000  0.50404000  0.63243900  1
  Fe  Fe1  1  0.81587300  0.81587300  0.35999500  1
  B  B0  1  0.58368500  0.08407700  0.66578500  1
  B  B1  1  0.08407700  0.58368500  0.66578500  1
  B  B2  1  0.41887600  0.91416100  0.33488300  1
  B  B3  1  0.91416100  0.41887600  0.33488300  1
  B  B4  1  0.99887400  0.99887400  0.00035600  1
  B  B5  1  0.50095100  0.50095100  0.99753500  1
  O  O0  1  0.46075400  0.46075400  0.19113400  1
  O  O1  1  0.95803500  0.95803500  0.19505100  1
  O  O2  1  0.03728700  0.54462600  0.55772100  1
  O  O3  1  0.54462600  0.03728700  0.55772100  1
  O  O4  1  0.09582500  0.09582500  0.88719400  1
  O  O5  1  0.59765500  0.59765500  0.88384700  1
  O  O6  1  0.67652300  0.18503300  0.58025900  1
  O  O7  1  0.18503300  0.67652300  0.58025900  1
  O  O8  1  0.02990200  0.52974200  0.85923100  1
  O  O9  1  0.52974200  0.02990200  0.85923100  1
  O  O10  1  0.37539200  0.87570100  0.22272900  1
  O  O11  1  0.87570100  0.37539200  0.22272900  1
  O  O12  1  0.44431400  0.44431400  0.91623100  1
  O  O13  1  0.94185700  0.94185700  0.92113900  1
  O  O14  1  0.51579000  0.01142000  0.25284600  1
  O  O15  1  0.01142000  0.51579000  0.25284600  1
  O  O16  1  0.36312400  0.85727600  0.52826600  1
  O  O17  1  0.85727600  0.36312400  0.52826600  1
loop_
_geom_bond_atom_site_label_1
_geom_bond_atom_site_label_2
_geom_bond_distance
_geom_bond_site_symmetry_2
Li0 O10 1.979799 1_555
Li0 O7 2.001044 1_555
Li0 O0 2.014735 1_555
Li0 O1 2.017886 1_455
Li1 O11 1.979799 1_555
Li1 O6 2.001044 1_555
Li1 O0 2.014735 1_555
Li1 O1 2.017886 1_545
Li2 O16 1.971261 1_555
Li2 O5 1.995408 1_555
Li2 O3 2.012608 1_565
Li2 O4 2.020430 1_565
Li3 O17 1.971261 1_555
Li3 O5 1.995408 1_555
Li3 O2 2.012608 1_655
Li3 O4 2.020430 1_655
Li4 O15 1.985833 1_556
Li4 O13 1.997903 1_455
Li4 O8 2.005936 1_555
Li4 O12 2.017085 1_555
Li5 O14 1.985833 1_556
Li5 O13 1.997903 1_545
Li5 O9 2.005936 1_555
Li5 O12 2.017085 1_555
Mn0 O4 2.105786 1_554
Mn0 O8 2.180135 1_554
Mn0 O9 2.180135 1_554
Mn0 O11 2.188247 1_455
Mn0 O10 2.188247 1_545
Mn1 O5 2.100400 1_554
Mn1 O8 2.180403 1_654
Mn1 O9 2.180403 1_564
Mn1 O11 2.190581 1_555
Mn1 O10 2.190581 1_555
Mn2 O13 2.103735 1_445
Mn2 O17 2.187043 1_455
Mn2 O16 2.187043 1_545
Mn2 O7 2.194423 1_545
Mn2 O6 2.194423 1_455
Mn3 O0 2.103170 1_555
Mn3 O15 2.185095 1_555
Mn3 O14 2.185095 1_555
Mn3 O3 2.191575 1_555
Mn3 O2 2.191575 1_555
Fe0 O12 2.041093 1_555
Fe0 O6 2.146458 1_555
Fe0 O7 2.146458 1_555
Fe0 O16 2.182773 1_555
Fe0 O17 2.182773 1_555
Fe1 O1 2.041448 1_555
Fe1 O3 2.148556 1_565
Fe1 O2 2.148556 1_655
Fe1 O14 2.184504 1_565
Fe1 O15 2.184504 1_655
B0 O9 1.388380 1_555
B0 O6 1.388861 1_555
B0 O3 1.391751 1_555
B1 O8 1.388380 1_555
B1 O7 1.388861 1_555
B1 O2 1.391751 1_555
B2 O16 1.390926 1_555
B2 O14 1.393705 1_565
B2 O10 1.395576 1_555
B3 O17 1.390926 1_555
B3 O15 1.393705 1_655
B3 O11 1.395576 1_555
B4 O13 1.390755 1_554
B4 O4 1.392745 1_664
B4 O1 1.400497 1_555
B5 O5 1.389864 1_555
B5 O0 1.393270 1_556
B5 O12 1.399070 1_555
