# generated using pymatgen
data_LiMn2(BO3)2
_symmetry_space_group_name_H-M   'P 1'
_cell_length_a   9.07026900
_cell_length_b   9.09624001
_cell_length_c   11.47528173
_cell_angle_alpha   67.85675255
_cell_angle_beta   68.32245111
_cell_angle_gamma   60.79730523
_symmetry_Int_Tables_number   1
_chemical_formula_structural   LiMn2(BO3)2
_chemical_formula_sum   'Li6 Mn12 B12 O36'
_cell_volume   745.06683401
_cell_formula_units_Z   6
loop_
 _symmetry_equiv_pos_site_id
 _symmetry_equiv_pos_as_xyz
  1  'x, y, z'
loop_
 _atom_site_type_symbol
 _atom_site_label
 _atom_site_symmetry_multiplicity
 _atom_site_fract_x
 _atom_site_fract_y
 _atom_site_fract_z
 _atom_site_occupancy
  Li  Li0  1  0.33955100  0.35907400  0.08432800  1
  Li  Li1  1  0.21064600  0.17618800  0.59290200  1
  Li  Li2  1  0.84408000  0.80697200  0.34840800  1
  Li  Li3  1  0.67668000  0.68513100  0.82308800  1
  Li  Li4  1  0.00023300  0.02129300  0.83020200  1
  Li  Li5  1  0.53253400  0.50906300  0.32227200  1
  Mn  Mn0  1  0.62113400  0.32140000  0.85613100  1
  Mn  Mn1  1  0.85391700  0.12709900  0.37021800  1
  Mn  Mn2  1  0.55100000  0.17988000  0.62292000  1
  Mn  Mn3  1  0.02795300  0.62743900  0.87421600  1
  Mn  Mn4  1  0.32441700  0.02358000  0.87010000  1
  Mn  Mn5  1  0.16693900  0.47108200  0.36842900  1
  Mn  Mn6  1  0.83933900  0.50584300  0.61686400  1
  Mn  Mn7  1  0.70446000  0.00260400  0.11187000  1
  Mn  Mn8  1  0.95734000  0.36907800  0.12478900  1
  Mn  Mn9  1  0.45839300  0.88099900  0.37315700  1
  Mn  Mn10  1  0.16034300  0.84529600  0.61474600  1
  Mn  Mn11  1  0.34598000  0.69657800  0.11719400  1
  B  B0  1  0.30474800  0.66683800  0.88563600  1
  B  B1  1  0.50164500  0.14746200  0.39558300  1
  B  B2  1  0.16954000  0.80488100  0.36062500  1
  B  B3  1  0.17940200  0.48315200  0.64134500  1
  B  B4  1  0.69516600  0.97197900  0.86004600  1
  B  B5  1  0.96103600  0.33389200  0.86461500  1
  B  B6  1  0.03121500  0.65776500  0.12968600  1
  B  B7  1  0.32852600  0.04094200  0.13134200  1
  B  B8  1  0.85976600  0.17618100  0.62042700  1
  B  B9  1  0.79618300  0.51453400  0.36639100  1
  B  B10  1  0.50185500  0.85821500  0.62388500  1
  B  B11  1  0.66621200  0.33883400  0.12441800  1
  O  O0  1  0.75932500  0.04793200  0.90518000  1
  O  O1  1  0.80476900  0.08890600  0.57849400  1
  O  O2  1  0.37172700  0.49493900  0.89511100  1
  O  O3  1  0.54243700  0.09152300  0.81270000  1
  O  O4  1  0.15131100  0.77511500  0.83872800  1
  O  O5  1  0.57480900  0.22731200  0.43076700  1
  O  O6  1  0.34281200  0.37833300  0.65400800  1
  O  O7  1  0.60281600  0.27025700  0.07485800  1
  O  O8  1  0.28694000  0.65882000  0.30870100  1
  O  O9  1  0.41700500  0.01069500  0.66683900  1
  O  O10  1  0.08970000  0.63213100  0.69102500  1
  O  O11  1  0.98413700  0.41616800  0.93482400  1
  O  O12  1  0.32966100  0.21565800  0.40124400  1
  O  O13  1  0.99821500  0.87206000  0.36843900  1
  O  O14  1  0.09624400  0.44975400  0.57931700  1
  O  O15  1  0.76912400  0.80222600  0.86376500  1
  O  O16  1  0.19358600  0.56008400  0.16061500  1
  O  O17  1  0.07032200  0.17148900  0.85408300  1
  O  O18  1  0.81619900  0.43603000  0.80792400  1
  O  O19  1  0.22086800  0.20966500  0.12409000  1
  O  O20  1  0.91842000  0.80525600  0.16615800  1
  O  O21  1  0.89036400  0.54323400  0.42650600  1
  O  O22  1  0.02554600  0.10030400  0.63517900  1
  O  O23  1  0.65984300  0.73871200  0.64616600  1
  O  O24  1  0.98661300  0.58946900  0.06213100  1
  O  O25  1  0.61167200  0.99246100  0.35548100  1
  O  O26  1  0.88945800  0.36889700  0.31118300  1
  O  O27  1  0.73816400  0.33414600  0.64916000  1
  O  O28  1  0.37373500  0.74462200  0.92612900  1
  O  O29  1  0.63184700  0.62208900  0.36132000  1
  O  O30  1  0.41371000  0.83184000  0.56075300  1
  O  O31  1  0.47311700  0.96065600  0.18687300  1
  O  O32  1  0.82768500  0.23168300  0.16240800  1
  O  O33  1  0.58184800  0.50352000  0.14044500  1
  O  O34  1  0.23325100  0.87325900  0.41075900  1
  O  O35  1  0.30772200  0.94270700  0.07393600  1
loop_
_geom_bond_atom_site_label_1
_geom_bond_atom_site_label_2
_geom_bond_distance
_geom_bond_site_symmetry_2
Li0 O19 1.952263 1_555
Li0 O16 1.962293 1_555
Li0 O2 2.046471 1_554
Li0 O7 2.087701 1_555
Li1 O22 1.951208 1_555
Li1 O9 1.987533 1_555
Li1 O12 2.039669 1_555
Li1 O14 2.144925 1_555
Li2 O13 1.872322 1_555
Li2 O20 1.949687 1_555
Li2 O25 1.950194 1_555
Li2 O21 2.099796 1_555
Li3 O15 1.894959 1_555
Li3 O23 1.947611 1_555
Li3 O18 2.025451 1_555
Li3 O28 2.423309 1_555
Li4 O17 1.898491 1_555
Li4 O0 1.955822 1_455
Li4 O4 1.959943 1_545
Li4 O22 2.036312 1_555
Li5 O29 1.902212 1_555
Li5 O33 1.980905 1_555
Li5 O8 1.994347 1_555
Li5 O5 2.292110 1_555
Mn0 O2 2.027209 1_555
Mn0 O0 2.121067 1_555
Mn0 O27 2.197973 1_555
Mn0 O18 2.272872 1_555
Mn0 O7 2.330451 1_556
Mn1 O13 2.036776 1_545
Mn1 O5 2.156100 1_555
Mn1 O1 2.183969 1_555
Mn1 O26 2.192657 1_555
Mn1 O32 2.266371 1_555
Mn2 O6 1.900847 1_555
Mn2 O1 1.958375 1_555
Mn2 O3 2.002797 1_555
Mn2 O5 2.028993 1_555
Mn2 O9 2.210750 1_555
Mn3 O10 1.954613 1_555
Mn3 O11 1.966815 1_455
Mn3 O24 1.969121 1_456
Mn3 O4 1.984900 1_555
Mn3 O15 2.115580 1_455
Mn4 O17 2.063101 1_555
Mn4 O35 2.141318 1_546
Mn4 O3 2.156327 1_555
Mn4 O9 2.195993 1_555
Mn4 O28 2.219735 1_545
Mn5 O12 2.030567 1_555
Mn5 O21 2.157789 1_455
Mn5 O16 2.170364 1_555
Mn5 O14 2.219523 1_555
Mn5 O8 2.225092 1_555
Mn6 O21 1.987004 1_555
Mn6 O18 1.998690 1_555
Mn6 O23 2.004473 1_555
Mn6 O27 2.032159 1_555
Mn6 O14 2.034618 1_655
Mn7 O20 2.006851 1_545
Mn7 O7 2.068165 1_555
Mn7 O31 2.118706 1_545
Mn7 O0 2.152727 1_554
Mn7 O25 2.583581 1_545
Mn8 O32 1.945176 1_555
Mn8 O24 1.974378 1_555
Mn8 O26 1.994871 1_555
Mn8 O11 2.000198 1_554
Mn8 O19 2.104417 1_655
Mn9 O30 1.950649 1_555
Mn9 O34 1.956461 1_555
Mn9 O31 1.956612 1_555
Mn9 O25 2.003522 1_555
Mn9 O29 2.123178 1_555
Mn10 O22 2.088357 1_565
Mn10 O30 2.100225 1_555
Mn10 O10 2.110689 1_555
Mn10 O34 2.133800 1_555
Mn10 O4 2.383070 1_555
Mn11 O35 1.977531 1_555
Mn11 O8 1.993802 1_555
Mn11 O28 2.009676 1_554
Mn11 O33 2.033340 1_555
Mn11 O16 2.097595 1_555
B0 O2 1.348903 1_555
B0 O28 1.415180 1_555
B0 O4 1.418766 1_555
B1 O12 1.354141 1_555
B1 O25 1.404431 1_545
B1 O5 1.421378 1_555
B2 O13 1.344624 1_455
B2 O34 1.384868 1_555
B2 O8 1.414793 1_555
B3 O6 1.342650 1_555
B3 O14 1.396813 1_555
B3 O10 1.409695 1_555
B4 O15 1.340457 1_555
B4 O0 1.403197 1_565
B4 O3 1.427376 1_565
B5 O17 1.340396 1_655
B5 O11 1.409037 1_555
B5 O18 1.413140 1_555
B6 O20 1.337676 1_455
B6 O16 1.398554 1_555
B6 O24 1.410860 1_455
B7 O19 1.348056 1_555
B7 O35 1.402902 1_545
B7 O31 1.411158 1_545
B8 O22 1.361362 1_655
B8 O27 1.389924 1_555
B8 O1 1.400842 1_555
B9 O29 1.334356 1_555
B9 O26 1.419556 1_555
B9 O21 1.436137 1_555
B10 O23 1.357063 1_555
B10 O9 1.397328 1_565
B10 O30 1.402741 1_555
B11 O33 1.359634 1_555
B11 O7 1.379218 1_555
B11 O32 1.429515 1_555
