# generated using pymatgen
data_Ni5(TeO6)2
_symmetry_space_group_name_H-M   'P 1'
_cell_length_a   5.18533703
_cell_length_b   5.18533703
_cell_length_c   9.94938720
_cell_angle_alpha   83.60187424
_cell_angle_beta   83.60187424
_cell_angle_gamma   121.33797974
_symmetry_Int_Tables_number   1
_chemical_formula_structural   Ni5(TeO6)2
_chemical_formula_sum   'Ni5 Te2 O12'
_cell_volume   222.49868094
_cell_formula_units_Z   1
loop_
 _symmetry_equiv_pos_site_id
 _symmetry_equiv_pos_as_xyz
  1  'x, y, z'
loop_
 _atom_site_type_symbol
 _atom_site_label
 _atom_site_symmetry_multiplicity
 _atom_site_fract_x
 _atom_site_fract_y
 _atom_site_fract_z
 _atom_site_occupancy
  Ni  Ni0  1  0.91813400  0.08186600  0.00000000  1
  Ni  Ni1  1  0.99852500  0.52807900  0.74306900  1
  Ni  Ni2  1  0.47192100  0.00147500  0.25693100  1
  Ni  Ni3  1  0.57853500  0.42146500  0.00000000  1
  Ni  Ni4  1  0.42392900  0.57607100  0.50000000  1
  Te  Te0  1  0.75203400  0.24796600  0.50000000  1
  Te  Te1  1  0.25010100  0.74989900  0.00000000  1
  O  O0  1  0.04059400  0.25531700  0.61663700  1
  O  O1  1  0.74468300  0.95940600  0.38336300  1
  O  O2  1  0.87166000  0.37453500  0.11070100  1
  O  O3  1  0.62546500  0.12834000  0.88929900  1
  O  O4  1  0.68151400  0.49653200  0.61189900  1
  O  O5  1  0.50346800  0.31848600  0.38810100  1
  O  O6  1  0.51615000  0.71557400  0.11383000  1
  O  O7  1  0.28442600  0.48385000  0.88617000  1
  O  O8  1  0.40888300  0.84328900  0.60978000  1
  O  O9  1  0.15671100  0.59111700  0.39022000  1
  O  O10  1  0.21011500  0.01542500  0.11453300  1
  O  O11  1  0.98457500  0.78988500  0.88546700  1
loop_
_geom_bond_atom_site_label_1
_geom_bond_atom_site_label_2
_geom_bond_distance
_geom_bond_site_symmetry_2
Ni0 O6 2.027646 1_545
Ni0 O7 2.027646 1_654
Ni0 O2 2.065918 1_555
Ni0 O3 2.065918 1_554
Ni0 O10 2.132854 1_655
Ni0 O11 2.132854 1_544
Ni1 O8 2.056276 1_655
Ni1 O0 2.070427 1_655
Ni1 O11 2.088873 1_555
Ni1 O4 2.162881 1_555
Ni1 O3 2.164509 1_555
Ni1 O7 2.242499 1_655
Ni2 O9 2.056276 1_545
Ni2 O1 2.070427 1_545
Ni2 O10 2.088873 1_555
Ni2 O5 2.162881 1_555
Ni2 O2 2.164509 1_555
Ni2 O6 2.242499 1_545
Ni3 O10 2.043851 1_555
Ni3 O11 2.043851 1_554
Ni3 O2 2.068980 1_555
Ni3 O3 2.068980 1_554
Ni3 O6 2.128267 1_555
Ni3 O7 2.128267 1_554
Ni4 O8 1.884083 1_555
Ni4 O9 1.884083 1_555
Ni4 O0 1.918574 1_555
Ni4 O1 1.918574 1_555
Ni4 O4 1.998922 1_555
Ni4 O5 1.998922 1_555
O0 Te0 1.981040 1_455
O1 Te0 1.981040 1_565
O2 Te1 1.979877 1_655
O3 Te1 1.979877 1_546
O4 Te0 1.937471 1_555
O5 Te0 1.937471 1_555
O6 Te1 1.943242 1_555
O7 Te1 1.943242 1_556
O8 Te0 1.983582 1_565
O9 Te0 1.983582 1_455
O10 Te1 1.957341 1_545
O11 Te1 1.957341 1_656
