# generated using pymatgen
data_Ca3P4H20(NO10)2
_symmetry_space_group_name_H-M   'P 1'
_cell_length_a   11.59201300
_cell_length_b   7.72470500
_cell_length_c   13.24750559
_cell_angle_alpha   56.11918634
_cell_angle_beta   90.00000000
_cell_angle_gamma   90.00000000
_symmetry_Int_Tables_number   1
_chemical_formula_structural   Ca3P4H20(NO10)2
_chemical_formula_sum   'Ca6 P8 H40 N4 O40'
_cell_volume   984.82050879
_cell_formula_units_Z   2
loop_
 _symmetry_equiv_pos_site_id
 _symmetry_equiv_pos_as_xyz
  1  'x, y, z'
loop_
 _atom_site_type_symbol
 _atom_site_label
 _atom_site_symmetry_multiplicity
 _atom_site_fract_x
 _atom_site_fract_y
 _atom_site_fract_z
 _atom_site_occupancy
  Ca  Ca0  1  0.50000000  0.00000000  0.50000000  1
  Ca  Ca1  1  0.00000000  0.00000000  0.00000000  1
  Ca  Ca2  1  0.77595200  0.30902600  0.57809900  1
  Ca  Ca3  1  0.72404800  0.30902600  0.07809900  1
  Ca  Ca4  1  0.22404800  0.69097400  0.42190100  1
  Ca  Ca5  1  0.27595200  0.69097400  0.92190100  1
  P  P0  1  0.75309300  0.25733600  0.86155900  1
  P  P1  1  0.74690700  0.25733600  0.36155900  1
  P  P2  1  0.24690700  0.74266400  0.13844100  1
  P  P3  1  0.25309300  0.74266400  0.63844100  1
  P  P4  1  0.78086700  0.85808300  0.87332400  1
  P  P5  1  0.71913300  0.85808300  0.37332400  1
  P  P6  1  0.21913300  0.14191700  0.12667600  1
  P  P7  1  0.28086700  0.14191700  0.62667600  1
  H  H0  1  0.84047100  0.81819700  0.21381400  1
  H  H1  1  0.65952900  0.81819700  0.71381400  1
  H  H2  1  0.15952900  0.18180300  0.78618600  1
  H  H3  1  0.34047100  0.18180300  0.28618600  1
  H  H4  1  0.89467000  0.60102000  0.25608500  1
  H  H5  1  0.60533000  0.60102000  0.75608500  1
  H  H6  1  0.10533000  0.39898000  0.74391500  1
  H  H7  1  0.39467000  0.39898000  0.24391500  1
  H  H8  1  0.98661700  0.27606100  0.11607100  1
  H  H9  1  0.51338300  0.27606100  0.61607100  1
  H  H10  1  0.01338300  0.72393900  0.88392900  1
  H  H11  1  0.48661700  0.72393900  0.38392900  1
  H  H12  1  0.93913300  0.49503300  0.08084300  1
  H  H13  1  0.56086700  0.49503300  0.58084300  1
  H  H14  1  0.06086700  0.50496700  0.91915700  1
  H  H15  1  0.43913300  0.50496700  0.41915700  1
  H  H16  1  0.50205600  0.24220100  0.19040600  1
  H  H17  1  0.99794400  0.24220100  0.69040600  1
  H  H18  1  0.49794400  0.75779900  0.80959400  1
  H  H19  1  0.00205600  0.75779900  0.30959400  1
  H  H20  1  0.45171000  0.29944100  0.06832500  1
  H  H21  1  0.04829000  0.29944100  0.56832500  1
  H  H22  1  0.54829000  0.70055900  0.93167500  1
  H  H23  1  0.95171000  0.70055900  0.43167500  1
  H  H24  1  0.61431800  0.84861500  0.16741300  1
  H  H25  1  0.88568200  0.84861500  0.66741300  1
  H  H26  1  0.38568200  0.15138500  0.83258700  1
  H  H27  1  0.11431800  0.15138500  0.33258700  1
  H  H28  1  0.49784300  0.75275000  0.12957500  1
  H  H29  1  0.00215700  0.75275000  0.62957500  1
  H  H30  1  0.50215700  0.24725000  0.87042500  1
  H  H31  1  0.99784300  0.24725000  0.37042500  1
  H  H32  1  0.62829300  0.63154700  0.16647900  1
  H  H33  1  0.87170700  0.63154700  0.66647900  1
  H  H34  1  0.37170700  0.36845300  0.83352100  1
  H  H35  1  0.12829300  0.36845300  0.33352100  1
  H  H36  1  0.61445600  0.86369200  0.03588800  1
  H  H37  1  0.88554400  0.86369200  0.53588800  1
  H  H38  1  0.38554400  0.13630800  0.96411200  1
  H  H39  1  0.11445600  0.13630800  0.46411200  1
  N  N0  1  0.58693400  0.77651300  0.12513800  1
  N  N1  1  0.91306600  0.77651300  0.62513800  1
  N  N2  1  0.41306600  0.22348700  0.87486200  1
  N  N3  1  0.08693400  0.22348700  0.37486200  1
  O  O0  1  0.80275600  0.38260700  0.73343700  1
  O  O1  1  0.69724400  0.38260700  0.23343700  1
  O  O2  1  0.19724400  0.61739300  0.26656300  1
  O  O3  1  0.30275600  0.61739300  0.76656300  1
  O  O4  1  0.84144500  0.21044400  0.96089300  1
  O  O5  1  0.65855500  0.21044400  0.46089300  1
  O  O6  1  0.15855500  0.78955600  0.03910700  1
  O  O7  1  0.34144500  0.78955600  0.53910700  1
  O  O8  1  0.64205700  0.33955700  0.88334000  1
  O  O9  1  0.85794300  0.33955700  0.38334000  1
  O  O10  1  0.35794300  0.66044300  0.11666000  1
  O  O11  1  0.14205700  0.66044300  0.61666000  1
  O  O12  1  0.71345700  0.03011200  0.88920700  1
  O  O13  1  0.78654300  0.03011200  0.38920700  1
  O  O14  1  0.28654300  0.96988800  0.11079300  1
  O  O15  1  0.21345700  0.96988800  0.61079300  1
  O  O16  1  0.90572700  0.83862100  0.91754500  1
  O  O17  1  0.59427300  0.83862100  0.41754500  1
  O  O18  1  0.09427300  0.16137900  0.08245500  1
  O  O19  1  0.40572700  0.16137900  0.58245500  1
  O  O20  1  0.77386500  0.94092000  0.73714000  1
  O  O21  1  0.72613500  0.94092000  0.23714000  1
  O  O22  1  0.22613500  0.05908000  0.26286000  1
  O  O23  1  0.27386500  0.05908000  0.76286000  1
  O  O24  1  0.70791300  0.66386200  0.95342100  1
  O  O25  1  0.79208700  0.66386200  0.45342100  1
  O  O26  1  0.29208700  0.33613800  0.04657900  1
  O  O27  1  0.20791300  0.33613800  0.54657900  1
  O  O28  1  0.90733900  0.75284000  0.19941100  1
  O  O29  1  0.59266100  0.75284000  0.69941100  1
  O  O30  1  0.09266100  0.24716000  0.80058900  1
  O  O31  1  0.40733900  0.24716000  0.30058900  1
  O  O32  1  0.92178100  0.34605800  0.12886900  1
  O  O33  1  0.57821900  0.34605800  0.62886900  1
  O  O34  1  0.07821900  0.65394200  0.87113100  1
  O  O35  1  0.42178100  0.65394200  0.37113100  1
  O  O36  1  0.52456900  0.25574900  0.11430300  1
  O  O37  1  0.97543100  0.25574900  0.61430300  1
  O  O38  1  0.47543100  0.74425100  0.88569700  1
  O  O39  1  0.02456900  0.74425100  0.38569700  1
loop_
_geom_bond_atom_site_label_1
_geom_bond_atom_site_label_2
_geom_bond_distance
_geom_bond_site_symmetry_2
Ca0 O5 2.313048 1_555
Ca0 O7 2.313048 1_545
Ca0 O19 2.336587 1_555
Ca0 O17 2.336587 1_545
Ca0 O29 2.480765 1_545
Ca0 O31 2.480765 1_555
Ca1 O6 2.313048 1_545
Ca1 O4 2.313048 1_454
Ca1 O18 2.336587 1_555
Ca1 O16 2.336587 1_444
Ca1 O28 2.480765 1_445
Ca1 O30 2.480765 1_554
Ca2 O25 2.286598 1_555
Ca2 O37 2.350820 1_555
Ca2 O20 2.417767 1_545
Ca2 O0 2.440986 1_555
Ca2 O33 2.450006 1_555
Ca2 O5 2.482136 1_555
Ca2 O9 2.633875 1_555
Ca3 O24 2.286598 1_554
Ca3 O36 2.350820 1_555
Ca3 O21 2.417767 1_545
Ca3 O1 2.440986 1_555
Ca3 O32 2.450006 1_555
Ca3 O4 2.482136 1_554
Ca3 O8 2.633875 1_554
Ca4 O27 2.286598 1_555
Ca4 O39 2.350820 1_555
Ca4 O22 2.417767 1_565
Ca4 O2 2.440986 1_555
Ca4 O35 2.450006 1_555
Ca4 O7 2.482136 1_555
Ca4 O11 2.633875 1_555
Ca5 O26 2.286598 1_556
Ca5 O38 2.350820 1_555
Ca5 O23 2.417767 1_565
Ca5 O3 2.440986 1_555
Ca5 O34 2.450006 1_555
Ca5 O6 2.482136 1_556
Ca5 O10 2.633875 1_556
H0 O28 0.999764 1_555
H0 O21 1.754265 1_555
H1 O29 0.999764 1_555
H1 O20 1.754265 1_555
H2 O30 0.999764 1_555
H2 O23 1.754265 1_555
H3 O31 0.999764 1_555
H3 O22 1.754265 1_555
H4 O28 0.989409 1_555
H5 O29 0.989409 1_555
H6 O30 0.989409 1_555
H7 O31 0.989409 1_555
H8 O32 0.994077 1_555
H8 O18 1.726366 1_655
H9 O33 0.994077 1_555
H9 O19 1.726366 1_555
H10 O34 0.994077 1_555
H10 O16 1.726366 1_455
H11 O35 0.994077 1_555
H11 O17 1.726366 1_555
H12 O32 0.976342 1_555
H13 O33 0.976342 1_555
H14 O34 0.976342 1_555
H15 O35 0.976342 1_555
H16 O36 0.988857 1_555
H17 O37 0.988857 1_555
H18 O38 0.988857 1_555
H19 O39 0.988857 1_555
H20 O36 0.984391 1_555
H21 O37 0.984391 1_455
H22 O38 0.984391 1_555
H23 O39 0.984391 1_655
H24 N0 1.035564 1_555
H25 N1 1.035564 1_555
H26 N2 1.035564 1_555
H27 N3 1.035564 1_555
H28 N0 1.044835 1_555
H29 N1 1.044835 1_455
H30 N2 1.044835 1_555
H31 N3 1.044835 1_655
H32 N0 1.048817 1_555
H33 N1 1.048817 1_555
H34 N2 1.048817 1_555
H35 N3 1.048817 1_555
H36 N0 1.032222 1_555
H37 N1 1.032222 1_555
H38 N2 1.032222 1_555
H39 N3 1.032222 1_555
O0 P0 1.522311 1_555
O1 P1 1.522311 1_555
O2 P2 1.522311 1_555
O3 P3 1.522311 1_555
O4 P0 1.542843 1_555
O5 P1 1.542843 1_555
O6 P2 1.542843 1_555
O7 P3 1.542843 1_555
O8 P0 1.532215 1_555
O9 P1 1.532215 1_555
O10 P2 1.532215 1_555
O11 P3 1.532215 1_555
O12 P0 1.646008 1_555
O12 P4 1.653038 1_545
O13 P1 1.646008 1_555
O13 P5 1.653038 1_545
O14 P2 1.646008 1_555
O14 P6 1.653038 1_565
O15 P3 1.646008 1_555
O15 P7 1.653038 1_565
O16 P4 1.537041 1_555
O17 P5 1.537041 1_555
O18 P6 1.537041 1_555
O19 P7 1.537041 1_555
O20 P4 1.543927 1_555
O21 P5 1.543927 1_555
O22 P6 1.543927 1_555
O23 P7 1.543927 1_555
O24 P4 1.522192 1_555
O25 P5 1.522192 1_555
O26 P6 1.522192 1_555
O27 P7 1.522192 1_555
