# generated using pymatgen
data_NaLiCu(PO3)3
_symmetry_space_group_name_H-M   'P 1'
_cell_length_a   8.81039600
_cell_length_b   9.12133300
_cell_length_c   9.15755900
_cell_angle_alpha   90.00000000
_cell_angle_beta   90.00000000
_cell_angle_gamma   90.00000000
_symmetry_Int_Tables_number   1
_chemical_formula_structural   NaLiCu(PO3)3
_chemical_formula_sum   'Na4 Li4 Cu4 P12 O36'
_cell_volume   735.92484593
_cell_formula_units_Z   4
loop_
 _symmetry_equiv_pos_site_id
 _symmetry_equiv_pos_as_xyz
  1  'x, y, z'
loop_
 _atom_site_type_symbol
 _atom_site_label
 _atom_site_symmetry_multiplicity
 _atom_site_fract_x
 _atom_site_fract_y
 _atom_site_fract_z
 _atom_site_occupancy
  Na  Na0  1  0.86223300  0.58699500  0.89511800  1
  Na  Na1  1  0.13776700  0.08699500  0.60488200  1
  Na  Na2  1  0.63776700  0.41300500  0.39511800  1
  Na  Na3  1  0.36223300  0.91300500  0.10488200  1
  Li  Li0  1  0.12299500  0.41156100  0.83256000  1
  Li  Li1  1  0.87700500  0.91156100  0.66744000  1
  Li  Li2  1  0.37700500  0.58843900  0.33256000  1
  Li  Li3  1  0.62299500  0.08843900  0.16744000  1
  Cu  Cu0  1  0.11306800  0.85812200  0.89418900  1
  Cu  Cu1  1  0.88693200  0.35812200  0.60581100  1
  Cu  Cu2  1  0.38693200  0.14187800  0.39418900  1
  Cu  Cu3  1  0.61306800  0.64187800  0.10581100  1
  P  P0  1  0.95329700  0.17477700  0.95181500  1
  P  P1  1  0.72065600  0.93390800  0.92984300  1
  P  P2  1  0.55629800  0.44414900  0.76727700  1
  P  P3  1  0.44370200  0.94414900  0.73272300  1
  P  P4  1  0.27934400  0.43390800  0.57015700  1
  P  P5  1  0.04670300  0.67477700  0.54818500  1
  P  P6  1  0.54670300  0.82522300  0.45181500  1
  P  P7  1  0.77934400  0.06609200  0.42984300  1
  P  P8  1  0.94370200  0.55585100  0.26727700  1
  P  P9  1  0.05629800  0.05585100  0.23272300  1
  P  P10  1  0.22065600  0.56609200  0.07015700  1
  P  P11  1  0.45329700  0.32522300  0.04818500  1
  O  O0  1  0.78809600  0.09418700  0.97903700  1
  O  O1  1  0.13059700  0.61387700  0.93819000  1
  O  O2  1  0.92905600  0.33142700  0.90480800  1
  O  O3  1  0.51544300  0.31391900  0.88326100  1
  O  O4  1  0.84529000  0.84022000  0.86682000  1
  O  O5  1  0.04972100  0.08064100  0.85381700  1
  O  O6  1  0.60730700  0.57564700  0.85127400  1
  O  O7  1  0.34910500  0.87788600  0.85175500  1
  O  O8  1  0.61437400  0.98096000  0.79564700  1
  O  O9  1  0.38562600  0.48096000  0.70435300  1
  O  O10  1  0.65089500  0.37788600  0.64824500  1
  O  O11  1  0.39269300  0.07564700  0.64872600  1
  O  O12  1  0.95027900  0.58064100  0.64618300  1
  O  O13  1  0.15471000  0.34022000  0.63318000  1
  O  O14  1  0.48455700  0.81391900  0.61673900  1
  O  O15  1  0.07094400  0.83142700  0.59519200  1
  O  O16  1  0.86940300  0.11387700  0.56181000  1
  O  O17  1  0.21190400  0.59418700  0.52096300  1
  O  O18  1  0.71190400  0.90581300  0.47903700  1
  O  O19  1  0.36940300  0.38612300  0.43819000  1
  O  O20  1  0.57094400  0.66857300  0.40480800  1
  O  O21  1  0.98455700  0.68608100  0.38326100  1
  O  O22  1  0.65471000  0.15978000  0.36682000  1
  O  O23  1  0.45027900  0.91935900  0.35381700  1
  O  O24  1  0.89269300  0.42435300  0.35127400  1
  O  O25  1  0.15089500  0.12211400  0.35175500  1
  O  O26  1  0.88562600  0.01904000  0.29564700  1
  O  O27  1  0.11437400  0.51904000  0.20435300  1
  O  O28  1  0.84910500  0.62211400  0.14824500  1
  O  O29  1  0.10730700  0.92435300  0.14872600  1
  O  O30  1  0.54972100  0.41935900  0.14618300  1
  O  O31  1  0.34529000  0.65978000  0.13318000  1
  O  O32  1  0.01544300  0.18608100  0.11673900  1
  O  O33  1  0.42905600  0.16857300  0.09519200  1
  O  O34  1  0.63059700  0.88612300  0.06181000  1
  O  O35  1  0.28809600  0.40581300  0.02096300  1
loop_
_geom_bond_atom_site_label_1
_geom_bond_atom_site_label_2
_geom_bond_distance
_geom_bond_site_symmetry_2
Na0 O6 2.283951 1_555
Na0 O4 2.329030 1_555
Na0 O28 2.342911 1_556
Na0 O2 2.405953 1_555
Na0 O12 2.408702 1_555
Na0 O1 2.409576 1_655
Na1 O11 2.283951 1_555
Na1 O13 2.329030 1_555
Na1 O25 2.342911 1_555
Na1 O15 2.405953 1_545
Na1 O5 2.408702 1_555
Na1 O16 2.409576 1_455
Na2 O24 2.283951 1_555
Na2 O22 2.329030 1_555
Na2 O10 2.342911 1_555
Na2 O20 2.405953 1_555
Na2 O30 2.408702 1_555
Na2 O19 2.409576 1_555
Na3 O29 2.283951 1_555
Na3 O31 2.329030 1_555
Na3 O7 2.342911 1_554
Na3 O33 2.405953 1_565
Na3 O23 2.408702 1_555
Na3 O34 2.409576 1_555
Li0 O13 1.958364 1_555
Li0 O2 1.972708 1_455
Li0 O1 2.084622 1_555
Li0 O35 2.257283 1_556
Li1 O4 1.958364 1_555
Li1 O15 1.972708 1_655
Li1 O16 2.084622 1_565
Li1 O18 2.257283 1_555
Li2 O31 1.958364 1_555
Li2 O20 1.972708 1_555
Li2 O19 2.084622 1_555
Li2 O17 2.257283 1_555
Li3 O22 1.958364 1_555
Li3 O33 1.972708 1_555
Li3 O34 2.084622 1_545
Li3 O0 2.257283 1_554
Cu0 O7 2.123241 1_555
Cu0 O5 2.137226 1_565
Cu0 O1 2.269247 1_555
Cu0 O4 2.378119 1_455
Cu0 O29 2.408485 1_556
Cu1 O10 2.123241 1_555
Cu1 O12 2.137226 1_555
Cu1 O16 2.269247 1_555
Cu1 O13 2.378119 1_655
Cu1 O24 2.408485 1_555
Cu2 O25 2.123241 1_555
Cu2 O23 2.137226 1_545
Cu2 O19 2.269247 1_555
Cu2 O22 2.378119 1_555
Cu2 O11 2.408485 1_555
Cu3 O28 2.123241 1_555
Cu3 O30 2.137226 1_555
Cu3 O34 2.269247 1_555
Cu3 O31 2.378119 1_555
Cu3 O6 2.408485 1_554
O0 P1 1.641131 1_545
O0 P0 1.649527 1_555
O1 P10 1.509970 1_556
O2 P0 1.507498 1_555
O3 P11 1.609792 1_556
O3 P2 1.633622 1_555
O4 P1 1.506362 1_555
O5 P0 1.504775 1_455
O6 P2 1.494088 1_555
O7 P3 1.499372 1_555
O8 P1 1.603505 1_555
O8 P3 1.644949 1_555
O9 P4 1.603505 1_555
O9 P2 1.644949 1_555
O10 P2 1.499372 1_555
O11 P3 1.494088 1_545
O12 P5 1.504775 1_655
O13 P4 1.506362 1_555
O14 P6 1.609792 1_555
O14 P3 1.633622 1_555
O15 P5 1.507498 1_555
O16 P7 1.509970 1_555
O17 P4 1.641131 1_555
O17 P5 1.649527 1_555
O18 P7 1.641131 1_565
O18 P6 1.649527 1_555
O19 P4 1.509970 1_555
O20 P6 1.507498 1_555
O21 P5 1.609792 1_655
O21 P8 1.633622 1_555
O22 P7 1.506362 1_555
O23 P6 1.504775 1_555
O24 P8 1.494088 1_555
O25 P9 1.499372 1_555
O26 P7 1.603505 1_555
O26 P9 1.644949 1_655
O27 P10 1.603505 1_555
O27 P8 1.644949 1_455
O28 P8 1.499372 1_555
O29 P9 1.494088 1_565
O30 P11 1.504775 1_555
O31 P10 1.506362 1_555
O32 P0 1.609792 1_454
O32 P9 1.633622 1_555
O33 P11 1.507498 1_555
O34 P1 1.509970 1_554
O35 P10 1.641131 1_555
O35 P11 1.649527 1_555
