# generated using pymatgen
data_MnOF
_symmetry_space_group_name_H-M   'P 1'
_cell_length_a   4.81381300
_cell_length_b   18.96361739
_cell_length_c   3.08853000
_cell_angle_alpha   90.00000000
_cell_angle_beta   90.00000000
_cell_angle_gamma   92.63743398
_symmetry_Int_Tables_number   1
_chemical_formula_structural   MnOF
_chemical_formula_sum   'Mn8 O8 F8'
_cell_volume   281.64493138
_cell_formula_units_Z   8
loop_
 _symmetry_equiv_pos_site_id
 _symmetry_equiv_pos_as_xyz
  1  'x, y, z'
loop_
 _atom_site_type_symbol
 _atom_site_label
 _atom_site_symmetry_multiplicity
 _atom_site_fract_x
 _atom_site_fract_y
 _atom_site_fract_z
 _atom_site_occupancy
  Mn  Mn0  1  0.95819300  0.99993400  0.00000000  1
  Mn  Mn1  1  0.13221100  0.24919800  0.00000000  1
  Mn  Mn2  1  0.02082200  0.49945800  0.00000000  1
  Mn  Mn3  1  0.91718300  0.74943000  0.00000000  1
  Mn  Mn4  1  0.55409300  0.12607800  0.50000000  1
  Mn  Mn5  1  0.57475200  0.37471700  0.50000000  1
  Mn  Mn6  1  0.47184900  0.62357100  0.50000000  1
  Mn  Mn7  1  0.36916600  0.87371600  0.50000000  1
  O  O0  1  0.29434500  0.20200000  0.50000000  1
  O  O1  1  0.12232200  0.95182000  0.50000000  1
  O  O2  1  0.29753200  0.57457200  0.00000000  1
  O  O3  1  0.39321200  0.32599900  0.00000000  1
  O  O4  1  0.19873500  0.82534100  0.00000000  1
  O  O5  1  0.74278300  0.42495200  0.00000000  1
  O  O6  1  0.64471200  0.67362100  0.00000000  1
  O  O7  1  0.80434000  0.05041200  0.50000000  1
  F  F0  1  0.22053200  0.45122300  0.50000000  1
  F  F1  1  0.12434900  0.70433300  0.50000000  1
  F  F2  1  0.33443200  0.08058600  0.00000000  1
  F  F3  1  0.78715100  0.17661700  0.00000000  1
  F  F4  1  0.59719800  0.92045200  0.00000000  1
  F  F5  1  0.91360200  0.29509600  0.50000000  1
  F  F6  1  0.81944700  0.54712600  0.50000000  1
  F  F7  1  0.70704000  0.79975200  0.50000000  1
loop_
_geom_bond_atom_site_label_1
_geom_bond_atom_site_label_2
_geom_bond_distance
_geom_bond_site_symmetry_2
Mn0 O1 1.976825 1_654
Mn0 O1 1.976825 1_655
Mn0 O7 1.978595 1_565
Mn0 O7 1.978595 1_564
Mn1 O3 1.879184 1_555
Mn1 O0 1.964511 1_554
Mn1 O0 1.964511 1_555
Mn2 O5 1.900959 1_455
Mn2 O2 1.904913 1_555
Mn3 O6 1.900935 1_555
Mn3 O4 1.931238 1_655
Mn4 O7 1.915511 1_555
Mn4 O0 1.949877 1_555
Mn5 O5 1.968661 1_555
Mn5 O5 1.968661 1_556
Mn5 O3 1.981839 1_556
Mn5 O3 1.981839 1_555
Mn6 O2 1.969910 1_556
Mn6 O2 1.969910 1_555
Mn6 O6 1.976197 1_556
Mn6 O6 1.976197 1_555
Mn7 O1 1.941055 1_555
Mn7 O4 1.957075 1_555
Mn7 O4 1.957075 1_556
F0 Mn2 2.055871 1_555
F0 Mn2 2.055871 1_556
F0 Mn5 2.289130 1_555
F1 Mn3 2.046739 1_456
F1 Mn3 2.046739 1_455
F1 Mn6 2.319408 1_555
F2 Mn4 2.040380 1_555
F2 Mn4 2.040380 1_554
F2 Mn0 2.316148 1_445
F3 Mn1 2.107882 1_655
F3 Mn4 2.112579 1_554
F3 Mn4 2.112579 1_555
F4 Mn7 2.070186 1_554
F4 Mn7 2.070186 1_555
F4 Mn0 2.247357 1_555
F5 Mn1 2.081840 1_655
F5 Mn1 2.081840 1_656
F5 Mn5 2.273137 1_555
F6 Mn2 2.054809 1_655
F6 Mn2 2.054809 1_656
F6 Mn6 2.263765 1_555
F7 Mn3 2.099422 1_556
F7 Mn3 2.099422 1_555
F7 Mn7 2.196062 1_555
