# generated using pymatgen
data_LiBiP2O7
_symmetry_space_group_name_H-M   'P 1'
_cell_length_a   7.94331800
_cell_length_b   7.46602700
_cell_length_c   10.09997695
_cell_angle_alpha   68.80828597
_cell_angle_beta   90.00000000
_cell_angle_gamma   90.00000000
_symmetry_Int_Tables_number   1
_chemical_formula_structural   LiBiP2O7
_chemical_formula_sum   'Li4 Bi4 P8 O28'
_cell_volume   558.47407202
_cell_formula_units_Z   4
loop_
 _symmetry_equiv_pos_site_id
 _symmetry_equiv_pos_as_xyz
  1  'x, y, z'
loop_
 _atom_site_type_symbol
 _atom_site_label
 _atom_site_symmetry_multiplicity
 _atom_site_fract_x
 _atom_site_fract_y
 _atom_site_fract_z
 _atom_site_occupancy
  Li  Li0  1  0.49260800  0.75488600  0.75451800  1
  Li  Li1  1  0.00739200  0.75488600  0.25451800  1
  Li  Li2  1  0.99260800  0.24511400  0.74548200  1
  Li  Li3  1  0.50739200  0.24511400  0.24548200  1
  Bi  Bi0  1  0.02817300  0.71463500  0.77146600  1
  Bi  Bi1  1  0.47182700  0.71463500  0.27146600  1
  Bi  Bi2  1  0.52817300  0.28536500  0.72853400  1
  Bi  Bi3  1  0.97182700  0.28536500  0.22853400  1
  P  P0  1  0.24304100  0.91311600  0.96020800  1
  P  P1  1  0.25695900  0.91311600  0.46020800  1
  P  P2  1  0.77819600  0.66938300  0.54016300  1
  P  P3  1  0.27819600  0.33061700  0.95983700  1
  P  P4  1  0.72180400  0.66938300  0.04016300  1
  P  P5  1  0.22180400  0.33061700  0.45983700  1
  P  P6  1  0.74304100  0.08688400  0.53979200  1
  P  P7  1  0.75695900  0.08688400  0.03979200  1
  O  O0  1  0.56796200  0.05383800  0.60908000  1
  O  O1  1  0.36406900  0.82629400  0.88657700  1
  O  O2  1  0.82232900  0.87022300  0.56721300  1
  O  O3  1  0.72838000  0.70370600  0.88265300  1
  O  O4  1  0.25884200  0.81257100  0.62358400  1
  O  O5  1  0.93203800  0.05383800  0.10908000  1
  O  O6  1  0.13593100  0.82629400  0.38657700  1
  O  O7  1  0.60382700  0.59963400  0.61061200  1
  O  O8  1  0.67767100  0.87022300  0.06721300  1
  O  O9  1  0.42147100  0.45224100  0.86785800  1
  O  O10  1  0.77162000  0.70370600  0.38265300  1
  O  O11  1  0.24115800  0.81257100  0.12358400  1
  O  O12  1  0.92147100  0.54775900  0.63214200  1
  O  O13  1  0.10382700  0.40036600  0.88938800  1
  O  O14  1  0.89617300  0.59963400  0.11061200  1
  O  O15  1  0.07852900  0.45224100  0.36785800  1
  O  O16  1  0.75884200  0.18742900  0.87641600  1
  O  O17  1  0.22838000  0.29629400  0.61734700  1
  O  O18  1  0.57852900  0.54775900  0.13214200  1
  O  O19  1  0.32232900  0.12977700  0.93278700  1
  O  O20  1  0.39617300  0.40036600  0.38938800  1
  O  O21  1  0.86406900  0.17370600  0.61342300  1
  O  O22  1  0.06796200  0.94616200  0.89092000  1
  O  O23  1  0.74115800  0.18742900  0.37641600  1
  O  O24  1  0.27162000  0.29629400  0.11734700  1
  O  O25  1  0.17767100  0.12977700  0.43278700  1
  O  O26  1  0.63593100  0.17370600  0.11342300  1
  O  O27  1  0.43203800  0.94616200  0.39092000  1
loop_
_geom_bond_atom_site_label_1
_geom_bond_atom_site_label_2
_geom_bond_distance
_geom_bond_site_symmetry_2
Li0 O1 1.902586 1_555
Li0 O9 2.205732 1_555
Li0 O4 2.229469 1_555
Li0 O3 2.229521 1_555
Li0 O0 2.264374 1_565
Li0 O7 2.335498 1_555
Li1 O6 1.902586 1_555
Li1 O15 2.205732 1_555
Li1 O11 2.229469 1_555
Li1 O10 2.229521 1_455
Li1 O5 2.264374 1_465
Li1 O14 2.335498 1_455
Li2 O21 1.902586 1_555
Li2 O12 2.205732 1_555
Li2 O16 2.229469 1_555
Li2 O17 2.229521 1_655
Li2 O22 2.264374 1_645
Li2 O13 2.335498 1_655
Li3 O26 1.902586 1_555
Li3 O18 2.205732 1_555
Li3 O23 2.229469 1_555
Li3 O24 2.229521 1_555
Li3 O27 2.264374 1_545
Li3 O20 2.335498 1_555
Bi0 O13 2.294466 1_555
Bi0 O4 2.309364 1_555
Bi0 O12 2.349104 1_455
Bi0 O22 2.459936 1_555
Bi0 O2 2.558536 1_455
Bi0 O3 2.621515 1_455
Bi1 O20 2.294466 1_555
Bi1 O11 2.309364 1_555
Bi1 O18 2.349104 1_555
Bi1 O27 2.459936 1_555
Bi1 O8 2.558536 1_555
Bi1 O10 2.621515 1_555
Bi2 O7 2.294466 1_555
Bi2 O16 2.309364 1_555
Bi2 O9 2.349104 1_555
Bi2 O0 2.459936 1_555
Bi2 O19 2.558536 1_555
Bi2 O17 2.621515 1_555
Bi3 O14 2.294466 1_555
Bi3 O23 2.309364 1_555
Bi3 O15 2.349104 1_655
Bi3 O5 2.459936 1_555
Bi3 O25 2.558536 1_655
Bi3 O24 2.621515 1_655
O0 P6 1.536178 1_555
O1 P0 1.498656 1_555
O2 P2 1.655942 1_555
O2 P6 1.663157 1_565
O3 P4 1.518044 1_556
O4 P1 1.546287 1_555
O5 P7 1.536178 1_555
O6 P1 1.498656 1_555
O7 P2 1.558200 1_555
O8 P4 1.655942 1_555
O8 P7 1.663157 1_565
O9 P3 1.540425 1_555
O10 P2 1.518044 1_555
O11 P0 1.546287 1_554
O12 P2 1.540425 1_555
O13 P3 1.558200 1_555
O14 P4 1.558200 1_555
O15 P5 1.540425 1_555
O16 P7 1.546287 1_556
O17 P5 1.518044 1_555
O18 P4 1.540425 1_555
O19 P3 1.655942 1_555
O19 P0 1.663157 1_545
O20 P5 1.558200 1_555
O21 P6 1.498656 1_555
O22 P0 1.536178 1_555
O23 P6 1.546287 1_555
O24 P3 1.518044 1_554
O25 P5 1.655942 1_555
O25 P1 1.663157 1_545
O26 P7 1.498656 1_555
O27 P1 1.536178 1_555
