# generated using pymatgen
data_Mn6O5F7
_symmetry_space_group_name_H-M   'P 1'
_cell_length_a   5.72129652
_cell_length_b   5.72129652
_cell_length_c   7.17494320
_cell_angle_alpha   74.32460710
_cell_angle_beta   74.32460710
_cell_angle_gamma   75.45102819
_symmetry_Int_Tables_number   1
_chemical_formula_structural   Mn6O5F7
_chemical_formula_sum   'Mn6 O5 F7'
_cell_volume   213.65332323
_cell_formula_units_Z   1
loop_
 _symmetry_equiv_pos_site_id
 _symmetry_equiv_pos_as_xyz
  1  'x, y, z'
loop_
 _atom_site_type_symbol
 _atom_site_label
 _atom_site_symmetry_multiplicity
 _atom_site_fract_x
 _atom_site_fract_y
 _atom_site_fract_z
 _atom_site_occupancy
  Mn  Mn0  1  0.33222300  0.66777700  0.00000000  1
  Mn  Mn1  1  0.00412300  0.33060900  0.84535900  1
  Mn  Mn2  1  0.31258200  0.68741800  0.50000000  1
  Mn  Mn3  1  0.99364600  0.30434600  0.33032700  1
  Mn  Mn4  1  0.69565400  0.00635400  0.66967300  1
  Mn  Mn5  1  0.66939100  0.99587700  0.15464100  1
  O  O0  1  0.22048300  0.56708200  0.80126300  1
  O  O1  1  0.89540100  0.21788200  0.13194100  1
  O  O2  1  0.78211800  0.10459900  0.86805900  1
  O  O3  1  0.43291800  0.77951700  0.19873700  1
  O  O4  1  0.01986300  0.98013700  0.50000000  1
  F  F0  1  0.33366400  0.02554200  0.81903400  1
  F  F1  1  0.61465400  0.38534600  0.50000000  1
  F  F2  1  0.57967600  0.91557600  0.46074600  1
  F  F3  1  0.08442400  0.42032400  0.53925400  1
  F  F4  1  0.69124700  0.63652500  0.83084400  1
  F  F5  1  0.36347500  0.30875300  0.16915600  1
  F  F6  1  0.97445800  0.66633600  0.18096600  1
loop_
_geom_bond_atom_site_label_1
_geom_bond_atom_site_label_2
_geom_bond_distance
_geom_bond_site_symmetry_2
Mn0 O3 1.973681 1_555
Mn0 O0 1.973681 1_554
Mn1 O1 1.955675 1_456
Mn1 O0 1.965018 1_555
Mn1 O2 1.977733 1_455
Mn2 O0 2.046106 1_555
Mn2 O3 2.046106 1_555
Mn2 O4 2.049468 1_555
Mn3 O1 1.881301 1_555
Mn3 O4 1.919332 1_645
Mn4 O2 1.881301 1_555
Mn4 O4 1.919332 1_645
Mn5 O2 1.955675 1_564
Mn5 O3 1.965018 1_555
Mn5 O1 1.977733 1_565
F0 Mn4 2.049333 1_555
F0 Mn0 2.107657 1_546
F0 Mn1 2.229160 1_555
F1 Mn2 2.114953 1_555
F1 Mn4 2.184497 1_555
F1 Mn3 2.184497 1_555
F2 Mn4 2.022005 1_565
F2 Mn5 2.064523 1_555
F2 Mn2 2.165503 1_555
F3 Mn3 2.022005 1_455
F3 Mn1 2.064523 1_555
F3 Mn2 2.165503 1_555
F4 Mn0 2.076016 1_556
F4 Mn4 2.122209 1_565
F4 Mn1 2.169479 1_655
F5 Mn0 2.076016 1_555
F5 Mn3 2.122209 1_455
F5 Mn5 2.169479 1_545
F6 Mn3 2.049333 1_555
F6 Mn0 2.107657 1_655
F6 Mn5 2.229160 1_555
