# generated using pymatgen
data_LiCu5(PO4)2
_symmetry_space_group_name_H-M   'P 1'
_cell_length_a   5.56710400
_cell_length_b   6.23208862
_cell_length_c   10.41780204
_cell_angle_alpha   89.77508227
_cell_angle_beta   89.37500736
_cell_angle_gamma   89.60697663
_symmetry_Int_Tables_number   1
_chemical_formula_structural   LiCu5(PO4)2
_chemical_formula_sum   'Li2 Cu10 P4 O16'
_cell_volume   361.40967869
_cell_formula_units_Z   2
loop_
 _symmetry_equiv_pos_site_id
 _symmetry_equiv_pos_as_xyz
  1  'x, y, z'
loop_
 _atom_site_type_symbol
 _atom_site_label
 _atom_site_symmetry_multiplicity
 _atom_site_fract_x
 _atom_site_fract_y
 _atom_site_fract_z
 _atom_site_occupancy
  Li  Li0  1  0.15298600  0.00032500  0.75403500  1
  Li  Li1  1  0.67253200  0.25515100  0.75516600  1
  Cu  Cu0  1  0.22890300  0.00021300  0.25681800  1
  Cu  Cu1  1  0.35636200  0.24262000  0.49559600  1
  Cu  Cu2  1  0.34747000  0.25947800  0.99372800  1
  Cu  Cu3  1  0.65287400  0.24431800  0.25398900  1
  Cu  Cu4  1  0.77146700  0.50770300  0.00294300  1
  Cu  Cu5  1  0.77655400  0.49581000  0.50324300  1
  Cu  Cu6  1  0.65324900  0.75328800  0.25315600  1
  Cu  Cu7  1  0.65153900  0.71777100  0.76724700  1
  Cu  Cu8  1  0.34709500  0.76598800  0.50014800  1
  Cu  Cu9  1  0.35934500  0.73707400  0.99523000  1
  P  P0  1  0.84182200  0.00570200  0.99402700  1
  P  P1  1  0.83436600  0.00092100  0.50843800  1
  P  P2  1  0.17388800  0.49449800  0.74629200  1
  P  P3  1  0.16054100  0.50233400  0.24732400  1
  O  O0  1  0.84053100  0.00782500  0.35976200  1
  O  O1  1  0.09003600  0.99854100  0.56611500  1
  O  O2  1  0.83196300  0.00503800  0.84586300  1
  O  O3  1  0.10252500  0.00307900  0.04449300  1
  O  O4  1  0.69607700  0.19960600  0.56673800  1
  O  O5  1  0.70314600  0.20692600  0.04811400  1
  O  O6  1  0.31437600  0.29203900  0.79499500  1
  O  O7  1  0.29598300  0.29923900  0.29976400  1
  O  O8  1  0.16260000  0.50262100  0.09948200  1
  O  O9  1  0.90196400  0.50454600  0.30333600  1
  O  O10  1  0.17535900  0.49747100  0.59755200  1
  O  O11  1  0.91046600  0.48710200  0.79835800  1
  O  O12  1  0.29905500  0.70094500  0.30000200  1
  O  O13  1  0.29276500  0.70771600  0.79580300  1
  O  O14  1  0.69659400  0.79686600  0.55770900  1
  O  O15  1  0.70556200  0.80724700  0.05194200  1
loop_
_geom_bond_atom_site_label_1
_geom_bond_atom_site_label_2
_geom_bond_distance
_geom_bond_site_symmetry_2
Li0 O1 1.992680 1_545
Li0 O2 2.017971 1_455
Li0 O13 2.025329 1_545
Li0 O6 2.081174 1_555
Li1 O4 1.997373 1_555
Li1 O11 2.022623 1_555
Li1 O2 2.024333 1_555
Li1 O6 2.043779 1_555
Cu0 O12 1.954645 1_545
Cu0 O7 1.957603 1_555
Cu0 O3 2.328422 1_555
Cu0 O0 2.403230 1_455
Cu1 O4 2.054255 1_555
Cu1 O7 2.099367 1_555
Cu1 O10 2.152685 1_555
Cu1 O1 2.247271 1_545
Cu2 O5 2.088812 1_556
Cu2 O6 2.089504 1_555
Cu2 O8 2.129813 1_556
Cu2 O3 2.167949 1_556
Cu3 O7 2.064803 1_555
Cu3 O0 2.114025 1_555
Cu3 O5 2.173150 1_555
Cu3 O9 2.206880 1_555
Cu4 O15 1.968266 1_555
Cu4 O5 1.969441 1_555
Cu4 O11 2.263325 1_554
Cu4 O8 2.408417 1_655
Cu5 O14 2.007900 1_555
Cu5 O4 2.010268 1_555
Cu5 O9 2.189864 1_555
Cu5 O10 2.437749 1_655
Cu6 O12 2.054093 1_555
Cu6 O9 2.138576 1_555
Cu6 O15 2.138802 1_555
Cu6 O0 2.213280 1_565
Cu7 O13 2.017516 1_555
Cu7 O11 2.056100 1_555
Cu7 O2 2.222358 1_565
Cu7 O14 2.247745 1_555
Cu8 O14 2.052768 1_555
Cu8 O1 2.139770 1_555
Cu8 O12 2.145621 1_555
Cu8 O10 2.175214 1_555
Cu9 O15 2.072130 1_556
Cu9 O8 2.120777 1_556
Cu9 O13 2.123196 1_555
Cu9 O3 2.239174 1_566
O0 P1 1.549318 1_555
O1 P1 1.550955 1_465
O2 P0 1.545140 1_555
O3 P0 1.548992 1_454
O4 P1 1.573977 1_555
O5 P0 1.571281 1_554
O6 P2 1.565636 1_555
O7 P3 1.568272 1_555
O8 P3 1.540100 1_555
O9 P3 1.547380 1_655
O10 P2 1.549515 1_555
O11 P2 1.558951 1_655
O12 P3 1.567007 1_555
O13 P2 1.579433 1_555
O14 P1 1.571180 1_565
O15 P0 1.570394 1_564
