# generated using pymatgen
data_YBCO7
_symmetry_space_group_name_H-M   'P 1'
_cell_length_a   8.94110200
_cell_length_b   9.17554800
_cell_length_c   13.73157700
_cell_angle_alpha   90.00000000
_cell_angle_beta   90.00000000
_cell_angle_gamma   90.00000000
_symmetry_Int_Tables_number   1
_chemical_formula_structural   YBCO7
_chemical_formula_sum   'Y8 B8 C8 O56'
_cell_volume   1126.53185649
_cell_formula_units_Z   8
loop_
 _symmetry_equiv_pos_site_id
 _symmetry_equiv_pos_as_xyz
  1  'x, y, z'
loop_
 _atom_site_type_symbol
 _atom_site_label
 _atom_site_symmetry_multiplicity
 _atom_site_fract_x
 _atom_site_fract_y
 _atom_site_fract_z
 _atom_site_occupancy
  Y  Y0  1  0.27665800  0.51899600  0.51246200  1
  Y  Y1  1  0.72334200  0.01899600  0.98753800  1
  Y  Y2  1  0.22334200  0.48100400  0.01246200  1
  Y  Y3  1  0.77665800  0.98100400  0.48753800  1
  Y  Y4  1  0.72334200  0.48100400  0.48753800  1
  Y  Y5  1  0.27665800  0.98100400  0.01246200  1
  Y  Y6  1  0.77665800  0.51899600  0.98753800  1
  Y  Y7  1  0.22334200  0.01899600  0.51246200  1
  B  B0  1  0.25344600  0.50023000  0.23221400  1
  B  B1  1  0.74655400  0.00023000  0.26778600  1
  B  B2  1  0.24655400  0.49977000  0.73221400  1
  B  B3  1  0.75344600  0.99977000  0.76778600  1
  B  B4  1  0.74655400  0.49977000  0.76778600  1
  B  B5  1  0.25344600  0.99977000  0.73221400  1
  B  B6  1  0.75344600  0.50023000  0.26778600  1
  B  B7  1  0.24655400  0.00023000  0.23221400  1
  C  C0  1  0.47808700  0.76549400  0.53388600  1
  C  C1  1  0.52191300  0.26549400  0.96611400  1
  C  C2  1  0.02191300  0.23450600  0.03388600  1
  C  C3  1  0.97808700  0.73450600  0.46611400  1
  C  C4  1  0.52191300  0.23450600  0.46611400  1
  C  C5  1  0.47808700  0.73450600  0.03388600  1
  C  C6  1  0.97808700  0.76549400  0.96611400  1
  C  C7  1  0.02191300  0.26549400  0.53388600  1
  O  O0  1  0.66578100  0.21428600  0.47726200  1
  O  O1  1  0.33421900  0.71428600  0.02273800  1
  O  O2  1  0.83421900  0.78571400  0.97726200  1
  O  O3  1  0.16578100  0.28571400  0.52273800  1
  O  O4  1  0.33421900  0.78571400  0.52273800  1
  O  O5  1  0.66578100  0.28571400  0.97726200  1
  O  O6  1  0.16578100  0.21428600  0.02273800  1
  O  O7  1  0.83421900  0.71428600  0.47726200  1
  O  O8  1  0.48110900  0.37132400  0.46702200  1
  O  O9  1  0.51889100  0.87132400  0.03297800  1
  O  O10  1  0.01889100  0.62867600  0.96702200  1
  O  O11  1  0.98110900  0.12867600  0.53297800  1
  O  O12  1  0.51889100  0.62867600  0.53297800  1
  O  O13  1  0.48110900  0.12867600  0.96702200  1
  O  O14  1  0.98110900  0.37132400  0.03297800  1
  O  O15  1  0.01889100  0.87132400  0.46702200  1
  O  O16  1  0.56861200  0.86952200  0.54570600  1
  O  O17  1  0.43138800  0.36952200  0.95429400  1
  O  O18  1  0.93138800  0.13047800  0.04570600  1
  O  O19  1  0.06861200  0.63047800  0.45429400  1
  O  O20  1  0.43138800  0.13047800  0.45429400  1
  O  O21  1  0.56861200  0.63047800  0.04570600  1
  O  O22  1  0.06861200  0.86952200  0.95429400  1
  O  O23  1  0.93138800  0.36952200  0.54570600  1
  O  O24  1  0.31786100  0.56559300  0.32537000  1
  O  O25  1  0.68213900  0.06559300  0.17463000  1
  O  O26  1  0.18213900  0.43440700  0.82537000  1
  O  O27  1  0.81786100  0.93440700  0.67463000  1
  O  O28  1  0.68213900  0.43440700  0.67463000  1
  O  O29  1  0.31786100  0.93440700  0.82537000  1
  O  O30  1  0.81786100  0.56559300  0.17463000  1
  O  O31  1  0.18213900  0.06559300  0.32537000  1
  O  O32  1  0.22397900  0.43764400  0.33239200  1
  O  O33  1  0.77602100  0.93764400  0.16760800  1
  O  O34  1  0.27602100  0.56235600  0.83239200  1
  O  O35  1  0.72397900  0.06235600  0.66760800  1
  O  O36  1  0.77602100  0.56235600  0.66760800  1
  O  O37  1  0.22397900  0.06235600  0.83239200  1
  O  O38  1  0.72397900  0.43764400  0.16760800  1
  O  O39  1  0.27602100  0.93764400  0.33239200  1
  O  O40  1  0.14734900  0.56679500  0.17464800  1
  O  O41  1  0.85265100  0.06679500  0.32535200  1
  O  O42  1  0.35265100  0.43320500  0.67464800  1
  O  O43  1  0.64734900  0.93320500  0.82535200  1
  O  O44  1  0.85265100  0.43320500  0.82535200  1
  O  O45  1  0.14734900  0.93320500  0.67464800  1
  O  O46  1  0.64734900  0.56679500  0.32535200  1
  O  O47  1  0.35265100  0.06679500  0.17464800  1
  O  O48  1  0.33684600  0.43038500  0.16196100  1
  O  O49  1  0.66315400  0.93038500  0.33803900  1
  O  O50  1  0.16315400  0.56961500  0.66196100  1
  O  O51  1  0.83684600  0.06961500  0.83803900  1
  O  O52  1  0.66315400  0.56961500  0.83803900  1
  O  O53  1  0.33684600  0.06961500  0.66196100  1
  O  O54  1  0.83684600  0.43038500  0.33803900  1
  O  O55  1  0.16315400  0.93038500  0.16196100  1
loop_
_geom_bond_atom_site_label_1
_geom_bond_atom_site_label_2
_geom_bond_distance
_geom_bond_site_symmetry_2
B0 O48 1.377453 1_555
B0 O40 1.377597 1_555
B0 O32 1.513761 1_555
B0 O24 1.525679 1_555
B1 O49 1.377453 1_545
B1 O41 1.377597 1_555
B1 O33 1.513761 1_545
B1 O25 1.525679 1_555
B2 O50 1.377453 1_555
B2 O42 1.377597 1_555
B2 O34 1.513761 1_555
B2 O26 1.525679 1_555
B3 O51 1.377453 1_565
B3 O43 1.377597 1_555
B3 O35 1.513761 1_565
B3 O27 1.525679 1_555
B4 O52 1.377453 1_555
B4 O44 1.377597 1_555
B4 O36 1.513761 1_555
B4 O28 1.525679 1_555
B5 O53 1.377453 1_565
B5 O45 1.377597 1_555
B5 O37 1.513761 1_565
B5 O29 1.525679 1_555
B6 O54 1.377453 1_555
B6 O46 1.377597 1_555
B6 O38 1.513761 1_555
B6 O30 1.525679 1_555
B7 O55 1.377453 1_545
B7 O47 1.377597 1_555
B7 O39 1.513761 1_545
B7 O31 1.525679 1_555
C0 O16 1.261966 1_555
C0 O12 1.307378 1_555
C0 O4 1.308633 1_555
C1 O17 1.261966 1_555
C1 O13 1.307378 1_555
C1 O5 1.308633 1_555
C2 O18 1.261966 1_455
C2 O14 1.307378 1_455
C2 O6 1.308633 1_555
C3 O19 1.261966 1_655
C3 O15 1.307378 1_655
C3 O7 1.308633 1_555
C4 O20 1.261966 1_555
C4 O8 1.307378 1_555
C4 O0 1.308633 1_555
C5 O21 1.261966 1_555
C5 O9 1.307378 1_555
C5 O1 1.308633 1_555
C6 O22 1.261966 1_655
C6 O10 1.307378 1_655
C6 O2 1.308633 1_555
C7 O23 1.261966 1_455
C7 O11 1.307378 1_455
C7 O3 1.308633 1_555
O0 Y3 2.363135 1_545
O0 Y4 2.504792 1_555
O1 Y2 2.363135 1_555
O1 Y5 2.504792 1_555
O2 Y1 2.363135 1_565
O2 Y6 2.504792 1_555
O3 Y0 2.363135 1_555
O3 Y7 2.504792 1_555
O4 Y7 2.363135 1_565
O4 Y0 2.504792 1_555
O5 Y6 2.363135 1_555
O5 Y1 2.504792 1_555
O6 Y5 2.363135 1_545
O6 Y2 2.504792 1_555
O7 Y4 2.363135 1_555
O7 Y3 2.504792 1_555
O8 Y0 2.359433 1_555
O8 Y4 2.404781 1_555
O9 Y1 2.359433 1_564
O9 Y5 2.404781 1_555
O10 Y2 2.359433 1_556
O10 Y6 2.404781 1_455
O11 Y3 2.359433 1_545
O11 Y7 2.404781 1_655
O12 Y4 2.359433 1_555
O12 Y0 2.404781 1_555
O13 Y5 2.359433 1_546
O13 Y1 2.404781 1_555
O14 Y6 2.359433 1_554
O14 Y2 2.404781 1_655
O15 Y7 2.359433 1_565
O15 Y3 2.404781 1_455
O16 Y3 2.268154 1_555
O17 Y2 2.268154 1_556
O18 Y1 2.268154 1_554
O19 Y0 2.268154 1_555
O20 Y7 2.268154 1_555
O21 Y6 2.268154 1_554
O22 Y5 2.268154 1_556
O23 Y4 2.268154 1_555
O24 O32 1.446439 1_555
O24 Y0 2.630329 1_555
O25 O33 1.446439 1_545
O25 Y1 2.630329 1_554
O26 O34 1.446439 1_555
O26 Y2 2.630329 1_556
O27 O35 1.446439 1_565
O27 Y3 2.630329 1_555
O28 O36 1.446439 1_555
O28 Y4 2.630329 1_555
O29 O37 1.446439 1_565
O29 Y5 2.630329 1_556
O30 O38 1.446439 1_555
O30 Y6 2.630329 1_554
O31 O39 1.446439 1_545
O31 Y7 2.630329 1_555
O32 Y0 2.625454 1_555
O33 Y1 2.625454 1_564
O34 Y2 2.625454 1_556
O35 Y3 2.625454 1_545
O36 Y4 2.625454 1_555
O37 Y5 2.625454 1_546
O38 Y6 2.625454 1_554
O39 Y7 2.625454 1_565
O40 Y2 2.457877 1_555
O41 Y3 2.457877 1_545
O42 Y0 2.457877 1_555
O43 Y1 2.457877 1_565
O44 Y6 2.457877 1_555
O45 Y7 2.457877 1_565
O46 Y4 2.457877 1_555
O47 Y5 2.457877 1_545
O48 Y2 2.336635 1_555
O49 Y3 2.336635 1_555
O50 Y0 2.336635 1_555
O51 Y1 2.336635 1_555
O52 Y6 2.336635 1_555
O53 Y7 2.336635 1_555
O54 Y4 2.336635 1_555
O55 Y5 2.336635 1_555
