# generated using pymatgen
data_NaLi3Ti2Al2(PO4)6
_symmetry_space_group_name_H-M   'P 1'
_cell_length_a   8.55418600
_cell_length_b   8.56474245
_cell_length_c   8.59205128
_cell_angle_alpha   60.68431911
_cell_angle_beta   60.18554231
_cell_angle_gamma   60.05931692
_symmetry_Int_Tables_number   1
_chemical_formula_structural   NaLi3Ti2Al2(PO4)6
_chemical_formula_sum   'Na1 Li3 Ti2 Al2 P6 O24'
_cell_volume   448.20762309
_cell_formula_units_Z   1
loop_
 _symmetry_equiv_pos_site_id
 _symmetry_equiv_pos_as_xyz
  1  'x, y, z'
loop_
 _atom_site_type_symbol
 _atom_site_label
 _atom_site_symmetry_multiplicity
 _atom_site_fract_x
 _atom_site_fract_y
 _atom_site_fract_z
 _atom_site_occupancy
  Na  Na0  1  0.00201200  0.97864200  0.00077300  1
  Li  Li0  1  0.74580400  0.36200200  0.74019300  1
  Li  Li1  1  0.35475700  0.14391700  0.74854400  1
  Li  Li2  1  0.48419800  0.52689300  0.48948600  1
  Ti  Ti0  1  0.64142900  0.64084800  0.07813200  1
  Ti  Ti1  1  0.86079500  0.85822900  0.42282200  1
  Al  Al0  1  0.14420800  0.14545100  0.56189200  1
  Al  Al1  1  0.35129300  0.35486800  0.93717800  1
  P  P0  1  0.45723000  0.74877000  0.74890400  1
  P  P1  1  0.96210200  0.52812300  0.25797900  1
  P  P2  1  0.74983000  0.04201400  0.75154200  1
  P  P3  1  0.25144000  0.96814800  0.24582600  1
  P  P4  1  0.04510600  0.45939100  0.74793500  1
  P  P5  1  0.53235800  0.25142300  0.25128500  1
  O  O0  1  0.27661500  0.92745100  0.73776600  1
  O  O1  1  0.63527900  0.78106300  0.57469600  1
  O  O2  1  0.94242900  0.71950900  0.25572300  1
  O  O3  1  0.44231700  0.57215700  0.75583300  1
  O  O4  1  0.12866500  0.48784000  0.08124400  1
  O  O5  1  0.50611800  0.29772800  0.06679100  1
  O  O6  1  0.98244900  0.37318100  0.44562600  1
  O  O7  1  0.76920800  0.55411800  0.25632700  1
  O  O8  1  0.91385500  0.08022300  0.74032000  1
  O  O9  1  0.57556000  0.23050600  0.75543500  1
  O  O10  1  0.30532700  0.12210600  0.05539700  1
  O  O11  1  0.20284700  0.01161300  0.41867000  1
  O  O12  1  0.78513600  0.00602700  0.57629600  1
  O  O13  1  0.71300500  0.87115700  0.92941100  1
  O  O14  1  0.41853900  0.77334300  0.25371700  1
  O  O15  1  0.08086100  0.94272000  0.25137200  1
  O  O16  1  0.23886900  0.42159700  0.75480700  1
  O  O17  1  0.01341900  0.63138100  0.57254000  1
  O  O18  1  0.49083400  0.71279000  0.92701600  1
  O  O19  1  0.87109700  0.49419800  0.92572200  1
  O  O20  1  0.55505900  0.42115400  0.25088900  1
  O  O21  1  0.06241300  0.27200600  0.74291600  1
  O  O22  1  0.36675600  0.20746800  0.43357200  1
  O  O23  1  0.72177800  0.07995100  0.25542400  1
loop_
_geom_bond_atom_site_label_1
_geom_bond_atom_site_label_2
_geom_bond_distance
_geom_bond_site_symmetry_2
Na0 O2 2.289583 1_455
Na0 O8 2.334551 1_464
Na0 O0 2.341017 1_554
Na0 O15 2.402910 1_555
Na0 O23 2.419472 1_465
Na0 O21 2.488983 1_564
Li0 O8 2.103983 1_555
Li0 O9 2.170129 1_555
Li0 O3 2.285391 1_555
Li0 O6 2.318224 1_555
Li0 O21 2.427193 1_655
Li0 O5 2.504811 1_556
Li1 O16 2.088207 1_555
Li1 O21 2.188479 1_555
Li1 O0 2.315025 1_545
Li1 O10 2.377565 1_556
Li1 O9 2.381903 1_555
Li1 O22 2.442895 1_555
Li2 O14 2.152979 1_555
Li2 O7 2.294547 1_555
Li2 O20 2.329085 1_555
Li2 O3 2.330363 1_555
Li2 O16 2.352231 1_555
Li2 O9 2.528128 1_555
Al0 O11 1.809266 1_555
Al0 O22 1.862960 1_555
Al0 O6 1.867984 1_455
Al0 O8 1.949729 1_455
Al0 O0 1.969914 1_545
Al0 O21 1.973645 1_555
Al1 O4 1.824111 1_556
Al1 O5 1.876084 1_556
Al1 O10 1.887586 1_556
Al1 O16 1.944138 1_555
Al1 O9 1.965553 1_555
Al1 O3 1.974331 1_555
O0 P0 1.543259 1_555
O1 P0 1.544285 1_555
O1 Ti1 1.945767 1_555
O2 P1 1.553176 1_555
O2 Ti1 1.950838 1_555
O3 P0 1.550740 1_555
O4 P1 1.525089 1_455
O5 P5 1.539417 1_555
O6 P1 1.531044 1_555
O7 P1 1.557538 1_555
O7 Ti0 1.957198 1_555
O8 P2 1.542075 1_555
O9 P2 1.559053 1_555
O10 P3 1.540245 1_545
O11 P3 1.513243 1_545
O12 P2 1.537126 1_555
O12 Ti1 1.930866 1_545
O13 P2 1.538722 1_565
O13 Ti0 1.964170 1_556
O14 P3 1.560930 1_555
O14 Ti0 1.963521 1_555
O15 P3 1.554597 1_555
O15 Ti1 1.948294 1_455
O16 P4 1.548729 1_555
O17 P4 1.532391 1_555
O17 Ti1 1.955689 1_455
O18 P0 1.551376 1_555
O18 Ti0 1.952556 1_556
O19 P4 1.542699 1_655
O19 Ti0 1.934258 1_556
O20 P5 1.557966 1_555
O20 Ti0 1.962606 1_555
O21 P4 1.556838 1_555
O22 P5 1.533041 1_555
O23 P5 1.553819 1_555
O23 Ti1 1.964938 1_545
