# generated using pymatgen
data_Na5Co2As(CO4)4
_symmetry_space_group_name_H-M   'P 1'
_cell_length_a   10.02301376
_cell_length_b   10.01654409
_cell_length_c   9.98430602
_cell_angle_alpha   60.14923859
_cell_angle_beta   60.08485749
_cell_angle_gamma   59.76590392
_symmetry_Int_Tables_number   1
_chemical_formula_structural   Na5Co2As(CO4)4
_chemical_formula_sum   'Na10 Co4 As2 C8 O32'
_cell_volume   708.77435254
_cell_formula_units_Z   2
loop_
 _symmetry_equiv_pos_site_id
 _symmetry_equiv_pos_as_xyz
  1  'x, y, z'
loop_
 _atom_site_type_symbol
 _atom_site_label
 _atom_site_symmetry_multiplicity
 _atom_site_fract_x
 _atom_site_fract_y
 _atom_site_fract_z
 _atom_site_occupancy
  Na  Na0  1  0.96355800  0.96355800  0.53644200  1
  Na  Na1  1  0.96368500  0.53631500  0.53631500  1
  Na  Na2  1  0.53618700  0.96381300  0.53618700  1
  Na  Na3  1  0.71547600  0.28452400  0.28452400  1
  Na  Na4  1  0.96381300  0.53618700  0.96381300  1
  Na  Na5  1  0.28471000  0.71529000  0.28471000  1
  Na  Na6  1  0.53644200  0.53644200  0.96355800  1
  Na  Na7  1  0.53631500  0.96368500  0.96368500  1
  Na  Na8  1  0.71529000  0.28471000  0.71529000  1
  Na  Na9  1  0.28452400  0.71547600  0.71547600  1
  Co  Co0  1  0.12706200  0.12723300  0.12052100  1
  Co  Co1  1  0.12052100  0.62518400  0.12706200  1
  Co  Co2  1  0.62518400  0.12052100  0.12723300  1
  Co  Co3  1  0.12723300  0.12706200  0.62518400  1
  As  As0  1  0.50000000  0.50000000  0.50000000  1
  As  As1  1  0.75000000  0.75000000  0.75000000  1
  C  C0  1  0.98723700  0.33779500  0.33812900  1
  C  C1  1  0.91210900  0.91350000  0.26417000  1
  C  C2  1  0.91350000  0.91210900  0.91022200  1
  C  C3  1  0.91022200  0.26417000  0.91350000  1
  C  C4  1  0.33779500  0.98723700  0.33683900  1
  C  C5  1  0.33683900  0.33812900  0.33779500  1
  C  C6  1  0.33812900  0.33683900  0.98723700  1
  C  C7  1  0.26417000  0.91022200  0.91210900  1
  O  O0  1  0.98001800  0.22642900  0.48187600  1
  O  O1  1  0.02475400  0.77056600  0.26803700  1
  O  O2  1  0.99263600  0.47566200  0.30998000  1
  O  O3  1  0.94157300  0.02474000  0.26768000  1
  O  O4  1  0.98048800  0.31294600  0.22592700  1
  O  O5  1  0.58562700  0.29019600  0.56241900  1
  O  O6  1  0.56241900  0.56175800  0.58562700  1
  O  O7  1  0.76996100  0.94405400  0.26734800  1
  O  O8  1  0.01863800  0.26734800  0.94405400  1
  O  O9  1  0.94405400  0.76996100  0.01863800  1
  O  O10  1  0.29019600  0.58562700  0.56175800  1
  O  O11  1  0.56175800  0.56241900  0.29019600  1
  O  O12  1  0.31294600  0.98048800  0.48063900  1
  O  O13  1  0.48063900  0.22592700  0.31294600  1
  O  O14  1  0.02474000  0.94157300  0.76600700  1
  O  O15  1  0.76600700  0.26768000  0.02474000  1
  O  O16  1  0.22172200  0.30998000  0.47566200  1
  O  O17  1  0.47566200  0.99263600  0.22172200  1
  O  O18  1  0.77056600  0.02475400  0.93664300  1
  O  O19  1  0.93664300  0.26803700  0.77056600  1
  O  O20  1  0.67857400  0.67892300  0.96040000  1
  O  O21  1  0.96040000  0.68210200  0.67857400  1
  O  O22  1  0.22642900  0.98001800  0.31167700  1
  O  O23  1  0.31167700  0.48187600  0.22642900  1
  O  O24  1  0.48187600  0.31167700  0.98001800  1
  O  O25  1  0.68210200  0.96040000  0.67892300  1
  O  O26  1  0.67892300  0.67857400  0.68210200  1
  O  O27  1  0.26803700  0.93664300  0.02475400  1
  O  O28  1  0.30998000  0.22172200  0.99263600  1
  O  O29  1  0.26768000  0.76600700  0.94157300  1
  O  O30  1  0.22592700  0.48063900  0.98048800  1
  O  O31  1  0.26734800  0.01863800  0.76996100  1
loop_
_geom_bond_atom_site_label_1
_geom_bond_atom_site_label_2
_geom_bond_distance
_geom_bond_site_symmetry_2
Na0 O21 2.454629 1_555
Na0 O25 2.454629 1_555
Na0 O22 2.485322 1_655
Na0 O0 2.485322 1_565
Na0 O14 2.538012 1_655
Na0 O3 2.538012 1_565
Na1 O16 2.468825 1_655
Na1 O2 2.468825 1_555
Na1 O21 2.473987 1_555
Na1 O26 2.473993 1_555
Na1 O1 2.570870 1_655
Na1 O19 2.570870 1_555
Na2 O12 2.472104 1_555
Na2 O13 2.472104 1_565
Na2 O25 2.480144 1_555
Na2 O26 2.480150 1_555
Na2 O7 2.553974 1_555
Na2 O31 2.553976 1_565
Na3 O11 2.424062 1_555
Na3 O5 2.424062 1_555
Na3 O15 2.460055 1_555
Na3 O3 2.460055 1_555
Na3 O4 2.554317 1_555
Na3 O13 2.554317 1_555
Na4 O30 2.472104 1_655
Na4 O4 2.472104 1_556
Na4 O21 2.480153 1_555
Na4 O20 2.480153 1_555
Na4 O8 2.553971 1_655
Na4 O9 2.553981 1_556
Na5 O10 2.417592 1_555
Na5 O11 2.417592 1_555
Na5 O1 2.451770 1_555
Na5 O27 2.451770 1_555
Na5 O22 2.537510 1_555
Na5 O23 2.537510 1_555
Na6 O20 2.454620 1_555
Na6 O26 2.454626 1_555
Na6 O23 2.485322 1_556
Na6 O24 2.485322 1_555
Na6 O15 2.538012 1_556
Na6 O29 2.538012 1_555
Na7 O17 2.468825 1_556
Na7 O28 2.468825 1_565
Na7 O25 2.473996 1_555
Na7 O20 2.473996 1_555
Na7 O18 2.570870 1_565
Na7 O27 2.570870 1_556
Na8 O5 2.417592 1_555
Na8 O6 2.417592 1_555
Na8 O18 2.451770 1_555
Na8 O19 2.451770 1_555
Na8 O24 2.537510 1_555
Na8 O0 2.537510 1_555
Na9 O6 2.424062 1_555
Na9 O10 2.424062 1_555
Na9 O29 2.460055 1_555
Na9 O14 2.460055 1_555
Na9 O12 2.554317 1_555
Na9 O30 2.554317 1_555
Co0 O28 2.024091 1_554
Co0 O8 2.041379 1_554
Co0 O27 2.075641 1_545
Co0 O3 2.089297 1_455
Co0 O4 2.093025 1_455
Co0 O22 2.103394 1_545
Co1 O2 2.024091 1_455
Co1 O9 2.041379 1_455
Co1 O1 2.075641 1_555
Co1 O29 2.089297 1_554
Co1 O30 2.093025 1_554
Co1 O23 2.103394 1_555
Co2 O17 2.024091 1_545
Co2 O7 2.041385 1_545
Co2 O18 2.075641 1_554
Co2 O15 2.089297 1_555
Co2 O13 2.093025 1_555
Co2 O24 2.103394 1_554
Co3 O16 2.024091 1_555
Co3 O31 2.041387 1_555
Co3 O19 2.075641 1_455
Co3 O14 2.089297 1_545
Co3 O12 2.093025 1_545
Co3 O0 2.103394 1_455
As0 O5 1.718920 1_555
As0 O10 1.718920 1_555
As0 O6 1.718920 1_555
As0 O11 1.718920 1_555
As1 O21 1.719516 1_555
As1 O25 1.719516 1_555
As1 O20 1.719516 1_555
As1 O26 1.719524 1_555
C0 O2 1.289445 1_555
C0 O4 1.300625 1_555
C0 O0 1.301295 1_555
C1 O7 1.284540 1_555
C1 O1 1.298683 1_655
C1 O3 1.307879 1_565
C2 O9 1.284540 1_556
C2 O18 1.298682 1_565
C2 O14 1.307885 1_655
C3 O8 1.284540 1_655
C3 O19 1.298686 1_555
C3 O15 1.307886 1_556
C4 O17 1.289445 1_555
C4 O12 1.300625 1_555
C4 O22 1.301295 1_555
C5 O16 1.289445 1_555
C5 O13 1.300625 1_555
C5 O23 1.301295 1_555
C6 O28 1.289445 1_555
C6 O30 1.300625 1_555
C6 O24 1.301295 1_555
C7 O31 1.284540 1_565
C7 O27 1.298676 1_556
C7 O29 1.307889 1_555
