# generated using pymatgen
data_LiV4OF11
_symmetry_space_group_name_H-M   'P 1'
_cell_length_a   5.28187000
_cell_length_b   5.49902200
_cell_length_c   17.41704118
_cell_angle_alpha   84.03763284
_cell_angle_beta   81.53415363
_cell_angle_gamma   61.33332102
_symmetry_Int_Tables_number   1
_chemical_formula_structural   LiV4OF11
_chemical_formula_sum   'Li2 V8 O2 F22'
_cell_volume   438.71305087
_cell_formula_units_Z   2
loop_
 _symmetry_equiv_pos_site_id
 _symmetry_equiv_pos_as_xyz
  1  'x, y, z'
loop_
 _atom_site_type_symbol
 _atom_site_label
 _atom_site_symmetry_multiplicity
 _atom_site_fract_x
 _atom_site_fract_y
 _atom_site_fract_z
 _atom_site_occupancy
  Li  Li0  1  0.87495300  0.03848200  0.68035100  1
  Li  Li1  1  0.12504700  0.96151800  0.31964900  1
  V  V0  1  0.73324100  0.77074600  0.25158200  1
  V  V1  1  0.12636200  0.13082500  0.12470000  1
  V  V2  1  0.61900000  0.65005900  0.62845200  1
  V  V3  1  0.38100000  0.34994100  0.37154800  1
  V  V4  1  0.00000000  0.00000000  0.50000000  1
  V  V5  1  0.87363800  0.86917500  0.87530000  1
  V  V6  1  0.26675900  0.22925400  0.74841800  1
  V  V7  1  0.50000000  0.50000000  0.00000000  1
  O  O0  1  0.44500300  0.05936500  0.31171200  1
  O  O1  1  0.55499700  0.94063500  0.68828800  1
  F  F0  1  0.51635300  0.91714700  0.15814400  1
  F  F1  1  0.03701100  0.44267100  0.18779000  1
  F  F2  1  0.78154800  0.79324800  0.53341600  1
  F  F3  1  0.97692600  0.59932800  0.33754400  1
  F  F4  1  0.48364700  0.08285300  0.84185600  1
  F  F5  1  0.02307400  0.40067200  0.66245600  1
  F  F6  1  0.21845200  0.20675200  0.46658400  1
  F  F7  1  0.71320400  0.70624800  0.96565300  1
  F  F8  1  0.97646200  0.97512800  0.22050600  1
  F  F9  1  0.96298900  0.55732900  0.81221000  1
  F  F10  1  0.28287100  0.69373100  0.43391400  1
  F  F11  1  0.02353800  0.02487200  0.77949400  1
  F  F12  1  0.50111400  0.56058500  0.28744400  1
  F  F13  1  0.20270900  0.84578600  0.59706200  1
  F  F14  1  0.28679600  0.29375200  0.03434700  1
  F  F15  1  0.26446700  0.66360400  0.91088200  1
  F  F16  1  0.79729100  0.15421400  0.40293800  1
  F  F17  1  0.49888600  0.43941500  0.71255600  1
  F  F18  1  0.20720800  0.81722700  0.06430700  1
  F  F19  1  0.71712900  0.30626900  0.56608600  1
  F  F20  1  0.79279200  0.18277300  0.93569300  1
  F  F21  1  0.73553300  0.33639600  0.08911800  1
loop_
_geom_bond_atom_site_label_1
_geom_bond_atom_site_label_2
_geom_bond_distance
_geom_bond_site_symmetry_2
Li0 O1 1.988160 1_545
Li1 O0 1.988160 1_565
O0 V3 1.864830 1_555
O0 V0 1.868469 1_545
O1 V2 1.864830 1_555
O1 V6 1.868469 1_565
F0 V1 1.962647 1_565
F0 V0 2.000211 1_555
F1 V1 1.957855 1_555
F1 V0 2.043996 1_455
F2 V4 1.971319 1_665
F2 V2 2.014039 1_555
F3 V0 1.974080 1_555
F3 V3 2.044956 1_655
F3 Li1 2.443416 1_655
F4 V5 1.962647 1_545
F4 V6 2.000211 1_555
F5 V6 1.974080 1_555
F5 V2 2.044956 1_455
F5 Li0 2.443416 1_455
F6 V4 1.971319 1_555
F6 V3 2.014039 1_555
F7 V7 1.948948 1_556
F7 V5 2.010002 1_555
F8 Li1 1.979672 1_655
F8 V1 2.027043 1_665
F8 V0 2.064123 1_555
F9 V5 1.957855 1_555
F9 V6 2.043996 1_655
F10 V4 1.968698 1_565
F10 V3 2.084061 1_555
F10 Li1 2.350741 1_555
F11 Li0 1.979672 1_455
F11 V5 2.027043 1_445
F11 V6 2.064123 1_555
F12 V3 1.992216 1_555
F12 V0 2.052551 1_555
F12 Li1 2.201870 1_555
F13 Li0 2.010990 1_465
F13 V4 2.021730 1_565
F13 V2 2.062326 1_555
F14 V7 1.948948 1_555
F14 V1 2.010002 1_555
F15 V5 1.978781 1_455
F15 V7 1.992720 1_556
F16 Li1 2.010990 1_645
F16 V4 2.021730 1_655
F16 V3 2.062326 1_555
F17 V2 1.992216 1_555
F17 V6 2.052551 1_555
F17 Li0 2.201870 1_555
F18 V1 1.949537 1_565
F18 V7 1.999196 1_555
F19 V4 1.968698 1_655
F19 V2 2.084061 1_555
F19 Li0 2.350741 1_555
F20 V5 1.949537 1_545
F20 V7 1.999196 1_556
F21 V1 1.978781 1_655
F21 V7 1.992720 1_555
