# generated using pymatgen
data_Li4V3Co2Sn3O16
_symmetry_space_group_name_H-M   'P 1'
_cell_length_a   6.09065100
_cell_length_b   6.13486816
_cell_length_c   9.83687968
_cell_angle_alpha   90.05294054
_cell_angle_beta   90.24980576
_cell_angle_gamma   119.48819046
_symmetry_Int_Tables_number   1
_chemical_formula_structural   Li4V3Co2Sn3O16
_chemical_formula_sum   'Li4 V3 Co2 Sn3 O16'
_cell_volume   319.93878252
_cell_formula_units_Z   1
loop_
 _symmetry_equiv_pos_site_id
 _symmetry_equiv_pos_as_xyz
  1  'x, y, z'
loop_
 _atom_site_type_symbol
 _atom_site_label
 _atom_site_symmetry_multiplicity
 _atom_site_fract_x
 _atom_site_fract_y
 _atom_site_fract_z
 _atom_site_occupancy
  Li  Li0  1  0.63320200  0.31964000  0.89223200  1
  Li  Li1  1  0.03829200  0.01669900  0.99258400  1
  Li  Li2  1  0.00764600  0.99812900  0.50059700  1
  Li  Li3  1  0.32607800  0.65759000  0.39632200  1
  V  V0  1  0.34269200  0.16656500  0.21790000  1
  V  V1  1  0.12711000  0.77520600  0.73449800  1
  V  V2  1  0.18936100  0.32282400  0.69946600  1
  Co  Co0  1  0.67991600  0.35076500  0.49514000  1
  Co  Co1  1  0.34220100  0.66993500  0.99604600  1
  Sn  Sn0  1  0.83687400  0.17022900  0.21267900  1
  Sn  Sn1  1  0.83406200  0.66322200  0.21317500  1
  Sn  Sn2  1  0.65436500  0.84284200  0.71493400  1
  O  O0  1  0.85401400  0.17279500  0.60163900  1
  O  O1  1  0.96877300  0.47828700  0.33836400  1
  O  O2  1  0.65843400  0.32925600  0.09879700  1
  O  O3  1  0.01274800  0.00425500  0.31801000  1
  O  O4  1  0.01200900  0.00510200  0.80910900  1
  O  O5  1  0.84826100  0.69011100  0.60384200  1
  O  O6  1  0.50020700  0.03334100  0.32915000  1
  O  O7  1  0.51473100  0.47924000  0.33392900  1
  O  O8  1  0.69936400  0.85344200  0.09172400  1
  O  O9  1  0.32950300  0.19172000  0.59808600  1
  O  O10  1  0.46174100  0.51342400  0.83309300  1
  O  O11  1  0.45372800  0.96305500  0.83254900  1
  O  O12  1  0.30694400  0.65878100  0.60807000  1
  O  O13  1  0.18576300  0.31768300  0.10753200  1
  O  O14  1  0.00806200  0.50784700  0.83411000  1
  O  O15  1  0.17392000  0.84771600  0.10426800  1
loop_
_geom_bond_atom_site_label_1
_geom_bond_atom_site_label_2
_geom_bond_distance
_geom_bond_site_symmetry_2
Li0 O11 1.990730 1_545
Li0 O10 2.015089 1_555
Li0 O2 2.035699 1_556
Li0 O14 2.071256 1_655
Li1 O4 1.809447 1_555
Li1 O15 1.949705 1_546
Li1 O13 1.961977 1_556
Li1 O8 2.049247 1_446
Li2 O3 1.796598 1_565
Li2 O5 1.936702 1_455
Li2 O9 1.965316 1_565
Li2 O0 2.001242 1_465
Li3 O1 1.975421 1_455
Li3 O7 2.033893 1_555
Li3 O12 2.086911 1_555
Li3 O6 2.115969 1_565
Co0 O5 2.100859 1_555
Co0 O9 2.122044 1_555
Co0 O0 2.132175 1_555
Co0 O1 2.180935 1_555
Co0 O7 2.217499 1_555
Co0 O6 2.352970 1_555
Co1 O8 2.110584 1_556
Co1 O15 2.116895 1_556
Co1 O10 2.171876 1_555
Co1 O13 2.183332 1_556
Co1 O11 2.257004 1_555
Co1 O14 2.375816 1_555
O0 V2 2.018761 1_655
O0 Sn2 2.100207 1_545
O1 Sn0 2.058630 1_555
O1 Sn1 2.094544 1_555
O2 V0 2.049202 1_555
O2 Sn0 2.103139 1_555
O2 Sn1 2.106061 1_555
O3 V0 2.012151 1_555
O3 Sn0 2.079389 1_455
O3 Sn1 2.090396 1_445
O4 V1 1.998817 1_545
O4 V2 2.017572 1_555
O4 Sn2 2.107131 1_445
O5 V1 1.978815 1_655
O5 Sn2 2.136710 1_555
O6 V0 1.884260 1_555
O6 Sn0 2.132957 1_555
O7 V0 2.021623 1_555
O7 Sn1 2.080656 1_555
O8 Sn0 2.068503 1_565
O8 Sn1 2.097320 1_555
O9 V2 1.746943 1_555
O9 V1 2.601780 1_545
O10 V2 1.978810 1_555
O10 Sn2 2.119813 1_555
O11 V1 1.984942 1_555
O11 Sn2 2.067308 1_555
O12 V1 2.009219 1_555
O12 V2 2.031011 1_555
O12 Sn2 2.117483 1_555
O13 V0 1.953694 1_555
O13 Sn0 2.128860 1_455
O14 V1 1.736235 1_555
O14 V2 2.346471 1_555
O15 V0 2.034403 1_565
O15 Sn1 2.104409 1_455
