# generated using pymatgen
data_LiFeSiO4
_symmetry_space_group_name_H-M   'P 1'
_cell_length_a   7.49943009
_cell_length_b   7.49943009
_cell_length_c   9.62240700
_cell_angle_alpha   90.00000000
_cell_angle_beta   90.00000000
_cell_angle_gamma   120.00000081
_symmetry_Int_Tables_number   1
_chemical_formula_structural   LiFeSiO4
_chemical_formula_sum   'Li6 Fe6 Si6 O24'
_cell_volume   468.67401214
_cell_formula_units_Z   6
loop_
 _symmetry_equiv_pos_site_id
 _symmetry_equiv_pos_as_xyz
  1  'x, y, z'
loop_
 _atom_site_type_symbol
 _atom_site_label
 _atom_site_symmetry_multiplicity
 _atom_site_fract_x
 _atom_site_fract_y
 _atom_site_fract_z
 _atom_site_occupancy
  Li  Li0  1  0.20478000  0.94729000  0.25213600  1
  Li  Li1  1  0.05271000  0.25749000  0.25213600  1
  Li  Li2  1  0.25749000  0.05271000  0.75213600  1
  Li  Li3  1  0.74251000  0.79522000  0.25213600  1
  Li  Li4  1  0.79522000  0.74251000  0.75213600  1
  Li  Li5  1  0.94729000  0.20478000  0.75213600  1
  Fe  Fe0  1  0.05944500  0.60115700  0.47225400  1
  Fe  Fe1  1  0.54171200  0.94055500  0.47225400  1
  Fe  Fe2  1  0.39884300  0.45828800  0.47225400  1
  Fe  Fe3  1  0.45828800  0.39884300  0.97225400  1
  Fe  Fe4  1  0.60115700  0.05944500  0.97225400  1
  Fe  Fe5  1  0.94055500  0.54171200  0.97225400  1
  Si  Si0  1  0.33333300  0.66666700  0.16935800  1
  Si  Si1  1  0.00000000  0.00000000  0.00639800  1
  Si  Si2  1  0.00000000  0.00000000  0.50639800  1
  Si  Si3  1  0.33333300  0.66666700  0.77702100  1
  Si  Si4  1  0.66666700  0.33333300  0.66935800  1
  Si  Si5  1  0.66666700  0.33333300  0.27702100  1
  O  O0  1  0.10954000  0.87158500  0.44202900  1
  O  O1  1  0.13791600  0.68873900  0.11697400  1
  O  O2  1  0.40571300  0.90064500  0.82942700  1
  O  O3  1  0.09935500  0.50506900  0.82942700  1
  O  O4  1  0.31126100  0.44917700  0.11697400  1
  O  O5  1  0.33333300  0.66666700  0.34545900  1
  O  O6  1  0.00000000  0.00000000  0.17349100  1
  O  O7  1  0.00000000  0.00000000  0.67349100  1
  O  O8  1  0.33333300  0.66666700  0.59950200  1
  O  O9  1  0.12841500  0.23795500  0.44202900  1
  O  O10  1  0.55082300  0.86208400  0.11697400  1
  O  O11  1  0.23795500  0.12841500  0.94202900  1
  O  O12  1  0.49493100  0.59428700  0.82942700  1
  O  O13  1  0.76204500  0.89046000  0.44202900  1
  O  O14  1  0.44917700  0.31126100  0.61697400  1
  O  O15  1  0.50506900  0.09935500  0.32942700  1
  O  O16  1  0.59428700  0.49493100  0.32942700  1
  O  O17  1  0.86208400  0.55082300  0.61697400  1
  O  O18  1  0.66666700  0.33333300  0.84545900  1
  O  O19  1  0.66666700  0.33333300  0.09950200  1
  O  O20  1  0.89046000  0.76204500  0.94202900  1
  O  O21  1  0.68873900  0.13791600  0.61697400  1
  O  O22  1  0.90064500  0.40571300  0.32942700  1
  O  O23  1  0.87158500  0.10954000  0.94202900  1
loop_
_geom_bond_atom_site_label_1
_geom_bond_atom_site_label_2
_geom_bond_distance
_geom_bond_site_symmetry_2
Li0 O6 1.922103 1_565
Li0 O0 1.940550 1_555
Li0 O15 2.087331 1_565
Li0 O1 2.174934 1_555
Li1 O6 1.922103 1_555
Li1 O9 1.940550 1_555
Li1 O22 2.087325 1_455
Li1 O4 2.174934 1_555
Li2 O7 1.922103 1_555
Li2 O11 1.940550 1_555
Li2 O2 2.087325 1_545
Li2 O14 2.174934 1_555
Li3 O6 1.922103 1_665
Li3 O13 1.940550 1_555
Li3 O16 2.087331 1_555
Li3 O10 2.174934 1_555
Li4 O7 1.922103 1_665
Li4 O20 1.940550 1_555
Li4 O12 2.087331 1_555
Li4 O17 2.174934 1_555
Li5 O7 1.922103 1_655
Li5 O23 1.940550 1_555
Li5 O3 2.087331 1_655
Li5 O21 2.174934 1_555
Fe0 O0 1.891250 1_555
Fe0 O22 1.926102 1_455
Fe0 O17 1.927090 1_455
Fe0 O5 2.222559 1_555
Fe0 O8 2.224955 1_555
Fe1 O13 1.891250 1_555
Fe1 O15 1.926098 1_565
Fe1 O21 1.927090 1_565
Fe1 O5 2.222560 1_555
Fe1 O8 2.224956 1_555
Fe2 O9 1.891250 1_555
Fe2 O16 1.926103 1_555
Fe2 O14 1.927090 1_555
Fe2 O5 2.222565 1_555
Fe2 O8 2.224961 1_555
Fe3 O11 1.891250 1_555
Fe3 O12 1.926103 1_555
Fe3 O4 1.927090 1_556
Fe3 O18 2.222565 1_555
Fe3 O19 2.224961 1_556
Fe4 O23 1.891250 1_555
Fe4 O2 1.926102 1_545
Fe4 O10 1.927090 1_546
Fe4 O18 2.222559 1_555
Fe4 O19 2.224955 1_556
Fe5 O20 1.891250 1_555
Fe5 O3 1.926098 1_655
Fe5 O1 1.927090 1_656
Fe5 O18 2.222560 1_555
Fe5 O19 2.224956 1_556
O0 Si2 1.666448 1_565
O1 Si0 1.634563 1_555
O2 Si3 1.635678 1_555
O3 Si3 1.635678 1_555
O4 Si0 1.634570 1_555
O5 Si0 1.694515 1_555
O6 Si1 1.607837 1_555
O7 Si2 1.607837 1_555
O8 Si3 1.708160 1_555
O9 Si2 1.666448 1_555
O10 Si0 1.634567 1_555
O11 Si1 1.666448 1_556
O12 Si3 1.635678 1_555
O13 Si2 1.666448 1_665
O14 Si4 1.634570 1_555
O15 Si5 1.635678 1_555
O16 Si5 1.635678 1_555
O17 Si4 1.634567 1_555
O18 Si4 1.694515 1_555
O19 Si5 1.708160 1_555
O20 Si1 1.666448 1_666
O21 Si4 1.634563 1_555
O22 Si5 1.635678 1_555
O23 Si1 1.666448 1_656
