# generated using pymatgen
data_Li3Ni(BO3)2
_symmetry_space_group_name_H-M   'P 1'
_cell_length_a   8.82893500
_cell_length_b   5.24363000
_cell_length_c   10.49582548
_cell_angle_alpha   62.40330985
_cell_angle_beta   90.00000000
_cell_angle_gamma   90.00000000
_symmetry_Int_Tables_number   1
_chemical_formula_structural   Li3Ni(BO3)2
_chemical_formula_sum   'Li12 Ni4 B8 O24'
_cell_volume   430.62929869
_cell_formula_units_Z   4
loop_
 _symmetry_equiv_pos_site_id
 _symmetry_equiv_pos_as_xyz
  1  'x, y, z'
loop_
 _atom_site_type_symbol
 _atom_site_label
 _atom_site_symmetry_multiplicity
 _atom_site_fract_x
 _atom_site_fract_y
 _atom_site_fract_z
 _atom_site_occupancy
  Li  Li0  1  0.97879100  0.50388000  0.34103300  1
  Li  Li1  1  0.65974600  0.45576700  0.37669500  1
  Li  Li2  1  0.99138500  0.93279400  0.88984800  1
  Li  Li3  1  0.15974600  0.54423300  0.12330500  1
  Li  Li4  1  0.49138500  0.06720600  0.61015200  1
  Li  Li5  1  0.47879100  0.49612000  0.15896700  1
  Li  Li6  1  0.52120900  0.50388000  0.84103300  1
  Li  Li7  1  0.50861500  0.93279400  0.38984800  1
  Li  Li8  1  0.84025400  0.45576700  0.87669500  1
  Li  Li9  1  0.00861500  0.06720600  0.11015200  1
  Li  Li10  1  0.34025400  0.54423300  0.62330500  1
  Li  Li11  1  0.02120900  0.49612000  0.65896700  1
  Ni  Ni0  1  0.31105900  0.98220200  0.87498600  1
  Ni  Ni1  1  0.81105900  0.01779800  0.62501400  1
  Ni  Ni2  1  0.18894100  0.98220200  0.37498600  1
  Ni  Ni3  1  0.68894100  0.01779800  0.12501400  1
  B  B0  1  0.31874200  0.44557500  0.37983500  1
  B  B1  1  0.65688900  0.96747200  0.86926200  1
  B  B2  1  0.81874200  0.55442500  0.12016500  1
  B  B3  1  0.15688900  0.03252800  0.63073800  1
  B  B4  1  0.84311100  0.96747200  0.36926200  1
  B  B5  1  0.18125800  0.44557500  0.87983500  1
  B  B6  1  0.34311100  0.03252800  0.13073800  1
  B  B7  1  0.68125800  0.55442500  0.62016500  1
  O  O0  1  0.32613800  0.83087800  0.07857600  1
  O  O1  1  0.67345400  0.32109200  0.59297800  1
  O  O2  1  0.94844800  0.69971000  0.11637900  1
  O  O3  1  0.02219800  0.13932200  0.64516600  1
  O  O4  1  0.28967100  0.12323300  0.67327800  1
  O  O5  1  0.67797100  0.63200900  0.15123500  1
  O  O6  1  0.17797100  0.36799100  0.34876500  1
  O  O7  1  0.78967100  0.87676700  0.82672200  1
  O  O8  1  0.52219800  0.86067800  0.85483400  1
  O  O9  1  0.44844800  0.30029000  0.38362100  1
  O  O10  1  0.82613800  0.16912200  0.42142400  1
  O  O11  1  0.17345400  0.67890800  0.90702200  1
  O  O12  1  0.82654600  0.32109200  0.09297800  1
  O  O13  1  0.17386200  0.83087800  0.57857600  1
  O  O14  1  0.55155200  0.69971000  0.61637900  1
  O  O15  1  0.47780200  0.13932200  0.14516600  1
  O  O16  1  0.21032900  0.12323300  0.17327800  1
  O  O17  1  0.82202900  0.63200900  0.65123500  1
  O  O18  1  0.32202900  0.36799100  0.84876500  1
  O  O19  1  0.71032900  0.87676700  0.32672200  1
  O  O20  1  0.97780200  0.86067800  0.35483400  1
  O  O21  1  0.05155200  0.30029000  0.88362100  1
  O  O22  1  0.32654600  0.67890800  0.40702200  1
  O  O23  1  0.67386200  0.16912200  0.92142400  1
loop_
_geom_bond_atom_site_label_1
_geom_bond_atom_site_label_2
_geom_bond_distance
_geom_bond_site_symmetry_2
Li0 O6 1.885001 1_655
Li0 O20 1.942286 1_555
Li0 O10 2.058501 1_555
Li0 O2 2.107787 1_555
Li1 O10 1.995989 1_555
Li1 O9 2.023674 1_555
Li1 O1 2.044825 1_555
Li1 O19 2.067642 1_555
Li1 O5 2.110356 1_555
Li2 O7 1.969089 1_555
Li2 O21 1.970571 1_665
Li2 O11 2.041190 1_655
Li2 O2 2.144361 1_556
Li2 O3 2.294647 1_665
Li3 O0 1.995989 1_555
Li3 O2 2.023674 1_455
Li3 O11 2.044825 1_554
Li3 O16 2.067642 1_555
Li3 O6 2.110356 1_555
Li4 O4 1.969089 1_555
Li4 O14 1.970571 1_545
Li4 O1 2.041190 1_555
Li4 O9 2.144361 1_555
Li4 O8 2.294647 1_545
Li5 O5 1.885001 1_555
Li5 O15 1.942286 1_555
Li5 O0 2.058501 1_555
Li5 O9 2.107787 1_555
Li6 O18 1.885001 1_555
Li6 O8 1.942286 1_555
Li6 O23 2.058501 1_555
Li6 O14 2.107787 1_555
Li7 O19 1.969089 1_555
Li7 O9 1.970571 1_565
Li7 O22 2.041190 1_555
Li7 O14 2.144361 1_555
Li7 O15 2.294647 1_565
Li8 O23 1.995989 1_555
Li8 O21 2.023674 1_655
Li8 O12 2.044825 1_556
Li8 O7 2.067642 1_555
Li8 O17 2.110356 1_555
Li9 O16 1.969089 1_555
Li9 O2 1.970571 1_445
Li9 O12 2.041190 1_455
Li9 O21 2.144361 1_554
Li9 O20 2.294647 1_445
Li10 O13 1.995989 1_555
Li10 O14 2.023674 1_555
Li10 O22 2.044825 1_555
Li10 O4 2.067642 1_555
Li10 O18 2.110356 1_555
Li11 O17 1.885001 1_455
Li11 O3 1.942286 1_555
Li11 O13 2.058501 1_555
Li11 O21 2.107787 1_555
Ni0 O4 1.901075 1_565
Ni0 O11 1.903383 1_555
Ni0 O0 1.908543 1_556
Ni0 O18 1.913525 1_565
Ni0 O8 2.012625 1_555
Ni1 O7 1.901075 1_545
Ni1 O1 1.903383 1_555
Ni1 O10 1.908543 1_555
Ni1 O17 1.913525 1_545
Ni1 O3 2.012625 1_655
Ni2 O16 1.901075 1_565
Ni2 O22 1.903383 1_555
Ni2 O13 1.908543 1_555
Ni2 O6 1.913525 1_565
Ni2 O20 2.012625 1_455
Ni3 O19 1.901075 1_545
Ni3 O12 1.903383 1_555
Ni3 O23 1.908543 1_554
Ni3 O5 1.913525 1_545
Ni3 O15 2.012625 1_555
B0 O9 1.365763 1_555
B0 O22 1.380803 1_555
B0 O6 1.392645 1_555
B1 O8 1.352491 1_555
B1 O23 1.405910 1_565
B1 O7 1.413035 1_555
B2 O2 1.365763 1_555
B2 O12 1.380803 1_555
B2 O5 1.392645 1_555
B3 O3 1.352491 1_555
B3 O13 1.405910 1_545
B3 O4 1.413035 1_555
B4 O20 1.352491 1_555
B4 O10 1.405910 1_565
B4 O19 1.413035 1_555
B5 O21 1.365763 1_555
B5 O11 1.380803 1_555
B5 O18 1.392645 1_555
B6 O15 1.352491 1_555
B6 O0 1.405910 1_545
B6 O16 1.413035 1_555
B7 O14 1.365763 1_555
B7 O1 1.380803 1_555
B7 O17 1.392645 1_555
