# generated using pymatgen
data_Li3V2(O2F)2
_symmetry_space_group_name_H-M   'P 1'
_cell_length_a   5.22280400
_cell_length_b   5.97124663
_cell_length_c   14.94223032
_cell_angle_alpha   91.13006031
_cell_angle_beta   90.73031306
_cell_angle_gamma   91.72646160
_symmetry_Int_Tables_number   1
_chemical_formula_structural   Li3V2(O2F)2
_chemical_formula_sum   'Li12 V8 O16 F8'
_cell_volume   465.65449261
_cell_formula_units_Z   4
loop_
 _symmetry_equiv_pos_site_id
 _symmetry_equiv_pos_as_xyz
  1  'x, y, z'
loop_
 _atom_site_type_symbol
 _atom_site_label
 _atom_site_symmetry_multiplicity
 _atom_site_fract_x
 _atom_site_fract_y
 _atom_site_fract_z
 _atom_site_occupancy
  Li  Li0  1  0.70945200  0.99217600  0.83748400  1
  Li  Li1  1  0.66283900  0.00244200  0.33327300  1
  Li  Li2  1  0.33136300  0.99822500  0.70709000  1
  Li  Li3  1  0.15915500  0.74327900  0.33383100  1
  Li  Li4  1  0.15380400  0.77261400  0.83720500  1
  Li  Li5  1  0.52694100  0.75868700  0.97437900  1
  Li  Li6  1  0.69087100  0.51023200  0.82112200  1
  Li  Li7  1  0.99229800  0.47934400  0.96084300  1
  Li  Li8  1  0.32319800  0.50399600  0.70219100  1
  Li  Li9  1  0.15377500  0.25906300  0.33452900  1
  Li  Li10  1  0.45773600  0.24455200  0.95543800  1
  Li  Li11  1  0.86290300  0.24399400  0.70150800  1
  V  V0  1  0.99675600  0.99948500  0.50445000  1
  V  V1  1  0.32946200  0.99985100  0.16281500  1
  V  V2  1  0.49647100  0.75057000  0.49627300  1
  V  V3  1  0.82554400  0.74499500  0.17082400  1
  V  V4  1  0.99924800  0.50142300  0.49960800  1
  V  V5  1  0.33856400  0.50083900  0.17289000  1
  V  V6  1  0.50449400  0.25040000  0.49656900  1
  V  V7  1  0.83600400  0.24727300  0.16687800  1
  O  O0  1  0.66818400  0.00974600  0.56340600  1
  O  O1  1  0.65651600  0.98537000  0.10185700  1
  O  O2  1  0.99595700  0.99136800  0.24223200  1
  O  O3  1  0.33369600  0.01009600  0.42329200  1
  O  O4  1  0.17304100  0.75456100  0.56562100  1
  O  O5  1  0.16564300  0.75618100  0.10689000  1
  O  O6  1  0.50451800  0.76690000  0.24221700  1
  O  O7  1  0.84652500  0.77083900  0.42754900  1
  O  O8  1  0.65467000  0.48551500  0.56035800  1
  O  O9  1  0.68038600  0.51462200  0.10187700  1
  O  O10  1  0.00553900  0.50228300  0.24249200  1
  O  O11  1  0.31705200  0.49436400  0.42502000  1
  O  O12  1  0.17208900  0.23665500  0.56537200  1
  O  O13  1  0.16844000  0.24900500  0.10287600  1
  O  O14  1  0.49089900  0.23360500  0.23879200  1
  O  O15  1  0.83213400  0.23550300  0.42728200  1
  F  F0  1  0.00210800  0.99742600  0.75158700  1
  F  F1  1  0.36526000  0.97449600  0.91276100  1
  F  F2  1  0.48045900  0.74880800  0.75929100  1
  F  F3  1  0.83422400  0.73163300  0.90985600  1
  F  F4  1  0.00257300  0.50511100  0.74921200  1
  F  F5  1  0.32753800  0.51622700  0.93134400  1
  F  F6  1  0.52359400  0.25994500  0.73699800  1
  F  F7  1  0.78141200  0.26630400  0.90928400  1
loop_
_geom_bond_atom_site_label_1
_geom_bond_atom_site_label_2
_geom_bond_distance
_geom_bond_site_symmetry_2
Li1 O6 2.082992 1_545
Li1 O15 2.123396 1_555
Li1 O14 2.196367 1_555
Li1 O3 2.197209 1_555
Li1 O7 2.222542 1_545
Li1 O2 2.223870 1_545
Li3 O10 2.098166 1_555
Li3 O7 2.172446 1_455
Li3 O11 2.207021 1_555
Li3 O2 2.218263 1_455
Li3 O3 2.225689 1_565
Li3 O6 2.280926 1_555
Li5 O1 2.393469 1_556
Li9 O11 2.086407 1_555
Li9 O10 2.172400 1_555
Li9 O15 2.194395 1_455
Li9 O2 2.222873 1_445
Li9 O3 2.232135 1_555
Li9 O14 2.289421 1_555
O0 V0 1.940987 1_545
O0 V6 1.975381 1_555
O0 V2 2.009432 1_545
O1 V1 1.949440 1_555
O1 V3 2.003250 1_555
O1 V7 2.024095 1_565
O2 V3 1.982400 1_555
O2 V7 2.102733 1_565
O2 V1 2.120016 1_655
O3 V6 1.972202 1_555
O3 V2 2.106155 1_545
O3 V0 2.149912 1_445
O4 V4 1.979222 1_455
O4 V0 1.983549 1_455
O4 V2 1.993443 1_555
O5 V1 1.845592 1_555
O5 V3 2.027524 1_455
O5 V5 2.057312 1_555
O6 V3 2.004891 1_555
O6 V5 2.043912 1_555
O6 V1 2.071844 1_555
O7 V0 1.910665 1_555
O7 V2 2.109769 1_555
O7 V4 2.123061 1_555
O8 V6 1.832078 1_555
O8 V4 2.026462 1_555
O8 V2 2.054993 1_555
O9 V3 1.841137 1_555
O9 V7 2.066800 1_555
O9 V5 2.088722 1_555
O10 V5 2.038040 1_555
O10 V7 2.050525 1_455
O10 V3 2.061221 1_455
O11 V4 2.012079 1_455
O11 V2 2.043546 1_555
O11 V6 2.084281 1_555
O12 V0 1.876861 1_445
O12 V6 2.029261 1_555
O12 V4 2.098743 1_455
O13 V1 1.957441 1_545
O13 V7 1.992705 1_455
O13 V5 1.994739 1_555
O14 V1 1.946840 1_545
O14 V5 2.065796 1_555
O14 V7 2.110451 1_555
O15 V6 2.014614 1_555
O15 V0 2.041278 1_545
O15 V4 2.067807 1_555
F0 Li11 1.830393 1_465
F0 Li2 1.851490 1_555
F0 Li0 2.008311 1_455
F0 Li4 2.042651 1_555
F1 Li10 1.773405 1_565
F1 Li5 1.820420 1_555
F1 Li4 1.944680 1_555
F1 Li0 2.133697 1_555
F2 Li8 1.843938 1_555
F2 Li2 1.879653 1_555
F2 Li6 2.052094 1_555
F2 Li4 2.084450 1_555
F2 Li0 2.167946 1_555
F3 Li5 1.892136 1_555
F3 Li7 1.906748 1_555
F3 Li6 1.977935 1_555
F3 Li4 2.014027 1_655
F3 Li0 2.030758 1_555
F4 Li8 1.824370 1_555
F4 Li11 1.829118 1_455
F4 Li6 1.962656 1_455
F4 Li4 2.172259 1_555
F5 Li10 1.818498 1_555
F5 Li7 1.818979 1_455
F5 Li5 1.857296 1_555
F5 Li4 2.298240 1_555
F5 Li6 2.529062 1_555
F6 Li11 1.860892 1_555
F6 Li2 1.875233 1_545
F6 Li8 1.896719 1_555
F6 Li6 2.096702 1_555
F6 Li0 2.429878 1_545
F7 Li7 1.811134 1_555
F7 Li10 1.835832 1_555
F7 Li0 1.963426 1_545
F7 Li6 2.044956 1_555
