# generated using pymatgen
data_K2UP2(H2O5)2
_symmetry_space_group_name_H-M   'P 1'
_cell_length_a   6.95730300
_cell_length_b   7.82665900
_cell_length_c   10.74040988
_cell_angle_alpha   68.85280368
_cell_angle_beta   90.00000000
_cell_angle_gamma   90.00000000
_symmetry_Int_Tables_number   1
_chemical_formula_structural   K2UP2(H2O5)2
_chemical_formula_sum   'K4 U2 P4 H8 O20'
_cell_volume   545.45633489
_cell_formula_units_Z   2
loop_
 _symmetry_equiv_pos_site_id
 _symmetry_equiv_pos_as_xyz
  1  'x, y, z'
loop_
 _atom_site_type_symbol
 _atom_site_label
 _atom_site_symmetry_multiplicity
 _atom_site_fract_x
 _atom_site_fract_y
 _atom_site_fract_z
 _atom_site_occupancy
  K  K0  1  0.28369600  0.98180600  0.40888800  1
  K  K1  1  0.78369600  0.01819400  0.59111200  1
  K  K2  1  0.51939000  0.65924700  0.91790300  1
  K  K3  1  0.01939000  0.34075300  0.08209700  1
  U  U0  1  0.24274300  0.17069300  0.76800500  1
  U  U1  1  0.74274300  0.82930700  0.23199500  1
  P  P0  1  0.73491400  0.14636400  0.88130800  1
  P  P1  1  0.23491400  0.85363600  0.11869200  1
  P  P2  1  0.46549500  0.42082900  0.44735100  1
  P  P3  1  0.96549500  0.57917100  0.55264900  1
  H  H0  1  0.71610800  0.33903600  0.82422900  1
  H  H1  1  0.21610800  0.66096400  0.17577100  1
  H  H2  1  0.27160600  0.43830000  0.40295800  1
  H  H3  1  0.77160600  0.56170000  0.59704200  1
  H  H4  1  0.96186100  0.38574500  0.37114800  1
  H  H5  1  0.46186100  0.61425500  0.62885200  1
  H  H6  1  0.01117300  0.70156800  0.78994100  1
  H  H7  1  0.51117300  0.29843200  0.21005900  1
  O  O0  1  0.25840400  0.31746100  0.86754500  1
  O  O1  1  0.75840400  0.68253900  0.13245500  1
  O  O2  1  0.22619500  0.02771000  0.66725800  1
  O  O3  1  0.72619500  0.97229000  0.33274200  1
  O  O4  1  0.92256000  0.09522100  0.82799200  1
  O  O5  1  0.42256000  0.90477900  0.17200800  1
  O  O6  1  0.74061900  0.10010400  0.03291500  1
  O  O7  1  0.24061900  0.89989600  0.96708500  1
  O  O8  1  0.56472900  0.06294100  0.83112100  1
  O  O9  1  0.06472900  0.93705900  0.16887900  1
  O  O10  1  0.45643000  0.36411900  0.60120600  1
  O  O11  1  0.95643000  0.63588100  0.39879400  1
  O  O12  1  0.56433900  0.27824500  0.40235400  1
  O  O13  1  0.06433900  0.72175500  0.59764600  1
  O  O14  1  0.54875600  0.61578200  0.38655800  1
  O  O15  1  0.04875600  0.38421800  0.61344200  1
  O  O16  1  0.48244900  0.72866200  0.64683200  1
  O  O17  1  0.98244900  0.27133800  0.35316800  1
  O  O18  1  0.41293200  0.35128200  0.14053600  1
  O  O19  1  0.91293200  0.64871800  0.85946400  1
loop_
_geom_bond_atom_site_label_1
_geom_bond_atom_site_label_2
_geom_bond_distance
_geom_bond_site_symmetry_2
K0 O13 2.757626 1_555
K0 O2 2.951118 1_565
K0 O16 2.952174 1_555
K0 O5 2.979330 1_555
K0 O17 2.984522 1_465
K0 O12 3.013762 1_565
K0 O9 3.120878 1_555
K0 O3 3.193138 1_555
K1 O12 2.757626 1_555
K1 O3 2.951118 1_545
K1 O17 2.952174 1_555
K1 O4 2.979330 1_555
K1 O16 2.984522 1_545
K1 O13 3.013762 1_645
K1 O8 3.120878 1_555
K1 O2 3.193138 1_655
K2 O16 2.774216 1_555
K2 O18 2.813794 1_556
K2 O19 2.816853 1_555
K2 O7 2.882017 1_555
K2 O1 2.900293 1_556
K2 O8 2.970909 1_565
K3 O17 2.774216 1_455
K3 O19 2.813794 1_454
K3 O18 2.816853 1_555
K3 O6 2.882017 1_455
K3 O0 2.900293 1_554
K3 O9 2.970909 1_545
H0 P0 1.414184 1_555
H1 P1 1.414184 1_555
H2 P2 1.420790 1_555
H3 P3 1.420790 1_555
H4 O17 0.992149 1_555
H5 O16 0.992149 1_555
H6 O19 0.986393 1_455
H7 O18 0.986393 1_555
O0 U0 1.833156 1_555
O1 U1 1.833156 1_555
O2 U0 1.819387 1_555
O3 U1 1.819387 1_555
O4 P0 1.535538 1_555
O4 U0 2.334882 1_655
O5 P1 1.535538 1_555
O5 U1 2.334882 1_555
O6 P0 1.535811 1_554
O6 U1 2.407138 1_545
O7 P1 1.535811 1_556
O7 U0 2.407138 1_565
O8 P0 1.540365 1_555
O8 U0 2.403446 1_555
O9 P1 1.540365 1_555
O9 U1 2.403446 1_455
O10 P2 1.549974 1_555
O10 U0 2.398882 1_555
O11 P3 1.549974 1_555
O11 U1 2.398882 1_555
O12 P2 1.530026 1_555
O13 P3 1.530026 1_455
O14 P2 1.539871 1_555
O14 U1 2.316993 1_555
O15 P3 1.539871 1_455
O15 U0 2.316993 1_555
