# generated using pymatgen
data_NaCa3UH16C3SO25F
_symmetry_space_group_name_H-M   'P 1'
_cell_length_a   9.64256200
_cell_length_b   9.64824090
_cell_length_c   14.26183303
_cell_angle_alpha   87.92323133
_cell_angle_beta   86.47775427
_cell_angle_gamma   60.22917943
_symmetry_Int_Tables_number   1
_chemical_formula_structural   NaCa3UH16C3SO25F
_chemical_formula_sum   'Na2 Ca6 U2 H32 C6 S2 O50 F2'
_cell_volume   1149.51387346
_cell_formula_units_Z   2
loop_
 _symmetry_equiv_pos_site_id
 _symmetry_equiv_pos_as_xyz
  1  'x, y, z'
loop_
 _atom_site_type_symbol
 _atom_site_label
 _atom_site_symmetry_multiplicity
 _atom_site_fract_x
 _atom_site_fract_y
 _atom_site_fract_z
 _atom_site_occupancy
  Na  Na0  1  0.98097200  0.99959900  0.71253200  1
  Na  Na1  1  0.01902800  0.00040100  0.28746800  1
  Ca  Ca0  1  0.66222100  0.88833900  0.76905000  1
  Ca  Ca1  1  0.33777900  0.11166100  0.23095000  1
  Ca  Ca2  1  0.85534900  0.42666100  0.77301800  1
  Ca  Ca3  1  0.14465100  0.57333900  0.22698200  1
  Ca  Ca4  1  0.39690600  0.69343500  0.78114200  1
  Ca  Ca5  1  0.60309400  0.30656500  0.21885800  1
  U  U0  1  0.30025400  0.33581700  0.81832100  1
  U  U1  1  0.69974600  0.66418300  0.18167900  1
  H  H0  1  0.75045600  0.94952700  0.56665000  1
  H  H1  1  0.24954400  0.05047300  0.43335000  1
  H  H2  1  0.69222700  0.11217500  0.61213800  1
  H  H3  1  0.30777300  0.88782500  0.38786200  1
  H  H4  1  0.94307400  0.29674000  0.56694600  1
  H  H5  1  0.05692600  0.70326000  0.43305400  1
  H  H6  1  0.10206900  0.19274200  0.61323000  1
  H  H7  1  0.89793100  0.80725800  0.38677000  1
  H  H8  1  0.28536200  0.76114000  0.57208200  1
  H  H9  1  0.71463800  0.23886000  0.42791800  1
  H  H10  1  0.17817500  0.69931300  0.61635900  1
  H  H11  1  0.82182500  0.30068700  0.38364100  1
  H  H12  1  0.80346400  0.47772500  0.98447200  1
  H  H13  1  0.19653600  0.52227500  0.01552800  1
  H  H14  1  0.92647200  0.29350700  0.96768200  1
  H  H15  1  0.07352800  0.70649300  0.03231800  1
  H  H16  1  0.47057800  0.69120800  0.98097500  1
  H  H17  1  0.52942200  0.30879200  0.01902500  1
  H  H18  1  0.31706500  0.66919400  0.99606500  1
  H  H19  1  0.68293500  0.33080600  0.00393500  1
  H  H20  1  0.63065900  0.00538700  0.41277000  1
  H  H21  1  0.36934100  0.99461300  0.58723000  1
  H  H22  1  0.67884000  0.83274900  0.45455300  1
  H  H23  1  0.32116000  0.16725100  0.54544700  1
  H  H24  1  0.01360900  0.37372400  0.41291000  1
  H  H25  1  0.98639100  0.62627600  0.58709000  1
  H  H26  1  0.83579100  0.49098500  0.45209000  1
  H  H27  1  0.16420900  0.50901500  0.54791000  1
  H  H28  1  0.37765300  0.62338800  0.41251900  1
  H  H29  1  0.62234700  0.37661200  0.58748100  1
  H  H30  1  0.49151600  0.67800500  0.45517000  1
  H  H31  1  0.50848400  0.32199500  0.54483000  1
  C  C0  1  0.04182000  0.66336900  0.80946400  1
  C  C1  1  0.95818000  0.33663100  0.19053600  1
  C  C2  1  0.62971300  0.26436600  0.80183700  1
  C  C3  1  0.37028700  0.73563400  0.19816300  1
  C  C4  1  0.23323100  0.07784400  0.80598400  1
  C  C5  1  0.76676900  0.92215600  0.19401600  1
  S  S0  1  0.65369200  0.66853700  0.61132100  1
  S  S1  1  0.34630800  0.33146300  0.38867900  1
  O  O0  1  0.28736500  0.34282800  0.94861900  1
  O  O1  1  0.71263500  0.65717200  0.05138100  1
  O  O2  1  0.31127000  0.33564900  0.69068600  1
  O  O3  1  0.68873000  0.66435100  0.30931400  1
  O  O4  1  0.01791100  0.54044100  0.81335400  1
  O  O5  1  0.98208900  0.45955900  0.18664600  1
  O  O6  1  0.19228400  0.62426500  0.81486400  1
  O  O7  1  0.80771600  0.37573500  0.18513600  1
  O  O8  1  0.93051600  0.80644900  0.80115900  1
  O  O9  1  0.06948400  0.19355100  0.19884100  1
  O  O10  1  0.50834600  0.40977000  0.81078400  1
  O  O11  1  0.49165400  0.59023000  0.18921600  1
  O  O12  1  0.58875600  0.15300100  0.81266200  1
  O  O13  1  0.41124400  0.84699900  0.18733800  1
  O  O14  1  0.77184900  0.23315000  0.78343400  1
  O  O15  1  0.22815100  0.76685000  0.21656600  1
  O  O16  1  0.37908300  0.05416200  0.81024400  1
  O  O17  1  0.62091700  0.94583800  0.18975600  1
  O  O18  1  0.12133200  0.22812300  0.81619100  1
  O  O19  1  0.87866800  0.77187700  0.18380900  1
  O  O20  1  0.20248800  0.96778900  0.79209000  1
  O  O21  1  0.79751200  0.03221100  0.20791000  1
  O  O22  1  0.62959200  0.53527400  0.64999500  1
  O  O23  1  0.37040800  0.46472600  0.35000500  1
  O  O24  1  0.51779600  0.82334800  0.64786400  1
  O  O25  1  0.48220400  0.17665200  0.35213600  1
  O  O26  1  0.80536000  0.64866800  0.64782100  1
  O  O27  1  0.19464000  0.35133200  0.35217900  1
  O  O28  1  0.66221600  0.66776400  0.50720800  1
  O  O29  1  0.33778400  0.33223600  0.49279200  1
  O  O30  1  0.74434900  0.99547500  0.62843300  1
  O  O31  1  0.25565100  0.00452500  0.37156700  1
  O  O32  1  0.98482300  0.25383500  0.62939300  1
  O  O33  1  0.01517700  0.74616500  0.37060700  1
  O  O34  1  0.23463200  0.75707700  0.63361700  1
  O  O35  1  0.76536800  0.24292300  0.36638300  1
  O  O36  1  0.64419700  0.92781700  0.95057000  1
  O  O37  1  0.35580300  0.07218300  0.04943000  1
  O  O38  1  0.82701300  0.38373700  0.94691400  1
  O  O39  1  0.17298700  0.61626300  0.05308600  1
  O  O40  1  0.38136400  0.69563300  0.94959800  1
  O  O41  1  0.61863600  0.30436700  0.05040200  1
  O  O42  1  0.71493800  0.91244300  0.44577400  1
  O  O43  1  0.28506200  0.08755700  0.55422600  1
  O  O44  1  0.91757300  0.37729800  0.44436700  1
  O  O45  1  0.08242700  0.62270200  0.55563300  1
  O  O46  1  0.37840100  0.71125900  0.44564000  1
  O  O47  1  0.62159900  0.28874100  0.55436000  1
  O  O48  1  0.97102600  0.95839800  0.99065500  1
  O  O49  1  0.02897400  0.04160200  0.00934500  1
  F  F0  1  0.63851200  0.67101500  0.82246200  1
  F  F1  1  0.36148800  0.32898500  0.17753800  1
loop_
_geom_bond_atom_site_label_1
_geom_bond_atom_site_label_2
_geom_bond_distance
_geom_bond_site_symmetry_2
Na0 O20 2.359146 1_655
Na0 O14 2.359786 1_565
Na0 O8 2.441579 1_555
Na0 O34 2.625550 1_655
Na0 O30 2.660068 1_555
Na0 O32 2.701557 1_565
Na1 O21 2.359146 1_455
Na1 O15 2.359786 1_545
Na1 O9 2.441579 1_555
Na1 O35 2.625550 1_455
Na1 O31 2.660068 1_555
Na1 O33 2.701557 1_545
Ca0 F0 2.316884 1_555
Ca0 O8 2.369872 1_555
Ca0 O12 2.381972 1_565
Ca0 O16 2.427350 1_565
Ca0 O30 2.486968 1_555
Ca0 O24 2.561488 1_555
Ca0 O36 2.612978 1_555
Ca0 O26 2.658673 1_555
Ca1 F1 2.316884 1_555
Ca1 O9 2.369872 1_555
Ca1 O13 2.381972 1_545
Ca1 O17 2.427350 1_545
Ca1 O31 2.486968 1_555
Ca1 O25 2.561488 1_555
Ca1 O37 2.612978 1_555
Ca1 O27 2.658673 1_555
Ca2 F0 2.339082 1_555
Ca2 O14 2.369433 1_555
Ca2 O18 2.419945 1_655
Ca2 O4 2.420446 1_655
Ca2 O38 2.520240 1_555
Ca2 O32 2.529993 1_555
Ca2 O26 2.609942 1_555
Ca2 O22 2.643101 1_555
Ca3 F1 2.339082 1_555
Ca3 O15 2.369433 1_555
Ca3 O19 2.419945 1_455
Ca3 O5 2.420446 1_455
Ca3 O39 2.520240 1_555
Ca3 O33 2.529993 1_555
Ca3 O27 2.609942 1_555
Ca3 O23 2.643101 1_555
Ca4 F0 2.341062 1_555
Ca4 O20 2.368896 1_555
Ca4 O6 2.395310 1_555
Ca4 O40 2.398160 1_555
Ca4 O10 2.423896 1_555
Ca4 O34 2.570779 1_555
Ca4 O22 2.674374 1_555
Ca4 O24 2.747539 1_555
Ca5 F1 2.341062 1_555
Ca5 O21 2.368896 1_555
Ca5 O7 2.395310 1_555
Ca5 O41 2.398160 1_555
Ca5 O11 2.423896 1_555
Ca5 O35 2.570779 1_555
Ca5 O23 2.674374 1_555
Ca5 O25 2.747539 1_555
H0 O30 0.986111 1_555
H1 O31 0.986111 1_555
H2 O30 1.003887 1_545
H3 O31 1.003887 1_565
H4 O32 0.989165 1_555
H5 O33 0.989165 1_555
H6 O32 0.997386 1_455
H7 O33 0.997386 1_655
H8 O34 0.987323 1_555
H9 O35 0.987323 1_555
H10 O34 0.997622 1_555
H11 O35 0.997622 1_555
H12 O38 0.988217 1_555
H13 O39 0.988217 1_555
H14 O38 0.975943 1_555
H15 O39 0.975943 1_555
H16 O40 0.975474 1_555
H17 O41 0.975474 1_555
H18 O40 0.991453 1_555
H19 O41 0.991453 1_555
H20 O42 0.989365 1_545
H21 O43 0.989365 1_565
H22 O42 0.990708 1_555
H23 O43 0.990708 1_555
H24 O44 0.989122 1_455
H25 O45 0.989122 1_655
H26 O44 0.988051 1_555
H27 O45 0.988051 1_555
H28 O46 0.988668 1_555
H29 O47 0.988668 1_555
H30 O46 0.989248 1_555
H31 O47 0.989248 1_555
C0 O8 1.266512 1_455
C0 O6 1.311983 1_555
C0 O4 1.314577 1_555
C1 O9 1.266512 1_655
C1 O7 1.311983 1_555
C1 O5 1.314577 1_555
C2 O14 1.260804 1_555
C2 O10 1.310797 1_555
C2 O12 1.317646 1_555
C3 O15 1.260804 1_555
C3 O11 1.310797 1_555
C3 O13 1.317646 1_555
C4 O20 1.260832 1_545
C4 O16 1.313088 1_555
C4 O18 1.315331 1_555
C5 O21 1.260832 1_565
C5 O17 1.313088 1_555
C5 O19 1.315331 1_555
O0 U0 1.856244 1_555
O1 U1 1.856244 1_555
O2 U0 1.816892 1_555
O3 U1 1.816892 1_555
O4 U0 2.447587 1_555
O5 U1 2.447587 1_555
O6 U0 2.439376 1_555
O7 U1 2.439376 1_555
O10 U0 2.436508 1_555
O11 U1 2.436508 1_555
O12 U0 2.442653 1_555
O13 U1 2.442653 1_555
O16 U0 2.436469 1_555
O17 U1 2.436469 1_555
O18 U0 2.417861 1_555
O19 U1 2.417861 1_555
O22 S0 1.496982 1_555
O23 S1 1.496982 1_555
O24 S0 1.499517 1_555
O25 S1 1.499517 1_555
O26 S0 1.501479 1_555
O27 S1 1.501479 1_555
O28 S0 1.482149 1_555
O29 S1 1.482149 1_555
O48 O49 1.227589 1_666
