# generated using pymatgen
data_SnP2O7
_symmetry_space_group_name_H-M   'P 1'
_cell_length_a   5.12795038
_cell_length_b   6.75494413
_cell_length_c   8.36668338
_cell_angle_alpha   68.99041937
_cell_angle_beta   88.53489943
_cell_angle_gamma   88.61958033
_symmetry_Int_Tables_number   1
_chemical_formula_structural   SnP2O7
_chemical_formula_sum   'Sn2 P4 O14'
_cell_volume   270.42399461
_cell_formula_units_Z   2
loop_
 _symmetry_equiv_pos_site_id
 _symmetry_equiv_pos_as_xyz
  1  'x, y, z'
loop_
 _atom_site_type_symbol
 _atom_site_label
 _atom_site_symmetry_multiplicity
 _atom_site_fract_x
 _atom_site_fract_y
 _atom_site_fract_z
 _atom_site_occupancy
  Sn  Sn0  1  0.24150776  0.20960975  0.73104989  1
  Sn  Sn1  1  0.75849224  0.79039025  0.26895011  1
  P  P0  1  0.24580278  0.11353679  0.16630673  1
  P  P1  1  0.27668334  0.45320211  0.31030412  1
  P  P2  1  0.72331666  0.54679789  0.68969588  1
  P  P3  1  0.75419722  0.88646321  0.83369327  1
  O  O0  1  0.17727883  0.29161220  0.47677310  1
  O  O1  1  0.03468005  0.94202198  0.77683709  1
  O  O2  1  0.09498981  0.64162578  0.23646262  1
  O  O3  1  0.28694272  0.34199472  0.17284099  1
  O  O4  1  0.30178856  0.14081279  0.98302802  1
  O  O5  1  0.43676251  0.96174431  0.28798267  1
  O  O6  1  0.44600399  0.48107943  0.67872536  1
  O  O7  1  0.55399601  0.51892057  0.32127464  1
  O  O8  1  0.56323749  0.03825569  0.71201733  1
  O  O9  1  0.69821144  0.85918721  0.01697198  1
  O  O10  1  0.71305728  0.65800528  0.82715901  1
  O  O11  1  0.90501019  0.35837422  0.76353738  1
  O  O12  1  0.96531995  0.05797802  0.22316291  1
  O  O13  1  0.82272117  0.70838780  0.52322690  1
loop_
_geom_bond_atom_site_label_1
_geom_bond_atom_site_label_2
_geom_bond_distance
_geom_bond_site_symmetry_2
O0 P1 1.513783 1_555
O0 Sn0 2.030618 1_555
O1 P3 1.516198 1_455
O1 Sn0 2.028277 1_565
O2 P1 1.509381 1_555
O2 Sn1 2.037038 1_455
O3 P1 1.582507 1_555
O3 P0 1.582971 1_555
O4 P0 1.498412 1_556
O4 Sn0 2.019902 1_555
O5 P0 1.516817 1_565
O5 Sn1 2.028236 1_555
O6 P2 1.514601 1_555
O6 Sn0 2.036550 1_555
O7 P1 1.514601 1_555
O7 Sn1 2.036550 1_555
O8 P3 1.516817 1_545
O8 Sn0 2.028236 1_555
O9 P3 1.498412 1_554
O9 Sn1 2.019902 1_555
O10 P2 1.582507 1_555
O10 P3 1.582971 1_555
O11 P2 1.509381 1_555
O11 Sn0 2.037038 1_655
O12 P0 1.516198 1_655
O12 Sn1 2.028277 1_545
O13 P2 1.513783 1_555
O13 Sn1 2.030618 1_555
