# generated using pymatgen
data_Tb2WO6
_symmetry_space_group_name_H-M   'P 1'
_cell_length_a   5.63301200
_cell_length_b   10.67104000
_cell_length_c   16.21430500
_cell_angle_alpha   90.00000000
_cell_angle_beta   90.00000000
_cell_angle_gamma   90.00000000
_symmetry_Int_Tables_number   1
_chemical_formula_structural   Tb2WO6
_chemical_formula_sum   'Tb16 W8 O48'
_cell_volume   974.64343616
_cell_formula_units_Z   8
loop_
 _symmetry_equiv_pos_site_id
 _symmetry_equiv_pos_as_xyz
  1  'x, y, z'
loop_
 _atom_site_type_symbol
 _atom_site_label
 _atom_site_symmetry_multiplicity
 _atom_site_fract_x
 _atom_site_fract_y
 _atom_site_fract_z
 _atom_site_occupancy
  Tb  Tb0  1  0.89875800  0.64188400  0.06184800  1
  Tb  Tb1  1  0.39875800  0.85811600  0.06184800  1
  Tb  Tb2  1  0.94897400  0.85482900  0.23054900  1
  Tb  Tb3  1  0.44897400  0.64517100  0.23054900  1
  Tb  Tb4  1  0.94897400  0.35482900  0.26945100  1
  Tb  Tb5  1  0.44897400  0.14517100  0.26945100  1
  Tb  Tb6  1  0.39875800  0.35811600  0.43815200  1
  Tb  Tb7  1  0.89875800  0.14188400  0.43815200  1
  Tb  Tb8  1  0.10124200  0.85811600  0.56184800  1
  Tb  Tb9  1  0.60124200  0.64188400  0.56184800  1
  Tb  Tb10  1  0.55102600  0.85482900  0.73054900  1
  Tb  Tb11  1  0.05102600  0.64517100  0.73054900  1
  Tb  Tb12  1  0.55102600  0.35482900  0.76945100  1
  Tb  Tb13  1  0.05102600  0.14517100  0.76945100  1
  Tb  Tb14  1  0.10124200  0.35811600  0.93815200  1
  Tb  Tb15  1  0.60124200  0.14188400  0.93815200  1
  W  W0  1  0.38940900  0.37906800  0.11987400  1
  W  W1  1  0.88940900  0.12093200  0.11987400  1
  W  W2  1  0.38940900  0.87906800  0.38012600  1
  W  W3  1  0.88940900  0.62093200  0.38012600  1
  W  W4  1  0.11059100  0.37906800  0.61987400  1
  W  W5  1  0.61059100  0.12093200  0.61987400  1
  W  W6  1  0.11059100  0.87906800  0.88012600  1
  W  W7  1  0.61059100  0.62093200  0.88012600  1
  O  O0  1  0.91929400  0.21552600  0.02225400  1
  O  O1  1  0.41929400  0.28447400  0.02225400  1
  O  O2  1  0.12290600  0.45849300  0.07234700  1
  O  O3  1  0.62290600  0.04150700  0.07234700  1
  O  O4  1  0.09421600  0.98879400  0.10686800  1
  O  O5  1  0.59421600  0.51120600  0.10686800  1
  O  O6  1  0.67563200  0.76996200  0.14654900  1
  O  O7  1  0.17563200  0.73003800  0.14654900  1
  O  O8  1  0.65875700  0.26887800  0.17071100  1
  O  O9  1  0.15875700  0.23112200  0.17071100  1
  O  O10  1  0.81654700  0.05929100  0.23097800  1
  O  O11  1  0.31654700  0.44070900  0.23097800  1
  O  O12  1  0.31654700  0.94070900  0.26902200  1
  O  O13  1  0.81654700  0.55929100  0.26902200  1
  O  O14  1  0.65875700  0.76887800  0.32928900  1
  O  O15  1  0.15875700  0.73112200  0.32928900  1
  O  O16  1  0.67563200  0.26996200  0.35345100  1
  O  O17  1  0.17563200  0.23003800  0.35345100  1
  O  O18  1  0.09421600  0.48879400  0.39313200  1
  O  O19  1  0.59421600  0.01120600  0.39313200  1
  O  O20  1  0.12290600  0.95849300  0.42765300  1
  O  O21  1  0.62290600  0.54150700  0.42765300  1
  O  O22  1  0.41929400  0.78447400  0.47774600  1
  O  O23  1  0.91929400  0.71552600  0.47774600  1
  O  O24  1  0.08070600  0.28447400  0.52225400  1
  O  O25  1  0.58070600  0.21552600  0.52225400  1
  O  O26  1  0.37709400  0.45849300  0.57234700  1
  O  O27  1  0.87709400  0.04150700  0.57234700  1
  O  O28  1  0.40578400  0.98879400  0.60686800  1
  O  O29  1  0.90578400  0.51120600  0.60686800  1
  O  O30  1  0.82436800  0.76996200  0.64654900  1
  O  O31  1  0.32436800  0.73003800  0.64654900  1
  O  O32  1  0.84124300  0.26887800  0.67071100  1
  O  O33  1  0.34124300  0.23112200  0.67071100  1
  O  O34  1  0.18345300  0.44070900  0.73097800  1
  O  O35  1  0.68345300  0.05929100  0.73097800  1
  O  O36  1  0.18345300  0.94070900  0.76902200  1
  O  O37  1  0.68345300  0.55929100  0.76902200  1
  O  O38  1  0.84124300  0.76887800  0.82928900  1
  O  O39  1  0.34124300  0.73112200  0.82928900  1
  O  O40  1  0.82436800  0.26996200  0.85345100  1
  O  O41  1  0.32436800  0.23003800  0.85345100  1
  O  O42  1  0.40578400  0.48879400  0.89313200  1
  O  O43  1  0.90578400  0.01120600  0.89313200  1
  O  O44  1  0.37709400  0.95849300  0.92765300  1
  O  O45  1  0.87709400  0.54150700  0.92765300  1
  O  O46  1  0.08070600  0.78447400  0.97774600  1
  O  O47  1  0.58070600  0.71552600  0.97774600  1
loop_
_geom_bond_atom_site_label_1
_geom_bond_atom_site_label_2
_geom_bond_distance
_geom_bond_site_symmetry_2
O0 W1 1.884846 1_555
O0 Tb14 2.285875 1_654
O0 Tb15 2.384721 1_554
O1 W0 1.884846 1_555
O1 Tb15 2.285875 1_554
O1 Tb14 2.384721 1_554
O2 W0 1.888341 1_555
O2 Tb0 2.335156 1_455
O2 Tb14 2.428303 1_554
O3 W1 1.888341 1_555
O3 Tb1 2.335156 1_545
O3 Tb15 2.428303 1_554
O4 W1 1.834037 1_465
O4 Tb1 2.328154 1_555
O4 Tb2 2.595112 1_455
O5 W0 1.834037 1_555
O5 Tb0 2.328154 1_555
O5 Tb3 2.595112 1_555
O6 Tb2 2.246328 1_555
O6 Tb1 2.281119 1_555
O6 Tb3 2.293136 1_555
O6 Tb0 2.309503 1_555
O7 Tb3 2.246328 1_555
O7 Tb0 2.281119 1_455
O7 Tb2 2.293136 1_455
O7 Tb1 2.309503 1_555
O8 W0 2.089036 1_555
O8 W1 2.204530 1_555
O8 Tb5 2.387940 1_555
O8 Tb4 2.465155 1_555
O9 W1 2.089036 1_455
O9 W0 2.204530 1_555
O9 Tb4 2.387940 1_455
O9 Tb5 2.465155 1_555
O10 W1 1.961232 1_555
O10 Tb2 2.305831 1_545
O10 Tb5 2.348645 1_555
O11 W0 1.961232 1_555
O11 Tb3 2.305831 1_555
O11 Tb4 2.348645 1_455
O12 W2 1.961232 1_555
O12 Tb5 2.305831 1_565
O12 Tb2 2.348645 1_455
O13 W3 1.961232 1_555
O13 Tb4 2.305831 1_555
O13 Tb3 2.348645 1_555
O14 W2 2.089036 1_555
O14 W3 2.204530 1_555
O14 Tb3 2.387940 1_555
O14 Tb2 2.465155 1_555
O15 W3 2.089036 1_455
O15 W2 2.204530 1_555
O15 Tb2 2.387940 1_455
O15 Tb3 2.465155 1_555
O16 Tb4 2.246328 1_555
O16 Tb6 2.281119 1_555
O16 Tb5 2.293136 1_555
O16 Tb7 2.309503 1_555
O17 Tb5 2.246328 1_555
O17 Tb7 2.281119 1_455
O17 Tb4 2.293136 1_455
O17 Tb6 2.309503 1_555
O18 W3 1.834037 1_455
O18 Tb6 2.328154 1_555
O18 Tb4 2.595112 1_455
O19 W2 1.834037 1_545
O19 Tb7 2.328154 1_555
O19 Tb5 2.595112 1_555
O20 W2 1.888341 1_555
O20 Tb7 2.335156 1_465
O20 Tb8 2.428303 1_555
O21 W3 1.888341 1_555
O21 Tb6 2.335156 1_555
O21 Tb9 2.428303 1_555
O22 W2 1.884846 1_555
O22 Tb9 2.285875 1_555
O22 Tb8 2.384721 1_555
O23 W3 1.884846 1_555
O23 Tb8 2.285875 1_655
O23 Tb9 2.384721 1_555
O24 W4 1.884846 1_555
O24 Tb7 2.285875 1_455
O24 Tb6 2.384721 1_555
O25 W5 1.884846 1_555
O25 Tb6 2.285875 1_555
O25 Tb7 2.384721 1_555
O26 W4 1.888341 1_555
O26 Tb9 2.335156 1_555
O26 Tb6 2.428303 1_555
O27 W5 1.888341 1_555
O27 Tb8 2.335156 1_645
O27 Tb7 2.428303 1_555
O28 W5 1.834037 1_565
O28 Tb8 2.328154 1_555
O28 Tb10 2.595112 1_555
O29 W4 1.834037 1_655
O29 Tb9 2.328154 1_555
O29 Tb11 2.595112 1_655
O30 Tb10 2.246328 1_555
O30 Tb8 2.281119 1_655
O30 Tb11 2.293136 1_655
O30 Tb9 2.309503 1_555
O31 Tb11 2.246328 1_555
O31 Tb9 2.281119 1_555
O31 Tb10 2.293136 1_555
O31 Tb8 2.309503 1_555
O32 W4 2.089036 1_655
O32 W5 2.204530 1_555
O32 Tb13 2.387940 1_655
O32 Tb12 2.465155 1_555
O33 W5 2.089036 1_555
O33 W4 2.204530 1_555
O33 Tb12 2.387940 1_555
O33 Tb13 2.465155 1_555
O34 W4 1.961232 1_555
O34 Tb11 2.305831 1_555
O34 Tb12 2.348645 1_555
O35 W5 1.961232 1_555
O35 Tb10 2.305831 1_545
O35 Tb13 2.348645 1_655
O36 W6 1.961232 1_555
O36 Tb13 2.305831 1_565
O36 Tb10 2.348645 1_555
O37 W7 1.961232 1_555
O37 Tb12 2.305831 1_555
O37 Tb11 2.348645 1_655
O38 W6 2.089036 1_655
O38 W7 2.204530 1_555
O38 Tb11 2.387940 1_655
O38 Tb10 2.465155 1_555
O39 W7 2.089036 1_555
O39 W6 2.204530 1_555
O39 Tb10 2.387940 1_555
O39 Tb11 2.465155 1_555
O40 Tb12 2.246328 1_555
O40 Tb14 2.281119 1_655
O40 Tb13 2.293136 1_655
O40 Tb15 2.309503 1_555
O41 Tb13 2.246328 1_555
O41 Tb15 2.281119 1_555
O41 Tb12 2.293136 1_555
O41 Tb14 2.309503 1_555
O42 W7 1.834037 1_555
O42 Tb14 2.328154 1_555
O42 Tb12 2.595112 1_555
O43 W6 1.834037 1_645
O43 Tb15 2.328154 1_555
O43 Tb13 2.595112 1_655
O44 W6 1.888341 1_555
O44 Tb15 2.335156 1_565
O44 Tb1 2.428303 1_556
O45 W7 1.888341 1_555
O45 Tb14 2.335156 1_655
O45 Tb0 2.428303 1_556
O46 W6 1.884846 1_555
O46 Tb0 2.285875 1_456
O46 Tb1 2.384721 1_556
O47 W7 1.884846 1_555
O47 Tb1 2.285875 1_556
O47 Tb0 2.384721 1_556
