# generated using pymatgen
data_Li3Cr2CoO6
_symmetry_space_group_name_H-M   'P 1'
_cell_length_a   6.60542761
_cell_length_b   6.60542761
_cell_length_c   5.92981853
_cell_angle_alpha   77.06770330
_cell_angle_beta   77.06770330
_cell_angle_gamma   25.92423186
_symmetry_Int_Tables_number   1
_chemical_formula_structural   Li3Cr2CoO6
_chemical_formula_sum   'Li3 Cr2 Co1 O6'
_cell_volume   110.08810593
_cell_formula_units_Z   1
loop_
 _symmetry_equiv_pos_site_id
 _symmetry_equiv_pos_as_xyz
  1  'x, y, z'
loop_
 _atom_site_type_symbol
 _atom_site_label
 _atom_site_symmetry_multiplicity
 _atom_site_fract_x
 _atom_site_fract_y
 _atom_site_fract_z
 _atom_site_occupancy
  Li  Li0  1  0.16327100  0.16327100  0.17015400  1
  Li  Li1  1  0.50000000  0.50000000  0.50000000  1
  Li  Li2  1  0.83672900  0.83672900  0.82984600  1
  Cr  Cr0  1  0.16624300  0.16624300  0.66834900  1
  Cr  Cr1  1  0.83375700  0.83375700  0.33165100  1
  Co  Co0  1  0.50000000  0.50000000  0.00000000  1
  O  O0  1  0.66113100  0.66113100  0.90415000  1
  O  O1  1  0.99499200  0.99499200  0.23677000  1
  O  O2  1  0.32833900  0.32833900  0.56869900  1
  O  O3  1  0.00500800  0.00500800  0.76323000  1
  O  O4  1  0.33886900  0.33886900  0.09585000  1
  O  O5  1  0.67166100  0.67166100  0.43130100  1
loop_
_geom_bond_atom_site_label_1
_geom_bond_atom_site_label_2
_geom_bond_distance
_geom_bond_site_symmetry_2
Li0 O1 2.111049 1_445
Li0 O5 2.163741 1_455
Li0 O5 2.163741 1_545
Li0 O0 2.168878 1_544
Li0 O0 2.168878 1_454
Li0 O4 2.201669 1_555
Li1 O5 2.153266 1_555
Li1 O2 2.153266 1_555
Li1 O3 2.163809 1_655
Li1 O3 2.163809 1_565
Li1 O1 2.163809 1_545
Li1 O1 2.163809 1_455
Li2 O3 2.111049 1_665
Li2 O2 2.163741 1_655
Li2 O2 2.163741 1_565
Li2 O4 2.168878 1_656
Li2 O4 2.168878 1_566
Li2 O0 2.201669 1_555
Cr0 O3 2.022122 1_555
Cr0 O0 2.027918 1_545
Cr0 O0 2.027918 1_455
Cr0 O5 2.032474 1_545
Cr0 O5 2.032474 1_455
Cr0 O2 2.034151 1_555
Cr1 O1 2.022122 1_555
Cr1 O4 2.027918 1_565
Cr1 O4 2.027918 1_655
Cr1 O2 2.032474 1_655
Cr1 O2 2.032474 1_565
Cr1 O5 2.034151 1_555
Co0 O0 2.021087 1_554
Co0 O4 2.021087 1_555
Co0 O1 2.032011 1_545
Co0 O1 2.032011 1_455
Co0 O3 2.032011 1_654
Co0 O3 2.032011 1_564
