# generated using pymatgen
data_Cu3As2H2PbO10
_symmetry_space_group_name_H-M   'P 1'
_cell_length_a   5.95821005
_cell_length_b   5.95821005
_cell_length_c   14.19515949
_cell_angle_alpha   76.09777546
_cell_angle_beta   76.09777546
_cell_angle_gamma   60.64786337
_symmetry_Int_Tables_number   1
_chemical_formula_structural   Cu3As2H2PbO10
_chemical_formula_sum   'Cu6 As4 H4 Pb2 O20'
_cell_volume   421.88038589
_cell_formula_units_Z   2
loop_
 _symmetry_equiv_pos_site_id
 _symmetry_equiv_pos_as_xyz
  1  'x, y, z'
loop_
 _atom_site_type_symbol
 _atom_site_label
 _atom_site_symmetry_multiplicity
 _atom_site_fract_x
 _atom_site_fract_y
 _atom_site_fract_z
 _atom_site_occupancy
  Cu  Cu0  1  0.00000000  0.50000000  0.00000000  1
  Cu  Cu1  1  0.50000000  0.50000000  0.50000000  1
  Cu  Cu2  1  0.00000000  0.00000000  0.00000000  1
  Cu  Cu3  1  0.50000000  0.50000000  0.00000000  1
  Cu  Cu4  1  0.50000000  0.00000000  0.50000000  1
  Cu  Cu5  1  0.00000000  0.00000000  0.50000000  1
  As  As0  1  0.49051500  0.90870600  0.14148000  1
  As  As1  1  0.90870600  0.49051500  0.64148000  1
  As  As2  1  0.09129400  0.50948500  0.35852000  1
  As  As3  1  0.50948500  0.09129400  0.85852000  1
  H  H0  1  0.40953400  0.85285700  0.35936200  1
  H  H1  1  0.85285700  0.40953400  0.85936200  1
  H  H2  1  0.14714300  0.59046600  0.14063800  1
  H  H3  1  0.59046600  0.14714300  0.64063800  1
  Pb  Pb0  1  0.73915100  0.26084900  0.25000000  1
  Pb  Pb1  1  0.26084900  0.73915100  0.75000000  1
  O  O0  1  0.36030000  0.85186000  0.43483000  1
  O  O1  1  0.54148900  0.76679900  0.25978600  1
  O  O2  1  0.82112800  0.90788900  0.87689700  1
  O  O3  1  0.64781500  0.62401200  0.08282600  1
  O  O4  1  0.08867200  0.66775400  0.59634600  1
  O  O5  1  0.37598800  0.35218500  0.41717400  1
  O  O6  1  0.90788900  0.82112800  0.37689700  1
  O  O7  1  0.33224600  0.91132800  0.90365400  1
  O  O8  1  0.85186000  0.36030000  0.93483000  1
  O  O9  1  0.76679900  0.54148900  0.75978600  1
  O  O10  1  0.23320100  0.45851100  0.24021400  1
  O  O11  1  0.14814000  0.63970000  0.06517000  1
  O  O12  1  0.66775400  0.08867200  0.09634600  1
  O  O13  1  0.09211100  0.17887200  0.62310300  1
  O  O14  1  0.62401200  0.64781500  0.58282600  1
  O  O15  1  0.91132800  0.33224600  0.40365400  1
  O  O16  1  0.35218500  0.37598800  0.91717400  1
  O  O17  1  0.17887200  0.09211100  0.12310300  1
  O  O18  1  0.45851100  0.23320100  0.74021400  1
  O  O19  1  0.63970000  0.14814000  0.56517000  1
loop_
_geom_bond_atom_site_label_1
_geom_bond_atom_site_label_2
_geom_bond_distance
_geom_bond_site_symmetry_2
Cu0 O8 1.952009 1_454
Cu0 O11 1.952009 1_555
Cu0 O16 2.010832 1_554
Cu0 O3 2.010832 1_455
Cu0 O17 2.531948 1_555
Cu0 O2 2.531948 1_454
Cu1 O19 1.916011 1_555
Cu1 O0 1.916011 1_555
Cu1 O14 2.063237 1_555
Cu1 O5 2.063237 1_555
Cu1 O4 2.349591 1_555
Cu1 O15 2.349591 1_555
Cu2 O8 1.955467 1_454
Cu2 O11 1.955467 1_545
Cu2 O7 2.022197 1_544
Cu2 O12 2.022197 1_455
Cu2 O17 2.533746 1_555
Cu2 O2 2.533746 1_444
Cu3 O11 1.916011 1_555
Cu3 O8 1.916011 1_554
Cu3 O3 2.063237 1_555
Cu3 O16 2.063237 1_554
Cu3 O7 2.349591 1_554
Cu3 O12 2.349591 1_555
Cu4 O0 1.952009 1_545
Cu4 O19 1.952009 1_555
Cu4 O5 2.010832 1_555
Cu4 O14 2.010832 1_545
Cu4 O6 2.531948 1_545
Cu4 O13 2.531948 1_555
Cu5 O0 1.955467 1_545
Cu5 O19 1.955467 1_455
Cu5 O4 2.022197 1_545
Cu5 O15 2.022197 1_455
Cu5 O13 2.533746 1_555
Cu5 O6 2.533746 1_445
As0 O17 1.678268 1_565
As0 O1 1.714191 1_555
As0 O12 1.769268 1_565
As0 O3 1.787198 1_555
As1 O13 1.678268 1_655
As1 O9 1.714191 1_555
As1 O4 1.769268 1_655
As1 O14 1.787198 1_555
As2 O6 1.678268 1_455
As2 O10 1.714191 1_555
As2 O15 1.769268 1_455
As2 O5 1.787198 1_555
As3 O2 1.678268 1_545
As3 O18 1.714191 1_555
As3 O7 1.769268 1_545
As3 O16 1.787198 1_555
H0 O0 1.039889 1_555
H0 O1 1.515937 1_555
H1 O8 1.039889 1_555
H1 O9 1.515937 1_555
H2 O11 1.039889 1_555
H2 O10 1.515937 1_555
H3 O19 1.039889 1_555
H3 O18 1.515937 1_555
O1 Pb0 2.671319 1_555
O2 Pb1 2.672048 1_655
O3 Pb0 2.758319 1_555
O4 Pb1 2.817740 1_555
O5 Pb0 2.758319 1_555
O6 Pb0 2.672048 1_565
O7 Pb1 2.817740 1_555
O9 Pb1 2.671319 1_555
O10 Pb0 2.671319 1_555
O12 Pb0 2.817740 1_555
O13 Pb1 2.672048 1_545
O14 Pb1 2.758319 1_555
O15 Pb0 2.817740 1_555
O16 Pb1 2.758319 1_555
O17 Pb0 2.672048 1_455
O18 Pb1 2.671319 1_555
