# generated using pymatgen
data_TmGaO3
_symmetry_space_group_name_H-M   'P 1'
_cell_length_a   5.24091300
_cell_length_b   5.57066000
_cell_length_c   7.59972500
_cell_angle_alpha   90.00000000
_cell_angle_beta   90.00000000
_cell_angle_gamma   90.00000000
_symmetry_Int_Tables_number   1
_chemical_formula_structural   TmGaO3
_chemical_formula_sum   'Tm4 Ga4 O12'
_cell_volume   221.87658882
_cell_formula_units_Z   4
loop_
 _symmetry_equiv_pos_site_id
 _symmetry_equiv_pos_as_xyz
  1  'x, y, z'
loop_
 _atom_site_type_symbol
 _atom_site_label
 _atom_site_symmetry_multiplicity
 _atom_site_fract_x
 _atom_site_fract_y
 _atom_site_fract_z
 _atom_site_occupancy
  Tm  Tm0  1  0.02182200  0.07137700  0.75000000  1
  Tm  Tm1  1  0.47817800  0.57137700  0.75000000  1
  Tm  Tm2  1  0.52182200  0.42862300  0.25000000  1
  Tm  Tm3  1  0.97817800  0.92862300  0.25000000  1
  Ga  Ga0  1  0.00000000  0.50000000  0.50000000  1
  Ga  Ga1  1  0.50000000  0.00000000  0.50000000  1
  Ga  Ga2  1  0.50000000  0.00000000  0.00000000  1
  Ga  Ga3  1  0.00000000  0.50000000  0.00000000  1
  O  O0  1  0.12080900  0.54561100  0.25000000  1
  O  O1  1  0.19159700  0.80565800  0.56152200  1
  O  O2  1  0.19159700  0.80565800  0.93847800  1
  O  O3  1  0.30840300  0.30565800  0.93847800  1
  O  O4  1  0.30840300  0.30565800  0.56152200  1
  O  O5  1  0.37919100  0.04561100  0.25000000  1
  O  O6  1  0.62080900  0.95438900  0.75000000  1
  O  O7  1  0.69159700  0.69434200  0.06152200  1
  O  O8  1  0.69159700  0.69434200  0.43847800  1
  O  O9  1  0.80840300  0.19434200  0.43847800  1
  O  O10  1  0.80840300  0.19434200  0.06152200  1
  O  O11  1  0.87919100  0.45438900  0.75000000  1
loop_
_geom_bond_atom_site_label_1
_geom_bond_atom_site_label_2
_geom_bond_distance
_geom_bond_site_symmetry_2
Ga0 O4 2.000781 1_555
Ga0 O8 2.000781 1_455
Ga0 O0 2.018706 1_555
Ga0 O11 2.018706 1_455
Ga0 O1 2.031293 1_555
Ga0 O9 2.031293 1_455
Ga1 O1 2.000781 1_545
Ga1 O9 2.000781 1_555
Ga1 O6 2.018706 1_545
Ga1 O5 2.018706 1_555
Ga1 O8 2.031293 1_545
Ga1 O4 2.031293 1_555
Ga2 O10 2.000781 1_555
Ga2 O2 2.000781 1_544
Ga2 O6 2.018706 1_544
Ga2 O5 2.018706 1_555
Ga2 O7 2.031293 1_545
Ga2 O3 2.031293 1_554
Ga3 O7 2.000781 1_455
Ga3 O3 2.000781 1_554
Ga3 O0 2.018706 1_555
Ga3 O11 2.018706 1_454
Ga3 O10 2.031293 1_455
Ga3 O2 2.031293 1_554
O0 Tm2 2.200397 1_555
O0 Tm3 2.260787 1_455
O1 Tm0 2.243769 1_565
O1 Tm1 2.451702 1_555
O1 Tm3 2.706521 1_455
O2 Tm0 2.243769 1_565
O2 Tm1 2.451702 1_555
O2 Tm3 2.706521 1_456
O3 Tm1 2.243769 1_555
O3 Tm0 2.451702 1_555
O3 Tm2 2.706521 1_556
O4 Tm1 2.243769 1_555
O4 Tm0 2.451702 1_555
O4 Tm2 2.706521 1_555
O5 Tm3 2.200397 1_445
O5 Tm2 2.260787 1_555
O6 Tm0 2.200397 1_665
O6 Tm1 2.260787 1_555
O7 Tm2 2.243769 1_555
O7 Tm3 2.451702 1_555
O7 Tm1 2.706521 1_554
O8 Tm2 2.243769 1_555
O8 Tm3 2.451702 1_555
O8 Tm1 2.706521 1_555
O9 Tm3 2.243769 1_545
O9 Tm2 2.451702 1_555
O9 Tm0 2.706521 1_655
O10 Tm3 2.243769 1_545
O10 Tm2 2.451702 1_555
O10 Tm0 2.706521 1_654
O11 Tm1 2.200397 1_555
O11 Tm0 2.260787 1_655
