# generated using pymatgen
data_Li7Mn8(BO3)8
_symmetry_space_group_name_H-M   'P 1'
_cell_length_a   5.29670400
_cell_length_b   9.03783272
_cell_length_c   10.45833371
_cell_angle_alpha   90.20930653
_cell_angle_beta   92.42545608
_cell_angle_gamma   90.08826557
_symmetry_Int_Tables_number   1
_chemical_formula_structural   Li7Mn8(BO3)8
_chemical_formula_sum   'Li7 Mn8 B8 O24'
_cell_volume   500.19543926
_cell_formula_units_Z   1
loop_
 _symmetry_equiv_pos_site_id
 _symmetry_equiv_pos_as_xyz
  1  'x, y, z'
loop_
 _atom_site_type_symbol
 _atom_site_label
 _atom_site_symmetry_multiplicity
 _atom_site_fract_x
 _atom_site_fract_y
 _atom_site_fract_z
 _atom_site_occupancy
  Li  Li0  1  0.15231000  0.97449300  0.66655200  1
  Li  Li1  1  0.16330900  0.01332300  0.16585900  1
  Li  Li2  1  0.33330400  0.50206100  0.91772100  1
  Li  Li3  1  0.35053100  0.49561600  0.41965500  1
  Li  Li4  1  0.66206900  0.51614900  0.15838500  1
  Li  Li5  1  0.83395100  0.00193700  0.90495400  1
  Li  Li6  1  0.84543400  0.00020200  0.42415700  1
  Mn  Mn0  1  0.17028100  0.64763600  0.63488600  1
  Mn  Mn1  1  0.15886600  0.34047200  0.13004100  1
  Mn  Mn2  1  0.33524300  0.15942400  0.88357100  1
  Mn  Mn3  1  0.34010300  0.83154200  0.38464600  1
  Mn  Mn4  1  0.64709900  0.18434500  0.62950200  1
  Mn  Mn5  1  0.66188000  0.84169400  0.12982300  1
  Mn  Mn6  1  0.81948900  0.66205800  0.87074700  1
  Mn  Mn7  1  0.83742400  0.34294000  0.37988500  1
  B  B0  1  0.17948500  0.31330500  0.62074000  1
  B  B1  1  0.16575100  0.67395500  0.12441600  1
  B  B2  1  0.32521700  0.82626600  0.87479200  1
  B  B3  1  0.32672900  0.17514600  0.37859800  1
  B  B4  1  0.66950400  0.83750000  0.62670900  1
  B  B5  1  0.67063400  0.17345000  0.12348800  1
  B  B6  1  0.82690600  0.33123700  0.87331500  1
  B  B7  1  0.83508600  0.67357800  0.37463900  1
  O  O0  1  0.08115400  0.33188500  0.91319500  1
  O  O1  1  0.08674800  0.65774000  0.41722600  1
  O  O2  1  0.17495200  0.95073100  0.85980800  1
  O  O3  1  0.22338800  0.68684700  0.84569000  1
  O  O4  1  0.19077200  0.04668200  0.36107800  1
  O  O5  1  0.22629300  0.31064600  0.33971000  1
  O  O6  1  0.28643700  0.17906800  0.66592500  1
  O  O7  1  0.27584400  0.80704000  0.16759300  1
  O  O8  1  0.32016400  0.43703100  0.60712300  1
  O  O9  1  0.31364100  0.54938600  0.10936200  1
  O  O10  1  0.40773900  0.83294900  0.59553100  1
  O  O11  1  0.41111600  0.16325000  0.09179300  1
  O  O12  1  0.57817900  0.84088900  0.91602100  1
  O  O13  1  0.57605300  0.17364700  0.43391900  1
  O  O14  1  0.67462000  0.44978300  0.88641800  1
  O  O15  1  0.68209600  0.55051200  0.35646500  1
  O  O16  1  0.72188300  0.19537100  0.82145800  1
  O  O17  1  0.73394600  0.81394200  0.34580800  1
  O  O18  1  0.79547900  0.71248200  0.66960400  1
  O  O19  1  0.80012600  0.96948300  0.61105400  1
  O  O20  1  0.77188500  0.30544500  0.17233300  1
  O  O21  1  0.82359900  0.05282600  0.10234100  1
  O  O22  1  0.92552800  0.31007000  0.58233900  1
  O  O23  1  0.90697500  0.66627600  0.09414700  1
loop_
_geom_bond_atom_site_label_1
_geom_bond_atom_site_label_2
_geom_bond_distance
_geom_bond_site_symmetry_2
Li0 O19 1.930443 1_455
Li0 O6 1.979817 1_565
Li0 O10 2.025351 1_555
Li0 O2 2.031804 1_555
Li1 O21 1.925858 1_455
Li1 O7 1.958107 1_545
Li1 O11 2.060859 1_555
Li1 O4 2.061719 1_555
Li2 O14 1.910583 1_555
Li2 O3 1.915889 1_555
Li2 O0 2.034520 1_555
Li2 O9 2.054831 1_556
Li3 O15 1.965981 1_555
Li3 O5 1.966364 1_555
Li3 O1 2.025658 1_555
Li3 O8 2.045531 1_555
Li4 O9 1.918798 1_555
Li4 O20 1.996061 1_555
Li4 O23 2.012468 1_555
Li4 O15 2.091835 1_555
Li5 O2 1.942306 1_645
Li5 O12 1.993921 1_545
Li5 O16 2.035103 1_555
Li5 O21 2.116307 1_556
Li6 O17 1.949314 1_545
Li6 O19 1.999679 1_545
Li6 O4 2.014761 1_655
Li6 O13 2.126403 1_555
Mn0 O8 2.087503 1_555
Mn0 O18 2.116466 1_455
Mn0 O10 2.144466 1_555
Mn0 O3 2.237572 1_555
Mn0 O1 2.302676 1_555
Mn1 O9 2.072943 1_555
Mn1 O11 2.134890 1_555
Mn1 O20 2.138451 1_455
Mn1 O5 2.224155 1_555
Mn1 O0 2.288710 1_554
Mn2 O2 2.076985 1_545
Mn2 O0 2.091637 1_555
Mn2 O11 2.197776 1_556
Mn2 O16 2.198541 1_555
Mn2 O6 2.287529 1_555
Mn3 O1 2.102481 1_555
Mn3 O4 2.111588 1_565
Mn3 O17 2.148078 1_555
Mn3 O10 2.219384 1_555
Mn3 O7 2.290970 1_555
Mn4 O22 1.941606 1_555
Mn4 O6 1.964215 1_555
Mn4 O16 2.031787 1_555
Mn4 O13 2.065964 1_555
Mn4 O19 2.116712 1_545
Mn5 O23 2.093091 1_555
Mn5 O21 2.115958 1_565
Mn5 O7 2.121861 1_555
Mn5 O12 2.261045 1_554
Mn5 O17 2.289638 1_555
Mn6 O14 2.074783 1_555
Mn6 O12 2.126523 1_555
Mn6 O18 2.152584 1_555
Mn6 O3 2.177617 1_655
Mn6 O23 2.362746 1_556
Mn7 O15 2.060900 1_555
Mn7 O5 2.139718 1_655
Mn7 O13 2.154752 1_555
Mn7 O22 2.170371 1_555
Mn7 O20 2.208516 1_555
B0 O8 1.354064 1_555
B0 O22 1.387661 1_455
B0 O6 1.414128 1_555
B1 O9 1.384830 1_555
B1 O23 1.395191 1_455
B1 O7 1.400806 1_555
B2 O2 1.384523 1_555
B2 O12 1.395982 1_555
B2 O3 1.397307 1_555
B3 O4 1.372901 1_555
B3 O5 1.391206 1_555
B3 O13 1.419274 1_555
B4 O18 1.379791 1_555
B4 O19 1.391698 1_555
B4 O10 1.411324 1_555
B5 O21 1.382017 1_555
B5 O20 1.393587 1_555
B5 O11 1.403102 1_555
B6 O14 1.352126 1_555
B6 O0 1.392819 1_655
B6 O16 1.441836 1_555
B7 O15 1.382940 1_555
B7 O1 1.395170 1_655
B7 O17 1.406566 1_555
