# generated using pymatgen
data_Li2NbCo3O8
_symmetry_space_group_name_H-M   'P 1'
_cell_length_a   8.23195600
_cell_length_b   8.23195600
_cell_length_c   8.23195600
_cell_angle_alpha   90.00000000
_cell_angle_beta   90.00000000
_cell_angle_gamma   90.00000000
_symmetry_Int_Tables_number   1
_chemical_formula_structural   Li2NbCo3O8
_chemical_formula_sum   'Li8 Nb4 Co12 O32'
_cell_volume   557.83931813
_cell_formula_units_Z   4
loop_
 _symmetry_equiv_pos_site_id
 _symmetry_equiv_pos_as_xyz
  1  'x, y, z'
loop_
 _atom_site_type_symbol
 _atom_site_label
 _atom_site_symmetry_multiplicity
 _atom_site_fract_x
 _atom_site_fract_y
 _atom_site_fract_z
 _atom_site_occupancy
  Li  Li0  1  0.99233000  0.99233000  0.99233000  1
  Li  Li1  1  0.25767000  0.25767000  0.25767000  1
  Li  Li2  1  0.24233000  0.74233000  0.75767000  1
  Li  Li3  1  0.50767000  0.00767000  0.49233000  1
  Li  Li4  1  0.49233000  0.50767000  0.00767000  1
  Li  Li5  1  0.75767000  0.24233000  0.74233000  1
  Li  Li6  1  0.74233000  0.75767000  0.24233000  1
  Li  Li7  1  0.00767000  0.49233000  0.50767000  1
  Nb  Nb0  1  0.12500000  0.87500000  0.37500000  1
  Nb  Nb1  1  0.37500000  0.12500000  0.87500000  1
  Nb  Nb2  1  0.62500000  0.62500000  0.62500000  1
  Nb  Nb3  1  0.87500000  0.37500000  0.12500000  1
  Co  Co0  1  0.12230700  0.12769300  0.62500000  1
  Co  Co1  1  0.12500000  0.37769300  0.87230700  1
  Co  Co2  1  0.12769300  0.62500000  0.12230700  1
  Co  Co3  1  0.37230700  0.37500000  0.62230700  1
  Co  Co4  1  0.37500000  0.62230700  0.37230700  1
  Co  Co5  1  0.37769300  0.87230700  0.12500000  1
  Co  Co6  1  0.62230700  0.37230700  0.37500000  1
  Co  Co7  1  0.62500000  0.12230700  0.12769300  1
  Co  Co8  1  0.62769300  0.87500000  0.87769300  1
  Co  Co9  1  0.87230700  0.12500000  0.37769300  1
  Co  Co10  1  0.87500000  0.87769300  0.62769300  1
  Co  Co11  1  0.87769300  0.62769300  0.87500000  1
  O  O0  1  0.11201600  0.11987500  0.38789200  1
  O  O1  1  0.11210800  0.88798400  0.61987500  1
  O  O2  1  0.10870900  0.60870900  0.89129100  1
  O  O3  1  0.13012500  0.13798400  0.86210800  1
  O  O4  1  0.11987500  0.38789200  0.11201600  1
  O  O5  1  0.14129100  0.35870900  0.64129100  1
  O  O6  1  0.13789200  0.63012500  0.36201600  1
  O  O7  1  0.13798400  0.86210800  0.13012500  1
  O  O8  1  0.36201600  0.13789200  0.63012500  1
  O  O9  1  0.36210800  0.36987500  0.86201600  1
  O  O10  1  0.35870900  0.64129100  0.14129100  1
  O  O11  1  0.38012500  0.61210800  0.61201600  1
  O  O12  1  0.36987500  0.86201600  0.36210800  1
  O  O13  1  0.39129100  0.39129100  0.39129100  1
  O  O14  1  0.38789200  0.11201600  0.11987500  1
  O  O15  1  0.38798400  0.88012500  0.88789200  1
  O  O16  1  0.61201600  0.38012500  0.61210800  1
  O  O17  1  0.61210800  0.61201600  0.38012500  1
  O  O18  1  0.60870900  0.89129100  0.10870900  1
  O  O19  1  0.63012500  0.36201600  0.13789200  1
  O  O20  1  0.61987500  0.11210800  0.88798400  1
  O  O21  1  0.64129100  0.14129100  0.35870900  1
  O  O22  1  0.63789200  0.86987500  0.63798400  1
  O  O23  1  0.63798400  0.63789200  0.86987500  1
  O  O24  1  0.86201600  0.36210800  0.36987500  1
  O  O25  1  0.86210800  0.13012500  0.13798400  1
  O  O26  1  0.85870900  0.85870900  0.85870900  1
  O  O27  1  0.88012500  0.88789200  0.38798400  1
  O  O28  1  0.86987500  0.63798400  0.63789200  1
  O  O29  1  0.89129100  0.10870900  0.60870900  1
  O  O30  1  0.88789200  0.38798400  0.88012500  1
  O  O31  1  0.88798400  0.61987500  0.11210800  1
loop_
_geom_bond_atom_site_label_1
_geom_bond_atom_site_label_2
_geom_bond_distance
_geom_bond_site_symmetry_2
Li0 O26 1.905190 1_555
Li0 O7 1.968115 1_656
Li0 O25 1.968115 1_566
Li0 O3 1.968115 1_665
Li1 O13 1.905190 1_555
Li1 O14 1.968115 1_555
Li1 O4 1.968115 1_555
Li1 O0 1.968115 1_555
Li2 O2 1.905190 1_555
Li2 O1 1.968115 1_555
Li2 O11 1.968115 1_555
Li2 O15 1.968115 1_555
Li3 O21 1.905190 1_555
Li3 O12 1.968115 1_545
Li3 O8 1.968115 1_555
Li3 O22 1.968115 1_545
Li4 O10 1.905190 1_555
Li4 O9 1.968115 1_554
Li4 O19 1.968115 1_555
Li4 O23 1.968115 1_554
Li5 O29 1.905190 1_555
Li5 O20 1.968115 1_555
Li5 O16 1.968115 1_555
Li5 O30 1.968115 1_555
Li6 O18 1.905190 1_555
Li6 O31 1.968115 1_555
Li6 O17 1.968115 1_555
Li6 O27 1.968115 1_555
Li7 O5 1.905190 1_555
Li7 O24 1.968115 1_455
Li7 O6 1.968115 1_555
Li7 O28 1.968115 1_455
Nb0 O6 2.021420 1_555
Nb0 O27 2.021420 1_455
Nb0 O0 2.021420 1_565
Nb0 O1 2.021420 1_555
Nb0 O12 2.021420 1_555
Nb0 O7 2.021420 1_555
Nb1 O15 2.021420 1_545
Nb1 O8 2.021420 1_555
Nb1 O14 2.021420 1_556
Nb1 O20 2.021420 1_555
Nb1 O9 2.021420 1_555
Nb1 O3 2.021420 1_555
Nb2 O28 2.021420 1_555
Nb2 O22 2.021420 1_555
Nb2 O23 2.021420 1_555
Nb2 O16 2.021420 1_555
Nb2 O17 2.021420 1_555
Nb2 O11 2.021420 1_555
Nb3 O19 2.021420 1_555
Nb3 O4 2.021420 1_655
Nb3 O30 2.021420 1_554
Nb3 O31 2.021420 1_555
Nb3 O25 2.021420 1_555
Nb3 O24 2.021420 1_555
Co0 O29 1.912831 1_455
Co0 O5 1.912831 1_555
Co0 O3 1.954760 1_555
Co0 O0 1.954760 1_555
Co0 O8 1.975510 1_555
Co0 O1 1.975510 1_545
Co1 O2 1.912831 1_555
Co1 O5 1.912831 1_555
Co1 O30 1.954760 1_455
Co1 O9 1.954760 1_555
Co1 O3 1.975510 1_555
Co1 O4 1.975510 1_556
Co2 O2 1.912831 1_554
Co2 O10 1.912831 1_555
Co2 O7 1.954760 1_555
Co2 O4 1.954760 1_555
Co2 O6 1.975510 1_555
Co2 O31 1.975510 1_455
Co3 O5 1.912831 1_555
Co3 O13 1.912831 1_555
Co3 O11 1.954760 1_555
Co3 O8 1.954760 1_555
Co3 O9 1.975510 1_555
Co3 O16 1.975510 1_555
Co4 O10 1.912831 1_555
Co4 O13 1.912831 1_555
Co4 O17 1.954760 1_555
Co4 O6 1.954760 1_555
Co4 O12 1.975510 1_555
Co4 O11 1.975510 1_555
Co5 O18 1.912831 1_555
Co5 O10 1.912831 1_555
Co5 O12 1.954760 1_555
Co5 O15 1.954760 1_554
Co5 O7 1.975510 1_555
Co5 O14 1.975510 1_565
Co6 O21 1.912831 1_555
Co6 O13 1.912831 1_555
Co6 O16 1.954760 1_555
Co6 O19 1.954760 1_555
Co6 O24 1.975510 1_555
Co6 O17 1.975510 1_555
Co7 O18 1.912831 1_545
Co7 O21 1.912831 1_555
Co7 O25 1.954760 1_555
Co7 O14 1.954760 1_555
Co7 O19 1.975510 1_555
Co7 O20 1.975510 1_554
Co8 O26 1.912831 1_555
Co8 O18 1.912831 1_556
Co8 O23 1.954760 1_555
Co8 O20 1.954760 1_565
Co8 O22 1.975510 1_555
Co8 O15 1.975510 1_555
Co9 O29 1.912831 1_555
Co9 O21 1.912831 1_555
Co9 O27 1.954760 1_545
Co9 O24 1.954760 1_555
Co9 O25 1.975510 1_555
Co9 O0 1.975510 1_655
Co10 O26 1.912831 1_555
Co10 O29 1.912831 1_565
Co10 O22 1.954760 1_555
Co10 O1 1.954760 1_655
Co10 O28 1.975510 1_555
Co10 O27 1.975510 1_555
Co11 O26 1.912831 1_555
Co11 O2 1.912831 1_655
Co11 O28 1.954760 1_555
Co11 O31 1.954760 1_556
Co11 O23 1.975510 1_555
Co11 O30 1.975510 1_555
