# generated using pymatgen
data_Li2CuBiO4
_symmetry_space_group_name_H-M   'P 1'
_cell_length_a   5.59373413
_cell_length_b   5.59373413
_cell_length_c   5.59373413
_cell_angle_alpha   134.23035197
_cell_angle_beta   134.23035197
_cell_angle_gamma   66.72843988
_symmetry_Int_Tables_number   1
_chemical_formula_structural   Li2CuBiO4
_chemical_formula_sum   'Li2 Cu1 Bi1 O4'
_cell_volume   88.42653045
_cell_formula_units_Z   1
loop_
 _symmetry_equiv_pos_site_id
 _symmetry_equiv_pos_as_xyz
  1  'x, y, z'
loop_
 _atom_site_type_symbol
 _atom_site_label
 _atom_site_symmetry_multiplicity
 _atom_site_fract_x
 _atom_site_fract_y
 _atom_site_fract_z
 _atom_site_occupancy
  Li  Li0  1  0.25000000  0.75000000  0.50000000  1
  Li  Li1  1  0.50000000  0.50000000  0.00000000  1
  Cu  Cu0  1  0.75000000  0.25000000  0.50000000  1
  Bi  Bi0  1  0.00000000  0.00000000  0.00000000  1
  O  O0  1  0.99793700  0.49793700  0.50000000  1
  O  O1  1  0.23831200  0.23831200  0.00000000  1
  O  O2  1  0.76168800  0.76168800  0.00000000  1
  O  O3  1  0.50206300  0.00206300  0.50000000  1
loop_
_geom_bond_atom_site_label_1
_geom_bond_atom_site_label_2
_geom_bond_distance
_geom_bond_site_symmetry_2
Li0 O2 2.178031 1_455
Li0 O2 2.178031 1_556
Li0 O1 2.178031 1_555
Li0 O1 2.178031 1_566
Li0 O3 2.355196 1_565
Li0 O0 2.355196 1_455
Li1 O0 2.175376 1_454
Li1 O3 2.175376 1_565
Li1 O3 2.175376 1_554
Li1 O0 2.175376 1_555
Li1 O2 2.445128 1_555
Li1 O1 2.445128 1_555
Cu0 O2 2.178031 1_556
Cu0 O2 2.178031 1_545
Cu0 O1 2.178031 1_555
Cu0 O1 2.178031 1_656
Cu0 O0 2.316643 1_555
Cu0 O3 2.316643 1_555
Bi0 O0 2.175376 1_455
Bi0 O3 2.175376 1_454
Bi0 O3 2.175376 1_555
Bi0 O0 2.175376 1_444
Bi0 O1 2.226711 1_555
Bi0 O2 2.226711 1_445
