# generated using pymatgen
data_Li3Fe(CO3)3
_symmetry_space_group_name_H-M   'P 1'
_cell_length_a   5.98093026
_cell_length_b   5.98093026
_cell_length_c   10.00275900
_cell_angle_alpha   90.00000000
_cell_angle_beta   90.00000000
_cell_angle_gamma   105.38044987
_symmetry_Int_Tables_number   1
_chemical_formula_structural   Li3Fe(CO3)3
_chemical_formula_sum   'Li6 Fe2 C6 O18'
_cell_volume   344.99919776
_cell_formula_units_Z   2
loop_
 _symmetry_equiv_pos_site_id
 _symmetry_equiv_pos_as_xyz
  1  'x, y, z'
loop_
 _atom_site_type_symbol
 _atom_site_label
 _atom_site_symmetry_multiplicity
 _atom_site_fract_x
 _atom_site_fract_y
 _atom_site_fract_z
 _atom_site_occupancy
  Li  Li0  1  0.08728000  0.08728000  0.00000000  1
  Li  Li1  1  0.35081600  0.39386600  0.25000000  1
  Li  Li2  1  0.19550500  0.75192300  0.25000000  1
  Li  Li3  1  0.08728000  0.08728000  0.50000000  1
  Li  Li4  1  0.75192300  0.19550500  0.75000000  1
  Li  Li5  1  0.39386600  0.35081600  0.75000000  1
  Fe  Fe0  1  0.68830800  0.15232700  0.25000000  1
  Fe  Fe1  1  0.15232700  0.68830800  0.75000000  1
  C  C0  1  0.55994300  0.15323800  0.01125800  1
  C  C1  1  0.74445700  0.73519900  0.25000000  1
  C  C2  1  0.55994300  0.15323800  0.48874200  1
  C  C3  1  0.15323800  0.55994300  0.51125800  1
  C  C4  1  0.73519900  0.74445700  0.75000000  1
  C  C5  1  0.15323800  0.55994300  0.98874200  1
  O  O0  1  0.76392100  0.13693700  0.05230000  1
  O  O1  1  0.41331400  0.15488500  0.10951300  1
  O  O2  1  0.16525700  0.50962200  0.11044100  1
  O  O3  1  0.73262700  0.51772900  0.25000000  1
  O  O4  1  0.93643100  0.90018000  0.25000000  1
  O  O5  1  0.55262400  0.80153200  0.25000000  1
  O  O6  1  0.16525700  0.50962200  0.38955900  1
  O  O7  1  0.41331400  0.15488500  0.39048700  1
  O  O8  1  0.76392100  0.13693700  0.44770000  1
  O  O9  1  0.13693700  0.76392100  0.55230000  1
  O  O10  1  0.15488500  0.41331400  0.60951300  1
  O  O11  1  0.50962200  0.16525700  0.61044100  1
  O  O12  1  0.80153200  0.55262400  0.75000000  1
  O  O13  1  0.51772900  0.73262700  0.75000000  1
  O  O14  1  0.90018000  0.93643100  0.75000000  1
  O  O15  1  0.50962200  0.16525700  0.88955900  1
  O  O16  1  0.15488500  0.41331400  0.89048700  1
  O  O17  1  0.13693700  0.76392100  0.94770000  1
loop_
_geom_bond_atom_site_label_1
_geom_bond_atom_site_label_2
_geom_bond_distance
_geom_bond_site_symmetry_2
Li0 O17 2.099257 1_544
Li0 O0 2.099257 1_455
Li0 O1 2.178915 1_555
Li0 O16 2.178915 1_554
Li1 O2 2.016763 1_555
Li1 O6 2.016763 1_555
Li1 O7 2.107335 1_555
Li1 O1 2.107335 1_555
Li1 O3 2.205944 1_555
Li1 O5 2.416750 1_555
Li2 O4 1.978902 1_455
Li2 O6 1.985584 1_555
Li2 O2 1.985584 1_555
Li2 O5 2.077005 1_555
Li3 O8 2.099257 1_455
Li3 O9 2.099257 1_545
Li3 O10 2.178915 1_555
Li3 O7 2.178915 1_555
Li4 O14 1.978902 1_545
Li4 O11 1.985584 1_555
Li4 O15 1.985584 1_555
Li4 O12 2.077005 1_555
Li5 O15 2.016763 1_555
Li5 O11 2.016763 1_555
Li5 O16 2.107335 1_555
Li5 O10 2.107335 1_555
Li5 O13 2.205944 1_555
Li5 O12 2.416750 1_555
Fe0 O0 2.036113 1_555
Fe0 O8 2.036113 1_555
Fe0 O5 2.038954 1_545
Fe0 O3 2.130525 1_555
Fe0 O7 2.166434 1_555
Fe0 O1 2.166434 1_555
Fe0 O4 2.379856 1_545
Fe1 O9 2.036113 1_555
Fe1 O17 2.036113 1_555
Fe1 O12 2.038954 1_455
Fe1 O13 2.130525 1_555
Fe1 O16 2.166434 1_555
Fe1 O10 2.166434 1_555
Fe1 O14 2.379856 1_455
C0 O15 1.260598 1_554
C0 O0 1.315098 1_555
C0 O1 1.318979 1_555
C1 O3 1.283721 1_555
C1 O4 1.300384 1_555
C1 O5 1.309672 1_555
C2 O11 1.260598 1_555
C2 O8 1.315098 1_555
C2 O7 1.318979 1_555
C3 O6 1.260598 1_555
C3 O9 1.315098 1_555
C3 O10 1.318979 1_555
C4 O13 1.283721 1_555
C4 O14 1.300384 1_555
C4 O12 1.309672 1_555
C5 O2 1.260598 1_556
C5 O17 1.315098 1_555
C5 O16 1.318979 1_555
