# generated using pymatgen
data_Mn6O5F7
_symmetry_space_group_name_H-M   'P 1'
_cell_length_a   5.11636500
_cell_length_b   5.69554949
_cell_length_c   14.68418210
_cell_angle_alpha   90.60935891
_cell_angle_beta   91.61911724
_cell_angle_gamma   90.07192720
_symmetry_Int_Tables_number   1
_chemical_formula_structural   Mn6O5F7
_chemical_formula_sum   'Mn12 O10 F14'
_cell_volume   427.70900393
_cell_formula_units_Z   2
loop_
 _symmetry_equiv_pos_site_id
 _symmetry_equiv_pos_as_xyz
  1  'x, y, z'
loop_
 _atom_site_type_symbol
 _atom_site_label
 _atom_site_symmetry_multiplicity
 _atom_site_fract_x
 _atom_site_fract_y
 _atom_site_fract_z
 _atom_site_occupancy
  Mn  Mn0  1  0.96053500  0.88855800  0.00569100  1
  Mn  Mn1  1  0.51168400  0.14558700  0.17227200  1
  Mn  Mn2  1  0.01032500  0.88063500  0.33332100  1
  Mn  Mn3  1  0.50467300  0.08046100  0.51395000  1
  Mn  Mn4  1  0.04532300  0.88499500  0.66472100  1
  Mn  Mn5  1  0.50793200  0.03392300  0.82118000  1
  Mn  Mn6  1  0.01272300  0.47698600  0.16768200  1
  Mn  Mn7  1  0.48205200  0.49103700  0.00151800  1
  Mn  Mn8  1  0.51541100  0.56941600  0.66204900  1
  Mn  Mn9  1  0.04859400  0.42431100  0.49168200  1
  Mn  Mn10  1  0.50723400  0.58777400  0.32941300  1
  Mn  Mn11  1  0.95993900  0.58012300  0.82591900  1
  O  O0  1  0.35662100  0.84946400  0.59322800  1
  O  O1  1  0.73942200  0.79508200  0.74489900  1
  O  O2  1  0.18126500  0.60791200  0.06628400  1
  O  O3  1  0.82599400  0.63801000  0.26432900  1
  O  O4  1  0.75463800  0.67062500  0.93374400  1
  O  O5  1  0.21288200  0.64589400  0.73599300  1
  O  O6  1  0.19574700  0.63937400  0.39594500  1
  O  O7  1  0.35538700  0.35543100  0.57447800  1
  O  O8  1  0.32693500  0.39009700  0.23634200  1
  O  O9  1  0.68802100  0.38172100  0.10378300  1
  F  F0  1  0.34465700  0.90054300  0.24697000  1
  F  F1  1  0.68515400  0.89506200  0.09852300  1
  F  F2  1  0.66533700  0.84208700  0.41829300  1
  F  F3  1  0.21484800  0.89264800  0.90888800  1
  F  F4  1  0.83683400  0.59277600  0.58695900  1
  F  F5  1  0.24211800  0.41658100  0.89808100  1
  F  F6  1  0.68122900  0.33894700  0.42822600  1
  F  F7  1  0.67639100  0.33729100  0.75471300  1
  F  F8  1  0.17640600  0.12119200  0.41560900  1
  F  F9  1  0.17453100  0.11326600  0.07835400  1
  F  F10  1  0.17809300  0.13989600  0.75147700  1
  F  F11  1  0.87386600  0.09766300  0.57819200  1
  F  F12  1  0.70159300  0.16339400  0.93773400  1
  F  F13  1  0.84560800  0.13124100  0.25956200  1
loop_
_geom_bond_atom_site_label_1
_geom_bond_atom_site_label_2
_geom_bond_distance
_geom_bond_site_symmetry_2
Mn0 O4 1.916384 1_554
Mn0 O2 2.144774 1_655
Mn1 O9 1.926449 1_555
Mn1 O8 1.934864 1_555
Mn2 O6 1.901231 1_555
Mn2 O3 1.933483 1_455
Mn3 O0 1.933869 1_545
Mn3 O7 1.959033 1_555
Mn4 O5 1.915029 1_555
Mn4 O0 1.941799 1_555
Mn4 O1 2.052531 1_455
Mn5 O1 2.134141 1_545
Mn6 O2 1.900311 1_555
Mn6 O8 1.940844 1_555
Mn6 O3 1.954242 1_455
Mn6 O9 1.957941 1_455
Mn7 O9 1.919717 1_555
Mn7 O2 1.946207 1_555
Mn7 O4 2.019459 1_554
Mn8 O7 1.927159 1_555
Mn8 O5 1.962436 1_555
Mn8 O0 2.053428 1_555
Mn8 O1 2.080840 1_555
Mn9 O7 1.999938 1_555
Mn9 O6 2.034128 1_555
Mn10 O6 1.914082 1_555
Mn10 O3 1.935917 1_555
Mn10 O8 1.969715 1_555
Mn11 O5 1.914345 1_655
Mn11 O4 1.988446 1_555
Mn11 O1 2.036144 1_555
F0 Mn1 1.990940 1_565
F0 Mn2 2.161443 1_555
F0 Mn10 2.307273 1_555
F1 Mn0 1.988043 1_555
F1 Mn1 2.005267 1_565
F2 Mn10 2.086362 1_555
F2 Mn3 2.125910 1_565
F2 Mn2 2.202250 1_655
F3 Mn0 1.954300 1_456
F3 Mn5 2.164002 1_565
F3 Mn11 2.492378 1_455
F4 Mn8 2.010718 1_555
F4 Mn9 2.027704 1_655
F4 Mn4 2.257891 1_655
F5 Mn7 1.968110 1_556
F5 Mn11 2.003181 1_455
F6 Mn9 2.127564 1_655
F6 Mn3 2.160627 1_555
F6 Mn10 2.209128 1_555
F7 Mn8 2.062867 1_555
F7 Mn5 2.181879 1_555
F7 Mn11 2.233665 1_555
F8 Mn2 1.990763 1_545
F8 Mn9 2.158501 1_555
F8 Mn3 2.197953 1_555
F9 Mn0 1.968920 1_445
F9 Mn1 2.184219 1_555
F9 Mn6 2.589457 1_555
F10 Mn4 2.025187 1_545
F10 Mn5 2.043997 1_555
F11 Mn4 1.955392 1_645
F11 Mn3 2.089116 1_555
F11 Mn9 2.446309 1_655
F12 Mn5 2.080927 1_555
F12 Mn0 2.272667 1_546
F12 Mn7 2.376728 1_556
F13 Mn2 1.976091 1_645
F13 Mn1 2.108877 1_555
F13 Mn6 2.558634 1_655
