# generated using pymatgen
data_Hf2N2O
_symmetry_space_group_name_H-M   'P 1'
_cell_length_a   8.63753381
_cell_length_b   8.67437168
_cell_length_c   8.69275928
_cell_angle_alpha   109.39200814
_cell_angle_beta   109.48256254
_cell_angle_gamma   109.37617451
_symmetry_Int_Tables_number   1
_chemical_formula_structural   Hf2N2O
_chemical_formula_sum   'Hf16 N16 O8'
_cell_volume   502.38117524
_cell_formula_units_Z   8
loop_
 _symmetry_equiv_pos_site_id
 _symmetry_equiv_pos_as_xyz
  1  'x, y, z'
loop_
 _atom_site_type_symbol
 _atom_site_label
 _atom_site_symmetry_multiplicity
 _atom_site_fract_x
 _atom_site_fract_y
 _atom_site_fract_z
 _atom_site_occupancy
  Hf  Hf0  1  0.99810024  0.00928762  0.49983472  1
  Hf  Hf1  1  0.25158591  0.70751776  0.46489069  1
  Hf  Hf2  1  0.77904880  0.53056792  0.25162203  1
  Hf  Hf3  1  0.28501296  0.04202175  0.24915634  1
  Hf  Hf4  1  0.74039044  0.78612697  0.03409038  1
  Hf  Hf5  1  0.03169623  0.25987278  0.28440971  1
  Hf  Hf6  1  0.53444179  0.25299456  0.78361210  1
  Hf  Hf7  1  0.96688734  0.74196854  0.71510085  1
  Hf  Hf8  1  0.00333223  0.49028098  0.99489001  1
  Hf  Hf9  1  0.49989954  0.99986388  0.00210795  1
  Hf  Hf10  1  0.46736881  0.74206699  0.21285872  1
  Hf  Hf11  1  0.48979994  0.49042223  0.48900699  1
  Hf  Hf12  1  0.25844175  0.21596506  0.96730659  1
  Hf  Hf13  1  0.21503685  0.46258784  0.74975881  1
  Hf  Hf14  1  0.71551800  0.96923055  0.75074784  1
  Hf  Hf15  1  0.75523377  0.29240736  0.54221100  1
  N  N0  1  0.73192629  0.76064333  0.27095877  1
  N  N1  1  0.22778914  0.95530786  0.96549481  1
  N  N2  1  0.53846723  0.27346781  0.04395099  1
  N  N3  1  0.51246736  0.74547160  0.47079248  1
  N  N4  1  0.99016437  0.46483144  0.23092980  1
  N  N5  1  0.26761570  0.23170484  0.72411995  1
  N  N6  1  0.48735853  0.25836334  0.53106476  1
  N  N7  1  0.25771492  0.27143408  0.22781904  1
  N  N8  1  0.77479548  0.22610279  0.76761051  1
  N  N9  1  0.77353112  0.04149177  0.03109082  1
  N  N10  1  0.46713290  0.72933229  0.95508108  1
  N  N11  1  0.24113039  0.46726157  0.01787803  1
  N  N12  1  0.00951107  0.54444970  0.77502707  1
  N  N13  1  0.73098939  0.49389274  0.45728528  1
  N  N14  1  0.27448401  0.51673883  0.54918590  1
  N  N15  1  0.94587271  0.21888347  0.48120910  1
  O  O0  1  0.95843663  0.00207292  0.72963757  1
  O  O1  1  0.03894684  0.98447400  0.26631874  1
  O  O2  1  0.45053871  0.96531715  0.72834250  1
  O  O3  1  0.05724884  0.78231463  0.52357232  1
  O  O4  1  0.74820049  0.72928555  0.77809986  1
  O  O5  1  0.75701327  0.53517924  0.97719991  1
  O  O6  1  0.54077112  0.03210309  0.26945507  1
  O  O7  1  0.22609291  0.77669317  0.23627493  1
loop_
_geom_bond_atom_site_label_1
_geom_bond_atom_site_label_2
_geom_bond_distance
_geom_bond_site_symmetry_2
Hf0 N15 2.055780 1_555
Hf0 N5 2.106477 1_655
Hf0 O1 2.128206 1_645
Hf0 O0 2.153387 1_555
Hf0 N0 2.169109 1_545
Hf0 O3 2.246522 1_645
Hf1 N14 2.059241 1_555
Hf1 O3 2.138429 1_555
Hf1 N4 2.146185 1_455
Hf1 N3 2.146654 1_555
Hf1 O2 2.150047 1_555
Hf1 O7 2.223866 1_555
Hf2 N13 2.062712 1_555
Hf2 N2 2.073623 1_555
Hf2 N4 2.126819 1_555
Hf2 N0 2.130457 1_555
Hf2 O3 2.330722 1_655
Hf2 O5 2.343912 1_554
Hf3 O1 2.084647 1_545
Hf3 N6 2.120029 1_555
Hf3 N7 2.139488 1_555
Hf3 O7 2.140642 1_545
Hf3 N1 2.144514 1_544
Hf3 O6 2.189733 1_555
Hf4 N10 2.051276 1_554
Hf4 O5 2.131568 1_554
Hf4 O4 2.143143 1_554
Hf4 N9 2.147559 1_565
Hf4 N0 2.164670 1_555
Hf4 O1 2.227687 1_655
Hf5 N4 2.089618 1_455
Hf5 N9 2.135790 1_455
Hf5 N7 2.146337 1_555
Hf5 N15 2.162752 1_455
Hf5 N14 2.221332 1_555
Hf5 O1 2.364724 1_545
Hf6 N6 2.114703 1_555
Hf6 N5 2.114806 1_555
Hf6 O5 2.122158 1_555
Hf6 O2 2.180544 1_545
Hf6 N2 2.197893 1_556
Hf6 N8 2.208216 1_555
Hf7 N12 2.055675 1_655
Hf7 O4 2.114743 1_555
Hf7 N1 2.127640 1_655
Hf7 O3 2.139176 1_655
Hf7 N13 2.155713 1_555
Hf7 O0 2.244555 1_565
Hf8 N11 2.079310 1_556
Hf8 N8 2.107565 1_455
Hf8 N12 2.127001 1_555
Hf8 N4 2.170601 1_456
Hf8 O7 2.225015 1_556
Hf8 O5 2.252402 1_455
Hf9 O6 2.135272 1_565
Hf9 N1 2.142768 1_554
Hf9 N10 2.144589 1_554
Hf9 N2 2.167334 1_565
Hf9 O2 2.167895 1_554
Hf9 N9 2.180848 1_565
Hf10 N11 2.095365 1_555
Hf10 N0 2.105856 1_555
Hf10 N3 2.132058 1_555
Hf10 N10 2.205860 1_554
Hf10 O6 2.210261 1_565
Hf10 O7 2.265510 1_555
Hf11 N7 2.086907 1_555
Hf11 N14 2.153135 1_555
Hf11 N6 2.156807 1_555
Hf11 N13 2.182681 1_555
Hf11 N3 2.219000 1_555
Hf11 O4 2.307011 1_555
Hf12 N2 2.108745 1_556
Hf12 N11 2.142682 1_556
Hf12 N7 2.155865 1_556
Hf12 N1 2.181511 1_545
Hf12 N5 2.188603 1_555
Hf12 O0 2.262496 1_455
Hf13 N14 2.122544 1_555
Hf13 N10 2.145443 1_555
Hf13 N5 2.154443 1_555
Hf13 N12 2.167240 1_555
Hf13 N11 2.250639 1_556
Hf13 N15 2.272707 1_455
Hf14 N8 2.055378 1_565
Hf14 O0 2.100541 1_565
Hf14 N3 2.126777 1_555
Hf14 N9 2.131997 1_566
Hf14 O2 2.219066 1_555
Hf14 O4 2.267611 1_555
Hf15 N15 2.110475 1_555
Hf15 N12 2.147138 1_655
Hf15 N13 2.154079 1_555
Hf15 N8 2.188691 1_555
Hf15 N6 2.197329 1_555
Hf15 O6 2.211634 1_555
