# generated using pymatgen
data_Li3Fe8(BO3)8
_symmetry_space_group_name_H-M   'P 1'
_cell_length_a   5.23560900
_cell_length_b   5.26274032
_cell_length_c   20.13812686
_cell_angle_alpha   90.06500702
_cell_angle_beta   90.52528554
_cell_angle_gamma   119.20223626
_symmetry_Int_Tables_number   1
_chemical_formula_structural   Li3Fe8(BO3)8
_chemical_formula_sum   'Li3 Fe8 B8 O24'
_cell_volume   484.32513580
_cell_formula_units_Z   1
loop_
 _symmetry_equiv_pos_site_id
 _symmetry_equiv_pos_as_xyz
  1  'x, y, z'
loop_
 _atom_site_type_symbol
 _atom_site_label
 _atom_site_symmetry_multiplicity
 _atom_site_fract_x
 _atom_site_fract_y
 _atom_site_fract_z
 _atom_site_occupancy
  Li  Li0  1  0.67449500  0.64978200  0.32885500  1
  Li  Li1  1  0.64377300  0.67017800  0.07981500  1
  Li  Li2  1  0.34065000  0.34989100  0.45669600  1
  Fe  Fe0  1  0.01319700  0.67371900  0.18888500  1
  Fe  Fe1  1  0.99781100  0.67196100  0.69056600  1
  Fe  Fe2  1  0.31472300  0.01141900  0.06147300  1
  Fe  Fe3  1  0.32703600  0.99557100  0.56706700  1
  Fe  Fe4  1  0.68016000  0.00637100  0.44023200  1
  Fe  Fe5  1  0.67444000  0.00152300  0.93907200  1
  Fe  Fe6  1  0.00994000  0.32037600  0.31208500  1
  Fe  Fe7  1  0.00064800  0.32729500  0.81445600  1
  B  B0  1  0.99695100  0.34328600  0.06345500  1
  B  B1  1  0.99921200  0.33722200  0.56539100  1
  B  B2  1  0.66905300  0.00832100  0.18661200  1
  B  B3  1  0.65915700  0.00298800  0.68928500  1
  B  B4  1  0.34308200  0.99813400  0.31352500  1
  B  B5  1  0.34219500  0.99894700  0.81327000  1
  B  B6  1  0.00316400  0.66464100  0.44072300  1
  B  B7  1  0.00280600  0.66265200  0.93692400  1
  O  O0  1  0.89246900  0.27313200  0.20954100  1
  O  O1  1  0.87767900  0.26979400  0.71456500  1
  O  O2  1  0.74364300  0.09001000  0.04104500  1
  O  O3  1  0.96929900  0.58345200  0.08521200  1
  O  O4  1  0.72798700  0.11127700  0.54611200  1
  O  O5  1  0.01587200  0.59605800  0.58868600  1
  O  O6  1  0.39982600  0.98180600  0.16876500  1
  O  O7  1  0.73958700  0.66090200  0.43233400  1
  O  O8  1  0.39714600  0.99087100  0.66726200  1
  O  O9  1  0.76127300  0.69606100  0.93828100  1
  O  O10  1  0.71030100  0.77131100  0.17900300  1
  O  O11  1  0.70075500  0.76937100  0.68594200  1
  O  O12  1  0.35313200  0.26223000  0.31797600  1
  O  O13  1  0.29899900  0.23175200  0.81499700  1
  O  O14  1  0.26188200  0.35582800  0.06417700  1
  O  O15  1  0.58790200  0.97305200  0.33153800  1
  O  O16  1  0.24621000  0.31105500  0.55882300  1
  O  O17  1  0.60208300  0.01103900  0.83548100  1
  O  O18  1  0.02634900  0.42046100  0.42404900  1
  O  O19  1  0.98480300  0.40081400  0.91447800  1
  O  O20  1  0.25252000  0.91597000  0.46499500  1
  O  O21  1  0.27258100  0.88336000  0.95881200  1
  O  O22  1  0.08155100  0.74694300  0.29248400  1
  O  O23  1  0.12344100  0.73020400  0.78775600  1
loop_
_geom_bond_atom_site_label_1
_geom_bond_atom_site_label_2
_geom_bond_distance
_geom_bond_site_symmetry_2
Li0 O12 1.918976 1_555
Li0 O15 1.963596 1_555
Li0 O22 2.075090 1_655
Li0 O7 2.104599 1_555
Li1 O14 1.895618 1_555
Li1 O3 1.969930 1_555
Li1 O10 2.048995 1_555
Li1 O2 2.156110 1_565
Li2 O18 1.963440 1_555
Li2 O7 1.991729 1_555
Li2 O20 2.104715 1_545
Li2 O16 2.106428 1_555
Fe0 O10 1.899345 1_455
Fe0 O6 1.924714 1_555
Fe0 O0 1.929646 1_455
Fe0 O22 2.116387 1_555
Fe0 O3 2.125967 1_455
Fe1 O11 1.861661 1_555
Fe1 O1 1.953885 1_555
Fe1 O8 2.001021 1_655
Fe1 O23 2.033622 1_655
Fe1 O5 2.101529 1_655
Fe2 O14 1.963197 1_555
Fe2 O2 2.119972 1_555
Fe2 O3 2.148407 1_445
Fe2 O21 2.149511 1_544
Fe2 O6 2.223092 1_545
Fe3 O16 1.910024 1_565
Fe3 O4 1.930054 1_565
Fe3 O5 1.984181 1_555
Fe3 O8 2.049882 1_555
Fe3 O20 2.092081 1_555
Fe4 O7 1.994963 1_545
Fe4 O18 2.073329 1_655
Fe4 O20 2.114132 1_545
Fe4 O4 2.183239 1_555
Fe4 O15 2.225402 1_545
Fe5 O9 1.872011 1_545
Fe5 O21 1.926305 1_545
Fe5 O19 1.996663 1_555
Fe5 O2 2.093975 1_556
Fe5 O17 2.121842 1_555
Fe6 O12 1.966971 1_555
Fe6 O15 2.110310 1_445
Fe6 O22 2.125896 1_555
Fe6 O0 2.128573 1_455
Fe6 O18 2.306142 1_555
Fe7 O13 1.859853 1_555
Fe7 O23 1.969080 1_555
Fe7 O17 1.983090 1_455
Fe7 O19 2.060685 1_455
Fe7 O1 2.082653 1_455
B0 O14 1.356037 1_655
B0 O3 1.410289 1_555
B0 O2 1.414896 1_555
B1 O16 1.373191 1_655
B1 O4 1.386482 1_555
B1 O5 1.401817 1_655
B2 O10 1.374391 1_545
B2 O0 1.386222 1_555
B2 O6 1.390752 1_545
B3 O11 1.350894 1_545
B3 O1 1.399946 1_555
B3 O8 1.409249 1_545
B4 O12 1.367775 1_565
B4 O15 1.395943 1_555
B4 O22 1.422609 1_555
B5 O13 1.350510 1_565
B5 O17 1.399939 1_565
B5 O23 1.408185 1_555
B6 O7 1.379315 1_455
B6 O18 1.389545 1_555
B6 O20 1.412322 1_555
B7 O9 1.359553 1_455
B7 O21 1.387435 1_555
B7 O19 1.408232 1_455
