# generated using pymatgen
data_Li13Ni15O28
_symmetry_space_group_name_H-M   'P 1'
_cell_length_a   7.67451000
_cell_length_b   8.27517661
_cell_length_c   8.64331034
_cell_angle_alpha   104.21361952
_cell_angle_beta   104.38228263
_cell_angle_gamma   105.06017495
_symmetry_Int_Tables_number   1
_chemical_formula_structural   Li13Ni15O28
_chemical_formula_sum   'Li13 Ni15 O28'
_cell_volume   484.42066998
_cell_formula_units_Z   1
loop_
 _symmetry_equiv_pos_site_id
 _symmetry_equiv_pos_as_xyz
  1  'x, y, z'
loop_
 _atom_site_type_symbol
 _atom_site_label
 _atom_site_symmetry_multiplicity
 _atom_site_fract_x
 _atom_site_fract_y
 _atom_site_fract_z
 _atom_site_occupancy
  Li  Li0  1  0.92969400  0.78466300  0.21417300  1
  Li  Li1  1  0.21648800  0.64463300  0.35836900  1
  Li  Li2  1  0.00000000  0.50000000  0.00000000  1
  Li  Li3  1  0.85664000  0.07063200  0.42684500  1
  Li  Li4  1  0.14336000  0.92936800  0.57315500  1
  Li  Li5  1  0.78351200  0.35536700  0.64163100  1
  Li  Li6  1  0.28142300  0.35639400  0.14161700  1
  Li  Li7  1  0.42929000  0.78885900  0.71372800  1
  Li  Li8  1  0.07030600  0.21533700  0.78582700  1
  Li  Li9  1  0.57071000  0.21114100  0.28627200  1
  Li  Li10  1  0.71857700  0.64360600  0.85838300  1
  Li  Li11  1  0.35515600  0.06746200  0.92675200  1
  Li  Li12  1  0.64484400  0.93253800  0.07324800  1
  Ni  Ni0  1  0.85538600  0.56977600  0.42869300  1
  Ni  Ni1  1  0.14461400  0.43022400  0.57130700  1
  Ni  Ni2  1  0.57386400  0.71699200  0.28718500  1
  Ni  Ni3  1  0.50000000  0.50000000  0.50000000  1
  Ni  Ni4  1  0.06993800  0.71391000  0.78802700  1
  Ni  Ni5  1  0.93006200  0.28609000  0.21197300  1
  Ni  Ni6  1  0.21223600  0.14197200  0.35724200  1
  Ni  Ni7  1  0.35972500  0.57343300  0.93031900  1
  Ni  Ni8  1  0.50000000  0.00000000  0.50000000  1
  Ni  Ni9  1  0.64027500  0.42656700  0.06968100  1
  Ni  Ni10  1  0.00000000  0.00000000  0.00000000  1
  Ni  Ni11  1  0.78776400  0.85802800  0.64275800  1
  Ni  Ni12  1  0.42613600  0.28300800  0.71281500  1
  Ni  Ni13  1  0.28712800  0.85494200  0.14466200  1
  Ni  Ni14  1  0.71287200  0.14505800  0.85533800  1
  O  O0  1  0.78832900  0.60515000  0.63140900  1
  O  O1  1  0.83828400  0.81143600  0.41768900  1
  O  O2  1  0.11769200  0.67478900  0.57534500  1
  O  O3  1  0.50935500  0.75026300  0.49297100  1
  O  O4  1  0.88230800  0.32521100  0.42465500  1
  O  O5  1  0.00560000  0.74622100  0.99083400  1
  O  O6  1  0.91328300  0.51744300  0.21752900  1
  O  O7  1  0.16171600  0.18856400  0.58231100  1
  O  O8  1  0.35768200  0.80776900  0.94525000  1
  O  O9  1  0.30960900  0.62596500  0.15468900  1
  O  O10  1  0.21167100  0.39485000  0.36859100  1
  O  O11  1  0.93398000  0.05078200  0.20298600  1
  O  O12  1  0.99440000  0.25377900  0.00916600  1
  O  O13  1  0.49064500  0.24973700  0.50702900  1
  O  O14  1  0.58910000  0.46761300  0.29323800  1
  O  O15  1  0.63293100  0.65957800  0.07698500  1
  O  O16  1  0.08671700  0.48255700  0.78247100  1
  O  O17  1  0.22991000  0.89707100  0.34905200  1
  O  O18  1  0.41090000  0.53238700  0.70676200  1
  O  O19  1  0.36706900  0.34042200  0.92301500  1
  O  O20  1  0.26610900  0.08530100  0.13265000  1
  O  O21  1  0.64231800  0.19223100  0.05475000  1
  O  O22  1  0.56700500  0.96729800  0.29985900  1
  O  O23  1  0.06602000  0.94921800  0.79701400  1
  O  O24  1  0.69039100  0.37403500  0.84531100  1
  O  O25  1  0.43299500  0.03270200  0.70014100  1
  O  O26  1  0.73389100  0.91469900  0.86735000  1
  O  O27  1  0.77009000  0.10292900  0.65094800  1
loop_
_geom_bond_atom_site_label_1
_geom_bond_atom_site_label_2
_geom_bond_distance
_geom_bond_site_symmetry_2
Li0 O1 2.034186 1_555
Li0 O15 2.120163 1_555
Li0 O5 2.126108 1_654
Li0 O17 2.133585 1_655
Li0 O6 2.189773 1_555
Li0 O11 2.220032 1_565
Li1 O9 2.045162 1_555
Li1 O10 2.081646 1_555
Li1 O3 2.085653 1_555
Li1 O17 2.087055 1_555
Li1 O6 2.166846 1_455
Li1 O2 2.174660 1_555
Li2 O5 2.048189 1_554
Li2 O12 2.048189 1_455
Li2 O6 2.130032 1_455
Li2 O16 2.130032 1_554
Li2 O9 2.229415 1_555
Li2 O24 2.229415 1_454
Li3 O22 2.053317 1_545
Li3 O4 2.069557 1_555
Li3 O1 2.093026 1_545
Li3 O11 2.142000 1_555
Li3 O27 2.177558 1_555
Li3 O7 2.201242 1_655
Li4 O25 2.053317 1_565
Li4 O2 2.069557 1_555
Li4 O7 2.093026 1_565
Li4 O23 2.142000 1_555
Li4 O17 2.177558 1_555
Li4 O1 2.201242 1_455
Li5 O24 2.045162 1_555
Li5 O0 2.081646 1_555
Li5 O13 2.085653 1_555
Li5 O27 2.087055 1_555
Li5 O16 2.166846 1_655
Li5 O4 2.174660 1_555
Li6 O12 2.044907 1_455
Li6 O10 2.130767 1_555
Li6 O19 2.135175 1_554
Li6 O9 2.156181 1_555
Li6 O20 2.196699 1_555
Li6 O14 2.209336 1_555
Li7 O25 2.043161 1_565
Li7 O18 2.074918 1_555
Li7 O3 2.122608 1_555
Li7 O8 2.183621 1_555
Li7 O26 2.196839 1_555
Li7 O2 2.211751 1_555
Li8 O7 2.034186 1_555
Li8 O19 2.120163 1_555
Li8 O12 2.126108 1_456
Li8 O27 2.133585 1_455
Li8 O16 2.189773 1_555
Li8 O23 2.220032 1_545
Li9 O22 2.043161 1_545
Li9 O14 2.074918 1_555
Li9 O13 2.122608 1_555
Li9 O21 2.183621 1_555
Li9 O20 2.196839 1_555
Li9 O4 2.211751 1_555
Li10 O5 2.044907 1_655
Li10 O0 2.130767 1_555
Li10 O15 2.135175 1_556
Li10 O24 2.156181 1_555
Li10 O26 2.196699 1_555
Li10 O18 2.209336 1_555
Li11 O20 2.045368 1_556
Li11 O21 2.047490 1_556
Li11 O23 2.058027 1_545
Li11 O25 2.160988 1_555
Li11 O8 2.198409 1_545
Li11 O19 2.245333 1_555
Li12 O26 2.045368 1_554
Li12 O8 2.047490 1_554
Li12 O11 2.058027 1_565
Li12 O22 2.160988 1_555
Li12 O21 2.198409 1_565
Li12 O15 2.245333 1_555
Ni0 O14 1.920758 1_555
Ni0 O0 1.922207 1_555
Ni0 O2 1.922676 1_655
Ni0 O6 1.957266 1_555
Ni0 O1 2.061307 1_555
Ni0 O4 2.079890 1_555
Ni1 O18 1.920758 1_555
Ni1 O10 1.922207 1_555
Ni1 O4 1.922676 1_455
Ni1 O16 1.957266 1_555
Ni1 O7 2.061307 1_555
Ni1 O2 2.079890 1_555
Ni2 O1 1.899200 1_555
Ni2 O9 1.902770 1_555
Ni2 O3 1.937106 1_555
Ni2 O15 1.956844 1_555
Ni2 O22 2.062344 1_555
Ni2 O14 2.109611 1_555
Ni3 O18 2.049457 1_555
Ni3 O14 2.049457 1_555
Ni3 O0 2.051619 1_555
Ni3 O10 2.051619 1_555
Ni3 O13 2.069892 1_555
Ni3 O3 2.069892 1_555
Ni4 O5 1.912186 1_555
Ni4 O2 1.929371 1_555
Ni4 O23 1.938013 1_555
Ni4 O16 1.941696 1_555
Ni4 O0 2.061758 1_455
Ni4 O8 2.103823 1_555
Ni5 O12 1.912186 1_555
Ni5 O4 1.929371 1_555
Ni5 O11 1.938013 1_555
Ni5 O6 1.941696 1_555
Ni5 O10 2.061758 1_655
Ni5 O21 2.103823 1_555
Ni6 O13 2.026160 1_555
Ni6 O11 2.039956 1_455
Ni6 O7 2.041416 1_555
Ni6 O17 2.051264 1_545
Ni6 O20 2.052221 1_555
Ni6 O10 2.071903 1_555
Ni7 O8 1.916037 1_555
Ni7 O19 1.929666 1_555
Ni7 O16 1.991881 1_555
Ni7 O15 1.992609 1_556
Ni7 O18 2.031580 1_555
Ni7 O9 2.034999 1_556
Ni8 O22 1.901183 1_545
Ni8 O25 1.901183 1_555
Ni8 O17 1.979281 1_545
Ni8 O27 1.979281 1_555
Ni8 O3 2.073010 1_545
Ni8 O13 2.073010 1_555
Ni9 O21 1.916037 1_555
Ni9 O15 1.929666 1_555
Ni9 O6 1.991881 1_555
Ni9 O19 1.992609 1_554
Ni9 O14 2.031580 1_555
Ni9 O24 2.034999 1_554
Ni10 O26 1.916721 1_444
Ni10 O20 1.916721 1_555
Ni10 O11 1.923973 1_455
Ni10 O23 1.923973 1_544
Ni10 O12 2.094109 1_455
Ni10 O5 2.094109 1_544
Ni11 O3 2.026160 1_555
Ni11 O23 2.039956 1_655
Ni11 O1 2.041416 1_555
Ni11 O27 2.051264 1_565
Ni11 O26 2.052221 1_555
Ni11 O0 2.071903 1_555
Ni12 O7 1.899200 1_555
Ni12 O24 1.902770 1_555
Ni12 O13 1.937106 1_555
Ni12 O19 1.956844 1_555
Ni12 O25 2.062344 1_555
Ni12 O18 2.109611 1_555
Ni13 O17 1.896774 1_555
Ni13 O8 1.912945 1_554
Ni13 O9 1.967420 1_555
Ni13 O20 1.979723 1_565
Ni13 O22 2.048362 1_555
Ni13 O5 2.054433 1_554
Ni14 O27 1.896774 1_555
Ni14 O21 1.912945 1_556
Ni14 O24 1.967420 1_555
Ni14 O26 1.979723 1_545
Ni14 O25 2.048362 1_555
Ni14 O12 2.054433 1_556
