# generated using pymatgen
data_Li2MnPO5
_symmetry_space_group_name_H-M   'P 1'
_cell_length_a   5.50065254
_cell_length_b   5.50048592
_cell_length_c   7.84570966
_cell_angle_alpha   65.37010087
_cell_angle_beta   114.62730782
_cell_angle_gamma   90.45351742
_symmetry_Int_Tables_number   1
_chemical_formula_structural   Li2MnPO5
_chemical_formula_sum   'Li4 Mn2 P2 O10'
_cell_volume   192.16952092
_cell_formula_units_Z   2
loop_
 _symmetry_equiv_pos_site_id
 _symmetry_equiv_pos_as_xyz
  1  'x, y, z'
loop_
 _atom_site_type_symbol
 _atom_site_label
 _atom_site_symmetry_multiplicity
 _atom_site_fract_x
 _atom_site_fract_y
 _atom_site_fract_z
 _atom_site_occupancy
  Li  Li0  1  0.14391900  0.80522200  0.74620400  1
  Li  Li1  1  0.19496400  0.85596000  0.24642500  1
  Li  Li2  1  0.80536400  0.14295100  0.75438000  1
  Li  Li3  1  0.85708800  0.19485000  0.25422800  1
  Mn  Mn0  1  0.99981200  0.50025600  0.50006300  1
  Mn  Mn1  1  0.49972100  0.00038300  0.99997000  1
  P  P0  1  0.62276300  0.62274300  0.74985300  1
  P  P1  1  0.37724000  0.37720200  0.24988100  1
  O  O0  1  0.31548800  0.69170300  0.58251500  1
  O  O1  1  0.65482000  0.81695300  0.84970700  1
  O  O2  1  0.15850700  0.15883700  0.75000100  1
  O  O3  1  0.30816500  0.68467200  0.08273100  1
  O  O4  1  0.81720100  0.65544700  0.65018700  1
  O  O5  1  0.18320200  0.34489100  0.34996900  1
  O  O6  1  0.69178200  0.31533700  0.91701500  1
  O  O7  1  0.84110100  0.84150300  0.25000700  1
  O  O8  1  0.34413800  0.18303000  0.14997800  1
  O  O9  1  0.68472600  0.30805900  0.41688500  1
loop_
_geom_bond_atom_site_label_1
_geom_bond_atom_site_label_2
_geom_bond_distance
_geom_bond_site_symmetry_2
Li0 O2 1.958161 1_565
Li0 O4 1.959977 1_455
Li0 O0 2.148882 1_555
Li0 O3 2.188432 1_556
Li1 O7 1.958868 1_455
Li1 O8 1.960074 1_565
Li1 O3 2.146898 1_555
Li1 O0 2.185328 1_555
Li2 O2 1.957708 1_655
Li2 O1 1.958396 1_545
Li2 O6 2.144723 1_555
Li2 O9 2.194807 1_555
Li3 O5 1.957930 1_655
Li3 O7 1.958277 1_545
Li3 O9 2.143676 1_555
Li3 O6 2.192882 1_554
Mn0 O7 1.914005 1_555
Mn0 O2 1.914135 1_655
Mn0 O0 2.035985 1_655
Mn0 O9 2.037348 1_555
Mn0 O4 2.227685 1_555
Mn0 O5 2.230950 1_655
Mn1 O2 1.913634 1_555
Mn1 O7 1.914456 1_546
Mn1 O6 2.035976 1_555
Mn1 O3 2.036887 1_546
Mn1 O8 2.228329 1_556
Mn1 O1 2.231372 1_545
O0 P0 1.571626 1_555
O1 P0 1.538002 1_555
O3 P1 1.571842 1_555
O4 P0 1.537673 1_555
O5 P1 1.538384 1_555
O6 P0 1.571641 1_555
O8 P1 1.537519 1_555
O9 P1 1.571627 1_555
