# generated using pymatgen
data_Li2Mn3SnO8
_symmetry_space_group_name_H-M   'P 1'
_cell_length_a   8.34768000
_cell_length_b   8.70900900
_cell_length_c   8.74354000
_cell_angle_alpha   90.00000000
_cell_angle_beta   90.00000000
_cell_angle_gamma   90.00000000
_symmetry_Int_Tables_number   1
_chemical_formula_structural   Li2Mn3SnO8
_chemical_formula_sum   'Li8 Mn12 Sn4 O32'
_cell_volume   635.65553505
_cell_formula_units_Z   4
loop_
 _symmetry_equiv_pos_site_id
 _symmetry_equiv_pos_as_xyz
  1  'x, y, z'
loop_
 _atom_site_type_symbol
 _atom_site_label
 _atom_site_symmetry_multiplicity
 _atom_site_fract_x
 _atom_site_fract_y
 _atom_site_fract_z
 _atom_site_occupancy
  Li  Li0  1  0.24978900  0.74889800  0.74627300  1
  Li  Li1  1  0.00015300  0.50374900  0.50137500  1
  Li  Li2  1  0.49984700  0.49625100  0.00137500  1
  Li  Li3  1  0.25021100  0.25110200  0.24627300  1
  Li  Li4  1  0.75021100  0.24889800  0.75372700  1
  Li  Li5  1  0.99984700  0.00374900  0.99862500  1
  Li  Li6  1  0.50015300  0.99625100  0.49862500  1
  Li  Li7  1  0.74978900  0.75110200  0.25372700  1
  Mn  Mn0  1  0.11669300  0.62722400  0.12673900  1
  Mn  Mn1  1  0.86665300  0.62399600  0.87712500  1
  Mn  Mn2  1  0.62507300  0.62151400  0.62840400  1
  Mn  Mn3  1  0.87492700  0.37848600  0.12840400  1
  Mn  Mn4  1  0.63334700  0.37600400  0.37712500  1
  Mn  Mn5  1  0.38330700  0.37277600  0.62673900  1
  Mn  Mn6  1  0.88330700  0.12722400  0.37326100  1
  Mn  Mn7  1  0.13334700  0.12399600  0.62287500  1
  Mn  Mn8  1  0.37492700  0.12151400  0.87159600  1
  Mn  Mn9  1  0.12507300  0.87848600  0.37159600  1
  Mn  Mn10  1  0.36665300  0.87600400  0.12287500  1
  Mn  Mn11  1  0.61669300  0.87277600  0.87326100  1
  Sn  Sn0  1  0.37495300  0.62467300  0.37443300  1
  Sn  Sn1  1  0.12504700  0.37532700  0.87443300  1
  Sn  Sn2  1  0.62504700  0.12467300  0.12556700  1
  Sn  Sn3  1  0.87495300  0.87532700  0.62556700  1
  O  O0  1  0.12785200  0.65314000  0.37198600  1
  O  O1  1  0.35056500  0.62949600  0.13497700  1
  O  O2  1  0.63441200  0.63521400  0.85472500  1
  O  O3  1  0.09995800  0.61580900  0.87910800  1
  O  O4  1  0.85689000  0.63166700  0.64023000  1
  O  O5  1  0.88424200  0.60515000  0.11581300  1
  O  O6  1  0.62238100  0.62099600  0.40342000  1
  O  O7  1  0.39302600  0.60923300  0.61814400  1
  O  O8  1  0.10697400  0.39076700  0.11814400  1
  O  O9  1  0.87761900  0.37900400  0.90342000  1
  O  O10  1  0.61575800  0.39485000  0.61581300  1
  O  O11  1  0.64311000  0.36833300  0.14023000  1
  O  O12  1  0.40004200  0.38419100  0.37910800  1
  O  O13  1  0.86558800  0.36478600  0.35472500  1
  O  O14  1  0.14943500  0.37050400  0.63497700  1
  O  O15  1  0.37214800  0.34686000  0.87198600  1
  O  O16  1  0.87214800  0.15314000  0.12801400  1
  O  O17  1  0.64943500  0.12949600  0.36502300  1
  O  O18  1  0.36558800  0.13521400  0.64527500  1
  O  O19  1  0.90004200  0.11580900  0.62089200  1
  O  O20  1  0.14311000  0.13166700  0.85977000  1
  O  O21  1  0.11575800  0.10515000  0.38418700  1
  O  O22  1  0.37761900  0.12099600  0.09658000  1
  O  O23  1  0.60697400  0.10923300  0.88185600  1
  O  O24  1  0.89302600  0.89076700  0.38185600  1
  O  O25  1  0.12238100  0.87900400  0.59658000  1
  O  O26  1  0.38424200  0.89485000  0.88418700  1
  O  O27  1  0.35689000  0.86833300  0.35977000  1
  O  O28  1  0.59995800  0.88419100  0.12089200  1
  O  O29  1  0.13441200  0.86478600  0.14527500  1
  O  O30  1  0.85056500  0.87050400  0.86502300  1
  O  O31  1  0.62785200  0.84686000  0.62801400  1
loop_
_geom_bond_atom_site_label_1
_geom_bond_atom_site_label_2
_geom_bond_distance
_geom_bond_site_symmetry_2
Li0 O25 2.031784 1_555
Li0 O7 2.040651 1_555
Li0 O3 2.063193 1_555
Li0 O26 2.080744 1_555
Li1 O0 2.027052 1_555
Li1 O4 2.035999 1_455
Li1 O14 2.064969 1_555
Li1 O13 2.090601 1_455
Li2 O15 2.027052 1_554
Li2 O11 2.035999 1_555
Li2 O1 2.064969 1_555
Li2 O2 2.090601 1_554
Li3 O22 2.031784 1_555
Li3 O8 2.040651 1_555
Li3 O12 2.063193 1_555
Li3 O21 2.080744 1_555
Li4 O9 2.031784 1_555
Li4 O23 2.040651 1_555
Li4 O19 2.063193 1_555
Li4 O10 2.080744 1_555
Li5 O16 2.027052 1_556
Li5 O20 2.035999 1_655
Li5 O30 2.064969 1_545
Li5 O29 2.090601 1_646
Li6 O31 2.027052 1_555
Li6 O27 2.035999 1_555
Li6 O17 2.064969 1_565
Li6 O18 2.090601 1_565
Li7 O6 2.031784 1_555
Li7 O24 2.040651 1_555
Li7 O28 2.063193 1_555
Li7 O5 2.080744 1_555
Mn0 O5 1.952265 1_455
Mn0 O1 1.953717 1_555
Mn0 O8 2.062273 1_555
Mn0 O29 2.080532 1_555
Mn0 O0 2.158184 1_555
Mn0 O3 2.171950 1_554
Mn1 O3 1.948937 1_655
Mn1 O2 1.950989 1_555
Mn1 O4 2.073980 1_555
Mn1 O5 2.098565 1_556
Mn1 O9 2.147940 1_555
Mn1 O30 2.153638 1_555
Mn2 O4 1.939911 1_555
Mn2 O7 1.942078 1_555
Mn2 O31 1.962680 1_555
Mn2 O6 1.967290 1_555
Mn2 O10 1.978615 1_555
Mn2 O2 1.983973 1_555
Mn3 O11 1.939911 1_555
Mn3 O8 1.942078 1_655
Mn3 O16 1.962680 1_555
Mn3 O9 1.967290 1_554
Mn3 O5 1.978615 1_555
Mn3 O13 1.983973 1_555
Mn4 O12 1.948937 1_555
Mn4 O13 1.950989 1_555
Mn4 O11 2.073980 1_555
Mn4 O10 2.098565 1_555
Mn4 O6 2.147940 1_555
Mn4 O17 2.153638 1_555
Mn5 O10 1.952265 1_555
Mn5 O14 1.953717 1_555
Mn5 O7 2.062273 1_555
Mn5 O18 2.080532 1_555
Mn5 O15 2.158184 1_555
Mn5 O12 2.171950 1_555
Mn6 O21 1.952265 1_655
Mn6 O17 1.953717 1_555
Mn6 O24 2.062273 1_545
Mn6 O13 2.080532 1_555
Mn6 O16 2.158184 1_555
Mn6 O19 2.171950 1_555
Mn7 O19 1.948937 1_455
Mn7 O18 1.950989 1_555
Mn7 O20 2.073980 1_555
Mn7 O21 2.098565 1_555
Mn7 O25 2.147940 1_545
Mn7 O14 2.153638 1_555
Mn8 O20 1.939911 1_555
Mn8 O23 1.942078 1_555
Mn8 O15 1.962680 1_555
Mn8 O22 1.967290 1_556
Mn8 O26 1.978615 1_545
Mn8 O18 1.983973 1_555
Mn9 O27 1.939911 1_555
Mn9 O24 1.942078 1_455
Mn9 O0 1.962680 1_555
Mn9 O25 1.967290 1_555
Mn9 O21 1.978615 1_565
Mn9 O29 1.983973 1_555
Mn10 O28 1.948937 1_555
Mn10 O29 1.950989 1_555
Mn10 O27 2.073980 1_555
Mn10 O26 2.098565 1_554
Mn10 O22 2.147940 1_565
Mn10 O1 2.153638 1_555
Mn11 O26 1.952265 1_555
Mn11 O30 1.953717 1_555
Mn11 O23 2.062273 1_565
Mn11 O2 2.080532 1_555
Mn11 O31 2.158184 1_555
Mn11 O28 2.171950 1_556
O0 Sn0 2.077676 1_555
O1 Sn0 2.103987 1_555
O3 Sn1 2.105202 1_555
O4 Sn3 2.131247 1_555
O6 Sn0 2.081188 1_555
O7 Sn0 2.140459 1_555
O8 Sn1 2.140459 1_554
O9 Sn1 2.081188 1_655
O11 Sn2 2.131247 1_555
O12 Sn0 2.105202 1_555
O14 Sn1 2.103987 1_555
O15 Sn1 2.077676 1_555
O16 Sn2 2.077676 1_555
O17 Sn2 2.103987 1_555
O19 Sn3 2.105202 1_545
O20 Sn1 2.131247 1_555
O22 Sn2 2.081188 1_555
O23 Sn2 2.140459 1_556
O24 Sn3 2.140459 1_555
O25 Sn3 2.081188 1_455
O27 Sn0 2.131247 1_555
O28 Sn2 2.105202 1_565
O30 Sn3 2.103987 1_555
O31 Sn3 2.077676 1_555
