# generated using pymatgen
data_LiMnVP2(HO5)2
_symmetry_space_group_name_H-M   'P 1'
_cell_length_a   7.44397993
_cell_length_b   11.32063412
_cell_length_c   6.79434597
_cell_angle_alpha   73.04739999
_cell_angle_beta   88.85579793
_cell_angle_gamma   81.35157869
_symmetry_Int_Tables_number   1
_chemical_formula_structural   LiMnVP2(HO5)2
_chemical_formula_sum   'Li3 Mn3 V3 P6 H6 O30'
_cell_volume   541.28347289
_cell_formula_units_Z   3
loop_
 _symmetry_equiv_pos_site_id
 _symmetry_equiv_pos_as_xyz
  1  'x, y, z'
loop_
 _atom_site_type_symbol
 _atom_site_label
 _atom_site_symmetry_multiplicity
 _atom_site_fract_x
 _atom_site_fract_y
 _atom_site_fract_z
 _atom_site_occupancy
  Li  Li0  1  0.69623100  0.15820600  0.74646900  1
  Li  Li1  1  0.64062700  0.50700300  0.91998500  1
  Li  Li2  1  0.30403100  0.84035400  0.25322900  1
  Mn  Mn0  1  0.66824200  0.33317500  0.33351000  1
  Mn  Mn1  1  0.32982700  0.66443500  0.67010500  1
  Mn  Mn2  1  0.00150700  0.99948800  0.99968100  1
  V  V0  1  0.66638800  0.83490200  0.83065500  1
  V  V1  1  0.33593000  0.16619500  0.17114500  1
  V  V2  1  0.00034000  0.50129800  0.49716400  1
  P  P0  1  0.92883100  0.30172500  0.94924100  1
  P  P1  1  0.74234500  0.03032000  0.38273300  1
  P  P2  1  0.40600700  0.36265000  0.71781100  1
  P  P3  1  0.59466900  0.63706600  0.28246500  1
  P  P4  1  0.25985400  0.96792400  0.61649100  1
  P  P5  1  0.07393800  0.69902100  0.04972400  1
  H  H0  1  0.33081700  0.01682800  0.95724300  1
  H  H1  1  0.99914800  0.33530800  0.31620300  1
  H  H2  1  0.66204400  0.68186500  0.62639600  1
  H  H3  1  0.33473800  0.33234600  0.34925100  1
  H  H4  1  0.00004100  0.66300900  0.68870100  1
  H  H5  1  0.67000100  0.98386000  0.04260700  1
  O  O0  1  0.92022000  0.19384200  0.86055900  1
  O  O1  1  0.40945200  0.23476900  0.88975800  1
  O  O2  1  0.92234600  0.42922100  0.77666200  1
  O  O3  1  0.90348800  0.72097900  0.90365000  1
  O  O4  1  0.73730700  0.13595700  0.47870100  1
  O  O5  1  0.91546400  0.01532300  0.26021100  1
  O  O6  1  0.41825300  0.46948500  0.80736000  1
  O  O7  1  0.58235400  0.33829600  0.59919900  1
  O  O8  1  0.91131300  0.36894600  0.40524200  1
  O  O9  1  0.57437200  0.05093700  0.23379200  1
  O  O10  1  0.26076200  0.09316500  0.44093600  1
  O  O11  1  0.74533900  0.97268300  0.92411900  1
  O  O12  1  0.24721400  0.68176900  0.92734200  1
  O  O13  1  0.58580700  0.69311400  0.74422800  1
  O  O14  1  0.23858400  0.38722800  0.56897400  1
  O  O15  1  0.75936200  0.61547300  0.43438900  1
  O  O16  1  0.42245800  0.29764400  0.26099500  1
  O  O17  1  0.75237400  0.32513800  0.06851400  1
  O  O18  1  0.25684200  0.02710700  0.07638900  1
  O  O19  1  0.73756600  0.90412000  0.55868800  1
  O  O20  1  0.42801000  0.94907000  0.76592400  1
  O  O21  1  0.08697700  0.62990100  0.59847100  1
  O  O22  1  0.41793600  0.65785500  0.40103100  1
  O  O23  1  0.59784100  0.53113800  0.18791300  1
  O  O24  1  0.08663800  0.98197500  0.74025300  1
  O  O25  1  0.26879400  0.86094500  0.52270800  1
  O  O26  1  0.09657000  0.27827100  0.09711200  1
  O  O27  1  0.06986700  0.57405500  0.22498400  1
  O  O28  1  0.58916400  0.76578800  0.10961500  1
  O  O29  1  0.07970800  0.80635700  0.14084100  1
loop_
_geom_bond_atom_site_label_1
_geom_bond_atom_site_label_2
_geom_bond_distance
_geom_bond_site_symmetry_2
Li0 O4 1.920589 1_555
Li0 O0 1.995002 1_555
Li0 O7 2.049568 1_555
Li0 O11 2.076034 1_545
Li0 O1 2.471627 1_555
Li1 O23 1.931490 1_556
Li1 O6 1.989393 1_555
Li1 O17 2.063002 1_556
Li1 O13 2.079716 1_555
Li1 O2 2.446348 1_555
Li2 O25 1.920099 1_555
Li2 O29 1.983738 1_555
Li2 O22 2.071968 1_555
Li2 O18 2.085396 1_565
Li2 O28 2.455315 1_555
Mn0 O7 1.916925 1_555
Mn0 O17 1.917177 1_555
Mn0 O8 2.011511 1_555
Mn0 O16 2.030987 1_555
Mn0 O4 2.147738 1_555
Mn0 O23 2.156449 1_555
Mn1 O12 1.895293 1_555
Mn1 O22 1.948028 1_555
Mn1 O21 2.004097 1_555
Mn1 O13 2.075991 1_555
Mn1 O6 2.135654 1_555
Mn1 O25 2.138521 1_555
Mn2 O24 1.915517 1_555
Mn2 O5 1.918588 1_466
Mn2 O18 2.072535 1_566
Mn2 O11 2.072663 1_455
Mn2 O29 2.110831 1_556
Mn2 O0 2.123720 1_465
H0 O18 0.994966 1_556
H1 O8 0.991043 1_555
H2 O13 0.999401 1_555
H3 O16 0.992411 1_555
H4 O21 0.990111 1_555
H5 O11 0.999328 1_554
O0 P0 1.520843 1_555
O1 P2 1.570051 1_555
O1 V1 1.943654 1_556
O2 P0 1.566784 1_555
O2 V2 1.950363 1_655
O3 P5 1.571079 1_656
O3 V0 2.000438 1_555
O4 P1 1.515568 1_555
O5 P1 1.535030 1_555
O6 P2 1.518464 1_555
O7 P2 1.557944 1_555
O8 V2 1.983693 1_655
O9 P1 1.570679 1_555
O9 V1 2.010952 1_555
O10 P4 1.565026 1_545
O10 V1 1.889732 1_555
O11 V0 2.012399 1_555
O12 P5 1.539285 1_556
O13 V0 2.033314 1_555
O14 P2 1.560530 1_555
O14 V2 2.007299 1_555
O15 P3 1.562534 1_555
O15 V2 2.020439 1_655
O16 V1 1.958490 1_555
O17 P0 1.558976 1_554
O18 V1 2.031113 1_555
O19 P1 1.577698 1_565
O19 V0 1.884312 1_555
O20 P4 1.577118 1_555
O20 V0 2.005642 1_555
O21 V2 1.973256 1_555
O22 P3 1.552501 1_555
O23 P3 1.513738 1_555
O24 P4 1.538829 1_555
O25 P4 1.516978 1_555
O26 P0 1.560078 1_454
O26 V1 2.005321 1_555
O27 P5 1.565023 1_555
O27 V2 1.888876 1_555
O28 P3 1.578082 1_555
O28 V0 1.939571 1_554
O29 P5 1.522184 1_555
