# generated using pymatgen
data_Li6FeO5F
_symmetry_space_group_name_H-M   'P 1'
_cell_length_a   5.49969600
_cell_length_b   5.51167505
_cell_length_c   5.56871630
_cell_angle_alpha   62.42089038
_cell_angle_beta   63.73755500
_cell_angle_gamma   62.39319859
_symmetry_Int_Tables_number   1
_chemical_formula_structural   Li6FeO5F
_chemical_formula_sum   'Li6 Fe1 O5 F1'
_cell_volume   126.88095269
_cell_formula_units_Z   1
loop_
 _symmetry_equiv_pos_site_id
 _symmetry_equiv_pos_as_xyz
  1  'x, y, z'
loop_
 _atom_site_type_symbol
 _atom_site_label
 _atom_site_symmetry_multiplicity
 _atom_site_fract_x
 _atom_site_fract_y
 _atom_site_fract_z
 _atom_site_occupancy
  Li  Li0  1  0.71103900  0.47745300  0.06317400  1
  Li  Li1  1  0.50548500  0.08198900  0.74992200  1
  Li  Li2  1  0.91675000  0.30199700  0.50463000  1
  Li  Li3  1  0.07364300  0.70964500  0.47681400  1
  Li  Li4  1  0.51886700  0.92320100  0.27036900  1
  Li  Li5  1  0.27413700  0.49038400  0.92601400  1
  Fe  Fe0  1  0.02717500  0.98996100  0.96316200  1
  O  O0  1  0.35048400  0.80171000  0.09471200  1
  O  O1  1  0.91313800  0.66188200  0.19982600  1
  O  O2  1  0.20783600  0.89315900  0.63956300  1
  O  O3  1  0.10518100  0.33971200  0.79287300  1
  O  O4  1  0.66151800  0.21280900  0.91083300  1
  F  F0  1  0.76974300  0.11646000  0.39054600  1
loop_
_geom_bond_atom_site_label_1
_geom_bond_atom_site_label_2
_geom_bond_distance
_geom_bond_site_symmetry_2
Li0 O0 1.963395 1_555
Li0 O3 2.046036 1_654
Li0 O4 2.154043 1_554
Li0 O1 2.315100 1_555
Li1 O0 1.955822 1_546
Li1 O3 1.967751 1_555
Li1 O4 1.977733 1_555
Li2 O1 1.921406 1_555
Li2 O4 2.031931 1_555
Li2 O2 2.087712 1_645
Li2 O3 2.382086 1_655
Li3 O3 1.976022 1_555
Li3 O0 1.988084 1_555
Li3 O2 2.126433 1_555
Li3 O1 2.241436 1_455
Li4 O1 1.950947 1_555
Li4 O4 1.995844 1_564
Li4 O2 2.003839 1_555
Li4 O0 2.060505 1_555
Li5 O4 1.956071 1_555
Li5 O3 1.999445 1_555
Li5 O1 2.019011 1_456
Li5 O2 2.022697 1_555
Fe0 O2 1.825823 1_555
Fe0 O1 1.874301 1_456
Fe0 O3 1.874345 1_565
Fe0 O0 1.874545 1_556
Fe0 O4 1.880327 1_465
F0 Li1 1.866347 1_555
F0 Li2 1.981262 1_555
F0 Li0 1.988315 1_555
F0 Li3 2.071648 1_645
F0 Fe0 2.407191 1_644
