# generated using pymatgen
data_Na3Mn2P2(CO7)2
_symmetry_space_group_name_H-M   'P 1'
_cell_length_a   6.58302000
_cell_length_b   5.21451800
_cell_length_c   18.00799974
_cell_angle_alpha   88.28987367
_cell_angle_beta   90.00000000
_cell_angle_gamma   90.00000000
_symmetry_Int_Tables_number   1
_chemical_formula_structural   Na3Mn2P2(CO7)2
_chemical_formula_sum   'Na6 Mn4 P4 C4 O28'
_cell_volume   617.89025225
_cell_formula_units_Z   2
loop_
 _symmetry_equiv_pos_site_id
 _symmetry_equiv_pos_as_xyz
  1  'x, y, z'
loop_
 _atom_site_type_symbol
 _atom_site_label
 _atom_site_symmetry_multiplicity
 _atom_site_fract_x
 _atom_site_fract_y
 _atom_site_fract_z
 _atom_site_occupancy
  Na  Na0  1  0.77286000  0.75666500  0.87851000  1
  Na  Na1  1  0.25772100  0.24318600  0.62069700  1
  Na  Na2  1  0.73820000  0.24479800  0.61817900  1
  Na  Na3  1  0.22714000  0.75666500  0.37851000  1
  Na  Na4  1  0.26180000  0.24479800  0.11817900  1
  Na  Na5  1  0.74227900  0.24318600  0.12069700  1
  Mn  Mn0  1  0.48988900  0.21273900  0.82777300  1
  Mn  Mn1  1  0.99507700  0.78221600  0.67547200  1
  Mn  Mn2  1  0.51011100  0.21273900  0.32777300  1
  Mn  Mn3  1  0.00492300  0.78221600  0.17547200  1
  P  P0  1  0.99601000  0.28465000  0.78769400  1
  P  P1  1  0.49770500  0.71634500  0.71444700  1
  P  P2  1  0.00399000  0.28465000  0.28769400  1
  P  P3  1  0.50229500  0.71634500  0.21444700  1
  C  C0  1  0.50290000  0.27010900  0.96107200  1
  C  C1  1  0.99961600  0.73122900  0.53956000  1
  C  C2  1  0.49710000  0.27010900  0.46107200  1
  C  C3  1  0.00038400  0.73122900  0.03956000  1
  O  O0  1  0.99725400  0.70706900  0.97216400  1
  O  O1  1  0.49992300  0.04620300  0.92981600  1
  O  O2  1  0.50124600  0.46034200  0.91144500  1
  O  O3  1  0.80934700  0.21353800  0.83616800  1
  O  O4  1  0.18471300  0.21977200  0.83413400  1
  O  O5  1  0.98565200  0.57825900  0.76678700  1
  O  O6  1  0.50788400  0.86272500  0.78728700  1
  O  O7  1  0.99434700  0.14085100  0.71273500  1
  O  O8  1  0.49725000  0.41935400  0.73240400  1
  O  O9  1  0.30898700  0.78734300  0.66691300  1
  O  O10  1  0.68163000  0.78183900  0.66343800  1
  O  O11  1  0.99825600  0.53674200  0.58934300  1
  O  O12  1  0.99809200  0.95331800  0.57385600  1
  O  O13  1  0.49365500  0.29928600  0.52967800  1
  O  O14  1  0.00274600  0.70706900  0.47216400  1
  O  O15  1  0.50007700  0.04620300  0.42981600  1
  O  O16  1  0.49875400  0.46034200  0.41144500  1
  O  O17  1  0.81528700  0.21977200  0.33413400  1
  O  O18  1  0.19065300  0.21353800  0.33616800  1
  O  O19  1  0.01434800  0.57825900  0.26678700  1
  O  O20  1  0.49211600  0.86272500  0.28728700  1
  O  O21  1  0.00565300  0.14085100  0.21273500  1
  O  O22  1  0.50275000  0.41935400  0.23240400  1
  O  O23  1  0.31837000  0.78183900  0.16343800  1
  O  O24  1  0.69101300  0.78734300  0.16691300  1
  O  O25  1  0.00174400  0.53674200  0.08934300  1
  O  O26  1  0.00190800  0.95331800  0.07385600  1
  O  O27  1  0.50634500  0.29928600  0.02967800  1
loop_
_geom_bond_atom_site_label_1
_geom_bond_atom_site_label_2
_geom_bond_distance
_geom_bond_site_symmetry_2
Na0 O0 2.251065 1_555
Na0 O2 2.425229 1_555
Na0 O6 2.448056 1_555
Na0 O3 2.491258 1_565
Na0 O1 2.538640 1_565
Na0 O5 2.643336 1_555
Na1 O13 2.270641 1_555
Na1 O11 2.351148 1_455
Na1 O7 2.446438 1_455
Na1 O12 2.448159 1_445
Na1 O9 2.517660 1_545
Na1 O8 2.736269 1_555
Na2 O13 2.277118 1_555
Na2 O11 2.338973 1_555
Na2 O12 2.438596 1_545
Na2 O7 2.445702 1_555
Na2 O10 2.552142 1_545
Na2 O8 2.772602 1_555
Na3 O14 2.251065 1_555
Na3 O16 2.425229 1_555
Na3 O20 2.448056 1_555
Na3 O18 2.491258 1_565
Na3 O15 2.538640 1_565
Na3 O19 2.643336 1_555
Na4 O27 2.277118 1_555
Na4 O25 2.338973 1_555
Na4 O26 2.438596 1_545
Na4 O21 2.445702 1_555
Na4 O23 2.552142 1_545
Na4 O22 2.772602 1_555
Na5 O27 2.270641 1_555
Na5 O25 2.351148 1_655
Na5 O21 2.446438 1_655
Na5 O26 2.448159 1_645
Na5 O24 2.517660 1_545
Na5 O22 2.736269 1_555
Mn0 O6 1.989017 1_545
Mn0 O8 2.000544 1_555
Mn0 O1 2.009971 1_555
Mn0 O4 2.012639 1_555
Mn0 O2 2.014712 1_555
Mn0 O3 2.108438 1_555
Mn1 O5 1.932519 1_555
Mn1 O7 2.005620 1_565
Mn1 O12 2.011848 1_555
Mn1 O11 2.040354 1_555
Mn1 O9 2.072329 1_655
Mn1 O10 2.074783 1_555
Mn2 O20 1.989017 1_545
Mn2 O22 2.000544 1_555
Mn2 O15 2.009971 1_555
Mn2 O17 2.012639 1_555
Mn2 O16 2.014712 1_555
Mn2 O18 2.108438 1_555
Mn3 O19 1.932519 1_555
Mn3 O21 2.005620 1_565
Mn3 O26 2.011848 1_555
Mn3 O25 2.040354 1_555
Mn3 O24 2.072329 1_455
Mn3 O23 2.074783 1_555
C0 O27 1.249494 1_556
C0 O1 1.311342 1_555
C0 O2 1.315252 1_555
C1 O14 1.224096 1_655
C1 O12 1.328679 1_555
C1 O11 1.333426 1_555
C2 O13 1.249494 1_555
C2 O15 1.311342 1_555
C2 O16 1.315252 1_555
C3 O0 1.224096 1_454
C3 O26 1.328679 1_555
C3 O25 1.333426 1_555
O3 P0 1.546007 1_555
O4 P0 1.529738 1_455
O5 P0 1.567177 1_555
O6 P1 1.538649 1_555
O7 P0 1.563625 1_555
O8 P1 1.572593 1_555
O9 P1 1.547342 1_555
O10 P1 1.551669 1_555
O17 P2 1.529738 1_655
O18 P2 1.546007 1_555
O19 P2 1.567177 1_555
O20 P3 1.538649 1_555
O21 P2 1.563625 1_555
O22 P3 1.572593 1_555
O23 P3 1.551669 1_555
O24 P3 1.547342 1_555
