# generated using pymatgen
data_TlNi4(PO4)3
_symmetry_space_group_name_H-M   'P 1'
_cell_length_a   8.75270362
_cell_length_b   8.75270362
_cell_length_c   9.76835400
_cell_angle_alpha   90.00000000
_cell_angle_beta   90.00000000
_cell_angle_gamma   137.65100744
_symmetry_Int_Tables_number   1
_chemical_formula_structural   TlNi4(PO4)3
_chemical_formula_sum   'Tl2 Ni8 P6 O24'
_cell_volume   504.12326481
_cell_formula_units_Z   2
loop_
 _symmetry_equiv_pos_site_id
 _symmetry_equiv_pos_as_xyz
  1  'x, y, z'
loop_
 _atom_site_type_symbol
 _atom_site_label
 _atom_site_symmetry_multiplicity
 _atom_site_fract_x
 _atom_site_fract_y
 _atom_site_fract_z
 _atom_site_occupancy
  Tl  Tl0  1  0.97379900  0.02620100  0.46468000  1
  Tl  Tl1  1  0.02620100  0.97379900  0.96468000  1
  Ni  Ni0  1  0.04697500  0.45386100  0.99814400  1
  Ni  Ni1  1  0.95302500  0.54613900  0.49814400  1
  Ni  Ni2  1  0.62178100  0.37821900  0.19755600  1
  Ni  Ni3  1  0.37821900  0.62178100  0.69755600  1
  Ni  Ni4  1  0.45386100  0.04697500  0.49814400  1
  Ni  Ni5  1  0.54613900  0.95302500  0.99814400  1
  Ni  Ni6  1  0.37987400  0.62012600  0.23349500  1
  Ni  Ni7  1  0.62012600  0.37987400  0.73349500  1
  P  P0  1  0.53382900  0.46617100  0.48738700  1
  P  P1  1  0.17981100  0.82018900  0.21166500  1
  P  P2  1  0.82018900  0.17981100  0.71166500  1
  P  P3  1  0.20037700  0.79962300  0.78618300  1
  P  P4  1  0.46617100  0.53382900  0.98738700  1
  P  P5  1  0.79962300  0.20037700  0.28618300  1
  O  O0  1  0.47078900  0.52921100  0.82948900  1
  O  O1  1  0.22518600  0.39349600  0.05257500  1
  O  O2  1  0.77481400  0.60650400  0.55257500  1
  O  O3  1  0.73199100  0.26800900  0.63593000  1
  O  O4  1  0.55499900  0.44500100  0.03171300  1
  O  O5  1  0.21915200  0.78084800  0.62856800  1
  O  O6  1  0.93846300  0.66867200  0.16531600  1
  O  O7  1  0.33132800  0.06153700  0.16531600  1
  O  O8  1  0.60650400  0.77481400  0.05257500  1
  O  O9  1  0.66867200  0.93846300  0.66531600  1
  O  O10  1  0.44500100  0.55499900  0.53171300  1
  O  O11  1  0.63460400  0.95173000  0.33096600  1
  O  O12  1  0.95173000  0.63460400  0.83096600  1
  O  O13  1  0.06153700  0.33132800  0.66531600  1
  O  O14  1  0.36539600  0.04827000  0.83096600  1
  O  O15  1  0.28893700  0.71106300  0.85918600  1
  O  O16  1  0.71106300  0.28893700  0.35918600  1
  O  O17  1  0.39349600  0.22518600  0.55257500  1
  O  O18  1  0.19362700  0.80637300  0.36992600  1
  O  O19  1  0.52921100  0.47078900  0.32948900  1
  O  O20  1  0.80637300  0.19362700  0.86992600  1
  O  O21  1  0.04827000  0.36539600  0.33096600  1
  O  O22  1  0.26800900  0.73199100  0.13593000  1
  O  O23  1  0.78084800  0.21915200  0.12856800  1
loop_
_geom_bond_atom_site_label_1
_geom_bond_atom_site_label_2
_geom_bond_distance
_geom_bond_site_symmetry_2
Ni0 O20 2.025242 1_455
Ni0 O23 2.048446 1_456
Ni0 O1 2.052586 1_556
Ni0 O15 2.085305 1_555
Ni0 O22 2.125850 1_556
Ni1 O18 2.025242 1_655
Ni1 O5 2.048446 1_655
Ni1 O2 2.052586 1_555
Ni1 O16 2.085305 1_555
Ni1 O3 2.125850 1_555
Ni2 O4 1.952639 1_555
Ni2 O6 1.956902 1_555
Ni2 O7 1.956902 1_555
Ni2 O19 1.986014 1_555
Ni2 O16 2.148674 1_555
Ni3 O10 1.952639 1_555
Ni3 O9 1.956902 1_555
Ni3 O13 1.956902 1_555
Ni3 O0 1.986014 1_555
Ni3 O15 2.148674 1_555
Ni4 O18 2.025242 1_545
Ni4 O5 2.048446 1_545
Ni4 O17 2.052586 1_555
Ni4 O16 2.085305 1_555
Ni4 O3 2.125850 1_555
Ni5 O20 2.025242 1_565
Ni5 O23 2.048446 1_566
Ni5 O8 2.052586 1_556
Ni5 O15 2.085305 1_555
Ni5 O22 2.125850 1_556
Ni6 O22 2.059780 1_555
Ni6 O11 2.176358 1_555
Ni6 O21 2.176358 1_555
Ni6 O1 2.218437 1_555
Ni6 O8 2.218437 1_555
Ni7 O3 2.059780 1_555
Ni7 O14 2.176358 1_555
Ni7 O12 2.176358 1_555
Ni7 O17 2.218437 1_555
Ni7 O2 2.218437 1_555
O0 P4 1.544245 1_555
O1 P4 1.591767 1_554
O1 Tl1 2.794307 1_544
O2 P0 1.591767 1_555
O2 Tl0 2.794307 1_565
O3 P2 1.618659 1_555
O4 P4 1.513255 1_554
O5 P3 1.569846 1_555
O6 P1 1.511710 1_655
O7 P1 1.511710 1_545
O8 P4 1.591767 1_554
O8 Tl1 2.794307 1_654
O9 P2 1.511710 1_565
O10 P0 1.513255 1_555
O11 P5 1.538722 1_565
O11 Tl0 2.843368 1_565
O12 P3 1.538722 1_655
O12 Tl1 2.843368 1_655
O13 P2 1.511710 1_455
O14 P3 1.538722 1_545
O14 Tl1 2.843368 1_545
O15 P3 1.611934 1_555
O16 P5 1.611934 1_555
O17 P0 1.591767 1_555
O17 Tl0 2.794307 1_455
O18 P1 1.562313 1_555
O19 P0 1.544245 1_555
O20 P2 1.562313 1_555
O21 P5 1.538722 1_455
O21 Tl0 2.843368 1_455
O22 P1 1.618659 1_555
O23 P5 1.569846 1_555
