# generated using pymatgen
data_Li3Cr(NiO3)2
_symmetry_space_group_name_H-M   'P 1'
_cell_length_a   6.59555195
_cell_length_b   6.59555195
_cell_length_c   5.80755599
_cell_angle_alpha   77.43690992
_cell_angle_beta   77.43690992
_cell_angle_gamma   25.35038322
_symmetry_Int_Tables_number   1
_chemical_formula_structural   Li3Cr(NiO3)2
_chemical_formula_sum   'Li3 Cr1 Ni2 O6'
_cell_volume   105.44438161
_cell_formula_units_Z   1
loop_
 _symmetry_equiv_pos_site_id
 _symmetry_equiv_pos_as_xyz
  1  'x, y, z'
loop_
 _atom_site_type_symbol
 _atom_site_label
 _atom_site_symmetry_multiplicity
 _atom_site_fract_x
 _atom_site_fract_y
 _atom_site_fract_z
 _atom_site_occupancy
  Li  Li0  1  0.00000000  0.00000000  0.00000000  1
  Li  Li1  1  0.66874400  0.66874400  0.67354200  1
  Li  Li2  1  0.33125600  0.33125600  0.32645800  1
  Cr  Cr0  1  0.00000000  0.00000000  0.50000000  1
  Ni  Ni0  1  0.66624700  0.66624700  0.16314600  1
  Ni  Ni1  1  0.33375300  0.33375300  0.83685400  1
  O  O0  1  0.15803600  0.15803600  0.40383400  1
  O  O1  1  0.83128300  0.83128300  0.06712900  1
  O  O2  1  0.84196400  0.84196400  0.59616600  1
  O  O3  1  0.50191700  0.50191700  0.73174100  1
  O  O4  1  0.49808300  0.49808300  0.26825900  1
  O  O5  1  0.16871700  0.16871700  0.93287100  1
loop_
_geom_bond_atom_site_label_1
_geom_bond_atom_site_label_2
_geom_bond_distance
_geom_bond_site_symmetry_2
Li0 O1 2.118771 1_445
Li0 O5 2.118771 1_554
Li0 O4 2.122513 1_545
Li0 O4 2.122513 1_455
Li0 O3 2.122513 1_454
Li0 O3 2.122513 1_544
Li1 O5 2.088649 1_655
Li1 O5 2.088649 1_565
Li1 O3 2.097685 1_555
Li1 O0 2.159427 1_655
Li1 O0 2.159427 1_565
Li1 O2 2.173690 1_555
Li2 O1 2.088649 1_545
Li2 O1 2.088649 1_455
Li2 O4 2.097685 1_555
Li2 O2 2.159427 1_545
Li2 O2 2.159427 1_455
Li2 O0 2.173690 1_555
Cr0 O3 1.980195 1_455
Cr0 O3 1.980195 1_545
Cr0 O4 1.980195 1_455
Cr0 O4 1.980195 1_545
Cr0 O2 1.985454 1_445
Cr0 O0 1.985454 1_555
Ni0 O5 1.965952 1_654
Ni0 O5 1.965952 1_564
Ni0 O0 1.998405 1_565
Ni0 O0 1.998405 1_655
Ni0 O1 2.072201 1_555
Ni0 O4 2.113612 1_555
Ni1 O1 1.965952 1_456
Ni1 O1 1.965952 1_546
Ni1 O2 1.998405 1_455
Ni1 O2 1.998405 1_545
Ni1 O5 2.072201 1_555
Ni1 O3 2.113612 1_555
