# generated using pymatgen
data_V(SO4)2
_symmetry_space_group_name_H-M   'P 1'
_cell_length_a   8.72195141
_cell_length_b   8.72195141
_cell_length_c   8.72195163
_cell_angle_alpha   56.38965210
_cell_angle_beta   56.38964596
_cell_angle_gamma   56.38965494
_symmetry_Int_Tables_number   1
_chemical_formula_structural   V(SO4)2
_chemical_formula_sum   'V3 S6 O24'
_cell_volume   429.99414734
_cell_formula_units_Z   3
loop_
 _symmetry_equiv_pos_site_id
 _symmetry_equiv_pos_as_xyz
  1  'x, y, z'
loop_
 _atom_site_type_symbol
 _atom_site_label
 _atom_site_symmetry_multiplicity
 _atom_site_fract_x
 _atom_site_fract_y
 _atom_site_fract_z
 _atom_site_occupancy
  V  V0  1  0.64405556  0.64405556  0.64405556  1
  V  V1  1  0.35567712  0.35567712  0.35567712  1
  V  V2  1  0.14632082  0.14632082  0.14632082  1
  S  S0  1  0.96638026  0.25932652  0.52557336  1
  S  S1  1  0.52557336  0.96638026  0.25932652  1
  S  S2  1  0.25932652  0.52557336  0.96638026  1
  S  S3  1  0.74368644  0.46808383  0.04135631  1
  S  S4  1  0.46808383  0.04135631  0.74368644  1
  S  S5  1  0.04135631  0.74368644  0.46808383  1
  O  O0  1  0.88136640  0.70506934  0.49096538  1
  O  O1  1  0.70506934  0.49096538  0.88136640  1
  O  O2  1  0.01087215  0.06730756  0.66486649  1
  O  O3  1  0.49096538  0.88136640  0.70506934  1
  O  O4  1  0.97720136  0.27595321  0.34129196  1
  O  O5  1  0.76865015  0.40085780  0.59901820  1
  O  O6  1  0.59901820  0.76865015  0.40085780  1
  O  O7  1  0.66486649  0.01087215  0.06730756  1
  O  O8  1  0.40085780  0.59901820  0.76865015  1
  O  O9  1  0.94521180  0.32101383  0.02253641  1
  O  O10  1  0.70801312  0.64720300  0.04064378  1
  O  O11  1  0.64720300  0.04064378  0.70801312  1
  O  O12  1  0.34129196  0.97720136  0.27595321  1
  O  O13  1  0.27595321  0.34129196  0.97720136  1
  O  O14  1  0.06730756  0.66486649  0.01087215  1
  O  O15  1  0.60988593  0.36519493  0.23411966  1
  O  O16  1  0.32101383  0.02253641  0.94521180  1
  O  O17  1  0.36519493  0.23411966  0.60988593  1
  O  O18  1  0.23411966  0.60988593  0.36519493  1
  O  O19  1  0.04064378  0.70801312  0.64720300  1
  O  O20  1  0.46108090  0.10390256  0.35495884  1
  O  O21  1  0.02253641  0.94521180  0.32101383  1
  O  O22  1  0.35495884  0.46108090  0.10390256  1
  O  O23  1  0.10390256  0.35495884  0.46108090  1
loop_
_geom_bond_atom_site_label_1
_geom_bond_atom_site_label_2
_geom_bond_distance
_geom_bond_site_symmetry_2
O0 S5 1.496024 1_655
O0 V0 1.929588 1_555
O1 S3 1.496024 1_556
O1 V0 1.929589 1_555
O2 S0 1.407595 1_455
O3 S4 1.496024 1_565
O3 V0 1.929588 1_555
O4 S0 1.484081 1_555
O4 V2 1.962447 1_655
O5 S0 1.484557 1_555
O5 V0 1.931967 1_555
O6 S1 1.484557 1_555
O6 V0 1.931967 1_555
O7 S1 1.407595 1_545
O8 S2 1.484557 1_555
O8 V0 1.931966 1_555
O9 S3 1.476293 1_555
O9 V2 1.969900 1_655
O10 S3 1.410952 1_555
O11 S4 1.410952 1_555
O12 S1 1.484081 1_555
O12 V2 1.962448 1_565
O13 S2 1.484081 1_555
O13 V2 1.962447 1_556
O14 S2 1.407595 1_554
O15 S3 1.520134 1_555
O15 V1 1.884359 1_555
O16 S4 1.476292 1_555
O16 V2 1.969900 1_556
O17 S4 1.520135 1_555
O17 V1 1.884359 1_555
O18 S5 1.520134 1_555
O18 V1 1.884359 1_555
O19 S5 1.410952 1_555
O20 S1 1.513961 1_545
O20 V1 1.855082 1_555
O21 S5 1.476293 1_555
O21 V2 1.969900 1_565
O22 S2 1.513961 1_554
O22 V1 1.855082 1_555
O23 S0 1.513961 1_455
O23 V1 1.855082 1_555
