# generated using pymatgen
data_LiMn2Si2O7
_symmetry_space_group_name_H-M   'P 1'
_cell_length_a   4.93110363
_cell_length_b   4.93098729
_cell_length_c   13.62878391
_cell_angle_alpha   91.14423500
_cell_angle_beta   88.85905526
_cell_angle_gamma   63.41296814
_symmetry_Int_Tables_number   1
_chemical_formula_structural   LiMn2Si2O7
_chemical_formula_sum   'Li2 Mn4 Si4 O14'
_cell_volume   296.13105367
_cell_formula_units_Z   2
loop_
 _symmetry_equiv_pos_site_id
 _symmetry_equiv_pos_as_xyz
  1  'x, y, z'
loop_
 _atom_site_type_symbol
 _atom_site_label
 _atom_site_symmetry_multiplicity
 _atom_site_fract_x
 _atom_site_fract_y
 _atom_site_fract_z
 _atom_site_occupancy
  Li  Li0  1  0.34884400  0.28489400  0.91536200  1
  Li  Li1  1  0.71512200  0.65108100  0.41536500  1
  Mn  Mn0  1  0.98866900  0.95029500  0.25524900  1
  Mn  Mn1  1  0.04972600  0.01123900  0.75524000  1
  Mn  Mn2  1  0.04807800  0.94909900  0.01905400  1
  Mn  Mn3  1  0.05104300  0.95265000  0.51917100  1
  Si  Si0  1  0.71378800  0.63844800  0.85496300  1
  Si  Si1  1  0.36150000  0.28619900  0.35496100  1
  Si  Si2  1  0.71228600  0.60017900  0.64212000  1
  Si  Si3  1  0.39970200  0.28775300  0.14213100  1
  O  O0  1  0.20137000  0.65824900  0.15091900  1
  O  O1  1  0.34177500  0.79847400  0.65091900  1
  O  O2  1  0.10442100  0.64657100  0.35894400  1
  O  O3  1  0.35341100  0.89553700  0.85893600  1
  O  O4  1  0.32182000  0.14407000  0.24449300  1
  O  O5  1  0.85594100  0.67805800  0.74449800  1
  O  O6  1  0.85611200  0.66137800  0.54418100  1
  O  O7  1  0.33851500  0.14389300  0.04417700  1
  O  O8  1  0.93723300  0.66787800  0.93334700  1
  O  O9  1  0.33215000  0.06269100  0.43333200  1
  O  O10  1  0.80390900  0.23498700  0.64725100  1
  O  O11  1  0.76486100  0.19616500  0.14726000  1
  O  O12  1  0.73850600  0.29194400  0.85208200  1
  O  O13  1  0.70797800  0.26150900  0.35208000  1
loop_
_geom_bond_atom_site_label_1
_geom_bond_atom_site_label_2
_geom_bond_distance
_geom_bond_site_symmetry_2
Li0 O7 1.909186 1_556
Li0 O3 2.044409 1_545
Li0 O8 2.068047 1_455
Li0 O12 2.105234 1_555
Li1 O6 1.909117 1_555
Li1 O2 2.044320 1_655
Li1 O9 2.067989 1_565
Li1 O13 2.104970 1_555
Mn0 O0 1.924190 1_655
Mn0 O11 1.947357 1_565
Mn0 O2 1.979266 1_655
Mn0 O13 1.989330 1_565
Mn0 O4 2.243733 1_665
Mn1 O1 1.924200 1_545
Mn1 O10 1.947165 1_455
Mn1 O3 1.979146 1_545
Mn1 O12 1.989473 1_455
Mn1 O5 2.243866 1_445
Mn2 O8 2.055551 1_454
Mn2 O7 2.080558 1_565
Mn2 O11 2.186891 1_465
Mn2 O0 2.246037 1_555
Mn2 O3 2.566889 1_554
Mn3 O9 2.053909 1_565
Mn3 O6 2.084525 1_455
Mn3 O10 2.184016 1_465
Mn3 O1 2.244718 1_555
Mn3 O2 2.570139 1_555
O0 Si3 1.641862 1_555
O1 Si2 1.641951 1_555
O2 Si1 1.656708 1_555
O3 Si0 1.656763 1_555
O4 Si3 1.690377 1_555
O4 Si1 1.699547 1_555
O5 Si2 1.690432 1_555
O5 Si0 1.699505 1_555
O6 Si2 1.595520 1_555
O7 Si3 1.595698 1_555
O8 Si0 1.600037 1_555
O9 Si1 1.600025 1_555
O10 Si2 1.652204 1_555
O11 Si3 1.652121 1_555
O12 Si0 1.657242 1_555
O13 Si1 1.657211 1_555
