# generated using pymatgen
data_Ti12Fe5O32
_symmetry_space_group_name_H-M   'P 1'
_cell_length_a   8.44229258
_cell_length_b   8.44229258
_cell_length_c   8.44229272
_cell_angle_alpha   90.08969432
_cell_angle_beta   90.08969432
_cell_angle_gamma   90.08969259
_symmetry_Int_Tables_number   1
_chemical_formula_structural   Ti12Fe5O32
_chemical_formula_sum   'Ti12 Fe5 O32'
_cell_volume   601.69943854
_cell_formula_units_Z   1
loop_
 _symmetry_equiv_pos_site_id
 _symmetry_equiv_pos_as_xyz
  1  'x, y, z'
loop_
 _atom_site_type_symbol
 _atom_site_label
 _atom_site_symmetry_multiplicity
 _atom_site_fract_x
 _atom_site_fract_y
 _atom_site_fract_z
 _atom_site_occupancy
  Ti  Ti0  1  0.85021700  0.88437600  0.38101200  1
  Ti  Ti1  1  0.12205300  0.86344800  0.63452700  1
  Ti  Ti2  1  0.38101200  0.85021700  0.88437600  1
  Ti  Ti3  1  0.86344800  0.63452700  0.12205300  1
  Ti  Ti4  1  0.61530400  0.63174700  0.35548600  1
  Ti  Ti5  1  0.35548600  0.61530400  0.63174700  1
  Ti  Ti6  1  0.14534200  0.39025200  0.12983200  1
  Ti  Ti7  1  0.88437600  0.38101200  0.85021700  1
  Ti  Ti8  1  0.63174700  0.35548600  0.61530400  1
  Ti  Ti9  1  0.12983200  0.14534200  0.39025200  1
  Ti  Ti10  1  0.39025200  0.12983200  0.14534200  1
  Ti  Ti11  1  0.63452700  0.12205300  0.86344800  1
  Fe  Fe0  1  0.24470900  0.75642700  0.26015700  1
  Fe  Fe1  1  0.74094300  0.74094300  0.74094300  1
  Fe  Fe2  1  0.75642700  0.26015700  0.24470900  1
  Fe  Fe3  1  0.26015700  0.24470900  0.75642700  1
  Fe  Fe4  1  0.00500900  0.00500900  0.00500900  1
  O  O0  1  0.61235800  0.88626400  0.85907600  1
  O  O1  1  0.11233600  0.88835100  0.39372700  1
  O  O2  1  0.35176700  0.88778200  0.10964000  1
  O  O3  1  0.88626400  0.85907600  0.61235800  1
  O  O4  1  0.13460300  0.89285400  0.86023100  1
  O  O5  1  0.64143100  0.85800200  0.38114500  1
  O  O6  1  0.35171500  0.85499100  0.65046500  1
  O  O7  1  0.89285400  0.86023100  0.13460300  1
  O  O8  1  0.38114500  0.64143100  0.85800200  1
  O  O9  1  0.85499100  0.65046500  0.35171500  1
  O  O10  1  0.14195900  0.64365600  0.61932100  1
  O  O11  1  0.64365600  0.61932100  0.14195900  1
  O  O12  1  0.38827900  0.64343800  0.39119700  1
  O  O13  1  0.85907600  0.61235800  0.88626400  1
  O  O14  1  0.61062100  0.61062100  0.61062100  1
  O  O15  1  0.11460300  0.61319800  0.14168000  1
  O  O16  1  0.39119700  0.38827900  0.64343800  1
  O  O17  1  0.88835100  0.39372700  0.11233600  1
  O  O18  1  0.64343800  0.39119700  0.38827900  1
  O  O19  1  0.10964000  0.35176700  0.88778200  1
  O  O20  1  0.85800200  0.38114500  0.64143100  1
  O  O21  1  0.35377600  0.34977500  0.11908300  1
  O  O22  1  0.65046500  0.35171500  0.85499100  1
  O  O23  1  0.11908300  0.35377600  0.34977500  1
  O  O24  1  0.61932100  0.14195900  0.64365600  1
  O  O25  1  0.13440800  0.13440800  0.13440800  1
  O  O26  1  0.86023100  0.13460300  0.89285400  1
  O  O27  1  0.34977500  0.11908300  0.35377600  1
  O  O28  1  0.61319800  0.14168000  0.11460300  1
  O  O29  1  0.14168000  0.11460300  0.61319800  1
  O  O30  1  0.39372700  0.11233600  0.88835100  1
  O  O31  1  0.88778200  0.10964000  0.35176700  1
loop_
_geom_bond_atom_site_label_1
_geom_bond_atom_site_label_2
_geom_bond_distance
_geom_bond_site_symmetry_2
Fe0 O12 1.898832 1_555
Fe0 O15 1.912495 1_555
Fe0 O2 1.914731 1_555
Fe0 O1 1.940302 1_555
Fe1 O14 1.902645 1_555
Fe1 O0 1.918835 1_555
Fe1 O13 1.918835 1_555
Fe1 O3 1.918835 1_555
Fe2 O18 1.898833 1_555
Fe2 O28 1.912495 1_555
Fe2 O31 1.914731 1_555
Fe2 O17 1.940302 1_555
Fe3 O16 1.898833 1_555
Fe3 O29 1.912495 1_555
Fe3 O19 1.914731 1_555
Fe3 O30 1.940302 1_555
Fe4 O25 1.889170 1_555
Fe4 O26 1.895054 1_454
Fe4 O4 1.895054 1_544
Fe4 O7 1.895054 1_445
O0 Ti2 1.988075 1_555
O0 Ti11 1.999365 1_565
O1 Ti1 2.045605 1_555
O1 Ti9 2.174631 1_565
O1 Ti0 2.215519 1_455
O2 Ti2 1.943705 1_554
O2 Ti10 2.089931 1_565
O3 Ti0 1.988075 1_555
O3 Ti1 1.999365 1_655
O4 Ti1 1.923911 1_555
O4 Ti2 2.121281 1_555
O5 Ti0 1.776296 1_555
O5 Ti4 1.934253 1_555
O6 Ti1 1.944757 1_555
O6 Ti2 1.990268 1_555
O6 Ti5 2.029725 1_555
O7 Ti3 1.923911 1_555
O7 Ti0 2.121281 1_555
O8 Ti2 1.776296 1_555
O8 Ti5 1.934253 1_555
O9 Ti3 1.944757 1_555
O9 Ti0 1.990268 1_555
O9 Ti4 2.029725 1_555
O10 Ti5 1.821732 1_555
O10 Ti1 1.867640 1_555
O11 Ti4 1.821732 1_555
O11 Ti3 1.867640 1_555
O12 Ti4 1.943281 1_555
O12 Ti5 2.064036 1_555
O13 Ti7 1.988075 1_555
O13 Ti3 1.999365 1_556
O14 Ti8 2.161992 1_555
O14 Ti5 2.161992 1_555
O14 Ti4 2.161992 1_555
O15 Ti6 1.902881 1_555
O15 Ti3 2.134442 1_455
O16 Ti5 1.943281 1_555
O16 Ti8 2.064036 1_555
O17 Ti3 2.045605 1_555
O17 Ti6 2.174631 1_655
O17 Ti7 2.215519 1_554
O18 Ti8 1.943281 1_555
O18 Ti4 2.064036 1_555
O19 Ti7 1.943705 1_455
O19 Ti6 2.089931 1_556
O20 Ti7 1.776296 1_555
O20 Ti8 1.934253 1_555
O21 Ti6 1.795466 1_555
O21 Ti10 1.895951 1_555
O22 Ti11 1.944757 1_555
O22 Ti7 1.990268 1_555
O22 Ti8 2.029725 1_555
O23 Ti9 1.795466 1_555
O23 Ti6 1.895951 1_555
O24 Ti8 1.821732 1_555
O24 Ti11 1.867640 1_555
O25 Ti10 2.162145 1_555
O25 Ti6 2.162145 1_555
O25 Ti9 2.162145 1_555
O26 Ti11 1.923911 1_555
O26 Ti7 2.121281 1_555
O27 Ti10 1.795466 1_555
O27 Ti9 1.895951 1_555
O28 Ti10 1.902881 1_555
O28 Ti11 2.134442 1_554
O29 Ti9 1.902881 1_555
O29 Ti1 2.134442 1_545
O30 Ti11 2.045605 1_555
O30 Ti10 2.174632 1_556
O30 Ti2 2.215519 1_545
O31 Ti0 1.943705 1_545
O31 Ti9 2.089931 1_655
