# generated using pymatgen
data_Li2FeOF3
_symmetry_space_group_name_H-M   'P 1'
_cell_length_a   5.80709000
_cell_length_b   5.29003400
_cell_length_c   9.84287206
_cell_angle_alpha   82.76339815
_cell_angle_beta   90.00000000
_cell_angle_gamma   90.00000000
_symmetry_Int_Tables_number   1
_chemical_formula_structural   Li2FeOF3
_chemical_formula_sum   'Li8 Fe4 O4 F12'
_cell_volume   299.96156220
_cell_formula_units_Z   4
loop_
 _symmetry_equiv_pos_site_id
 _symmetry_equiv_pos_as_xyz
  1  'x, y, z'
loop_
 _atom_site_type_symbol
 _atom_site_label
 _atom_site_symmetry_multiplicity
 _atom_site_fract_x
 _atom_site_fract_y
 _atom_site_fract_z
 _atom_site_occupancy
  Li  Li0  1  0.40264300  0.49441100  0.25933800  1
  Li  Li1  1  0.62310500  0.73815300  0.01272400  1
  Li  Li2  1  0.59735700  0.49441100  0.75933800  1
  Li  Li3  1  0.37689500  0.73815300  0.51272400  1
  Li  Li4  1  0.12788900  0.96958800  0.24621700  1
  Li  Li5  1  0.63000700  0.00869000  0.24656900  1
  Li  Li6  1  0.87211100  0.96958800  0.74621700  1
  Li  Li7  1  0.36999300  0.00869000  0.74656900  1
  Fe  Fe0  1  0.86377400  0.25684200  0.99801800  1
  Fe  Fe1  1  0.13622600  0.25684200  0.49801800  1
  Fe  Fe2  1  0.10665400  0.74177100  0.99862800  1
  Fe  Fe3  1  0.89334600  0.74177100  0.49862800  1
  O  O0  1  0.12993900  0.59618000  0.39719800  1
  O  O1  1  0.88972300  0.92267100  0.10322800  1
  O  O2  1  0.87006100  0.59618000  0.89719800  1
  O  O3  1  0.11027700  0.92267100  0.60322800  1
  F  F0  1  0.35658200  0.13998000  0.35880400  1
  F  F1  1  0.89244100  0.08951200  0.37431600  1
  F  F2  1  0.12592600  0.39268400  0.11013400  1
  F  F3  1  0.62582800  0.35721500  0.12672600  1
  F  F4  1  0.64341800  0.13998000  0.85880400  1
  F  F5  1  0.10755900  0.08951200  0.87431600  1
  F  F6  1  0.87407400  0.39268400  0.61013400  1
  F  F7  1  0.37417200  0.35721500  0.62672600  1
  F  F8  1  0.62111300  0.68415000  0.38100800  1
  F  F9  1  0.36837100  0.82728400  0.13397400  1
  F  F10  1  0.37888700  0.68415000  0.88100800  1
  F  F11  1  0.63162900  0.82728400  0.63397400  1
loop_
_geom_bond_atom_site_label_1
_geom_bond_atom_site_label_2
_geom_bond_distance
_geom_bond_site_symmetry_2
Li0 O0 2.196133 1_555
Li1 O2 2.031961 1_554
Li1 O1 2.088675 1_555
Li2 O2 2.196133 1_555
Li3 O0 2.031961 1_555
Li3 O3 2.088675 1_555
Li4 O1 2.010789 1_455
Li4 O0 2.317544 1_555
Li5 O1 2.152687 1_545
Li6 O3 2.010789 1_655
Li6 O2 2.317544 1_555
Li7 O3 2.152687 1_545
Fe0 O1 1.938798 1_546
Fe0 O2 1.939003 1_555
Fe1 O3 1.938798 1_545
Fe1 O0 1.939003 1_555
Fe2 O2 1.916056 1_455
Fe2 O1 1.952165 1_456
Fe3 O0 1.916056 1_655
Fe3 O3 1.952165 1_655
F0 Li4 2.013925 1_545
F0 Li0 2.020652 1_555
F0 Fe1 2.027477 1_555
F0 Li5 2.101709 1_555
F0 Li3 2.452826 1_545
F1 Li4 2.015733 1_645
F1 Li5 2.054701 1_555
F1 Fe3 2.077044 1_545
F1 Fe1 2.131135 1_655
F2 Fe2 2.028973 1_554
F2 Fe0 2.061920 1_454
F2 Li0 2.286409 1_555
F2 Li4 2.459364 1_545
F3 Fe0 1.991389 1_554
F3 Li0 2.036893 1_555
F3 Li5 2.059949 1_555
F3 Li1 2.179592 1_555
F4 Li6 2.013925 1_545
F4 Li2 2.020652 1_555
F4 Fe0 2.027477 1_555
F4 Li7 2.101709 1_555
F4 Li1 2.452826 1_546
F5 Li6 2.015733 1_445
F5 Li7 2.054701 1_555
F5 Fe2 2.077044 1_545
F5 Fe0 2.131135 1_455
F6 Fe3 2.028973 1_555
F6 Fe1 2.061920 1_655
F6 Li2 2.286409 1_555
F6 Li6 2.459364 1_545
F7 Fe1 1.991389 1_555
F7 Li2 2.036893 1_555
F7 Li7 2.059949 1_555
F7 Li3 2.179592 1_555
F8 Li3 1.966474 1_555
F8 Fe3 2.005322 1_555
F8 Li5 2.031957 1_565
F8 Li0 2.086634 1_555
F9 Li4 1.986708 1_555
F9 Li1 1.994147 1_555
F9 Li0 2.028696 1_555
F9 Fe2 2.107376 1_554
F9 Li5 2.173821 1_565
F10 Li1 1.966474 1_556
F10 Fe2 2.005322 1_555
F10 Li7 2.031957 1_565
F10 Li2 2.086634 1_555
F11 Li6 1.986708 1_555
F11 Li3 1.994147 1_555
F11 Li2 2.028696 1_555
F11 Fe3 2.107376 1_555
F11 Li7 2.173821 1_565
