# generated using pymatgen
data_LiV2P4(HO8)2
_symmetry_space_group_name_H-M   'P 1'
_cell_length_a   9.28830774
_cell_length_b   9.28229812
_cell_length_c   7.77858679
_cell_angle_alpha   78.06653096
_cell_angle_beta   77.89508020
_cell_angle_gamma   116.36518989
_symmetry_Int_Tables_number   1
_chemical_formula_structural   LiV2P4(HO8)2
_chemical_formula_sum   'Li2 V4 P8 H4 O32'
_cell_volume   552.02658683
_cell_formula_units_Z   2
loop_
 _symmetry_equiv_pos_site_id
 _symmetry_equiv_pos_as_xyz
  1  'x, y, z'
loop_
 _atom_site_type_symbol
 _atom_site_label
 _atom_site_symmetry_multiplicity
 _atom_site_fract_x
 _atom_site_fract_y
 _atom_site_fract_z
 _atom_site_occupancy
  Li  Li0  1  0.45924600  0.08952100  0.35615000  1
  Li  Li1  1  0.65832200  0.78639900  0.14393300  1
  V  V0  1  0.24026300  0.25114700  0.50422600  1
  V  V1  1  0.49998500  0.00668100  0.98748500  1
  V  V2  1  0.99765300  0.49502700  0.00193500  1
  V  V3  1  0.75351600  0.74980000  0.50448400  1
  P  P0  1  0.25309800  0.60639700  0.26799600  1
  P  P1  1  0.75201700  0.10214200  0.26496100  1
  P  P2  1  0.64426100  0.49295700  0.23255600  1
  P  P3  1  0.14640900  0.99948300  0.23459300  1
  P  P4  1  0.35449000  0.50383000  0.76806600  1
  P  P5  1  0.85077500  0.00402200  0.76605800  1
  P  P6  1  0.75008000  0.39880500  0.73158800  1
  P  P7  1  0.23833600  0.89393200  0.73589600  1
  H  H0  1  0.75939700  0.26773900  0.51279500  1
  H  H1  1  0.24230900  0.73677000  0.49226900  1
  H  H2  1  0.48424800  0.49145800  0.98736300  1
  H  H3  1  0.01727400  0.00966300  0.01599000  1
  O  O0  1  0.12393200  0.07244200  0.05205700  1
  O  O1  1  0.17660300  0.12883600  0.34456000  1
  O  O2  1  0.01403900  0.18055900  0.63324300  1
  O  O3  1  0.21968000  0.05458900  0.67659500  1
  O  O4  1  0.62594400  0.07126900  0.15188000  1
  O  O5  1  0.12600600  0.56782100  0.16018000  1
  O  O6  1  0.27182800  0.44532100  0.32996400  1
  O  O7  1  0.48598600  0.31522600  0.36471200  1
  O  O8  1  0.67704700  0.13565800  0.43415800  1
  O  O9  1  0.17959700  0.63220900  0.44684700  1
  O  O10  1  0.31490700  0.37455800  0.65914800  1
  O  O11  1  0.19429400  0.52239000  0.82832800  1
  O  O12  1  0.69729900  0.02994700  0.81000800  1
  O  O13  1  0.61349100  0.57173900  0.06372900  1
  O  O14  1  0.92800700  0.26502000  0.13030800  1
  O  O15  1  0.43057400  0.75972800  0.13772100  1
  O  O16  1  0.57517000  0.24324900  0.86307700  1
  O  O17  1  0.06790400  0.73395800  0.87232100  1
  O  O18  1  0.37854700  0.42623700  0.94647700  1
  O  O19  1  0.80314700  0.47131800  0.17313800  1
  O  O20  1  0.31076900  0.99036400  0.18781900  1
  O  O21  1  0.68092300  0.61992300  0.34323100  1
  O  O22  1  0.82541900  0.37217900  0.55279800  1
  O  O23  1  0.31438500  0.87033700  0.55900800  1
  O  O24  1  0.50976400  0.67544200  0.63497300  1
  O  O25  1  0.72825700  0.55373800  0.68121300  1
  O  O26  1  0.87782600  0.43197100  0.84201900  1
  O  O27  1  0.36375400  0.93209000  0.84884000  1
  O  O28  1  0.77085200  0.94391300  0.30863600  1
  O  O29  1  0.99154700  0.82534400  0.36414300  1
  O  O30  1  0.82312900  0.88424100  0.64797600  1
  O  O31  1  0.87667600  0.93361900  0.94254800  1
loop_
_geom_bond_atom_site_label_1
_geom_bond_atom_site_label_2
_geom_bond_distance
_geom_bond_site_symmetry_2
Li0 O23 1.946828 1_545
Li0 O7 2.014418 1_555
Li0 O4 2.064767 1_555
Li0 O8 2.120602 1_555
Li0 O20 2.142866 1_545
Li1 O31 1.937858 1_554
Li1 O15 2.030071 1_555
Li1 O21 2.066197 1_555
Li1 O13 2.102125 1_555
Li1 O28 2.202385 1_555
H0 O22 1.043773 1_555
H0 O8 1.461433 1_555
H1 O9 1.064015 1_555
H1 O23 1.389081 1_555
H2 O18 1.055569 1_555
H2 O13 1.427182 1_556
H3 O0 1.034963 1_555
H3 O31 1.480185 1_444
O0 P3 1.539643 1_545
O1 P3 1.574254 1_545
O1 V0 1.864398 1_555
O2 P5 1.577307 1_455
O2 V0 1.863463 1_555
O3 P7 1.563727 1_545
O3 V0 1.932387 1_555
O4 P1 1.570121 1_555
O4 V1 1.919626 1_554
O5 P0 1.545653 1_555
O5 V2 1.907089 1_455
O6 P0 1.570431 1_555
O6 V0 1.877647 1_555
O7 P2 1.565362 1_555
O7 V0 2.056483 1_555
O8 P1 1.513673 1_555
O9 P0 1.530925 1_555
O10 P4 1.565904 1_555
O10 V0 1.860387 1_555
O11 P4 1.559472 1_555
O11 V2 1.906769 1_456
O12 P5 1.530111 1_555
O12 V1 1.943024 1_555
O13 P2 1.512260 1_555
O14 P1 1.576996 1_555
O14 V2 1.895925 1_555
O15 P0 1.545662 1_555
O15 V1 2.073523 1_564
O16 P6 1.542476 1_555
O16 V1 1.929214 1_555
O17 P7 1.546949 1_555
O17 V2 1.968516 1_456
O18 P4 1.534361 1_555
O19 P2 1.564447 1_555
O19 V2 1.898006 1_555
O20 P3 1.537752 1_555
O20 V1 2.014301 1_564
O21 P2 1.559531 1_555
O21 V3 1.933756 1_555
O22 P6 1.540291 1_555
O23 P7 1.514772 1_555
O24 P4 1.529899 1_555
O24 V3 1.997768 1_555
O25 P6 1.523823 1_555
O25 V3 1.925558 1_555
O26 P6 1.566185 1_555
O26 V2 1.852517 1_556
O27 P7 1.563901 1_555
O27 V1 1.829368 1_565
O28 P1 1.532964 1_565
O28 V3 2.024237 1_555
O29 P3 1.533186 1_655
O29 V3 1.966144 1_555
O30 P5 1.553535 1_565
O30 V3 1.839363 1_555
O31 P5 1.508899 1_565
