# generated using pymatgen
data_LiBi4B3O11
_symmetry_space_group_name_H-M   'P 1'
_cell_length_a   6.53282708
_cell_length_b   6.53282708
_cell_length_c   12.40333754
_cell_angle_alpha   83.08876285
_cell_angle_beta   83.08876285
_cell_angle_gamma   88.84086912
_symmetry_Int_Tables_number   1
_chemical_formula_structural   LiBi4B3O11
_chemical_formula_sum   'Li2 Bi8 B6 O22'
_cell_volume   521.67386527
_cell_formula_units_Z   2
loop_
 _symmetry_equiv_pos_site_id
 _symmetry_equiv_pos_as_xyz
  1  'x, y, z'
loop_
 _atom_site_type_symbol
 _atom_site_label
 _atom_site_symmetry_multiplicity
 _atom_site_fract_x
 _atom_site_fract_y
 _atom_site_fract_z
 _atom_site_occupancy
  Li  Li0  1  0.11211800  0.88788200  0.75000000  1
  Li  Li1  1  0.88788200  0.11211800  0.25000000  1
  Bi  Bi0  1  0.60077600  0.92012500  0.83241900  1
  Bi  Bi1  1  0.92012500  0.60077600  0.33241900  1
  Bi  Bi2  1  0.82604600  0.39964800  0.92126000  1
  Bi  Bi3  1  0.39964800  0.82604600  0.42126000  1
  Bi  Bi4  1  0.60035200  0.17395400  0.57874000  1
  Bi  Bi5  1  0.17395400  0.60035200  0.07874000  1
  Bi  Bi6  1  0.07987500  0.39922400  0.66758100  1
  Bi  Bi7  1  0.39922400  0.07987500  0.16758100  1
  B  B0  1  0.86163500  0.82691500  0.57377500  1
  B  B1  1  0.82691500  0.86163500  0.07377500  1
  B  B2  1  0.53206400  0.46793600  0.75000000  1
  B  B3  1  0.46793600  0.53206400  0.25000000  1
  B  B4  1  0.17308500  0.13836500  0.92622500  1
  B  B5  1  0.13836500  0.17308500  0.42622500  1
  O  O0  1  0.86289600  0.95369200  0.65593700  1
  O  O1  1  0.95369200  0.86289600  0.15593700  1
  O  O2  1  0.70383200  0.86724200  0.50643600  1
  O  O3  1  0.86724200  0.70383200  0.00643600  1
  O  O4  1  0.40878800  0.99337400  0.70544600  1
  O  O5  1  0.32002400  0.98939200  0.94797100  1
  O  O6  1  0.99337400  0.40878800  0.20544600  1
  O  O7  1  0.98939200  0.32002400  0.44797100  1
  O  O8  1  0.51840800  0.58712200  0.83537400  1
  O  O9  1  0.68660200  0.31339800  0.75000000  1
  O  O10  1  0.58712200  0.51840800  0.33537400  1
  O  O11  1  0.41287800  0.48159200  0.66462600  1
  O  O12  1  0.31339800  0.68660200  0.25000000  1
  O  O13  1  0.48159200  0.41287800  0.16462600  1
  O  O14  1  0.01060800  0.67997600  0.55202900  1
  O  O15  1  0.00662600  0.59121200  0.79455400  1
  O  O16  1  0.67997600  0.01060800  0.05202900  1
  O  O17  1  0.59121200  0.00662600  0.29455400  1
  O  O18  1  0.13275800  0.29616800  0.99356400  1
  O  O19  1  0.29616800  0.13275800  0.49356400  1
  O  O20  1  0.04630800  0.13710400  0.84406300  1
  O  O21  1  0.13710400  0.04630800  0.34406300  1
loop_
_geom_bond_atom_site_label_1
_geom_bond_atom_site_label_2
_geom_bond_distance
_geom_bond_site_symmetry_2
Li0 O15 2.059409 1_555
Li0 O4 2.059409 1_555
Li0 O20 2.122478 1_565
Li0 O0 2.122478 1_455
Li1 O17 2.059409 1_555
Li1 O6 2.059409 1_555
Li1 O21 2.122478 1_655
Li1 O1 2.122478 1_545
Bi0 O4 2.133556 1_555
Bi0 O8 2.246531 1_555
Bi0 O5 2.261134 1_555
Bi0 O0 2.601826 1_555
Bi0 O9 2.692281 1_565
Bi1 O6 2.133556 1_555
Bi1 O10 2.246531 1_555
Bi1 O7 2.261134 1_555
Bi1 O1 2.601826 1_555
Bi1 O12 2.692281 1_655
Bi2 O15 2.137264 1_655
Bi2 O18 2.346874 1_655
Bi2 O3 2.394316 1_556
Bi2 O20 2.427528 1_655
Bi2 O9 2.536544 1_555
Bi2 O8 2.602985 1_555
Bi3 O17 2.137264 1_565
Bi3 O19 2.346874 1_565
Bi3 O2 2.394316 1_555
Bi3 O21 2.427528 1_565
Bi3 O12 2.536544 1_555
Bi3 O10 2.602985 1_555
Bi4 O4 2.137264 1_545
Bi4 O2 2.346874 1_545
Bi4 O19 2.394316 1_555
Bi4 O0 2.427528 1_545
Bi4 O9 2.536544 1_555
Bi4 O11 2.602985 1_555
Bi5 O6 2.137264 1_455
Bi5 O3 2.346874 1_455
Bi5 O18 2.394316 1_554
Bi5 O1 2.427528 1_455
Bi5 O12 2.536544 1_555
Bi5 O13 2.602985 1_555
Bi6 O15 2.133556 1_555
Bi6 O11 2.246531 1_555
Bi6 O14 2.261134 1_555
Bi6 O20 2.601826 1_555
Bi6 O9 2.692281 1_455
Bi7 O17 2.133556 1_555
Bi7 O13 2.246531 1_555
Bi7 O16 2.261134 1_555
Bi7 O21 2.601826 1_555
Bi7 O12 2.692281 1_545
B0 O14 1.379383 1_655
B0 O0 1.389228 1_555
B0 O2 1.404650 1_555
B1 O16 1.379383 1_565
B1 O1 1.389228 1_555
B1 O3 1.404650 1_555
B2 O11 1.381452 1_555
B2 O8 1.381452 1_555
B2 O9 1.413233 1_555
B3 O13 1.381452 1_555
B3 O10 1.381452 1_555
B3 O12 1.413233 1_555
B4 O5 1.379383 1_545
B4 O20 1.389228 1_555
B4 O18 1.404650 1_555
B5 O7 1.379383 1_455
B5 O21 1.389228 1_555
B5 O19 1.404650 1_555
