# generated using pymatgen
data_LiMnF4
_symmetry_space_group_name_H-M   'P 1'
_cell_length_a   7.88056749
_cell_length_b   7.88056749
_cell_length_c   12.54865280
_cell_angle_alpha   58.26905189
_cell_angle_beta   58.26905189
_cell_angle_gamma   29.25811646
_symmetry_Int_Tables_number   1
_chemical_formula_structural   LiMnF4
_chemical_formula_sum   'Li4 Mn4 F16'
_cell_volume   319.70571812
_cell_formula_units_Z   4
loop_
 _symmetry_equiv_pos_site_id
 _symmetry_equiv_pos_as_xyz
  1  'x, y, z'
loop_
 _atom_site_type_symbol
 _atom_site_label
 _atom_site_symmetry_multiplicity
 _atom_site_fract_x
 _atom_site_fract_y
 _atom_site_fract_z
 _atom_site_occupancy
  Li  Li0  1  0.18590300  0.18590300  0.83273300  1
  Li  Li1  1  0.35066700  0.35066700  0.32784000  1
  Li  Li2  1  0.64933300  0.64933300  0.67216000  1
  Li  Li3  1  0.81409700  0.81409700  0.16726700  1
  Mn  Mn0  1  0.95608500  0.95608500  0.87168700  1
  Mn  Mn1  1  0.85427900  0.85427900  0.64346000  1
  Mn  Mn2  1  0.14572100  0.14572100  0.35654000  1
  Mn  Mn3  1  0.04391500  0.04391500  0.12831300  1
  F  F0  1  0.47057700  0.47057700  0.85190500  1
  F  F1  1  0.90482300  0.90482300  0.75070700  1
  F  F2  1  0.82293500  0.82293500  0.00894200  1
  F  F3  1  0.33568900  0.33568900  0.66534400  1
  F  F4  1  0.70198000  0.70198000  0.78870400  1
  F  F5  1  0.80153200  0.80153200  0.54136900  1
  F  F6  1  0.90050800  0.90050800  0.26448500  1
  F  F7  1  0.09949200  0.09949200  0.73551500  1
  F  F8  1  0.19846800  0.19846800  0.45863100  1
  F  F9  1  0.29802000  0.29802000  0.21129600  1
  F  F10  1  0.66431100  0.66431100  0.33465600  1
  F  F11  1  0.17706500  0.17706500  0.99105800  1
  F  F12  1  0.00000000  0.00000000  0.50000000  1
  F  F13  1  0.09517700  0.09517700  0.24929300  1
  F  F14  1  0.52942300  0.52942300  0.14809500  1
  F  F15  1  0.00000000  0.00000000  0.00000000  1
loop_
_geom_bond_atom_site_label_1
_geom_bond_atom_site_label_2
_geom_bond_distance
_geom_bond_site_symmetry_2
F0 Mn0 2.003044 1_455
F0 Mn0 2.003044 1_545
F0 Li2 2.415486 1_555
F1 Mn1 1.879639 1_555
F1 Mn0 2.050869 1_555
F2 Mn0 1.813206 1_554
F2 Li3 1.916846 1_555
F3 Mn1 2.008112 1_455
F3 Mn1 2.008112 1_545
F3 Li0 2.100937 1_555
F4 Li2 2.014917 1_555
F4 Mn1 2.028404 1_555
F4 Li0 2.044376 1_655
F4 Li0 2.044376 1_565
F5 Mn1 1.846233 1_555
F5 Li2 1.984884 1_555
F6 Mn3 1.907938 1_665
F6 Li1 2.124671 1_655
F6 Li1 2.124671 1_565
F6 Li3 2.229913 1_555
F7 Mn0 1.907938 1_445
F7 Li2 2.124671 1_455
F7 Li2 2.124671 1_545
F7 Li0 2.229913 1_555
F8 Mn2 1.846233 1_555
F8 Li1 1.984884 1_555
F9 Li1 2.014917 1_555
F9 Mn2 2.028404 1_555
F9 Li3 2.044376 1_455
F9 Li3 2.044376 1_545
F10 Mn2 2.008112 1_565
F10 Mn2 2.008112 1_655
F10 Li3 2.100937 1_555
F11 Mn3 1.813206 1_556
F11 Li0 1.916846 1_555
F12 Mn2 1.957101 1_555
F12 Mn1 1.957101 1_445
F13 Mn2 1.879639 1_555
F13 Mn3 2.050869 1_555
F14 Mn3 2.003044 1_655
F14 Mn3 2.003044 1_565
F14 Li1 2.415486 1_555
F15 Mn3 2.052652 1_555
F15 Mn0 2.052652 1_444
F15 Li0 2.444214 1_554
F15 Li3 2.444214 1_445
