# generated using pymatgen
data_Li2Cr(Si2O5)3
_symmetry_space_group_name_H-M   'P 1'
_cell_length_a   10.01282045
_cell_length_b   10.01282045
_cell_length_c   14.23953000
_cell_angle_alpha   90.00000000
_cell_angle_beta   90.00000000
_cell_angle_gamma   120.00000296
_symmetry_Int_Tables_number   1
_chemical_formula_structural   Li2Cr(Si2O5)3
_chemical_formula_sum   'Li8 Cr4 Si24 O60'
_cell_volume   1236.34344436
_cell_formula_units_Z   4
loop_
 _symmetry_equiv_pos_site_id
 _symmetry_equiv_pos_as_xyz
  1  'x, y, z'
loop_
 _atom_site_type_symbol
 _atom_site_label
 _atom_site_symmetry_multiplicity
 _atom_site_fract_x
 _atom_site_fract_y
 _atom_site_fract_z
 _atom_site_occupancy
  Li  Li0  1  0.49981100  0.00000000  0.50000000  1
  Li  Li1  1  0.00000000  0.49981100  0.50000000  1
  Li  Li2  1  0.00000000  0.49981100  0.00000000  1
  Li  Li3  1  0.49981100  0.00000000  0.00000000  1
  Li  Li4  1  0.50018900  0.50018900  0.50000000  1
  Li  Li5  1  0.50018900  0.50018900  0.00000000  1
  Li  Li6  1  0.33333300  0.66666700  0.75000000  1
  Li  Li7  1  0.66666700  0.33333300  0.25000000  1
  Cr  Cr0  1  0.33333300  0.66666700  0.00157100  1
  Cr  Cr1  1  0.66666700  0.33333300  0.50157100  1
  Cr  Cr2  1  0.66666700  0.33333300  0.99842900  1
  Cr  Cr3  1  0.33333300  0.66666700  0.49842900  1
  Si  Si0  1  0.12710200  0.36109100  0.63839100  1
  Si  Si1  1  0.36109100  0.12710200  0.13839100  1
  Si  Si2  1  0.36109100  0.12710200  0.36160900  1
  Si  Si3  1  0.12710200  0.36109100  0.86160900  1
  Si  Si4  1  0.23489000  0.36166700  0.36079200  1
  Si  Si5  1  0.36166700  0.23489000  0.63920800  1
  Si  Si6  1  0.36166700  0.23489000  0.86079200  1
  Si  Si7  1  0.23489000  0.36166700  0.13920800  1
  Si  Si8  1  0.12677600  0.76511000  0.36079200  1
  Si  Si9  1  0.76511000  0.12677600  0.63920800  1
  Si  Si10  1  0.76511000  0.12677600  0.86079200  1
  Si  Si11  1  0.12677600  0.76511000  0.13920800  1
  Si  Si12  1  0.87289800  0.23398900  0.36160900  1
  Si  Si13  1  0.87289800  0.23398900  0.13839100  1
  Si  Si14  1  0.23398900  0.87289800  0.63839100  1
  Si  Si15  1  0.23398900  0.87289800  0.86160900  1
  Si  Si16  1  0.63890900  0.76601100  0.63839100  1
  Si  Si17  1  0.76601100  0.63890900  0.13839100  1
  Si  Si18  1  0.76601100  0.63890900  0.36160900  1
  Si  Si19  1  0.63890900  0.76601100  0.86160900  1
  Si  Si20  1  0.87322400  0.63833300  0.63920800  1
  Si  Si21  1  0.63833300  0.87322400  0.36079200  1
  Si  Si22  1  0.87322400  0.63833300  0.86079200  1
  Si  Si23  1  0.63833300  0.87322400  0.13920800  1
  O  O0  1  0.05140100  0.28505600  0.38325400  1
  O  O1  1  0.28505600  0.05140100  0.61674600  1
  O  O2  1  0.28505600  0.05140100  0.88325400  1
  O  O3  1  0.05140100  0.28505600  0.11674600  1
  O  O4  1  0.28394200  0.23226800  0.38506000  1
  O  O5  1  0.23226800  0.28394200  0.61494000  1
  O  O6  1  0.28394200  0.23226800  0.11494000  1
  O  O7  1  0.23226800  0.28394200  0.88506000  1
  O  O8  1  0.41894800  0.15425200  0.25000000  1
  O  O9  1  0.15425200  0.41894800  0.75000000  1
  O  O10  1  0.26546300  0.40639900  0.25000000  1
  O  O11  1  0.40639900  0.26546300  0.75000000  1
  O  O12  1  0.51393900  0.17032800  0.42210800  1
  O  O13  1  0.51393900  0.17032800  0.07789200  1
  O  O14  1  0.17032800  0.51393900  0.57789200  1
  O  O15  1  0.17032800  0.51393900  0.92210800  1
  O  O16  1  0.65766200  0.16886300  0.57532600  1
  O  O17  1  0.16886300  0.65766200  0.42467400  1
  O  O18  1  0.65766200  0.16886300  0.92467400  1
  O  O19  1  0.16886300  0.65766200  0.07532600  1
  O  O20  1  0.76773200  0.05167400  0.11494000  1
  O  O21  1  0.76773200  0.05167400  0.38506000  1
  O  O22  1  0.05167400  0.76773200  0.61494000  1
  O  O23  1  0.05167400  0.76773200  0.88506000  1
  O  O24  1  0.51120000  0.34233800  0.57532600  1
  O  O25  1  0.34233800  0.51120000  0.42467400  1
  O  O26  1  0.51120000  0.34233800  0.92467400  1
  O  O27  1  0.34233800  0.51120000  0.07532600  1
  O  O28  1  0.14093500  0.73453700  0.25000000  1
  O  O29  1  0.73453700  0.14093500  0.75000000  1
  O  O30  1  0.84574800  0.26469600  0.25000000  1
  O  O31  1  0.26469600  0.84574800  0.75000000  1
  O  O32  1  0.65638900  0.48606100  0.42210800  1
  O  O33  1  0.65638900  0.48606100  0.07789200  1
  O  O34  1  0.48606100  0.65638900  0.57789200  1
  O  O35  1  0.48606100  0.65638900  0.92210800  1
  O  O36  1  0.94859900  0.23365500  0.61674600  1
  O  O37  1  0.23365500  0.94859900  0.38325400  1
  O  O38  1  0.94859900  0.23365500  0.88325400  1
  O  O39  1  0.23365500  0.94859900  0.11674600  1
  O  O40  1  0.82967200  0.34361100  0.42210800  1
  O  O41  1  0.34361100  0.82967200  0.57789200  1
  O  O42  1  0.82967200  0.34361100  0.07789200  1
  O  O43  1  0.34361100  0.82967200  0.92210800  1
  O  O44  1  0.48880000  0.83113700  0.42467400  1
  O  O45  1  0.83113700  0.48880000  0.57532600  1
  O  O46  1  0.83113700  0.48880000  0.92467400  1
  O  O47  1  0.48880000  0.83113700  0.07532600  1
  O  O48  1  0.73530400  0.58105200  0.25000000  1
  O  O49  1  0.58105200  0.73530400  0.75000000  1
  O  O50  1  0.59360100  0.85906500  0.25000000  1
  O  O51  1  0.85906500  0.59360100  0.75000000  1
  O  O52  1  0.71494400  0.76634500  0.11674600  1
  O  O53  1  0.76634500  0.71494400  0.61674600  1
  O  O54  1  0.71494400  0.76634500  0.38325400  1
  O  O55  1  0.76634500  0.71494400  0.88325400  1
  O  O56  1  0.94832600  0.71605800  0.11494000  1
  O  O57  1  0.94832600  0.71605800  0.38506000  1
  O  O58  1  0.71605800  0.94832600  0.61494000  1
  O  O59  1  0.71605800  0.94832600  0.88506000  1
loop_
_geom_bond_atom_site_label_1
_geom_bond_atom_site_label_2
_geom_bond_distance
_geom_bond_site_symmetry_2
Li0 O16 1.958316 1_555
Li0 O44 1.958320 1_545
Li0 O41 1.979284 1_545
Li0 O12 1.979284 1_555
Li1 O17 1.958316 1_555
Li1 O45 1.958320 1_455
Li1 O40 1.979284 1_455
Li1 O14 1.979284 1_555
Li2 O19 1.958316 1_555
Li2 O46 1.958320 1_454
Li2 O42 1.979284 1_455
Li2 O15 1.979284 1_554
Li3 O18 1.958316 1_554
Li3 O47 1.958320 1_545
Li3 O43 1.979284 1_544
Li3 O13 1.979284 1_555
Li4 O24 1.958311 1_555
Li4 O25 1.958311 1_555
Li4 O34 1.979284 1_555
Li4 O32 1.979284 1_555
Li5 O27 1.958311 1_555
Li5 O26 1.958311 1_554
Li5 O33 1.979284 1_555
Li5 O35 1.979284 1_554
Li6 O31 2.218074 1_555
Li6 O9 2.218081 1_555
Li6 O49 2.218084 1_555
Li7 O30 2.218074 1_555
Li7 O8 2.218081 1_555
Li7 O48 2.218084 1_555
Cr0 O19 1.916930 1_555
Cr0 O47 1.916937 1_555
Cr0 O27 1.916947 1_555
Cr0 O43 1.945979 1_554
Cr0 O15 1.945982 1_554
Cr0 O35 1.945987 1_554
Cr1 O16 1.916930 1_555
Cr1 O45 1.916937 1_555
Cr1 O24 1.916947 1_555
Cr1 O40 1.945979 1_555
Cr1 O12 1.945982 1_555
Cr1 O32 1.945987 1_555
Cr2 O18 1.916930 1_555
Cr2 O46 1.916937 1_555
Cr2 O26 1.916947 1_555
Cr2 O42 1.945979 1_556
Cr2 O13 1.945982 1_556
Cr2 O33 1.945987 1_556
Cr3 O17 1.916930 1_555
Cr3 O44 1.916937 1_555
Cr3 O25 1.916947 1_555
Cr3 O41 1.945979 1_555
Cr3 O14 1.945982 1_555
Cr3 O34 1.945987 1_555
O0 Si12 1.623902 1_455
O0 Si4 1.629987 1_555
O1 Si14 1.623902 1_545
O1 Si5 1.629987 1_555
O2 Si15 1.623902 1_545
O2 Si6 1.629987 1_555
O3 Si13 1.623902 1_455
O3 Si7 1.629987 1_555
O4 Si2 1.621878 1_555
O4 Si4 1.635758 1_555
O5 Si0 1.621878 1_555
O5 Si5 1.635758 1_555
O6 Si1 1.621878 1_555
O6 Si7 1.635758 1_555
O7 Si3 1.621878 1_555
O7 Si6 1.635758 1_555
O8 Si2 1.666663 1_555
O8 Si1 1.666663 1_555
O9 Si3 1.666663 1_555
O9 Si0 1.666663 1_555
O10 Si7 1.626688 1_555
O10 Si4 1.626688 1_555
O11 Si5 1.626688 1_555
O11 Si6 1.626688 1_555
O12 Si2 1.615339 1_555
O13 Si1 1.615339 1_555
O14 Si0 1.615339 1_555
O15 Si3 1.615339 1_555
O16 Si9 1.617373 1_555
O17 Si8 1.617373 1_555
O18 Si10 1.617373 1_555
O19 Si11 1.617373 1_555
O20 Si13 1.621878 1_555
O20 Si23 1.635751 1_545
O21 Si12 1.621878 1_555
O21 Si21 1.635751 1_545
O22 Si14 1.621878 1_555
O22 Si20 1.635751 1_455
O23 Si15 1.621878 1_555
O23 Si22 1.635751 1_455
O24 Si5 1.617361 1_555
O25 Si4 1.617361 1_555
O26 Si6 1.617361 1_555
O27 Si7 1.617361 1_555
O28 Si11 1.626688 1_555
O28 Si8 1.626688 1_555
O29 Si9 1.626688 1_555
O29 Si10 1.626688 1_555
O30 Si12 1.666663 1_555
O30 Si13 1.666663 1_555
O31 Si15 1.666663 1_555
O31 Si14 1.666663 1_555
O32 Si18 1.615339 1_555
O33 Si17 1.615339 1_555
O34 Si16 1.615339 1_555
O35 Si19 1.615339 1_555
O36 Si0 1.623902 1_655
O36 Si9 1.629988 1_555
O37 Si2 1.623902 1_565
O37 Si8 1.629988 1_555
O38 Si3 1.623902 1_655
O38 Si10 1.629988 1_555
O39 Si1 1.623902 1_565
O39 Si11 1.629988 1_555
O40 Si12 1.615339 1_555
O41 Si14 1.615339 1_555
O42 Si13 1.615339 1_555
O43 Si15 1.615339 1_555
O44 Si21 1.617357 1_555
O45 Si20 1.617357 1_555
O46 Si22 1.617357 1_555
O47 Si23 1.617357 1_555
O48 Si18 1.666663 1_555
O48 Si17 1.666663 1_555
O49 Si19 1.666663 1_555
O49 Si16 1.666663 1_555
O50 Si21 1.626688 1_555
O50 Si23 1.626688 1_555
O51 Si20 1.626688 1_555
O51 Si22 1.626688 1_555
O52 Si17 1.623902 1_555
O52 Si23 1.629996 1_555
O53 Si16 1.623902 1_555
O53 Si20 1.629996 1_555
O54 Si18 1.623902 1_555
O54 Si21 1.629996 1_555
O55 Si19 1.623902 1_555
O55 Si22 1.629996 1_555
O56 Si17 1.621878 1_555
O56 Si11 1.635749 1_655
O57 Si18 1.621878 1_555
O57 Si8 1.635749 1_655
O58 Si16 1.621878 1_555
O58 Si9 1.635749 1_565
O59 Si19 1.621878 1_555
O59 Si10 1.635749 1_565
