# generated using pymatgen
data_InFe29O40
_symmetry_space_group_name_H-M   'P 1'
_cell_length_a   10.55692637
_cell_length_b   10.55692637
_cell_length_c   10.55692637
_cell_angle_alpha   99.62629264
_cell_angle_beta   99.62629264
_cell_angle_gamma   131.72511778
_symmetry_Int_Tables_number   1
_chemical_formula_structural   InFe29O40
_chemical_formula_sum   'In1 Fe29 O40'
_cell_volume   801.34180333
_cell_formula_units_Z   1
loop_
 _symmetry_equiv_pos_site_id
 _symmetry_equiv_pos_as_xyz
  1  'x, y, z'
loop_
 _atom_site_type_symbol
 _atom_site_label
 _atom_site_symmetry_multiplicity
 _atom_site_fract_x
 _atom_site_fract_y
 _atom_site_fract_z
 _atom_site_occupancy
  In  In0  1  0.75000000  0.25000000  0.50000000  1
  Fe  Fe0  1  0.07884800  0.72939200  0.54833700  1
  Fe  Fe1  1  0.67942000  0.53106300  0.45127600  1
  Fe  Fe2  1  0.46948900  0.92115200  0.65054400  1
  Fe  Fe3  1  0.20121600  0.60107400  0.80177400  1
  Fe  Fe4  1  0.39892600  0.20070000  0.60014200  1
  Fe  Fe5  1  0.18105500  0.53051100  0.45166300  1
  Fe  Fe6  1  0.87553800  0.62559700  0.75219900  1
  Fe  Fe7  1  0.77185600  0.32058000  0.85164300  1
  Fe  Fe8  1  0.97358600  0.92392400  0.64754900  1
  Fe  Fe9  1  0.07978700  0.22814400  0.54872400  1
  Fe  Fe10  1  0.55453500  0.65395900  0.70171400  1
  Fe  Fe11  1  0.34604100  0.04775500  0.90057600  1
  Fe  Fe12  1  0.46893700  0.92021300  0.14835700  1
  Fe  Fe13  1  0.07607600  0.72362500  0.04966200  1
  Fe  Fe14  1  0.67397800  0.52425300  0.94964500  1
  Fe  Fe15  1  0.87666100  0.12446200  0.75005900  1
  Fe  Fe16  1  0.27566700  0.32602200  0.85027600  1
  Fe  Fe17  1  0.79930000  0.39944200  0.19822600  1
  Fe  Fe18  1  0.00000000  0.00000000  0.00000000  1
  Fe  Fe19  1  0.37440300  0.12660200  0.24994100  1
  Fe  Fe20  1  0.67396300  0.02641400  0.95033800  1
  Fe  Fe21  1  0.57460900  0.72433300  0.05035500  1
  Fe  Fe22  1  0.27060800  0.81894500  0.34945600  1
  Fe  Fe23  1  0.47574700  0.42539100  0.14972400  1
  Fe  Fe24  1  0.95224500  0.85282100  0.29828600  1
  Fe  Fe25  1  0.14717900  0.44546500  0.09942400  1
  Fe  Fe26  1  0.27637500  0.32603700  0.35245100  1
  Fe  Fe27  1  0.87339800  0.12333900  0.24780100  1
  Fe  Fe28  1  0.60055800  0.79878400  0.39985800  1
  O  O0  1  0.42477000  0.77880500  0.44530100  1
  O  O1  1  0.22119500  0.66649500  0.64596500  1
  O  O2  1  0.33350500  0.97947000  0.55469900  1
  O  O3  1  0.82645300  0.49596900  0.56200800  1
  O  O4  1  0.73555600  0.17354700  0.66951600  1
  O  O5  1  0.92657200  0.78812000  0.45756600  1
  O  O6  1  0.53099400  0.07342800  0.86154700  1
  O  O7  1  0.33055300  0.46900600  0.54243400  1
  O  O8  1  0.10765500  0.86809800  0.74594600  1
  O  O9  1  0.91352800  0.25416100  0.94453400  1
  O  O10  1  0.74583900  0.69037400  0.65936800  1
  O  O11  1  0.63432800  0.39142500  0.75654600  1
  O  O12  1  0.83113900  0.97796500  0.56191100  1
  O  O13  1  0.02203500  0.58394600  0.85317400  1
  O  O14  1  0.21701900  0.17390100  0.65745000  1
  O  O15  1  0.91447800  0.74930500  0.94564200  1
  O  O16  1  0.73077200  0.16886100  0.14682600  1
  O  O17  1  0.82609900  0.48354900  0.04311800  1
  O  O18  1  0.03116500  0.08552200  0.83482700  1
  O  O19  1  0.12221900  0.36567200  0.75709800  1
  O  O20  1  0.21188000  0.66944700  0.13845300  1
  O  O21  1  0.43010100  0.28898300  0.95273400  1
  O  O22  1  0.52263200  0.56989900  0.85888100  1
  O  O23  1  0.30962600  0.96899400  0.05546600  1
  O  O24  1  0.63829100  0.89234500  0.76044300  1
  O  O25  1  0.50403100  0.06603900  0.33048400  1
  O  O26  1  0.13190200  0.87784800  0.23955700  1
  O  O27  1  0.33624900  0.47736800  0.04726600  1
  O  O28  1  0.71101700  0.66375100  0.14111900  1
  O  O29  1  0.60857500  0.36512100  0.24290200  1
  O  O30  1  0.25069500  0.19633700  0.16517300  1
  O  O31  1  0.02053000  0.57523000  0.35403500  1
  O  O32  1  0.80366300  0.96883500  0.05435800  1
  O  O33  1  0.44043100  0.78298100  0.95688200  1
  O  O34  1  0.41605400  0.26922800  0.43808900  1
  O  O35  1  0.51645100  0.55956900  0.34255000  1
  O  O36  1  0.63487900  0.87778100  0.24345400  1
  O  O37  1  0.03100600  0.08647200  0.34063200  1
  O  O38  1  0.12215200  0.36170900  0.25405400  1
  O  O39  1  0.93396100  0.26444400  0.43799200  1
loop_
_geom_bond_atom_site_label_1
_geom_bond_atom_site_label_2
_geom_bond_distance
_geom_bond_site_symmetry_2
In0 O3 2.070683 1_555
In0 O25 2.070683 1_555
In0 O4 2.070684 1_555
In0 O39 2.070688 1_555
Fe0 O31 2.088707 1_555
Fe0 O2 2.152807 1_555
Fe0 O3 2.168036 1_455
Fe0 O8 2.182223 1_555
Fe0 O1 2.191002 1_555
Fe0 O5 2.212940 1_455
Fe1 O3 2.053448 1_555
Fe1 O35 2.124205 1_555
Fe1 O5 2.152492 1_555
Fe1 O10 2.196735 1_555
Fe1 O29 2.210037 1_555
Fe1 O34 2.214067 1_555
Fe2 O2 2.088712 1_555
Fe2 O1 2.152803 1_555
Fe2 O4 2.168041 1_565
Fe2 O24 2.182223 1_555
Fe2 O0 2.190993 1_555
Fe2 O6 2.212931 1_565
Fe3 O1 1.878593 1_555
Fe3 O19 1.952303 1_555
Fe3 O13 1.956041 1_555
Fe3 O33 1.963803 1_555
Fe4 O2 1.878593 1_545
Fe4 O11 1.952298 1_555
Fe4 O34 1.956041 1_555
Fe4 O14 1.963803 1_555
Fe5 O1 2.088707 1_555
Fe5 O0 2.152798 1_555
Fe5 O39 2.168041 1_455
Fe5 O38 2.182223 1_555
Fe5 O31 2.191002 1_555
Fe5 O7 2.212931 1_555
Fe6 O3 1.990427 1_555
Fe6 O15 2.039027 1_555
Fe6 O13 2.057208 1_655
Fe6 O11 2.072528 1_555
Fe6 O8 2.079207 1_655
Fe6 O10 2.079561 1_555
Fe7 O4 2.053453 1_555
Fe7 O17 2.124205 1_556
Fe7 O6 2.152487 1_555
Fe7 O9 2.196722 1_555
Fe7 O11 2.210028 1_555
Fe7 O13 2.214067 1_655
Fe8 O5 2.020538 1_555
Fe8 O10 2.046382 1_555
Fe8 O8 2.062278 1_655
Fe8 O12 2.064960 1_555
Fe8 O18 2.068427 1_665
Fe8 O14 2.090443 1_665
Fe9 O39 2.053440 1_455
Fe9 O14 2.124205 1_555
Fe9 O7 2.152487 1_555
Fe9 O37 2.196731 1_555
Fe9 O19 2.210033 1_555
Fe9 O12 2.214067 1_445
Fe10 O7 1.912487 1_555
Fe10 O10 1.937088 1_555
Fe10 O24 1.957657 1_555
Fe10 O22 1.983776 1_555
Fe11 O6 1.912487 1_555
Fe11 O23 1.937098 1_546
Fe11 O8 1.957657 1_545
Fe11 O21 1.983785 1_555
Fe12 O25 2.053448 1_565
Fe12 O33 2.124205 1_554
Fe12 O20 2.152492 1_555
Fe12 O23 2.196731 1_555
Fe12 O36 2.210037 1_555
Fe12 O16 2.214067 1_565
Fe13 O20 2.020533 1_555
Fe13 O23 2.046378 1_555
Fe13 O26 2.062278 1_555
Fe13 O13 2.064960 1_554
Fe13 O15 2.068431 1_454
Fe13 O17 2.090443 1_455
Fe14 O15 2.032896 1_555
Fe14 O17 2.065868 1_556
Fe14 O11 2.067471 1_555
Fe14 O21 2.083681 1_555
Fe14 O22 2.090552 1_555
Fe14 O28 2.093129 1_556
Fe15 O4 1.990418 1_555
Fe15 O18 2.039037 1_655
Fe15 O12 2.057208 1_545
Fe15 O19 2.072529 1_655
Fe15 O24 2.079207 1_545
Fe15 O9 2.079556 1_555
Fe16 O18 2.032888 1_555
Fe16 O14 2.065876 1_555
Fe16 O19 2.067463 1_555
Fe16 O22 2.083685 1_555
Fe16 O27 2.090534 1_556
Fe16 O21 2.093116 1_555
Fe17 O31 1.878593 1_655
Fe17 O29 1.952293 1_555
Fe17 O16 1.956041 1_555
Fe17 O17 1.963803 1_555
Fe18 O32 2.070484 1_445
Fe18 O15 2.070489 1_444
Fe18 O30 2.070489 1_555
Fe18 O18 2.070489 1_554
Fe19 O25 1.990427 1_555
Fe19 O30 2.039027 1_555
Fe19 O34 2.057208 1_555
Fe19 O29 2.072533 1_555
Fe19 O26 2.079207 1_545
Fe19 O23 2.079552 1_545
Fe20 O6 2.020542 1_555
Fe20 O9 2.046382 1_555
Fe20 O24 2.062278 1_545
Fe20 O16 2.064960 1_556
Fe20 O32 2.068440 1_546
Fe20 O33 2.090443 1_545
Fe21 O32 2.032887 1_555
Fe21 O33 2.065876 1_554
Fe21 O36 2.067471 1_555
Fe21 O27 2.083681 1_555
Fe21 O28 2.090534 1_555
Fe21 O22 2.093120 1_554
Fe22 O0 2.088711 1_555
Fe22 O31 2.152803 1_555
Fe22 O25 2.168036 1_565
Fe22 O26 2.182223 1_555
Fe22 O2 2.190994 1_555
Fe22 O20 2.212927 1_555
Fe23 O30 2.032896 1_555
Fe23 O35 2.065881 1_555
Fe23 O29 2.067463 1_555
Fe23 O28 2.083676 1_555
Fe23 O21 2.090526 1_554
Fe23 O27 2.093133 1_555
Fe24 O5 1.912482 1_555
Fe24 O37 1.937098 1_665
Fe24 O26 1.957657 1_655
Fe24 O28 1.983781 1_555
Fe25 O20 1.912492 1_555
Fe25 O9 1.937097 1_454
Fe25 O38 1.957657 1_555
Fe25 O27 1.983781 1_555
Fe26 O7 2.020542 1_555
Fe26 O37 2.046378 1_555
Fe26 O38 2.062278 1_555
Fe26 O34 2.064960 1_555
Fe26 O30 2.068431 1_555
Fe26 O35 2.090443 1_555
Fe27 O39 1.990423 1_555
Fe27 O32 2.039032 1_545
Fe27 O16 2.057208 1_555
Fe27 O36 2.072533 1_545
Fe27 O38 2.079207 1_655
Fe27 O37 2.079552 1_655
Fe28 O0 1.878598 1_555
Fe28 O36 1.952293 1_555
Fe28 O12 1.956041 1_555
Fe28 O35 1.963803 1_555
