# generated using pymatgen
data_Li4MnNi5O12
_symmetry_space_group_name_H-M   'P 1'
_cell_length_a   5.09143003
_cell_length_b   4.93873250
_cell_length_c   9.98864741
_cell_angle_alpha   88.95894280
_cell_angle_beta   87.96592249
_cell_angle_gamma   58.99975804
_symmetry_Int_Tables_number   1
_chemical_formula_structural   Li4MnNi5O12
_chemical_formula_sum   'Li4 Mn1 Ni5 O12'
_cell_volume   215.15563148
_cell_formula_units_Z   1
loop_
 _symmetry_equiv_pos_site_id
 _symmetry_equiv_pos_as_xyz
  1  'x, y, z'
loop_
 _atom_site_type_symbol
 _atom_site_label
 _atom_site_symmetry_multiplicity
 _atom_site_fract_x
 _atom_site_fract_y
 _atom_site_fract_z
 _atom_site_occupancy
  Li  Li0  1  0.14909500  0.50509800  0.75060900  1
  Li  Li1  1  0.34571400  0.50520400  0.24938200  1
  Li  Li2  1  0.65429200  0.49490700  0.75071600  1
  Li  Li3  1  0.85079100  0.49501000  0.24929400  1
  Mn  Mn0  1  0.00001100  0.99999700  0.00000300  1
  Ni  Ni0  1  0.16383900  0.67216300  0.49995000  1
  Ni  Ni1  1  0.66447800  0.67100500  0.00001100  1
  Ni  Ni2  1  0.33554100  0.32897900  0.99998700  1
  Ni  Ni3  1  0.83599100  0.32815300  0.50004800  1
  Ni  Ni4  1  0.50008100  0.99983400  0.50000200  1
  O  O0  1  0.02225600  0.66022700  0.10831500  1
  O  O1  1  0.31760600  0.66025700  0.89168600  1
  O  O2  1  0.17388300  0.34501500  0.39669100  1
  O  O3  1  0.52097600  0.65499600  0.39650800  1
  O  O4  1  0.48084500  0.34483600  0.60318800  1
  O  O5  1  0.17028200  0.99988900  0.59484300  1
  O  O6  1  0.82445200  0.65479900  0.60362000  1
  O  O7  1  0.68238400  0.33973200  0.10830400  1
  O  O8  1  0.32125800  0.99998700  0.09553300  1
  O  O9  1  0.97776900  0.33977900  0.89168800  1
  O  O10  1  0.67875900  0.99999500  0.90446800  1
  O  O11  1  0.82969500  0.00014100  0.40515400  1
loop_
_geom_bond_atom_site_label_1
_geom_bond_atom_site_label_2
_geom_bond_distance
_geom_bond_site_symmetry_2
Li0 O9 2.004466 1_455
Li0 O1 2.027644 1_555
Li0 O4 2.033838 1_555
Li0 O6 2.075664 1_455
Li1 O7 2.004817 1_555
Li1 O0 2.027445 1_555
Li1 O2 2.033622 1_555
Li1 O3 2.077456 1_555
Li2 O1 2.004146 1_555
Li2 O6 2.026116 1_555
Li2 O9 2.026800 1_555
Li2 O4 2.075320 1_555
Li3 O0 2.003914 1_655
Li3 O3 2.026476 1_555
Li3 O7 2.027039 1_555
Li3 O2 2.073521 1_655
Mn0 O8 1.922614 1_555
Mn0 O10 1.922689 1_454
Mn0 O0 1.935476 1_555
Mn0 O9 1.935547 1_464
Mn0 O7 1.935837 1_465
Mn0 O1 1.935875 1_554
Ni0 O5 1.905743 1_555
Ni0 O11 1.906478 1_465
Ni0 O2 1.910135 1_555
Ni0 O4 1.910932 1_555
Ni0 O6 2.021860 1_455
Ni0 O3 2.022906 1_555
Ni1 O10 1.901694 1_554
Ni1 O8 1.901899 1_555
Ni1 O7 1.908968 1_555
Ni1 O9 1.909190 1_554
Ni1 O1 2.127654 1_554
Ni1 O0 2.128215 1_655
Ni2 O8 1.901721 1_546
Ni2 O10 1.901884 1_545
Ni2 O1 1.908977 1_555
Ni2 O0 1.909254 1_556
Ni2 O7 2.127495 1_556
Ni2 O9 2.128115 1_455
Ni3 O6 1.906543 1_555
Ni3 O11 1.906619 1_555
Ni3 O3 1.907326 1_555
Ni3 O5 1.907365 1_645
Ni3 O2 2.012651 1_655
Ni3 O4 2.013736 1_555
Ni4 O5 1.898315 1_555
Ni4 O11 1.898330 1_565
Ni4 O3 1.962128 1_555
Ni4 O4 1.964649 1_565
Ni4 O6 1.964896 1_555
Ni4 O2 1.967402 1_565
