# generated using pymatgen
data_Li6Co3Sb(PO4)6
_symmetry_space_group_name_H-M   'P 1'
_cell_length_a   8.65042534
_cell_length_b   8.68325820
_cell_length_c   8.71344358
_cell_angle_alpha   60.97238725
_cell_angle_beta   60.83255207
_cell_angle_gamma   61.21500209
_symmetry_Int_Tables_number   1
_chemical_formula_structural   Li6Co3Sb(PO4)6
_chemical_formula_sum   'Li6 Co3 Sb1 P6 O24'
_cell_volume   473.28464627
_cell_formula_units_Z   1
loop_
 _symmetry_equiv_pos_site_id
 _symmetry_equiv_pos_as_xyz
  1  'x, y, z'
loop_
 _atom_site_type_symbol
 _atom_site_label
 _atom_site_symmetry_multiplicity
 _atom_site_fract_x
 _atom_site_fract_y
 _atom_site_fract_z
 _atom_site_occupancy
  Li  Li0  1  0.03143876  0.01906066  0.00673942  1
  Li  Li1  1  0.73829291  0.15981432  0.35129976  1
  Li  Li2  1  0.47170712  0.49760433  0.48695666  1
  Li  Li3  1  0.30873259  0.84091786  0.63916003  1
  Li  Li4  1  0.64061294  0.30962731  0.83921778  1
  Li  Li5  1  0.84001507  0.64064670  0.31016553  1
  Co  Co0  1  0.14491064  0.15012516  0.14004318  1
  Co  Co1  1  0.35487306  0.35822111  0.35311288  1
  Co  Co2  1  0.64699922  0.65131108  0.64829158  1
  Sb  Sb0  1  0.85522984  0.85191636  0.85212789  1
  P  P0  1  0.05177908  0.74835062  0.44326981  1
  P  P1  1  0.44891409  0.05069951  0.74498964  1
  P  P2  1  0.74608927  0.44829046  0.04774311  1
  P  P3  1  0.24524641  0.53911545  0.95785824  1
  P  P4  1  0.54362368  0.96090406  0.24713005  1
  P  P5  1  0.95400083  0.24483801  0.53561225  1
  O  O0  1  0.13317149  0.26087909  0.50576324  1
  O  O1  1  0.27692181  0.52303353  0.12041690  1
  O  O2  1  0.05552698  0.92372329  0.26597095  1
  O  O3  1  0.54854913  0.11726462  0.27655088  1
  O  O4  1  0.23743301  0.59333932  0.43454553  1
  O  O5  1  0.00909476  0.80572681  0.61302486  1
  O  O6  1  0.26424716  0.07896491  0.90697246  1
  O  O7  1  0.46780926  0.22583762  0.57551465  1
  O  O8  1  0.59521220  0.43753077  0.23979071  1
  O  O9  1  0.17028185  0.39048914  0.99895346  1
  O  O10  1  0.09501263  0.74672787  0.90609524  1
  O  O11  1  0.38236528  0.01380204  0.18481242  1
  O  O12  1  0.61526608  0.00172040  0.81021358  1
  O  O13  1  0.90828525  0.25991483  0.07040159  1
  O  O14  1  0.80943558  0.61317082  0.00320305  1
  O  O15  1  0.41252928  0.54678549  0.77377623  1
  O  O16  1  0.54824281  0.77686382  0.41421906  1
  O  O17  1  0.74684164  0.90451082  0.09262878  1
  O  O18  1  0.96519098  0.18548932  0.38911279  1
  O  O19  1  0.77521332  0.41524683  0.55579380  1
  O  O20  1  0.47331832  0.89153302  0.69593834  1
  O  O21  1  0.90821021  0.09236955  0.74333720  1
  O  O22  1  0.68766630  0.47829392  0.89480347  1
  O  O23  1  0.89170816  0.69433920  0.47544297  1
loop_
_geom_bond_atom_site_label_1
_geom_bond_atom_site_label_2
_geom_bond_distance
_geom_bond_site_symmetry_2
Li0 O6 1.986352 1_554
Li0 O13 2.054442 1_455
Li0 O2 2.075783 1_545
Li1 O8 2.077296 1_555
Li1 O13 2.136981 1_555
Li1 O7 2.227023 1_555
Li1 O3 2.261504 1_555
Li1 O18 2.265780 1_555
Li1 O2 2.521649 1_645
Li2 O4 1.979358 1_555
Li2 O8 2.088677 1_555
Li2 O7 2.109369 1_555
Li2 O15 2.503707 1_555
Li2 O16 2.523034 1_555
Li2 O19 2.659839 1_555
Li3 O20 1.991270 1_555
Li3 O16 2.105598 1_555
Li3 O15 2.148463 1_555
Li3 O10 2.217078 1_555
Li4 O22 1.999977 1_555
Li4 O19 2.079256 1_555
Li4 O15 2.121989 1_555
Li4 O21 2.248159 1_555
Li5 O23 1.992836 1_555
Li5 O16 2.127573 1_555
Li5 O19 2.132506 1_555
Li5 O17 2.233413 1_555
Co0 O9 1.898355 1_554
Co0 O11 1.940084 1_555
Co0 O18 2.029658 1_455
Co0 O6 2.032692 1_554
Co0 O2 2.051861 1_545
Co0 O13 2.058381 1_455
Co1 O0 2.035993 1_555
Co1 O1 2.049682 1_555
Co1 O4 2.099863 1_555
Co1 O8 2.118864 1_555
Co1 O3 2.125773 1_555
Co1 O7 2.152492 1_555
Co2 O20 1.998741 1_555
Co2 O23 1.999230 1_555
Co2 O22 2.022486 1_555
Co2 O19 2.150336 1_555
Co2 O16 2.172962 1_555
Co2 O15 2.186617 1_555
O0 P5 1.506344 1_455
O1 P3 1.500133 1_554
O2 P0 1.556378 1_555
O3 P4 1.521536 1_545
O4 P0 1.514994 1_555
O5 P0 1.605642 1_555
O5 Sb0 1.966444 1_455
O6 P1 1.537890 1_555
O7 P1 1.531289 1_555
O8 P2 1.532733 1_555
O9 P3 1.531486 1_555
O10 P3 1.633484 1_555
O10 Sb0 2.016720 1_455
O11 P4 1.526740 1_545
O12 P1 1.596193 1_555
O12 Sb0 1.952399 1_545
O13 P2 1.558694 1_555
O14 P2 1.584196 1_555
O14 Sb0 1.954920 1_554
O15 P3 1.548529 1_555
O16 P4 1.553190 1_555
O17 P4 1.626777 1_555
O17 Sb0 2.019997 1_554
O18 P5 1.540895 1_555
O19 P5 1.547863 1_555
O20 P1 1.530270 1_565
O21 P5 1.632929 1_555
O21 Sb0 2.011304 1_545
O22 P2 1.513911 1_556
O23 P0 1.528181 1_655
