# generated using pymatgen
data_NiSb(PO4)2
_symmetry_space_group_name_H-M   'P 1'
_cell_length_a   10.15215529
_cell_length_b   6.14795300
_cell_length_c   4.93978474
_cell_angle_alpha   90.00000000
_cell_angle_beta   88.40520036
_cell_angle_gamma   90.00000000
_symmetry_Int_Tables_number   1
_chemical_formula_structural   NiSb(PO4)2
_chemical_formula_sum   'Ni2 Sb2 P4 O16'
_cell_volume   308.19710622
_cell_formula_units_Z   2
loop_
 _symmetry_equiv_pos_site_id
 _symmetry_equiv_pos_as_xyz
  1  'x, y, z'
loop_
 _atom_site_type_symbol
 _atom_site_label
 _atom_site_symmetry_multiplicity
 _atom_site_fract_x
 _atom_site_fract_y
 _atom_site_fract_z
 _atom_site_occupancy
  Ni  Ni0  1  0.22333400  0.75000000  0.44164000  1
  Ni  Ni1  1  0.77666600  0.25000000  0.55836000  1
  Sb  Sb0  1  0.27832100  0.25000000  0.95583200  1
  Sb  Sb1  1  0.72167900  0.75000000  0.04416800  1
  P  P0  1  0.09099400  0.25000000  0.40290100  1
  P  P1  1  0.40087000  0.75000000  0.89187300  1
  P  P2  1  0.59913000  0.25000000  0.10812700  1
  P  P3  1  0.90900600  0.75000000  0.59709900  1
  O  O0  1  0.05424000  0.75000000  0.65031000  1
  O  O1  1  0.11463800  0.25000000  0.71137100  1
  O  O2  1  0.16806600  0.05476700  0.25556400  1
  O  O3  1  0.16806600  0.44523300  0.25556400  1
  O  O4  1  0.33128200  0.94757000  0.74687800  1
  O  O5  1  0.33128200  0.55243000  0.74687800  1
  O  O6  1  0.38117900  0.75000000  0.19593700  1
  O  O7  1  0.45103200  0.25000000  0.19440600  1
  O  O8  1  0.54896800  0.75000000  0.80559400  1
  O  O9  1  0.61882100  0.25000000  0.80406300  1
  O  O10  1  0.66871800  0.05243000  0.25312200  1
  O  O11  1  0.66871800  0.44757000  0.25312200  1
  O  O12  1  0.83193400  0.55476700  0.74443600  1
  O  O13  1  0.83193400  0.94523300  0.74443600  1
  O  O14  1  0.88536200  0.75000000  0.28862900  1
  O  O15  1  0.94576000  0.25000000  0.34969000  1
loop_
_geom_bond_atom_site_label_1
_geom_bond_atom_site_label_2
_geom_bond_distance
_geom_bond_site_symmetry_2
Ni0 O0 1.977618 1_555
Ni0 O6 1.983118 1_555
Ni0 O2 2.167749 1_565
Ni0 O3 2.167749 1_555
Ni0 O5 2.245407 1_555
Ni0 O4 2.245407 1_555
Ni1 O15 1.977618 1_555
Ni1 O9 1.983118 1_555
Ni1 O13 2.167749 1_545
Ni1 O12 2.167749 1_555
Ni1 O10 2.245407 1_555
Ni1 O11 2.245407 1_555
O0 P3 1.504869 1_455
O1 P0 1.549151 1_555
O1 Sb0 2.081183 1_555
O2 P0 1.597159 1_555
O2 Sb0 2.189414 1_554
O3 P0 1.597159 1_555
O3 Sb0 2.189414 1_554
O4 P1 1.586079 1_555
O4 Sb0 2.186481 1_565
O5 P1 1.586079 1_555
O5 Sb0 2.186481 1_555
O6 P1 1.509730 1_554
O7 P2 1.551300 1_555
O7 Sb0 2.139688 1_554
O8 P1 1.551300 1_555
O8 Sb1 2.139688 1_556
O9 P2 1.509730 1_556
O10 P2 1.586079 1_555
O10 Sb1 2.186481 1_545
O11 P2 1.586079 1_555
O11 Sb1 2.186481 1_555
O12 P3 1.597159 1_555
O12 Sb1 2.189414 1_556
O13 P3 1.597159 1_555
O13 Sb1 2.189414 1_556
O14 P3 1.549151 1_555
O14 Sb1 2.081183 1_555
O15 P0 1.504869 1_655
