# generated using pymatgen
data_Li2Mn2Si5O13
_symmetry_space_group_name_H-M   'P 1'
_cell_length_a   7.59775700
_cell_length_b   7.81693571
_cell_length_c   10.00901230
_cell_angle_alpha   83.36207739
_cell_angle_beta   68.39021764
_cell_angle_gamma   72.09894414
_symmetry_Int_Tables_number   1
_chemical_formula_structural   Li2Mn2Si5O13
_chemical_formula_sum   'Li4 Mn4 Si10 O26'
_cell_volume   525.90834297
_cell_formula_units_Z   2
loop_
 _symmetry_equiv_pos_site_id
 _symmetry_equiv_pos_as_xyz
  1  'x, y, z'
loop_
 _atom_site_type_symbol
 _atom_site_label
 _atom_site_symmetry_multiplicity
 _atom_site_fract_x
 _atom_site_fract_y
 _atom_site_fract_z
 _atom_site_occupancy
  Li  Li0  1  0.21017100  0.07052600  0.84724300  1
  Li  Li1  1  0.15368300  0.40074700  0.74406400  1
  Li  Li2  1  0.84631700  0.59925300  0.25593600  1
  Li  Li3  1  0.78982900  0.92947400  0.15275700  1
  Mn  Mn0  1  0.03976600  0.15893600  0.59998800  1
  Mn  Mn1  1  0.41916900  0.82455000  0.40040300  1
  Mn  Mn2  1  0.58083100  0.17545000  0.59959700  1
  Mn  Mn3  1  0.96023400  0.84106400  0.40001200  1
  Si  Si0  1  0.15998800  0.22091400  0.25789200  1
  Si  Si1  1  0.21021900  0.69480600  0.04232400  1
  Si  Si2  1  0.31059600  0.44708100  0.40758700  1
  Si  Si3  1  0.25106300  0.75751600  0.73276100  1
  Si  Si4  1  0.62355700  0.70495200  0.04745500  1
  Si  Si5  1  0.37644300  0.29504800  0.95254500  1
  Si  Si6  1  0.74893700  0.24248400  0.26723900  1
  Si  Si7  1  0.68940400  0.55291900  0.59241300  1
  Si  Si8  1  0.78978100  0.30519400  0.95767600  1
  Si  Si9  1  0.84001200  0.77908600  0.74210800  1
  O  O0  1  0.01531800  0.76980800  0.17918100  1
  O  O1  1  0.16848600  0.05207500  0.36849700  1
  O  O2  1  0.30477100  0.16303700  0.09110500  1
  O  O3  1  0.21418000  0.38734200  0.30306100  1
  O  O4  1  0.06545100  0.68135400  0.74766900  1
  O  O5  1  0.40616600  0.69067100  0.07184400  1
  O  O6  1  0.22293700  0.66395400  0.42841200  1
  O  O7  1  0.28304600  0.31805000  0.54926600  1
  O  O8  1  0.55191300  0.41336400  0.31601900  1
  O  O9  1  0.37074900  0.22147400  0.81066300  1
  O  O10  1  0.22000800  0.49746300  0.99392900  1
  O  O11  1  0.27336300  0.92691100  0.62550700  1
  O  O12  1  0.20912800  0.82569400  0.89685700  1
  O  O13  1  0.79087200  0.17430600  0.10314300  1
  O  O14  1  0.72663700  0.07308900  0.37449300  1
  O  O15  1  0.77999200  0.50253700  0.00607100  1
  O  O16  1  0.62925100  0.77852600  0.18933700  1
  O  O17  1  0.44808700  0.58663600  0.68398100  1
  O  O18  1  0.71695400  0.68195000  0.45073400  1
  O  O19  1  0.77706300  0.33604600  0.57158800  1
  O  O20  1  0.59383400  0.30932900  0.92815600  1
  O  O21  1  0.93454900  0.31864600  0.25233100  1
  O  O22  1  0.78582000  0.61265800  0.69693900  1
  O  O23  1  0.69522900  0.83696300  0.90889500  1
  O  O24  1  0.83151400  0.94792500  0.63150300  1
  O  O25  1  0.98468200  0.23019200  0.82081900  1
loop_
_geom_bond_atom_site_label_1
_geom_bond_atom_site_label_2
_geom_bond_distance
_geom_bond_site_symmetry_2
Li0 O9 1.863035 1_555
Li0 O25 1.872359 1_455
Li0 O12 1.922534 1_545
Li0 O11 2.424083 1_545
Li1 O7 1.916943 1_555
Li1 O25 2.026179 1_455
Li1 O9 2.073905 1_555
Li1 O4 2.087728 1_555
Li2 O18 1.916943 1_555
Li2 O0 2.026179 1_655
Li2 O16 2.073905 1_555
Li2 O21 2.087728 1_555
Li3 O16 1.863035 1_555
Li3 O0 1.872359 1_655
Li3 O13 1.922534 1_565
Li3 O14 2.424083 1_565
Mn0 O19 2.146982 1_455
Mn0 O11 2.180071 1_545
Mn0 O25 2.197908 1_455
Mn0 O1 2.301932 1_555
Mn0 O7 2.407777 1_555
Mn0 O24 2.537760 1_445
Mn1 O16 2.116381 1_555
Mn1 O6 2.153780 1_555
Mn1 O11 2.230967 1_555
Mn1 O1 2.264306 1_565
Mn1 O18 2.403023 1_555
Mn2 O9 2.116381 1_555
Mn2 O19 2.153780 1_555
Mn2 O14 2.230967 1_555
Mn2 O24 2.264306 1_545
Mn2 O7 2.403023 1_555
Mn3 O6 2.146982 1_655
Mn3 O14 2.180071 1_565
Mn3 O0 2.197908 1_655
Mn3 O24 2.301932 1_555
Mn3 O18 2.407777 1_555
Mn3 O1 2.537760 1_665
O0 Si1 1.603366 1_555
O1 Si0 1.622984 1_555
O2 Si0 1.648519 1_555
O2 Si5 1.656222 1_554
O3 Si0 1.633642 1_555
O3 Si2 1.654378 1_555
O4 Si3 1.645016 1_555
O4 Si9 1.666282 1_455
O5 Si1 1.611506 1_555
O5 Si4 1.615606 1_555
O6 Si2 1.626758 1_555
O7 Si2 1.628662 1_555
O8 Si6 1.626862 1_555
O8 Si2 1.670962 1_555
O9 Si5 1.612044 1_555
O10 Si1 1.641802 1_556
O10 Si5 1.649422 1_555
O11 Si3 1.615492 1_555
O12 Si3 1.672029 1_555
O12 Si1 1.681086 1_556
O13 Si6 1.672029 1_555
O13 Si8 1.681086 1_554
O14 Si6 1.615492 1_555
O15 Si8 1.641802 1_554
O15 Si4 1.649422 1_555
O16 Si4 1.612044 1_555
O17 Si3 1.626862 1_555
O17 Si7 1.670962 1_555
O18 Si7 1.628662 1_555
O19 Si7 1.626758 1_555
O20 Si8 1.611506 1_555
O20 Si5 1.615606 1_555
O21 Si6 1.645016 1_555
O21 Si0 1.666282 1_655
O22 Si9 1.633642 1_555
O22 Si7 1.654378 1_555
O23 Si9 1.648519 1_555
O23 Si4 1.656222 1_556
O24 Si9 1.622984 1_555
O25 Si8 1.603366 1_555
