# generated using pymatgen
data_Na2SnO3
_symmetry_space_group_name_H-M   'P 1'
_cell_length_a   6.54046382
_cell_length_b   5.52477364
_cell_length_c   10.99144690
_cell_angle_alpha   85.38947811
_cell_angle_beta   155.32639174
_cell_angle_gamma   106.22282033
_symmetry_Int_Tables_number   1
_chemical_formula_structural   Na2SnO3
_chemical_formula_sum   'Na4 Sn2 O6'
_cell_volume   143.51306510
_cell_formula_units_Z   2
loop_
 _symmetry_equiv_pos_site_id
 _symmetry_equiv_pos_as_xyz
  1  'x, y, z'
loop_
 _atom_site_type_symbol
 _atom_site_label
 _atom_site_symmetry_multiplicity
 _atom_site_fract_x
 _atom_site_fract_y
 _atom_site_fract_z
 _atom_site_occupancy
  Na  Na0  1  0.50004502  0.49948918  0.00081973  1
  Na  Na1  1  0.18449093  0.18445359  0.34246658  1
  Na  Na2  1  0.81851634  0.81587401  0.65994017  1
  Na  Na3  1  0.00162414  0.50009279  0.00153530  1
  Sn  Sn0  1  0.33622051  0.83449608  0.66849393  1
  Sn  Sn1  1  0.66700202  0.16525456  0.33398279  1
  O  O0  1  0.33460373  0.13273488  0.77453781  1
  O  O1  1  0.66850990  0.86700685  0.22787373  1
  O  O2  1  0.19773041  0.49969505  0.49220170  1
  O  O3  1  0.06891622  0.86732628  0.14171735  1
  O  O4  1  0.93422486  0.13265618  0.86073285  1
  O  O5  1  0.80554795  0.50013156  0.51027406  1
loop_
_geom_bond_atom_site_label_1
_geom_bond_atom_site_label_2
_geom_bond_distance
_geom_bond_site_symmetry_2
Na0 O5 2.280274 1_454
Na0 O2 2.280418 1_655
Na0 O4 2.475612 1_454
Na0 O1 2.476319 1_555
Na0 O0 2.481227 1_554
Na0 O3 2.486130 1_655
Na1 O3 2.315177 1_545
Na1 O1 2.318242 1_445
Na1 O2 2.422193 1_555
Na1 O5 2.426130 1_555
Na1 O0 2.506872 1_454
Na1 O4 2.516578 1_555
Na2 O4 2.313447 1_565
Na2 O0 2.317455 1_665
Na2 O5 2.425160 1_555
Na2 O2 2.426143 1_555
Na2 O1 2.507834 1_656
Na2 O3 2.515507 1_555
Na3 O3 2.335663 1_555
Na3 O0 2.336967 1_454
Na3 O1 2.339388 1_555
Na3 O4 2.339991 1_454
Na3 O5 2.340870 1_555
Na3 O2 2.342275 1_454
O0 Sn0 2.101068 1_545
O0 Sn1 2.101917 1_455
O1 Sn1 2.101036 1_565
O1 Sn0 2.102192 1_655
O2 Sn0 2.108742 1_555
O2 Sn1 2.109398 1_455
O3 Sn1 2.101163 1_565
O3 Sn0 2.101868 1_454
O4 Sn0 2.101398 1_545
O4 Sn1 2.102442 1_656
O5 Sn1 2.108847 1_555
O5 Sn0 2.108952 1_655
