# generated using pymatgen
data_CeMgAu
_symmetry_space_group_name_H-M   'P 1'
_cell_length_a   7.86970252
_cell_length_b   7.86943409
_cell_length_c   4.10995549
_cell_angle_alpha   90.00000000
_cell_angle_beta   90.00000000
_cell_angle_gamma   119.99966387
_symmetry_Int_Tables_number   1
_chemical_formula_structural   CeMgAu
_chemical_formula_sum   'Ce3 Mg3 Au3'
_cell_volume   220.43017218
_cell_formula_units_Z   3
loop_
 _symmetry_equiv_pos_site_id
 _symmetry_equiv_pos_as_xyz
  1  'x, y, z'
loop_
 _atom_site_type_symbol
 _atom_site_label
 _atom_site_symmetry_multiplicity
 _atom_site_fract_x
 _atom_site_fract_y
 _atom_site_fract_z
 _atom_site_occupancy
  Ce  Ce0  1  0.00002310  0.58380966  -0.00000000  1
  Ce  Ce1  1  0.41618486  0.41619978  0.00000000  1
  Ce  Ce2  1  0.58379823  -0.00000477  0.00000000  1
  Mg  Mg0  1  -0.00002400  0.23824821  0.50000000  1
  Mg  Mg1  1  0.23825947  0.00001853  0.50000000  1
  Mg  Mg2  1  0.76175428  0.76171465  0.50000000  1
  Au  Au0  1  0.33336445  0.66644591  0.50000000  1
  Au  Au1  1  0.00011342  0.00008800  0.00000000  1
  Au  Au2  1  0.66652619  0.33348002  0.50000000  1
loop_
_geom_bond_atom_site_label_1
_geom_bond_atom_site_label_2
_geom_bond_distance
_geom_bond_site_symmetry_2
Ce0 Mg0 3.408360 1_555
Ce0 Mg0 3.408360 1_554
Ce0 Mg2 3.510573 1_455
Ce0 Mg2 3.510573 1_454
Ce0 Mg1 3.510710 1_564
Ce0 Mg1 3.510710 1_565
Ce1 Mg2 3.408434 1_555
Ce1 Mg2 3.408434 1_554
Ce1 Mg1 3.510566 1_555
Ce1 Mg1 3.510566 1_554
Ce1 Mg0 3.510796 1_554
Ce1 Mg0 3.510796 1_555
Ce2 Mg1 3.408512 1_554
Ce2 Mg1 3.408512 1_555
Ce2 Mg0 3.510626 1_654
Ce2 Mg0 3.510626 1_655
Ce2 Mg2 3.510894 1_545
Ce2 Mg2 3.510894 1_544
Mg0 Mg1 3.247549 1_555
Mg0 Mg2 3.247649 1_445
Mg1 Mg2 3.247567 1_445
Au0 Mg0 3.065537 1_555
Au0 Mg2 3.065984 1_555
Au0 Mg1 3.068488 1_565
Au0 Ce1 3.131994 1_555
Au0 Ce1 3.131994 1_556
Au0 Ce0 3.133943 1_556
Au0 Ce0 3.133943 1_555
Au0 Ce2 3.134303 1_565
Au0 Ce2 3.134303 1_566
Au1 Mg1 2.781430 1_555
Au1 Mg1 2.781430 1_554
Au1 Mg0 2.781642 1_555
Au1 Mg0 2.781642 1_554
Au1 Mg2 2.782399 1_445
Au1 Mg2 2.782399 1_444
Au1 Ce1 3.274478 1_555
Au1 Ce0 3.275520 1_545
Au1 Ce2 3.275912 1_455
Au2 Mg2 3.064768 1_555
Au2 Mg1 3.066128 1_555
Au2 Mg0 3.068285 1_655
Au2 Ce1 3.132166 1_555
Au2 Ce1 3.132166 1_556
Au2 Ce0 3.133948 1_655
Au2 Ce0 3.133948 1_656
Au2 Ce2 3.134548 1_556
Au2 Ce2 3.134548 1_555
