# generated using pymatgen
data_Y3Si3O11
_symmetry_space_group_name_H-M   'P 1'
_cell_length_a   11.40064200
_cell_length_b   7.43144500
_cell_length_c   12.05472603
_cell_angle_alpha   59.38196256
_cell_angle_beta   90.00000000
_cell_angle_gamma   90.00000000
_symmetry_Int_Tables_number   1
_chemical_formula_structural   Y3Si3O11
_chemical_formula_sum   'Y12 Si12 O44'
_cell_volume   878.92545682
_cell_formula_units_Z   4
loop_
 _symmetry_equiv_pos_site_id
 _symmetry_equiv_pos_as_xyz
  1  'x, y, z'
loop_
 _atom_site_type_symbol
 _atom_site_label
 _atom_site_symmetry_multiplicity
 _atom_site_fract_x
 _atom_site_fract_y
 _atom_site_fract_z
 _atom_site_occupancy
  Y  Y0  1  0.27058800  0.59565800  0.81578900  1
  Y  Y1  1  0.77058800  0.40434200  0.68421100  1
  Y  Y2  1  0.72941200  0.40434200  0.18421100  1
  Y  Y3  1  0.22941200  0.59565800  0.31578900  1
  Y  Y4  1  0.96841000  0.25153500  0.48488500  1
  Y  Y5  1  0.46841000  0.74846500  0.01511500  1
  Y  Y6  1  0.03159000  0.74846500  0.51511500  1
  Y  Y7  1  0.53159000  0.25153500  0.98488500  1
  Y  Y8  1  0.10041800  0.80460600  0.99645400  1
  Y  Y9  1  0.60041800  0.19539400  0.50354600  1
  Y  Y10  1  0.89958200  0.19539400  0.00354600  1
  Y  Y11  1  0.39958200  0.80460600  0.49645400  1
  Si  Si0  1  0.25578000  0.12210900  0.61251300  1
  Si  Si1  1  0.75578000  0.87789100  0.88748700  1
  Si  Si2  1  0.74422000  0.87789100  0.38748700  1
  Si  Si3  1  0.24422000  0.12210900  0.11251300  1
  Si  Si4  1  0.46017800  0.28765100  0.70860800  1
  Si  Si5  1  0.96017800  0.71234900  0.79139200  1
  Si  Si6  1  0.53982200  0.71234900  0.29139200  1
  Si  Si7  1  0.03982200  0.28765100  0.20860800  1
  Si  Si8  1  0.41370100  0.28343700  0.23990100  1
  Si  Si9  1  0.91370100  0.71656300  0.26009900  1
  Si  Si10  1  0.58629900  0.71656300  0.76009900  1
  Si  Si11  1  0.08629900  0.28343700  0.73990100  1
  O  O0  1  0.18229700  0.28431100  0.48409100  1
  O  O1  1  0.68229700  0.71568900  0.01590900  1
  O  O2  1  0.81770300  0.71568900  0.51590900  1
  O  O3  1  0.31770300  0.28431100  0.98409100  1
  O  O4  1  0.27538200  0.89601200  0.62515000  1
  O  O5  1  0.77538200  0.10398800  0.87485000  1
  O  O6  1  0.72461800  0.10398800  0.37485000  1
  O  O7  1  0.22461800  0.89601200  0.12515000  1
  O  O8  1  0.47640600  0.10514500  0.86150600  1
  O  O9  1  0.97640600  0.89485500  0.63849400  1
  O  O10  1  0.52359400  0.89485500  0.13849400  1
  O  O11  1  0.02359400  0.10514500  0.36150600  1
  O  O12  1  0.38873500  0.19942200  0.62448000  1
  O  O13  1  0.88873500  0.80057800  0.87552000  1
  O  O14  1  0.61126500  0.80057800  0.37552000  1
  O  O15  1  0.11126500  0.19942200  0.12448000  1
  O  O16  1  0.17680600  0.11256200  0.73223300  1
  O  O17  1  0.67680600  0.88743800  0.76776700  1
  O  O18  1  0.82319400  0.88743800  0.26776700  1
  O  O19  1  0.32319400  0.11256200  0.23223300  1
  O  O20  1  0.08585800  0.65513400  0.86893500  1
  O  O21  1  0.58585800  0.34486600  0.63106500  1
  O  O22  1  0.91414200  0.34486600  0.13106500  1
  O  O23  1  0.41414200  0.65513400  0.36893500  1
  O  O24  1  0.47748500  0.64930700  0.86279700  1
  O  O25  1  0.97748500  0.35069300  0.63720300  1
  O  O26  1  0.52251500  0.35069300  0.13720300  1
  O  O27  1  0.02251500  0.64930700  0.36279700  1
  O  O28  1  0.10491300  0.49499100  0.19319100  1
  O  O29  1  0.60491300  0.50500900  0.30680900  1
  O  O30  1  0.89508700  0.50500900  0.80680900  1
  O  O31  1  0.39508700  0.49499100  0.69319100  1
  O  O32  1  0.35501200  0.51220200  0.19555700  1
  O  O33  1  0.85501200  0.48779800  0.30444300  1
  O  O34  1  0.64498800  0.48779800  0.80444300  1
  O  O35  1  0.14498800  0.51220200  0.69555700  1
  O  O36  1  0.45001900  0.15025400  0.39121900  1
  O  O37  1  0.95001900  0.84974600  0.10878100  1
  O  O38  1  0.54998100  0.84974600  0.60878100  1
  O  O39  1  0.04998100  0.15025400  0.89121900  1
  O  O40  1  0.28494600  0.74302000  0.95078800  1
  O  O41  1  0.78494600  0.25698000  0.54921200  1
  O  O42  1  0.71505400  0.25698000  0.04921200  1
  O  O43  1  0.21505400  0.74302000  0.45078800  1
loop_
_geom_bond_atom_site_label_1
_geom_bond_atom_site_label_2
_geom_bond_distance
_geom_bond_site_symmetry_2
O0 Si0 1.628060 1_555
O0 Y3 2.230808 1_555
O0 Y4 2.450118 1_455
O1 Si1 1.628060 1_554
O1 Y2 2.230808 1_555
O1 Y5 2.450118 1_555
O2 Si2 1.628060 1_555
O2 Y1 2.230808 1_555
O2 Y6 2.450118 1_655
O3 Si3 1.628060 1_556
O3 Y0 2.230808 1_555
O3 Y7 2.450118 1_555
O4 Si0 1.623449 1_565
O4 Y0 2.245289 1_555
O4 Y11 2.438574 1_555
O5 Si1 1.623449 1_545
O5 Y1 2.245289 1_555
O5 Y10 2.438574 1_556
O6 Si2 1.623449 1_545
O6 Y2 2.245289 1_555
O6 Y9 2.438574 1_555
O7 Si3 1.623449 1_565
O7 Y3 2.245289 1_555
O7 Y8 2.438574 1_554
O8 Si4 1.650614 1_555
O8 Y7 2.332279 1_555
O8 Y5 2.337399 1_546
O9 Si5 1.650614 1_555
O9 Y6 2.332279 1_655
O9 Y4 2.337399 1_565
O10 Si6 1.650614 1_555
O10 Y5 2.332279 1_555
O10 Y7 2.337399 1_564
O11 Si7 1.650614 1_555
O11 Y4 2.332279 1_455
O11 Y6 2.337399 1_545
O12 Si0 1.653151 1_555
O12 Si4 1.673054 1_555
O13 Si1 1.653151 1_555
O13 Si5 1.673054 1_555
O14 Si2 1.653151 1_555
O14 Si6 1.673054 1_555
O15 Si3 1.653151 1_555
O15 Si7 1.673054 1_555
O16 Si0 1.671579 1_555
O16 Si11 1.674907 1_555
O17 Si1 1.671579 1_555
O17 Si10 1.674907 1_555
O18 Si2 1.671579 1_555
O18 Si9 1.674907 1_555
O19 Si3 1.671579 1_555
O19 Si8 1.674907 1_555
O20 Si5 1.643995 1_455
O20 Y0 2.308604 1_555
O20 Y8 2.315975 1_555
O21 Si4 1.643995 1_555
O21 Y1 2.308604 1_555
O21 Y9 2.315975 1_555
O22 Si7 1.643995 1_655
O22 Y2 2.308604 1_555
O22 Y10 2.315975 1_555
O23 Si6 1.643995 1_555
O23 Y3 2.308604 1_555
O23 Y11 2.315975 1_555
O24 Si10 1.640464 1_555
O24 Y5 2.302911 1_556
O24 Y0 2.504784 1_555
O24 Y7 2.617831 1_555
O25 Si11 1.640464 1_655
O25 Y4 2.302911 1_555
O25 Y1 2.504784 1_555
O25 Y6 2.617831 1_655
O26 Si8 1.640464 1_555
O26 Y7 2.302911 1_554
O26 Y2 2.504784 1_555
O26 Y5 2.617831 1_555
O27 Si9 1.640464 1_455
O27 Y6 2.302911 1_555
O27 Y3 2.504784 1_555
O27 Y4 2.617831 1_455
O28 Si7 1.633310 1_555
O28 Y8 2.315773 1_554
O28 Y3 2.425821 1_555
O29 Si6 1.633310 1_555
O29 Y9 2.315773 1_555
O29 Y2 2.425821 1_555
O30 Si5 1.633310 1_555
O30 Y10 2.315773 1_556
O30 Y1 2.425821 1_555
O31 Si4 1.633310 1_555
O31 Y11 2.315773 1_555
O31 Y0 2.425821 1_555
O32 Si8 1.642535 1_555
O32 Y3 2.334809 1_555
O32 Y5 2.365429 1_555
O33 Si9 1.642535 1_555
O33 Y2 2.334809 1_555
O33 Y4 2.365429 1_555
O34 Si10 1.642535 1_555
O34 Y1 2.334809 1_555
O34 Y7 2.365429 1_555
O35 Si11 1.642535 1_555
O35 Y0 2.334809 1_555
O35 Y6 2.365429 1_555
O36 Si8 1.624606 1_555
O36 Y11 2.284453 1_545
O36 Y9 2.312734 1_555
O37 Si9 1.624606 1_555
O37 Y10 2.284453 1_565
O37 Y8 2.312734 1_654
O38 Si10 1.624606 1_555
O38 Y9 2.284453 1_565
O38 Y11 2.312734 1_555
O39 Si11 1.624606 1_555
O39 Y8 2.284453 1_545
O39 Y10 2.312734 1_456
O40 Y5 2.238244 1_556
O40 Y8 2.279222 1_555
O40 Y0 2.385324 1_555
O41 Y4 2.238244 1_555
O41 Y9 2.279222 1_555
O41 Y1 2.385324 1_555
O42 Y7 2.238244 1_554
O42 Y10 2.279222 1_555
O42 Y2 2.385324 1_555
O43 Y6 2.238244 1_555
O43 Y11 2.279222 1_555
O43 Y3 2.385324 1_555
