# generated using pymatgen
data_Li5Fe2P2(CO7)2
_symmetry_space_group_name_H-M   'P 1'
_cell_length_a   5.08665924
_cell_length_b   12.94190874
_cell_length_c   8.43009246
_cell_angle_alpha   89.28218911
_cell_angle_beta   83.86158419
_cell_angle_gamma   88.96153672
_symmetry_Int_Tables_number   1
_chemical_formula_structural   Li5Fe2P2(CO7)2
_chemical_formula_sum   'Li10 Fe4 P4 C4 O28'
_cell_volume   551.65826695
_cell_formula_units_Z   2
loop_
 _symmetry_equiv_pos_site_id
 _symmetry_equiv_pos_as_xyz
  1  'x, y, z'
loop_
 _atom_site_type_symbol
 _atom_site_label
 _atom_site_symmetry_multiplicity
 _atom_site_fract_x
 _atom_site_fract_y
 _atom_site_fract_z
 _atom_site_occupancy
  Li  Li0  1  0.79789300  0.12169200  0.10413500  1
  Li  Li1  1  0.79782500  0.62173200  0.10413700  1
  Li  Li2  1  0.25478500  0.22889300  0.27626200  1
  Li  Li3  1  0.25464000  0.72891200  0.27622800  1
  Li  Li4  1  0.74097600  0.24251000  0.74187200  1
  Li  Li5  1  0.74069100  0.74257700  0.74182600  1
  Li  Li6  1  0.73878800  0.49809000  0.73358700  1
  Li  Li7  1  0.73870400  0.99803700  0.73352300  1
  Li  Li8  1  0.22033100  0.37652800  0.89929700  1
  Li  Li9  1  0.22034400  0.87661500  0.89927500  1
  Fe  Fe0  1  0.78996300  0.87995600  0.32853100  1
  Fe  Fe1  1  0.21606200  0.62317200  0.66566000  1
  Fe  Fe2  1  0.78997500  0.38011700  0.32857900  1
  Fe  Fe3  1  0.21627900  0.12309000  0.66559100  1
  P  P0  1  0.72165100  0.13020300  0.41281300  1
  P  P1  1  0.72149900  0.63023600  0.41279200  1
  P  P2  1  0.25476900  0.37231800  0.58275400  1
  P  P3  1  0.25468700  0.87230900  0.58275300  1
  C  C0  1  0.68843000  0.37108800  0.04074300  1
  C  C1  1  0.68852000  0.87109600  0.04070300  1
  C  C2  1  0.33327200  0.12882000  0.96099900  1
  C  C3  1  0.33317900  0.62887100  0.96099100  1
  O  O0  1  0.93307700  0.37951600  0.07190700  1
  O  O1  1  0.93312800  0.87951200  0.07188700  1
  O  O2  1  0.40975000  0.14541700  0.09693700  1
  O  O3  1  0.40968200  0.64540800  0.09693400  1
  O  O4  1  0.51318000  0.36523100  0.16456800  1
  O  O5  1  0.51322800  0.86526300  0.16451200  1
  O  O6  1  0.79197300  0.03184300  0.31004400  1
  O  O7  1  0.79194300  0.53187300  0.31004500  1
  O  O8  1  0.84501700  0.21957900  0.30293000  1
  O  O9  1  0.84502100  0.71960300  0.30290900  1
  O  O10  1  0.12815800  0.36582100  0.42566700  1
  O  O11  1  0.12808500  0.86583800  0.42567100  1
  O  O12  1  0.42030700  0.14804700  0.44145400  1
  O  O13  1  0.42014900  0.64809500  0.44128000  1
  O  O14  1  0.56329300  0.37490900  0.54199600  1
  O  O15  1  0.56324100  0.87488400  0.54202700  1
  O  O16  1  0.83816100  0.12483300  0.57395500  1
  O  O17  1  0.83807800  0.62483800  0.57391800  1
  O  O18  1  0.17572500  0.28163900  0.70006400  1
  O  O19  1  0.17553100  0.78166100  0.70013800  1
  O  O20  1  0.15904800  0.46707000  0.68637300  1
  O  O21  1  0.15899100  0.96703700  0.68640800  1
  O  O22  1  0.51136700  0.11644500  0.83516900  1
  O  O23  1  0.51134500  0.61662000  0.83514000  1
  O  O24  1  0.62336900  0.37017100  0.89665300  1
  O  O25  1  0.62345300  0.87018000  0.89660400  1
  O  O26  1  0.08601200  0.12490900  0.93477200  1
  O  O27  1  0.08595600  0.62490500  0.93476100  1
loop_
_geom_bond_atom_site_label_1
_geom_bond_atom_site_label_2
_geom_bond_distance
_geom_bond_site_symmetry_2
Li0 O26 1.934243 1_654
Li0 O2 1.999801 1_555
Li0 O6 2.075013 1_555
Li0 O8 2.149645 1_555
Li1 O27 1.934341 1_654
Li1 O3 1.999721 1_555
Li1 O7 2.075090 1_555
Li1 O9 2.149441 1_555
Li2 O2 1.956784 1_555
Li2 O12 1.981221 1_555
Li2 O8 2.077932 1_455
Li2 O10 2.232182 1_555
Li2 O4 2.346334 1_555
Li3 O3 1.956914 1_555
Li3 O13 1.980121 1_555
Li3 O9 2.077175 1_455
Li3 O11 2.232257 1_555
Li3 O5 2.347044 1_555
Li4 O16 2.108239 1_555
Li4 O22 2.117784 1_555
Li4 O24 2.154383 1_555
Li4 O18 2.267262 1_655
Li4 O14 2.605627 1_555
Li5 O17 2.108926 1_555
Li5 O23 2.116039 1_555
Li5 O25 2.153418 1_555
Li5 O19 2.267520 1_655
Li5 O15 2.603944 1_555
Li6 O23 2.044826 1_555
Li6 O17 2.141721 1_555
Li6 O20 2.163415 1_655
Li6 O24 2.186486 1_555
Li6 O14 2.524170 1_555
Li7 O22 2.043664 1_565
Li7 O16 2.141844 1_565
Li7 O21 2.163436 1_655
Li7 O25 2.185772 1_555
Li7 O15 2.523317 1_555
Li8 O0 1.948979 1_456
Li8 O24 2.048025 1_555
Li8 O18 2.126911 1_555
Li8 O20 2.178507 1_555
Li9 O1 1.948843 1_456
Li9 O25 2.048386 1_555
Li9 O19 2.126965 1_555
Li9 O21 2.177371 1_555
Fe0 O6 1.970054 1_565
Fe0 O11 1.986994 1_655
Fe0 O15 2.032104 1_555
Fe0 O5 2.088551 1_555
Fe0 O9 2.099780 1_555
Fe0 O1 2.207813 1_555
Fe1 O20 2.048806 1_555
Fe1 O19 2.078700 1_555
Fe1 O13 2.082444 1_555
Fe1 O17 2.147411 1_455
Fe1 O23 2.180772 1_555
Fe1 O27 2.294439 1_555
Fe2 O7 1.968387 1_555
Fe2 O10 1.987220 1_655
Fe2 O14 2.031515 1_555
Fe2 O4 2.089009 1_555
Fe2 O8 2.102158 1_555
Fe2 O0 2.207983 1_555
Fe3 O21 2.048441 1_545
Fe3 O18 2.079468 1_555
Fe3 O12 2.080643 1_555
Fe3 O16 2.147630 1_455
Fe3 O22 2.180645 1_555
Fe3 O26 2.295254 1_555
C0 O24 1.292910 1_554
C0 O4 1.300578 1_555
C0 O0 1.305792 1_555
C1 O25 1.292994 1_554
C1 O5 1.300589 1_555
C1 O1 1.305634 1_555
C2 O2 1.270927 1_556
C2 O26 1.302068 1_555
C2 O22 1.328539 1_555
C3 O3 1.270874 1_556
C3 O27 1.301932 1_555
C3 O23 1.328694 1_555
O6 P0 1.563270 1_555
O7 P1 1.563298 1_555
O8 P0 1.570017 1_555
O9 P1 1.570209 1_555
O10 P2 1.537090 1_555
O11 P3 1.537004 1_555
O12 P0 1.539683 1_555
O13 P1 1.539672 1_555
O14 P2 1.571102 1_555
O15 P3 1.571213 1_555
O16 P0 1.539396 1_555
O17 P1 1.539450 1_555
O18 P2 1.555597 1_555
O19 P3 1.555790 1_555
O20 P2 1.555019 1_555
O21 P3 1.554907 1_555
