# generated using pymatgen
data_V3Cu2P6WO24
_symmetry_space_group_name_H-M   'P 1'
_cell_length_a   8.70017787
_cell_length_b   8.68728331
_cell_length_c   8.68728354
_cell_angle_alpha   59.99999453
_cell_angle_beta   60.04901341
_cell_angle_gamma   60.04901283
_symmetry_Int_Tables_number   1
_chemical_formula_structural   V3Cu2P6WO24
_chemical_formula_sum   'V3 Cu2 P6 W1 O24'
_cell_volume   464.62485641
_cell_formula_units_Z   1
loop_
 _symmetry_equiv_pos_site_id
 _symmetry_equiv_pos_as_xyz
  1  'x, y, z'
loop_
 _atom_site_type_symbol
 _atom_site_label
 _atom_site_symmetry_multiplicity
 _atom_site_fract_x
 _atom_site_fract_y
 _atom_site_fract_z
 _atom_site_occupancy
  V  V0  1  0.07333900  0.64222000  0.64222000  1
  V  V1  1  0.42827000  0.85724400  0.85724400  1
  V  V2  1  0.92665200  0.35778300  0.35778300  1
  Cu  Cu0  1  0.01129500  0.99623500  0.99623500  1
  Cu  Cu1  1  0.49959800  0.50013400  0.50013400  1
  P  P0  1  0.24527200  0.25171100  0.54444300  1
  P  P1  1  0.24527200  0.95857500  0.25171100  1
  P  P2  1  0.24527200  0.54444300  0.95857500  1
  P  P3  1  0.75034600  0.46581700  0.03930500  1
  P  P4  1  0.75034600  0.03930500  0.74453200  1
  P  P5  1  0.75034600  0.74453200  0.46581700  1
  W  W0  1  0.57343000  0.14219000  0.14219000  1
  O  O0  1  0.07187200  0.12286000  0.30150200  1
  O  O1  1  0.07187200  0.50376600  0.12286000  1
  O  O2  1  0.07187200  0.30150200  0.50376600  1
  O  O3  1  0.24561200  0.08286900  0.73031200  1
  O  O4  1  0.42910800  0.19740200  0.37986400  1
  O  O5  1  0.25564600  0.41694600  0.55755500  1
  O  O6  1  0.24561200  0.94120800  0.08286900  1
  O  O7  1  0.25564600  0.76985200  0.41694600  1
  O  O8  1  0.57017100  0.62272000  0.00519400  1
  O  O9  1  0.25564600  0.55755500  0.76985200  1
  O  O10  1  0.75226100  0.27246400  0.06044000  1
  O  O11  1  0.57017100  0.00519400  0.80191400  1
  O  O12  1  0.42910800  0.99362700  0.19740200  1
  O  O13  1  0.24561200  0.73031200  0.94120800  1
  O  O14  1  0.74584500  0.44018300  0.23095700  1
  O  O15  1  0.42910800  0.37986400  0.99362700  1
  O  O16  1  0.74584500  0.23095700  0.58301600  1
  O  O17  1  0.75226100  0.06044000  0.91483400  1
  O  O18  1  0.74584500  0.58301600  0.44018300  1
  O  O19  1  0.57017100  0.80191400  0.62272000  1
  O  O20  1  0.75226100  0.91483400  0.27246400  1
  O  O21  1  0.92967400  0.69837200  0.49443700  1
  O  O22  1  0.92967400  0.49443700  0.87751600  1
  O  O23  1  0.92967400  0.87751600  0.69837200  1
loop_
_geom_bond_atom_site_label_1
_geom_bond_atom_site_label_2
_geom_bond_distance
_geom_bond_site_symmetry_2
Cu0 O13 2.269352 1_555
Cu0 O3 2.269354 1_565
Cu0 O6 2.269358 1_556
Cu0 O10 2.414908 1_466
Cu0 O20 2.414911 1_456
Cu0 O17 2.414914 1_465
Cu1 O9 2.321564 1_555
Cu1 O7 2.321566 1_555
Cu1 O5 2.321569 1_555
Cu1 O14 2.330375 1_555
Cu1 O16 2.330377 1_555
Cu1 O18 2.330381 1_555
O0 P1 1.521756 1_545
O0 V2 1.951082 1_455
O1 P2 1.521759 1_554
O1 V2 1.951078 1_455
O2 P0 1.521761 1_555
O2 V2 1.951075 1_455
O3 P0 1.546198 1_555
O3 V1 2.015287 1_545
O4 P0 1.569261 1_555
O4 W0 1.967254 1_555
O5 P0 1.544266 1_555
O5 V0 2.015373 1_555
O6 P1 1.546198 1_555
O6 V1 2.015284 1_554
O7 P1 1.544276 1_555
O7 V0 2.015373 1_555
O8 P3 1.526230 1_555
O8 V1 1.944548 1_554
O9 P2 1.544283 1_555
O9 V0 2.015373 1_555
O10 P3 1.588121 1_555
O10 W0 2.014206 1_555
O11 P4 1.526233 1_555
O11 V1 1.944538 1_545
O12 P1 1.569261 1_555
O12 W0 1.967247 1_565
O13 P2 1.546198 1_555
O13 V1 2.015290 1_555
O14 P3 1.547894 1_555
O14 V2 2.004579 1_555
O15 P2 1.569261 1_555
O15 W0 1.967250 1_556
O16 P4 1.547890 1_555
O16 V2 2.004579 1_555
O17 P4 1.588112 1_555
O17 W0 2.014213 1_556
O18 P5 1.547885 1_555
O18 V2 2.004579 1_555
O19 P5 1.526228 1_555
O19 V1 1.944560 1_555
O20 P5 1.588117 1_555
O20 W0 2.014209 1_565
O21 P5 1.523062 1_555
O21 V0 1.953377 1_655
O22 P3 1.523065 1_556
O22 V0 1.953377 1_655
O23 P4 1.523067 1_565
O23 V0 1.953377 1_655
