# generated using pymatgen
data_LiCoPO4
_symmetry_space_group_name_H-M   'P 1'
_cell_length_a   4.29277100
_cell_length_b   14.62690200
_cell_length_c   4.76642100
_cell_angle_alpha   89.99963167
_cell_angle_beta   90.00008812
_cell_angle_gamma   90.00033803
_symmetry_Int_Tables_number   1
_chemical_formula_structural   LiCoPO4
_chemical_formula_sum   'Li4 Co4 P4 O16'
_cell_volume   299.28329206
_cell_formula_units_Z   4
loop_
 _symmetry_equiv_pos_site_id
 _symmetry_equiv_pos_as_xyz
  1  'x, y, z'
loop_
 _atom_site_type_symbol
 _atom_site_label
 _atom_site_symmetry_multiplicity
 _atom_site_fract_x
 _atom_site_fract_y
 _atom_site_fract_z
 _atom_site_occupancy
  Li  Li0  1  0.99999900  0.24883200  0.75000000  1
  Li  Li1  1  0.00000000  0.75116800  0.25000000  1
  Li  Li2  1  0.50000000  0.25116800  0.25000000  1
  Li  Li3  1  0.50000000  0.74883200  0.75000000  1
  Co  Co0  1  0.99999400  0.06281400  0.24999800  1
  Co  Co1  1  0.00000300  0.93718500  0.75000200  1
  Co  Co2  1  0.49999900  0.56281400  0.25000100  1
  Co  Co3  1  0.50000500  0.43718500  0.74999800  1
  P  P0  1  0.99999900  0.38713700  0.25000300  1
  P  P1  1  0.00000200  0.61286500  0.74999600  1
  P  P2  1  0.49999900  0.11286400  0.75000500  1
  P  P3  1  0.50000200  0.88713700  0.24999600  1
  O  O0  1  0.18729900  0.32840100  0.46430800  1
  O  O1  1  0.18729900  0.67159700  0.96430500  1
  O  O2  1  0.26360700  0.05211300  0.58642300  1
  O  O3  1  0.26361100  0.94788700  0.08643100  1
  O  O4  1  0.23639200  0.44788700  0.08643000  1
  O  O5  1  0.23639100  0.55211300  0.58642600  1
  O  O6  1  0.31270000  0.17159800  0.96430600  1
  O  O7  1  0.31270400  0.82840100  0.46430600  1
  O  O8  1  0.68729500  0.17159900  0.53569700  1
  O  O9  1  0.68729900  0.82840100  0.03569400  1
  O  O10  1  0.76360400  0.55211200  0.91357500  1
  O  O11  1  0.76360400  0.44788700  0.41356900  1
  O  O12  1  0.73639300  0.05211200  0.91357600  1
  O  O13  1  0.73639300  0.94788700  0.41356600  1
  O  O14  1  0.81270300  0.32840200  0.03569400  1
  O  O15  1  0.81270300  0.67159800  0.53569500  1
loop_
_geom_bond_atom_site_label_1
_geom_bond_atom_site_label_2
_geom_bond_distance
_geom_bond_site_symmetry_2
Li0 O0 1.963490 1_655
Li0 O14 1.963514 1_556
Li0 O8 2.030146 1_555
Li0 O6 2.030155 1_655
Li1 O15 1.963503 1_455
Li1 O1 1.963531 1_554
Li1 O9 2.030146 1_455
Li1 O7 2.030153 1_555
Li2 O8 1.963501 1_555
Li2 O6 1.963514 1_554
Li2 O14 2.030154 1_555
Li2 O0 2.030161 1_555
Li3 O7 1.963493 1_555
Li3 O9 1.963503 1_556
Li3 O1 2.030154 1_555
Li3 O15 2.030167 1_555
Co0 O12 1.968826 1_554
Co0 O2 1.968865 1_655
Co0 O13 2.171200 1_545
Co0 O3 2.171253 1_645
Co0 O6 2.487581 1_654
Co0 O8 2.487614 1_555
Co1 O3 1.968870 1_556
Co1 O13 1.968902 1_455
Co1 O2 2.171237 1_565
Co1 O12 2.171249 1_465
Co1 O9 2.487576 1_456
Co1 O7 2.487601 1_555
Co2 O5 1.968855 1_555
Co2 O10 1.968855 1_554
Co2 O11 2.171218 1_555
Co2 O4 2.171225 1_555
Co2 O1 2.487576 1_554
Co2 O15 2.487591 1_555
Co3 O11 1.968849 1_555
Co3 O4 1.968898 1_556
Co3 O10 2.171218 1_555
Co3 O5 2.171257 1_555
Co3 O14 2.487571 1_556
Co3 O0 2.487585 1_555
O0 P0 1.558192 1_455
O1 P1 1.558167 1_555
O2 P2 1.557982 1_555
O3 P3 1.557932 1_555
O4 P0 1.557951 1_455
O5 P1 1.557962 1_555
O6 P2 1.558170 1_555
O7 P3 1.558199 1_555
O8 P2 1.558181 1_555
O9 P3 1.558185 1_555
O10 P1 1.558004 1_655
O11 P0 1.557953 1_555
O12 P2 1.557971 1_555
O13 P3 1.557943 1_555
O14 P0 1.558189 1_555
O15 P1 1.558153 1_655
