# generated using pymatgen
data_Li8Mn3CrO12
_symmetry_space_group_name_H-M   'P 1'
_cell_length_a   4.93142400
_cell_length_b   4.95713681
_cell_length_c   8.43459556
_cell_angle_alpha   89.72350536
_cell_angle_beta   89.75222640
_cell_angle_gamma   89.83003582
_symmetry_Int_Tables_number   1
_chemical_formula_structural   Li8Mn3CrO12
_chemical_formula_sum   'Li8 Mn3 Cr1 O12'
_cell_volume   206.18473575
_cell_formula_units_Z   1
loop_
 _symmetry_equiv_pos_site_id
 _symmetry_equiv_pos_as_xyz
  1  'x, y, z'
loop_
 _atom_site_type_symbol
 _atom_site_label
 _atom_site_symmetry_multiplicity
 _atom_site_fract_x
 _atom_site_fract_y
 _atom_site_fract_z
 _atom_site_occupancy
  Li  Li0  1  0.00304800  0.50145800  0.07978300  1
  Li  Li1  1  0.99897400  0.50064500  0.76970900  1
  Li  Li2  1  0.00130600  0.99990000  0.43364300  1
  Li  Li3  1  0.99955300  0.99952100  0.74622300  1
  Li  Li4  1  0.49843900  0.50023900  0.24301900  1
  Li  Li5  1  0.49924300  0.49954500  0.92992800  1
  Li  Li6  1  0.50025900  0.00029300  0.58366600  1
  Li  Li7  1  0.49608300  0.00038300  0.27091500  1
  Mn  Mn0  1  0.00204200  0.49816800  0.41854400  1
  Mn  Mn1  1  0.50091500  0.50034600  0.59623900  1
  Mn  Mn2  1  0.49828900  0.99621300  0.91573500  1
  Cr  Cr0  1  0.99074900  0.00094700  0.09834800  1
  O  O0  1  0.85862800  0.75009800  0.25593000  1
  O  O1  1  0.82193300  0.78034100  0.92983500  1
  O  O2  1  0.82494400  0.71589800  0.58169600  1
  O  O3  1  0.67735500  0.21583000  0.07960100  1
  O  O4  1  0.67515700  0.28432100  0.43173400  1
  O  O5  1  0.64944100  0.24948700  0.75639400  1
  O  O6  1  0.34984200  0.75065900  0.75628800  1
  O  O7  1  0.32666700  0.71686300  0.43179100  1
  O  O8  1  0.32691100  0.78459500  0.08155900  1
  O  O9  1  0.17465600  0.28468400  0.58279300  1
  O  O10  1  0.17534700  0.21433700  0.93279300  1
  O  O11  1  0.15025100  0.25519500  0.25970200  1
loop_
_geom_bond_atom_site_label_1
_geom_bond_atom_site_label_2
_geom_bond_distance
_geom_bond_site_symmetry_2
Li0 O0 2.058419 1_455
Li0 O10 2.070165 1_554
Li0 O1 2.072218 1_454
Li0 O11 2.075221 1_555
Li0 O8 2.129467 1_555
Li0 O3 2.144284 1_455
Li1 O2 2.092825 1_555
Li1 O9 2.093126 1_655
Li1 O1 2.123537 1_555
Li1 O5 2.132975 1_555
Li1 O6 2.133624 1_655
Li1 O10 2.155721 1_655
Li2 O11 2.066833 1_565
Li2 O2 2.068510 1_455
Li2 O0 2.075445 1_455
Li2 O9 2.083252 1_565
Li2 O7 2.128342 1_555
Li2 O4 2.135779 1_465
Li3 O1 2.079387 1_555
Li3 O10 2.096496 1_665
Li3 O6 2.121483 1_655
Li3 O5 2.123864 1_565
Li3 O9 2.149929 1_665
Li3 O2 2.163394 1_555
Li4 O7 2.098870 1_555
Li4 O4 2.104452 1_555
Li4 O11 2.110042 1_555
Li4 O8 2.131069 1_555
Li4 O3 2.160303 1_555
Li4 O0 2.171871 1_555
Li5 O6 2.055154 1_555
Li5 O5 2.056753 1_555
Li5 O3 2.080469 1_556
Li5 O8 2.086986 1_556
Li5 O1 2.117294 1_555
Li5 O10 2.136225 1_555
Li6 O6 2.044553 1_545
Li6 O5 2.054684 1_555
Li6 O4 2.085354 1_555
Li6 O7 2.093280 1_545
Li6 O2 2.130278 1_545
Li6 O9 2.133610 1_555
Li7 O8 2.103424 1_545
Li7 O7 2.119735 1_545
Li7 O11 2.121430 1_555
Li7 O3 2.126070 1_555
Li7 O4 2.153383 1_555
Li7 O0 2.176731 1_545
Mn0 O4 1.934462 1_455
Mn0 O9 1.937652 1_555
Mn0 O7 1.939983 1_555
Mn0 O11 1.944672 1_555
Mn0 O2 1.954409 1_455
Mn0 O0 1.981835 1_455
Mn1 O2 1.928034 1_555
Mn1 O9 1.938387 1_555
Mn1 O7 1.950576 1_555
Mn1 O4 1.951641 1_555
Mn1 O5 1.973471 1_555
Mn1 O6 1.979659 1_555
Mn2 O1 1.922720 1_555
Mn2 O10 1.927540 1_565
Mn2 O8 1.936962 1_556
Mn2 O6 1.963637 1_555
Mn2 O3 1.976382 1_566
Mn2 O5 1.979597 1_565
Cr0 O3 1.881193 1_555
Cr0 O0 1.928410 1_545
Cr0 O10 1.969268 1_654
Cr0 O8 1.976696 1_645
Cr0 O1 1.984895 1_544
Cr0 O11 2.022635 1_655
