# generated using pymatgen
data_Li3Ti2Mn3O10
_symmetry_space_group_name_H-M   'P 1'
_cell_length_a   5.24364021
_cell_length_b   10.16789467
_cell_length_c   8.12289990
_cell_angle_alpha   112.33230361
_cell_angle_beta   97.54214174
_cell_angle_gamma   99.46366535
_symmetry_Int_Tables_number   1
_chemical_formula_structural   Li3Ti2Mn3O10
_chemical_formula_sum   'Li6 Ti4 Mn6 O20'
_cell_volume   386.14097402
_cell_formula_units_Z   2
loop_
 _symmetry_equiv_pos_site_id
 _symmetry_equiv_pos_as_xyz
  1  'x, y, z'
loop_
 _atom_site_type_symbol
 _atom_site_label
 _atom_site_symmetry_multiplicity
 _atom_site_fract_x
 _atom_site_fract_y
 _atom_site_fract_z
 _atom_site_occupancy
  Li  Li0  1  0.50000600  0.25001000  0.50001200  1
  Li  Li1  1  0.49999900  0.75001100  0.50000400  1
  Li  Li2  1  0.23159500  0.45429300  0.39994600  1
  Li  Li3  1  0.23156400  0.95428900  0.39987900  1
  Li  Li4  1  0.76842500  0.04575300  0.60011400  1
  Li  Li5  1  0.76843100  0.54574000  0.60007000  1
  Ti  Ti0  1  0.12036600  0.35626700  0.68281400  1
  Ti  Ti1  1  0.12038600  0.85631300  0.68283300  1
  Ti  Ti2  1  0.87962300  0.14371500  0.31714400  1
  Ti  Ti3  1  0.87957700  0.64374100  0.31718000  1
  Mn  Mn0  1  0.00023000  0.74991500  0.00001600  1
  Mn  Mn1  1  0.68769400  0.94269900  0.89508100  1
  Mn  Mn2  1  0.31228100  0.55723300  0.10492200  1
  Mn  Mn3  1  0.99990500  0.24999700  0.00003600  1
  Mn  Mn4  1  0.68762600  0.44276500  0.89505700  1
  Mn  Mn5  1  0.31242200  0.05724500  0.10494800  1
  O  O0  1  0.00467500  0.04167900  0.84685000  1
  O  O1  1  0.00473900  0.54166700  0.84683800  1
  O  O2  1  0.99523600  0.45832200  0.15316000  1
  O  O3  1  0.99532600  0.95829600  0.15311400  1
  O  O4  1  0.34014100  0.36661700  0.92799200  1
  O  O5  1  0.34019400  0.86658700  0.92796400  1
  O  O6  1  0.65980600  0.13338700  0.07199000  1
  O  O7  1  0.65980000  0.63339700  0.07201200  1
  O  O8  1  0.11966500  0.15696400  0.52473100  1
  O  O9  1  0.11972400  0.65699400  0.52472800  1
  O  O10  1  0.88025200  0.34302600  0.47526800  1
  O  O11  1  0.88029000  0.84305200  0.47524900  1
  O  O12  1  0.18870900  0.23541500  0.21448000  1
  O  O13  1  0.18883600  0.73543100  0.21451300  1
  O  O14  1  0.81119900  0.26458500  0.78554600  1
  O  O15  1  0.81134500  0.76455200  0.78555300  1
  O  O16  1  0.43233700  0.43640000  0.64735800  1
  O  O17  1  0.43236700  0.93640400  0.64738000  1
  O  O18  1  0.56759000  0.06361600  0.35258500  1
  O  O19  1  0.56763600  0.56362000  0.35263300  1
loop_
_geom_bond_atom_site_label_1
_geom_bond_atom_site_label_2
_geom_bond_distance
_geom_bond_site_symmetry_2
Li0 O16 1.938811 1_555
Li0 O18 1.938831 1_555
Li0 O10 2.130720 1_555
Li0 O8 2.131177 1_555
Li0 O14 2.594199 1_555
Li0 O12 2.594382 1_555
Li1 O19 1.938802 1_555
Li1 O17 1.938818 1_555
Li1 O9 2.130794 1_555
Li1 O11 2.131044 1_555
Li1 O13 2.593825 1_555
Li1 O15 2.594832 1_555
Li2 O19 2.084860 1_555
Li2 O12 2.114630 1_555
Li2 O9 2.141368 1_555
Li2 O16 2.228346 1_555
Li2 O2 2.232295 1_455
Li2 O10 2.277049 1_455
Li3 O18 2.084721 1_565
Li3 O13 2.114365 1_555
Li3 O8 2.141303 1_565
Li3 O17 2.229052 1_555
Li3 O3 2.231772 1_455
Li3 O11 2.276851 1_455
Li4 O17 2.084843 1_545
Li4 O14 2.114284 1_555
Li4 O11 2.141449 1_545
Li4 O18 2.229200 1_555
Li4 O0 2.231911 1_655
Li4 O8 2.276651 1_655
Li5 O16 2.085037 1_555
Li5 O15 2.114135 1_555
Li5 O10 2.141371 1_555
Li5 O19 2.228558 1_555
Li5 O1 2.232257 1_655
Li5 O9 2.276879 1_655
Mn0 O13 1.956034 1_555
Mn0 O15 1.957160 1_454
Mn0 O1 2.013522 1_554
Mn0 O3 2.015038 1_455
Mn0 O5 2.243615 1_554
Mn0 O7 2.244394 1_455
Mn1 O15 1.950889 1_555
Mn1 O5 1.952353 1_555
Mn1 O0 1.962027 1_665
Mn1 O6 1.968936 1_566
Mn1 O17 2.238691 1_555
Mn1 O3 2.407510 1_556
Mn2 O13 1.950796 1_555
Mn2 O7 1.952687 1_555
Mn2 O2 1.962005 1_455
Mn2 O4 1.968423 1_554
Mn2 O19 2.238442 1_555
Mn2 O1 2.407685 1_554
Mn3 O12 1.956579 1_655
Mn3 O14 1.956722 1_554
Mn3 O2 2.014290 1_555
Mn3 O0 2.014483 1_654
Mn3 O6 2.243377 1_555
Mn3 O4 2.244374 1_654
Mn4 O14 1.950918 1_555
Mn4 O4 1.952564 1_555
Mn4 O1 1.962168 1_655
Mn4 O7 1.968555 1_556
Mn4 O16 2.238290 1_555
Mn4 O2 2.408030 1_556
Mn5 O12 1.951261 1_555
Mn5 O6 1.952154 1_555
Mn5 O3 1.962094 1_445
Mn5 O5 1.968737 1_544
Mn5 O18 2.237556 1_555
Mn5 O0 2.408356 1_554
O0 Ti1 2.091771 1_545
O1 Ti0 2.091804 1_555
O2 Ti3 2.092018 1_555
O3 Ti2 2.092165 1_565
O4 Ti0 2.122215 1_555
O5 Ti1 2.122269 1_555
O6 Ti2 2.122229 1_555
O7 Ti3 2.122175 1_555
O8 Ti2 1.913167 1_455
O8 Ti0 1.942763 1_555
O9 Ti3 1.913201 1_455
O9 Ti1 1.942992 1_555
O10 Ti0 1.913142 1_655
O10 Ti2 1.943013 1_555
O11 Ti1 1.913254 1_655
O11 Ti3 1.942782 1_555
O12 Ti2 2.154148 1_455
O13 Ti3 2.154782 1_455
O14 Ti0 2.154735 1_655
O15 Ti1 2.154555 1_655
O16 Ti0 1.812891 1_555
O17 Ti1 1.812770 1_555
O18 Ti2 1.812987 1_555
O19 Ti3 1.812702 1_555
