# generated using pymatgen
data_Li2VOF4
_symmetry_space_group_name_H-M   'P 1'
_cell_length_a   5.25236000
_cell_length_b   8.57861805
_cell_length_c   9.39020957
_cell_angle_alpha   90.65545027
_cell_angle_beta   93.32646880
_cell_angle_gamma   92.16472748
_symmetry_Int_Tables_number   1
_chemical_formula_structural   Li2VOF4
_chemical_formula_sum   'Li8 V4 O4 F16'
_cell_volume   422.05025056
_cell_formula_units_Z   4
loop_
 _symmetry_equiv_pos_site_id
 _symmetry_equiv_pos_as_xyz
  1  'x, y, z'
loop_
 _atom_site_type_symbol
 _atom_site_label
 _atom_site_symmetry_multiplicity
 _atom_site_fract_x
 _atom_site_fract_y
 _atom_site_fract_z
 _atom_site_occupancy
  Li  Li0  1  0.78221000  0.60939200  0.32086300  1
  Li  Li1  1  0.67310200  0.60961800  0.98336300  1
  Li  Li2  1  0.82263100  0.12342900  0.00866500  1
  Li  Li3  1  0.74414800  0.10398100  0.66433700  1
  Li  Li4  1  0.19579800  0.43686100  0.18200100  1
  Li  Li5  1  0.18194500  0.38069900  0.50972900  1
  Li  Li6  1  0.33928700  0.87167400  0.49253700  1
  Li  Li7  1  0.31928200  0.91023800  0.80678000  1
  V  V0  1  0.67563200  0.21799200  0.35371700  1
  V  V1  1  0.81254900  0.71240400  0.62990700  1
  V  V2  1  0.23359500  0.80072400  0.12911200  1
  V  V3  1  0.28509000  0.28079600  0.87071600  1
  O  O0  1  0.76355700  0.61030100  0.77409500  1
  O  O1  1  0.59051600  0.67736800  0.49736900  1
  O  O2  1  0.67586500  0.10490300  0.20990300  1
  O  O3  1  0.32903500  0.35549800  0.71243000  1
  F  F0  1  0.99518300  0.13852600  0.81359800  1
  F  F1  1  0.08523600  0.87183200  0.64117700  1
  F  F2  1  0.00310600  0.93201400  0.03014600  1
  F  F3  1  0.92182700  0.19785200  0.51145200  1
  F  F4  1  0.52657300  0.39988400  0.99573500  1
  F  F5  1  0.41561900  0.36988800  0.34399200  1
  F  F6  1  0.51341000  0.67344200  0.19562200  1
  F  F7  1  0.61488600  0.89550500  0.68505000  1
  F  F8  1  0.48974000  0.10091400  0.89156500  1
  F  F9  1  0.46155300  0.09878400  0.47770700  1
  F  F10  1  0.38529400  0.76136300  0.94612300  1
  F  F11  1  0.06661900  0.30775700  0.02876800  1
  F  F12  1  0.13390900  0.83938100  0.31863400  1
  F  F13  1  0.05676100  0.59381600  0.54178400  1
  F  F14  1  0.99828600  0.61690700  0.11776200  1
  F  F15  1  0.90775500  0.39625600  0.31536100  1
loop_
_geom_bond_atom_site_label_1
_geom_bond_atom_site_label_2
_geom_bond_distance
_geom_bond_site_symmetry_2
Li0 O1 2.077682 1_555
Li1 O0 2.048330 1_555
Li2 O2 2.087343 1_555
Li5 O3 2.029268 1_555
Li6 O1 2.163951 1_555
O0 V1 1.648379 1_555
O1 V1 1.672067 1_555
O2 V0 1.653842 1_555
O3 V3 1.650329 1_555
F0 Li3 1.880773 1_555
F0 V3 1.961045 1_655
F0 Li2 2.093460 1_556
F1 V1 1.940150 1_455
F1 Li7 1.942607 1_555
F1 Li6 1.986182 1_555
F2 V2 1.895815 1_555
F2 Li2 1.933554 1_465
F3 V0 1.922571 1_555
F3 Li3 1.924987 1_555
F3 Li5 2.041698 1_655
F4 V3 1.931957 1_555
F4 Li1 1.937417 1_555
F5 V0 1.921997 1_555
F5 Li4 1.960426 1_555
F5 Li5 2.040592 1_555
F6 Li0 1.886519 1_555
F6 V2 1.942320 1_555
F6 Li1 2.275897 1_554
F7 Li3 1.904950 1_565
F7 Li7 1.987634 1_555
F7 V1 1.995048 1_555
F7 Li6 2.251801 1_555
F8 V3 1.919064 1_555
F8 Li7 1.971779 1_545
F8 Li2 2.012473 1_556
F9 V0 1.938554 1_555
F9 Li6 2.037080 1_545
F9 Li3 2.228831 1_555
F10 Li7 1.866121 1_555
F10 V2 1.966565 1_556
F10 Li1 2.049329 1_555
F11 Li4 1.884374 1_555
F11 V3 1.944925 1_554
F11 Li2 1.997590 1_455
F12 V2 1.912858 1_555
F12 Li6 1.915638 1_555
F13 V1 1.888777 1_455
F13 Li5 1.991635 1_555
F13 Li0 2.464670 1_455
F14 V2 1.964462 1_655
F14 Li4 1.973688 1_655
F14 Li1 2.062480 1_554
F14 Li0 2.275502 1_555
F15 Li0 1.968109 1_555
F15 V0 1.969136 1_555
F15 Li4 2.041680 1_655
F15 Li5 2.266733 1_655
