# generated using pymatgen
data_LiCo7O7F
_symmetry_space_group_name_H-M   'P 1'
_cell_length_a   3.29025216
_cell_length_b   3.29025216
_cell_length_c   20.87346400
_cell_angle_alpha   90.00000000
_cell_angle_beta   90.00000000
_cell_angle_gamma   120.00000319
_symmetry_Int_Tables_number   1
_chemical_formula_structural   LiCo7O7F
_chemical_formula_sum   'Li1 Co7 O7 F1'
_cell_volume   195.69670366
_cell_formula_units_Z   1
loop_
 _symmetry_equiv_pos_site_id
 _symmetry_equiv_pos_as_xyz
  1  'x, y, z'
loop_
 _atom_site_type_symbol
 _atom_site_label
 _atom_site_symmetry_multiplicity
 _atom_site_fract_x
 _atom_site_fract_y
 _atom_site_fract_z
 _atom_site_occupancy
  Li  Li0  1  0.33333300  0.66666700  0.84055700  1
  Co  Co0  1  0.33333300  0.66666700  0.34609000  1
  Co  Co1  1  0.33333300  0.66666700  0.09581900  1
  Co  Co2  1  0.33333300  0.66666700  0.59683600  1
  Co  Co3  1  0.66666700  0.33333300  0.22075800  1
  Co  Co4  1  0.66666700  0.33333300  0.72153500  1
  Co  Co5  1  0.66666700  0.33333300  0.47140000  1
  Co  Co6  1  0.66666700  0.33333300  0.97223700  1
  O  O0  1  0.33333300  0.66666700  0.99856200  1
  O  O1  1  0.33333300  0.66666700  0.24916200  1
  O  O2  1  0.33333300  0.66666700  0.75051000  1
  O  O3  1  0.33333300  0.66666700  0.49952700  1
  O  O4  1  0.66666700  0.33333300  0.37440100  1
  O  O5  1  0.66666700  0.33333300  0.12337700  1
  O  O6  1  0.66666700  0.33333300  0.62435700  1
  F  F0  1  0.66666700  0.33333300  0.87573500  1
loop_
_geom_bond_atom_site_label_1
_geom_bond_atom_site_label_2
_geom_bond_distance
_geom_bond_site_symmetry_2
Li0 O2 1.879593 1_555
Co0 O4 1.989422 1_455
Co0 O4 1.989422 1_565
Co0 O4 1.989427 1_555
Co0 O1 2.023223 1_555
Co1 O5 1.984810 1_455
Co1 O5 1.984810 1_565
Co1 O5 1.984815 1_555
Co1 O0 2.030090 1_554
Co2 O6 1.984586 1_455
Co2 O6 1.984586 1_565
Co2 O6 1.984592 1_555
Co2 O3 2.031176 1_555
Co3 O1 1.989999 1_545
Co3 O1 1.989999 1_655
Co3 O1 1.990005 1_555
Co3 O5 2.032679 1_555
Co4 O2 1.993583 1_545
Co4 O2 1.993583 1_655
Co4 O2 1.993588 1_555
Co4 O6 2.028441 1_555
Co5 O3 1.988284 1_545
Co5 O3 1.988284 1_655
Co5 O3 1.988290 1_555
Co5 O4 2.024705 1_555
Co6 O0 1.977504 1_545
Co6 O0 1.977504 1_655
Co6 O0 1.977510 1_555
Co6 F0 2.014331 1_555
F0 Li0 2.036604 1_545
F0 Li0 2.036604 1_655
F0 Li0 2.036609 1_555
