# generated using pymatgen
data_Li2AlVO4
_symmetry_space_group_name_H-M   'P 1'
_cell_length_a   7.75494685
_cell_length_b   7.80995740
_cell_length_c   7.77348215
_cell_angle_alpha   81.95210763
_cell_angle_beta   68.70284214
_cell_angle_gamma   95.25584914
_symmetry_Int_Tables_number   1
_chemical_formula_structural   Li2AlVO4
_chemical_formula_sum   'Li12 Al6 V6 O24'
_cell_volume   429.12594316
_cell_formula_units_Z   6
loop_
 _symmetry_equiv_pos_site_id
 _symmetry_equiv_pos_as_xyz
  1  'x, y, z'
loop_
 _atom_site_type_symbol
 _atom_site_label
 _atom_site_symmetry_multiplicity
 _atom_site_fract_x
 _atom_site_fract_y
 _atom_site_fract_z
 _atom_site_occupancy
  Li  Li0  1  0.99941000  0.75173500  0.75263700  1
  Li  Li1  1  0.99938000  0.25171200  0.25227100  1
  Li  Li2  1  0.33313400  0.99799900  0.66547700  1
  Li  Li3  1  0.33325200  0.49775800  0.16494600  1
  Li  Li4  1  0.66124700  0.50392100  0.84049100  1
  Li  Li5  1  0.66124700  0.00453500  0.34035000  1
  Li  Li6  1  0.67189900  0.24553700  0.57647700  1
  Li  Li7  1  0.67195500  0.74612500  0.07647500  1
  Li  Li8  1  0.99973700  0.99344300  0.99194300  1
  Li  Li9  1  0.99972800  0.49374700  0.49249900  1
  Li  Li10  1  0.33423000  0.75626600  0.42317900  1
  Li  Li11  1  0.33432800  0.25645800  0.92358900  1
  Al  Al0  1  0.66676900  0.87542500  0.70816400  1
  Al  Al1  1  0.66659500  0.37535800  0.20836500  1
  Al  Al2  1  0.99880400  0.12001600  0.62302100  1
  Al  Al3  1  0.99947300  0.62017400  0.12279100  1
  Al  Al4  1  0.33378200  0.63002100  0.79342400  1
  Al  Al5  1  0.33487600  0.12988500  0.29345000  1
  V  V0  1  0.66646300  0.62504000  0.45863300  1
  V  V1  1  0.00197300  0.87539800  0.37269500  1
  V  V2  1  0.33124300  0.37421500  0.54412800  1
  V  V3  1  0.66638400  0.12490000  0.95878300  1
  V  V4  1  0.00209300  0.37561200  0.87237900  1
  V  V5  1  0.33154300  0.87415300  0.04415100  1
  O  O0  1  0.15445400  0.68641300  0.25985100  1
  O  O1  1  0.15361600  0.18679700  0.76053700  1
  O  O2  1  0.17943300  0.56297900  0.65573300  1
  O  O3  1  0.18060200  0.06212200  0.15533500  1
  O  O4  1  0.16457400  0.45884900  0.00955500  1
  O  O5  1  0.16412500  0.95926900  0.50930000  1
  O  O6  1  0.16814200  0.79036300  0.90651200  1
  O  O7  1  0.16892200  0.29026600  0.40689200  1
  O  O8  1  0.48652100  0.45395300  0.69008100  1
  O  O9  1  0.48760000  0.95425500  0.19077900  1
  O  O10  1  0.84729000  0.79630800  0.22704400  1
  O  O11  1  0.84663000  0.29588600  0.72664700  1
  O  O12  1  0.49720600  0.70074000  0.91936000  1
  O  O13  1  0.49801000  0.20046500  0.41941700  1
  O  O14  1  0.83511300  0.05004000  0.49737000  1
  O  O15  1  0.83533000  0.54969700  0.99751400  1
  O  O16  1  0.82198800  0.70221800  0.60211700  1
  O  O17  1  0.82202900  0.20245100  0.10199800  1
  O  O18  1  0.51144900  0.04849100  0.81498600  1
  O  O19  1  0.51131800  0.54848300  0.31479200  1
  O  O20  1  0.83049700  0.94445700  0.83255700  1
  O  O21  1  0.83055100  0.44511500  0.33262000  1
  O  O22  1  0.50259600  0.80521600  0.58431000  1
  O  O23  1  0.50245900  0.30573400  0.08437100  1
loop_
_geom_bond_atom_site_label_1
_geom_bond_atom_site_label_2
_geom_bond_distance
_geom_bond_site_symmetry_2
Li0 O20 2.097426 1_555
Li0 O6 2.097531 1_655
Li0 O16 2.147175 1_555
Li0 O2 2.147953 1_655
Li0 O15 2.182670 1_555
Li0 O5 2.200877 1_655
Li1 O21 2.101961 1_555
Li1 O7 2.107310 1_655
Li1 O17 2.144786 1_555
Li1 O3 2.158633 1_655
Li1 O14 2.182363 1_555
Li1 O4 2.197254 1_655
Li2 O22 2.101958 1_555
Li2 O5 2.114060 1_555
Li2 O1 2.142936 1_565
Li2 O18 2.148088 1_565
Li2 O13 2.190879 1_565
Li2 O6 2.192057 1_555
Li3 O23 2.095179 1_555
Li3 O4 2.107195 1_555
Li3 O0 2.138523 1_555
Li3 O19 2.148962 1_555
Li3 O12 2.189600 1_554
Li3 O7 2.194206 1_555
Li4 O12 2.100617 1_555
Li4 O8 2.130037 1_555
Li4 O16 2.133262 1_555
Li4 O23 2.153963 1_556
Li4 O15 2.161249 1_555
Li4 O11 2.322951 1_555
Li5 O13 2.091608 1_555
Li5 O9 2.118429 1_545
Li5 O17 2.131594 1_555
Li5 O22 2.158934 1_545
Li5 O14 2.159463 1_555
Li5 O10 2.325901 1_545
Li6 O14 2.088762 1_555
Li6 O18 2.128023 1_555
Li6 O11 2.129168 1_555
Li6 O13 2.159234 1_555
Li6 O21 2.159584 1_555
Li6 O8 2.324866 1_555
Li7 O15 2.095290 1_554
Li7 O19 2.130038 1_555
Li7 O10 2.135238 1_555
Li7 O20 2.154393 1_554
Li7 O12 2.165472 1_554
Li7 O9 2.320138 1_555
Li8 O1 2.071264 1_665
Li8 O10 2.101722 1_556
Li8 O20 2.150794 1_555
Li8 O6 2.169452 1_655
Li8 O3 2.283683 1_666
Li8 O17 2.289622 1_566
Li9 O0 2.074967 1_655
Li9 O11 2.101666 1_555
Li9 O21 2.152997 1_555
Li9 O7 2.175723 1_655
Li9 O2 2.276659 1_655
Li9 O16 2.285451 1_555
Li10 O2 2.077338 1_555
Li10 O9 2.095074 1_555
Li10 O22 2.156482 1_555
Li10 O5 2.177345 1_555
Li10 O19 2.275934 1_555
Li10 O0 2.278953 1_555
Li11 O3 2.076769 1_556
Li11 O8 2.096003 1_555
Li11 O23 2.153303 1_556
Li11 O4 2.171639 1_556
Li11 O18 2.277671 1_555
Li11 O1 2.282575 1_555
Al0 O14 1.934766 1_565
Al0 O20 1.936557 1_555
Al0 O22 1.938775 1_555
Al0 O12 1.939500 1_555
Al0 O16 1.961669 1_555
Al0 O18 1.962972 1_565
Al1 O15 1.934780 1_554
Al1 O13 1.937480 1_555
Al1 O23 1.938056 1_555
Al1 O21 1.938798 1_555
Al1 O17 1.961391 1_555
Al1 O19 1.962259 1_555
Al2 O20 1.933669 1_545
Al2 O7 1.942711 1_655
Al2 O5 1.945144 1_645
Al2 O14 1.946062 1_555
Al2 O1 1.956968 1_655
Al2 O11 1.960704 1_555
Al3 O21 1.934197 1_555
Al3 O6 1.939718 1_654
Al3 O4 1.946528 1_655
Al3 O15 1.947780 1_554
Al3 O0 1.953934 1_655
Al3 O10 1.963837 1_555
Al4 O22 1.931737 1_555
Al4 O6 1.942587 1_555
Al4 O4 1.944223 1_556
Al4 O12 1.947813 1_555
Al4 O2 1.955826 1_555
Al4 O8 1.963594 1_555
Al5 O23 1.931400 1_555
Al5 O5 1.944505 1_545
Al5 O7 1.945008 1_555
Al5 O13 1.945866 1_555
Al5 O9 1.959254 1_545
Al5 O3 1.959661 1_555
O0 V5 2.029119 1_555
O0 V1 2.067605 1_555
O1 V2 2.031695 1_555
O1 V4 2.060461 1_555
O2 V4 2.031675 1_555
O2 V2 2.060628 1_555
O3 V1 2.034757 1_545
O3 V5 2.051208 1_545
O4 V4 2.041420 1_554
O5 V1 2.037593 1_555
O6 V5 2.051264 1_556
O7 V2 2.042695 1_555
O8 V0 2.032521 1_555
O8 V2 2.044006 1_555
O9 V3 2.030508 1_564
O9 V5 2.053807 1_555
O10 V0 2.035882 1_555
O10 V1 2.036921 1_655
O11 V3 2.035781 1_555
O11 V4 2.043676 1_655
O12 V5 2.051122 1_556
O13 V2 2.057396 1_555
O14 V1 2.063136 1_645
O15 V4 2.060537 1_655
O16 V0 2.023429 1_555
O16 V1 2.031896 1_655
O17 V3 2.023388 1_554
O17 V4 2.032832 1_654
O18 V3 2.019964 1_555
O18 V5 2.034999 1_546
O19 V0 2.021861 1_555
O19 V2 2.035844 1_555
O20 V3 2.092164 1_565
O21 V0 2.088286 1_555
O22 V0 2.088094 1_555
O23 V3 2.092171 1_554
