# generated using pymatgen
data_GdTa3O9
_symmetry_space_group_name_H-M   'P 1'
_cell_length_a   7.49087121
_cell_length_b   5.31734461
_cell_length_c   8.22866529
_cell_angle_alpha   87.56683887
_cell_angle_beta   90.00000000
_cell_angle_gamma   90.00000000
_symmetry_Int_Tables_number   1
_chemical_formula_structural   GdTa3O9
_chemical_formula_sum   'Gd2 Ta6 O18'
_cell_volume   327.46494063
_cell_formula_units_Z   2
loop_
 _symmetry_equiv_pos_site_id
 _symmetry_equiv_pos_as_xyz
  1  'x, y, z'
loop_
 _atom_site_type_symbol
 _atom_site_label
 _atom_site_symmetry_multiplicity
 _atom_site_fract_x
 _atom_site_fract_y
 _atom_site_fract_z
 _atom_site_occupancy
  Gd  Gd0  1  0.25000000  0.96644239  0.43487856  1
  Gd  Gd1  1  0.75000000  0.03355761  0.56512144  1
  Ta  Ta0  1  0.00000000  -0.00000000  0.00000000  1
  Ta  Ta1  1  0.50000000  -0.00000000  0.00000000  1
  Ta  Ta2  1  0.00743132  0.52718813  0.69846758  1
  Ta  Ta3  1  0.49256868  0.52718813  0.69846758  1
  Ta  Ta4  1  0.99256868  0.47281187  0.30153242  1
  Ta  Ta5  1  0.50743132  0.47281187  0.30153242  1
  O  O0  1  0.25000000  0.90451812  0.98034412  1
  O  O1  1  0.93839875  0.85032192  0.78516404  1
  O  O2  1  0.56160125  0.85032192  0.78516404  1
  O  O3  1  0.95919466  0.73868131  0.46676746  1
  O  O4  1  0.54080534  0.73868131  0.46676746  1
  O  O5  1  0.25000000  0.65854231  0.65671505  1
  O  O6  1  0.94613228  0.67703874  0.11978037  1
  O  O7  1  0.55386772  0.67703874  0.11978037  1
  O  O8  1  0.25000000  0.57012504  0.31243799  1
  O  O9  1  0.75000000  0.42987496  0.68756201  1
  O  O10  1  0.05386772  0.32296126  0.88021963  1
  O  O11  1  0.44613228  0.32296126  0.88021963  1
  O  O12  1  0.75000000  0.34145769  0.34328495  1
  O  O13  1  0.04080534  0.26131869  0.53323254  1
  O  O14  1  0.45919466  0.26131869  0.53323254  1
  O  O15  1  0.06160125  0.14967808  0.21483596  1
  O  O16  1  0.43839875  0.14967808  0.21483596  1
  O  O17  1  0.75000000  0.09548188  0.01965588  1
loop_
_geom_bond_atom_site_label_1
_geom_bond_atom_site_label_2
_geom_bond_distance
_geom_bond_site_symmetry_2
Gd0 O8 2.374095 1_555
Gd0 O14 2.382623 1_565
Gd0 O13 2.382623 1_565
Gd0 O5 2.399762 1_555
Gd0 O15 2.463673 1_565
Gd0 O16 2.463673 1_565
Gd0 O4 2.500792 1_555
Gd0 O3 2.500792 1_455
Gd1 O9 2.374095 1_555
Gd1 O3 2.382623 1_545
Gd1 O4 2.382623 1_545
Gd1 O12 2.399762 1_555
Gd1 O2 2.463673 1_545
Gd1 O1 2.463673 1_545
Gd1 O13 2.500792 1_655
Gd1 O14 2.500792 1_555
O0 Ta0 1.948839 1_566
O0 Ta1 1.948839 1_566
O1 Ta2 1.957722 1_655
O1 Ta0 2.022622 1_666
O2 Ta3 1.957722 1_555
O2 Ta1 2.022622 1_566
O3 Ta4 2.018167 1_555
O3 Ta2 2.201875 1_655
O4 Ta5 2.018167 1_555
O4 Ta3 2.201875 1_555
O5 Ta2 1.971593 1_555
O5 Ta3 1.971593 1_555
O6 Ta4 1.843672 1_555
O6 Ta0 1.984864 1_665
O7 Ta5 1.843672 1_555
O7 Ta1 1.984864 1_565
O8 Ta5 1.999604 1_555
O8 Ta4 1.999604 1_455
O9 Ta3 1.999604 1_555
O9 Ta2 1.999604 1_655
O10 Ta2 1.843672 1_555
O10 Ta0 1.984864 1_556
O11 Ta3 1.843672 1_555
O11 Ta1 1.984864 1_556
O12 Ta5 1.971593 1_555
O12 Ta4 1.971593 1_555
O13 Ta2 2.018167 1_555
O13 Ta4 2.201875 1_455
O14 Ta3 2.018167 1_555
O14 Ta5 2.201875 1_555
O15 Ta4 1.957722 1_455
O15 Ta0 2.022622 1_555
O16 Ta5 1.957722 1_555
O16 Ta1 2.022622 1_555
O17 Ta1 1.948839 1_555
O17 Ta0 1.948839 1_655
