# generated using pymatgen
data_Cs2NpO3
_symmetry_space_group_name_H-M   'P 1'
_cell_length_a   7.05675070
_cell_length_b   7.05675070
_cell_length_c   6.41180600
_cell_angle_alpha   90.00000000
_cell_angle_beta   90.00000000
_cell_angle_gamma   113.51626388
_symmetry_Int_Tables_number   1
_chemical_formula_structural   Cs2NpO3
_chemical_formula_sum   'Cs4 Np2 O6'
_cell_volume   292.77506463
_cell_formula_units_Z   2
loop_
 _symmetry_equiv_pos_site_id
 _symmetry_equiv_pos_as_xyz
  1  'x, y, z'
loop_
 _atom_site_type_symbol
 _atom_site_label
 _atom_site_symmetry_multiplicity
 _atom_site_fract_x
 _atom_site_fract_y
 _atom_site_fract_z
 _atom_site_occupancy
  Cs  Cs0  1  0.80585800  0.48194700  0.25631100  1
  Cs  Cs1  1  0.51805300  0.19414200  0.75631100  1
  Cs  Cs2  1  0.19414200  0.51805300  0.75631100  1
  Cs  Cs3  1  0.48194700  0.80585800  0.25631100  1
  Np  Np0  1  0.08553400  0.08553400  0.23946100  1
  Np  Np1  1  0.91446600  0.91446600  0.73946100  1
  O  O0  1  0.87703100  0.10992000  0.99472000  1
  O  O1  1  0.89008000  0.12296900  0.49472000  1
  O  O2  1  0.65298400  0.65298400  0.69847500  1
  O  O3  1  0.34701600  0.34701600  0.19847500  1
  O  O4  1  0.10992000  0.87703100  0.99472000  1
  O  O5  1  0.12296900  0.89008000  0.49472000  1
loop_
_geom_bond_atom_site_label_1
_geom_bond_atom_site_label_2
_geom_bond_distance
_geom_bond_site_symmetry_2
Cs0 O3 3.011314 1_555
Cs0 O1 3.210704 1_555
Cs0 O4 3.227430 1_654
Cs0 O5 3.239761 1_655
Cs0 O0 3.318122 1_554
Cs0 O2 3.420125 1_555
Cs1 O2 3.011314 1_555
Cs1 O0 3.210704 1_555
Cs1 O5 3.227430 1_545
Cs1 O4 3.239761 1_545
Cs1 O1 3.318122 1_555
Cs1 O3 3.420125 1_556
Cs2 O2 3.011314 1_555
Cs2 O4 3.210704 1_555
Cs2 O1 3.227430 1_455
Cs2 O0 3.239761 1_455
Cs2 O5 3.318122 1_555
Cs2 O3 3.420125 1_556
Cs3 O3 3.011314 1_555
Cs3 O5 3.210704 1_555
Cs3 O0 3.227430 1_564
Cs3 O1 3.239761 1_565
Cs3 O4 3.318122 1_554
Cs3 O2 3.420125 1_555
Np0 O3 2.039995 1_555
Np0 O4 2.204323 1_544
Np0 O0 2.204323 1_454
Np0 O1 2.222978 1_455
Np0 O5 2.222978 1_545
Np1 O2 2.039995 1_555
Np1 O1 2.204323 1_565
Np1 O5 2.204323 1_655
Np1 O4 2.222978 1_655
Np1 O0 2.222978 1_565
