# generated using pymatgen
data_Ca2La8Ti5Cr5O30
_symmetry_space_group_name_H-M   'P 1'
_cell_length_a   5.52203327
_cell_length_b   5.52281642
_cell_length_c   27.61961218
_cell_angle_alpha   60.67661310
_cell_angle_beta   60.70784065
_cell_angle_gamma   60.68658216
_symmetry_Int_Tables_number   1
_chemical_formula_structural   Ca2La8Ti5Cr5O30
_chemical_formula_sum   'Ca2 La8 Ti5 Cr5 O30'
_cell_volume   604.89114068
_cell_formula_units_Z   1
loop_
 _symmetry_equiv_pos_site_id
 _symmetry_equiv_pos_as_xyz
  1  'x, y, z'
loop_
 _atom_site_type_symbol
 _atom_site_label
 _atom_site_symmetry_multiplicity
 _atom_site_fract_x
 _atom_site_fract_y
 _atom_site_fract_z
 _atom_site_occupancy
  Ca  Ca0  1  0.25188900  0.25328900  0.04762900  1
  Ca  Ca1  1  0.74811100  0.74671100  0.35237100  1
  La  La0  1  0.24694900  0.24559500  0.25222400  1
  La  La1  1  0.75305100  0.75440500  0.14777600  1
  La  La2  1  0.25207200  0.25080500  0.45076200  1
  La  La3  1  0.24901600  0.25127100  0.64996900  1
  La  La4  1  0.74859200  0.75061400  0.55074100  1
  La  La5  1  0.25140800  0.24938600  0.84925900  1
  La  La6  1  0.75098400  0.74872900  0.75003100  1
  La  La7  1  0.74792800  0.74919500  0.94923800  1
  Ti  Ti0  1  0.99805700  0.99721100  0.00059300  1
  Ti  Ti1  1  0.00000000  0.00000000  0.20000000  1
  Ti  Ti2  1  0.50455900  0.50007800  0.09935100  1
  Ti  Ti3  1  0.00194300  0.00278900  0.39940700  1
  Ti  Ti4  1  0.49544100  0.49992200  0.30064900  1
  Cr  Cr0  1  0.99961300  0.00072800  0.59982700  1
  Cr  Cr1  1  0.50178800  0.50191600  0.49920600  1
  Cr  Cr2  1  0.00038700  0.99927200  0.80017300  1
  Cr  Cr3  1  0.50000000  0.50000000  0.70000000  1
  Cr  Cr4  1  0.49821200  0.49808400  0.90079400  1
  O  O0  1  0.19028000  0.74999000  0.06181500  1
  O  O1  1  0.31207100  0.18902500  0.15140800  1
  O  O2  1  0.75349800  0.30766900  0.03770000  1
  O  O3  1  0.25274000  0.68343400  0.16308200  1
  O  O4  1  0.68446300  0.81799200  0.05016300  1
  O  O5  1  0.18333800  0.74919800  0.26328100  1
  O  O6  1  0.81666200  0.25080200  0.13671900  1
  O  O7  1  0.31553700  0.18200800  0.34983700  1
  O  O8  1  0.74726000  0.31656600  0.23691800  1
  O  O9  1  0.24650200  0.69233100  0.36230000  1
  O  O10  1  0.68792900  0.81097500  0.24859200  1
  O  O11  1  0.18179100  0.75305600  0.46317700  1
  O  O12  1  0.80972000  0.25001000  0.33818500  1
  O  O13  1  0.32263600  0.17950000  0.54884000  1
  O  O14  1  0.75229100  0.31696000  0.43590000  1
  O  O15  1  0.25010200  0.67913000  0.56377900  1
  O  O16  1  0.68634700  0.81748800  0.45036900  1
  O  O17  1  0.17825500  0.75015100  0.66404200  1
  O  O18  1  0.82293300  0.25125300  0.53506900  1
  O  O19  1  0.32251400  0.17651600  0.75064500  1
  O  O20  1  0.75038600  0.32144800  0.63555000  1
  O  O21  1  0.24961400  0.67855200  0.76445000  1
  O  O22  1  0.67748600  0.82348400  0.64935500  1
  O  O23  1  0.17706700  0.74874700  0.86493100  1
  O  O24  1  0.82174500  0.24984900  0.73595800  1
  O  O25  1  0.31365300  0.18251200  0.94963100  1
  O  O26  1  0.74989800  0.32087000  0.83622100  1
  O  O27  1  0.24770900  0.68304000  0.96410000  1
  O  O28  1  0.67736400  0.82050000  0.85116000  1
  O  O29  1  0.81820900  0.24694400  0.93682300  1
loop_
_geom_bond_atom_site_label_1
_geom_bond_atom_site_label_2
_geom_bond_distance
_geom_bond_site_symmetry_2
Ca0 O27 2.364612 1_554
Ca0 O4 2.422000 1_545
Ca0 O6 2.458335 1_455
Ca0 O2 2.754660 1_455
Ca0 O25 2.756373 1_554
Ca0 O0 2.779275 1_545
Ca0 O0 2.793357 1_555
Ca0 O2 2.797920 1_555
Ca0 O1 2.876189 1_555
Ca1 O14 2.364612 1_555
Ca1 O7 2.422000 1_565
Ca1 O5 2.458335 1_655
Ca1 O9 2.754660 1_655
Ca1 O16 2.756373 1_555
Ca1 O12 2.779275 1_565
Ca1 O12 2.793357 1_555
Ca1 O9 2.797920 1_555
Ca1 O10 2.876189 1_555
La0 O12 2.420049 1_455
La0 O10 2.444355 1_545
La0 O3 2.465229 1_555
La0 O7 2.734402 1_555
La0 O8 2.778528 1_555
La0 O5 2.778971 1_555
La0 O1 2.782557 1_555
La0 O5 2.783961 1_545
La0 O8 2.804675 1_455
La1 O0 2.420049 1_655
La1 O1 2.444355 1_565
La1 O8 2.465229 1_555
La1 O4 2.734402 1_555
La1 O3 2.778528 1_555
La1 O6 2.778971 1_555
La1 O10 2.782557 1_555
La1 O6 2.783961 1_565
La1 O3 2.804675 1_655
La2 O18 2.374458 1_455
La2 O16 2.420446 1_545
La2 O9 2.466012 1_555
La2 O13 2.735446 1_555
La2 O14 2.768335 1_555
La2 O11 2.776634 1_555
La2 O11 2.795750 1_545
La2 O14 2.809417 1_455
La2 O7 2.826389 1_555
La3 O22 2.388859 1_545
La3 O24 2.392499 1_455
La3 O15 2.396011 1_555
La3 O17 2.782298 1_555
La3 O20 2.786968 1_455
La3 O20 2.791856 1_555
La3 O17 2.796419 1_545
La3 O19 2.807646 1_555
La3 O13 2.817721 1_555
La4 O20 2.380437 1_555
La4 O13 2.385272 1_565
La4 O11 2.431070 1_655
La4 O22 2.758079 1_555
La4 O15 2.778652 1_655
La4 O16 2.782999 1_555
La4 O18 2.786761 1_565
La4 O15 2.796009 1_555
La4 O18 2.801535 1_555
La5 O21 2.380437 1_555
La5 O28 2.385272 1_545
La5 O29 2.431070 1_455
La5 O19 2.758079 1_555
La5 O26 2.778652 1_455
La5 O25 2.782999 1_555
La5 O23 2.786761 1_545
La5 O26 2.796009 1_555
La5 O23 2.801535 1_555
La6 O19 2.388859 1_565
La6 O17 2.392499 1_655
La6 O26 2.396011 1_555
La6 O24 2.782298 1_555
La6 O21 2.786968 1_655
La6 O21 2.791856 1_555
La6 O24 2.796419 1_565
La6 O22 2.807646 1_555
La6 O28 2.817721 1_555
La7 O23 2.374458 1_655
La7 O25 2.420446 1_565
La7 O2 2.466012 1_556
La7 O28 2.735446 1_555
La7 O27 2.768335 1_555
La7 O29 2.776634 1_555
La7 O29 2.795750 1_565
La7 O27 2.809417 1_655
La7 O4 2.826389 1_556
Cr0 O20 2.000268 1_555
Cr0 O17 2.001277 1_645
Cr0 O22 2.001489 1_545
Cr0 O18 2.006770 1_555
Cr0 O15 2.009495 1_645
Cr0 O13 2.011043 1_655
Cr1 O16 1.996755 1_555
Cr1 O11 2.001331 1_555
Cr1 O14 2.003298 1_555
Cr1 O18 2.003580 1_555
Cr1 O15 2.005641 1_555
Cr1 O13 2.008866 1_555
Cr2 O21 2.000268 1_555
Cr2 O24 2.001277 1_465
Cr2 O19 2.001489 1_565
Cr2 O23 2.006770 1_555
Cr2 O26 2.009495 1_465
Cr2 O28 2.011043 1_455
Cr3 O21 2.007171 1_555
Cr3 O20 2.007171 1_555
Cr3 O24 2.007703 1_555
Cr3 O17 2.007703 1_555
Cr3 O22 2.008533 1_555
Cr3 O19 2.008533 1_555
Cr4 O25 1.996755 1_555
Cr4 O29 2.001331 1_555
Cr4 O27 2.003298 1_555
Cr4 O23 2.003580 1_555
Cr4 O26 2.005641 1_555
Cr4 O28 2.008866 1_555
O0 Ti0 1.981419 1_455
O0 Ti2 2.001305 1_555
O1 Ti1 1.996694 1_555
O1 Ti2 2.005351 1_555
O2 Ti0 1.978274 1_545
O2 Ti2 1.992442 1_555
O3 Ti1 2.002141 1_565
O3 Ti2 2.007346 1_555
O4 Ti0 1.970760 1_555
O4 Ti2 1.991546 1_555
O5 Ti4 1.989058 1_555
O5 Ti1 1.996362 1_565
O6 Ti2 1.989058 1_555
O6 Ti1 1.996362 1_655
O7 Ti3 1.970760 1_555
O7 Ti4 1.991546 1_555
O8 Ti1 2.002141 1_655
O8 Ti4 2.007346 1_555
O9 Ti3 1.978274 1_565
O9 Ti4 1.992442 1_555
O10 Ti1 1.996694 1_665
O10 Ti4 2.005351 1_555
O11 Ti3 1.995442 1_565
O12 Ti3 1.981419 1_655
O12 Ti4 2.001305 1_555
O14 Ti3 1.984471 1_655
O16 Ti3 2.000189 1_665
O25 Ti0 2.000189 1_446
O27 Ti0 1.984471 1_456
O29 Ti0 1.995442 1_546
