# generated using pymatgen
data_Li7Mn14O32
_symmetry_space_group_name_H-M   'P 1'
_cell_length_a   19.31771711
_cell_length_b   19.31771711
_cell_length_c   19.31771657
_cell_angle_alpha   17.36640894
_cell_angle_beta   17.36640894
_cell_angle_gamma   17.36640881
_symmetry_Int_Tables_number   1
_chemical_formula_structural   Li7Mn14O32
_chemical_formula_sum   'Li7 Mn14 O32'
_cell_volume   560.45916693
_cell_formula_units_Z   1
loop_
 _symmetry_equiv_pos_site_id
 _symmetry_equiv_pos_as_xyz
  1  'x, y, z'
loop_
 _atom_site_type_symbol
 _atom_site_label
 _atom_site_symmetry_multiplicity
 _atom_site_fract_x
 _atom_site_fract_y
 _atom_site_fract_z
 _atom_site_occupancy
  Li  Li0  1  0.40396800  0.40396800  0.40396800  1
  Li  Li1  1  0.09434900  0.09434900  0.09434900  1
  Li  Li2  1  0.84531300  0.84531300  0.84531300  1
  Li  Li3  1  0.90588900  0.90588900  0.90588900  1
  Li  Li4  1  0.15473100  0.15473100  0.15473100  1
  Li  Li5  1  0.59547300  0.59547300  0.59547300  1
  Li  Li6  1  0.65524300  0.65524300  0.65524300  1
  Mn  Mn0  1  0.87323500  0.87323500  0.38026400  1
  Mn  Mn1  1  0.38026400  0.87323500  0.87323500  1
  Mn  Mn2  1  0.11766600  0.62759000  0.62759000  1
  Mn  Mn3  1  0.00055400  0.00055400  0.00055400  1
  Mn  Mn4  1  0.62759000  0.11766600  0.62759000  1
  Mn  Mn5  1  0.87323500  0.38026400  0.87323500  1
  Mn  Mn6  1  0.62759000  0.62759000  0.11766600  1
  Mn  Mn7  1  0.49997600  0.49997600  0.49997600  1
  Mn  Mn8  1  0.37232600  0.88237100  0.37232600  1
  Mn  Mn9  1  0.37232600  0.37232600  0.88237100  1
  Mn  Mn10  1  0.12776500  0.61794300  0.12776500  1
  Mn  Mn11  1  0.61794300  0.12776500  0.12776500  1
  Mn  Mn12  1  0.88237100  0.37232600  0.37232600  1
  Mn  Mn13  1  0.12776500  0.12776500  0.61794300  1
  O  O0  1  0.16744600  0.73161500  0.16744600  1
  O  O1  1  0.73161500  0.16744600  0.16744600  1
  O  O2  1  0.04045900  0.56733900  0.56733900  1
  O  O3  1  0.69067700  0.69067700  0.69067700  1
  O  O4  1  0.56733900  0.04045900  0.56733900  1
  O  O5  1  0.56733900  0.56733900  0.04045900  1
  O  O6  1  0.93271900  0.93271900  0.45973800  1
  O  O7  1  0.16744600  0.16744600  0.73161500  1
  O  O8  1  0.22696100  0.66889000  0.66889000  1
  O  O9  1  0.45973800  0.93271900  0.93271900  1
  O  O10  1  0.80952700  0.80952700  0.80952700  1
  O  O11  1  0.05983700  0.05983700  0.05983700  1
  O  O12  1  0.44049700  0.44049700  0.44049700  1
  O  O13  1  0.33102400  0.33102500  0.77302900  1
  O  O14  1  0.33102500  0.77302900  0.33102400  1
  O  O15  1  0.06713800  0.54041000  0.06713800  1
  O  O16  1  0.66889000  0.22696100  0.66889000  1
  O  O17  1  0.93271900  0.45973800  0.93271900  1
  O  O18  1  0.66889000  0.66889000  0.22696100  1
  O  O19  1  0.55944600  0.55944600  0.55944600  1
  O  O20  1  0.94044900  0.94044900  0.94044900  1
  O  O21  1  0.19043800  0.19043800  0.19043800  1
  O  O22  1  0.77302900  0.33102500  0.33102500  1
  O  O23  1  0.54041000  0.06713800  0.06713800  1
  O  O24  1  0.06713800  0.06713800  0.54041000  1
  O  O25  1  0.83092000  0.83092000  0.27264500  1
  O  O26  1  0.43313600  0.43313600  0.95863300  1
  O  O27  1  0.43313600  0.95863300  0.43313600  1
  O  O28  1  0.95863300  0.43313600  0.43313600  1
  O  O29  1  0.30889500  0.30889500  0.30889500  1
  O  O30  1  0.27264500  0.83092000  0.83092000  1
  O  O31  1  0.83092000  0.27264500  0.83092000  1
loop_
_geom_bond_atom_site_label_1
_geom_bond_atom_site_label_2
_geom_bond_distance
_geom_bond_site_symmetry_2
Li0 O5 1.907176 1_555
Li0 O4 1.907177 1_555
Li0 O2 1.907177 1_555
Li0 O12 2.084555 1_555
Li1 O6 1.947320 1_445
Li1 O9 1.947320 1_544
Li1 O17 1.947320 1_454
Li1 O11 1.969454 1_555
Li2 O18 1.957582 1_556
Li2 O16 1.957582 1_565
Li2 O8 1.957582 1_655
Li2 O10 2.042156 1_555
Li3 O24 1.953155 1_665
Li3 O23 1.953155 1_566
Li3 O15 1.953155 1_656
Li3 O20 1.972193 1_555
Li4 O22 1.959009 1_455
Li4 O13 1.959013 1_554
Li4 O14 1.959013 1_545
Li4 O21 2.037647 1_555
Li5 O26 1.915104 1_555
Li5 O27 1.915104 1_555
Li5 O28 1.915104 1_555
Li5 O19 2.055908 1_555
Li6 O25 1.971742 1_555
Li6 O31 1.971742 1_555
Li6 O30 1.971742 1_555
Li6 O3 2.022068 1_555
Mn0 O2 1.870085 1_655
Mn0 O4 1.870085 1_565
Mn0 O3 1.959277 1_555
Mn0 O0 1.968758 1_655
Mn0 O1 1.968758 1_565
Mn0 O11 1.980730 1_665
Mn1 O5 1.870085 1_556
Mn1 O4 1.870085 1_565
Mn1 O3 1.959277 1_555
Mn1 O7 1.968758 1_565
Mn1 O0 1.968758 1_556
Mn1 O11 1.980730 1_566
Mn2 O6 1.858569 1_455
Mn2 O17 1.858569 1_455
Mn2 O10 1.961563 1_455
Mn2 O12 1.975626 1_555
Mn2 O13 2.002418 1_555
Mn2 O14 2.002422 1_555
Mn3 O1 1.917187 1_455
Mn3 O0 1.917187 1_545
Mn3 O7 1.917187 1_554
Mn3 O30 1.961036 1_544
Mn3 O31 1.961036 1_454
Mn3 O25 1.961036 1_445
Mn4 O6 1.858569 1_545
Mn4 O9 1.858569 1_545
Mn4 O10 1.961563 1_545
Mn4 O12 1.975626 1_555
Mn4 O13 2.002422 1_555
Mn4 O22 2.002431 1_555
Mn5 O5 1.870085 1_556
Mn5 O2 1.870085 1_655
Mn5 O3 1.959277 1_555
Mn5 O7 1.968758 1_655
Mn5 O1 1.968758 1_556
Mn5 O11 1.980730 1_656
Mn6 O9 1.858569 1_554
Mn6 O17 1.858569 1_554
Mn6 O10 1.961563 1_554
Mn6 O12 1.975626 1_555
Mn6 O14 2.002417 1_555
Mn6 O22 2.002430 1_555
Mn7 O8 1.932564 1_555
Mn7 O16 1.932564 1_555
Mn7 O18 1.932564 1_555
Mn7 O22 1.933196 1_555
Mn7 O14 1.933209 1_555
Mn7 O13 1.933209 1_555
Mn8 O24 1.858722 1_565
Mn8 O23 1.858722 1_565
Mn8 O21 1.960953 1_565
Mn8 O19 1.975604 1_555
Mn8 O18 2.003100 1_555
Mn8 O8 2.003100 1_555
Mn9 O15 1.858722 1_556
Mn9 O23 1.858722 1_556
Mn9 O21 1.960953 1_556
Mn9 O19 1.975604 1_555
Mn9 O16 2.003100 1_555
Mn9 O8 2.003100 1_555
Mn10 O26 1.869232 1_554
Mn10 O28 1.869232 1_455
Mn10 O29 1.936338 1_555
Mn10 O20 1.982621 1_454
Mn10 O25 1.988323 1_455
Mn10 O30 1.988323 1_554
Mn11 O26 1.869232 1_554
Mn11 O27 1.869232 1_545
Mn11 O29 1.936338 1_555
Mn11 O20 1.982621 1_544
Mn11 O25 1.988323 1_545
Mn11 O31 1.988323 1_554
Mn12 O24 1.858722 1_655
Mn12 O15 1.858722 1_655
Mn12 O21 1.960953 1_655
Mn12 O19 1.975604 1_555
Mn12 O18 2.003100 1_555
Mn12 O16 2.003100 1_555
Mn13 O28 1.869232 1_455
Mn13 O27 1.869232 1_545
Mn13 O29 1.936338 1_555
Mn13 O20 1.982622 1_445
Mn13 O31 1.988323 1_455
Mn13 O30 1.988323 1_545
