# generated using pymatgen
data_Li4V3Co3(TeO8)2
_symmetry_space_group_name_H-M   'P 1'
_cell_length_a   5.89091000
_cell_length_b   6.04744769
_cell_length_c   10.28429231
_cell_angle_alpha   89.92804704
_cell_angle_beta   90.18986104
_cell_angle_gamma   119.06822630
_symmetry_Int_Tables_number   1
_chemical_formula_structural   Li4V3Co3(TeO8)2
_chemical_formula_sum   'Li4 V3 Co3 Te2 O16'
_cell_volume   320.22755361
_cell_formula_units_Z   1
loop_
 _symmetry_equiv_pos_site_id
 _symmetry_equiv_pos_as_xyz
  1  'x, y, z'
loop_
 _atom_site_type_symbol
 _atom_site_label
 _atom_site_symmetry_multiplicity
 _atom_site_fract_x
 _atom_site_fract_y
 _atom_site_fract_z
 _atom_site_occupancy
  Li  Li0  1  0.65905300  0.32736800  0.90237800  1
  Li  Li1  1  0.99958200  0.99633400  0.99573700  1
  Li  Li2  1  0.99446300  0.98590900  0.48502900  1
  Li  Li3  1  0.34176900  0.68495300  0.40565200  1
  V  V0  1  0.82059200  0.64072200  0.23491700  1
  V  V1  1  0.15713900  0.80162900  0.72059700  1
  V  V2  1  0.65857600  0.81451200  0.72186800  1
  Co  Co0  1  0.34297400  0.17103500  0.21572500  1
  Co  Co1  1  0.82783600  0.17131500  0.21537500  1
  Co  Co2  1  0.16898100  0.33245900  0.70549000  1
  Te  Te0  1  0.64603700  0.29267000  0.49751000  1
  Te  Te1  1  0.32923200  0.66138300  0.01431600  1
  O  O0  1  0.31698200  0.14303000  0.59084000  1
  O  O1  1  0.52304000  0.04387300  0.35515600  1
  O  O2  1  0.68992900  0.38042400  0.11056200  1
  O  O3  1  0.98476100  0.97044600  0.30007200  1
  O  O4  1  0.00612600  0.99211800  0.80783000  1
  O  O5  1  0.81951000  0.13311700  0.59515900  1
  O  O6  1  0.53282600  0.51646900  0.33202500  1
  O  O7  1  0.98519700  0.51728500  0.33106800  1
  O  O8  1  0.16307600  0.32636200  0.09553400  1
  O  O9  1  0.86870100  0.71332500  0.61096500  1
  O  O10  1  0.01273500  0.52829000  0.81780300  1
  O  O11  1  0.51639800  0.53081500  0.81334300  1
  O  O12  1  0.33195300  0.68936300  0.60805800  1
  O  O13  1  0.16407700  0.83123500  0.10387100  1
  O  O14  1  0.47159000  0.97245100  0.81879500  1
  O  O15  1  0.66656500  0.83110700  0.10216600  1
loop_
_geom_bond_atom_site_label_1
_geom_bond_atom_site_label_2
_geom_bond_distance
_geom_bond_site_symmetry_2
Li0 O11 2.013734 1_555
Li0 O10 2.030599 1_655
Li0 O14 2.064068 1_545
Li0 O2 2.159272 1_556
Li1 O4 1.933450 1_655
Li1 O8 2.023628 1_666
Li1 O13 2.025533 1_656
Li1 O15 2.037582 1_556
Li2 O3 1.903871 1_555
Li2 O9 1.938546 1_555
Li2 O0 1.982787 1_665
Li2 O5 2.009808 1_565
Li3 O1 1.967204 1_565
Li3 O7 1.987562 1_455
Li3 O6 2.000040 1_555
Li3 O12 2.083161 1_555
Co0 O3 2.049159 1_445
Co0 O2 2.108775 1_555
Co0 O8 2.118734 1_555
Co0 O13 2.133118 1_545
Co0 O1 2.133674 1_555
Co0 O6 2.184600 1_555
Co1 O3 2.042567 1_545
Co1 O2 2.100026 1_555
Co1 O8 2.124193 1_655
Co1 O1 2.134036 1_555
Co1 O15 2.142513 1_545
Co1 O7 2.183295 1_555
Co2 O4 2.084912 1_545
Co2 O0 2.107944 1_555
Co2 O11 2.112007 1_555
Co2 O5 2.134338 1_455
Co2 O12 2.138153 1_555
Co2 O10 2.157209 1_555
O0 Te0 1.950216 1_555
O0 V1 2.245522 1_545
O1 Te0 1.967558 1_555
O2 V0 1.878070 1_555
O3 V0 1.866954 1_555
O4 V1 1.981656 1_555
O4 V2 1.995133 1_455
O5 Te0 1.983112 1_555
O5 V2 2.129830 1_545
O6 V0 1.790893 1_555
O6 Te0 2.456973 1_555
O7 V0 1.780578 1_555
O7 Te0 2.479255 1_555
O8 Te1 1.958240 1_555
O9 V1 1.884322 1_655
O9 V2 1.988636 1_555
O9 Te0 2.511629 1_555
O10 V1 1.758001 1_555
O10 Te1 2.594104 1_556
O11 V2 1.770547 1_555
O11 Te1 2.641259 1_556
O12 V1 1.884208 1_555
O12 V2 2.053589 1_555
O13 Te1 1.956855 1_555
O13 V0 2.233142 1_455
O14 V1 1.910295 1_555
O14 V2 2.037464 1_555
O14 Te1 2.598866 1_556
O15 Te1 1.956326 1_555
O15 V0 2.239590 1_555
