# generated using pymatgen
data_LiMnPH2O5
_symmetry_space_group_name_H-M   'P 1'
_cell_length_a   4.85517901
_cell_length_b   5.65304201
_cell_length_c   8.35670701
_cell_angle_alpha   89.99643971
_cell_angle_beta   90.00447561
_cell_angle_gamma   90.00440456
_symmetry_Int_Tables_number   1
_chemical_formula_structural   LiMnPH2O5
_chemical_formula_sum   'Li2 Mn2 P2 H4 O10'
_cell_volume   229.36261519
_cell_formula_units_Z   2
loop_
 _symmetry_equiv_pos_site_id
 _symmetry_equiv_pos_as_xyz
  1  'x, y, z'
loop_
 _atom_site_type_symbol
 _atom_site_label
 _atom_site_symmetry_multiplicity
 _atom_site_fract_x
 _atom_site_fract_y
 _atom_site_fract_z
 _atom_site_occupancy
  Li  Li0  1  0.48506300  0.00002500  0.56728200  1
  Li  Li1  1  0.98500400  0.50007500  0.43273000  1
  Mn  Mn0  1  0.12281400  0.49998700  0.01959600  1
  Mn  Mn1  1  0.62335000  0.00002400  0.98030100  1
  P  P0  1  0.19302700  0.99999100  0.22292500  1
  P  P1  1  0.69279000  0.49999600  0.77698900  1
  H  H0  1  0.16456000  0.13830200  0.78623100  1
  H  H1  1  0.66429300  0.36171800  0.21381000  1
  H  H2  1  0.66433100  0.63829200  0.21380500  1
  H  H3  1  0.16450300  0.86170800  0.78623900  1
  O  O0  1  0.23889700  0.99992900  0.40375400  1
  O  O1  1  0.73893700  0.49995000  0.59619500  1
  O  O2  1  0.88479900  0.00000200  0.18290100  1
  O  O3  1  0.38464500  0.49999700  0.81730300  1
  O  O4  1  0.28950200  0.99999800  0.77360100  1
  O  O5  1  0.78931300  0.50000200  0.22637400  1
  O  O6  1  0.33782200  0.22019200  0.14090000  1
  O  O7  1  0.83789800  0.28000100  0.85910900  1
  O  O8  1  0.83793200  0.72000700  0.85907300  1
  O  O9  1  0.33776900  0.77980600  0.14088100  1
loop_
_geom_bond_atom_site_label_1
_geom_bond_atom_site_label_2
_geom_bond_distance
_geom_bond_site_symmetry_2
Li0 O0 1.815399 1_545
Li0 O4 1.968365 1_545
Li1 O1 1.814827 1_555
Li1 O5 1.968810 1_555
Mn0 O3 2.115226 1_554
Mn0 O9 2.149052 1_555
Mn0 O6 2.149178 1_555
Mn0 O7 2.293121 1_454
Mn0 O8 2.293326 1_454
Mn0 O5 2.368163 1_455
Mn1 O2 2.116005 1_556
Mn1 O7 2.148369 1_555
Mn1 O8 2.148968 1_545
Mn1 O6 2.296261 1_556
Mn1 O9 2.296271 1_546
Mn1 O4 2.368655 1_545
H0 O4 0.995232 1_545
H1 O5 0.995232 1_555
H2 O5 0.995214 1_555
H3 O4 0.995262 1_555
O0 P0 1.527441 1_555
O1 P1 1.527383 1_555
O2 P0 1.533398 1_645
O3 P1 1.533587 1_555
O6 P0 1.585385 1_545
O7 P1 1.585527 1_555
O8 P1 1.585523 1_555
O9 P0 1.585421 1_555
