# generated using pymatgen
data_VOF
_symmetry_space_group_name_H-M   'P 1'
_cell_length_a   4.65302000
_cell_length_b   10.55471637
_cell_length_c   5.66199515
_cell_angle_alpha   83.63060821
_cell_angle_beta   90.00235914
_cell_angle_gamma   89.99588036
_symmetry_Int_Tables_number   1
_chemical_formula_structural   VOF
_chemical_formula_sum   'V8 O8 F8'
_cell_volume   276.35155488
_cell_formula_units_Z   8
loop_
 _symmetry_equiv_pos_site_id
 _symmetry_equiv_pos_as_xyz
  1  'x, y, z'
loop_
 _atom_site_type_symbol
 _atom_site_label
 _atom_site_symmetry_multiplicity
 _atom_site_fract_x
 _atom_site_fract_y
 _atom_site_fract_z
 _atom_site_occupancy
  V  V0  1  0.52220000  0.98673700  0.50362300  1
  V  V1  1  0.02176000  0.76424100  0.74472900  1
  V  V2  1  0.97905900  0.23755300  0.25240800  1
  V  V3  1  0.02117400  0.01281800  0.99756900  1
  V  V4  1  0.47821500  0.26404500  0.74471700  1
  V  V5  1  0.97789200  0.48663000  0.50384200  1
  V  V6  1  0.52097000  0.73760700  0.25243300  1
  V  V7  1  0.47879800  0.51274400  0.99764700  1
  O  O0  1  0.80107100  0.31793700  0.52376500  1
  O  O1  1  0.69880700  0.81806300  0.52385900  1
  O  O2  1  0.30210700  0.43112500  0.72629300  1
  O  O3  1  0.19792700  0.93127600  0.72618500  1
  O  O4  1  0.79177500  0.07006000  0.26477200  1
  O  O5  1  0.70812900  0.57006700  0.26499900  1
  O  O6  1  0.29322900  0.67924900  0.98641400  1
  O  O7  1  0.20683800  0.17917200  0.98638300  1
  F  F0  1  0.80153800  0.58249500  0.77091000  1
  F  F1  1  0.69849800  0.08255600  0.77073600  1
  F  F2  1  0.29882300  0.16726500  0.47982700  1
  F  F3  1  0.20111000  0.66727600  0.47994100  1
  F  F4  1  0.80186900  0.83521500  0.02140400  1
  F  F5  1  0.69824200  0.33508100  0.02129800  1
  F  F6  1  0.30286500  0.91546200  0.22809300  1
  F  F7  1  0.19710400  0.41532700  0.22815400  1
loop_
_geom_bond_atom_site_label_1
_geom_bond_atom_site_label_2
_geom_bond_distance
_geom_bond_site_symmetry_2
O0 V5 1.953332 1_555
O0 V4 1.996944 1_555
O0 V2 2.013837 1_555
O1 V0 1.952543 1_555
O1 V1 1.996709 1_655
O1 V6 2.014248 1_555
O2 V4 1.936799 1_555
O2 V5 2.010323 1_455
O2 V7 2.017982 1_555
O3 V1 1.936565 1_555
O3 V0 2.010937 1_555
O3 V3 2.017823 1_565
O4 V2 1.965282 1_555
O4 V0 1.977908 1_545
O4 V3 1.999021 1_654
O5 V6 1.965280 1_555
O5 V5 1.978728 1_555
O5 V7 1.999829 1_554
O6 V7 1.952711 1_555
O6 V6 1.994183 1_556
O6 V1 2.000044 1_555
O7 V3 1.951610 1_555
O7 V2 1.994418 1_456
O7 V4 1.999391 1_555
F0 V7 2.058121 1_555
F0 V5 2.079222 1_555
F0 V1 2.165403 1_655
F1 V3 2.058027 1_655
F1 V0 2.079051 1_545
F1 V4 2.163047 1_555
F2 V2 2.051801 1_455
F2 V4 2.080754 1_555
F2 V0 2.161443 1_545
F3 V6 2.052707 1_555
F3 V1 2.081334 1_555
F3 V5 2.162293 1_455
F4 V6 2.045019 1_555
F4 V1 2.079047 1_654
F4 V3 2.125461 1_664
F5 V2 2.044514 1_555
F5 V4 2.079216 1_554
F5 V7 2.126227 1_554
F6 V3 2.044397 1_564
F6 V0 2.074037 1_555
F6 V6 2.124885 1_555
F7 V7 2.044792 1_554
F7 V5 2.074606 1_455
F7 V2 2.124153 1_455
