# generated using pymatgen
data_LiCuPO4
_symmetry_space_group_name_H-M   'P 1'
_cell_length_a   4.79814700
_cell_length_b   6.17298000
_cell_length_c   10.30721200
_cell_angle_alpha   90.00000000
_cell_angle_beta   90.00000000
_cell_angle_gamma   90.00000000
_symmetry_Int_Tables_number   1
_chemical_formula_structural   LiCuPO4
_chemical_formula_sum   'Li4 Cu4 P4 O16'
_cell_volume   305.28792558
_cell_formula_units_Z   4
loop_
 _symmetry_equiv_pos_site_id
 _symmetry_equiv_pos_as_xyz
  1  'x, y, z'
loop_
 _atom_site_type_symbol
 _atom_site_label
 _atom_site_symmetry_multiplicity
 _atom_site_fract_x
 _atom_site_fract_y
 _atom_site_fract_z
 _atom_site_occupancy
  Li  Li0  1  0.46466100  0.75000000  0.21822000  1
  Li  Li1  1  0.96466100  0.25000000  0.28178000  1
  Li  Li2  1  0.03533900  0.75000000  0.71822000  1
  Li  Li3  1  0.53533900  0.25000000  0.78178000  1
  Cu  Cu0  1  0.00000000  0.00000000  0.00000000  1
  Cu  Cu1  1  0.00000000  0.50000000  0.00000000  1
  Cu  Cu2  1  0.50000000  0.00000000  0.50000000  1
  Cu  Cu3  1  0.50000000  0.50000000  0.50000000  1
  P  P0  1  0.39373600  0.25000000  0.09584000  1
  P  P1  1  0.89373600  0.75000000  0.40416000  1
  P  P2  1  0.10626400  0.25000000  0.59584000  1
  P  P3  1  0.60626400  0.75000000  0.90416000  1
  O  O0  1  0.73550600  0.75000000  0.04802300  1
  O  O1  1  0.71128600  0.25000000  0.10043700  1
  O  O2  1  0.26073900  0.04201500  0.15509500  1
  O  O3  1  0.26073900  0.45798500  0.15509500  1
  O  O4  1  0.76073900  0.54201500  0.34490500  1
  O  O5  1  0.76073900  0.95798500  0.34490500  1
  O  O6  1  0.21128600  0.75000000  0.39956300  1
  O  O7  1  0.23550600  0.25000000  0.45197700  1
  O  O8  1  0.76449400  0.75000000  0.54802300  1
  O  O9  1  0.78871400  0.25000000  0.60043700  1
  O  O10  1  0.23926100  0.04201500  0.65509500  1
  O  O11  1  0.23926100  0.45798500  0.65509500  1
  O  O12  1  0.73926100  0.54201500  0.84490500  1
  O  O13  1  0.73926100  0.95798500  0.84490500  1
  O  O14  1  0.28871400  0.75000000  0.89956300  1
  O  O15  1  0.26449400  0.25000000  0.95197700  1
loop_
_geom_bond_atom_site_label_1
_geom_bond_atom_site_label_2
_geom_bond_distance
_geom_bond_site_symmetry_2
Li0 O2 2.151760 1_565
Li0 O3 2.151760 1_555
Li0 O0 2.183176 1_555
Li0 O6 2.229728 1_555
Li0 O4 2.317666 1_555
Li0 O5 2.317666 1_555
Li1 O5 2.151760 1_545
Li1 O4 2.151760 1_555
Li1 O7 2.183176 1_655
Li1 O1 2.229728 1_555
Li1 O2 2.317666 1_655
Li1 O3 2.317666 1_655
Li2 O10 2.151760 1_565
Li2 O11 2.151760 1_555
Li2 O8 2.183176 1_455
Li2 O14 2.229728 1_555
Li2 O12 2.317666 1_455
Li2 O13 2.317666 1_455
Li3 O12 2.151760 1_555
Li3 O13 2.151760 1_545
Li3 O15 2.183176 1_555
Li3 O9 2.229728 1_555
Li3 O10 2.317666 1_555
Li3 O11 2.317666 1_555
Cu0 O2 2.046446 1_555
Cu0 O13 2.046446 1_444
Cu0 O0 2.058441 1_445
Cu0 O15 2.058441 1_554
Cu0 O1 2.317829 1_455
Cu0 O14 2.317829 1_544
Cu1 O3 2.046446 1_555
Cu1 O12 2.046446 1_454
Cu1 O15 2.058441 1_554
Cu1 O0 2.058441 1_455
Cu1 O1 2.317829 1_455
Cu1 O14 2.317829 1_554
Cu2 O10 2.046446 1_555
Cu2 O5 2.046446 1_545
Cu2 O7 2.058441 1_555
Cu2 O8 2.058441 1_545
Cu2 O9 2.317829 1_555
Cu2 O6 2.317829 1_545
Cu3 O11 2.046446 1_555
Cu3 O4 2.046446 1_555
Cu3 O7 2.058441 1_555
Cu3 O8 2.058441 1_555
Cu3 O9 2.317829 1_555
Cu3 O6 2.317829 1_555
O0 P3 1.607273 1_554
O1 P0 1.524388 1_555
O2 P0 1.558399 1_555
O3 P0 1.558399 1_555
O4 P1 1.558399 1_555
O5 P1 1.558399 1_555
O6 P1 1.524388 1_455
O7 P2 1.607273 1_555
O8 P1 1.607273 1_555
O9 P2 1.524388 1_655
O10 P2 1.558399 1_555
O11 P2 1.558399 1_555
O12 P3 1.558399 1_555
O13 P3 1.558399 1_555
O14 P3 1.524388 1_555
O15 P0 1.607273 1_556
