# generated using pymatgen
data_LiNiPO4
_symmetry_space_group_name_H-M   'P 1'
_cell_length_a   4.90977401
_cell_length_b   7.94524900
_cell_length_c   8.93915701
_cell_angle_alpha   89.99999994
_cell_angle_beta   89.99454819
_cell_angle_gamma   89.99767200
_symmetry_Int_Tables_number   1
_chemical_formula_structural   LiNiPO4
_chemical_formula_sum   'Li4 Ni4 P4 O16'
_cell_volume   348.71094422
_cell_formula_units_Z   4
loop_
 _symmetry_equiv_pos_site_id
 _symmetry_equiv_pos_as_xyz
  1  'x, y, z'
loop_
 _atom_site_type_symbol
 _atom_site_label
 _atom_site_symmetry_multiplicity
 _atom_site_fract_x
 _atom_site_fract_y
 _atom_site_fract_z
 _atom_site_occupancy
  Li  Li0  1  0.93305800  0.05121300  0.61394300  1
  Li  Li1  1  0.43304400  0.44877500  0.11395700  1
  Li  Li2  1  0.93306400  0.55133000  0.88608100  1
  Li  Li3  1  0.43306700  0.94865300  0.38606800  1
  Ni  Ni0  1  0.99802500  0.66657300  0.47425400  1
  Ni  Ni1  1  0.49785100  0.83353300  0.97422300  1
  Ni  Ni2  1  0.99801700  0.16666400  0.02572600  1
  Ni  Ni3  1  0.49806500  0.33332800  0.52572700  1
  P  P0  1  0.56240000  0.22283400  0.85727300  1
  P  P1  1  0.06243000  0.27716100  0.35728600  1
  P  P2  1  0.56233700  0.72274900  0.64273000  1
  P  P3  1  0.06228400  0.77723700  0.14271900  1
  O  O0  1  0.66995100  0.05613900  0.93137500  1
  O  O1  1  0.16998300  0.44385000  0.43138800  1
  O  O2  1  0.66998600  0.55605000  0.56868300  1
  O  O3  1  0.16991800  0.94395000  0.06868100  1
  O  O4  1  0.20404300  0.13872400  0.45656900  1
  O  O5  1  0.70400600  0.36125200  0.95657000  1
  O  O6  1  0.20404000  0.63886400  0.04340300  1
  O  O7  1  0.70403800  0.86114300  0.54341200  1
  O  O8  1  0.25119100  0.24078200  0.85962900  1
  O  O9  1  0.75122100  0.25920800  0.35964300  1
  O  O10  1  0.25110300  0.74069200  0.64035800  1
  O  O11  1  0.75107200  0.75931200  0.14031700  1
  O  O12  1  0.67351200  0.22044100  0.69528000  1
  O  O13  1  0.17350600  0.27954600  0.19528100  1
  O  O14  1  0.67339300  0.72046000  0.80472200  1
  O  O15  1  0.17339400  0.77953600  0.30470300  1
loop_
_geom_bond_atom_site_label_1
_geom_bond_atom_site_label_2
_geom_bond_distance
_geom_bond_site_symmetry_2
Li0 O7 1.985625 1_545
Li0 O12 1.989986 1_555
Li0 O4 2.057275 1_655
Li1 O6 1.985692 1_555
Li1 O13 1.989994 1_555
Li1 O5 2.057277 1_554
Li2 O5 1.985592 1_555
Li2 O14 1.990014 1_555
Li2 O6 2.057164 1_656
Li3 O4 1.985420 1_565
Li3 O15 1.990040 1_555
Li3 O7 2.057181 1_555
Ni0 O15 1.960584 1_655
Ni0 O1 1.997723 1_655
Ni0 O2 2.019289 1_555
Ni0 O10 2.023826 1_655
Ni0 O7 2.203429 1_555
Ni1 O14 1.960979 1_555
Ni1 O0 1.997224 1_565
Ni1 O3 2.018559 1_556
Ni1 O11 2.024398 1_556
Ni1 O6 2.203552 1_556
Ni2 O13 1.960702 1_655
Ni2 O3 1.997725 1_645
Ni2 O0 2.019238 1_554
Ni2 O8 2.023893 1_654
Ni2 O5 2.203678 1_554
Ni3 O12 1.960584 1_555
Ni3 O2 1.997885 1_555
Ni3 O1 2.019189 1_555
Ni3 O9 2.023729 1_555
Ni3 O4 2.203890 1_555
O0 P0 1.572182 1_555
O1 P1 1.572182 1_555
O2 P2 1.572121 1_555
O3 P3 1.572193 1_555
O4 P1 1.575108 1_555
O5 P0 1.575097 1_555
O6 P3 1.575154 1_555
O7 P2 1.575201 1_555
O8 P0 1.534742 1_555
O9 P1 1.534758 1_655
O10 P2 1.534867 1_555
O11 P3 1.534761 1_655
O12 P0 1.547500 1_555
O13 P1 1.547538 1_555
O14 P2 1.547482 1_555
O15 P3 1.547510 1_555
