# generated using pymatgen
data_LiNi2(CO4)2
_symmetry_space_group_name_H-M   'P 1'
_cell_length_a   8.54457300
_cell_length_b   6.40357400
_cell_length_c   11.39546200
_cell_angle_alpha   56.75839064
_cell_angle_beta   90.00000000
_cell_angle_gamma   90.00000000
_symmetry_Int_Tables_number   1
_chemical_formula_structural   LiNi2(CO4)2
_chemical_formula_sum   'Li4 Ni8 C8 O32'
_cell_volume   521.48441421
_cell_formula_units_Z   4
loop_
 _symmetry_equiv_pos_site_id
 _symmetry_equiv_pos_as_xyz
  1  'x, y, z'
loop_
 _atom_site_type_symbol
 _atom_site_label
 _atom_site_symmetry_multiplicity
 _atom_site_fract_x
 _atom_site_fract_y
 _atom_site_fract_z
 _atom_site_occupancy
  Li  Li0  1  0.07434100  0.47216600  0.16769100  1
  Li  Li1  1  0.57434100  0.52783400  0.33230900  1
  Li  Li2  1  0.42565900  0.47216600  0.66769100  1
  Li  Li3  1  0.92565900  0.52783400  0.83230900  1
  Ni  Ni0  1  0.73158100  0.48790200  0.09158300  1
  Ni  Ni1  1  0.72951600  0.98499500  0.09263300  1
  Ni  Ni2  1  0.23158100  0.51209800  0.40841700  1
  Ni  Ni3  1  0.22951600  0.01500500  0.40736700  1
  Ni  Ni4  1  0.77048400  0.98499500  0.59263300  1
  Ni  Ni5  1  0.76841900  0.48790200  0.59158300  1
  Ni  Ni6  1  0.27048400  0.01500500  0.90736700  1
  Ni  Ni7  1  0.26841900  0.51209800  0.90841700  1
  C  C0  1  0.38413500  0.48248400  0.16314300  1
  C  C1  1  0.37510600  0.97217200  0.16599200  1
  C  C2  1  0.88413500  0.51751600  0.33685700  1
  C  C3  1  0.87510600  0.02782800  0.33400800  1
  C  C4  1  0.12489400  0.97217200  0.66599200  1
  C  C5  1  0.11586500  0.48248400  0.66314300  1
  C  C6  1  0.62489400  0.02782800  0.83400800  1
  C  C7  1  0.61586500  0.51751600  0.83685700  1
  O  O0  1  0.05071500  0.91570300  0.00852100  1
  O  O1  1  0.05576700  0.41194900  0.01073200  1
  O  O2  1  0.32997000  0.63346500  0.03648000  1
  O  O3  1  0.32358400  0.13686600  0.03992800  1
  O  O4  1  0.52540700  0.41631800  0.19173200  1
  O  O5  1  0.51139800  0.87723000  0.18497800  1
  O  O6  1  0.28178600  0.39274900  0.26704500  1
  O  O7  1  0.28143800  0.89128000  0.27370900  1
  O  O8  1  0.78178600  0.60725100  0.23295500  1
  O  O9  1  0.78143800  0.10872000  0.22629100  1
  O  O10  1  0.02540700  0.58368200  0.30826800  1
  O  O11  1  0.01139800  0.12277000  0.31502200  1
  O  O12  1  0.82997000  0.36653500  0.46352000  1
  O  O13  1  0.82358400  0.86313400  0.46007200  1
  O  O14  1  0.55576700  0.58805100  0.48926800  1
  O  O15  1  0.55071500  0.08429700  0.49147900  1
  O  O16  1  0.44423300  0.41194900  0.51073200  1
  O  O17  1  0.44928500  0.91570300  0.50852100  1
  O  O18  1  0.17641600  0.13686600  0.53992800  1
  O  O19  1  0.17003000  0.63346500  0.53648000  1
  O  O20  1  0.98860200  0.87723000  0.68497800  1
  O  O21  1  0.97459300  0.41631800  0.69173200  1
  O  O22  1  0.21856200  0.89128000  0.77370900  1
  O  O23  1  0.21821400  0.39274900  0.76704500  1
  O  O24  1  0.71856200  0.10872000  0.72629100  1
  O  O25  1  0.71821400  0.60725100  0.73295500  1
  O  O26  1  0.48860200  0.12277000  0.81502200  1
  O  O27  1  0.47459300  0.58368200  0.80826800  1
  O  O28  1  0.67641600  0.86313400  0.96007200  1
  O  O29  1  0.67003000  0.36653500  0.96352000  1
  O  O30  1  0.94423300  0.58805100  0.98926800  1
  O  O31  1  0.94928500  0.08429700  0.99147900  1
loop_
_geom_bond_atom_site_label_1
_geom_bond_atom_site_label_2
_geom_bond_distance
_geom_bond_site_symmetry_2
Li0 O11 1.998902 1_555
Li0 O6 2.012730 1_555
Li0 O1 2.032040 1_555
Li0 O30 2.065523 1_454
Li0 O10 2.122530 1_555
Li0 O0 2.397829 1_555
Li0 O2 2.525915 1_555
Li1 O5 1.998902 1_555
Li1 O8 2.012730 1_555
Li1 O14 2.032040 1_555
Li1 O16 2.065523 1_555
Li1 O4 2.122530 1_555
Li1 O15 2.397829 1_555
Li1 O12 2.525915 1_555
Li2 O26 1.998902 1_555
Li2 O23 2.012730 1_555
Li2 O16 2.032040 1_555
Li2 O14 2.065523 1_555
Li2 O27 2.122530 1_555
Li2 O17 2.397829 1_555
Li2 O19 2.525915 1_555
Li3 O20 1.998902 1_555
Li3 O25 2.012730 1_555
Li3 O30 2.032040 1_555
Li3 O1 2.065523 1_656
Li3 O21 2.122530 1_555
Li3 O31 2.397829 1_555
Li3 O29 2.525915 1_555
Ni0 O4 2.010597 1_555
Ni0 O30 2.062152 1_554
Ni0 O29 2.062454 1_554
Ni0 O28 2.072143 1_554
Ni0 O9 2.085007 1_555
Ni0 O8 2.171008 1_555
Ni1 O5 2.064196 1_555
Ni1 O8 2.089726 1_555
Ni1 O28 2.095005 1_554
Ni1 O29 2.109827 1_564
Ni1 O31 2.110856 1_564
Ni1 O9 2.113607 1_565
Ni2 O10 2.010597 1_555
Ni2 O16 2.062152 1_555
Ni2 O19 2.062454 1_555
Ni2 O18 2.072143 1_555
Ni2 O7 2.085007 1_555
Ni2 O6 2.171008 1_555
Ni3 O11 2.064196 1_555
Ni3 O6 2.089726 1_555
Ni3 O18 2.095005 1_555
Ni3 O19 2.109827 1_545
Ni3 O17 2.110856 1_545
Ni3 O7 2.113607 1_545
Ni4 O20 2.064196 1_555
Ni4 O25 2.089726 1_555
Ni4 O13 2.095005 1_555
Ni4 O12 2.109827 1_565
Ni4 O15 2.110856 1_565
Ni4 O24 2.113607 1_565
Ni5 O21 2.010597 1_555
Ni5 O14 2.062152 1_555
Ni5 O12 2.062454 1_555
Ni5 O13 2.072143 1_555
Ni5 O24 2.085007 1_555
Ni5 O25 2.171008 1_555
Ni6 O26 2.064196 1_555
Ni6 O23 2.089726 1_555
Ni6 O3 2.095005 1_556
Ni6 O2 2.109827 1_546
Ni6 O0 2.110856 1_546
Ni6 O22 2.113607 1_545
Ni7 O27 2.010597 1_555
Ni7 O1 2.062152 1_556
Ni7 O2 2.062454 1_556
Ni7 O3 2.072143 1_556
Ni7 O22 2.085007 1_555
Ni7 O23 2.171008 1_555
C0 O4 1.261521 1_555
C0 O2 1.304745 1_555
C0 O6 1.323241 1_555
C1 O5 1.276095 1_555
C1 O3 1.307192 1_565
C1 O7 1.310921 1_555
C2 O10 1.261521 1_655
C2 O12 1.304745 1_555
C2 O8 1.323241 1_555
C3 O11 1.276095 1_655
C3 O13 1.307192 1_545
C3 O9 1.310921 1_555
C4 O20 1.276095 1_455
C4 O18 1.307192 1_565
C4 O22 1.310921 1_555
C5 O21 1.261521 1_455
C5 O19 1.304745 1_555
C5 O23 1.323241 1_555
C6 O26 1.276095 1_555
C6 O28 1.307192 1_545
C6 O24 1.310921 1_555
C7 O27 1.261521 1_555
C7 O29 1.304745 1_555
C7 O25 1.323241 1_555
O0 O31 1.313212 1_464
O1 O30 1.391879 1_454
O14 O16 1.391879 1_555
O15 O17 1.313212 1_545
