# generated using pymatgen
data_Li4Mn3V5O16
_symmetry_space_group_name_H-M   'P 1'
_cell_length_a   5.84253800
_cell_length_b   5.89691046
_cell_length_c   9.55766849
_cell_angle_alpha   91.58684124
_cell_angle_beta   90.49850525
_cell_angle_gamma   117.75813423
_symmetry_Int_Tables_number   1
_chemical_formula_structural   Li4Mn3V5O16
_chemical_formula_sum   'Li4 Mn3 V5 O16'
_cell_volume   291.19688942
_cell_formula_units_Z   1
loop_
 _symmetry_equiv_pos_site_id
 _symmetry_equiv_pos_as_xyz
  1  'x, y, z'
loop_
 _atom_site_type_symbol
 _atom_site_label
 _atom_site_symmetry_multiplicity
 _atom_site_fract_x
 _atom_site_fract_y
 _atom_site_fract_z
 _atom_site_occupancy
  Li  Li0  1  0.33919600  0.68316600  0.10404800  1
  Li  Li1  1  0.99913400  0.00370200  0.00690400  1
  Li  Li2  1  0.00363200  0.99325900  0.50645900  1
  Li  Li3  1  0.66911700  0.33259900  0.60145800  1
  Mn  Mn0  1  0.17057600  0.33726100  0.78839800  1
  Mn  Mn1  1  0.34221400  0.17364300  0.28590000  1
  Mn  Mn2  1  0.83246900  0.16792200  0.28823700  1
  V  V0  1  0.17233300  0.82753900  0.78339500  1
  V  V1  1  0.33431900  0.65428900  0.51255700  1
  V  V2  1  0.65776600  0.83259600  0.78840100  1
  V  V3  1  0.83672900  0.65975800  0.28441100  1
  V  V4  1  0.66752900  0.34810500  0.01188100  1
  O  O0  1  0.15839900  0.79631000  0.40911100  1
  O  O1  1  0.46716800  0.96119100  0.65780600  1
  O  O2  1  0.31896900  0.66849000  0.89573700  1
  O  O3  1  0.00433700  0.99844100  0.69448800  1
  O  O4  1  0.00131900  0.99611700  0.19489100  1
  O  O5  1  0.66565400  0.79885500  0.39970600  1
  O  O6  1  0.04032000  0.51801600  0.66035500  1
  O  O7  1  0.49191200  0.53577000  0.64833600  1
  O  O8  1  0.83196800  0.67218200  0.89735900  1
  O  O9  1  0.16542600  0.31557700  0.40753200  1
  O  O10  1  0.53519500  0.49987600  0.14539200  1
  O  O11  1  0.96756900  0.50604800  0.15560900  1
  O  O12  1  0.67063700  0.33662000  0.39060100  1
  O  O13  1  0.32536500  0.16994300  0.90508800  1
  O  O14  1  0.52577100  0.05202200  0.15765600  1
  O  O15  1  0.80467700  0.16070300  0.91044300  1
loop_
_geom_bond_atom_site_label_1
_geom_bond_atom_site_label_2
_geom_bond_distance
_geom_bond_site_symmetry_2
Li0 O10 1.950482 1_555
Li0 O14 1.975317 1_565
Li0 O2 1.990538 1_554
Li0 O11 1.995693 1_455
Li1 O4 1.798594 1_645
Li1 O13 1.971174 1_654
Li1 O8 1.990534 1_544
Li1 O15 2.001678 1_554
Li2 O3 1.796469 1_555
Li2 O9 1.960013 1_565
Li2 O0 1.991268 1_555
Li2 O5 2.011475 1_455
Li3 O7 1.960051 1_555
Li3 O6 1.987906 1_655
Li3 O12 2.016145 1_555
Li3 O1 2.036734 1_545
Mn0 O3 1.954185 1_545
Mn0 O13 1.977315 1_555
Mn0 O2 1.978739 1_555
Mn0 O6 2.006139 1_555
Mn0 O7 2.184130 1_555
Mn0 O15 2.247698 1_455
Mn1 O4 1.948493 1_545
Mn1 O12 1.949998 1_555
Mn1 O14 1.964048 1_555
Mn1 O9 1.972588 1_555
Mn1 O10 2.219144 1_555
Mn1 O0 2.330755 1_545
Mn2 O12 1.918107 1_555
Mn2 O4 1.921409 1_645
Mn2 O14 2.002175 1_555
Mn2 O9 2.042321 1_655
Mn2 O11 2.212896 1_555
Mn2 O5 2.234312 1_545
O0 V1 1.888202 1_555
O0 V3 2.024635 1_455
O1 V0 1.962915 1_555
O1 V2 2.046428 1_555
O1 V1 2.082929 1_555
O2 V0 1.885406 1_555
O2 V2 2.052586 1_555
O3 V0 1.911913 1_555
O3 V2 2.024305 1_455
O4 V3 1.980556 1_455
O5 V3 1.902339 1_555
O5 V1 2.046367 1_555
O6 V0 1.965525 1_555
O6 V1 2.100249 1_555
O7 V1 1.910283 1_555
O7 V2 2.015586 1_555
O8 V2 1.986981 1_555
O8 V4 2.048693 1_556
O8 V0 2.091938 1_655
O9 V1 2.001645 1_555
O10 V4 1.904091 1_555
O10 V3 2.025025 1_555
O11 V3 1.876546 1_555
O11 V4 2.047908 1_555
O12 V3 2.001146 1_555
O13 V4 2.022560 1_556
O13 V0 2.097457 1_545
O14 V4 2.117408 1_555
O15 V4 1.892686 1_556
O15 V2 2.037520 1_545
