# generated using pymatgen
data_LiFeSiO4
_symmetry_space_group_name_H-M   'P 1'
_cell_length_a   8.11741700
_cell_length_b   8.75019100
_cell_length_c   17.50153816
_cell_angle_alpha   60.34731375
_cell_angle_beta   90.00000000
_cell_angle_gamma   90.00000000
_symmetry_Int_Tables_number   1
_chemical_formula_structural   LiFeSiO4
_chemical_formula_sum   'Li12 Fe12 Si12 O48'
_cell_volume   1080.31785675
_cell_formula_units_Z   12
loop_
 _symmetry_equiv_pos_site_id
 _symmetry_equiv_pos_as_xyz
  1  'x, y, z'
loop_
 _atom_site_type_symbol
 _atom_site_label
 _atom_site_symmetry_multiplicity
 _atom_site_fract_x
 _atom_site_fract_y
 _atom_site_fract_z
 _atom_site_occupancy
  Li  Li0  1  0.99399100  0.26086200  0.94018700  1
  Li  Li1  1  0.01603600  0.63083000  0.58491400  1
  Li  Li2  1  0.84356700  0.00433500  0.24702700  1
  Li  Li3  1  0.34356700  0.99566500  0.25297300  1
  Li  Li4  1  0.51603600  0.36917000  0.91508600  1
  Li  Li5  1  0.49399100  0.73913800  0.55981300  1
  Li  Li6  1  0.50600900  0.26086200  0.44018700  1
  Li  Li7  1  0.48396400  0.63083000  0.08491400  1
  Li  Li8  1  0.65643300  0.00433500  0.74702700  1
  Li  Li9  1  0.15643300  0.99566500  0.75297300  1
  Li  Li10  1  0.98396400  0.36917000  0.41508600  1
  Li  Li11  1  0.00600900  0.73913800  0.05981300  1
  Fe  Fe0  1  0.65941100  0.64976100  0.40566800  1
  Fe  Fe1  1  0.83344800  0.31340400  0.76688700  1
  Fe  Fe2  1  0.66015300  0.02562900  0.07726600  1
  Fe  Fe3  1  0.16015300  0.97437100  0.42273400  1
  Fe  Fe4  1  0.33344800  0.68659600  0.73311300  1
  Fe  Fe5  1  0.15941100  0.35023900  0.09433200  1
  Fe  Fe6  1  0.84058900  0.64976100  0.90566800  1
  Fe  Fe7  1  0.66655200  0.31340400  0.26688700  1
  Fe  Fe8  1  0.83984700  0.02562900  0.57726600  1
  Fe  Fe9  1  0.33984700  0.97437100  0.92273400  1
  Fe  Fe10  1  0.16655200  0.68659600  0.23311300  1
  Fe  Fe11  1  0.34058900  0.35023900  0.59433200  1
  Si  Si0  1  0.26314300  0.63847600  0.41168900  1
  Si  Si1  1  0.21856400  0.31346900  0.77146000  1
  Si  Si2  1  0.27015400  0.03791300  0.07178000  1
  Si  Si3  1  0.77015400  0.96208700  0.42822000  1
  Si  Si4  1  0.71856400  0.68653100  0.72854000  1
  Si  Si5  1  0.76314300  0.36152400  0.08831100  1
  Si  Si6  1  0.23685700  0.63847600  0.91168900  1
  Si  Si7  1  0.28143600  0.31346900  0.27146000  1
  Si  Si8  1  0.22984600  0.03791300  0.57178000  1
  Si  Si9  1  0.72984600  0.96208700  0.92822000  1
  Si  Si10  1  0.78143600  0.68653100  0.22854000  1
  Si  Si11  1  0.73685700  0.36152400  0.58831100  1
  O  O0  1  0.55390300  0.42960400  0.60066100  1
  O  O1  1  0.86808200  0.41569900  0.64332500  1
  O  O2  1  0.78504200  0.08003200  0.97405600  1
  O  O3  1  0.04063700  0.26229300  0.82443900  1
  O  O4  1  0.35972200  0.22220800  0.84876600  1
  O  O5  1  0.76808800  0.77164500  0.29438400  1
  O  O6  1  0.21398000  0.55106200  0.51621500  1
  O  O7  1  0.28034800  0.90622300  0.17936600  1
  O  O8  1  0.45131900  0.13257800  0.03472600  1
  O  O9  1  0.23109200  0.52675000  0.70649200  1
  O  O10  1  0.26296900  0.85503800  0.36863200  1
  O  O11  1  0.13535800  0.19592200  0.04687000  1
  O  O12  1  0.63535800  0.80407800  0.45313000  1
  O  O13  1  0.76296900  0.14496200  0.13136800  1
  O  O14  1  0.73109200  0.47325000  0.79350800  1
  O  O15  1  0.95131900  0.86742200  0.46527400  1
  O  O16  1  0.78034800  0.09377700  0.32063400  1
  O  O17  1  0.71398000  0.44893800  0.98378500  1
  O  O18  1  0.85972200  0.77779200  0.65123400  1
  O  O19  1  0.26808800  0.22835500  0.20561600  1
  O  O20  1  0.54063700  0.73770700  0.67556100  1
  O  O21  1  0.28504200  0.91996800  0.52594400  1
  O  O22  1  0.36808200  0.58430100  0.85667500  1
  O  O23  1  0.05390300  0.57039600  0.89933900  1
  O  O24  1  0.94609700  0.42960400  0.10066100  1
  O  O25  1  0.63191800  0.41569900  0.14332500  1
  O  O26  1  0.71495800  0.08003200  0.47405600  1
  O  O27  1  0.45936300  0.26229300  0.32443900  1
  O  O28  1  0.73191200  0.77164500  0.79438400  1
  O  O29  1  0.14027800  0.22220800  0.34876600  1
  O  O30  1  0.28602000  0.55106200  0.01621500  1
  O  O31  1  0.21965200  0.90622300  0.67936600  1
  O  O32  1  0.04868100  0.13257800  0.53472600  1
  O  O33  1  0.26890800  0.52675000  0.20649200  1
  O  O34  1  0.23703100  0.85503800  0.86863200  1
  O  O35  1  0.36464200  0.19592200  0.54687000  1
  O  O36  1  0.86464200  0.80407800  0.95313000  1
  O  O37  1  0.73703100  0.14496200  0.63136800  1
  O  O38  1  0.76890800  0.47325000  0.29350800  1
  O  O39  1  0.54868100  0.86742200  0.96527400  1
  O  O40  1  0.71965200  0.09377700  0.82063400  1
  O  O41  1  0.78602000  0.44893800  0.48378500  1
  O  O42  1  0.23191200  0.22835500  0.70561600  1
  O  O43  1  0.64027800  0.77779200  0.15123400  1
  O  O44  1  0.95936300  0.73770700  0.17556100  1
  O  O45  1  0.21495800  0.91996800  0.02594400  1
  O  O46  1  0.13191800  0.58430100  0.35667500  1
  O  O47  1  0.44609700  0.57039600  0.39933900  1
loop_
_geom_bond_atom_site_label_1
_geom_bond_atom_site_label_2
_geom_bond_distance
_geom_bond_site_symmetry_2
Li0 O11 2.018922 1_656
Li0 O3 2.054791 1_655
Li0 O2 2.191761 1_555
Li0 O23 2.483453 1_655
Li1 O1 2.031477 1_455
Li1 O15 2.157994 1_455
Li1 O6 2.311920 1_555
Li1 O18 2.467348 1_455
Li1 O9 2.546953 1_555
Li2 O16 1.879636 1_555
Li2 O5 1.881002 1_545
Li2 O13 1.890770 1_555
Li3 O7 1.879636 1_555
Li3 O19 1.881002 1_565
Li3 O10 1.890770 1_555
Li4 O22 2.031477 1_555
Li4 O8 2.157994 1_556
Li4 O17 2.311920 1_555
Li4 O4 2.467348 1_555
Li4 O14 2.546953 1_555
Li5 O12 2.018922 1_555
Li5 O20 2.054791 1_555
Li5 O21 2.191761 1_555
Li5 O0 2.483453 1_555
Li6 O35 2.018922 1_555
Li6 O27 2.054791 1_555
Li6 O26 2.191761 1_555
Li6 O47 2.483453 1_555
Li7 O25 2.031477 1_555
Li7 O39 2.157994 1_554
Li7 O30 2.311920 1_555
Li7 O43 2.467348 1_555
Li7 O33 2.546953 1_555
Li8 O40 1.879636 1_555
Li8 O28 1.881002 1_545
Li8 O37 1.890770 1_555
Li9 O31 1.879636 1_555
Li9 O42 1.881002 1_565
Li9 O34 1.890770 1_555
Li10 O46 2.031477 1_655
Li10 O32 2.157994 1_655
Li10 O41 2.311920 1_555
Li10 O29 2.467348 1_655
Li10 O38 2.546953 1_555
Li11 O36 2.018922 1_454
Li11 O44 2.054791 1_455
Li11 O45 2.191761 1_555
Li11 O24 2.483453 1_455
Fe0 O47 1.889167 1_555
Fe0 O41 1.906859 1_555
Fe0 O5 1.911453 1_555
Fe0 O12 1.913446 1_555
Fe1 O14 1.873107 1_555
Fe1 O3 1.896685 1_655
Fe1 O1 1.908256 1_555
Fe1 O40 1.908566 1_555
Fe2 O8 1.901142 1_555
Fe2 O43 1.904454 1_545
Fe2 O13 1.913570 1_555
Fe2 O2 1.914773 1_554
Fe3 O15 1.901142 1_455
Fe3 O29 1.904454 1_565
Fe3 O10 1.913570 1_555
Fe3 O21 1.914773 1_555
Fe4 O9 1.873107 1_555
Fe4 O20 1.896685 1_555
Fe4 O22 1.908256 1_555
Fe4 O31 1.908566 1_555
Fe5 O24 1.889167 1_455
Fe5 O30 1.906859 1_555
Fe5 O19 1.911453 1_555
Fe5 O11 1.913446 1_555
Fe6 O23 1.889167 1_655
Fe6 O17 1.906859 1_555
Fe6 O28 1.911453 1_555
Fe6 O36 1.913446 1_555
Fe7 O38 1.873107 1_555
Fe7 O27 1.896685 1_555
Fe7 O25 1.908256 1_555
Fe7 O16 1.908566 1_555
Fe8 O32 1.901142 1_655
Fe8 O18 1.904454 1_545
Fe8 O37 1.913570 1_555
Fe8 O26 1.914773 1_555
Fe9 O39 1.901142 1_555
Fe9 O4 1.904454 1_565
Fe9 O34 1.913570 1_555
Fe9 O45 1.914773 1_556
Fe10 O33 1.873107 1_555
Fe10 O44 1.896685 1_455
Fe10 O46 1.908256 1_555
Fe10 O7 1.908566 1_555
Fe11 O0 1.889167 1_555
Fe11 O6 1.906859 1_555
Fe11 O42 1.911453 1_555
Fe11 O35 1.913446 1_555
O0 Si11 1.653651 1_555
O1 Si11 1.654704 1_555
O2 Si9 1.651841 1_545
O3 Si1 1.653915 1_555
O4 Si1 1.646849 1_555
O5 Si10 1.656379 1_555
O6 Si0 1.645099 1_555
O7 Si2 1.653230 1_565
O8 Si2 1.654633 1_555
O9 Si1 1.639026 1_555
O10 Si0 1.657038 1_555
O11 Si2 1.643931 1_555
O12 Si3 1.643931 1_555
O13 Si5 1.657038 1_555
O14 Si4 1.639026 1_555
O15 Si3 1.654633 1_555
O16 Si3 1.653230 1_545
O17 Si5 1.645099 1_556
O18 Si4 1.646849 1_555
O19 Si7 1.656379 1_555
O20 Si4 1.653915 1_555
O21 Si8 1.651841 1_565
O22 Si6 1.654704 1_555
O23 Si6 1.653651 1_555
O24 Si5 1.653651 1_555
O25 Si5 1.654704 1_555
O26 Si3 1.651841 1_545
O27 Si7 1.653915 1_555
O28 Si4 1.656379 1_555
O29 Si7 1.646849 1_555
O30 Si6 1.645099 1_554
O31 Si8 1.653230 1_565
O32 Si8 1.654633 1_555
O33 Si7 1.639026 1_555
O34 Si6 1.657038 1_555
O35 Si8 1.643931 1_555
O36 Si9 1.643931 1_555
O37 Si11 1.657038 1_555
O38 Si10 1.639026 1_555
O39 Si9 1.654633 1_555
O40 Si9 1.653230 1_545
O41 Si11 1.645099 1_555
O42 Si1 1.656379 1_555
O43 Si10 1.646849 1_555
O44 Si10 1.653915 1_555
O45 Si2 1.651841 1_565
O46 Si0 1.654704 1_555
O47 Si0 1.653651 1_555
