# generated using pymatgen
data_ZnH16C4S4(N5O3)2
_symmetry_space_group_name_H-M   'P 1'
_cell_length_a   8.88284200
_cell_length_b   9.91191600
_cell_length_c   23.88194100
_cell_angle_alpha   90.00000000
_cell_angle_beta   90.00000000
_cell_angle_gamma   90.00000000
_symmetry_Int_Tables_number   1
_chemical_formula_structural   ZnH16C4S4(N5O3)2
_chemical_formula_sum   'Zn4 H64 C16 S16 N40 O24'
_cell_volume   2102.70898909
_cell_formula_units_Z   4
loop_
 _symmetry_equiv_pos_site_id
 _symmetry_equiv_pos_as_xyz
  1  'x, y, z'
loop_
 _atom_site_type_symbol
 _atom_site_label
 _atom_site_symmetry_multiplicity
 _atom_site_fract_x
 _atom_site_fract_y
 _atom_site_fract_z
 _atom_site_occupancy
  Zn  Zn0  1  0.25000000  0.25000000  0.52191800  1
  Zn  Zn1  1  0.75000000  0.75000000  0.97808200  1
  Zn  Zn2  1  0.75000000  0.75000000  0.47808200  1
  Zn  Zn3  1  0.25000000  0.25000000  0.02191800  1
  H  H0  1  0.21367900  0.88678100  0.30831400  1
  H  H1  1  0.28632100  0.61321900  0.30831400  1
  H  H2  1  0.71367900  0.11321900  0.19168600  1
  H  H3  1  0.78632100  0.38678100  0.19168600  1
  H  H4  1  0.78632100  0.11321900  0.69168600  1
  H  H5  1  0.71367900  0.38678100  0.69168600  1
  H  H6  1  0.28632100  0.88678100  0.80831400  1
  H  H7  1  0.21367900  0.61321900  0.80831400  1
  H  H8  1  0.11050600  0.83836100  0.36829300  1
  H  H9  1  0.38949400  0.66163900  0.36829300  1
  H  H10  1  0.61050600  0.16163900  0.13170700  1
  H  H11  1  0.88949400  0.33836100  0.13170700  1
  H  H12  1  0.88949400  0.16163900  0.63170700  1
  H  H13  1  0.61050600  0.33836100  0.63170700  1
  H  H14  1  0.38949400  0.83836100  0.86829300  1
  H  H15  1  0.11050600  0.66163900  0.86829300  1
  H  H16  1  0.39854900  0.15796800  0.37428200  1
  H  H17  1  0.10145100  0.34203200  0.37428200  1
  H  H18  1  0.89854900  0.84203200  0.12571800  1
  H  H19  1  0.60145100  0.65796800  0.12571800  1
  H  H20  1  0.60145100  0.84203200  0.62571800  1
  H  H21  1  0.89854900  0.65796800  0.62571800  1
  H  H22  1  0.10145100  0.15796800  0.87428200  1
  H  H23  1  0.39854900  0.34203200  0.87428200  1
  H  H24  1  0.36576100  0.08074600  0.31063500  1
  H  H25  1  0.13423900  0.41925400  0.31063500  1
  H  H26  1  0.86576100  0.91925400  0.18936500  1
  H  H27  1  0.63423900  0.58074600  0.18936500  1
  H  H28  1  0.63423900  0.91925400  0.68936500  1
  H  H29  1  0.86576100  0.58074600  0.68936500  1
  H  H30  1  0.13423900  0.08074600  0.81063500  1
  H  H31  1  0.36576100  0.41925400  0.81063500  1
  H  H32  1  0.29528700  0.64232600  0.57835700  1
  H  H33  1  0.20471300  0.85767400  0.57835700  1
  H  H34  1  0.79528700  0.35767400  0.92164300  1
  H  H35  1  0.70471300  0.14232600  0.92164300  1
  H  H36  1  0.70471300  0.35767400  0.42164300  1
  H  H37  1  0.79528700  0.14232600  0.42164300  1
  H  H38  1  0.20471300  0.64232600  0.07835700  1
  H  H39  1  0.29528700  0.85767400  0.07835700  1
  H  H40  1  0.24570900  0.59801500  0.56072700  1
  H  H41  1  0.25429100  0.90198500  0.56072700  1
  H  H42  1  0.74570900  0.40198500  0.93927300  1
  H  H43  1  0.75429100  0.09801500  0.93927300  1
  H  H44  1  0.75429100  0.40198500  0.43927300  1
  H  H45  1  0.74570900  0.09801500  0.43927300  1
  H  H46  1  0.25429100  0.59801500  0.06072700  1
  H  H47  1  0.24570900  0.90198500  0.06072700  1
  H  H48  1  0.12080900  0.36646900  0.69910000  1
  H  H49  1  0.37919100  0.13353100  0.69910000  1
  H  H50  1  0.62080900  0.63353100  0.80090000  1
  H  H51  1  0.87919100  0.86646900  0.80090000  1
  H  H52  1  0.87919100  0.63353100  0.30090000  1
  H  H53  1  0.62080900  0.86646900  0.30090000  1
  H  H54  1  0.37919100  0.36646900  0.19910000  1
  H  H55  1  0.12080900  0.13353100  0.19910000  1
  H  H56  1  0.25656700  0.49417100  0.68464000  1
  H  H57  1  0.24343300  0.00582900  0.68464000  1
  H  H58  1  0.75656700  0.50582900  0.81536000  1
  H  H59  1  0.74343300  0.99417100  0.81536000  1
  H  H60  1  0.74343300  0.50582900  0.31536000  1
  H  H61  1  0.75656700  0.99417100  0.31536000  1
  H  H62  1  0.24343300  0.49417100  0.18464000  1
  H  H63  1  0.25656700  0.00582900  0.18464000  1
  C  C0  1  0.15755800  0.40299100  0.61693800  1
  C  C1  1  0.34244200  0.09700900  0.61693800  1
  C  C2  1  0.65755800  0.59700900  0.88306200  1
  C  C3  1  0.84244200  0.90299100  0.88306200  1
  C  C4  1  0.84244200  0.59700900  0.38306200  1
  C  C5  1  0.65755800  0.90299100  0.38306200  1
  C  C6  1  0.34244200  0.40299100  0.11693800  1
  C  C7  1  0.15755800  0.09700900  0.11693800  1
  C  C8  1  0.24690300  0.00250000  0.37817200  1
  C  C9  1  0.25309700  0.49750000  0.37817200  1
  C  C10  1  0.74690300  0.99750000  0.12182800  1
  C  C11  1  0.75309700  0.50250000  0.12182800  1
  C  C12  1  0.75309700  0.99750000  0.62182800  1
  C  C13  1  0.74690300  0.50250000  0.62182800  1
  C  C14  1  0.25309700  0.00250000  0.87817200  1
  C  C15  1  0.24690300  0.49750000  0.87817200  1
  S  S0  1  0.04136800  0.31889900  0.57707500  1
  S  S1  1  0.45863200  0.18110100  0.57707500  1
  S  S2  1  0.54136800  0.68110100  0.92292500  1
  S  S3  1  0.95863200  0.81889900  0.92292500  1
  S  S4  1  0.95863200  0.68110100  0.42292500  1
  S  S5  1  0.54136800  0.81889900  0.42292500  1
  S  S6  1  0.45863200  0.31889900  0.07707500  1
  S  S7  1  0.04136800  0.18110100  0.07707500  1
  S  S8  1  0.10785200  0.09363800  0.46777500  1
  S  S9  1  0.39214800  0.40636200  0.46777500  1
  S  S10  1  0.60785200  0.90636200  0.03222500  1
  S  S11  1  0.89214800  0.59363800  0.03222500  1
  S  S12  1  0.89214800  0.90636200  0.53222500  1
  S  S13  1  0.60785200  0.59363800  0.53222500  1
  S  S14  1  0.39214800  0.09363800  0.96777500  1
  S  S15  1  0.10785200  0.40636200  0.96777500  1
  N  N0  1  0.17780200  0.90632300  0.34823600  1
  N  N1  1  0.32219800  0.59367700  0.34823600  1
  N  N2  1  0.67780200  0.09367700  0.15176400  1
  N  N3  1  0.82219800  0.40632300  0.15176400  1
  N  N4  1  0.82219800  0.09367700  0.65176400  1
  N  N5  1  0.67780200  0.40632300  0.65176400  1
  N  N6  1  0.32219800  0.90632300  0.84823600  1
  N  N7  1  0.17780200  0.59367700  0.84823600  1
  N  N8  1  0.33832000  0.08889100  0.35189800  1
  N  N9  1  0.16168000  0.41110900  0.35189800  1
  N  N10  1  0.83832000  0.91110900  0.14810200  1
  N  N11  1  0.66168000  0.58889100  0.14810200  1
  N  N12  1  0.66168000  0.91110900  0.64810200  1
  N  N13  1  0.83832000  0.58889100  0.64810200  1
  N  N14  1  0.16168000  0.08889100  0.85189800  1
  N  N15  1  0.33832000  0.41110900  0.85189800  1
  N  N16  1  0.26188100  0.48957600  0.43496700  1
  N  N17  1  0.23811900  0.01042400  0.43496700  1
  N  N18  1  0.76188100  0.51042400  0.06503300  1
  N  N19  1  0.73811900  0.98957600  0.06503300  1
  N  N20  1  0.73811900  0.51042400  0.56503300  1
  N  N21  1  0.76188100  0.98957600  0.56503300  1
  N  N22  1  0.23811900  0.48957600  0.93496700  1
  N  N23  1  0.26188100  0.01042400  0.93496700  1
  N  N24  1  0.18172100  0.42183200  0.66934900  1
  N  N25  1  0.31827900  0.07816800  0.66934900  1
  N  N26  1  0.68172100  0.57816800  0.83065100  1
  N  N27  1  0.81827900  0.92183200  0.83065100  1
  N  N28  1  0.81827900  0.57816800  0.33065100  1
  N  N29  1  0.68172100  0.92183200  0.33065100  1
  N  N30  1  0.31827900  0.42183200  0.16934900  1
  N  N31  1  0.18172100  0.07816800  0.16934900  1
  N  N32  1  0.06421600  0.68152800  0.21908600  1
  N  N33  1  0.43578400  0.81847200  0.21908600  1
  N  N34  1  0.56421600  0.31847200  0.28091400  1
  N  N35  1  0.93578400  0.18152800  0.28091400  1
  N  N36  1  0.93578400  0.31847200  0.78091400  1
  N  N37  1  0.56421600  0.18152800  0.78091400  1
  N  N38  1  0.43578400  0.68152800  0.71908600  1
  N  N39  1  0.06421600  0.81847200  0.71908600  1
  O  O0  1  0.15775300  0.59509600  0.23935100  1
  O  O1  1  0.34224700  0.90490400  0.23935100  1
  O  O2  1  0.65775300  0.40490400  0.26064900  1
  O  O3  1  0.84224700  0.09509600  0.26064900  1
  O  O4  1  0.84224700  0.40490400  0.76064900  1
  O  O5  1  0.65775300  0.09509600  0.76064900  1
  O  O6  1  0.34224700  0.59509600  0.73935100  1
  O  O7  1  0.15775300  0.90490400  0.73935100  1
  O  O8  1  0.06269300  0.70487500  0.16773700  1
  O  O9  1  0.43730700  0.79512500  0.16773700  1
  O  O10  1  0.56269300  0.29512500  0.33226300  1
  O  O11  1  0.93730700  0.20487500  0.33226300  1
  O  O12  1  0.93730700  0.29512500  0.83226300  1
  O  O13  1  0.56269300  0.20487500  0.83226300  1
  O  O14  1  0.43730700  0.70487500  0.66773700  1
  O  O15  1  0.06269300  0.79512500  0.66773700  1
  O  O16  1  0.97427900  0.74145900  0.25262100  1
  O  O17  1  0.52572100  0.75854100  0.25262100  1
  O  O18  1  0.47427900  0.25854100  0.24737900  1
  O  O19  1  0.02572100  0.24145900  0.24737900  1
  O  O20  1  0.02572100  0.25854100  0.74737900  1
  O  O21  1  0.47427900  0.24145900  0.74737900  1
  O  O22  1  0.52572100  0.74145900  0.75262100  1
  O  O23  1  0.97427900  0.75854100  0.75262100  1
loop_
_geom_bond_atom_site_label_1
_geom_bond_atom_site_label_2
_geom_bond_distance
_geom_bond_site_symmetry_2
H0 N0 1.023759 1_555
H1 N1 1.023759 1_555
H2 N2 1.023759 1_555
H3 N3 1.023759 1_555
H4 N4 1.023759 1_555
H5 N5 1.023759 1_555
H6 N6 1.023759 1_555
H7 N7 1.023759 1_555
H8 N0 1.020080 1_555
H9 N1 1.020080 1_555
H10 N2 1.020080 1_555
H11 N3 1.020080 1_555
H12 N4 1.020080 1_555
H13 N5 1.020080 1_555
H14 N6 1.020080 1_555
H15 N7 1.020080 1_555
H16 N8 1.020193 1_555
H17 N9 1.020193 1_555
H18 N10 1.020193 1_555
H19 N11 1.020193 1_555
H20 N12 1.020193 1_555
H21 N13 1.020193 1_555
H22 N14 1.020193 1_555
H23 N15 1.020193 1_555
H24 N8 1.018345 1_555
H25 N9 1.018345 1_555
H26 N10 1.018345 1_555
H27 N11 1.018345 1_555
H28 N12 1.018345 1_555
H29 N13 1.018345 1_555
H30 N14 1.018345 1_555
H31 N15 1.018345 1_555
H32 H40 0.751081 1_555
H33 H41 0.751081 1_555
H34 H42 0.751081 1_555
H35 H43 0.751081 1_555
H36 H44 0.751081 1_555
H37 H45 0.751081 1_555
H38 H46 0.751081 1_555
H39 H47 0.751081 1_555
H48 N24 1.048196 1_555
H49 N25 1.048196 1_555
H50 N26 1.048196 1_555
H51 N27 1.048196 1_555
H52 N28 1.048196 1_555
H53 N29 1.048196 1_555
H54 N30 1.048196 1_555
H55 N31 1.048196 1_555
H56 N24 1.043786 1_555
H57 N25 1.043786 1_555
H58 N26 1.043786 1_555
H59 N27 1.043786 1_555
H60 N28 1.043786 1_555
H61 N29 1.043786 1_555
H62 N30 1.043786 1_555
H63 N31 1.043786 1_555
C0 N24 1.283604 1_555
C0 S0 1.632876 1_555
C1 N25 1.283604 1_555
C1 S1 1.632876 1_555
C2 N26 1.283604 1_555
C2 S2 1.632876 1_555
C3 N27 1.283604 1_555
C3 S3 1.632876 1_555
C4 N28 1.283604 1_555
C4 S4 1.632876 1_555
C5 N29 1.283604 1_555
C5 S5 1.632876 1_555
C6 N30 1.283604 1_555
C6 S6 1.632876 1_555
C7 N31 1.283604 1_555
C7 S7 1.632876 1_555
C8 N8 1.336558 1_555
C8 N0 1.340399 1_545
C8 N17 1.360886 1_555
C9 N9 1.336558 1_555
C9 N1 1.340399 1_555
C9 N16 1.360886 1_555
C10 N10 1.336558 1_555
C10 N2 1.340399 1_565
C10 N19 1.360886 1_555
C11 N11 1.336558 1_555
C11 N3 1.340399 1_555
C11 N18 1.360886 1_555
C12 N12 1.336558 1_555
C12 N4 1.340399 1_565
C12 N21 1.360886 1_555
C13 N13 1.336558 1_555
C13 N5 1.340399 1_555
C13 N20 1.360886 1_555
C14 N14 1.336558 1_555
C14 N6 1.340399 1_545
C14 N23 1.360886 1_555
C15 N15 1.336558 1_555
C15 N7 1.340399 1_555
C15 N22 1.360886 1_555
S0 Zn0 2.374039 1_555
S1 Zn0 2.374039 1_555
S2 Zn1 2.374039 1_555
S3 Zn1 2.374039 1_555
S4 Zn2 2.374039 1_555
S5 Zn2 2.374039 1_555
S6 Zn3 2.374039 1_555
S7 Zn3 2.374039 1_555
S8 Zn0 2.380826 1_555
S9 Zn0 2.380826 1_555
S10 Zn1 2.380826 1_554
S11 Zn1 2.380826 1_554
S12 Zn2 2.380826 1_555
S13 Zn2 2.380826 1_555
S14 Zn3 2.380826 1_556
S15 Zn3 2.380826 1_556
N16 S9 1.622710 1_555
N17 S8 1.622710 1_555
N18 S11 1.622710 1_555
N19 S10 1.622710 1_555
N20 S13 1.622710 1_555
N21 S12 1.622710 1_555
N22 S15 1.622710 1_555
N23 S14 1.622710 1_555
N32 O8 1.248031 1_555
N32 O16 1.277700 1_455
N32 O0 1.287837 1_555
N33 O9 1.248031 1_555
N33 O17 1.277700 1_555
N33 O1 1.287837 1_555
N34 O10 1.248031 1_555
N34 O18 1.277700 1_555
N34 O2 1.287837 1_555
N35 O11 1.248031 1_555
N35 O19 1.277700 1_655
N35 O3 1.287837 1_555
N36 O12 1.248031 1_555
N36 O20 1.277700 1_655
N36 O4 1.287837 1_555
N37 O13 1.248031 1_555
N37 O21 1.277700 1_555
N37 O5 1.287837 1_555
N38 O14 1.248031 1_555
N38 O22 1.277700 1_555
N38 O6 1.287837 1_555
N39 O15 1.248031 1_555
N39 O23 1.277700 1_455
N39 O7 1.287837 1_555
