# generated using pymatgen
data_Nb(SO4)2
_symmetry_space_group_name_H-M   'P 1'
_cell_length_a   9.30655700
_cell_length_b   9.43981600
_cell_length_c   13.65508100
_cell_angle_alpha   90.00000000
_cell_angle_beta   90.00000000
_cell_angle_gamma   90.00000000
_symmetry_Int_Tables_number   1
_chemical_formula_structural   Nb(SO4)2
_chemical_formula_sum   'Nb8 S16 O64'
_cell_volume   1199.62871140
_cell_formula_units_Z   8
loop_
 _symmetry_equiv_pos_site_id
 _symmetry_equiv_pos_as_xyz
  1  'x, y, z'
loop_
 _atom_site_type_symbol
 _atom_site_label
 _atom_site_symmetry_multiplicity
 _atom_site_fract_x
 _atom_site_fract_y
 _atom_site_fract_z
 _atom_site_occupancy
  Nb  Nb0  1  0.89588100  0.85833100  0.12722500  1
  Nb  Nb1  1  0.60411900  0.85833100  0.62722500  1
  Nb  Nb2  1  0.39588100  0.64166900  0.12722500  1
  Nb  Nb3  1  0.10411900  0.64166900  0.62722500  1
  Nb  Nb4  1  0.89588100  0.35833100  0.37277500  1
  Nb  Nb5  1  0.60411900  0.35833100  0.87277500  1
  Nb  Nb6  1  0.39588100  0.14166900  0.37277500  1
  Nb  Nb7  1  0.10411900  0.14166900  0.87277500  1
  S  S0  1  0.93319800  0.92757100  0.72232800  1
  S  S1  1  0.56680200  0.92757100  0.22232800  1
  S  S2  1  0.31169800  0.83975900  0.48709800  1
  S  S3  1  0.18830200  0.83975900  0.98709800  1
  S  S4  1  0.81169800  0.66024100  0.48709800  1
  S  S5  1  0.68830200  0.66024100  0.98709800  1
  S  S6  1  0.06680200  0.57242900  0.22232800  1
  S  S7  1  0.43319800  0.57242900  0.72232800  1
  S  S8  1  0.56680200  0.42757100  0.27767200  1
  S  S9  1  0.93319800  0.42757100  0.77767200  1
  S  S10  1  0.31169800  0.33975900  0.01290200  1
  S  S11  1  0.18830200  0.33975900  0.51290200  1
  S  S12  1  0.81169800  0.16024100  0.01290200  1
  S  S13  1  0.68830200  0.16024100  0.51290200  1
  S  S14  1  0.43319800  0.07242900  0.77767200  1
  S  S15  1  0.06680200  0.07242900  0.27767200  1
  O  O0  1  0.30493200  0.99843000  0.47245600  1
  O  O1  1  0.19506800  0.99843000  0.97245600  1
  O  O2  1  0.00838500  0.98238800  0.35178900  1
  O  O3  1  0.49161500  0.98238800  0.85178900  1
  O  O4  1  0.53143900  0.97433600  0.32546200  1
  O  O5  1  0.96856100  0.97433600  0.82546200  1
  O  O6  1  0.76976400  0.91735600  0.71906300  1
  O  O7  1  0.73023600  0.91735600  0.21906300  1
  O  O8  1  0.27173300  0.81174700  0.08117100  1
  O  O9  1  0.22826700  0.81174700  0.58117100  1
  O  O10  1  0.03337000  0.80587500  0.01422400  1
  O  O11  1  0.46663000  0.80587500  0.51422400  1
  O  O12  1  0.98601500  0.77496000  0.71638700  1
  O  O13  1  0.51398500  0.77496000  0.21638700  1
  O  O14  1  0.26314900  0.75997600  0.40470700  1
  O  O15  1  0.23685100  0.75997600  0.90470700  1
  O  O16  1  0.76314900  0.74002400  0.40470700  1
  O  O17  1  0.73685100  0.74002400  0.90470700  1
  O  O18  1  0.01398500  0.72504000  0.21638700  1
  O  O19  1  0.48601500  0.72504000  0.71638700  1
  O  O20  1  0.96663000  0.69412500  0.51422400  1
  O  O21  1  0.53337000  0.69412500  0.01422400  1
  O  O22  1  0.77173300  0.68825300  0.08117100  1
  O  O23  1  0.72826700  0.68825300  0.58117100  1
  O  O24  1  0.23023600  0.58264400  0.21906300  1
  O  O25  1  0.26976400  0.58264400  0.71906300  1
  O  O26  1  0.46856100  0.52566400  0.82546200  1
  O  O27  1  0.03143900  0.52566400  0.32546200  1
  O  O28  1  0.50838500  0.51761200  0.35178900  1
  O  O29  1  0.99161500  0.51761200  0.85178900  1
  O  O30  1  0.80493200  0.50157000  0.47245600  1
  O  O31  1  0.69506800  0.50157000  0.97245600  1
  O  O32  1  0.30493200  0.49843000  0.02754400  1
  O  O33  1  0.19506800  0.49843000  0.52754400  1
  O  O34  1  0.49161500  0.48238800  0.64821100  1
  O  O35  1  0.00838500  0.48238800  0.14821100  1
  O  O36  1  0.53143900  0.47433600  0.17453800  1
  O  O37  1  0.96856100  0.47433600  0.67453800  1
  O  O38  1  0.73023600  0.41735600  0.28093700  1
  O  O39  1  0.76976400  0.41735600  0.78093700  1
  O  O40  1  0.27173300  0.31174700  0.41882900  1
  O  O41  1  0.22826700  0.31174700  0.91882900  1
  O  O42  1  0.46663000  0.30587500  0.98577600  1
  O  O43  1  0.03337000  0.30587500  0.48577600  1
  O  O44  1  0.51398500  0.27496000  0.28361300  1
  O  O45  1  0.98601500  0.27496000  0.78361300  1
  O  O46  1  0.26314900  0.25997600  0.09529300  1
  O  O47  1  0.23685100  0.25997600  0.59529300  1
  O  O48  1  0.76314900  0.24002400  0.09529300  1
  O  O49  1  0.73685100  0.24002400  0.59529300  1
  O  O50  1  0.48601500  0.22504000  0.78361300  1
  O  O51  1  0.01398500  0.22504000  0.28361300  1
  O  O52  1  0.53337000  0.19412500  0.48577600  1
  O  O53  1  0.96663000  0.19412500  0.98577600  1
  O  O54  1  0.77173300  0.18825300  0.41882900  1
  O  O55  1  0.72826700  0.18825300  0.91882900  1
  O  O56  1  0.26976400  0.08264400  0.78093700  1
  O  O57  1  0.23023600  0.08264400  0.28093700  1
  O  O58  1  0.46856100  0.02566400  0.67453800  1
  O  O59  1  0.03143900  0.02566400  0.17453800  1
  O  O60  1  0.99161500  0.01761200  0.64821100  1
  O  O61  1  0.50838500  0.01761200  0.14821100  1
  O  O62  1  0.80493200  0.00157000  0.02754400  1
  O  O63  1  0.69506800  0.00157000  0.52754400  1
loop_
_geom_bond_atom_site_label_1
_geom_bond_atom_site_label_2
_geom_bond_distance
_geom_bond_site_symmetry_2
Nb0 O7 2.063878 1_555
Nb0 O10 2.064803 1_655
Nb0 O18 2.067275 1_655
Nb0 O22 2.075585 1_555
Nb0 O62 2.097016 1_565
Nb0 O59 2.122284 1_665
Nb1 O6 2.063878 1_555
Nb1 O11 2.064803 1_555
Nb1 O19 2.067275 1_555
Nb1 O23 2.075585 1_555
Nb1 O63 2.097016 1_565
Nb1 O58 2.122284 1_565
Nb2 O24 2.063878 1_555
Nb2 O21 2.064803 1_555
Nb2 O13 2.067275 1_555
Nb2 O8 2.075585 1_555
Nb2 O32 2.097016 1_555
Nb2 O36 2.122284 1_555
Nb3 O25 2.063878 1_555
Nb3 O20 2.064803 1_455
Nb3 O12 2.067275 1_455
Nb3 O9 2.075585 1_555
Nb3 O33 2.097016 1_555
Nb3 O37 2.122284 1_455
Nb4 O38 2.063878 1_555
Nb4 O43 2.064803 1_655
Nb4 O51 2.067275 1_655
Nb4 O54 2.075585 1_555
Nb4 O30 2.097016 1_555
Nb4 O27 2.122284 1_655
Nb5 O39 2.063878 1_555
Nb5 O42 2.064803 1_555
Nb5 O50 2.067275 1_555
Nb5 O55 2.075585 1_555
Nb5 O31 2.097016 1_555
Nb5 O26 2.122284 1_555
Nb6 O57 2.063878 1_555
Nb6 O52 2.064803 1_555
Nb6 O44 2.067275 1_555
Nb6 O40 2.075585 1_555
Nb6 O0 2.097016 1_545
Nb6 O4 2.122284 1_545
Nb7 O56 2.063878 1_555
Nb7 O53 2.064803 1_455
Nb7 O45 2.067275 1_455
Nb7 O41 2.075585 1_555
Nb7 O1 2.097016 1_545
Nb7 O5 2.122284 1_445
O0 S2 1.512422 1_555
O1 S3 1.512422 1_555
O2 S15 1.429094 1_565
O3 S14 1.429094 1_565
O4 S1 1.512121 1_555
O5 S0 1.512121 1_555
O6 S0 1.524713 1_555
O7 S1 1.524713 1_555
O8 S3 1.524118 1_554
O9 S2 1.524118 1_555
O10 S3 1.522675 1_554
O11 S2 1.522675 1_555
O12 S0 1.524330 1_555
O13 S1 1.524330 1_555
O14 S2 1.427274 1_555
O15 S3 1.427274 1_555
O16 S4 1.427274 1_555
O17 S5 1.427274 1_555
O18 S6 1.524330 1_555
O19 S7 1.524330 1_555
O20 S4 1.522675 1_555
O21 S5 1.522675 1_554
O22 S5 1.524118 1_554
O23 S4 1.524118 1_555
O24 S6 1.524713 1_555
O25 S7 1.524713 1_555
O26 S7 1.512121 1_555
O27 S6 1.512121 1_555
O28 S8 1.429094 1_555
O29 S9 1.429094 1_555
O30 S4 1.512422 1_555
O31 S5 1.512422 1_555
O32 S10 1.512422 1_555
O33 S11 1.512422 1_555
O34 S7 1.429094 1_555
O35 S6 1.429094 1_555
O36 S8 1.512121 1_555
O37 S9 1.512121 1_555
O38 S8 1.524713 1_555
O39 S9 1.524713 1_555
O40 S11 1.524118 1_555
O41 S10 1.524118 1_556
O42 S10 1.522675 1_556
O43 S11 1.522675 1_555
O44 S8 1.524330 1_555
O45 S9 1.524330 1_555
O46 S10 1.427274 1_555
O47 S11 1.427274 1_555
O48 S12 1.427274 1_555
O49 S13 1.427274 1_555
O50 S14 1.524330 1_555
O51 S15 1.524330 1_555
O52 S13 1.522675 1_555
O53 S12 1.522675 1_556
O54 S13 1.524118 1_555
O55 S12 1.524118 1_556
O56 S14 1.524713 1_555
O57 S15 1.524713 1_555
O58 S14 1.512121 1_555
O59 S15 1.512121 1_555
O60 S0 1.429094 1_545
O61 S1 1.429094 1_545
O62 S12 1.512422 1_555
O63 S13 1.512422 1_555
