# generated using pymatgen
data_Li32Ti11Cr5O48
_symmetry_space_group_name_H-M   'P 1'
_cell_length_a   5.07931650
_cell_length_b   5.07436705
_cell_length_c   38.68112809
_cell_angle_alpha   88.94991180
_cell_angle_beta   91.14748881
_cell_angle_gamma   60.12249413
_symmetry_Int_Tables_number   1
_chemical_formula_structural   Li32Ti11Cr5O48
_chemical_formula_sum   'Li32 Ti11 Cr5 O48'
_cell_volume   863.83935764
_cell_formula_units_Z   1
loop_
 _symmetry_equiv_pos_site_id
 _symmetry_equiv_pos_as_xyz
  1  'x, y, z'
loop_
 _atom_site_type_symbol
 _atom_site_label
 _atom_site_symmetry_multiplicity
 _atom_site_fract_x
 _atom_site_fract_y
 _atom_site_fract_z
 _atom_site_occupancy
  Li  Li0  1  0.09067836  0.08667160  0.24977926  1
  Li  Li1  1  0.00328483  0.50302662  0.00011635  1
  Li  Li2  1  0.06065034  0.44115871  0.18746874  1
  Li  Li3  1  0.12324561  0.37282474  0.37501857  1
  Li  Li4  1  0.19062202  0.31100856  0.56249811  1
  Li  Li5  1  0.25010362  0.24642418  0.75019514  1
  Li  Li6  1  0.31241030  0.18763069  0.93747440  1
  Li  Li7  1  0.03811589  0.78160241  0.12496078  1
  Li  Li8  1  0.37806893  0.12523887  0.12496826  1
  Li  Li9  1  0.16638835  0.65949784  0.50019331  1
  Li  Li10  1  0.28183779  0.54275855  0.87462262  1
  Li  Li11  1  0.43753890  0.06246394  0.31245027  1
  Li  Li12  1  0.49514662  0.99762606  0.50007829  1
  Li  Li13  1  0.40924239  0.41502544  0.24983969  1
  Li  Li14  1  0.53211989  0.29028231  0.62473074  1
  Li  Li15  1  0.22088743  0.95952721  0.62505226  1
  Li  Li16  1  0.33746174  0.83741320  0.00012264  1
  Li  Li17  1  0.65948128  0.16008592  0.00017015  1
  Li  Li18  1  0.78758294  0.03590911  0.37498954  1
  Li  Li19  1  0.46375767  0.71595020  0.37510447  1
  Li  Li20  1  0.58429802  0.59597421  0.75006525  1
  Li  Li21  1  0.56254737  0.93766368  0.68752259  1
  Li  Li22  1  0.70921851  0.46818884  0.12497968  1
  Li  Li23  1  0.83735555  0.34183643  0.50000107  1
  Li  Li24  1  0.62417337  0.87257470  0.87485108  1
  Li  Li25  1  0.96840825  0.20918928  0.87497365  1
  Li  Li26  1  0.68956280  0.81435205  0.06251306  1
  Li  Li27  1  0.74910870  0.74764400  0.24983594  1
  Li  Li28  1  0.81247523  0.68704589  0.43753081  1
  Li  Li29  1  0.87173865  0.62491418  0.62491122  1
  Li  Li30  1  0.93598305  0.56560562  0.81251543  1
  Li  Li31  1  0.91529843  0.90716448  0.75034303  1
  Ti  Ti0  1  0.01762283  0.14343184  0.06255932  1
  Ti  Ti1  1  0.10516053  0.72985336  0.31245608  1
  Ti  Ti2  1  0.22970018  0.60463040  0.68753619  1
  Ti  Ti3  1  0.47967528  0.35487350  0.43744776  1
  Ti  Ti4  1  0.60692523  0.22575450  0.81264475  1
  Ti  Ti5  1  0.73241706  0.09990015  0.18759782  1
  Ti  Ti6  1  0.64486090  0.51963359  0.93753463  1
  Ti  Ti7  1  0.76989643  0.39475377  0.31242701  1
  Ti  Ti8  1  0.89439369  0.26974697  0.68754169  1
  Ti  Ti9  1  0.85104099  0.98191139  0.56240363  1
  Ti  Ti10  1  0.97957351  0.85518931  0.93750621  1
  Cr  Cr0  1  0.14368181  0.01806719  0.43758899  1
  Cr  Cr1  1  0.35678243  0.48119923  0.06252778  1
  Cr  Cr2  1  0.26830797  0.89845021  0.81248875  1
  Cr  Cr3  1  0.39336673  0.77320914  0.18725224  1
  Cr  Cr4  1  0.52335672  0.64340451  0.56247945  1
  O  O0  1  0.09074059  0.05387918  0.34074671  1
  O  O1  1  0.06463737  0.08243284  0.15934011  1
  O  O2  1  0.07160493  0.42805299  0.28346696  1
  O  O3  1  0.19618593  0.30368950  0.65857373  1
  O  O4  1  0.05840767  0.44688601  0.09094780  1
  O  O5  1  0.17813246  0.31914892  0.46628006  1
  O  O6  1  0.30166906  0.18937551  0.84111610  1
  O  O7  1  0.32213998  0.18272174  0.03418860  1
  O  O8  1  0.44194159  0.05311135  0.40889992  1
  O  O9  1  0.06648945  0.78628329  0.21598418  1
  O  O10  1  0.42623051  0.06410546  0.21600518  1
  O  O11  1  0.20214289  0.65915046  0.59044316  1
  O  O12  1  0.32103702  0.53415120  0.96576357  1
  O  O13  1  0.03172450  0.82553639  0.03396143  1
  O  O14  1  0.15986794  0.70103352  0.40935250  1
  O  O15  1  0.28438436  0.57678816  0.78462137  1
  O  O16  1  0.21562789  0.92877893  0.71596573  1
  O  O17  1  0.18398049  0.96079414  0.53473660  1
  O  O18  1  0.30333875  0.84122325  0.90910271  1
  O  O19  1  0.44645448  0.40930064  0.34089751  1
  O  O20  1  0.57152311  0.28474371  0.71604539  1
  O  O21  1  0.40909687  0.45140384  0.15962404  1
  O  O22  1  0.53636836  0.31721250  0.53392790  1
  O  O23  1  0.65931616  0.19639271  0.90897967  1
  O  O24  1  0.34277571  0.79374250  0.09061659  1
  O  O25  1  0.46448810  0.68016125  0.46571344  1
  O  O26  1  0.58612637  0.55885869  0.84038469  1
  O  O27  1  0.42871017  0.71569009  0.28410636  1
  O  O28  1  0.55347134  0.59072578  0.65921926  1
  O  O29  1  0.70115740  0.15729002  0.09118728  1
  O  O30  1  0.82802115  0.03466643  0.46570562  1
  O  O31  1  0.78384481  0.07148449  0.28397413  1
  O  O32  1  0.71062443  0.43400070  0.21527911  1
  O  O33  1  0.83312647  0.31357733  0.59054727  1
  O  O34  1  0.96498730  0.17901926  0.96594260  1
  O  O35  1  0.66875410  0.46755093  0.03441750  1
  O  O36  1  0.80392021  0.33973760  0.40930310  1
  O  O37  1  0.57463288  0.92937039  0.78345627  1
  O  O38  1  0.93862359  0.20822998  0.78456726  1
  O  O39  1  0.55485230  0.94968218  0.59160810  1
  O  O40  1  0.67827404  0.82169510  0.96643829  1
  O  O41  1  0.69967813  0.80476204  0.15820694  1
  O  O42  1  0.81425019  0.67635657  0.53391078  1
  O  O43  1  0.94627960  0.55329857  0.90846073  1
  O  O44  1  0.80348863  0.69691830  0.34141635  1
  O  O45  1  0.92886527  0.57147858  0.71658278  1
  O  O46  1  0.94267839  0.91088135  0.84101354  1
  O  O47  1  0.90977390  0.94633804  0.65909938  1
loop_
_geom_bond_atom_site_label_1
_geom_bond_atom_site_label_2
_geom_bond_distance
_geom_bond_site_symmetry_2
Li0 O9 2.073781 1_545
Li0 O31 2.093535 1_455
Li0 O10 2.127196 1_555
Li0 O2 2.151472 1_555
Li0 O27 2.202662 1_545
Li0 O32 2.243798 1_455
Li1 O40 2.052850 1_454
Li1 O7 2.053079 1_555
Li1 O13 2.172442 1_555
Li1 O12 2.174330 1_554
Li1 O34 2.208252 1_454
Li1 O35 2.250856 1_455
Li2 O9 2.098991 1_555
Li2 O32 2.111620 1_455
Li2 O21 2.112150 1_555
Li2 O41 2.125335 1_455
Li2 O1 2.129442 1_555
Li2 O10 2.151297 1_555
Li3 O8 2.047099 1_555
Li3 O44 2.051303 1_455
Li3 O0 2.177185 1_555
Li3 O36 2.183332 1_455
Li3 O19 2.202707 1_555
Li3 O14 2.225297 1_555
Li4 O22 2.106637 1_555
Li4 O17 2.107285 1_545
Li4 O11 2.112628 1_555
Li4 O39 2.124543 1_545
Li4 O33 2.128481 1_455
Li4 O42 2.150251 1_455
Li5 O37 2.039084 1_545
Li5 O45 2.056330 1_455
Li5 O38 2.165324 1_455
Li5 O16 2.175300 1_545
Li5 O20 2.200298 1_555
Li5 O15 2.230970 1_555
Li6 O12 2.106314 1_555
Li6 O18 2.108494 1_545
Li6 O23 2.115582 1_555
Li6 O34 2.116948 1_455
Li6 O40 2.135199 1_545
Li6 O43 2.136146 1_455
Li7 O24 2.082688 1_555
Li7 O1 2.094990 1_565
Li7 O41 2.124967 1_455
Li7 O4 2.130569 1_555
Li7 O21 2.197002 1_555
Li7 O29 2.199703 1_465
Li8 O41 2.039290 1_545
Li8 O4 2.056059 1_555
Li8 O1 2.183599 1_555
Li8 O29 2.184261 1_555
Li8 O21 2.212210 1_555
Li8 O24 2.236098 1_545
Li9 O25 2.077587 1_555
Li9 O17 2.082558 1_555
Li9 O5 2.165788 1_555
Li9 O22 2.194959 1_555
Li9 O42 2.202856 1_455
Li9 O30 2.216526 1_465
Li10 O18 2.077864 1_555
Li10 O26 2.086442 1_555
Li10 O43 2.149923 1_455
Li10 O46 2.182293 1_455
Li10 O6 2.194527 1_555
Li10 O23 2.233019 1_555
Li11 O27 2.108982 1_545
Li11 O0 2.110619 1_555
Li11 O19 2.111582 1_555
Li11 O31 2.113153 1_555
Li11 O44 2.134584 1_545
Li11 O2 2.134972 1_555
Li12 O5 2.045476 1_565
Li12 O42 2.049806 1_555
Li12 O17 2.167994 1_555
Li12 O25 2.169434 1_555
Li12 O22 2.189351 1_565
Li12 O30 2.249290 1_565
Li13 O27 2.076907 1_555
Li13 O32 2.088998 1_555
Li13 O2 2.148711 1_555
Li13 O10 2.197278 1_555
Li13 O9 2.201270 1_555
Li13 O31 2.216531 1_555
Li14 O28 2.085480 1_555
Li14 O33 2.086909 1_555
Li14 O39 2.128439 1_545
Li14 O3 2.146373 1_555
Li14 O11 2.183146 1_555
Li14 O47 2.229429 1_545
Li15 O11 2.082968 1_555
Li15 O47 2.102756 1_455
Li15 O39 2.135265 1_555
Li15 O3 2.148996 1_565
Li15 O28 2.184696 1_555
Li15 O33 2.273705 1_465
Li16 O13 2.073713 1_555
Li16 O12 2.083232 1_554
Li16 O40 2.158080 1_554
Li16 O7 2.183020 1_565
Li16 O35 2.187846 1_555
Li16 O34 2.209208 1_464
Li17 O35 2.082734 1_555
Li17 O34 2.096717 1_554
Li17 O7 2.140194 1_555
Li17 O40 2.141001 1_544
Li17 O13 2.187948 1_645
Li17 O12 2.212289 1_554
Li18 O36 2.084127 1_555
Li18 O0 2.085904 1_655
Li18 O44 2.144669 1_545
Li18 O8 2.180393 1_555
Li18 O14 2.201185 1_645
Li18 O19 2.208467 1_555
Li19 O14 2.082757 1_555
Li19 O19 2.094480 1_555
Li19 O8 2.132411 1_565
Li19 O44 2.147958 1_555
Li19 O0 2.207983 1_565
Li19 O36 2.215695 1_555
Li20 O15 2.083585 1_555
Li20 O20 2.098787 1_555
Li20 O37 2.128998 1_555
Li20 O45 2.153106 1_555
Li20 O16 2.183369 1_555
Li20 O38 2.273985 1_555
Li21 O28 2.109391 1_555
Li21 O20 2.114334 1_565
Li21 O16 2.114835 1_555
Li21 O47 2.115298 1_555
Li21 O3 2.136189 1_565
Li21 O45 2.138555 1_555
Li22 O21 2.081804 1_555
Li22 O29 2.082528 1_555
Li22 O41 2.138146 1_555
Li22 O24 2.171912 1_555
Li22 O4 2.190455 1_655
Li22 O1 2.268278 1_655
Li23 O30 2.082907 1_555
Li23 O22 2.083204 1_555
Li23 O42 2.122491 1_555
Li23 O5 2.146646 1_655
Li23 O25 2.206768 1_555
Li23 O17 2.249906 1_645
Li24 O6 2.045562 1_565
Li24 O43 2.046580 1_555
Li24 O26 2.173227 1_555
Li24 O46 2.181046 1_555
Li24 O18 2.184801 1_555
Li24 O23 2.199299 1_565
Li25 O46 2.072951 1_545
Li25 O23 2.092952 1_555
Li25 O6 2.124783 1_655
Li25 O43 2.152365 1_555
Li25 O18 2.185937 1_645
Li25 O26 2.255019 1_555
Li26 O13 2.101488 1_655
Li26 O29 2.105277 1_565
Li26 O35 2.130710 1_555
Li26 O7 2.131865 1_565
Li26 O24 2.133402 1_555
Li26 O4 2.135057 1_655
Li27 O10 2.047924 1_565
Li27 O2 2.048467 1_655
Li27 O32 2.176106 1_555
Li27 O9 2.177584 1_655
Li27 O27 2.184818 1_555
Li27 O31 2.198707 1_565
Li28 O36 2.108309 1_555
Li28 O25 2.109764 1_555
Li28 O14 2.122632 1_655
Li28 O30 2.123980 1_565
Li28 O5 2.134960 1_655
Li28 O8 2.139436 1_565
Li29 O39 2.040212 1_555
Li29 O3 2.056264 1_655
Li29 O33 2.162509 1_555
Li29 O28 2.182075 1_555
Li29 O47 2.197534 1_555
Li29 O11 2.235134 1_655
Li30 O46 2.101109 1_555
Li30 O26 2.111189 1_555
Li30 O15 2.115020 1_655
Li30 O37 2.122591 1_555
Li30 O38 2.122666 1_555
Li30 O6 2.150835 1_655
Li31 O38 2.085344 1_565
Li31 O16 2.085646 1_655
Li31 O37 2.132417 1_555
Li31 O45 2.140052 1_555
Li31 O15 2.184226 1_655
Li31 O20 2.227311 1_565
Cr0 O30 1.923352 1_455
Cr0 O14 1.929764 1_545
Cr0 O25 1.963601 1_545
Cr0 O8 1.971474 1_555
Cr0 O36 1.972845 1_455
Cr0 O5 1.979185 1_555
Cr1 O24 1.911718 1_555
Cr1 O35 1.913243 1_555
Cr1 O7 1.960921 1_555
Cr1 O4 1.964255 1_555
Cr1 O29 1.995326 1_555
Cr1 O13 1.995494 1_555
Cr2 O38 1.919483 1_465
Cr2 O6 1.932845 1_565
Cr2 O15 1.941141 1_555
Cr2 O26 1.957133 1_555
Cr2 O46 1.982105 1_455
Cr2 O37 2.003348 1_555
Cr3 O1 1.916039 1_565
Cr3 O10 1.934421 1_565
Cr3 O21 1.937119 1_555
Cr3 O32 1.957807 1_555
Cr3 O9 1.990749 1_555
Cr3 O41 2.005039 1_555
Cr4 O33 1.922731 1_555
Cr4 O42 1.933140 1_555
Cr4 O11 1.944815 1_555
Cr4 O17 1.952828 1_555
Cr4 O22 1.981102 1_555
Cr4 O39 2.003800 1_555
O0 Ti1 1.963554 1_545
O0 Ti7 1.974428 1_455
O1 Ti5 1.994617 1_455
O2 Ti1 1.986731 1_555
O2 Ti7 1.987887 1_455
O3 Ti2 1.982447 1_555
O3 Ti8 1.989914 1_455
O4 Ti0 1.997626 1_555
O5 Ti3 1.990027 1_555
O6 Ti4 1.999269 1_555
O7 Ti0 2.000915 1_555
O8 Ti3 1.986645 1_555
O9 Ti5 1.946404 1_465
O10 Ti5 2.000422 1_555
O11 Ti9 1.996643 1_455
O12 Ti6 1.963995 1_555
O12 Ti10 1.974976 1_455
O13 Ti0 1.945359 1_565
O14 Ti3 1.980336 1_555
O15 Ti4 1.995645 1_555
O16 Ti2 1.967806 1_555
O16 Ti8 1.977502 1_465
O17 Ti9 1.978074 1_455
O18 Ti10 1.968661 1_455
O18 Ti6 1.979692 1_555
O19 Ti7 1.967707 1_555
O19 Ti1 1.977375 1_555
O20 Ti8 1.965211 1_555
O20 Ti2 1.978711 1_555
O21 Ti5 1.997246 1_555
O22 Ti9 1.952998 1_545
O23 Ti6 1.966077 1_555
O23 Ti10 1.978255 1_545
O24 Ti0 1.998009 1_565
O25 Ti3 1.966877 1_555
O26 Ti4 1.978059 1_555
O27 Ti1 1.966187 1_555
O27 Ti7 1.975416 1_555
O28 Ti2 1.966876 1_555
O28 Ti8 1.974923 1_555
O29 Ti0 1.943335 1_655
O30 Ti3 1.989640 1_555
O31 Ti7 1.964865 1_555
O31 Ti1 1.980359 1_645
O32 Ti5 1.979209 1_555
O33 Ti9 1.986054 1_545
O34 Ti10 1.965659 1_545
O34 Ti6 1.974238 1_555
O35 Ti0 1.995875 1_655
O36 Ti3 1.962745 1_555
O37 Ti4 1.965740 1_565
O38 Ti4 1.988358 1_555
O39 Ti9 1.967901 1_555
O40 Ti6 1.985587 1_555
O40 Ti10 1.986004 1_555
O41 Ti5 1.966217 1_565
O42 Ti9 1.999180 1_555
O43 Ti10 1.987758 1_555
O43 Ti6 1.990072 1_555
O44 Ti1 1.986892 1_655
O44 Ti7 1.988344 1_555
O45 Ti2 1.985826 1_655
O45 Ti8 1.989740 1_555
O46 Ti4 1.952296 1_565
O47 Ti8 1.962546 1_565
O47 Ti2 1.976972 1_655
