# generated using pymatgen
data_SrLiLa7Fe3O16
_symmetry_space_group_name_H-M   'P 1'
_cell_length_a   5.50097900
_cell_length_b   5.50097900
_cell_length_c   12.79508800
_cell_angle_alpha   90.00000000
_cell_angle_beta   90.00000000
_cell_angle_gamma   90.00000000
_symmetry_Int_Tables_number   1
_chemical_formula_structural   SrLiLa7Fe3O16
_chemical_formula_sum   'Sr1 Li1 La7 Fe3 O16'
_cell_volume   387.18921457
_cell_formula_units_Z   1
loop_
 _symmetry_equiv_pos_site_id
 _symmetry_equiv_pos_as_xyz
  1  'x, y, z'
loop_
 _atom_site_type_symbol
 _atom_site_label
 _atom_site_symmetry_multiplicity
 _atom_site_fract_x
 _atom_site_fract_y
 _atom_site_fract_z
 _atom_site_occupancy
  Sr  Sr0  1  0.50000000  0.50000000  0.35578900  1
  Li  Li0  1  0.00000000  0.00000000  0.99915400  1
  La  La0  1  0.00000000  0.50000000  0.13680900  1
  La  La1  1  0.00000000  0.00000000  0.35823100  1
  La  La2  1  0.00000000  0.00000000  0.64275500  1
  La  La3  1  0.00000000  0.50000000  0.86554100  1
  La  La4  1  0.50000000  0.00000000  0.13680900  1
  La  La5  1  0.50000000  0.50000000  0.64063100  1
  La  La6  1  0.50000000  0.00000000  0.86554100  1
  Fe  Fe0  1  0.00000000  0.50000000  0.49739300  1
  Fe  Fe1  1  0.50000000  0.50000000  0.00452400  1
  Fe  Fe2  1  0.50000000  0.00000000  0.49739300  1
  O  O0  1  0.00000000  0.00000000  0.18269300  1
  O  O1  1  0.00000000  0.50000000  0.31943100  1
  O  O2  1  0.00000000  0.00000000  0.81787500  1
  O  O3  1  0.00000000  0.50000000  0.68102300  1
  O  O4  1  0.25031600  0.25031600  0.50405000  1
  O  O5  1  0.25031600  0.74968400  0.50405000  1
  O  O6  1  0.25039100  0.25039100  0.99844000  1
  O  O7  1  0.25039100  0.74961000  0.99844000  1
  O  O8  1  0.50000000  0.50000000  0.16570700  1
  O  O9  1  0.50000000  0.00000000  0.68102300  1
  O  O10  1  0.50000000  0.50000000  0.82228400  1
  O  O11  1  0.50000000  0.00000000  0.31943100  1
  O  O12  1  0.74961000  0.25039100  0.99844000  1
  O  O13  1  0.74961000  0.74961000  0.99844000  1
  O  O14  1  0.74968400  0.25031600  0.50405000  1
  O  O15  1  0.74968400  0.74968400  0.50405000  1
loop_
_geom_bond_atom_site_label_1
_geom_bond_atom_site_label_2
_geom_bond_distance
_geom_bond_site_symmetry_2
Li0 O13 1.947945 1_445
Li0 O12 1.947949 1_455
Li0 O7 1.947949 1_545
Li0 O6 1.947953 1_555
Li0 O2 2.319481 1_555
Li0 O0 2.348398 1_556
La0 O1 2.336665 1_555
La0 O12 2.630031 1_454
La0 O13 2.630033 1_454
La0 O6 2.630033 1_554
La0 O7 2.630036 1_554
La0 O8 2.775231 1_555
La0 O8 2.775231 1_455
La0 O0 2.812449 1_555
La0 O0 2.812449 1_565
La1 O0 2.246024 1_555
La1 O14 2.696897 1_455
La1 O15 2.696897 1_445
La1 O5 2.696897 1_545
La1 O4 2.696897 1_555
La1 O1 2.794934 1_545
La1 O11 2.794934 1_555
La1 O11 2.794934 1_455
La1 O1 2.794934 1_555
La2 O2 2.240676 1_555
La2 O4 2.634744 1_555
La2 O14 2.634744 1_455
La2 O15 2.634744 1_445
La2 O5 2.634744 1_545
La2 O9 2.793733 1_555
La2 O3 2.793733 1_545
La2 O9 2.793733 1_455
La2 O3 2.793733 1_555
La3 O3 2.360924 1_555
La3 O12 2.583435 1_455
La3 O13 2.583438 1_455
La3 O6 2.583438 1_555
La3 O7 2.583441 1_555
La3 O10 2.805625 1_555
La3 O10 2.805625 1_455
La3 O2 2.817296 1_565
La3 O2 2.817296 1_555
La4 O11 2.336665 1_555
La4 O7 2.630031 1_544
La4 O13 2.630033 1_544
La4 O6 2.630033 1_554
La4 O12 2.630036 1_554
La4 O8 2.775231 1_555
La4 O8 2.775231 1_545
La4 O0 2.812449 1_555
La4 O0 2.812449 1_655
La5 O10 2.324266 1_555
La5 O15 2.612858 1_555
La5 O5 2.612858 1_555
La5 O4 2.612858 1_555
La5 O14 2.612858 1_555
La5 O9 2.798624 1_555
La5 O3 2.798624 1_555
La5 O3 2.798624 1_655
La5 O9 2.798624 1_565
La6 O9 2.360924 1_555
La6 O7 2.583435 1_545
La6 O13 2.583438 1_545
La6 O6 2.583438 1_555
La6 O12 2.583441 1_555
La6 O10 2.805625 1_545
La6 O10 2.805625 1_555
La6 O2 2.817296 1_655
La6 O2 2.817296 1_555
Fe0 O14 1.946756 1_455
Fe0 O4 1.946756 1_555
Fe0 O15 1.946756 1_455
Fe0 O5 1.946756 1_555
Fe0 O1 2.277039 1_555
Fe0 O3 2.349562 1_555
Fe1 O6 1.943408 1_554
Fe1 O12 1.943412 1_554
Fe1 O7 1.943412 1_554
Fe1 O13 1.943415 1_554
Fe1 O8 2.062351 1_555
Fe1 O10 2.331777 1_554
Fe2 O14 1.946756 1_555
Fe2 O5 1.946756 1_545
Fe2 O4 1.946756 1_555
Fe2 O15 1.946756 1_545
Fe2 O11 2.277039 1_555
Fe2 O9 2.349562 1_555
O1 Sr0 2.789553 1_455
O1 Sr0 2.789553 1_555
O4 Sr0 2.715087 1_555
O5 Sr0 2.715087 1_555
O8 Sr0 2.432116 1_555
O11 Sr0 2.789553 1_555
O11 Sr0 2.789553 1_545
O14 Sr0 2.715087 1_555
O15 Sr0 2.715087 1_555
