# generated using pymatgen
data_Li4Ti3Cr3(CoO8)2
_symmetry_space_group_name_H-M   'P 1'
_cell_length_a   5.81416116
_cell_length_b   5.85478640
_cell_length_c   9.39608333
_cell_angle_alpha   90.00880295
_cell_angle_beta   90.12261502
_cell_angle_gamma   120.23727541
_symmetry_Int_Tables_number   1
_chemical_formula_structural   Li4Ti3Cr3(CoO8)2
_chemical_formula_sum   'Li4 Ti3 Cr3 Co2 O16'
_cell_volume   276.33177685
_cell_formula_units_Z   1
loop_
 _symmetry_equiv_pos_site_id
 _symmetry_equiv_pos_as_xyz
  1  'x, y, z'
loop_
 _atom_site_type_symbol
 _atom_site_label
 _atom_site_symmetry_multiplicity
 _atom_site_fract_x
 _atom_site_fract_y
 _atom_site_fract_z
 _atom_site_occupancy
  Li  Li0  1  0.33666200  0.66823900  0.89290400  1
  Li  Li1  1  0.98993200  0.99490300  0.99472400  1
  Li  Li2  1  0.99985900  0.99983200  0.49830100  1
  Li  Li3  1  0.66600000  0.33311100  0.39559100  1
  Ti  Ti0  1  0.16696900  0.83069900  0.21167300  1
  Ti  Ti1  1  0.16695000  0.33637300  0.21176700  1
  Ti  Ti2  1  0.34047400  0.17004600  0.71586900  1
  Cr  Cr0  1  0.65309300  0.82659400  0.21306400  1
  Cr  Cr1  1  0.82995100  0.65949900  0.70884000  1
  Cr  Cr2  1  0.83007600  0.17047200  0.70858800  1
  Co  Co0  1  0.33386800  0.66709200  0.48406000  1
  Co  Co1  1  0.67230200  0.33607300  0.97987400  1
  O  O0  1  0.17048800  0.83245900  0.60261200  1
  O  O1  1  0.04522900  0.52271700  0.34323700  1
  O  O2  1  0.32513400  0.66252500  0.09979300  1
  O  O3  1  0.99696300  0.99853700  0.31088500  1
  O  O4  1  0.99858000  0.99935500  0.80809700  1
  O  O5  1  0.17031500  0.33829600  0.60272100  1
  O  O6  1  0.47729900  0.95458900  0.34424900  1
  O  O7  1  0.47727600  0.52285800  0.34428700  1
  O  O8  1  0.33825700  0.16907100  0.10287100  1
  O  O9  1  0.66738700  0.83390600  0.60538900  1
  O  O10  1  0.52774300  0.48066000  0.84405400  1
  O  O11  1  0.52786400  0.04696900  0.84392400  1
  O  O12  1  0.66349400  0.33174300  0.59985800  1
  O  O13  1  0.83659300  0.66506300  0.10102800  1
  O  O14  1  0.95466300  0.47719900  0.83854400  1
  O  O15  1  0.83658100  0.17141800  0.10103200  1
loop_
_geom_bond_atom_site_label_1
_geom_bond_atom_site_label_2
_geom_bond_distance
_geom_bond_site_symmetry_2
Li0 O2 1.944957 1_556
Li0 O10 1.970266 1_555
Li0 O11 1.970849 1_565
Li0 O14 1.984381 1_455
Li1 O4 1.754213 1_555
Li1 O13 1.947362 1_556
Li1 O15 1.947381 1_566
Li1 O8 2.021098 1_666
Li2 O3 1.760999 1_555
Li2 O9 1.951960 1_555
Li2 O0 1.969858 1_655
Li2 O5 1.972045 1_665
Li3 O12 1.919384 1_555
Li3 O1 1.968630 1_655
Li3 O7 1.973872 1_555
Li3 O6 1.973923 1_545
Cr0 O3 1.954542 1_555
Cr0 O2 1.958981 1_555
Cr0 O6 1.975387 1_555
Cr0 O7 1.975547 1_555
Cr0 O15 2.039191 1_565
Cr0 O13 2.039995 1_555
Cr1 O12 1.947371 1_555
Cr1 O4 1.954731 1_555
Cr1 O9 1.961963 1_555
Cr1 O14 1.981485 1_555
Cr1 O0 1.982748 1_655
Cr1 O10 1.988673 1_555
Cr2 O12 1.946905 1_555
Cr2 O4 1.955168 1_545
Cr2 O9 1.958610 1_545
Cr2 O5 1.979724 1_655
Cr2 O14 1.981438 1_555
Cr2 O11 1.989354 1_555
Co0 O1 1.960382 1_555
Co0 O6 1.961140 1_555
Co0 O7 1.961284 1_555
Co0 O0 2.002760 1_555
Co0 O5 2.003655 1_555
Co0 O9 2.023980 1_555
Co1 O10 1.940100 1_555
Co1 O11 1.940393 1_555
Co1 O14 1.945454 1_555
Co1 O13 2.014952 1_556
Co1 O15 2.015111 1_556
Co1 O8 2.039876 1_556
O0 Ti2 2.010779 1_565
O1 Ti1 1.999520 1_555
O1 Ti0 1.999888 1_555
O2 Ti1 1.958352 1_555
O2 Ti0 1.958570 1_555
O3 Ti1 1.947331 1_665
O3 Ti0 1.947705 1_655
O4 Ti2 1.925615 1_665
O5 Ti2 2.014145 1_555
O6 Ti0 2.001347 1_555
O7 Ti1 2.000966 1_555
O8 Ti0 1.994882 1_545
O8 Ti1 1.996262 1_555
O10 Ti2 1.985660 1_555
O11 Ti2 1.984791 1_555
O12 Ti2 1.957045 1_555
O13 Ti0 1.956014 1_655
O15 Ti1 1.956431 1_655
