# generated using pymatgen
data_Li2Cr3CoO8
_symmetry_space_group_name_H-M   'P 1'
_cell_length_a   5.01851064
_cell_length_b   5.72974227
_cell_length_c   10.28932685
_cell_angle_alpha   74.26897938
_cell_angle_beta   77.22525888
_cell_angle_gamma   74.21099457
_symmetry_Int_Tables_number   1
_chemical_formula_structural   Li2Cr3CoO8
_chemical_formula_sum   'Li4 Cr6 Co2 O16'
_cell_volume   270.55081086
_cell_formula_units_Z   2
loop_
 _symmetry_equiv_pos_site_id
 _symmetry_equiv_pos_as_xyz
  1  'x, y, z'
loop_
 _atom_site_type_symbol
 _atom_site_label
 _atom_site_symmetry_multiplicity
 _atom_site_fract_x
 _atom_site_fract_y
 _atom_site_fract_z
 _atom_site_occupancy
  Li  Li0  1  0.00609733  0.23338910  0.49574960  1
  Li  Li1  1  0.00064656  0.62100000  0.25136771  1
  Li  Li2  1  0.99722141  0.99365295  0.00754544  1
  Li  Li3  1  0.99362685  0.40281672  0.74741206  1
  Cr  Cr0  1  0.49965751  0.31443973  0.12696256  1
  Cr  Cr1  1  0.51226105  0.06062754  0.62578198  1
  Cr  Cr2  1  0.50499913  0.93596655  0.37123743  1
  Cr  Cr3  1  0.48860258  0.56959004  0.62002518  1
  Cr  Cr4  1  0.50052535  0.18230660  0.87468154  1
  Cr  Cr5  1  0.49649076  0.68612968  0.87853383  1
  Co  Co0  1  0.49692382  0.44004676  0.37554068  1
  Co  Co1  1  0.50014151  0.81064050  0.12649041  1
  O  O0  1  0.29975157  0.13790108  0.05625117  1
  O  O1  1  0.28828405  0.27674114  0.31039199  1
  O  O2  1  0.28283121  0.65158910  0.06363879  1
  O  O3  1  0.28261503  0.02348370  0.81150250  1
  O  O4  1  0.28241297  0.39106743  0.55967456  1
  O  O5  1  0.29691776  0.76512524  0.30554772  1
  O  O6  1  0.29687665  0.90414741  0.55319506  1
  O  O7  1  0.29610503  0.51520970  0.80480772  1
  O  O8  1  0.69955827  0.48624623  0.19741444  1
  O  O9  1  0.70265981  0.11329681  0.44287941  1
  O  O10  1  0.71531632  0.59826055  0.43729437  1
  O  O11  1  0.71642104  0.97350151  0.18784038  1
  O  O12  1  0.71963565  0.23774746  0.68711321  1
  O  O13  1  0.70194728  0.72352792  0.69558053  1
  O  O14  1  0.71358352  0.34902287  0.94052954  1
  O  O15  1  0.70632398  0.85233169  0.94597120  1
loop_
_geom_bond_atom_site_label_1
_geom_bond_atom_site_label_2
_geom_bond_distance
_geom_bond_site_symmetry_2
Li0 O9 2.056185 1_455
Li0 O6 2.077585 1_545
Li0 O1 2.108255 1_555
Li0 O4 2.139891 1_555
Li0 O12 2.167861 1_455
Li0 O10 2.215415 1_455
Li1 O8 2.103750 1_455
Li1 O10 2.117103 1_455
Li1 O5 2.118439 1_555
Li1 O2 2.123457 1_555
Li1 O1 2.128848 1_555
Li1 O11 2.160990 1_455
Li2 O11 2.063229 1_555
Li2 O2 2.110123 1_655
Li2 O0 2.117381 1_665
Li2 O15 2.125745 1_554
Li2 O14 2.177876 1_564
Li2 O3 2.195009 1_664
Li3 O13 2.038113 1_555
Li3 O7 2.049982 1_655
Li3 O12 2.138547 1_555
Li3 O4 2.148423 1_655
Li3 O14 2.164984 1_555
Li3 O3 2.278727 1_655
Cr0 O8 1.935699 1_555
Cr0 O1 1.937085 1_555
Cr0 O2 1.956394 1_555
Cr0 O0 1.957833 1_555
Cr0 O14 1.967363 1_554
Cr0 O11 1.968056 1_545
Cr1 O9 1.897240 1_555
Cr1 O13 1.924116 1_545
Cr1 O12 1.929689 1_555
Cr1 O6 1.943598 1_545
Cr1 O4 1.959110 1_555
Cr1 O3 1.991029 1_555
Cr2 O6 1.919145 1_555
Cr2 O5 1.932018 1_555
Cr2 O11 1.936902 1_555
Cr2 O10 1.952642 1_555
Cr2 O9 1.959014 1_565
Cr2 O1 1.967204 1_565
Cr3 O6 1.909807 1_555
Cr3 O7 1.917168 1_555
Cr3 O4 1.925415 1_555
Cr3 O13 1.944866 1_555
Cr3 O10 1.960806 1_555
Cr3 O12 1.969413 1_555
Cr4 O0 1.902508 1_556
Cr4 O3 1.903517 1_555
Cr4 O15 1.923476 1_545
Cr4 O7 1.930123 1_555
Cr4 O14 1.934409 1_555
Cr4 O12 1.988442 1_555
Cr5 O13 1.922463 1_555
Cr5 O15 1.929877 1_555
Cr5 O14 1.954166 1_555
Cr5 O7 1.954995 1_555
Cr5 O2 1.955597 1_556
Cr5 O3 1.959462 1_565
Co0 O8 1.876839 1_555
Co0 O5 1.889544 1_555
Co0 O10 1.894135 1_555
Co0 O1 1.898656 1_555
Co0 O9 1.900593 1_555
Co0 O4 1.949701 1_555
Co1 O5 1.885675 1_555
Co1 O8 1.887871 1_555
Co1 O0 1.900033 1_565
Co1 O2 1.900108 1_555
Co1 O11 1.902876 1_555
Co1 O15 1.903079 1_554
