# generated using pymatgen
data_Ag2C4Br3N
_symmetry_space_group_name_H-M   'P 1'
_cell_length_a   7.11152000
_cell_length_b   9.55245600
_cell_length_c   14.84028200
_cell_angle_alpha   90.00000000
_cell_angle_beta   90.00000000
_cell_angle_gamma   90.00000000
_symmetry_Int_Tables_number   1
_chemical_formula_structural   Ag2C4Br3N
_chemical_formula_sum   'Ag8 C16 Br12 N4'
_cell_volume   1008.13718825
_cell_formula_units_Z   4
loop_
 _symmetry_equiv_pos_site_id
 _symmetry_equiv_pos_as_xyz
  1  'x, y, z'
loop_
 _atom_site_type_symbol
 _atom_site_label
 _atom_site_symmetry_multiplicity
 _atom_site_fract_x
 _atom_site_fract_y
 _atom_site_fract_z
 _atom_site_occupancy
  Ag  Ag0  1  0.49397100  0.09863300  0.59596000  1
  Ag  Ag1  1  0.00602900  0.40136700  0.09596000  1
  Ag  Ag2  1  0.99397100  0.90136700  0.40404000  1
  Ag  Ag3  1  0.50602900  0.59863300  0.90404000  1
  Ag  Ag4  1  0.50602900  0.90136700  0.40404000  1
  Ag  Ag5  1  0.99397100  0.59863300  0.90404000  1
  Ag  Ag6  1  0.00602900  0.09863300  0.59596000  1
  Ag  Ag7  1  0.49397100  0.40136700  0.09596000  1
  C  C0  1  0.25000000  0.40635600  0.67961600  1
  C  C1  1  0.25000000  0.09364400  0.17961600  1
  C  C2  1  0.75000000  0.59364400  0.32038400  1
  C  C3  1  0.75000000  0.90635600  0.82038400  1
  C  C4  1  0.25000000  0.49039000  0.60000800  1
  C  C5  1  0.25000000  0.00961000  0.10000800  1
  C  C6  1  0.75000000  0.50961000  0.39999200  1
  C  C7  1  0.75000000  0.99039000  0.89999200  1
  C  C8  1  0.13714400  0.61781400  0.62690400  1
  C  C9  1  0.36285600  0.88218600  0.12690400  1
  C  C10  1  0.63714400  0.38218600  0.37309600  1
  C  C11  1  0.86285600  0.11781400  0.87309600  1
  C  C12  1  0.86285600  0.38218600  0.37309600  1
  C  C13  1  0.63714400  0.11781400  0.87309600  1
  C  C14  1  0.36285600  0.61781400  0.62690400  1
  C  C15  1  0.13714400  0.88218600  0.12690400  1
  Br  Br0  1  0.25000000  0.12903400  0.45452900  1
  Br  Br1  1  0.25000000  0.37096600  0.95452900  1
  Br  Br2  1  0.75000000  0.87096600  0.54547100  1
  Br  Br3  1  0.75000000  0.62903400  0.04547100  1
  Br  Br4  1  0.75000000  0.29167000  0.59869100  1
  Br  Br5  1  0.75000000  0.20833000  0.09869100  1
  Br  Br6  1  0.25000000  0.70833000  0.40130900  1
  Br  Br7  1  0.25000000  0.79167000  0.90130900  1
  Br  Br8  1  0.25000000  0.97762100  0.69860100  1
  Br  Br9  1  0.25000000  0.52237900  0.19860100  1
  Br  Br10  1  0.75000000  0.02237900  0.30139900  1
  Br  Br11  1  0.75000000  0.47762100  0.80139900  1
  N  N0  1  0.25000000  0.55129000  0.70678100  1
  N  N1  1  0.25000000  0.94871000  0.20678100  1
  N  N2  1  0.75000000  0.44871000  0.29321900  1
  N  N3  1  0.75000000  0.05129000  0.79321900  1
loop_
_geom_bond_atom_site_label_1
_geom_bond_atom_site_label_2
_geom_bond_distance
_geom_bond_site_symmetry_2
Ag0 Br8 2.581994 1_545
Ag0 Br4 2.591726 1_555
Ag0 Br0 2.738586 1_555
Ag0 Br2 2.933636 1_545
Ag1 Br9 2.581994 1_555
Ag1 Br5 2.591726 1_455
Ag1 Br1 2.738586 1_554
Ag1 Br3 2.933636 1_455
Ag2 Br10 2.581994 1_565
Ag2 Br6 2.591726 1_655
Ag2 Br2 2.738586 1_555
Ag2 Br0 2.933636 1_665
Ag3 Br11 2.581994 1_555
Ag3 Br7 2.591726 1_555
Ag3 Br3 2.738586 1_556
Ag3 Br1 2.933636 1_555
Ag4 Br10 2.581994 1_565
Ag4 Br6 2.591726 1_555
Ag4 Br2 2.738586 1_555
Ag4 Br0 2.933636 1_565
Ag5 Br11 2.581994 1_555
Ag5 Br7 2.591726 1_655
Ag5 Br3 2.738586 1_556
Ag5 Br1 2.933636 1_655
Ag6 Br8 2.581994 1_545
Ag6 Br4 2.591726 1_455
Ag6 Br0 2.738586 1_555
Ag6 Br2 2.933636 1_445
Ag7 Br9 2.581994 1_555
Ag7 Br5 2.591726 1_555
Ag7 Br1 2.738586 1_554
Ag7 Br3 2.933636 1_555
C0 C4 1.428319 1_555
C0 N0 1.441975 1_555
C1 C5 1.428319 1_555
C1 N1 1.441975 1_545
C2 C6 1.428319 1_555
C2 N2 1.441975 1_555
C3 C7 1.428319 1_555
C3 N3 1.441975 1_565
C4 C8 1.511639 1_555
C4 N0 1.687957 1_555
C5 C9 1.511639 1_545
C5 N1 1.687957 1_545
C6 N2 1.687957 1_555
C7 N3 1.687957 1_565
C8 N0 1.566243 1_555
C9 N1 1.566243 1_555
C10 C6 1.511639 1_555
C10 N2 1.566243 1_555
C10 C12 1.605155 1_555
C11 C7 1.511639 1_545
C11 N3 1.566243 1_555
C11 C13 1.605155 1_555
C12 C6 1.511639 1_555
C12 N2 1.566243 1_555
C13 C7 1.511639 1_545
C13 N3 1.566243 1_555
C14 C4 1.511639 1_555
C14 N0 1.566243 1_555
C14 C8 1.605155 1_555
C15 C5 1.511639 1_565
C15 N1 1.566243 1_555
C15 C9 1.605155 1_555
