# generated using pymatgen
data_Li4VP6(H4O11)2
_symmetry_space_group_name_H-M   'P 1'
_cell_length_a   7.00158300
_cell_length_b   7.55078302
_cell_length_c   8.50755926
_cell_angle_alpha   84.74528847
_cell_angle_beta   76.60182786
_cell_angle_gamma   85.81388336
_symmetry_Int_Tables_number   1
_chemical_formula_structural   Li4VP6(H4O11)2
_chemical_formula_sum   'Li4 V1 P6 H8 O22'
_cell_volume   435.06994195
_cell_formula_units_Z   1
loop_
 _symmetry_equiv_pos_site_id
 _symmetry_equiv_pos_as_xyz
  1  'x, y, z'
loop_
 _atom_site_type_symbol
 _atom_site_label
 _atom_site_symmetry_multiplicity
 _atom_site_fract_x
 _atom_site_fract_y
 _atom_site_fract_z
 _atom_site_occupancy
  Li  Li0  1  0.92975600  0.65483200  0.41424100  1
  Li  Li1  1  0.66993400  0.56416900  0.77210800  1
  Li  Li2  1  0.33006600  0.43583100  0.22789200  1
  Li  Li3  1  0.07024400  0.34516800  0.58575900  1
  V  V0  1  0.00000000  0.00000000  0.00000000  1
  P  P0  1  0.77911300  0.98107400  0.69577500  1
  P  P1  1  0.55974100  0.78866900  0.16509500  1
  P  P2  1  0.34106000  0.70709500  0.49234300  1
  P  P3  1  0.65894000  0.29290500  0.50765700  1
  P  P4  1  0.44025900  0.21133100  0.83490500  1
  P  P5  1  0.22088700  0.01892600  0.30422500  1
  H  H0  1  0.25953300  0.75977500  0.81010400  1
  H  H1  1  0.27554400  0.73000200  0.99165600  1
  H  H2  1  0.97968200  0.60676100  0.11201800  1
  H  H3  1  0.03487800  0.58851900  0.81285900  1
  H  H4  1  0.96512200  0.41148100  0.18714100  1
  H  H5  1  0.02031800  0.39323900  0.88798200  1
  H  H6  1  0.72445600  0.26999800  0.00834400  1
  H  H7  1  0.74046700  0.24022500  0.18989600  1
  O  O0  1  0.43674700  0.97945300  0.18525500  1
  O  O1  1  0.24565000  0.90827400  0.47228000  1
  O  O2  1  0.80103000  0.78815000  0.66564500  1
  O  O3  1  0.06763100  0.93410100  0.24114800  1
  O  O4  1  0.77013700  0.82210300  0.09188400  1
  O  O5  1  0.17907700  0.76806000  0.92363500  1
  O  O6  1  0.54560600  0.71859100  0.35447400  1
  O  O7  1  0.39680500  0.68169800  0.65226300  1
  O  O8  1  0.46005300  0.66089500  0.08872400  1
  O  O9  1  0.98074800  0.47517300  0.80330100  1
  O  O10  1  0.20890200  0.57829900  0.44950500  1
  O  O11  1  0.79109800  0.42170100  0.55049500  1
  O  O12  1  0.01925200  0.52482700  0.19669900  1
  O  O13  1  0.53994700  0.33910500  0.91127600  1
  O  O14  1  0.60319500  0.31830200  0.34773700  1
  O  O15  1  0.45439400  0.28140900  0.64552600  1
  O  O16  1  0.82092300  0.23194000  0.07636500  1
  O  O17  1  0.22986300  0.17789700  0.90811600  1
  O  O18  1  0.93236900  0.06589900  0.75885200  1
  O  O19  1  0.19897000  0.21185000  0.33435500  1
  O  O20  1  0.75435000  0.09172600  0.52772000  1
  O  O21  1  0.56325300  0.02054700  0.81474500  1
loop_
_geom_bond_atom_site_label_1
_geom_bond_atom_site_label_2
_geom_bond_distance
_geom_bond_site_symmetry_2
Li0 O10 2.078215 1_655
Li0 O12 2.118270 1_655
Li0 O11 2.176960 1_555
Li0 O2 2.401840 1_555
Li0 O3 2.572285 1_655
Li1 O2 2.020868 1_555
Li1 O13 2.115654 1_555
Li1 O11 2.220048 1_555
Li1 O9 2.297667 1_555
Li1 O7 2.444225 1_555
Li2 O19 2.020868 1_555
Li2 O8 2.115654 1_555
Li2 O10 2.220048 1_555
Li2 O12 2.297667 1_555
Li2 O14 2.444225 1_555
Li3 O11 2.078215 1_455
Li3 O9 2.118270 1_455
Li3 O10 2.176960 1_555
Li3 O19 2.401840 1_555
Li3 O18 2.572285 1_455
H0 O5 1.003953 1_555
H0 O7 1.593329 1_555
H1 O5 0.997999 1_555
H1 O8 1.714702 1_556
H2 O12 0.982019 1_655
H3 O9 0.978323 1_455
H4 O12 0.978323 1_655
H5 O9 0.982019 1_455
H6 O16 0.997999 1_555
H6 O13 1.714702 1_554
H7 O16 1.003953 1_555
H7 O14 1.593329 1_555
O0 P1 1.625403 1_555
O0 P5 1.636476 1_565
O1 P2 1.624847 1_555
O1 P5 1.627026 1_565
O2 P0 1.492930 1_555
O3 P5 1.509887 1_565
O3 V0 2.215769 1_565
O4 P1 1.490635 1_555
O4 V0 2.132099 1_665
O5 V0 2.138137 1_566
O6 P2 1.629528 1_555
O6 P1 1.631930 1_555
O7 P2 1.492490 1_555
O8 P1 1.504474 1_555
O10 P2 1.512410 1_555
O11 P3 1.512410 1_555
O13 P4 1.504474 1_555
O14 P3 1.492490 1_555
O15 P3 1.629528 1_555
O15 P4 1.631930 1_555
O16 V0 2.138137 1_655
O17 P4 1.490635 1_555
O17 V0 2.132099 1_556
O18 P0 1.509887 1_545
O18 V0 2.215769 1_656
O19 P5 1.492930 1_555
O20 P3 1.624847 1_555
O20 P0 1.627026 1_545
O21 P4 1.625403 1_555
O21 P0 1.636476 1_545
