# generated using pymatgen
data_SrCaI4
_symmetry_space_group_name_H-M   'P 1'
_cell_length_a   10.35690660
_cell_length_b   10.35690660
_cell_length_c   13.06277547
_cell_angle_alpha   71.49894516
_cell_angle_beta   71.49894516
_cell_angle_gamma   84.09618303
_symmetry_Int_Tables_number   1
_chemical_formula_structural   SrCaI4
_chemical_formula_sum   'Sr4 Ca4 I16'
_cell_volume   1260.09166564
_cell_formula_units_Z   4
loop_
 _symmetry_equiv_pos_site_id
 _symmetry_equiv_pos_as_xyz
  1  'x, y, z'
loop_
 _atom_site_type_symbol
 _atom_site_label
 _atom_site_symmetry_multiplicity
 _atom_site_fract_x
 _atom_site_fract_y
 _atom_site_fract_z
 _atom_site_occupancy
  Sr  Sr0  1  0.69555700  0.69555700  0.65066800  1
  Sr  Sr1  1  0.69583900  0.30416100  0.00000000  1
  Sr  Sr2  1  0.30416100  0.69583900  0.00000000  1
  Sr  Sr3  1  0.30444300  0.30444300  0.34933200  1
  Ca  Ca0  1  0.68212200  0.68212200  0.15838100  1
  Ca  Ca1  1  0.68299300  0.31700700  0.50000000  1
  Ca  Ca2  1  0.31700700  0.68299300  0.50000000  1
  Ca  Ca3  1  0.31787800  0.31787800  0.84161900  1
  I  I0  1  0.01359000  0.66096900  0.57965200  1
  I  I1  1  0.66096900  0.01359000  0.57965200  1
  I  I2  1  0.33921500  0.01398200  0.91026600  1
  I  I3  1  0.01398200  0.33921500  0.91026600  1
  I  I4  1  0.65252700  0.65252700  0.92722300  1
  I  I5  1  0.65019300  0.65019300  0.42003700  1
  I  I6  1  0.34787300  0.65182300  0.74600500  1
  I  I7  1  0.65182300  0.34787300  0.74600500  1
  I  I8  1  0.65212700  0.34817700  0.25399500  1
  I  I9  1  0.34817700  0.65212700  0.25399500  1
  I  I10  1  0.34980700  0.34980700  0.57996300  1
  I  I11  1  0.34747300  0.34747300  0.07277700  1
  I  I12  1  0.66078500  0.98601800  0.08973400  1
  I  I13  1  0.98601800  0.66078500  0.08973400  1
  I  I14  1  0.33903100  0.98641000  0.42034800  1
  I  I15  1  0.98641000  0.33903100  0.42034800  1
loop_
_geom_bond_atom_site_label_1
_geom_bond_atom_site_label_2
_geom_bond_distance
_geom_bond_site_symmetry_2
Ca0 I13 2.991771 1_555
Ca0 I12 2.991771 1_555
Ca0 I5 3.238668 1_555
Ca0 I4 3.240335 1_554
Ca0 I9 3.294222 1_555
Ca0 I8 3.294222 1_555
Ca1 I1 2.988554 1_555
Ca1 I15 2.988554 1_555
Ca1 I7 3.241202 1_555
Ca1 I8 3.241202 1_555
Ca1 I10 3.287979 1_555
Ca1 I5 3.287979 1_555
Ca2 I0 2.988554 1_555
Ca2 I14 2.988554 1_555
Ca2 I6 3.241202 1_555
Ca2 I9 3.241202 1_555
Ca2 I10 3.287979 1_555
Ca2 I5 3.287979 1_555
Ca3 I3 2.991771 1_555
Ca3 I2 2.991771 1_555
Ca3 I10 3.238668 1_555
Ca3 I11 3.240335 1_556
Ca3 I7 3.294222 1_555
Ca3 I6 3.294222 1_555
I0 Sr0 3.141213 1_455
I1 Sr0 3.141213 1_545
I2 Sr2 3.144440 1_546
I3 Sr1 3.144440 1_456
I4 Sr0 3.383085 1_555
I4 Sr2 3.447242 1_556
I4 Sr1 3.447242 1_556
I5 Sr0 3.370423 1_555
I6 Sr2 3.374207 1_556
I6 Sr0 3.443006 1_555
I7 Sr1 3.374207 1_556
I7 Sr0 3.443006 1_555
I8 Sr1 3.374207 1_555
I8 Sr3 3.443006 1_555
I9 Sr2 3.374207 1_555
I9 Sr3 3.443006 1_555
I10 Sr3 3.370423 1_555
I11 Sr3 3.383085 1_555
I11 Sr2 3.447242 1_555
I11 Sr1 3.447242 1_555
I12 Sr1 3.144440 1_565
I13 Sr2 3.144440 1_655
I14 Sr3 3.141213 1_565
I15 Sr3 3.141213 1_655
