# generated using pymatgen
data_V7(PO4)6
_symmetry_space_group_name_H-M   'P 1'
_cell_length_a   6.36934780
_cell_length_b   8.05528170
_cell_length_c   9.21701997
_cell_angle_alpha   105.32053351
_cell_angle_beta   108.55912209
_cell_angle_gamma   101.67641690
_symmetry_Int_Tables_number   1
_chemical_formula_structural   V7(PO4)6
_chemical_formula_sum   'V7 P6 O24'
_cell_volume   410.59996684
_cell_formula_units_Z   1
loop_
 _symmetry_equiv_pos_site_id
 _symmetry_equiv_pos_as_xyz
  1  'x, y, z'
loop_
 _atom_site_type_symbol
 _atom_site_label
 _atom_site_symmetry_multiplicity
 _atom_site_fract_x
 _atom_site_fract_y
 _atom_site_fract_z
 _atom_site_occupancy
  V  V0  1  0.95709006  0.28678610  0.48328978  1
  V  V1  1  0.72130842  0.18896452  0.72127820  1
  V  V2  1  0.39721462  0.46099781  0.11293126  1
  V  V3  1  0.60278538  0.53900219  0.88706874  1
  V  V4  1  0.27869158  0.81103548  0.27872180  1
  V  V5  1  0.04290994  0.71321390  0.51671022  1
  V  V6  1  -0.00000000  -0.00000000  -0.00000000  1
  P  P0  1  0.91633322  0.40893609  0.16587260  1
  P  P1  1  0.77565896  0.86475859  0.22921684  1
  P  P2  1  0.39945711  0.23900297  0.37578381  1
  P  P3  1  0.60054289  0.76099703  0.62421619  1
  P  P4  1  0.22434104  0.13524141  0.77078316  1
  P  P5  1  0.08366678  0.59106391  0.83412740  1
  O  O0  1  0.88765985  0.21737460  0.07276844  1
  O  O1  1  0.94595253  0.45289847  0.34656575  1
  O  O2  1  0.79574574  0.06129390  0.29624370  1
  O  O3  1  0.98720556  0.82119343  0.33399914  1
  O  O4  1  0.77292179  0.81550785  0.05364691  1
  O  O5  1  0.70261030  0.46422610  0.08709232  1
  O  O6  1  0.86802645  0.46290653  0.83562977  1
  O  O7  1  0.63153719  0.23515573  0.50008601  1
  O  O8  1  0.75294713  0.72524076  0.53001290  1
  O  O9  1  0.54965360  0.74685503  0.22530318  1
  O  O10  1  0.45596210  0.37759660  0.30103051  1
  O  O11  1  0.27417807  0.04860695  0.23773813  1
  O  O12  1  0.72582193  0.95139305  0.76226187  1
  O  O13  1  0.54403790  0.62240340  0.69896949  1
  O  O14  1  0.45034640  0.25314497  0.77469682  1
  O  O15  1  0.24705287  0.27475924  0.46998710  1
  O  O16  1  0.36846281  0.76484427  0.49991399  1
  O  O17  1  0.13197355  0.53709347  0.16437023  1
  O  O18  1  0.29738970  0.53577390  0.91290768  1
  O  O19  1  0.22707821  0.18449215  0.94635309  1
  O  O20  1  0.01279444  0.17880657  0.66600086  1
  O  O21  1  0.20425426  0.93870610  0.70375630  1
  O  O22  1  0.05404747  0.54710153  0.65343425  1
  O  O23  1  0.11234015  0.78262540  0.92723156  1
loop_
_geom_bond_atom_site_label_1
_geom_bond_atom_site_label_2
_geom_bond_distance
_geom_bond_site_symmetry_2
O0 P0 1.495755 1_555
O0 V6 2.054243 1_655
O1 P0 1.547907 1_555
O1 V0 2.063045 1_555
O1 V5 2.087910 1_655
O2 P1 1.501749 1_545
O2 V0 1.946651 1_555
O3 P1 1.553555 1_555
O3 V5 2.058420 1_655
O3 V4 2.086803 1_655
O4 P1 1.554463 1_555
O4 V6 2.125683 1_665
O4 V3 2.156251 1_554
O5 P0 1.538105 1_555
O5 V2 2.029478 1_555
O5 V3 2.040019 1_554
O6 P5 1.548590 1_655
O6 V1 2.040316 1_555
O6 V3 2.056720 1_555
O7 P2 1.567766 1_555
O7 V1 2.089674 1_555
O7 V0 2.094251 1_555
O8 P3 1.515483 1_555
O8 V5 1.909360 1_655
O9 P1 1.539790 1_555
O9 V4 2.062964 1_555
O9 V2 2.124219 1_555
O10 P2 1.500773 1_555
O10 V2 1.975199 1_555
O11 P2 1.560449 1_555
O11 V4 2.050158 1_545
O11 V6 2.199650 1_555
O12 P3 1.560449 1_555
O12 V1 2.050158 1_565
O12 V6 2.199650 1_666
O13 P3 1.500773 1_555
O13 V3 1.975199 1_555
O14 P4 1.539790 1_555
O14 V1 2.062964 1_555
O14 V3 2.124219 1_555
O15 P2 1.515483 1_555
O15 V0 1.909360 1_455
O16 P3 1.567766 1_555
O16 V4 2.089674 1_555
O16 V5 2.094251 1_555
O17 P0 1.548590 1_455
O17 V4 2.040316 1_555
O17 V2 2.056720 1_555
O18 P5 1.538105 1_555
O18 V3 2.029478 1_555
O18 V2 2.040019 1_556
O19 P4 1.554463 1_555
O19 V6 2.125683 1_556
O19 V2 2.156251 1_556
O20 P4 1.553555 1_555
O20 V0 2.058420 1_455
O20 V1 2.086803 1_455
O21 P4 1.501749 1_565
O21 V5 1.946651 1_555
O22 P5 1.547907 1_555
O22 V5 2.063045 1_555
O22 V0 2.087910 1_455
O23 P5 1.495755 1_555
O23 V6 2.054243 1_566
