# generated using pymatgen
data_SrCaI4
_symmetry_space_group_name_H-M   'P 1'
_cell_length_a   10.90240800
_cell_length_b   9.83182800
_cell_length_c   11.36168132
_cell_angle_alpha   56.41853334
_cell_angle_beta   90.00000000
_cell_angle_gamma   90.00000000
_symmetry_Int_Tables_number   1
_chemical_formula_structural   SrCaI4
_chemical_formula_sum   'Sr4 Ca4 I16'
_cell_volume   1014.60394415
_cell_formula_units_Z   4
loop_
 _symmetry_equiv_pos_site_id
 _symmetry_equiv_pos_as_xyz
  1  'x, y, z'
loop_
 _atom_site_type_symbol
 _atom_site_label
 _atom_site_symmetry_multiplicity
 _atom_site_fract_x
 _atom_site_fract_y
 _atom_site_fract_z
 _atom_site_occupancy
  Sr  Sr0  1  0.78411200  0.00775300  0.84558600  1
  Sr  Sr1  1  0.28411200  0.99224700  0.65441400  1
  Sr  Sr2  1  0.71588800  0.00775300  0.34558600  1
  Sr  Sr3  1  0.21588800  0.99224700  0.15441400  1
  Ca  Ca0  1  0.45354000  0.50049700  0.78734000  1
  Ca  Ca1  1  0.95354000  0.49950300  0.71266000  1
  Ca  Ca2  1  0.04646000  0.50049700  0.28734000  1
  Ca  Ca3  1  0.54646000  0.49950300  0.21266000  1
  I  I0  1  0.49233400  0.25057200  0.11422100  1
  I  I1  1  0.94027400  0.18088800  0.01257700  1
  I  I2  1  0.18646600  0.59871100  0.80461300  1
  I  I3  1  0.33487000  0.17883700  0.83010000  1
  I  I4  1  0.83487000  0.82116300  0.66990000  1
  I  I5  1  0.68646600  0.40128900  0.69538700  1
  I  I6  1  0.44027400  0.81911200  0.48742300  1
  I  I7  1  0.99233400  0.74942800  0.38577900  1
  I  I8  1  0.00766600  0.25057200  0.61422100  1
  I  I9  1  0.55972600  0.18088800  0.51257700  1
  I  I10  1  0.31353400  0.59871100  0.30461300  1
  I  I11  1  0.16513000  0.17883700  0.33010000  1
  I  I12  1  0.66513000  0.82116300  0.16990000  1
  I  I13  1  0.81353400  0.40128900  0.19538700  1
  I  I14  1  0.05972600  0.81911200  0.98742300  1
  I  I15  1  0.50766600  0.74942800  0.88577900  1
loop_
_geom_bond_atom_site_label_1
_geom_bond_atom_site_label_2
_geom_bond_distance
_geom_bond_site_symmetry_2
Ca0 I5 3.101453 1_555
Ca0 I6 3.104330 1_555
Ca0 I2 3.107872 1_555
Ca0 I0 3.148732 1_556
Ca0 I3 3.195575 1_555
Ca0 I15 3.258410 1_555
Ca1 I2 3.101453 1_655
Ca1 I1 3.104330 1_556
Ca1 I5 3.107872 1_555
Ca1 I7 3.148732 1_555
Ca1 I4 3.195575 1_555
Ca1 I8 3.258410 1_655
Ca2 I13 3.101453 1_455
Ca2 I14 3.104330 1_554
Ca2 I10 3.107872 1_555
Ca2 I8 3.148732 1_555
Ca2 I11 3.195575 1_555
Ca2 I7 3.258410 1_455
Ca3 I10 3.101453 1_555
Ca3 I9 3.104330 1_555
Ca3 I13 3.107872 1_555
Ca3 I15 3.148732 1_554
Ca3 I12 3.195575 1_555
Ca3 I0 3.258410 1_555
I0 Sr2 3.406970 1_555
I0 Sr3 3.802612 1_545
I1 Sr3 3.429226 1_645
I1 Sr0 3.601217 1_554
I1 Sr2 4.009074 1_555
I2 Sr1 3.422242 1_555
I3 Sr3 3.338807 1_546
I3 Sr1 3.421547 1_545
I4 Sr2 3.338807 1_565
I4 Sr0 3.421547 1_565
I5 Sr0 3.422242 1_555
I6 Sr2 3.429226 1_565
I6 Sr1 3.601217 1_555
I6 Sr3 4.009074 1_555
I7 Sr3 3.406970 1_655
I7 Sr2 3.802612 1_565
I8 Sr0 3.406970 1_455
I8 Sr1 3.802612 1_545
I9 Sr1 3.429226 1_545
I9 Sr2 3.601217 1_555
I9 Sr0 4.009074 1_555
I10 Sr3 3.422242 1_555
I11 Sr1 3.338807 1_545
I11 Sr3 3.421547 1_545
I12 Sr0 3.338807 1_564
I12 Sr2 3.421547 1_565
I13 Sr2 3.422242 1_555
I14 Sr0 3.429226 1_465
I14 Sr3 3.601217 1_556
I14 Sr1 4.009074 1_555
I15 Sr1 3.406970 1_555
I15 Sr0 3.802612 1_565
