# generated using pymatgen
data_CoPO4
_symmetry_space_group_name_H-M   'P 1'
_cell_length_a   8.27856300
_cell_length_b   8.94918600
_cell_length_c   17.77952047
_cell_angle_alpha   60.32789687
_cell_angle_beta   90.00000000
_cell_angle_gamma   90.00000000
_symmetry_Int_Tables_number   1
_chemical_formula_structural   CoPO4
_chemical_formula_sum   'Co12 P12 O48'
_cell_volume   1144.49700675
_cell_formula_units_Z   12
loop_
 _symmetry_equiv_pos_site_id
 _symmetry_equiv_pos_as_xyz
  1  'x, y, z'
loop_
 _atom_site_type_symbol
 _atom_site_label
 _atom_site_symmetry_multiplicity
 _atom_site_fract_x
 _atom_site_fract_y
 _atom_site_fract_z
 _atom_site_occupancy
  Co  Co0  1  0.16481300  0.17979000  0.42726100  1
  Co  Co1  1  0.33782400  0.46684900  0.59344000  1
  Co  Co2  1  0.66062600  0.15241600  0.26499100  1
  Co  Co3  1  0.66481300  0.82021000  0.07273900  1
  Co  Co4  1  0.83937400  0.15241600  0.76499100  1
  Co  Co5  1  0.83518700  0.82021000  0.57273900  1
  Co  Co6  1  0.16217600  0.46684900  0.09344000  1
  Co  Co7  1  0.66217600  0.53315100  0.40656000  1
  Co  Co8  1  0.83782400  0.53315100  0.90656000  1
  Co  Co9  1  0.16062600  0.84758400  0.23500900  1
  Co  Co10  1  0.33937400  0.84758400  0.73500900  1
  Co  Co11  1  0.33518700  0.17979000  0.92726100  1
  P  P0  1  0.27768100  0.81226800  0.07658700  1
  P  P1  1  0.72497800  0.46441700  0.59269900  1
  P  P2  1  0.77768100  0.18773200  0.42341300  1
  P  P3  1  0.77918200  0.84536600  0.22991400  1
  P  P4  1  0.22497800  0.53558300  0.90730100  1
  P  P5  1  0.72081800  0.84536600  0.72991400  1
  P  P6  1  0.27502200  0.53558300  0.40730100  1
  P  P7  1  0.72231900  0.18773200  0.92341300  1
  P  P8  1  0.27918200  0.15463400  0.27008600  1
  P  P9  1  0.22231900  0.81226800  0.57658700  1
  P  P10  1  0.22081800  0.15463400  0.77008600  1
  P  P11  1  0.77502200  0.46441700  0.09269900  1
  O  O0  1  0.73064700  0.23979900  0.82647100  1
  O  O1  1  0.84143600  0.29873000  0.94194100  1
  O  O2  1  0.65596000  0.31609800  0.14705600  1
  O  O3  1  0.54972600  0.21370300  0.94818900  1
  O  O4  1  0.76004700  0.60485200  0.11901100  1
  O  O5  1  0.84404000  0.31609800  0.64705600  1
  O  O6  1  0.95132600  0.87725200  0.19175600  1
  O  O7  1  0.72723900  0.99559300  0.47913600  1
  O  O8  1  0.75137300  0.95488700  0.77383800  1
  O  O9  1  0.15772700  0.10650800  0.34485600  1
  O  O10  1  0.22723900  0.00440700  0.02086400  1
  O  O11  1  0.26935300  0.76020100  0.17352900  1
  O  O12  1  0.23995300  0.39514800  0.88098900  1
  O  O13  1  0.26921100  0.45479500  0.00476000  1
  O  O14  1  0.45132600  0.12274800  0.30824400  1
  O  O15  1  0.75883800  0.65325700  0.29885400  1
  O  O16  1  0.77276100  0.99559300  0.97913600  1
  O  O17  1  0.65772700  0.89349200  0.15514400  1
  O  O18  1  0.25137300  0.04511300  0.72616200  1
  O  O19  1  0.65856400  0.29873000  0.44194100  1
  O  O20  1  0.74862700  0.95488700  0.27383800  1
  O  O21  1  0.74116200  0.65325700  0.79885400  1
  O  O22  1  0.15596000  0.68390200  0.35294400  1
  O  O23  1  0.44820100  0.61037400  0.39086300  1
  O  O24  1  0.15856400  0.70127000  0.05805900  1
  O  O25  1  0.76921100  0.54520500  0.49524000  1
  O  O26  1  0.73078900  0.54520500  0.99524000  1
  O  O27  1  0.23078900  0.45479500  0.50476000  1
  O  O28  1  0.55179900  0.38962600  0.60913700  1
  O  O29  1  0.73995300  0.60485200  0.61901100  1
  O  O30  1  0.04867400  0.12274800  0.80824400  1
  O  O31  1  0.34227300  0.10650800  0.84485600  1
  O  O32  1  0.34404000  0.68390200  0.85294400  1
  O  O33  1  0.94820100  0.38962600  0.10913700  1
  O  O34  1  0.26004700  0.39514800  0.38098900  1
  O  O35  1  0.34143600  0.70127000  0.55805900  1
  O  O36  1  0.27276100  0.00440700  0.52086400  1
  O  O37  1  0.04972600  0.78629700  0.55181100  1
  O  O38  1  0.54867400  0.87725200  0.69175600  1
  O  O39  1  0.24116200  0.34674300  0.70114600  1
  O  O40  1  0.25883800  0.34674300  0.20114600  1
  O  O41  1  0.95027400  0.21370300  0.44818900  1
  O  O42  1  0.24862700  0.04511300  0.22616200  1
  O  O43  1  0.23064700  0.76020100  0.67352900  1
  O  O44  1  0.84227300  0.89349200  0.65514400  1
  O  O45  1  0.76935300  0.23979900  0.32647100  1
  O  O46  1  0.45027400  0.78629700  0.05181100  1
  O  O47  1  0.05179900  0.61037400  0.89086300  1
loop_
_geom_bond_atom_site_label_1
_geom_bond_atom_site_label_2
_geom_bond_distance
_geom_bond_site_symmetry_2
Co0 O34 1.855529 1_555
Co0 O36 1.856223 1_555
Co0 O41 1.869975 1_455
Co0 O9 1.879208 1_555
Co1 O39 1.850642 1_555
Co1 O27 1.857725 1_555
Co1 O35 1.868452 1_555
Co1 O28 1.871472 1_555
Co2 O20 1.845275 1_545
Co2 O14 1.860643 1_555
Co2 O45 1.860878 1_555
Co2 O2 1.871603 1_555
Co3 O4 1.855529 1_555
Co3 O16 1.856223 1_554
Co3 O46 1.869975 1_555
Co3 O17 1.879208 1_555
Co4 O8 1.845275 1_545
Co4 O30 1.860643 1_655
Co4 O0 1.860878 1_555
Co4 O5 1.871603 1_555
Co5 O29 1.855529 1_555
Co5 O7 1.856223 1_555
Co5 O37 1.869975 1_655
Co5 O44 1.879208 1_555
Co6 O40 1.850642 1_555
Co6 O13 1.857725 1_555
Co6 O24 1.868452 1_555
Co6 O33 1.871472 1_455
Co7 O15 1.850642 1_555
Co7 O25 1.857725 1_555
Co7 O19 1.868452 1_555
Co7 O23 1.871472 1_555
Co8 O21 1.850642 1_555
Co8 O26 1.857725 1_555
Co8 O1 1.868452 1_555
Co8 O47 1.871472 1_655
Co9 O42 1.845275 1_565
Co9 O6 1.860643 1_455
Co9 O11 1.860878 1_555
Co9 O22 1.871603 1_555
Co10 O18 1.845275 1_565
Co10 O38 1.860643 1_555
Co10 O43 1.860878 1_555
Co10 O32 1.871603 1_555
Co11 O12 1.855529 1_555
Co11 O10 1.856223 1_556
Co11 O3 1.869975 1_555
Co11 O31 1.879208 1_555
O0 P7 1.548374 1_555
O1 P7 1.546496 1_555
O2 P11 1.548322 1_555
O3 P7 1.546273 1_555
O4 P11 1.547842 1_555
O5 P1 1.548322 1_555
O6 P3 1.543032 1_555
O7 P2 1.557539 1_565
O8 P5 1.546717 1_555
O9 P8 1.548174 1_555
O10 P0 1.557539 1_545
O11 P0 1.548374 1_555
O12 P4 1.547842 1_555
O13 P4 1.555305 1_554
O14 P8 1.543032 1_555
O15 P3 1.549229 1_555
O16 P7 1.557539 1_565
O17 P3 1.548174 1_555
O18 P10 1.546717 1_555
O19 P2 1.546496 1_555
O20 P3 1.546717 1_555
O21 P5 1.549229 1_555
O22 P6 1.548322 1_555
O23 P6 1.547627 1_555
O24 P0 1.546496 1_555
O25 P1 1.555305 1_555
O26 P11 1.555305 1_556
O27 P6 1.555305 1_555
O28 P1 1.547627 1_555
O29 P1 1.547842 1_555
O30 P10 1.543032 1_555
O31 P10 1.548174 1_555
O32 P4 1.548322 1_555
O33 P11 1.547627 1_555
O34 P6 1.547842 1_555
O35 P9 1.546496 1_555
O36 P9 1.557539 1_545
O37 P9 1.546273 1_555
O38 P5 1.543032 1_555
O39 P10 1.549229 1_555
O40 P8 1.549229 1_555
O41 P2 1.546273 1_555
O42 P8 1.546717 1_555
O43 P9 1.548374 1_555
O44 P5 1.548174 1_555
O45 P2 1.548374 1_555
O46 P0 1.546273 1_555
O47 P4 1.547627 1_555
