# generated using pymatgen
data_CoH6(SeO4)2
_symmetry_space_group_name_H-M   'P 1'
_cell_length_a   7.00526900
_cell_length_b   7.21605900
_cell_length_c   8.45501134
_cell_angle_alpha   61.46274728
_cell_angle_beta   90.00000000
_cell_angle_gamma   90.00000000
_symmetry_Int_Tables_number   1
_chemical_formula_structural   CoH6(SeO4)2
_chemical_formula_sum   'Co2 H12 Se4 O16'
_cell_volume   375.47770794
_cell_formula_units_Z   2
loop_
 _symmetry_equiv_pos_site_id
 _symmetry_equiv_pos_as_xyz
  1  'x, y, z'
loop_
 _atom_site_type_symbol
 _atom_site_label
 _atom_site_symmetry_multiplicity
 _atom_site_fract_x
 _atom_site_fract_y
 _atom_site_fract_z
 _atom_site_occupancy
  Co  Co0  1  0.50000000  0.50000000  0.50000000  1
  Co  Co1  1  0.00000000  0.50000000  0.00000000  1
  H  H0  1  0.52946500  0.99493600  0.26415600  1
  H  H1  1  0.97053500  0.99493600  0.76415600  1
  H  H2  1  0.47053500  0.00506400  0.73584400  1
  H  H3  1  0.02946500  0.00506400  0.23584400  1
  H  H4  1  0.79457100  0.61016900  0.61415400  1
  H  H5  1  0.70542900  0.61016900  0.11415400  1
  H  H6  1  0.20542900  0.38983100  0.38584600  1
  H  H7  1  0.29457100  0.38983100  0.88584600  1
  H  H8  1  0.83066300  0.71373800  0.40224500  1
  H  H9  1  0.66933700  0.71373800  0.90224500  1
  H  H10  1  0.16933700  0.28626200  0.59775500  1
  H  H11  1  0.33066300  0.28626200  0.09775500  1
  Se  Se0  1  0.73144700  0.17617200  0.37719700  1
  Se  Se1  1  0.76855300  0.17617200  0.87719700  1
  Se  Se2  1  0.26855300  0.82382800  0.62280300  1
  Se  Se3  1  0.23144700  0.82382800  0.12280300  1
  O  O0  1  0.66519100  0.42325000  0.33404900  1
  O  O1  1  0.83480900  0.42325000  0.83404900  1
  O  O2  1  0.33480900  0.57675000  0.66595100  1
  O  O3  1  0.16519100  0.57675000  0.16595100  1
  O  O4  1  0.92442400  0.22214500  0.24039600  1
  O  O5  1  0.57557600  0.22214500  0.74039600  1
  O  O6  1  0.07557600  0.77785500  0.75960400  1
  O  O7  1  0.42442400  0.77785500  0.25960400  1
  O  O8  1  0.54267700  0.14491500  0.24122100  1
  O  O9  1  0.95732300  0.14491500  0.74122100  1
  O  O10  1  0.45732300  0.85508500  0.75877900  1
  O  O11  1  0.04267700  0.85508500  0.25877900  1
  O  O12  1  0.73302300  0.69355200  0.49426100  1
  O  O13  1  0.76697700  0.69355200  0.99426100  1
  O  O14  1  0.26697700  0.30644800  0.50573900  1
  O  O15  1  0.23302300  0.30644800  0.00573900  1
loop_
_geom_bond_atom_site_label_1
_geom_bond_atom_site_label_2
_geom_bond_distance
_geom_bond_site_symmetry_2
Co0 O0 2.087362 1_555
Co0 O2 2.087362 1_555
Co0 O5 2.130228 1_555
Co0 O7 2.130228 1_555
Co0 O12 2.133780 1_555
Co0 O14 2.133780 1_555
Co1 O3 2.087362 1_555
Co1 O1 2.087362 1_454
Co1 O6 2.130228 1_554
Co1 O4 2.130228 1_455
Co1 O15 2.133780 1_555
Co1 O13 2.133780 1_454
H0 O8 1.008430 1_565
H0 O7 1.747676 1_555
H1 O9 1.008430 1_565
H1 O6 1.747676 1_655
H2 O10 1.008430 1_545
H2 O5 1.747676 1_555
H3 O11 1.008430 1_545
H3 O4 1.747676 1_455
H4 O12 0.996367 1_555
H4 O1 1.720290 1_555
H5 O13 0.996367 1_554
H5 O0 1.720290 1_555
H6 O14 0.996367 1_555
H6 O3 1.720290 1_555
H7 O15 0.996367 1_556
H7 O2 1.720290 1_555
H8 O12 0.993009 1_555
H9 O13 0.993009 1_555
H10 O14 0.993009 1_555
H11 O15 0.993009 1_555
O0 Se0 1.704665 1_555
O1 Se1 1.704665 1_555
O2 Se2 1.704665 1_555
O3 Se3 1.704665 1_555
O4 Se0 1.705519 1_555
O5 Se1 1.705519 1_555
O6 Se2 1.705519 1_555
O7 Se3 1.705519 1_555
O8 Se0 1.835511 1_555
O9 Se1 1.835511 1_555
O10 Se2 1.835511 1_555
O11 Se3 1.835511 1_555
