# generated using pymatgen
data_Ti3V2Cu(PO4)6
_symmetry_space_group_name_H-M   'P 1'
_cell_length_a   8.52993351
_cell_length_b   8.52993351
_cell_length_c   8.52993362
_cell_angle_alpha   61.20196660
_cell_angle_beta   61.20196660
_cell_angle_gamma   61.20195982
_symmetry_Int_Tables_number   1
_chemical_formula_structural   Ti3V2Cu(PO4)6
_chemical_formula_sum   'Ti3 V2 Cu1 P6 O24'
_cell_volume   450.72118525
_cell_formula_units_Z   1
loop_
 _symmetry_equiv_pos_site_id
 _symmetry_equiv_pos_as_xyz
  1  'x, y, z'
loop_
 _atom_site_type_symbol
 _atom_site_label
 _atom_site_symmetry_multiplicity
 _atom_site_fract_x
 _atom_site_fract_y
 _atom_site_fract_z
 _atom_site_occupancy
  Ti  Ti0  1  0.64532300  0.64532300  0.64532300  1
  Ti  Ti1  1  0.85702200  0.85702200  0.85702200  1
  Ti  Ti2  1  0.35443900  0.35443900  0.35443900  1
  V  V0  1  0.00264500  0.00264500  0.00264500  1
  V  V1  1  0.50155700  0.50155700  0.50155700  1
  Cu  Cu0  1  0.14647400  0.14647400  0.14647400  1
  P  P0  1  0.54437500  0.95363900  0.24760300  1
  P  P1  1  0.24760300  0.54437500  0.95363900  1
  P  P2  1  0.95363900  0.24760300  0.54437500  1
  P  P3  1  0.04474500  0.74885800  0.45635300  1
  P  P4  1  0.74885800  0.45635300  0.04474500  1
  P  P5  1  0.45635300  0.04474500  0.74885800  1
  O  O0  1  0.31370500  0.49502800  0.11860900  1
  O  O1  1  0.11860900  0.31370500  0.49502800  1
  O  O2  1  0.49502800  0.11860900  0.31370500  1
  O  O3  1  0.74390700  0.94159800  0.09077400  1
  O  O4  1  0.39596000  0.98025100  0.18237600  1
  O  O5  1  0.57133100  0.75852800  0.41021300  1
  O  O6  1  0.09077400  0.74390700  0.94159800  1
  O  O7  1  0.41021300  0.57133100  0.75852800  1
  O  O8  1  0.99819800  0.81621400  0.61859600  1
  O  O9  1  0.75852800  0.41021300  0.57133100  1
  O  O10  1  0.05063400  0.90065200  0.26410400  1
  O  O11  1  0.81621400  0.61859600  0.99819800  1
  O  O12  1  0.18237600  0.39596000  0.98025100  1
  O  O13  1  0.94159800  0.09077400  0.74390700  1
  O  O14  1  0.24014600  0.58765500  0.44502400  1
  O  O15  1  0.98025100  0.18237600  0.39596000  1
  O  O16  1  0.58765500  0.44502400  0.24014600  1
  O  O17  1  0.90065200  0.26410400  0.05063400  1
  O  O18  1  0.44502400  0.24014600  0.58765500  1
  O  O19  1  0.61859600  0.99819800  0.81621400  1
  O  O20  1  0.26410400  0.05063400  0.90065200  1
  O  O21  1  0.51635700  0.88843300  0.66866400  1
  O  O22  1  0.88843300  0.66866400  0.51635700  1
  O  O23  1  0.66866400  0.51635700  0.88843300  1
loop_
_geom_bond_atom_site_label_1
_geom_bond_atom_site_label_2
_geom_bond_distance
_geom_bond_site_symmetry_2
Cu0 O4 1.983790 1_545
Cu0 O15 1.983790 1_455
Cu0 O12 1.983790 1_554
Cu0 O17 2.214965 1_455
Cu0 O20 2.214965 1_554
Cu0 O10 2.214965 1_545
O0 P1 1.562167 1_554
O0 Ti2 1.884997 1_555
O1 P2 1.562167 1_455
O1 Ti2 1.884997 1_555
O2 P0 1.562167 1_545
O2 Ti2 1.884997 1_555
O3 P0 1.570744 1_555
O3 Ti1 2.070926 1_554
O3 V0 2.199738 1_665
O4 P0 1.497944 1_555
O5 P0 1.568802 1_555
O5 Ti0 2.029594 1_555
O5 V1 2.220496 1_555
O6 P1 1.570744 1_555
O6 Ti1 2.070926 1_455
O6 V0 2.199738 1_566
O7 P1 1.568802 1_555
O7 Ti0 2.029594 1_555
O7 V1 2.220496 1_555
O8 P3 1.555593 1_655
O8 Ti1 1.904235 1_555
O9 P2 1.568802 1_555
O9 Ti0 2.029594 1_555
O9 V1 2.220496 1_555
O10 P3 1.518489 1_555
O10 V0 2.136693 1_565
O11 P4 1.555593 1_556
O11 Ti1 1.904235 1_555
O12 P1 1.497944 1_555
O13 P2 1.570744 1_555
O13 Ti1 2.070926 1_545
O13 V0 2.199738 1_656
O14 P3 1.562985 1_555
O14 Ti2 2.095596 1_555
O14 V1 2.204769 1_555
O15 P2 1.497944 1_555
O16 P4 1.562985 1_555
O16 Ti2 2.095596 1_555
O16 V1 2.204769 1_555
O17 P4 1.518488 1_555
O17 V0 2.136693 1_655
O18 P5 1.562985 1_555
O18 Ti2 2.095596 1_555
O18 V1 2.204769 1_555
O19 P5 1.555593 1_565
O19 Ti1 1.904235 1_555
O20 P5 1.518489 1_555
O20 V0 2.136693 1_556
O21 P5 1.546473 1_565
O21 Ti0 1.881222 1_555
O22 P3 1.546473 1_655
O22 Ti0 1.881222 1_555
O23 P4 1.546473 1_556
O23 Ti0 1.881222 1_555
