# generated using pymatgen
data_KAl11O17
_symmetry_space_group_name_H-M   'P 1'
_cell_length_a   5.65088113
_cell_length_b   5.65088113
_cell_length_c   22.95569600
_cell_angle_alpha   90.00000000
_cell_angle_beta   90.00000000
_cell_angle_gamma   119.71676276
_symmetry_Int_Tables_number   1
_chemical_formula_structural   KAl11O17
_chemical_formula_sum   'K2 Al22 O34'
_cell_volume   636.62822961
_cell_formula_units_Z   2
loop_
 _symmetry_equiv_pos_site_id
 _symmetry_equiv_pos_as_xyz
  1  'x, y, z'
loop_
 _atom_site_type_symbol
 _atom_site_label
 _atom_site_symmetry_multiplicity
 _atom_site_fract_x
 _atom_site_fract_y
 _atom_site_fract_z
 _atom_site_occupancy
  K  K0  1  0.39483400  0.60516600  0.25000000  1
  K  K1  1  0.60516600  0.39483400  0.75000000  1
  Al  Al0  1  0.83291600  0.67038900  0.10636200  1
  Al  Al1  1  0.83291600  0.67038900  0.39363800  1
  Al  Al2  1  0.16526900  0.83473100  0.52533400  1
  Al  Al3  1  0.16744400  0.83255600  0.67475800  1
  Al  Al4  1  0.50000000  0.50000000  0.50000000  1
  Al  Al5  1  0.50000000  0.50000000  0.00000000  1
  Al  Al6  1  0.16744400  0.83255600  0.82524200  1
  Al  Al7  1  0.16526900  0.83473100  0.97466600  1
  Al  Al8  1  0.32904100  0.67095900  0.10431400  1
  Al  Al9  1  0.32904100  0.67095900  0.39568600  1
  Al  Al10  1  0.32961100  0.16708400  0.10636200  1
  Al  Al11  1  0.32961100  0.16708400  0.39363800  1
  Al  Al12  1  0.67038900  0.83291600  0.89363800  1
  Al  Al13  1  0.67038900  0.83291600  0.60636200  1
  Al  Al14  1  0.67095900  0.32904100  0.89568600  1
  Al  Al15  1  0.83255600  0.16744400  0.17475800  1
  Al  Al16  1  0.83473100  0.16526900  0.02533400  1
  Al  Al17  1  0.83255600  0.16744400  0.32524200  1
  Al  Al18  1  0.83473100  0.16526900  0.47466600  1
  Al  Al19  1  0.67095900  0.32904100  0.60431400  1
  Al  Al20  1  0.16708400  0.32961100  0.60636200  1
  Al  Al21  1  0.16708400  0.32961100  0.89363800  1
  O  O0  1  0.81015900  0.65465200  0.54908000  1
  O  O1  1  0.81015900  0.65465200  0.95092000  1
  O  O2  1  0.00127500  0.50681500  0.35560000  1
  O  O3  1  0.00127500  0.50681500  0.14440000  1
  O  O4  1  0.16302900  0.83697100  0.75000000  1
  O  O5  1  0.34194000  0.65806000  0.95005000  1
  O  O6  1  0.49679400  0.50320600  0.14077800  1
  O  O7  1  0.50320600  0.49679400  0.85922200  1
  O  O8  1  0.50320600  0.49679400  0.64077800  1
  O  O9  1  0.49679400  0.50320600  0.35922200  1
  O  O10  1  0.16431300  0.83568700  0.05456500  1
  O  O11  1  0.16431300  0.83568700  0.44543500  1
  O  O12  1  0.34194000  0.65806000  0.54995000  1
  O  O13  1  0.99721600  0.00278400  0.14311800  1
  O  O14  1  0.99721600  0.00278400  0.35688200  1
  O  O15  1  0.65465200  0.81015900  0.04908000  1
  O  O16  1  0.65465200  0.81015900  0.45092000  1
  O  O17  1  0.49318500  0.99872500  0.14440000  1
  O  O18  1  0.49318500  0.99872500  0.35560000  1
  O  O19  1  0.50681500  0.00127500  0.64440000  1
  O  O20  1  0.50681500  0.00127500  0.85560000  1
  O  O21  1  0.34534800  0.18984100  0.54908000  1
  O  O22  1  0.34534800  0.18984100  0.95092000  1
  O  O23  1  0.00278400  0.99721600  0.85688200  1
  O  O24  1  0.83568700  0.16431300  0.94543500  1
  O  O25  1  0.65806000  0.34194000  0.04995000  1
  O  O26  1  0.65806000  0.34194000  0.45005000  1
  O  O27  1  0.00278400  0.99721600  0.64311800  1
  O  O28  1  0.83568700  0.16431300  0.55456500  1
  O  O29  1  0.83697100  0.16302900  0.25000000  1
  O  O30  1  0.99872500  0.49318500  0.64440000  1
  O  O31  1  0.99872500  0.49318500  0.85560000  1
  O  O32  1  0.18984100  0.34534800  0.04908000  1
  O  O33  1  0.18984100  0.34534800  0.45092000  1
loop_
_geom_bond_atom_site_label_1
_geom_bond_atom_site_label_2
_geom_bond_distance
_geom_bond_site_symmetry_2
K0 O9 2.698043 1_555
K0 O6 2.698043 1_555
K0 O29 2.893335 1_455
K0 O29 2.893335 1_565
K0 O3 3.147350 1_555
K0 O17 3.147350 1_555
K0 O2 3.147350 1_555
K0 O18 3.147350 1_555
K1 O7 2.698043 1_555
K1 O8 2.698043 1_555
K1 O4 2.893335 1_655
K1 O4 2.893335 1_545
K1 O30 3.147350 1_555
K1 O31 3.147350 1_555
K1 O20 3.147350 1_555
K1 O19 3.147350 1_555
Al0 O6 1.829024 1_555
Al0 O13 1.836594 1_565
Al0 O3 1.842235 1_655
Al0 O10 2.014702 1_655
Al0 O15 2.038742 1_555
Al0 O25 2.068798 1_555
Al1 O9 1.829024 1_555
Al1 O14 1.836594 1_565
Al1 O2 1.842235 1_655
Al1 O11 2.014702 1_655
Al1 O16 2.038742 1_555
Al1 O26 2.068798 1_555
Al2 O12 1.816826 1_555
Al2 O21 1.826182 1_565
Al2 O0 1.826182 1_455
Al2 O11 1.834161 1_555
Al3 O4 1.727771 1_555
Al3 O27 1.765633 1_555
Al3 O19 1.805456 1_565
Al3 O30 1.805456 1_455
Al4 O21 1.893781 1_555
Al4 O0 1.893781 1_555
Al4 O16 1.893781 1_555
Al4 O33 1.893781 1_555
Al4 O26 1.923860 1_555
Al4 O12 1.923860 1_555
Al5 O32 1.893781 1_555
Al5 O15 1.893781 1_555
Al5 O22 1.893781 1_554
Al5 O1 1.893781 1_554
Al5 O25 1.923860 1_555
Al5 O5 1.923860 1_554
Al6 O4 1.727771 1_555
Al6 O23 1.765633 1_555
Al6 O20 1.805456 1_565
Al6 O31 1.805456 1_455
Al7 O5 1.816826 1_555
Al7 O22 1.826182 1_565
Al7 O1 1.826182 1_455
Al7 O10 1.834161 1_556
Al8 O6 1.840869 1_555
Al8 O3 1.853212 1_555
Al8 O17 1.853212 1_555
Al8 O10 1.973899 1_555
Al8 O15 2.043779 1_555
Al8 O32 2.043779 1_555
Al9 O9 1.840869 1_555
Al9 O2 1.853212 1_555
Al9 O18 1.853212 1_555
Al9 O11 1.973899 1_555
Al9 O16 2.043779 1_555
Al9 O33 2.043779 1_555
Al10 O6 1.829024 1_555
Al10 O13 1.836594 1_455
Al10 O17 1.842235 1_545
Al10 O10 2.014702 1_545
Al10 O32 2.038742 1_555
Al10 O25 2.068798 1_555
Al11 O9 1.829024 1_555
Al11 O14 1.836594 1_455
Al11 O18 1.842235 1_545
Al11 O11 2.014702 1_545
Al11 O33 2.038742 1_555
Al11 O26 2.068798 1_555
Al12 O7 1.829024 1_555
Al12 O23 1.836594 1_655
Al12 O20 1.842235 1_565
Al12 O24 2.014702 1_565
Al12 O1 2.038742 1_555
Al12 O5 2.068798 1_555
Al13 O8 1.829024 1_555
Al13 O27 1.836594 1_655
Al13 O19 1.842235 1_565
Al13 O28 2.014702 1_565
Al13 O0 2.038742 1_555
Al13 O12 2.068798 1_555
Al14 O7 1.840869 1_555
Al14 O20 1.853212 1_555
Al14 O31 1.853212 1_555
Al14 O24 1.973899 1_555
Al14 O22 2.043779 1_555
Al14 O1 2.043779 1_555
Al15 O29 1.727771 1_555
Al15 O13 1.765633 1_555
Al15 O17 1.805456 1_545
Al15 O3 1.805456 1_655
Al16 O25 1.816826 1_555
Al16 O32 1.826182 1_655
Al16 O15 1.826182 1_545
Al16 O24 1.834161 1_554
Al17 O29 1.727771 1_555
Al17 O14 1.765633 1_555
Al17 O2 1.805456 1_655
Al17 O18 1.805456 1_545
Al18 O26 1.816826 1_555
Al18 O33 1.826182 1_655
Al18 O16 1.826182 1_545
Al18 O28 1.834161 1_555
Al19 O8 1.840869 1_555
Al19 O19 1.853212 1_555
Al19 O30 1.853212 1_555
Al19 O28 1.973899 1_555
Al19 O21 2.043779 1_555
Al19 O0 2.043779 1_555
Al20 O8 1.829024 1_555
Al20 O27 1.836594 1_545
Al20 O30 1.842235 1_455
Al20 O28 2.014702 1_455
Al20 O21 2.038742 1_555
Al20 O12 2.068798 1_555
Al21 O7 1.829024 1_555
Al21 O23 1.836594 1_545
Al21 O31 1.842235 1_455
Al21 O24 2.014702 1_455
Al21 O22 2.038742 1_555
Al21 O5 2.068798 1_555
