# generated using pymatgen
data_Li6V9(PO4)8
_symmetry_space_group_name_H-M   'P 1'
_cell_length_a   8.85687400
_cell_length_b   8.97440756
_cell_length_c   9.06956319
_cell_angle_alpha   100.01094518
_cell_angle_beta   109.99164848
_cell_angle_gamma   101.37248112
_symmetry_Int_Tables_number   1
_chemical_formula_structural   Li6V9(PO4)8
_chemical_formula_sum   'Li6 V9 P8 O32'
_cell_volume   640.97996685
_cell_formula_units_Z   1
loop_
 _symmetry_equiv_pos_site_id
 _symmetry_equiv_pos_as_xyz
  1  'x, y, z'
loop_
 _atom_site_type_symbol
 _atom_site_label
 _atom_site_symmetry_multiplicity
 _atom_site_fract_x
 _atom_site_fract_y
 _atom_site_fract_z
 _atom_site_occupancy
  Li  Li0  1  0.87379000  0.63634300  0.99227300  1
  Li  Li1  1  0.76705000  0.03094100  0.27708800  1
  Li  Li2  1  0.30414300  0.29937200  0.34242800  1
  Li  Li3  1  0.69585700  0.70062800  0.65757200  1
  Li  Li4  1  0.23295000  0.96905900  0.72291200  1
  Li  Li5  1  0.12621000  0.36365700  0.00772700  1
  V  V0  1  0.50000000  0.50000000  0.00000000  1
  V  V1  1  0.29563800  0.79252600  0.06029000  1
  V  V2  1  0.87720300  0.70602600  0.43660900  1
  V  V3  1  0.00000000  0.00000000  0.00000000  1
  V  V4  1  0.70194700  0.32231800  0.45096000  1
  V  V5  1  0.50000000  0.00000000  0.50000000  1
  V  V6  1  0.29805300  0.67768200  0.54904000  1
  V  V7  1  0.12279700  0.29397400  0.56339100  1
  V  V8  1  0.70436200  0.20747400  0.93971000  1
  P  P0  1  0.97524400  0.39542900  0.27834000  1
  P  P1  1  0.39273600  0.15581000  0.09126100  1
  P  P2  1  0.48095300  0.66049200  0.29122800  1
  P  P3  1  0.11822300  0.94835700  0.34140400  1
  P  P4  1  0.88177700  0.05164300  0.65859600  1
  P  P5  1  0.51904700  0.33950800  0.70877200  1
  P  P6  1  0.60726400  0.84419000  0.90873900  1
  P  P7  1  0.02475600  0.60457100  0.72166000  1
  O  O0  1  0.96037000  0.30040200  0.11260400  1
  O  O1  1  0.68753400  0.00739100  0.03569800  1
  O  O2  1  0.50854200  0.26956500  0.03774700  1
  O  O3  1  0.93725700  0.89036400  0.32872300  1
  O  O4  1  0.91379100  0.54096400  0.25898400  1
  O  O5  1  0.62608500  0.60467800  0.26245600  1
  O  O6  1  0.32268200  0.56801500  0.13037100  1
  O  O7  1  0.24108500  0.21682000  0.09972800  1
  O  O8  1  0.49997000  0.83839000  0.29571100  1
  O  O9  1  0.88259700  0.28184100  0.35435700  1
  O  O10  1  0.12574000  0.88708200  0.17221300  1
  O  O11  1  0.49535800  0.14158400  0.26387400  1
  O  O12  1  0.82481700  0.87007300  0.60757000  1
  O  O13  1  0.83733300  0.55554600  0.59651600  1
  O  O14  1  0.47361900  0.63365000  0.45049300  1
  O  O15  1  0.24546300  0.88597100  0.46733000  1
  O  O16  1  0.75453700  0.11402900  0.53267000  1
  O  O17  1  0.52638100  0.36635000  0.54950700  1
  O  O18  1  0.16266700  0.44445400  0.40348400  1
  O  O19  1  0.17518300  0.12992700  0.39243000  1
  O  O20  1  0.50464200  0.85841600  0.73612600  1
  O  O21  1  0.87426000  0.11291800  0.82778700  1
  O  O22  1  0.11740300  0.71815900  0.64564300  1
  O  O23  1  0.50003000  0.16161000  0.70428900  1
  O  O24  1  0.75891500  0.78318000  0.90027200  1
  O  O25  1  0.67731800  0.43198500  0.86962900  1
  O  O26  1  0.37391500  0.39532200  0.73754400  1
  O  O27  1  0.08620900  0.45903600  0.74101600  1
  O  O28  1  0.06274300  0.10963600  0.67127700  1
  O  O29  1  0.49145800  0.73043500  0.96225300  1
  O  O30  1  0.31246600  0.99260900  0.96430200  1
  O  O31  1  0.03963000  0.69959800  0.88739600  1
loop_
_geom_bond_atom_site_label_1
_geom_bond_atom_site_label_2
_geom_bond_distance
_geom_bond_site_symmetry_2
Li0 O24 1.948973 1_555
Li0 O31 2.049065 1_655
Li0 O25 2.082668 1_555
Li1 O1 2.014911 1_555
Li1 O3 2.134532 1_545
Li1 O9 2.158870 1_555
Li1 O16 2.355591 1_555
Li2 O19 1.931742 1_555
Li2 O7 2.033532 1_555
Li2 O17 2.091926 1_555
Li2 O18 2.106939 1_555
Li3 O12 1.931742 1_555
Li3 O24 2.033532 1_555
Li3 O14 2.091926 1_555
Li3 O13 2.106939 1_555
Li4 O30 2.014911 1_555
Li4 O28 2.134532 1_565
Li4 O22 2.158870 1_555
Li4 O15 2.355591 1_555
Li5 O7 1.948973 1_555
Li5 O0 2.049065 1_455
Li5 O6 2.082668 1_555
O0 P0 1.542310 1_555
O0 V8 2.159645 1_554
O1 P6 1.555544 1_544
O1 V8 2.128625 1_554
O2 P1 1.558682 1_555
O2 V0 2.165586 1_555
O2 V8 2.317843 1_554
O3 P3 1.541821 1_655
O3 V2 2.132779 1_555
O4 P0 1.525670 1_555
O4 V2 2.147372 1_555
O5 P2 1.552134 1_555
O5 V2 2.137628 1_555
O5 V0 2.187906 1_555
O6 P2 1.582425 1_555
O6 V1 2.247771 1_555
O6 V0 2.373591 1_555
O7 P1 1.567062 1_555
O7 V3 2.364881 1_555
O8 P2 1.563850 1_555
O8 V5 2.145151 1_565
O8 V1 2.182215 1_555
O9 P0 1.577685 1_555
O9 V4 2.129943 1_555
O9 V7 2.282778 1_655
O10 P3 1.566015 1_555
O10 V3 2.124309 1_565
O10 V1 2.294202 1_555
O11 P1 1.560638 1_555
O11 V4 2.146555 1_555
O11 V5 2.666259 1_555
O12 P4 1.542037 1_565
O12 V2 2.180493 1_555
O13 P7 1.577158 1_655
O13 V4 2.128080 1_555
O13 V2 2.212429 1_555
O14 P2 1.525675 1_555
O14 V6 2.107781 1_555
O15 P3 1.574464 1_555
O15 V5 2.178384 1_565
O15 V6 2.202109 1_555
O16 P4 1.574464 1_555
O16 V5 2.178384 1_555
O16 V4 2.202109 1_555
O17 P5 1.525675 1_555
O17 V4 2.107781 1_555
O18 P0 1.577158 1_455
O18 V6 2.128080 1_555
O18 V7 2.212429 1_555
O19 P3 1.542037 1_545
O19 V7 2.180493 1_555
O20 P6 1.560638 1_555
O20 V6 2.146555 1_555
O20 V5 2.666259 1_565
O21 P4 1.566015 1_555
O21 V3 2.124309 1_656
O21 V8 2.294202 1_555
O22 P7 1.577685 1_555
O22 V6 2.129943 1_555
O22 V2 2.282778 1_455
O23 P5 1.563850 1_555
O23 V5 2.145151 1_555
O23 V8 2.182215 1_555
O24 P6 1.567062 1_555
O24 V3 2.364881 1_666
O25 P5 1.582425 1_555
O25 V8 2.247771 1_555
O25 V0 2.373591 1_556
O26 P5 1.552134 1_555
O26 V7 2.137628 1_555
O26 V0 2.187906 1_556
O27 P7 1.525670 1_555
O27 V7 2.147372 1_555
O28 P4 1.541821 1_455
O28 V7 2.132779 1_555
O29 P6 1.558682 1_555
O29 V0 2.165586 1_556
O29 V1 2.317843 1_556
O30 P1 1.555544 1_566
O30 V1 2.128625 1_556
O31 P7 1.542310 1_555
O31 V1 2.159645 1_556
