# generated using pymatgen
data_Mg16Si8HO32
_symmetry_space_group_name_H-M   'P 1'
_cell_length_a   6.08826700
_cell_length_b   9.67200260
_cell_length_c   10.39206108
_cell_angle_alpha   89.86356361
_cell_angle_beta   89.84780191
_cell_angle_gamma   89.95801746
_symmetry_Int_Tables_number   1
_chemical_formula_structural   Mg16Si8HO32
_chemical_formula_sum   'Mg16 Si8 H1 O32'
_cell_volume   611.94009143
_cell_formula_units_Z   1
loop_
 _symmetry_equiv_pos_site_id
 _symmetry_equiv_pos_as_xyz
  1  'x, y, z'
loop_
 _atom_site_type_symbol
 _atom_site_label
 _atom_site_symmetry_multiplicity
 _atom_site_fract_x
 _atom_site_fract_y
 _atom_site_fract_z
 _atom_site_occupancy
  Mg  Mg0  1  0.00030600  0.00128500  0.00073200  1
  Mg  Mg1  1  0.00341100  0.24320300  0.49820200  1
  Mg  Mg2  1  0.49904700  0.00095500  0.00057800  1
  Mg  Mg3  1  0.49113400  0.23824700  0.48881900  1
  Mg  Mg4  1  0.24878200  0.49721800  0.27647800  1
  Mg  Mg5  1  0.74974000  0.24189900  0.21908500  1
  Mg  Mg6  1  0.74984700  0.00475300  0.72270000  1
  Mg  Mg7  1  0.25291800  0.25355100  0.77767500  1
  Mg  Mg8  1  0.00128400  0.49956200  0.00329400  1
  Mg  Mg9  1  0.00109400  0.75230200  0.49885900  1
  Mg  Mg10  1  0.49924300  0.49980400  0.00166700  1
  Mg  Mg11  1  0.49949200  0.75113800  0.49879100  1
  Mg  Mg12  1  0.24853800  0.99298900  0.27597900  1
  Mg  Mg13  1  0.74865600  0.74807800  0.22130400  1
  Mg  Mg14  1  0.77109500  0.51545400  0.74154900  1
  Mg  Mg15  1  0.24638200  0.75647200  0.78083900  1
  Si  Si0  1  0.25025100  0.21372700  0.09533100  1
  Si  Si1  1  0.74781900  0.46827700  0.39440500  1
  Si  Si2  1  0.75079000  0.28649200  0.90462300  1
  Si  Si3  1  0.24918200  0.03312500  0.59699100  1
  Si  Si4  1  0.24910500  0.71368200  0.09548700  1
  Si  Si5  1  0.75025000  0.96293300  0.40517200  1
  Si  Si6  1  0.74957700  0.78945600  0.90724200  1
  Si  Si7  1  0.24615200  0.53471600  0.59156500  1
  H  H0  1  0.59320200  0.45037800  0.58812000  1
  O  O0  1  0.24947400  0.38378500  0.09398500  1
  O  O1  1  0.75121300  0.13397600  0.40670700  1
  O  O2  1  0.75023000  0.11704200  0.90651400  1
  O  O3  1  0.24796800  0.36422900  0.58805700  1
  O  O4  1  0.24508200  0.10251100  0.44791000  1
  O  O5  1  0.74996900  0.35959600  0.05148200  1
  O  O6  1  0.72953200  0.40104700  0.55348600  1
  O  O7  1  0.25107000  0.14087100  0.94874100  1
  O  O8  1  0.03376300  0.13923500  0.16375600  1
  O  O9  1  0.96793600  0.38679300  0.34455900  1
  O  O10  1  0.53720100  0.36324300  0.83513600  1
  O  O11  1  0.46642300  0.11067100  0.66087300  1
  O  O12  1  0.96834900  0.36311800  0.83698200  1
  O  O13  1  0.03403000  0.11127900  0.66395700  1
  O  O14  1  0.46533200  0.13861200  0.16435200  1
  O  O15  1  0.53305100  0.38706300  0.33491700  1
  O  O16  1  0.24907000  0.88331700  0.09335600  1
  O  O17  1  0.74870800  0.63591500  0.40401300  1
  O  O18  1  0.75143100  0.61918200  0.91205200  1
  O  O19  1  0.25136300  0.86324800  0.59666300  1
  O  O20  1  0.24619100  0.61135200  0.44688100  1
  O  O21  1  0.74859900  0.86265600  0.05285500  1
  O  O22  1  0.75132500  0.89027900  0.55201800  1
  O  O23  1  0.25000900  0.64023400  0.94886400  1
  O  O24  1  0.03258400  0.63802700  0.16410300  1
  O  O25  1  0.96496600  0.88825800  0.33576100  1
  O  O26  1  0.53334000  0.86023000  0.83634100  1
  O  O27  1  0.47816700  0.59714300  0.65497100  1
  O  O28  1  0.96581000  0.86260100  0.83788600  1
  O  O29  1  0.03962300  0.61249100  0.66568300  1
  O  O30  1  0.46492700  0.63882500  0.16446600  1
  O  O31  1  0.53313800  0.88970400  0.33760500  1
loop_
_geom_bond_atom_site_label_1
_geom_bond_atom_site_label_2
_geom_bond_distance
_geom_bond_site_symmetry_2
Mg0 O21 2.105890 1_445
Mg0 O7 2.107286 1_554
Mg0 O16 2.126542 1_545
Mg0 O2 2.128492 1_454
Mg0 O8 2.169074 1_555
Mg0 O28 2.172635 1_444
Mg1 O4 2.070293 1_555
Mg1 O1 2.095866 1_455
Mg1 O3 2.115234 1_555
Mg1 O9 2.124994 1_455
Mg1 O13 2.149621 1_555
Mg1 O6 2.331635 1_455
Mg2 O21 2.095406 1_545
Mg2 O7 2.097314 1_554
Mg2 O16 2.128368 1_545
Mg2 O2 2.131718 1_554
Mg2 O14 2.172551 1_555
Mg2 O26 2.194983 1_544
Mg3 O4 2.038946 1_555
Mg3 O1 2.060841 1_555
Mg3 O15 2.163841 1_555
Mg3 O11 2.174959 1_555
Mg3 O3 2.176070 1_555
Mg3 O6 2.247489 1_555
Mg4 O20 2.088985 1_555
Mg4 O15 2.121103 1_555
Mg4 O9 2.134839 1_455
Mg4 O0 2.193214 1_555
Mg4 O24 2.224656 1_555
Mg4 O30 2.224742 1_555
Mg5 O8 2.074046 1_655
Mg5 O5 2.078481 1_555
Mg5 O14 2.080926 1_555
Mg5 O1 2.209455 1_555
Mg5 O15 2.271037 1_555
Mg5 O9 2.334434 1_555
Mg6 O22 2.093169 1_545
Mg6 O13 2.102797 1_655
Mg6 O11 2.107136 1_555
Mg6 O2 2.199620 1_555
Mg6 O28 2.247192 1_545
Mg6 O26 2.252263 1_545
Mg7 O7 2.082999 1_555
Mg7 O10 2.118728 1_555
Mg7 O12 2.121155 1_455
Mg7 O3 2.240538 1_555
Mg7 O11 2.251608 1_555
Mg7 O13 2.254960 1_555
Mg8 O5 2.102445 1_455
Mg8 O0 2.103689 1_555
Mg8 O23 2.111646 1_554
Mg8 O18 2.133415 1_454
Mg8 O24 2.152971 1_555
Mg8 O12 2.186773 1_454
Mg9 O20 2.091226 1_555
Mg9 O22 2.096328 1_455
Mg9 O19 2.126502 1_555
Mg9 O17 2.148411 1_455
Mg9 O25 2.154351 1_455
Mg9 O29 2.208997 1_555
Mg10 O5 2.105935 1_555
Mg10 O23 2.108622 1_554
Mg10 O0 2.116984 1_555
Mg10 O18 2.132544 1_554
Mg10 O30 2.173113 1_555
Mg10 O10 2.191178 1_554
Mg11 O22 2.116347 1_555
Mg11 O19 2.118271 1_555
Mg11 O20 2.123243 1_555
Mg11 O17 2.123456 1_555
Mg11 O31 2.152167 1_555
Mg11 O27 2.203899 1_555
Mg12 O4 2.079349 1_565
Mg12 O25 2.094418 1_455
Mg12 O31 2.100171 1_555
Mg12 O16 2.176351 1_555
Mg12 O14 2.249089 1_565
Mg12 O8 2.251277 1_565
Mg13 O21 2.069597 1_555
Mg13 O30 2.111997 1_555
Mg13 O24 2.114083 1_655
Mg13 O17 2.184542 1_555
Mg13 O25 2.237412 1_555
Mg13 O31 2.248470 1_555
Mg14 O29 2.041352 1_655
Mg14 O18 2.041463 1_555
Mg14 O12 2.143238 1_555
Mg14 O27 2.148821 1_555
Mg14 O6 2.263038 1_555
Mg14 O10 2.264929 1_555
Mg15 O23 2.074659 1_555
Mg15 O28 2.077980 1_455
Mg15 O26 2.098271 1_555
Mg15 O19 2.172801 1_555
Mg15 O29 2.230358 1_555
Mg15 O27 2.464491 1_555
H0 O6 1.022138 1_555
H0 O27 1.728818 1_555
H0 Mg14 2.031351 1_555
O0 Si0 1.644831 1_555
O1 Si5 1.654458 1_545
O2 Si2 1.638998 1_555
O3 Si7 1.649469 1_555
O4 Si3 1.687137 1_555
O5 Si2 1.683521 1_554
O6 Si1 1.778266 1_555
O7 Si0 1.679972 1_556
O8 Si0 1.660098 1_555
O9 Si1 1.637715 1_555
O10 Si2 1.662690 1_555
O11 Si3 1.661647 1_555
O12 Si2 1.670881 1_555
O13 Si3 1.663655 1_555
O14 Si0 1.660760 1_555
O15 Si1 1.648341 1_555
O16 Si4 1.640807 1_555
O17 Si1 1.624718 1_555
O18 Si6 1.647561 1_555
O19 Si3 1.643106 1_565
O20 Si7 1.674757 1_555
O21 Si6 1.672174 1_554
O22 Si5 1.678558 1_555
O23 Si4 1.682705 1_556
O24 Si4 1.666007 1_555
O25 Si5 1.657392 1_555
O26 Si6 1.657132 1_555
O27 Si7 1.673972 1_555
O28 Si6 1.657410 1_555
O29 Si7 1.654214 1_555
O30 Si4 1.663051 1_555
O31 Si5 1.658493 1_555
