# generated using pymatgen
data_V3(O2F)2
_symmetry_space_group_name_H-M   'P 1'
_cell_length_a   4.65991700
_cell_length_b   5.54468073
_cell_length_c   7.73046239
_cell_angle_alpha   94.36229220
_cell_angle_beta   90.61804305
_cell_angle_gamma   90.16406469
_symmetry_Int_Tables_number   1
_chemical_formula_structural   V3(O2F)2
_chemical_formula_sum   'V6 O8 F4'
_cell_volume   199.14618920
_cell_formula_units_Z   2
loop_
 _symmetry_equiv_pos_site_id
 _symmetry_equiv_pos_as_xyz
  1  'x, y, z'
loop_
 _atom_site_type_symbol
 _atom_site_label
 _atom_site_symmetry_multiplicity
 _atom_site_fract_x
 _atom_site_fract_y
 _atom_site_fract_z
 _atom_site_occupancy
  V  V0  1  0.45995600  0.85066500  0.34766200  1
  V  V1  1  0.50000000  0.50000000  0.00000000  1
  V  V2  1  0.54004400  0.14933500  0.65233800  1
  V  V3  1  0.00048500  0.33160700  0.31653500  1
  V  V4  1  0.99951500  0.66839300  0.68346500  1
  V  V5  1  0.00000000  0.00000000  0.00000000  1
  O  O0  1  0.20753000  0.69746400  0.91333100  1
  O  O1  1  0.19958000  0.03660800  0.22570300  1
  O  O2  1  0.31188300  0.54035500  0.23448900  1
  O  O3  1  0.29388600  0.86670400  0.57386600  1
  O  O4  1  0.70611400  0.13329600  0.42613400  1
  O  O5  1  0.68811700  0.45964500  0.76551100  1
  O  O6  1  0.80042000  0.96339200  0.77429700  1
  O  O7  1  0.79247000  0.30253600  0.08666900  1
  F  F0  1  0.19877300  0.36134100  0.56232500  1
  F  F1  1  0.30243400  0.20391700  0.88982400  1
  F  F2  1  0.69756600  0.79608300  0.11017600  1
  F  F3  1  0.80122700  0.63865900  0.43767500  1
loop_
_geom_bond_atom_site_label_1
_geom_bond_atom_site_label_2
_geom_bond_distance
_geom_bond_site_symmetry_2
O0 V1 1.898825 1_556
O0 V4 2.010369 1_455
O0 V5 2.012537 1_566
O1 V0 1.885298 1_545
O1 V5 1.964808 1_555
O1 V3 1.969075 1_555
O2 V0 1.988233 1_555
O2 V3 1.992365 1_555
O2 V1 2.019437 1_555
O3 V0 1.915864 1_555
O3 V4 1.991665 1_455
O3 V2 1.992398 1_565
O4 V2 1.915864 1_555
O4 V3 1.991665 1_655
O4 V0 1.992398 1_545
O5 V2 1.988233 1_555
O5 V4 1.992365 1_555
O5 V1 2.019437 1_556
O6 V2 1.885298 1_565
O6 V5 1.964808 1_666
O6 V4 1.969075 1_555
O7 V1 1.898825 1_555
O7 V3 2.010369 1_655
O7 V5 2.012537 1_655
F0 V3 2.098769 1_555
F0 V4 2.103076 1_455
F0 V2 2.122808 1_555
F1 V1 2.007447 1_556
F1 V5 2.037948 1_556
F1 V2 2.156217 1_555
F2 V1 2.007447 1_555
F2 V5 2.037948 1_665
F2 V0 2.156217 1_555
F3 V4 2.098769 1_555
F3 V3 2.103076 1_655
F3 V0 2.122808 1_555
