# generated using pymatgen
data_K8TeP8(H5O16)2
_symmetry_space_group_name_H-M   'P 1'
_cell_length_a   8.09732700
_cell_length_b   11.04759202
_cell_length_c   11.65766130
_cell_angle_alpha   109.06140468
_cell_angle_beta   94.26798065
_cell_angle_gamma   108.21456762
_symmetry_Int_Tables_number   1
_chemical_formula_structural   K8TeP8(H5O16)2
_chemical_formula_sum   'K8 Te1 P8 H10 O32'
_cell_volume   918.00658784
_cell_formula_units_Z   1
loop_
 _symmetry_equiv_pos_site_id
 _symmetry_equiv_pos_as_xyz
  1  'x, y, z'
loop_
 _atom_site_type_symbol
 _atom_site_label
 _atom_site_symmetry_multiplicity
 _atom_site_fract_x
 _atom_site_fract_y
 _atom_site_fract_z
 _atom_site_occupancy
  K  K0  1  0.61486200  0.82614400  0.48570200  1
  K  K1  1  0.38513800  0.17385600  0.51429800  1
  K  K2  1  0.30549900  0.35421200  0.97378700  1
  K  K3  1  0.69450100  0.64578800  0.02621300  1
  K  K4  1  0.69031500  0.58475800  0.67432900  1
  K  K5  1  0.30968500  0.41524200  0.32567100  1
  K  K6  1  0.46626400  0.89892900  0.11776400  1
  K  K7  1  0.53373600  0.10107100  0.88223600  1
  Te  Te0  1  0.00000000  0.00000000  0.00000000  1
  P  P0  1  0.87546600  0.30321600  0.71874100  1
  P  P1  1  0.12453400  0.69678400  0.28125900  1
  P  P2  1  0.13601500  0.59495900  0.86384800  1
  P  P3  1  0.86398500  0.40504100  0.13615200  1
  P  P4  1  0.27254500  0.66360500  0.64431400  1
  P  P5  1  0.72745500  0.33639500  0.35568600  1
  P  P6  1  0.03964000  0.76759800  0.53087500  1
  P  P7  1  0.96036000  0.23240200  0.46912500  1
  H  H0  1  0.30476900  0.86975900  0.66687800  1
  H  H1  1  0.69523100  0.13024100  0.33312200  1
  H  H2  1  0.51902200  0.97398000  0.38389800  1
  H  H3  1  0.48097800  0.02602000  0.61610200  1
  H  H4  1  0.57616600  0.07408400  0.63742100  1
  H  H5  1  0.42383400  0.92591600  0.36257900  1
  H  H6  1  0.56737600  0.39783600  0.78024400  1
  H  H7  1  0.43262400  0.60216400  0.21975600  1
  H  H8  1  0.76383000  0.76093900  0.27980400  1
  H  H9  1  0.23617000  0.23906100  0.72019600  1
  O  O0  1  0.89955300  0.17622900  0.08050100  1
  O  O1  1  0.10044700  0.82377100  0.91949900  1
  O  O2  1  0.33900000  0.21908400  0.74572800  1
  O  O3  1  0.66100000  0.78091600  0.25427200  1
  O  O4  1  0.24621700  0.11051600  0.01005600  1
  O  O5  1  0.75378300  0.88948400  0.98994400  1
  O  O6  1  0.73125900  0.34085000  0.66920800  1
  O  O7  1  0.26874100  0.65915000  0.33079200  1
  O  O8  1  0.15968200  0.81191000  0.23657200  1
  O  O9  1  0.84031800  0.18809000  0.76342800  1
  O  O10  1  0.98126800  0.56001000  0.16541800  1
  O  O11  1  0.01873200  0.43999000  0.83458200  1
  O  O12  1  0.00602100  0.28685400  0.61797400  1
  O  O13  1  0.99397900  0.71314600  0.38202600  1
  O  O14  1  0.28861000  0.64756700  0.96587700  1
  O  O15  1  0.71139000  0.35243300  0.03412300  1
  O  O16  1  0.99295500  0.66864900  0.88010700  1
  O  O17  1  0.00704500  0.33135100  0.11989300  1
  O  O18  1  0.80693100  0.41008600  0.26565000  1
  O  O19  1  0.19306900  0.58991400  0.73435000  1
  O  O20  1  0.36485200  0.82030600  0.71845200  1
  O  O21  1  0.63514800  0.17969400  0.28154800  1
  O  O22  1  0.61835900  0.40724200  0.42605900  1
  O  O23  1  0.38164100  0.59275800  0.57394100  1
  O  O24  1  0.90352000  0.35280700  0.44226200  1
  O  O25  1  0.09648000  0.64719300  0.55773800  1
  O  O26  1  0.20804100  0.89381100  0.58290800  1
  O  O27  1  0.79195900  0.10618900  0.41709200  1
  O  O28  1  0.12716400  0.23120100  0.42461300  1
  O  O29  1  0.87283600  0.76879900  0.57538700  1
  O  O30  1  0.50679300  0.54881700  0.18972200  1
  O  O31  1  0.49320700  0.45118300  0.81027800  1
loop_
_geom_bond_atom_site_label_1
_geom_bond_atom_site_label_2
_geom_bond_distance
_geom_bond_site_symmetry_2
K0 O29 2.606306 1_555
K1 O28 2.606306 1_555
K2 O2 2.671826 1_555
K2 O30 2.698026 1_556
K2 O4 2.761019 1_556
K2 O31 2.799693 1_555
K2 O17 3.052422 1_556
K2 O11 3.277594 1_555
K2 O14 3.316747 1_555
K2 O15 3.316987 1_556
K3 O3 2.671826 1_555
K3 O31 2.698026 1_554
K3 O5 2.761019 1_554
K3 O30 2.799693 1_555
K3 O16 3.052422 1_554
K3 O10 3.277594 1_555
K3 O15 3.316747 1_555
K3 O14 3.316987 1_554
K4 O23 2.719346 1_555
K4 O29 2.748743 1_555
K4 O31 2.769191 1_555
K4 O6 2.798337 1_555
K4 O22 2.808824 1_555
K4 O16 2.978582 1_555
K5 O22 2.719346 1_555
K5 O28 2.748743 1_555
K5 O30 2.769191 1_555
K5 O7 2.798337 1_555
K5 O23 2.808824 1_555
K5 O17 2.978582 1_555
K6 O14 2.613035 1_554
K6 O5 2.866725 1_554
K6 O21 2.868462 1_565
K6 O8 2.982408 1_555
K6 O3 2.997585 1_555
K6 O1 3.315981 1_554
K7 O15 2.613035 1_556
K7 O4 2.866725 1_556
K7 O20 2.868462 1_545
K7 O9 2.982408 1_555
K7 O2 2.997585 1_555
K7 O0 3.315981 1_556
H0 O20 1.110780 1_555
H0 O26 1.352103 1_555
H0 K7 2.902673 1_565
H1 O21 1.110780 1_555
H1 O27 1.352103 1_555
H1 K6 2.902673 1_545
H2 H5 0.753152 1_555
H2 K6 2.897684 1_555
H3 H4 0.753152 1_555
H3 K7 2.897684 1_555
H4 K7 2.829539 1_555
H5 K6 2.829539 1_555
H6 O31 0.973861 1_555
H6 K4 2.709818 1_555
H7 O30 0.973861 1_555
H7 K5 2.709818 1_555
H8 O3 0.975449 1_555
H8 K3 2.742842 1_555
H9 O2 0.975449 1_555
H9 K2 2.742842 1_555
O0 O17 1.548974 1_655
O0 Te0 2.289728 1_655
O1 O16 1.548974 1_455
O1 Te0 2.289728 1_566
O4 Te0 1.956849 1_555
O5 Te0 1.956849 1_666
O6 P0 1.493235 1_555
O7 P1 1.493235 1_555
O8 P1 1.482757 1_555
O9 P0 1.482757 1_555
O10 P3 1.582146 1_555
O10 P1 1.670576 1_655
O11 P2 1.582146 1_555
O11 P0 1.670576 1_455
O12 P7 1.610362 1_455
O12 P0 1.641882 1_455
O13 P6 1.610362 1_655
O13 P1 1.641882 1_655
O14 P2 1.469705 1_555
O15 P3 1.469705 1_555
O16 P2 1.600633 1_655
O17 P3 1.600633 1_455
O18 P5 1.584215 1_555
O18 P3 1.600159 1_555
O19 P4 1.584215 1_555
O19 P2 1.600159 1_555
O20 P4 1.555716 1_555
O21 P5 1.555716 1_555
O22 P5 1.478754 1_555
O23 P4 1.478754 1_555
O24 P5 1.608948 1_555
O24 P7 1.647014 1_555
O25 P4 1.608948 1_555
O25 P6 1.647014 1_555
O26 P6 1.519006 1_555
O27 P7 1.519006 1_555
O28 P7 1.484845 1_455
O29 P6 1.484845 1_655
