# generated using pymatgen
data_Li5Mn2Cu5O12
_symmetry_space_group_name_H-M   'P 1'
_cell_length_a   5.04979240
_cell_length_b   5.04979240
_cell_length_c   9.62414019
_cell_angle_alpha   88.89238755
_cell_angle_beta   88.89238755
_cell_angle_gamma   114.10176266
_symmetry_Int_Tables_number   1
_chemical_formula_structural   Li5Mn2Cu5O12
_chemical_formula_sum   'Li5 Mn2 Cu5 O12'
_cell_volume   223.88265400
_cell_formula_units_Z   1
loop_
 _symmetry_equiv_pos_site_id
 _symmetry_equiv_pos_as_xyz
  1  'x, y, z'
loop_
 _atom_site_type_symbol
 _atom_site_label
 _atom_site_symmetry_multiplicity
 _atom_site_fract_x
 _atom_site_fract_y
 _atom_site_fract_z
 _atom_site_occupancy
  Li  Li0  1  0.83802700  0.66989200  0.25630700  1
  Li  Li1  1  0.67480700  0.84927400  0.74358200  1
  Li  Li2  1  0.33010800  0.16197300  0.74369300  1
  Li  Li3  1  0.15072600  0.32519300  0.25641800  1
  Li  Li4  1  0.08452500  0.91547500  0.50000000  1
  Mn  Mn0  1  0.75385900  0.24614100  0.50000000  1
  Mn  Mn1  1  0.25194500  0.74805500  0.00000000  1
  Cu  Cu0  1  0.91967100  0.08032900  0.00000000  1
  Cu  Cu1  1  0.00330300  0.50849800  0.74712000  1
  Cu  Cu2  1  0.49150200  0.99669700  0.25288000  1
  Cu  Cu3  1  0.58261400  0.41738600  0.00000000  1
  Cu  Cu4  1  0.41520700  0.58479300  0.50000000  1
  O  O0  1  0.00875900  0.20502600  0.63335600  1
  O  O1  1  0.79497400  0.99124100  0.36664400  1
  O  O2  1  0.92334000  0.42176000  0.09652000  1
  O  O3  1  0.57824000  0.07666000  0.90348000  1
  O  O4  1  0.69285800  0.51792200  0.62305800  1
  O  O5  1  0.48207800  0.30714200  0.37694200  1
  O  O6  1  0.51134000  0.69044300  0.12712000  1
  O  O7  1  0.30955700  0.48866000  0.87288000  1
  O  O8  1  0.43273000  0.91862100  0.59621300  1
  O  O9  1  0.08137900  0.56727000  0.40378700  1
  O  O10  1  0.19152300  0.00307000  0.12983800  1
  O  O11  1  0.99693000  0.80847700  0.87016200  1
loop_
_geom_bond_atom_site_label_1
_geom_bond_atom_site_label_2
_geom_bond_distance
_geom_bond_site_symmetry_2
Li0 O1 2.038144 1_555
Li0 O9 2.086241 1_655
Li0 O6 2.119492 1_555
Li0 O2 2.147154 1_555
Li0 O10 2.209673 1_665
Li0 O5 2.254401 1_555
Li1 O8 2.006493 1_555
Li1 O4 2.085445 1_555
Li1 O3 2.102628 1_565
Li1 O11 2.124411 1_555
Li1 O0 2.139967 1_665
Li1 O7 2.312372 1_555
Li2 O0 2.038144 1_555
Li2 O8 2.086241 1_545
Li2 O7 2.119492 1_555
Li2 O3 2.147154 1_555
Li2 O11 2.209673 1_445
Li2 O4 2.254401 1_555
Li3 O9 2.006493 1_555
Li3 O5 2.085445 1_555
Li3 O2 2.102628 1_455
Li3 O10 2.124411 1_555
Li3 O1 2.139967 1_445
Li3 O6 2.312372 1_555
Li4 O9 1.997551 1_555
Li4 O8 1.997551 1_555
Li4 O0 2.107607 1_565
Li4 O1 2.107607 1_455
Li4 O5 2.432984 1_565
Li4 O4 2.432984 1_455
Mn0 O0 1.902371 1_655
Mn0 O1 1.902371 1_545
Mn0 O4 1.942968 1_555
Mn0 O5 1.942968 1_555
Mn0 O9 1.978586 1_655
Mn0 O8 1.978586 1_545
Mn1 O7 1.912236 1_554
Mn1 O6 1.912236 1_555
Mn1 O10 1.918667 1_565
Mn1 O11 1.918667 1_454
Mn1 O2 1.994895 1_455
Mn1 O3 1.994895 1_564
Cu0 O3 1.967853 1_554
Cu0 O2 1.967853 1_555
Cu0 O10 2.020673 1_655
Cu0 O11 2.020673 1_544
Cu0 O6 2.473579 1_545
Cu0 O7 2.473579 1_654
Cu1 O0 1.909496 1_555
Cu1 O11 1.950823 1_455
Cu1 O4 2.004147 1_455
Cu1 O7 2.015160 1_555
Cu2 O1 1.909496 1_555
Cu2 O10 1.950823 1_565
Cu2 O5 2.004147 1_565
Cu2 O6 2.015160 1_555
Cu3 O3 1.963512 1_554
Cu3 O2 1.963512 1_555
Cu3 O6 1.995278 1_555
Cu3 O7 1.995278 1_554
Cu3 O10 2.503598 1_555
Cu3 O11 2.503598 1_554
Cu4 O8 1.910164 1_555
Cu4 O9 1.910164 1_555
Cu4 O4 1.979371 1_555
Cu4 O5 1.979371 1_555
Cu4 O0 2.475060 1_555
Cu4 O1 2.475060 1_555
