# generated using pymatgen
data_LiFe3OF5
_symmetry_space_group_name_H-M   'P 1'
_cell_length_a   5.94209214
_cell_length_b   5.94209214
_cell_length_c   7.60411402
_cell_angle_alpha   71.77959841
_cell_angle_beta   71.77959841
_cell_angle_gamma   72.92356664
_symmetry_Int_Tables_number   1
_chemical_formula_structural   LiFe3OF5
_chemical_formula_sum   'Li2 Fe6 O2 F10'
_cell_volume   236.46276622
_cell_formula_units_Z   2
loop_
 _symmetry_equiv_pos_site_id
 _symmetry_equiv_pos_as_xyz
  1  'x, y, z'
loop_
 _atom_site_type_symbol
 _atom_site_label
 _atom_site_symmetry_multiplicity
 _atom_site_fract_x
 _atom_site_fract_y
 _atom_site_fract_z
 _atom_site_occupancy
  Li  Li0  1  0.11557100  0.63639500  0.87652400  1
  Li  Li1  1  0.63639500  0.11557100  0.87652400  1
  Fe  Fe0  1  0.32633600  0.32633600  0.17668400  1
  Fe  Fe1  1  0.00072000  0.00072000  0.51283300  1
  Fe  Fe2  1  0.66334200  0.66334200  0.33582300  1
  Fe  Fe3  1  0.64813500  0.64813500  0.82738200  1
  Fe  Fe4  1  0.28830200  0.28830200  0.66243200  1
  Fe  Fe5  1  0.04288100  0.04288100  0.01331300  1
  O  O0  1  0.06461100  0.06461100  0.73183400  1
  O  O1  1  0.26899500  0.26899500  0.95370500  1
  F  F0  1  0.70463700  0.29998000  0.01099200  1
  F  F1  1  0.29998000  0.70463700  0.01099200  1
  F  F2  1  0.76202100  0.76202100  0.02107300  1
  F  F3  1  0.42772300  0.42772300  0.36842400  1
  F  F4  1  0.37657100  0.95265700  0.33695100  1
  F  F5  1  0.95265700  0.37657100  0.33695100  1
  F  F6  1  0.90282900  0.90282900  0.30827100  1
  F  F7  1  0.01287000  0.62175100  0.67065400  1
  F  F8  1  0.62175100  0.01287000  0.67065400  1
  F  F9  1  0.54854200  0.54854200  0.63812500  1
loop_
_geom_bond_atom_site_label_1
_geom_bond_atom_site_label_2
_geom_bond_distance
_geom_bond_site_symmetry_2
Li0 O1 2.075111 1_555
Li0 O0 2.404545 1_565
Li1 O1 2.075111 1_555
Li1 O0 2.404545 1_655
Fe0 O1 1.974294 1_554
Fe1 O0 1.984159 1_555
Fe4 O0 1.993062 1_555
Fe4 O1 2.149864 1_555
Fe5 O1 2.028410 1_554
Fe5 O0 2.068523 1_554
F0 Li1 1.905672 1_554
F0 Fe3 2.102581 1_554
F0 Fe5 2.139120 1_655
F0 Fe0 2.193297 1_555
F1 Li0 1.905672 1_554
F1 Fe3 2.102581 1_554
F1 Fe5 2.139120 1_565
F1 Fe0 2.193297 1_555
F2 Li0 2.080130 1_654
F2 Li1 2.080130 1_564
F2 Fe3 2.144927 1_554
F2 Fe2 2.205150 1_555
F3 Fe0 2.040450 1_555
F3 Fe4 2.111280 1_555
F3 Fe2 2.167710 1_555
F4 Fe2 2.034410 1_555
F4 Fe0 2.156540 1_565
F4 Fe1 2.203290 1_565
F5 Fe2 2.034410 1_555
F5 Fe0 2.156540 1_655
F5 Fe1 2.203290 1_655
F6 Fe1 2.103963 1_665
F6 Fe5 2.118481 1_665
F6 Fe2 2.215963 1_555
F7 Li0 1.882667 1_555
F7 Fe3 2.108108 1_455
F7 Fe4 2.171954 1_555
F7 Fe1 2.187482 1_565
F8 Li1 1.882667 1_555
F8 Fe3 2.108108 1_545
F8 Fe4 2.171954 1_555
F8 Fe1 2.187482 1_655
F9 Fe3 2.010568 1_555
F9 Fe2 2.127663 1_555
F9 Fe4 2.421484 1_555
