# generated using pymatgen
data_SbN3(O3F)3
_symmetry_space_group_name_H-M   'P 1'
_cell_length_a   8.89303606
_cell_length_b   8.89303606
_cell_length_c   7.45640500
_cell_angle_alpha   90.00000000
_cell_angle_beta   90.00000000
_cell_angle_gamma   99.17762346
_symmetry_Int_Tables_number   1
_chemical_formula_structural   SbN3(O3F)3
_chemical_formula_sum   'Sb2 N6 O18 F6'
_cell_volume   582.14897861
_cell_formula_units_Z   2
loop_
 _symmetry_equiv_pos_site_id
 _symmetry_equiv_pos_as_xyz
  1  'x, y, z'
loop_
 _atom_site_type_symbol
 _atom_site_label
 _atom_site_symmetry_multiplicity
 _atom_site_fract_x
 _atom_site_fract_y
 _atom_site_fract_z
 _atom_site_occupancy
  Sb  Sb0  1  0.85842700  0.14157300  0.10760300  1
  Sb  Sb1  1  0.14157300  0.85842700  0.60760300  1
  N  N0  1  0.21380600  0.31720300  0.25183000  1
  N  N1  1  0.31720300  0.21380600  0.75183000  1
  N  N2  1  0.29914900  0.70085100  0.02614000  1
  N  N3  1  0.70085100  0.29914900  0.52614000  1
  N  N4  1  0.68279700  0.78619400  0.25183000  1
  N  N5  1  0.78619400  0.68279700  0.75183000  1
  O  O0  1  0.15581200  0.21021400  0.14707900  1
  O  O1  1  0.21021400  0.15581200  0.64707900  1
  O  O2  1  0.13268400  0.37887700  0.35496100  1
  O  O3  1  0.37887700  0.13268400  0.85496100  1
  O  O4  1  0.35665800  0.35521100  0.74598400  1
  O  O5  1  0.35521100  0.35665800  0.24598400  1
  O  O6  1  0.20957600  0.60283400  0.94237500  1
  O  O7  1  0.60283400  0.20957600  0.44237500  1
  O  O8  1  0.71003600  0.28996400  0.69229400  1
  O  O9  1  0.28996400  0.71003600  0.19229400  1
  O  O10  1  0.79042400  0.39716600  0.44237500  1
  O  O11  1  0.39716600  0.79042400  0.94237500  1
  O  O12  1  0.64334200  0.64478900  0.24598400  1
  O  O13  1  0.64478900  0.64334200  0.74598400  1
  O  O14  1  0.86731600  0.62112300  0.85496100  1
  O  O15  1  0.62112300  0.86731600  0.35496100  1
  O  O16  1  0.78978600  0.84418800  0.14707900  1
  O  O17  1  0.84418800  0.78978600  0.64707900  1
  F  F0  1  0.11154500  0.64592400  0.54476500  1
  F  F1  1  0.64592400  0.11154500  0.04476500  1
  F  F2  1  0.92753700  0.07246300  0.88133600  1
  F  F3  1  0.07246300  0.92753700  0.38133600  1
  F  F4  1  0.88845500  0.35407600  0.04476500  1
  F  F5  1  0.35407600  0.88845500  0.54476500  1
loop_
_geom_bond_atom_site_label_1
_geom_bond_atom_site_label_2
_geom_bond_distance
_geom_bond_site_symmetry_2
N0 O2 1.240494 1_555
N0 O5 1.251247 1_555
N0 O0 1.274674 1_555
N1 O3 1.240494 1_555
N1 O4 1.251247 1_555
N1 O1 1.274674 1_555
N2 O9 1.245140 1_555
N2 O11 1.250182 1_554
N2 O6 1.250182 1_554
N3 O8 1.245140 1_555
N3 O10 1.250182 1_555
N3 O7 1.250182 1_555
N4 O15 1.240494 1_555
N4 O12 1.251247 1_555
N4 O16 1.274674 1_555
N5 O14 1.240494 1_555
N5 O13 1.251247 1_555
N5 O17 1.274674 1_555
F0 Sb1 1.923850 1_555
F1 Sb0 1.923850 1_555
F2 Sb0 1.929349 1_556
F3 Sb1 1.929349 1_555
F4 Sb0 1.923850 1_555
F5 Sb1 1.923850 1_555
