# generated using pymatgen
data_Ho2(SeO3)3
_symmetry_space_group_name_H-M   'P 1'
_cell_length_a   6.82865600
_cell_length_b   8.22098200
_cell_length_c   14.03136100
_cell_angle_alpha   90.00000000
_cell_angle_beta   90.00000000
_cell_angle_gamma   90.00000000
_symmetry_Int_Tables_number   1
_chemical_formula_structural   Ho2(SeO3)3
_chemical_formula_sum   'Ho8 Se12 O36'
_cell_volume   787.69616475
_cell_formula_units_Z   4
loop_
 _symmetry_equiv_pos_site_id
 _symmetry_equiv_pos_as_xyz
  1  'x, y, z'
loop_
 _atom_site_type_symbol
 _atom_site_label
 _atom_site_symmetry_multiplicity
 _atom_site_fract_x
 _atom_site_fract_y
 _atom_site_fract_z
 _atom_site_occupancy
  Ho  Ho0  1  0.17939700  0.20111200  0.56133400  1
  Ho  Ho1  1  0.17939700  0.20111200  0.93866600  1
  Ho  Ho2  1  0.32060300  0.70111200  0.56133400  1
  Ho  Ho3  1  0.32060300  0.70111200  0.93866600  1
  Ho  Ho4  1  0.67939700  0.29888800  0.06133400  1
  Ho  Ho5  1  0.67939700  0.29888800  0.43866600  1
  Ho  Ho6  1  0.82060300  0.79888800  0.06133400  1
  Ho  Ho7  1  0.82060300  0.79888800  0.43866600  1
  Se  Se0  1  0.09361200  0.95506200  0.75000000  1
  Se  Se1  1  0.17667200  0.45263000  0.12580800  1
  Se  Se2  1  0.17667200  0.45263000  0.37419200  1
  Se  Se3  1  0.32332800  0.95263000  0.12580800  1
  Se  Se4  1  0.32332800  0.95263000  0.37419200  1
  Se  Se5  1  0.40638800  0.45506200  0.75000000  1
  Se  Se6  1  0.59361200  0.54493800  0.25000000  1
  Se  Se7  1  0.67667200  0.04737000  0.62580800  1
  Se  Se8  1  0.67667200  0.04737000  0.87419200  1
  Se  Se9  1  0.82332800  0.54737000  0.62580800  1
  Se  Se10  1  0.82332800  0.54737000  0.87419200  1
  Se  Se11  1  0.90638800  0.04493800  0.25000000  1
  O  O0  1  0.02374400  0.29341700  0.09477800  1
  O  O1  1  0.02374400  0.29341700  0.40522200  1
  O  O2  1  0.06604000  0.16244700  0.75000000  1
  O  O3  1  0.09088800  0.62741400  0.07496900  1
  O  O4  1  0.09088800  0.62741400  0.42503100  1
  O  O5  1  0.14497500  0.92686900  0.03829000  1
  O  O6  1  0.14497500  0.92686900  0.46171000  1
  O  O7  1  0.24379100  0.94564900  0.85000200  1
  O  O8  1  0.24379100  0.94564900  0.64999800  1
  O  O9  1  0.25620900  0.44564900  0.85000200  1
  O  O10  1  0.25620900  0.44564900  0.64999800  1
  O  O11  1  0.35502500  0.42686900  0.03829000  1
  O  O12  1  0.35502500  0.42686900  0.46171000  1
  O  O13  1  0.40911200  0.12741400  0.07496900  1
  O  O14  1  0.40911200  0.12741400  0.42503100  1
  O  O15  1  0.43396000  0.66244700  0.75000000  1
  O  O16  1  0.47625600  0.79341700  0.09477800  1
  O  O17  1  0.47625600  0.79341700  0.40522200  1
  O  O18  1  0.52374400  0.20658300  0.59477800  1
  O  O19  1  0.52374400  0.20658300  0.90522200  1
  O  O20  1  0.56604000  0.33755300  0.25000000  1
  O  O21  1  0.59088800  0.87258600  0.57496900  1
  O  O22  1  0.59088800  0.87258600  0.92503100  1
  O  O23  1  0.64497500  0.57313100  0.53829000  1
  O  O24  1  0.64497500  0.57313100  0.96171000  1
  O  O25  1  0.74379100  0.55435100  0.14999800  1
  O  O26  1  0.74379100  0.55435100  0.35000200  1
  O  O27  1  0.75620900  0.05435100  0.14999800  1
  O  O28  1  0.75620900  0.05435100  0.35000200  1
  O  O29  1  0.85502500  0.07313100  0.53829000  1
  O  O30  1  0.85502500  0.07313100  0.96171000  1
  O  O31  1  0.90911200  0.37258600  0.57496900  1
  O  O32  1  0.90911200  0.37258600  0.92503100  1
  O  O33  1  0.93396000  0.83755300  0.25000000  1
  O  O34  1  0.97625600  0.70658300  0.59477800  1
  O  O35  1  0.97625600  0.70658300  0.90522200  1
loop_
_geom_bond_atom_site_label_1
_geom_bond_atom_site_label_2
_geom_bond_distance
_geom_bond_site_symmetry_2
Ho0 O31 2.330313 1_455
Ho0 O18 2.398216 1_555
Ho0 O10 2.421631 1_555
Ho0 O29 2.473431 1_455
Ho0 O8 2.480271 1_545
Ho0 O14 2.546654 1_555
Ho0 O1 2.550240 1_555
Ho0 O12 2.614741 1_555
Ho0 O6 2.663127 1_545
Ho0 O2 2.776349 1_555
Ho1 O32 2.330313 1_455
Ho1 O19 2.398216 1_555
Ho1 O9 2.421631 1_555
Ho1 O30 2.473431 1_455
Ho1 O7 2.480271 1_545
Ho1 O13 2.546654 1_556
Ho1 O0 2.550240 1_556
Ho1 O11 2.614741 1_556
Ho1 O5 2.663127 1_546
Ho1 O2 2.776349 1_555
Ho2 O21 2.330313 1_555
Ho2 O34 2.398216 1_455
Ho2 O8 2.421631 1_555
Ho2 O23 2.473431 1_555
Ho2 O10 2.480271 1_555
Ho2 O4 2.546654 1_555
Ho2 O17 2.550240 1_555
Ho2 O6 2.614741 1_555
Ho2 O12 2.663127 1_555
Ho2 O15 2.776349 1_555
Ho3 O22 2.330313 1_555
Ho3 O35 2.398216 1_455
Ho3 O7 2.421631 1_555
Ho3 O24 2.473431 1_555
Ho3 O9 2.480271 1_555
Ho3 O3 2.546654 1_556
Ho3 O16 2.550240 1_556
Ho3 O5 2.614741 1_556
Ho3 O11 2.663127 1_556
Ho3 O15 2.776349 1_555
Ho4 O13 2.330313 1_555
Ho4 O0 2.398216 1_655
Ho4 O27 2.421631 1_555
Ho4 O11 2.473431 1_555
Ho4 O25 2.480271 1_555
Ho4 O32 2.546654 1_554
Ho4 O19 2.550240 1_554
Ho4 O30 2.614741 1_554
Ho4 O24 2.663127 1_554
Ho4 O20 2.776349 1_555
Ho5 O14 2.330313 1_555
Ho5 O1 2.398216 1_655
Ho5 O28 2.421631 1_555
Ho5 O12 2.473431 1_555
Ho5 O26 2.480271 1_555
Ho5 O31 2.546654 1_555
Ho5 O18 2.550240 1_555
Ho5 O29 2.614741 1_555
Ho5 O23 2.663127 1_555
Ho5 O20 2.776349 1_555
Ho6 O3 2.330313 1_655
Ho6 O16 2.398216 1_555
Ho6 O25 2.421631 1_555
Ho6 O5 2.473431 1_655
Ho6 O27 2.480271 1_565
Ho6 O22 2.546654 1_554
Ho6 O35 2.550240 1_554
Ho6 O24 2.614741 1_554
Ho6 O30 2.663127 1_564
Ho6 O33 2.776349 1_555
Ho7 O4 2.330313 1_655
Ho7 O17 2.398216 1_555
Ho7 O26 2.421631 1_555
Ho7 O6 2.473431 1_655
Ho7 O28 2.480271 1_565
Ho7 O21 2.546654 1_555
Ho7 O34 2.550240 1_555
Ho7 O23 2.614741 1_555
Ho7 O29 2.663127 1_565
Ho7 O33 2.776349 1_555
O0 Se1 1.730116 1_555
O1 Se2 1.730116 1_555
O2 Se0 1.715273 1_545
O3 Se1 1.707827 1_555
O4 Se2 1.707827 1_555
O5 Se3 1.742451 1_555
O6 Se4 1.742451 1_555
O7 Se0 1.739698 1_555
O8 Se0 1.739698 1_555
O9 Se5 1.739698 1_555
O10 Se5 1.739698 1_555
O11 Se1 1.742451 1_555
O12 Se2 1.742451 1_555
O13 Se3 1.707827 1_545
O14 Se4 1.707827 1_545
O15 Se5 1.715273 1_555
O16 Se3 1.730116 1_555
O17 Se4 1.730116 1_555
O18 Se7 1.730116 1_555
O19 Se8 1.730116 1_555
O20 Se6 1.715273 1_555
O21 Se7 1.707827 1_565
O22 Se8 1.707827 1_565
O23 Se9 1.742451 1_555
O24 Se10 1.742451 1_555
O25 Se6 1.739698 1_555
O26 Se6 1.739698 1_555
O27 Se11 1.739698 1_555
O28 Se11 1.739698 1_555
O29 Se7 1.742451 1_555
O30 Se8 1.742451 1_555
O31 Se9 1.707827 1_555
O32 Se10 1.707827 1_555
O33 Se11 1.715273 1_565
O34 Se9 1.730116 1_555
O35 Se10 1.730116 1_555
