# generated using pymatgen
data_Li5Fe8(BO3)8
_symmetry_space_group_name_H-M   'P 1'
_cell_length_a   5.24495700
_cell_length_b   9.06812754
_cell_length_c   10.22098532
_cell_angle_alpha   89.01247196
_cell_angle_beta   89.58822414
_cell_angle_gamma   89.50563833
_symmetry_Int_Tables_number   1
_chemical_formula_structural   Li5Fe8(BO3)8
_chemical_formula_sum   'Li5 Fe8 B8 O24'
_cell_volume   486.02754116
_cell_formula_units_Z   1
loop_
 _symmetry_equiv_pos_site_id
 _symmetry_equiv_pos_as_xyz
  1  'x, y, z'
loop_
 _atom_site_type_symbol
 _atom_site_label
 _atom_site_symmetry_multiplicity
 _atom_site_fract_x
 _atom_site_fract_y
 _atom_site_fract_z
 _atom_site_occupancy
  Li  Li0  1  0.15387500  0.17188400  0.66143700  1
  Li  Li1  1  0.18891900  0.16237200  0.16706500  1
  Li  Li2  1  0.33679300  0.32273600  0.90609300  1
  Li  Li3  1  0.68324100  0.66558600  0.15063700  1
  Li  Li4  1  0.82501700  0.82889500  0.41069000  1
  Fe  Fe0  1  0.17524200  0.82701000  0.63444200  1
  Fe  Fe1  1  0.18368500  0.49830400  0.13342500  1
  Fe  Fe2  1  0.32251800  0.98917400  0.88509700  1
  Fe  Fe3  1  0.33385200  0.64892600  0.38153500  1
  Fe  Fe4  1  0.64938000  0.35367800  0.62434600  1
  Fe  Fe5  1  0.68629200  0.99708000  0.11890000  1
  Fe  Fe6  1  0.81677900  0.17209700  0.38052400  1
  Fe  Fe7  1  0.83119900  0.50591500  0.87566500  1
  B  B0  1  0.15123600  0.49852400  0.63538100  1
  B  B1  1  0.17630900  0.83323200  0.13298600  1
  B  B2  1  0.32239300  0.99536700  0.38292500  1
  B  B3  1  0.33295800  0.65870200  0.87575200  1
  B  B4  1  0.67211600  0.00272900  0.62221000  1
  B  B5  1  0.66971400  0.33195800  0.12466900  1
  B  B6  1  0.84047800  0.50058000  0.37136600  1
  B  B7  1  0.82802900  0.17276800  0.87657500  1
  O  O0  1  0.09171600  0.49222100  0.33182300  1
  O  O1  1  0.09037900  0.16781100  0.86053100  1
  O  O2  1  0.20731500  0.78296500  0.82556000  1
  O  O3  1  0.21867500  0.86368700  0.43025900  1
  O  O4  1  0.16834500  0.11551600  0.35727300  1
  O  O5  1  0.19070700  0.53475000  0.91610000  1
  O  O6  1  0.27712700  0.36581100  0.63605800  1
  O  O7  1  0.29560500  0.96543600  0.09491700  1
  O  O8  1  0.26872100  0.62657800  0.58819700  1
  O  O9  1  0.32341000  0.70852600  0.16221200  1
  O  O10  1  0.40966100  0.31998000  0.10778200  1
  O  O11  1  0.41318500  0.99960900  0.65788100  1
  O  O12  1  0.58539100  0.00325100  0.35558300  1
  O  O13  1  0.59009900  0.65715700  0.88884000  1
  O  O14  1  0.69565600  0.30653100  0.84854400  1
  O  O15  1  0.72032600  0.37210900  0.41864700  1
  O  O16  1  0.70931600  0.63260500  0.36491700  1
  O  O17  1  0.68952400  0.05351600  0.91868300  1
  O  O18  1  0.79807600  0.45989000  0.08556400  1
  O  O19  1  0.81827300  0.87639100  0.61651900  1
  O  O20  1  0.78625300  0.13810000  0.58571600  1
  O  O21  1  0.80846000  0.21154200  0.17826200  1
  O  O22  1  0.91525400  0.82685800  0.14228200  1
  O  O23  1  0.90202200  0.50884900  0.68209100  1
loop_
_geom_bond_atom_site_label_1
_geom_bond_atom_site_label_2
_geom_bond_distance
_geom_bond_site_symmetry_2
Li0 O6 1.891873 1_555
Li0 O1 2.059399 1_555
Li0 O11 2.063056 1_545
Li0 O20 2.109613 1_455
Li1 O10 1.933616 1_555
Li1 O4 1.985210 1_555
Li1 O7 2.017015 1_545
Li1 O21 2.043774 1_455
Li2 O14 1.972975 1_555
Li2 O1 1.980774 1_555
Li2 O5 2.067378 1_555
Li2 O10 2.098975 1_556
Li3 O22 1.910958 1_555
Li3 O9 1.926969 1_555
Li3 O18 2.074131 1_555
Li3 O16 2.210416 1_555
Li4 O16 1.951129 1_555
Li4 O12 2.083716 1_565
Li4 O3 2.102846 1_655
Li4 O19 2.154652 1_555
Fe0 O19 1.930588 1_455
Fe0 O8 1.943752 1_555
Fe0 O2 1.995074 1_555
Fe0 O11 2.028675 1_555
Fe0 O3 2.118591 1_555
Fe1 O10 2.016295 1_555
Fe1 O9 2.074666 1_555
Fe1 O0 2.080946 1_555
Fe1 O18 2.117408 1_455
Fe1 O5 2.240174 1_554
Fe2 O1 2.031236 1_565
Fe2 O17 2.049246 1_565
Fe2 O2 2.072691 1_555
Fe2 O7 2.155386 1_556
Fe2 O11 2.367664 1_555
Fe3 O16 1.979873 1_555
Fe3 O0 1.988884 1_555
Fe3 O3 2.101054 1_555
Fe3 O8 2.143735 1_555
Fe3 O9 2.297781 1_555
Fe4 O6 1.957521 1_555
Fe4 O23 2.038684 1_555
Fe4 O20 2.119238 1_555
Fe4 O15 2.136445 1_555
Fe4 O14 2.337780 1_555
Fe5 O22 1.959942 1_555
Fe5 O7 2.088344 1_555
Fe5 O17 2.100848 1_564
Fe5 O21 2.151419 1_565
Fe5 O12 2.474099 1_565
Fe6 O4 1.923917 1_655
Fe6 O15 1.924340 1_555
Fe6 O12 1.982964 1_555
Fe6 O21 2.092650 1_555
Fe6 O20 2.119654 1_555
Fe7 O13 1.863383 1_555
Fe7 O5 1.953999 1_655
Fe7 O14 1.973206 1_555
Fe7 O23 2.010228 1_555
Fe7 O18 2.184499 1_556
B0 O6 1.367630 1_555
B0 O23 1.391298 1_455
B0 O8 1.396234 1_555
B1 O22 1.373479 1_455
B1 O9 1.392817 1_555
B1 O7 1.404811 1_555
B2 O4 1.373551 1_565
B2 O3 1.394045 1_555
B2 O12 1.407645 1_565
B3 O13 1.356196 1_555
B3 O2 1.392596 1_555
B3 O5 1.408620 1_555
B4 O19 1.374792 1_545
B4 O11 1.404032 1_545
B4 O20 1.413542 1_555
B5 O10 1.381514 1_555
B5 O18 1.397316 1_555
B5 O21 1.411870 1_555
B6 O16 1.376466 1_555
B6 O0 1.377387 1_655
B6 O15 1.405977 1_555
B7 O17 1.369450 1_555
B7 O1 1.385017 1_655
B7 O14 1.418377 1_555
