# generated using pymatgen
data_Li2MnVP2(O4F)2
_symmetry_space_group_name_H-M   'P 1'
_cell_length_a   5.35221700
_cell_length_b   7.47906735
_cell_length_c   10.43011210
_cell_angle_alpha   105.73505547
_cell_angle_beta   97.53264808
_cell_angle_gamma   108.95135189
_symmetry_Int_Tables_number   1
_chemical_formula_structural   Li2MnVP2(O4F)2
_chemical_formula_sum   'Li4 Mn2 V2 P4 O16 F4'
_cell_volume   368.90488074
_cell_formula_units_Z   2
loop_
 _symmetry_equiv_pos_site_id
 _symmetry_equiv_pos_as_xyz
  1  'x, y, z'
loop_
 _atom_site_type_symbol
 _atom_site_label
 _atom_site_symmetry_multiplicity
 _atom_site_fract_x
 _atom_site_fract_y
 _atom_site_fract_z
 _atom_site_occupancy
  Li  Li0  1  0.42954100  0.81321600  0.04108000  1
  Li  Li1  1  0.42789000  0.81056700  0.53986600  1
  Li  Li2  1  0.57372300  0.18757100  0.45993200  1
  Li  Li3  1  0.56978800  0.18823200  0.95803500  1
  Mn  Mn0  1  0.00108400  0.99934800  0.49888400  1
  Mn  Mn1  1  0.49984700  0.50025900  0.74857700  1
  V  V0  1  0.00051900  0.00260900  0.00207500  1
  V  V1  1  0.49768700  0.49838100  0.25040500  1
  P  P0  1  0.11854900  0.76152200  0.22136100  1
  P  P1  1  0.87805400  0.23540600  0.27920200  1
  P  P2  1  0.11942200  0.76281500  0.72245600  1
  P  P3  1  0.88227700  0.24031200  0.77762900  1
  O  O0  1  0.16150400  0.91362200  0.14252600  1
  O  O1  1  0.82554300  0.61291100  0.18209900  1
  O  O2  1  0.31562000  0.65675900  0.17746400  1
  O  O3  1  0.78015300  0.11500200  0.12092500  1
  O  O4  1  0.21768200  0.88254500  0.37983000  1
  O  O5  1  0.68229900  0.34027300  0.32330300  1
  O  O6  1  0.17142000  0.38321800  0.31806200  1
  O  O7  1  0.83423600  0.08112600  0.35735000  1
  O  O8  1  0.16011400  0.91168400  0.63985500  1
  O  O9  1  0.82562900  0.61402800  0.68356200  1
  O  O10  1  0.32124400  0.66096200  0.67960000  1
  O  O11  1  0.78287600  0.11473300  0.61967000  1
  O  O12  1  0.21837600  0.88849600  0.87979800  1
  O  O13  1  0.68156600  0.34299900  0.82177800  1
  O  O14  1  0.17728000  0.38865400  0.81647600  1
  O  O15  1  0.84419500  0.09231700  0.85967100  1
  F  F0  1  0.33727100  0.26361500  0.06837200  1
  F  F1  1  0.64991800  0.72502300  0.43046200  1
  F  F2  1  0.34236300  0.26466400  0.56011600  1
  F  F3  1  0.67233000  0.74713200  0.93958200  1
loop_
_geom_bond_atom_site_label_1
_geom_bond_atom_site_label_2
_geom_bond_distance
_geom_bond_site_symmetry_2
Li0 O0 2.099592 1_555
Li0 O2 2.105071 1_555
Li0 O12 2.202875 1_554
Li0 O3 2.264742 1_565
Li1 O8 2.093256 1_555
Li1 O10 2.095148 1_555
Li1 O4 2.174902 1_555
Li1 O11 2.286641 1_565
Li2 O5 2.083645 1_555
Li2 O7 2.091134 1_555
Li2 O11 2.173733 1_555
Li2 O4 2.293222 1_545
Li3 O13 2.093524 1_555
Li3 O15 2.098669 1_555
Li3 O3 2.204048 1_556
Li3 O12 2.257349 1_545
Mn0 O7 1.962039 1_465
Mn0 O8 1.968116 1_555
Mn0 O4 2.023824 1_555
Mn0 O11 2.036310 1_465
Mn1 O9 1.970649 1_555
Mn1 O14 1.970799 1_555
Mn1 O10 1.977603 1_555
Mn1 O13 1.986857 1_555
O0 P0 1.552430 1_555
O0 V0 1.975265 1_565
O1 P0 1.521517 1_655
O1 V1 2.000731 1_555
O2 P0 1.550780 1_555
O2 V1 1.993888 1_555
O3 P1 1.572004 1_555
O3 V0 2.023975 1_655
O4 P0 1.574615 1_555
O5 P1 1.545596 1_555
O5 V1 2.000580 1_555
O6 P1 1.521335 1_455
O6 V1 1.991237 1_555
O7 P1 1.560531 1_555
O8 P2 1.562467 1_555
O9 P2 1.525389 1_655
O10 P2 1.556692 1_555
O11 P3 1.576671 1_555
O12 P2 1.571414 1_555
O12 V0 2.039717 1_566
O13 P3 1.558731 1_555
O14 P3 1.529281 1_455
O15 P3 1.553008 1_555
O15 V0 1.983826 1_656
F0 Li3 1.915806 1_554
F0 V0 2.047715 1_555
F0 V1 2.051877 1_555
F1 Li1 1.891288 1_555
F1 V1 2.009782 1_555
F1 Mn0 2.144947 1_655
F2 Li2 1.853080 1_555
F2 Mn0 2.081921 1_545
F2 Mn1 2.097958 1_555
F3 Li0 1.883516 1_556
F3 V0 2.001374 1_666
F3 Mn1 2.155421 1_555
