# generated using pymatgen
data_Li3Mn(BO3)2
_symmetry_space_group_name_H-M   'P 1'
_cell_length_a   8.13463044
_cell_length_b   8.24442236
_cell_length_c   8.29018371
_cell_angle_alpha   111.15410899
_cell_angle_beta   77.96419911
_cell_angle_gamma   110.48705804
_symmetry_Int_Tables_number   1
_chemical_formula_structural   Li3Mn(BO3)2
_chemical_formula_sum   'Li12 Mn4 B8 O24'
_cell_volume   483.56655591
_cell_formula_units_Z   4
loop_
 _symmetry_equiv_pos_site_id
 _symmetry_equiv_pos_as_xyz
  1  'x, y, z'
loop_
 _atom_site_type_symbol
 _atom_site_label
 _atom_site_symmetry_multiplicity
 _atom_site_fract_x
 _atom_site_fract_y
 _atom_site_fract_z
 _atom_site_occupancy
  Li  Li0  1  0.82331900  0.89349700  0.00354100  1
  Li  Li1  1  0.32332400  0.89352700  0.50352800  1
  Li  Li2  1  0.67667000  0.10646400  0.49647100  1
  Li  Li3  1  0.17668500  0.10655700  0.99648300  1
  Li  Li4  1  0.00706700  0.24397100  0.30971500  1
  Li  Li5  1  0.50708700  0.24395600  0.80973700  1
  Li  Li6  1  0.49292500  0.75604400  0.19028700  1
  Li  Li7  1  0.99293700  0.75605000  0.69028100  1
  Li  Li8  1  0.47299300  0.55302400  0.85381800  1
  Li  Li9  1  0.97301600  0.55305400  0.35376600  1
  Li  Li10  1  0.02698100  0.44696800  0.64620800  1
  Li  Li11  1  0.52700100  0.44697000  0.14621200  1
  Mn  Mn0  1  0.86062400  0.22746200  0.94771500  1
  Mn  Mn1  1  0.63947200  0.77247200  0.55244600  1
  Mn  Mn2  1  0.36062200  0.22760800  0.44767500  1
  Mn  Mn3  1  0.13934700  0.77225000  0.05210000  1
  B  B0  1  0.28298900  0.55897200  0.44697400  1
  B  B1  1  0.78297500  0.55890900  0.94700900  1
  B  B2  1  0.21701100  0.44108200  0.05300400  1
  B  B3  1  0.71701900  0.44100500  0.55299400  1
  B  B4  1  0.42828700  0.87775300  0.78604300  1
  B  B5  1  0.92828400  0.87775000  0.28606800  1
  B  B6  1  0.07167500  0.12234000  0.71394600  1
  B  B7  1  0.57171400  0.12224700  0.21391900  1
  O  O0  1  0.55161800  0.36738400  0.62997500  1
  O  O1  1  0.05161400  0.36740100  0.12998300  1
  O  O2  1  0.94836900  0.63260300  0.87002800  1
  O  O3  1  0.44839100  0.63260300  0.37003600  1
  O  O4  1  0.48106100  0.72453600  0.74614300  1
  O  O5  1  0.98114400  0.72455200  0.24608500  1
  O  O6  1  0.01883500  0.27561000  0.75393100  1
  O  O7  1  0.51886700  0.27547800  0.25391800  1
  O  O8  1  0.51905300  0.98311600  0.67516400  1
  O  O9  1  0.01901200  0.98316500  0.17523400  1
  O  O10  1  0.98099500  0.01689600  0.82478100  1
  O  O11  1  0.48097100  0.01687700  0.32480000  1
  O  O12  1  0.22238000  0.37732800  0.45116000  1
  O  O13  1  0.72242900  0.37723700  0.95118100  1
  O  O14  1  0.27758800  0.62271800  0.04885200  1
  O  O15  1  0.77765200  0.62264000  0.54884000  1
  O  O16  1  0.16671200  0.65868800  0.51933800  1
  O  O17  1  0.66672400  0.65864800  0.01935400  1
  O  O18  1  0.33329100  0.34133500  0.98064000  1
  O  O19  1  0.83329000  0.34127400  0.48063000  1
  O  O20  1  0.19875100  0.07897500  0.58597900  1
  O  O21  1  0.69885700  0.07891300  0.08593100  1
  O  O22  1  0.30122400  0.92109500  0.91402700  1
  O  O23  1  0.80114800  0.92099400  0.41405200  1
loop_
_geom_bond_atom_site_label_1
_geom_bond_atom_site_label_2
_geom_bond_distance
_geom_bond_site_symmetry_2
Li0 O17 1.943141 1_555
Li0 O21 1.967161 1_565
Li0 O10 2.063584 1_564
Li0 O9 2.113842 1_655
Li0 O2 2.496005 1_554
Li1 O16 1.943109 1_555
Li1 O20 1.968005 1_565
Li1 O11 2.063094 1_565
Li1 O8 2.113837 1_555
Li1 O3 2.496291 1_555
Li2 O19 1.943014 1_555
Li2 O23 1.967615 1_545
Li2 O8 2.062790 1_545
Li2 O11 2.113856 1_555
Li2 O0 2.496192 1_555
Li3 O18 1.942777 1_555
Li3 O22 1.967902 1_545
Li3 O9 2.063489 1_546
Li3 O10 2.113885 1_455
Li3 O1 2.495757 1_556
Li4 O19 1.946166 1_455
Li4 O1 1.999508 1_555
Li4 O12 2.056596 1_555
Li4 O9 2.060729 1_545
Li5 O18 1.946488 1_555
Li5 O0 1.999738 1_555
Li5 O13 2.056757 1_555
Li5 O8 2.061141 1_545
Li6 O17 1.946668 1_555
Li6 O3 1.999715 1_555
Li6 O14 2.056695 1_555
Li6 O11 2.060984 1_565
Li7 O16 1.946450 1_655
Li7 O2 1.999693 1_555
Li7 O15 2.056413 1_555
Li7 O10 2.061031 1_565
Li8 O4 1.903204 1_555
Li8 O17 2.050349 1_556
Li8 O0 2.082173 1_555
Li8 O14 2.089981 1_556
Li8 O18 2.209188 1_555
Li9 O5 1.902979 1_555
Li9 O16 2.050328 1_655
Li9 O1 2.081866 1_655
Li9 O15 2.089687 1_555
Li9 O19 2.210029 1_555
Li10 O6 1.902147 1_555
Li10 O19 2.050288 1_455
Li10 O2 2.082005 1_455
Li10 O12 2.089890 1_555
Li10 O16 2.209680 1_555
Li11 O7 1.903070 1_555
Li11 O18 2.050414 1_554
Li11 O3 2.082009 1_555
Li11 O13 2.090183 1_554
Li11 O17 2.209336 1_555
Mn0 O6 1.906611 1_655
Mn0 O13 1.929229 1_555
Mn0 O21 1.949454 1_556
Mn0 O1 2.119947 1_656
Mn0 O10 2.123172 1_555
Mn1 O4 1.906264 1_555
Mn1 O15 1.929133 1_555
Mn1 O23 1.950068 1_555
Mn1 O3 2.121229 1_555
Mn1 O8 2.123785 1_555
Mn2 O7 1.905924 1_555
Mn2 O12 1.929103 1_555
Mn2 O20 1.950645 1_555
Mn2 O0 2.120118 1_555
Mn2 O11 2.124110 1_555
Mn3 O5 1.906857 1_455
Mn3 O14 1.928461 1_555
Mn3 O22 1.950428 1_554
Mn3 O2 2.118720 1_454
Mn3 O9 2.125449 1_555
B0 O16 1.371904 1_555
B0 O3 1.391215 1_555
B0 O12 1.414384 1_555
B1 O17 1.371850 1_556
B1 O2 1.391453 1_555
B1 O13 1.414578 1_555
B2 O18 1.372098 1_554
B2 O1 1.391435 1_555
B2 O14 1.414235 1_555
B3 O19 1.371949 1_555
B3 O0 1.391335 1_555
B3 O15 1.414220 1_555
B4 O22 1.359894 1_555
B4 O4 1.381356 1_555
B4 O8 1.410308 1_555
B5 O23 1.360104 1_555
B5 O5 1.381509 1_555
B5 O9 1.410256 1_655
B6 O20 1.359940 1_555
B6 O6 1.381968 1_555
B6 O10 1.410355 1_455
B7 O21 1.360344 1_555
B7 O7 1.381682 1_555
B7 O11 1.410327 1_555
