# generated using pymatgen
data_Li8Mn3Fe5(BO3)8
_symmetry_space_group_name_H-M   'P 1'
_cell_length_a   5.23600700
_cell_length_b   6.03397531
_cell_length_c   16.16268617
_cell_angle_alpha   81.85460750
_cell_angle_beta   89.22441398
_cell_angle_gamma   88.96823617
_symmetry_Int_Tables_number   1
_chemical_formula_structural   Li8Mn3Fe5(BO3)8
_chemical_formula_sum   'Li8 Mn3 Fe5 B8 O24'
_cell_volume   505.37829270
_cell_formula_units_Z   1
loop_
 _symmetry_equiv_pos_site_id
 _symmetry_equiv_pos_as_xyz
  1  'x, y, z'
loop_
 _atom_site_type_symbol
 _atom_site_label
 _atom_site_symmetry_multiplicity
 _atom_site_fract_x
 _atom_site_fract_y
 _atom_site_fract_z
 _atom_site_occupancy
  Li  Li0  1  0.84659600  0.06443700  0.38907200  1
  Li  Li1  1  0.15342800  0.43794200  0.10805100  1
  Li  Li2  1  0.65244900  0.18439400  0.86127300  1
  Li  Li3  1  0.34562300  0.31405300  0.63967400  1
  Li  Li4  1  0.65307800  0.68410600  0.35978500  1
  Li  Li5  1  0.34736000  0.81707300  0.13826600  1
  Li  Li6  1  0.84708400  0.56179100  0.89027200  1
  Li  Li7  1  0.15216200  0.93645400  0.60985400  1
  Mn  Mn0  1  0.16938800  0.02005900  0.79155400  1
  Mn  Mn1  1  0.16940400  0.52460300  0.29119700  1
  Mn  Mn2  1  0.66908700  0.77298600  0.54143900  1
  Fe  Fe0  1  0.67284100  0.27181100  0.04305900  1
  Fe  Fe1  1  0.33606100  0.22287900  0.46042200  1
  Fe  Fe2  1  0.83679100  0.47233100  0.71044300  1
  Fe  Fe3  1  0.82985400  0.97255800  0.21166600  1
  Fe  Fe4  1  0.33836900  0.72053800  0.96029900  1
  B  B0  1  0.32561100  0.03771900  0.29634000  1
  B  B1  1  0.82734600  0.28739400  0.54700400  1
  B  B2  1  0.66904000  0.46585200  0.20192100  1
  B  B3  1  0.17181200  0.21274700  0.95406800  1
  B  B4  1  0.82827000  0.78896100  0.04644900  1
  B  B5  1  0.32898900  0.53546900  0.79756400  1
  B  B6  1  0.17177500  0.71491200  0.45276000  1
  B  B7  1  0.67185600  0.96399900  0.70306100  1
  O  O0  1  0.58714200  0.01279200  0.30715900  1
  O  O1  1  0.18261300  0.16696100  0.34605200  1
  O  O2  1  0.70583800  0.17672400  0.48873700  1
  O  O3  1  0.29732000  0.32956500  0.00954100  1
  O  O4  1  0.78790100  0.08009100  0.76045300  1
  O  O5  1  0.81660600  0.33129200  0.15444300  1
  O  O6  1  0.31762400  0.07733400  0.90677700  1
  O  O7  1  0.08695200  0.26322000  0.55846000  1
  O  O8  1  0.40963700  0.48943400  0.18918500  1
  O  O9  1  0.91134600  0.23718000  0.94194300  1
  O  O10  1  0.68044500  0.41761500  0.59603600  1
  O  O11  1  0.20638000  0.42550100  0.73907500  1
  O  O12  1  0.78835900  0.57810800  0.25978900  1
  O  O13  1  0.32160200  0.57942500  0.40679300  1
  O  O14  1  0.08815400  0.76273600  0.05823200  1
  O  O15  1  0.58829000  0.51110300  0.80887500  1
  O  O16  1  0.91170200  0.73843600  0.43868700  1
  O  O17  1  0.68317000  0.92012200  0.09549900  1
  O  O18  1  0.18164600  0.66511500  0.84640700  1
  O  O19  1  0.20404500  0.92633900  0.23830800  1
  O  O20  1  0.70704100  0.67709800  0.98874400  1
  O  O21  1  0.28806800  0.83198500  0.50971300  1
  O  O22  1  0.82180500  0.82912400  0.65681100  1
  O  O23  1  0.41204000  0.98763600  0.68878500  1
loop_
_geom_bond_atom_site_label_1
_geom_bond_atom_site_label_2
_geom_bond_distance
_geom_bond_site_symmetry_2
Li0 O1 1.961071 1_655
Li0 O2 1.963732 1_555
Li0 O0 1.968829 1_555
Li0 O16 2.040818 1_545
Li1 O3 1.942979 1_555
Li1 O8 1.947794 1_555
Li1 O5 1.988714 1_455
Li1 O14 2.035224 1_555
Li2 O4 1.948767 1_555
Li2 O9 1.954521 1_555
Li2 O6 1.975599 1_555
Li2 O15 2.055985 1_555
Li3 O11 1.954912 1_555
Li3 O7 1.956702 1_555
Li3 O10 1.960229 1_555
Li3 O23 2.042077 1_545
Li4 O16 1.936163 1_555
Li4 O12 1.941272 1_555
Li4 O13 1.963763 1_555
Li4 O0 2.069142 1_565
Li5 O14 1.951038 1_555
Li5 O17 1.959779 1_555
Li5 O19 1.965638 1_555
Li5 O8 2.053054 1_555
Li6 O20 1.954146 1_555
Li6 O15 1.959003 1_555
Li6 O18 1.959717 1_655
Li6 O9 2.041446 1_555
Li7 O23 1.936033 1_555
Li7 O21 1.940416 1_555
Li7 O22 1.962903 1_455
Li7 O7 2.052681 1_565
Mn0 O4 2.079255 1_455
Mn0 O6 2.102677 1_555
Mn0 O23 2.106541 1_545
Mn0 O18 2.199008 1_545
Mn0 O11 2.483258 1_555
Mn1 O12 2.073728 1_455
Mn1 O8 2.092639 1_555
Mn1 O13 2.111901 1_555
Mn1 O1 2.214033 1_555
Mn1 O19 2.462553 1_555
Mn2 O21 2.078500 1_555
Mn2 O16 2.108732 1_555
Mn2 O22 2.111978 1_555
Mn2 O10 2.200200 1_555
Mn2 O2 2.474231 1_565
Fe0 O5 2.041058 1_555
Fe0 O3 2.057098 1_555
Fe0 O9 2.075158 1_554
Fe0 O17 2.170707 1_545
Fe0 O20 2.487233 1_554
Fe1 O2 2.001037 1_555
Fe1 O7 2.076844 1_555
Fe1 O1 2.098367 1_555
Fe1 O13 2.202955 1_555
Fe1 O21 2.396767 1_545
Fe2 O11 2.001595 1_655
Fe2 O15 2.077797 1_555
Fe2 O10 2.102886 1_555
Fe2 O22 2.204402 1_555
Fe2 O4 2.407192 1_555
Fe3 O19 2.017686 1_655
Fe3 O0 2.024376 1_565
Fe3 O17 2.105087 1_555
Fe3 O5 2.230402 1_565
Fe3 O12 2.409672 1_555
Fe4 O20 1.994506 1_555
Fe4 O14 2.081530 1_556
Fe4 O18 2.097378 1_555
Fe4 O6 2.204875 1_565
Fe4 O3 2.393043 1_556
B0 O0 1.385644 1_555
B0 O19 1.395271 1_545
B0 O1 1.398065 1_555
B1 O7 1.376689 1_655
B1 O2 1.395466 1_555
B1 O10 1.405439 1_555
B2 O8 1.378308 1_555
B2 O12 1.390861 1_555
B2 O5 1.408191 1_555
B3 O9 1.382716 1_455
B3 O3 1.394385 1_556
B3 O6 1.404795 1_555
B4 O14 1.379740 1_655
B4 O20 1.392203 1_554
B4 O17 1.404242 1_555
B5 O15 1.374884 1_555
B5 O11 1.398435 1_555
B5 O18 1.402548 1_555
B6 O16 1.385102 1_455
B6 O21 1.389990 1_555
B6 O13 1.403208 1_555
B7 O23 1.384359 1_555
B7 O4 1.391066 1_565
B7 O22 1.403938 1_555
