# generated using pymatgen
data_V8Sn16H85(C8O9)4
_symmetry_space_group_name_H-M   'P 1'
_cell_length_a   12.86740200
_cell_length_b   13.40505396
_cell_length_c   13.64377309
_cell_angle_alpha   89.98379194
_cell_angle_beta   89.86202409
_cell_angle_gamma   89.87686042
_symmetry_Int_Tables_number   1
_chemical_formula_structural   V8Sn16H85(C8O9)4
_chemical_formula_sum   'V8 Sn16 H85 C32 O36'
_cell_volume   2353.37775856
_cell_formula_units_Z   1
loop_
 _symmetry_equiv_pos_site_id
 _symmetry_equiv_pos_as_xyz
  1  'x, y, z'
loop_
 _atom_site_type_symbol
 _atom_site_label
 _atom_site_symmetry_multiplicity
 _atom_site_fract_x
 _atom_site_fract_y
 _atom_site_fract_z
 _atom_site_occupancy
  V  V0  1  0.47647300  0.74866100  0.63013000  1
  V  V1  1  0.97623800  0.24848300  0.86980800  1
  V  V2  1  0.97620700  0.75156700  0.86975700  1
  V  V3  1  0.47672900  0.25153900  0.63027700  1
  V  V4  1  0.52316400  0.74838400  0.36923900  1
  V  V5  1  0.02321100  0.24830700  0.13093800  1
  V  V6  1  0.02347100  0.75181200  0.13042300  1
  V  V7  1  0.52430100  0.25347600  0.36949400  1
  Sn  Sn0  1  0.20810200  0.74637700  0.73058900  1
  Sn  Sn1  1  0.87776200  0.99990900  0.80150100  1
  Sn  Sn2  1  0.70815400  0.24633500  0.76944500  1
  Sn  Sn3  1  0.70813700  0.75373500  0.76943000  1
  Sn  Sn4  1  0.62989600  0.00013500  0.71441900  1
  Sn  Sn5  1  0.37798100  0.50009800  0.69828200  1
  Sn  Sn6  1  0.20838000  0.25403400  0.73002900  1
  Sn  Sn7  1  0.12963800  0.50024800  0.78568100  1
  Sn  Sn8  1  0.79151100  0.74637300  0.26980500  1
  Sn  Sn9  1  0.36627400  0.99646000  0.28437000  1
  Sn  Sn10  1  0.29183700  0.24490800  0.23000600  1
  Sn  Sn11  1  0.29141400  0.75230700  0.22948300  1
  Sn  Sn12  1  0.11847000  0.00039300  0.19596300  1
  Sn  Sn13  1  0.86897900  0.49976700  0.22022900  1
  Sn  Sn14  1  0.79190000  0.25368700  0.26990900  1
  Sn  Sn15  1  0.61763300  0.49995700  0.30339500  1
  H  H0  1  0.48730400  0.43359300  0.85437800  1
  H  H1  1  0.38430500  0.56635700  0.51092600  1
  H  H2  1  0.30610900  0.88751500  0.83718600  1
  H  H3  1  0.30354600  0.77175400  0.90302300  1
  H  H4  1  0.19048700  0.85080700  0.90221200  1
  H  H5  1  0.15280700  0.84057000  0.56106800  1
  H  H6  1  0.10978600  0.56736500  0.97351100  1
  H  H7  1  0.11328100  0.71246000  0.55772500  1
  H  H8  1  0.03806600  0.80054800  0.62612500  1
  H  H9  1  0.98732600  0.06649200  0.64531600  1
  H  H10  1  0.98747900  0.93360200  0.64530000  1
  H  H11  1  0.96561600  0.43284800  0.68131700  1
  H  H12  1  0.87579700  0.00014000  0.60149700  1
  H  H13  1  0.88365800  0.06645000  0.98891800  1
  H  H14  1  0.88416200  0.93365100  0.98899300  1
  H  H15  1  0.80617000  0.38747400  0.66263600  1
  H  H16  1  0.80636600  0.61235700  0.66256900  1
  H  H17  1  0.80377500  0.27181800  0.59669400  1
  H  H18  1  0.80369700  0.72809000  0.59669800  1
  H  H19  1  0.76414900  0.99998600  0.96847100  1
  H  H20  1  0.72914800  0.99980500  0.54092800  1
  H  H21  1  0.69069800  0.35077500  0.59786200  1
  H  H22  1  0.69077000  0.64937800  0.59789800  1
  H  H23  1  0.65267300  0.34050300  0.93886900  1
  H  H24  1  0.65283700  0.65945200  0.93885100  1
  H  H25  1  0.61030600  0.06753000  0.52662800  1
  H  H26  1  0.60999200  0.93278300  0.52661000  1
  H  H27  1  0.61298300  0.21248400  0.94245500  1
  H  H28  1  0.61285800  0.78750500  0.94252600  1
  H  H29  1  0.53791200  0.30055200  0.87415000  1
  H  H30  1  0.53802400  0.69960700  0.87406300  1
  H  H31  1  0.55102300  0.99999500  0.89925200  1
  H  H32  1  0.48719100  0.56645400  0.85440500  1
  H  H33  1  0.46531000  0.06730200  0.81899300  1
  H  H34  1  0.46550100  0.93284500  0.81887900  1
  H  H35  1  0.37558200  0.50009100  0.89848400  1
  H  H36  1  0.38437000  0.43367900  0.51097400  1
  H  H37  1  0.30667200  0.11265000  0.83697100  1
  H  H38  1  0.30425300  0.22860700  0.90259200  1
  H  H39  1  0.26437000  0.50013100  0.53185400  1
  H  H40  1  0.22894600  0.49989200  0.95875100  1
  H  H41  1  0.19124400  0.15065600  0.90122400  1
  H  H42  1  0.15299600  0.15942600  0.56097400  1
  H  H43  1  0.10992700  0.43268400  0.97347200  1
  H  H44  1  0.11294100  0.28754700  0.55740400  1
  H  H45  1  0.03824600  0.19966900  0.62629100  1
  H  H46  1  0.05135800  0.50000600  0.60080900  1
  H  H47  1  0.03509900  0.43251600  0.31905900  1
  H  H48  1  0.96536800  0.56733000  0.68118900  1
  H  H49  1  0.96157500  0.80472200  0.37263200  1
  H  H50  1  0.88940100  0.71362800  0.44171700  1
  H  H51  1  0.84607200  0.84074800  0.43846100  1
  H  H52  1  0.80790100  0.85037000  0.09959500  1
  H  H53  1  0.69566600  0.77105900  0.09756900  1
  H  H54  1  0.69110700  0.88703300  0.16337400  1
  H  H55  1  0.54523500  0.05822500  0.18190100  1
  H  H56  1  0.45810400  0.98928900  0.09608700  1
  H  H57  1  0.46139600  0.30459600  0.12723400  1
  H  H58  1  0.46211200  0.69482800  0.12644000  1
  H  H59  1  0.38993100  0.21355400  0.05790400  1
  H  H60  1  0.38943300  0.78614100  0.05827300  1
  H  H61  1  0.39609400  0.06084400  0.48117000  1
  H  H62  1  0.34580000  0.34065900  0.06186800  1
  H  H63  1  0.34697600  0.65881100  0.06050800  1
  H  H64  1  0.30887600  0.34922100  0.40047600  1
  H  H65  1  0.30862400  0.64980100  0.40129900  1
  H  H66  1  0.27378300  0.98779500  0.46929900  1
  H  H67  1  0.23540800  0.99048600  0.02290900  1
  H  H68  1  0.19567600  0.27108100  0.40274600  1
  H  H69  1  0.19575700  0.72889100  0.40226600  1
  H  H70  1  0.19371400  0.38670700  0.33621500  1
  H  H71  1  0.19328900  0.61223800  0.33764200  1
  H  H72  1  0.10875600  0.05573800  0.99822000  1
  H  H73  1  0.10976900  0.00083200  0.41355100  1
  H  H74  1  0.03481300  0.56740000  0.31896200  1
  H  H75  1  0.95007600  0.50002600  0.40069400  1
  H  H76  1  0.96181300  0.19507800  0.37279700  1
  H  H77  1  0.88943000  0.28629000  0.44181800  1
  H  H78  1  0.84623100  0.15928300  0.43853000  1
  H  H79  1  0.80899200  0.15044800  0.09901300  1
  H  H80  1  0.77894400  0.50014800  0.02114400  1
  H  H81  1  0.73545000  0.49983000  0.48885800  1
  H  H82  1  0.69560200  0.22891700  0.09753400  1
  H  H83  1  0.69382700  0.11281400  0.16335700  1
  H  H84  1  0.61052500  0.49998000  0.08610900  1
  C  C0  1  0.25749500  0.82463100  0.85973300  1
  C  C1  1  0.11658700  0.78002400  0.60285400  1
  C  C2  1  0.93945500  0.00008800  0.65463800  1
  C  C3  1  0.84844500  0.99998600  0.95668700  1
  C  C4  1  0.75762600  0.32460400  0.64017900  1
  C  C5  1  0.75768500  0.67535100  0.64018300  1
  C  C6  1  0.64561800  0.00000100  0.55710000  1
  C  C7  1  0.61636000  0.28002600  0.89725800  1
  C  C8  1  0.61639700  0.72002900  0.89725400  1
  C  C9  1  0.51259300  0.00004100  0.82740100  1
  C  C10  1  0.43930700  0.50007300  0.84510400  1
  C  C11  1  0.34867000  0.50007100  0.54328200  1
  C  C12  1  0.25839100  0.17611100  0.85896600  1
  C  C13  1  0.14541400  0.49999100  0.94290300  1
  C  C14  1  0.11661600  0.22007500  0.60269100  1
  C  C15  1  0.01271800  0.50006400  0.67274700  1
  C  C16  1  0.88410400  0.78117500  0.39658100  1
  C  C17  1  0.74051700  0.82428700  0.14125100  1
  C  C18  1  0.47694700  0.01168000  0.17097600  1
  C  C19  1  0.38416600  0.28095100  0.10315500  1
  C  C20  1  0.38455800  0.71812200  0.10271600  1
  C  C21  1  0.34721700  0.01214900  0.43707500  1
  C  C22  1  0.24173100  0.32332600  0.35878600  1
  C  C23  1  0.24162400  0.67559000  0.35919600  1
  C  C24  1  0.15760200  0.01173100  0.04694500  1
  C  C25  1  0.06947100  0.99882000  0.34305800  1
  C  C26  1  0.98840900  0.49997800  0.32872600  1
  C  C27  1  0.88430500  0.21874300  0.39671700  1
  C  C28  1  0.84714900  0.49991800  0.06850900  1
  C  C29  1  0.74169200  0.17627800  0.14099500  1
  C  C30  1  0.65994400  0.50004500  0.45203000  1
  C  C31  1  0.56907600  0.50021500  0.15612600  1
  O  O0  1  0.56841800  0.82104700  0.69232500  1
  O  O1  1  0.49152300  0.62982900  0.66891000  1
  O  O2  1  0.35193400  0.78668500  0.65617100  1
  O  O3  1  0.24688800  0.59889500  0.73484100  1
  O  O4  1  0.06821700  0.32091300  0.80733000  1
  O  O5  1  0.06840200  0.67896400  0.80732900  1
  O  O6  1  0.00059800  0.25593400  0.00059100  1
  O  O7  1  0.99194900  0.12933300  0.83140400  1
  O  O8  1  0.99143000  0.87044400  0.83074200  1
  O  O9  1  0.85181400  0.28618400  0.84389000  1
  O  O10  1  0.85195400  0.71377900  0.84388500  1
  O  O11  1  0.74689800  0.09874400  0.76510200  1
  O  O12  1  0.74694600  0.90118900  0.76508500  1
  O  O13  1  0.56866600  0.17885900  0.69258500  1
  O  O14  1  0.49977200  0.24196100  0.49936300  1
  O  O15  1  0.49149900  0.37033100  0.66886300  1
  O  O16  1  0.35226900  0.21325500  0.65573600  1
  O  O17  1  0.24697200  0.40138200  0.73462900  1
  O  O18  1  0.75085700  0.59867300  0.26516400  1
  O  O19  1  0.64715400  0.78646100  0.34519200  1
  O  O20  1  0.50955600  0.62763000  0.33114100  1
  O  O21  1  0.49953400  0.75702700  0.49893100  1
  O  O22  1  0.43083700  0.82265500  0.30691300  1
  O  O23  1  0.24991100  0.09825500  0.23654500  1
  O  O24  1  0.25019900  0.90016200  0.23455000  1
  O  O25  1  0.14690500  0.28667800  0.15620500  1
  O  O26  1  0.14728700  0.71224900  0.15571600  1
  O  O27  1  0.00815100  0.12820300  0.16979200  1
  O  O28  1  0.00982200  0.87237400  0.16858500  1
  O  O29  1  0.00020000  0.74354000  0.00054000  1
  O  O30  1  0.93090400  0.32165700  0.19305200  1
  O  O31  1  0.93112100  0.67916100  0.19275900  1
  O  O32  1  0.75082100  0.40145700  0.26520300  1
  O  O33  1  0.64797600  0.21356600  0.34438400  1
  O  O34  1  0.51030000  0.37455100  0.33177900  1
  O  O35  1  0.43302200  0.18120900  0.30738900  1
loop_
_geom_bond_atom_site_label_1
_geom_bond_atom_site_label_2
_geom_bond_distance
_geom_bond_site_symmetry_2
C0 H2 1.094399 1_555
C0 H4 1.094924 1_555
C0 H3 1.096378 1_555
C0 Sn0 2.149029 1_555
C1 H8 1.092997 1_555
C1 H5 1.095929 1_555
C1 H7 1.096280 1_555
C1 Sn0 2.152800 1_555
C2 H10 1.090747 1_545
C2 H9 1.090818 1_555
C2 H12 1.095214 1_555
C2 Sn1 2.153506 1_545
C3 H14 1.093261 1_555
C3 H13 1.093342 1_565
C3 H19 1.096139 1_555
C3 Sn1 2.149771 1_555
C4 H15 1.094372 1_555
C4 H21 1.095014 1_555
C4 H17 1.096383 1_555
C4 Sn2 2.147794 1_555
C5 H16 1.094184 1_555
C5 H22 1.095089 1_555
C5 H18 1.096453 1_555
C5 Sn3 2.147772 1_555
C6 H25 1.094384 1_555
C6 H26 1.094539 1_545
C6 H20 1.096706 1_545
C6 Sn4 2.155453 1_555
C7 H29 1.092855 1_555
C7 H23 1.095920 1_555
C7 H27 1.096191 1_555
C7 Sn2 2.151357 1_555
C8 H30 1.093077 1_555
C8 H24 1.095786 1_555
C8 H28 1.096249 1_555
C8 Sn3 2.151999 1_555
C9 H33 1.092791 1_555
C9 H34 1.093079 1_545
C9 H31 1.099037 1_545
C9 Sn4 2.154825 1_555
C10 H0 1.090671 1_555
C10 H32 1.091031 1_555
C10 H35 1.095404 1_555
C10 Sn5 2.154794 1_555
C11 H36 1.093112 1_555
C11 H1 1.093271 1_555
C11 H39 1.096241 1_555
C11 Sn5 2.149047 1_555
C12 H41 1.092758 1_555
C12 H37 1.093925 1_555
C12 H38 1.096112 1_555
C12 Sn6 2.145106 1_555
C13 H43 1.094149 1_555
C13 H6 1.094422 1_555
C13 H40 1.096882 1_555
C13 Sn7 2.155173 1_555
C14 H45 1.093154 1_555
C14 H42 1.096090 1_555
C14 H44 1.096229 1_555
C14 Sn6 2.152331 1_555
C15 H11 1.093076 1_455
C15 H48 1.093119 1_455
C15 H46 1.099185 1_555
C15 Sn7 2.156104 1_555
C16 H49 1.095372 1_555
C16 H51 1.095877 1_555
C16 H50 1.096989 1_555
C16 Sn8 2.154483 1_555
C17 H52 1.093559 1_555
C17 H54 1.095315 1_555
C17 H53 1.095923 1_555
C17 Sn8 2.144609 1_555
C18 H55 1.089336 1_555
C18 H56 1.092963 1_545
C18 Sn9 2.110369 1_545
C19 H57 1.094952 1_555
C19 H62 1.095919 1_555
C19 H59 1.096689 1_555
C19 Sn10 2.152295 1_555
C20 H58 1.094658 1_555
C20 H63 1.095842 1_555
C20 H60 1.096698 1_555
C20 Sn11 2.150814 1_555
C21 H61 1.089676 1_555
C21 H66 1.091773 1_545
C21 Sn9 2.107791 1_545
C22 H64 1.092827 1_555
C22 H70 1.094054 1_555
C22 H68 1.096012 1_555
C22 Sn10 2.144897 1_555
C23 H65 1.092580 1_555
C23 H71 1.094438 1_555
C23 H69 1.095860 1_555
C23 Sn11 2.143944 1_555
C24 H72 1.088663 1_554
C24 H67 1.090055 1_545
C24 Sn12 2.098960 1_555
C25 H73 1.094129 1_565
C25 Sn12 2.102302 1_565
C26 H74 1.092240 1_655
C26 H47 1.092473 1_655
C26 H75 1.097778 1_555
C26 Sn13 2.136331 1_555
C27 H76 1.094960 1_555
C27 H78 1.095837 1_555
C27 H77 1.097109 1_555
C27 Sn14 2.152583 1_555
C28 H80 1.091132 1_555
C28 Sn13 2.089675 1_555
C29 H79 1.092855 1_555
C29 H83 1.094246 1_555
C29 H82 1.095858 1_555
C29 Sn14 2.144099 1_555
C30 H81 1.094882 1_555
C30 Sn15 2.101019 1_555
C31 H84 1.092975 1_555
C31 Sn15 2.105642 1_555
O0 V0 1.752592 1_555
O0 Sn3 2.270386 1_555
O0 Sn4 2.547480 1_565
O1 V0 1.689270 1_555
O1 Sn5 2.308050 1_555
O2 V0 1.716939 1_555
O2 Sn0 2.177859 1_555
O3 Sn0 2.038828 1_555
O3 Sn7 2.123443 1_555
O3 Sn5 2.198837 1_555
O4 V1 1.752057 1_455
O4 Sn6 2.270076 1_555
O4 Sn7 2.549059 1_555
O5 V2 1.752331 1_455
O5 Sn0 2.267498 1_555
O5 Sn7 2.537446 1_555
O6 V5 1.805595 1_555
O6 V1 1.815254 1_454
O7 V1 1.692655 1_555
O7 Sn1 2.312902 1_545
O8 V2 1.691595 1_555
O8 Sn1 2.302568 1_555
O9 V1 1.715474 1_555
O9 Sn2 2.178916 1_555
O10 V2 1.715722 1_555
O10 Sn3 2.178956 1_555
O11 Sn2 2.040112 1_555
O11 Sn4 2.122768 1_555
O11 Sn1 2.198062 1_545
O12 Sn3 2.040584 1_555
O12 Sn4 2.121667 1_565
O12 Sn1 2.201239 1_555
O13 V3 1.752371 1_555
O13 Sn2 2.270662 1_555
O13 Sn4 2.538105 1_555
O14 V7 1.805671 1_555
O14 V3 1.814438 1_555
O15 V3 1.688584 1_555
O15 Sn5 2.303764 1_555
O16 V3 1.717414 1_555
O16 Sn6 2.177424 1_555
O17 Sn6 2.038728 1_555
O17 Sn7 2.123183 1_555
O17 Sn5 2.200900 1_555
O18 Sn8 2.049987 1_555
O18 Sn13 2.105042 1_555
O18 Sn15 2.228650 1_555
O19 V4 1.707178 1_555
O19 Sn8 2.187201 1_555
O20 V4 1.709743 1_555
O20 Sn15 2.234721 1_555
O21 V4 1.798426 1_555
O21 V0 1.817244 1_555
O22 V4 1.767771 1_555
O22 Sn11 2.289276 1_555
O22 Sn9 2.491092 1_555
O23 Sn10 2.041557 1_555
O23 Sn9 2.127231 1_545
O23 Sn12 2.214155 1_555
O24 Sn11 2.051768 1_555
O24 Sn9 2.091142 1_555
O24 Sn12 2.224771 1_565
O25 V5 1.709659 1_555
O25 Sn10 2.193057 1_555
O26 V6 1.713920 1_555
O26 Sn11 2.180414 1_555
O27 V5 1.706177 1_555
O27 Sn12 2.251571 1_555
O28 V6 1.706655 1_555
O28 Sn12 2.247705 1_565
O29 V6 1.801412 1_555
O29 V2 1.814740 1_454
O30 V5 1.756805 1_655
O30 Sn14 2.264150 1_555
O30 Sn13 2.542403 1_555
O31 V6 1.755994 1_655
O31 Sn8 2.264594 1_555
O31 Sn13 2.563035 1_555
O32 Sn14 2.050106 1_555
O32 Sn13 2.104398 1_555
O32 Sn15 2.222250 1_555
O33 V7 1.711691 1_555
O33 Sn14 2.178601 1_555
O34 V7 1.711767 1_555
O34 Sn15 2.211436 1_555
O35 V7 1.745312 1_555
O35 Sn10 2.268531 1_555
O35 Sn9 2.642079 1_545
