# generated using pymatgen
data_Li3Sb2P5O18
_symmetry_space_group_name_H-M   'P 1'
_cell_length_a   9.78810500
_cell_length_b   11.03884419
_cell_length_c   6.57894144
_cell_angle_alpha   92.90229726
_cell_angle_beta   91.13824968
_cell_angle_gamma   95.77220551
_symmetry_Int_Tables_number   1
_chemical_formula_structural   Li3Sb2P5O18
_chemical_formula_sum   'Li6 Sb4 P10 O36'
_cell_volume   706.11617043
_cell_formula_units_Z   2
loop_
 _symmetry_equiv_pos_site_id
 _symmetry_equiv_pos_as_xyz
  1  'x, y, z'
loop_
 _atom_site_type_symbol
 _atom_site_label
 _atom_site_symmetry_multiplicity
 _atom_site_fract_x
 _atom_site_fract_y
 _atom_site_fract_z
 _atom_site_occupancy
  Li  Li0  1  0.69005900  0.09727100  0.18322700  1
  Li  Li1  1  0.83711000  0.34849400  0.36006400  1
  Li  Li2  1  0.16643700  0.64966300  0.63430800  1
  Li  Li3  1  0.33601000  0.88482200  0.82081500  1
  Li  Li4  1  0.64240900  0.19131300  0.88214400  1
  Li  Li5  1  0.12323900  0.97990200  0.98101500  1
  Sb  Sb0  1  0.04411500  0.67388100  0.23043400  1
  Sb  Sb1  1  0.39029100  0.23173900  0.34860800  1
  Sb  Sb2  1  0.61129800  0.76931900  0.65251200  1
  Sb  Sb3  1  0.95644100  0.31562500  0.76381300  1
  P  P0  1  0.79584600  0.47992600  0.04582100  1
  P  P1  1  0.38709100  0.22502300  0.01587000  1
  P  P2  1  0.09535300  0.17177000  0.28057700  1
  P  P3  1  0.81571300  0.84581700  0.43186600  1
  P  P4  1  0.36300000  0.72509500  0.42511200  1
  P  P5  1  0.64098800  0.27869800  0.57276400  1
  P  P6  1  0.18964400  0.14989100  0.57164900  1
  P  P7  1  0.90999300  0.82154200  0.72323300  1
  P  P8  1  0.59871100  0.78390400  0.98470800  1
  P  P9  1  0.19929900  0.52622000  0.94886500  1
  O  O0  1  0.68496400  0.97092900  0.00548900  1
  O  O1  1  0.90011900  0.64721800  0.08132600  1
  O  O2  1  0.31156100  0.42860400  0.03144700  1
  O  O3  1  0.50108100  0.75260500  0.07580400  1
  O  O4  1  0.14864400  0.67593200  0.05042000  1
  O  O5  1  0.75876000  0.36705900  0.16816800  1
  O  O6  1  0.45568900  0.21875200  0.16912700  1
  O  O7  1  0.05467600  0.00386100  0.17330200  1
  O  O8  1  0.22241300  0.26917500  0.25505800  1
  O  O9  1  0.80396700  0.02383400  0.33991600  1
  O  O10  1  0.88329000  0.66798000  0.38121700  1
  O  O11  1  0.00629100  0.33972400  0.28386700  1
  O  O12  1  0.36980500  0.91723400  0.33226400  1
  O  O13  1  0.42349500  0.54214300  0.35678900  1
  O  O14  1  0.55898400  0.21097900  0.43662900  1
  O  O15  1  0.68690200  0.76817800  0.47525800  1
  O  O16  1  0.11295500  0.06311600  0.42580900  1
  O  O17  1  0.23519500  0.66708200  0.45526700  1
  O  O18  1  0.76869300  0.33251400  0.54156300  1
  O  O19  1  0.89288400  0.93047800  0.57730800  1
  O  O20  1  0.31689000  0.23431300  0.52849100  1
  O  O21  1  0.44399400  0.79002900  0.56467400  1
  O  O22  1  0.58415800  0.45913300  0.64792600  1
  O  O23  1  0.98843100  0.63911100  0.71166100  1
  O  O24  1  0.63363000  0.09250500  0.67387600  1
  O  O25  1  0.11810800  0.32528800  0.62027400  1
  O  O26  1  0.20359100  0.97253400  0.66390000  1
  O  O27  1  0.77906200  0.75056800  0.75441300  1
  O  O28  1  0.97039500  0.98091600  0.82655500  1
  O  O29  1  0.53464700  0.78151500  0.82588500  1
  O  O30  1  0.23980600  0.62934000  0.82469600  1
  O  O31  1  0.82714100  0.34155500  0.92501300  1
  O  O32  1  0.48320400  0.25410100  0.92024800  1
  O  O33  1  0.68062500  0.58755100  0.97570400  1
  O  O34  1  0.09973500  0.34585700  0.91579600  1
  O  O35  1  0.29453000  0.05055700  0.97983000  1
loop_
_geom_bond_atom_site_label_1
_geom_bond_atom_site_label_2
_geom_bond_distance
_geom_bond_site_symmetry_2
Li0 O0 1.770159 1_545
Li0 O9 1.784287 1_555
Li0 O14 2.489547 1_555
Li1 O18 1.390943 1_555
Li1 O5 1.497770 1_555
Li1 O11 1.750197 1_655
Li2 O17 1.380495 1_555
Li2 O30 1.469718 1_555
Li2 O23 1.818986 1_455
Li3 O26 1.995908 1_555
Li3 O35 2.139836 1_565
Li3 O21 2.272989 1_555
Li3 O29 2.351402 1_555
Li4 O24 1.702820 1_555
Li4 O32 1.785152 1_555
Li4 O31 2.329983 1_555
Li5 O7 1.468406 1_566
Li5 O35 1.776940 1_565
Li5 O28 1.793056 1_455
Li5 O26 2.244689 1_555
O0 P8 2.147094 1_554
O1 Sb0 1.693478 1_655
O1 P0 2.018494 1_555
O2 P9 1.713914 1_554
O3 P8 1.170067 1_554
O4 Sb0 1.579904 1_555
O4 P9 1.868057 1_554
O5 P0 1.534329 1_555
O6 P1 1.209031 1_555
O6 Sb1 1.362326 1_555
O7 P2 1.949379 1_555
O8 P2 1.577545 1_555
O8 Sb1 1.836264 1_555
O9 P3 2.098535 1_545
O10 Sb0 1.874638 1_655
O10 P3 2.146177 1_555
O11 P2 2.125931 1_555
O12 P4 2.231719 1_555
O13 P4 2.188733 1_555
O14 P5 1.337226 1_555
O14 Sb1 1.779278 1_555
O15 Sb2 1.393683 1_555
O15 P3 1.492447 1_555
O16 P6 1.461265 1_555
O16 P2 1.591316 1_555
O17 P4 1.369661 1_555
O17 Sb0 2.370904 1_555
O18 P5 1.353034 1_555
O18 Sb3 2.353634 1_555
O19 P3 1.448541 1_555
O19 P7 1.595872 1_555
O20 Sb1 1.397139 1_555
O20 P6 1.519122 1_555
O21 P4 1.332464 1_555
O21 Sb2 1.766068 1_555
O22 P5 2.157599 1_555
O23 P7 2.224533 1_555
O25 Sb3 1.855477 1_455
O25 P6 2.135483 1_555
O26 P6 2.095429 1_565
O27 P7 1.457076 1_555
O27 Sb2 1.796505 1_555
O28 P7 1.886919 1_555
O29 P8 1.205631 1_555
O29 Sb2 1.385925 1_555
O30 P9 1.461699 1_555
O31 Sb3 1.704068 1_555
O31 P0 1.743414 1_556
O32 P1 1.169208 1_556
O33 P0 1.789004 1_556
O33 P8 2.383887 1_555
O34 Sb3 1.701384 1_455
O34 P9 2.125692 1_555
O35 P1 2.044603 1_556
