# generated using pymatgen
data_Li10Fe3Sb7O24
_symmetry_space_group_name_H-M   'P 1'
_cell_length_a   5.26019700
_cell_length_b   9.59382494
_cell_length_c   10.21601257
_cell_angle_alpha   90.55302627
_cell_angle_beta   90.45835934
_cell_angle_gamma   90.70095103
_symmetry_Int_Tables_number   1
_chemical_formula_structural   Li10Fe3Sb7O24
_chemical_formula_sum   'Li10 Fe3 Sb7 O24'
_cell_volume   515.47566997
_cell_formula_units_Z   1
loop_
 _symmetry_equiv_pos_site_id
 _symmetry_equiv_pos_as_xyz
  1  'x, y, z'
loop_
 _atom_site_type_symbol
 _atom_site_label
 _atom_site_symmetry_multiplicity
 _atom_site_fract_x
 _atom_site_fract_y
 _atom_site_fract_z
 _atom_site_occupancy
  Li  Li0  1  0.44133900  0.68801800  0.07288000  1
  Li  Li1  1  0.04754800  0.68930000  0.59938000  1
  Li  Li2  1  0.97196000  0.53211900  0.38632700  1
  Li  Li3  1  0.44974300  0.44839200  0.91220900  1
  Li  Li4  1  0.00466000  0.24784000  0.16070800  1
  Li  Li5  1  0.50444600  0.25160700  0.68001100  1
  Li  Li6  1  0.55846000  0.23523600  0.04110300  1
  Li  Li7  1  0.96474200  0.23674200  0.55743700  1
  Li  Li8  1  0.92440800  0.91106300  0.43890700  1
  Li  Li9  1  0.57536000  0.93332500  0.93295100  1
  Fe  Fe0  1  0.45916800  0.74201600  0.34731700  1
  Fe  Fe1  1  0.02477100  0.75031400  0.85513300  1
  Fe  Fe2  1  0.00558400  0.41776700  0.83966000  1
  Sb  Sb0  1  0.52924900  0.91990800  0.63561900  1
  Sb  Sb1  1  0.98731900  0.92763100  0.13099600  1
  Sb  Sb2  1  0.54632900  0.57847200  0.62688100  1
  Sb  Sb3  1  0.94026700  0.57394000  0.11191300  1
  Sb  Sb4  1  0.47670600  0.39382600  0.34528100  1
  Sb  Sb5  1  0.04636600  0.09979800  0.85367700  1
  Sb  Sb6  1  0.46617500  0.07505100  0.36540800  1
  O  O0  1  0.65186900  0.91092200  0.29495800  1
  O  O1  1  0.80178900  0.92692800  0.77404700  1
  O  O2  1  0.28485200  0.91598200  0.47171400  1
  O  O3  1  0.20750500  0.93062900  0.94922900  1
  O  O4  1  0.19226200  0.73347500  0.20893800  1
  O  O5  1  0.34482500  0.75268900  0.71082400  1
  O  O6  1  0.71487900  0.76009800  0.53313500  1
  O  O7  1  0.77472200  0.74050000  0.01735200  1
  O  O8  1  0.19788800  0.58537600  0.96888800  1
  O  O9  1  0.29300600  0.60449200  0.47471100  1
  O  O10  1  0.68918000  0.61345200  0.25934000  1
  O  O11  1  0.85049300  0.59453800  0.73992400  1
  O  O12  1  0.08590600  0.43514700  0.22849600  1
  O  O13  1  0.35876100  0.43944500  0.72421200  1
  O  O14  1  0.72848800  0.44218800  0.50838300  1
  O  O15  1  0.75206500  0.42790900  0.00869400  1
  O  O16  1  0.30407800  0.23610600  0.46107800  1
  O  O17  1  0.24087200  0.25147400  0.94077500  1
  O  O18  1  0.68185900  0.21838700  0.27859300  1
  O  O19  1  0.86861100  0.23596500  0.74433600  1
  O  O20  1  0.71543700  0.05876000  0.52301000  1
  O  O21  1  0.79869000  0.08574000  0.00354200  1
  O  O22  1  0.21406000  0.08301300  0.22301300  1
  O  O23  1  0.32330500  0.06842000  0.71700900  1
loop_
_geom_bond_atom_site_label_1
_geom_bond_atom_site_label_2
_geom_bond_distance
_geom_bond_site_symmetry_2
Li0 O7 1.910619 1_555
Li0 O8 1.914542 1_554
Li0 O4 1.967290 1_555
Li0 O10 2.418537 1_555
Li1 O9 1.995797 1_555
Li1 O11 1.997103 1_455
Li1 O6 2.000130 1_455
Li1 O5 2.011517 1_555
Li2 O12 1.955701 1_655
Li2 O14 1.989653 1_555
Li2 O9 2.020922 1_655
Li2 O10 2.126383 1_555
Li3 O15 1.877626 1_556
Li3 O8 1.964103 1_555
Li3 O13 1.976396 1_555
Li3 O17 2.196899 1_555
Li4 O12 1.960576 1_555
Li4 O22 2.042014 1_555
Li4 O18 2.107358 1_455
Li4 O21 2.460303 1_455
Li4 O17 2.576524 1_554
Li5 O13 2.015514 1_555
Li5 O19 2.027955 1_555
Li5 O23 2.029053 1_555
Li5 O16 2.467283 1_555
Li6 O21 1.960253 1_555
Li6 O17 1.961548 1_554
Li6 O15 2.129497 1_555
Li6 O18 2.513733 1_555
Li7 O19 1.979154 1_555
Li7 O16 2.045357 1_655
Li7 O20 2.164565 1_555
Li7 O14 2.397806 1_555
Li8 O2 1.922690 1_655
Li8 O20 1.996014 1_565
Li8 O0 2.045492 1_555
Li8 O6 2.060079 1_555
Li9 O3 1.943326 1_555
Li9 O21 1.990564 1_566
Li9 O1 2.022006 1_555
Li9 O7 2.308512 1_556
Fe0 O10 1.955891 1_555
Fe0 O0 1.981082 1_555
Fe0 O4 1.984832 1_555
Fe0 O9 2.054665 1_555
Fe0 O2 2.292709 1_555
Fe0 O6 2.321650 1_555
Fe1 O11 2.091515 1_455
Fe1 O7 2.126069 1_456
Fe1 O8 2.176590 1_555
Fe1 O3 2.180144 1_555
Fe1 O1 2.234536 1_455
Fe1 O5 2.246713 1_555
Fe2 O19 2.105912 1_455
Fe2 O11 2.152610 1_455
Fe2 O15 2.192407 1_456
Fe2 O13 2.217198 1_555
Fe2 O17 2.281185 1_555
Fe2 O8 2.291226 1_555
O0 Sb6 1.994631 1_565
O0 Sb1 2.447566 1_555
O1 Sb0 2.005756 1_555
O1 Sb5 2.229911 1_665
O2 Sb0 2.102637 1_555
O2 Sb6 2.105005 1_565
O3 Sb5 2.087202 1_565
O3 Sb1 2.196619 1_456
O4 Sb3 2.232084 1_455
O4 Sb1 2.308651 1_455
O5 Sb0 2.025514 1_555
O5 Sb2 2.163962 1_555
O6 Sb0 2.102923 1_555
O6 Sb2 2.178886 1_555
O7 Sb3 2.072520 1_555
O7 Sb1 2.389869 1_555
O8 Sb3 2.003626 1_456
O9 Sb2 2.058428 1_555
O9 Sb4 2.604526 1_555
O10 Sb3 2.046842 1_555
O10 Sb4 2.540366 1_555
O11 Sb2 1.969335 1_555
O12 Sb3 1.954334 1_455
O12 Sb4 2.407542 1_555
O13 Sb2 1.936567 1_555
O14 Sb2 2.027758 1_555
O14 Sb4 2.163446 1_555
O15 Sb3 1.993900 1_555
O16 Sb6 2.021418 1_555
O16 Sb4 2.128786 1_555
O17 Sb5 1.969780 1_555
O18 Sb6 1.991547 1_555
O18 Sb4 2.120307 1_555
O19 Sb5 1.967220 1_655
O20 Sb0 2.018140 1_545
O20 Sb6 2.076533 1_555
O21 Sb5 2.022665 1_654
O21 Sb1 2.243898 1_545
O22 Sb6 1.963291 1_555
O22 Sb1 2.107118 1_445
O23 Sb0 1.980977 1_545
O23 Sb5 2.048729 1_555
