# generated using pymatgen
data_NaCd2(GeO3)3
_symmetry_space_group_name_H-M   'P 1'
_cell_length_a   8.14199500
_cell_length_b   7.19361540
_cell_length_c   7.25732844
_cell_angle_alpha   90.21551252
_cell_angle_beta   93.95527320
_cell_angle_gamma   102.69881581
_symmetry_Int_Tables_number   1
_chemical_formula_structural   NaCd2(GeO3)3
_chemical_formula_sum   'Na2 Cd4 Ge6 O18'
_cell_volume   413.60115183
_cell_formula_units_Z   2
loop_
 _symmetry_equiv_pos_site_id
 _symmetry_equiv_pos_as_xyz
  1  'x, y, z'
loop_
 _atom_site_type_symbol
 _atom_site_label
 _atom_site_symmetry_multiplicity
 _atom_site_fract_x
 _atom_site_fract_y
 _atom_site_fract_z
 _atom_site_occupancy
  Na  Na0  1  0.56145600  0.26194200  0.35247900  1
  Na  Na1  1  0.43854400  0.73805800  0.64752100  1
  Cd  Cd0  1  0.85299700  0.58927800  0.14135400  1
  Cd  Cd1  1  0.14700300  0.41072200  0.85864600  1
  Cd  Cd2  1  0.85159600  0.08950700  0.13303600  1
  Cd  Cd3  1  0.14840400  0.91049300  0.86696400  1
  Ge  Ge0  1  0.79036700  0.59169500  0.65281700  1
  Ge  Ge1  1  0.20963300  0.40830500  0.34718300  1
  Ge  Ge2  1  0.79314800  0.05285800  0.64836400  1
  Ge  Ge3  1  0.20685200  0.94714200  0.35163600  1
  Ge  Ge4  1  0.54054500  0.26133800  0.85828800  1
  Ge  Ge5  1  0.45945500  0.73866200  0.14171200  1
  O  O0  1  0.94129600  0.61117800  0.83962100  1
  O  O1  1  0.05870400  0.38882200  0.16037900  1
  O  O2  1  0.95057600  0.10823100  0.83074400  1
  O  O3  1  0.04942400  0.89176900  0.16925600  1
  O  O4  1  0.58472700  0.47066100  0.71873700  1
  O  O5  1  0.41527300  0.52933900  0.28126300  1
  O  O6  1  0.58941900  0.07984400  0.70976100  1
  O  O7  1  0.41058100  0.92015600  0.29023900  1
  O  O8  1  0.67393600  0.79493400  0.10384000  1
  O  O9  1  0.32606400  0.20506600  0.89616000  1
  O  O10  1  0.67557700  0.29214000  0.06070100  1
  O  O11  1  0.32442300  0.70786000  0.93929900  1
  O  O12  1  0.81422000  0.48647900  0.43759300  1
  O  O13  1  0.18578000  0.51352100  0.56240700  1
  O  O14  1  0.84330100  0.17378300  0.44098000  1
  O  O15  1  0.15669900  0.82621700  0.55902000  1
  O  O16  1  0.73375300  0.80800300  0.58304600  1
  O  O17  1  0.26624700  0.19199700  0.41695400  1
loop_
_geom_bond_atom_site_label_1
_geom_bond_atom_site_label_2
_geom_bond_distance
_geom_bond_site_symmetry_2
Na0 O10 2.362336 1_555
Na0 O12 2.362532 1_555
Na0 O17 2.423753 1_555
Na0 O5 2.512563 1_555
Na0 O7 2.519001 1_545
Na0 O14 2.553486 1_555
Na0 O6 2.926810 1_555
Na1 O11 2.362336 1_555
Na1 O13 2.362532 1_555
Na1 O16 2.423753 1_555
Na1 O4 2.512563 1_555
Na1 O6 2.519001 1_565
Na1 O15 2.553486 1_555
Na1 O7 2.926810 1_555
Cd0 O12 2.295991 1_555
Cd0 O8 2.298875 1_555
Cd0 O0 2.346653 1_554
Cd0 O10 2.348328 1_555
Cd0 O3 2.399116 1_655
Cd0 O1 2.436193 1_655
Cd1 O13 2.295991 1_555
Cd1 O9 2.298875 1_555
Cd1 O1 2.346653 1_556
Cd1 O11 2.348328 1_555
Cd1 O2 2.399116 1_455
Cd1 O0 2.436193 1_455
Cd2 O8 2.287868 1_545
Cd2 O10 2.296670 1_555
Cd2 O14 2.322776 1_555
Cd2 O3 2.374570 1_645
Cd2 O2 2.383047 1_554
Cd2 O1 2.423491 1_655
Cd3 O9 2.287868 1_565
Cd3 O11 2.296670 1_555
Cd3 O15 2.322776 1_555
Cd3 O2 2.374570 1_465
Cd3 O3 2.383047 1_556
Cd3 O0 2.423491 1_455
Ge0 O0 1.749481 1_555
Ge0 O12 1.774222 1_555
Ge0 O16 1.783028 1_555
Ge0 O4 1.806379 1_555
Ge1 O1 1.749481 1_555
Ge1 O13 1.774222 1_555
Ge1 O17 1.783028 1_555
Ge1 O5 1.806379 1_555
Ge2 O2 1.758132 1_555
Ge2 O14 1.768361 1_555
Ge2 O16 1.774450 1_545
Ge2 O6 1.797386 1_555
Ge3 O3 1.758132 1_555
Ge3 O15 1.768361 1_555
Ge3 O17 1.774450 1_565
Ge3 O7 1.797386 1_555
Ge4 O9 1.745062 1_555
Ge4 O10 1.755956 1_556
Ge4 O4 1.801690 1_555
Ge4 O6 1.817093 1_555
Ge5 O8 1.745062 1_555
Ge5 O11 1.755956 1_554
Ge5 O5 1.801690 1_555
Ge5 O7 1.817093 1_555
