# generated using pymatgen
data_Ho2Ti2O7
_symmetry_space_group_name_H-M   'P 1'
_cell_length_a   5.28527857
_cell_length_b   7.45538693
_cell_length_c   13.05245970
_cell_angle_alpha   81.65085812
_cell_angle_beta   90.00000000
_cell_angle_gamma   90.00000000
_symmetry_Int_Tables_number   1
_chemical_formula_structural   Ho2Ti2O7
_chemical_formula_sum   'Ho8 Ti8 O28'
_cell_volume   508.86554434
_cell_formula_units_Z   4
loop_
 _symmetry_equiv_pos_site_id
 _symmetry_equiv_pos_as_xyz
  1  'x, y, z'
loop_
 _atom_site_type_symbol
 _atom_site_label
 _atom_site_symmetry_multiplicity
 _atom_site_fract_x
 _atom_site_fract_y
 _atom_site_fract_z
 _atom_site_occupancy
  Ho  Ho0  1  0.77250797  0.76571221  0.92446979  1
  Ho  Ho1  1  0.35705597  0.85863806  0.56270959  1
  Ho  Ho2  1  0.24692951  0.71460008  0.13324120  1
  Ho  Ho3  1  0.77938941  0.64502449  0.38672297  1
  Ho  Ho4  1  0.27938941  0.35497551  0.61327703  1
  Ho  Ho5  1  0.74692951  0.28539992  0.86675880  1
  Ho  Ho6  1  0.85705597  0.14136194  0.43729041  1
  Ho  Ho7  1  0.27250797  0.23428779  0.07553021  1
  Ti  Ti0  1  0.28256240  0.92890133  0.32052022  1
  Ti  Ti1  1  0.76761279  0.97016195  0.12156395  1
  Ti  Ti2  1  0.79338541  0.58982988  0.67252361  1
  Ti  Ti3  1  0.26746064  0.53081907  0.87418155  1
  Ti  Ti4  1  0.76746064  0.46918093  0.12581845  1
  Ti  Ti5  1  0.29338541  0.41017012  0.32747639  1
  Ti  Ti6  1  0.26761279  0.02983805  0.87843605  1
  Ti  Ti7  1  0.78256240  0.07109867  0.67947978  1
  O  O0  1  0.43312519  0.99216756  0.17865593  1
  O  O1  1  0.56325742  0.92670217  0.40800731  1
  O  O2  1  0.67010986  0.82790629  0.68440440  1
  O  O3  1  0.35285275  0.77865816  0.88367579  1
  O  O4  1  0.06556320  0.85898083  0.43166143  1
  O  O5  1  0.04340308  0.93965579  0.02448062  1
  O  O6  1  0.95483273  0.87080748  0.23279574  1
  O  O7  1  0.09854083  0.63471799  0.61749625  1
  O  O8  1  0.93085951  0.57858439  0.82271948  1
  O  O9  1  0.38109682  0.67370405  0.30433064  1
  O  O10  1  0.65174233  0.72757798  0.09024886  1
  O  O11  1  0.58926475  0.58664816  0.55220081  1
  O  O12  1  0.54039634  0.45322886  0.97360680  1
  O  O13  1  0.45639411  0.48555195  0.76397216  1
  O  O14  1  0.95639411  0.51444805  0.23602784  1
  O  O15  1  0.04039634  0.54677114  0.02639320  1
  O  O16  1  0.08926475  0.41335184  0.44779919  1
  O  O17  1  0.15174233  0.27242202  0.90975114  1
  O  O18  1  0.88109682  0.32629595  0.69566936  1
  O  O19  1  0.43085951  0.42141561  0.17728052  1
  O  O20  1  0.59854083  0.36528201  0.38250375  1
  O  O21  1  0.45483273  0.12919252  0.76720426  1
  O  O22  1  0.54340308  0.06034421  0.97551938  1
  O  O23  1  0.56556320  0.14101917  0.56833857  1
  O  O24  1  0.85285275  0.22134184  0.11632421  1
  O  O25  1  0.17010986  0.17209371  0.31559560  1
  O  O26  1  0.06325742  0.07329783  0.59199269  1
  O  O27  1  0.93312519  0.00783244  0.82134407  1
loop_
_geom_bond_atom_site_label_1
_geom_bond_atom_site_label_2
_geom_bond_distance
_geom_bond_site_symmetry_2
Ho0 O8 2.224567 1_555
Ho0 O10 2.234214 1_556
Ho0 O27 2.255048 1_565
Ho0 O3 2.279782 1_555
Ho0 O15 2.410031 1_656
Ho0 O5 2.434608 1_656
Ho0 O12 2.628655 1_555
Ho0 O22 2.675876 1_565
Ho1 O7 2.195098 1_555
Ho1 O2 2.281994 1_555
Ho1 O1 2.285829 1_555
Ho1 O26 2.301332 1_565
Ho1 O4 2.301752 1_555
Ho1 O23 2.386815 1_565
Ho1 O11 2.391183 1_555
Ho2 O10 2.210465 1_555
Ho2 O15 2.282299 1_555
Ho2 O5 2.301284 1_555
Ho2 O9 2.320555 1_555
Ho2 O19 2.385014 1_555
Ho2 O14 2.408980 1_455
Ho2 O6 2.422317 1_455
Ho2 O0 2.440977 1_555
Ho3 O20 2.302105 1_555
Ho3 O4 2.334069 1_655
Ho3 O9 2.359421 1_555
Ho3 O11 2.364594 1_555
Ho3 O16 2.429242 1_655
Ho3 O1 2.441632 1_555
Ho3 O14 2.499567 1_555
Ho3 O6 2.597646 1_555
Ho4 O7 2.302105 1_555
Ho4 O23 2.334069 1_555
Ho4 O18 2.359421 1_455
Ho4 O16 2.364594 1_555
Ho4 O11 2.429242 1_555
Ho4 O26 2.441632 1_555
Ho4 O13 2.499567 1_555
Ho4 O21 2.597646 1_555
Ho5 O17 2.210465 1_655
Ho5 O12 2.282299 1_555
Ho5 O22 2.301284 1_555
Ho5 O18 2.320555 1_555
Ho5 O8 2.385014 1_555
Ho5 O13 2.408980 1_555
Ho5 O21 2.422317 1_555
Ho5 O27 2.440977 1_555
Ho6 O20 2.195098 1_555
Ho6 O25 2.281994 1_655
Ho6 O26 2.285829 1_655
Ho6 O1 2.301332 1_545
Ho6 O23 2.301752 1_555
Ho6 O4 2.386815 1_645
Ho6 O16 2.391183 1_655
Ho7 O19 2.224567 1_555
Ho7 O17 2.234214 1_554
Ho7 O0 2.255048 1_545
Ho7 O24 2.279782 1_455
Ho7 O12 2.410031 1_554
Ho7 O22 2.434608 1_554
Ho7 O15 2.628655 1_555
Ho7 O5 2.675876 1_545
O0 Ti1 1.934699 1_555
O0 Ti0 2.007683 1_555
O1 Ti0 1.870760 1_555
O2 Ti7 1.900220 1_565
O2 Ti2 1.918058 1_555
O3 Ti6 1.917614 1_565
O3 Ti3 1.923454 1_555
O4 Ti0 1.863315 1_555
O5 Ti1 1.966174 1_455
O5 Ti6 2.262266 1_564
O6 Ti1 1.823007 1_555
O6 Ti0 2.154761 1_655
O7 Ti2 1.777439 1_455
O8 Ti3 1.916634 1_655
O8 Ti2 2.080985 1_555
O9 Ti5 1.998507 1_555
O9 Ti0 2.013080 1_555
O10 Ti1 2.006905 1_555
O10 Ti4 2.010242 1_555
O11 Ti2 1.908340 1_555
O12 Ti3 1.970197 1_555
O12 Ti4 2.338829 1_556
O13 Ti3 1.822446 1_555
O13 Ti2 2.220800 1_555
O14 Ti4 1.822446 1_555
O14 Ti5 2.220800 1_655
O15 Ti4 1.970197 1_455
O15 Ti3 2.338829 1_554
O16 Ti5 1.908340 1_555
O17 Ti6 2.006905 1_555
O17 Ti3 2.010242 1_555
O18 Ti2 1.998507 1_555
O18 Ti7 2.013080 1_555
O19 Ti4 1.916634 1_555
O19 Ti5 2.080985 1_555
O20 Ti5 1.777439 1_555
O21 Ti6 1.823007 1_555
O21 Ti7 2.154761 1_555
O22 Ti6 1.966174 1_555
O22 Ti1 2.262266 1_546
O23 Ti7 1.863315 1_555
O24 Ti1 1.917614 1_545
O24 Ti4 1.923454 1_555
O25 Ti0 1.900220 1_545
O25 Ti5 1.918058 1_555
O26 Ti7 1.870760 1_455
O27 Ti6 1.934699 1_655
O27 Ti7 2.007683 1_555
