# generated using pymatgen
data_CaGd2O4
_symmetry_space_group_name_H-M   'P 1'
_cell_length_a   6.92231659
_cell_length_b   6.92231659
_cell_length_c   6.92231659
_cell_angle_alpha   60.00000000
_cell_angle_beta   60.00000000
_cell_angle_gamma   60.00000000
_symmetry_Int_Tables_number   1
_chemical_formula_structural   CaGd2O4
_chemical_formula_sum   'Ca2 Gd4 O8'
_cell_volume   234.55212653
_cell_formula_units_Z   2
loop_
 _symmetry_equiv_pos_site_id
 _symmetry_equiv_pos_as_xyz
  1  'x, y, z'
loop_
 _atom_site_type_symbol
 _atom_site_label
 _atom_site_symmetry_multiplicity
 _atom_site_fract_x
 _atom_site_fract_y
 _atom_site_fract_z
 _atom_site_occupancy
  Ca  Ca0  1  0.75000000  0.75000000  0.75000000  1
  Ca  Ca1  1  0.50000000  0.50000000  0.50000000  1
  Gd  Gd0  1  0.12500000  0.62500000  0.12500000  1
  Gd  Gd1  1  0.62500000  0.12500000  0.12500000  1
  Gd  Gd2  1  0.12500000  0.12500000  0.12500000  1
  Gd  Gd3  1  0.12500000  0.12500000  0.62500000  1
  O  O0  1  0.88690000  0.88690000  0.88690000  1
  O  O1  1  0.36310000  0.36310000  0.91069900  1
  O  O2  1  0.33930100  0.88690000  0.88690000  1
  O  O3  1  0.88690000  0.33930100  0.88690000  1
  O  O4  1  0.36310000  0.36310000  0.36310000  1
  O  O5  1  0.88690000  0.88690000  0.33930100  1
  O  O6  1  0.91069900  0.36310000  0.36310000  1
  O  O7  1  0.36310000  0.91069900  0.36310000  1
loop_
_geom_bond_atom_site_label_1
_geom_bond_atom_site_label_2
_geom_bond_distance
_geom_bond_site_symmetry_2
Ca0 O3 2.321290 1_555
Ca0 O2 2.321290 1_555
Ca0 O5 2.321290 1_555
Ca0 O0 2.321296 1_555
Ca1 O1 2.321290 1_555
Ca1 O7 2.321290 1_555
Ca1 O6 2.321290 1_555
Ca1 O4 2.321296 1_555
Gd0 O4 2.336727 1_555
Gd0 O0 2.336727 1_454
Gd0 O6 2.336732 1_455
Gd0 O1 2.336732 1_554
Gd0 O5 2.336732 1_455
Gd0 O2 2.336732 1_554
Gd1 O0 2.336727 1_544
Gd1 O4 2.336727 1_555
Gd1 O7 2.336732 1_545
Gd1 O3 2.336732 1_554
Gd1 O5 2.336732 1_545
Gd1 O1 2.336732 1_554
Gd2 O2 2.336726 1_544
Gd2 O3 2.336726 1_454
Gd2 O1 2.336726 1_554
Gd2 O5 2.336726 1_445
Gd2 O7 2.336726 1_545
Gd2 O6 2.336726 1_455
Gd3 O4 2.336727 1_555
Gd3 O0 2.336727 1_445
Gd3 O7 2.336732 1_545
Gd3 O6 2.336732 1_455
Gd3 O3 2.336732 1_455
Gd3 O2 2.336732 1_545
