# generated using pymatgen
data_V2OF5
_symmetry_space_group_name_H-M   'P 1'
_cell_length_a   5.23736268
_cell_length_b   13.52627746
_cell_length_c   5.23736268
_cell_angle_alpha   90.00000782
_cell_angle_beta   120.00000853
_cell_angle_gamma   89.99999218
_symmetry_Int_Tables_number   1
_chemical_formula_structural   V2OF5
_chemical_formula_sum   'V6 O3 F15'
_cell_volume   321.31735535
_cell_formula_units_Z   3
loop_
 _symmetry_equiv_pos_site_id
 _symmetry_equiv_pos_as_xyz
  1  'x, y, z'
loop_
 _atom_site_type_symbol
 _atom_site_label
 _atom_site_symmetry_multiplicity
 _atom_site_fract_x
 _atom_site_fract_y
 _atom_site_fract_z
 _atom_site_occupancy
  V  V0  1  0.00202300  0.49593600  0.02619300  1
  V  V1  1  0.97582900  0.00406400  0.97380700  1
  V  V2  1  0.64047400  0.82927000  0.30916200  1
  V  V3  1  0.33131100  0.67073000  0.69083800  1
  V  V4  1  0.69285900  0.33739700  0.33535600  1
  V  V5  1  0.35750400  0.16260300  0.66464400  1
  O  O0  1  0.42171400  0.75000000  0.00000000  1
  O  O1  1  0.91161900  0.41666700  0.24495200  1
  O  O2  1  0.66666700  0.08333300  0.75504800  1
  F  F0  1  0.99970900  0.75010800  0.40521600  1
  F  F1  1  0.33362400  0.41655900  0.07217400  1
  F  F2  1  0.07188300  0.08322600  0.33304200  1
  F  F3  1  0.31634500  0.91977900  0.24926300  1
  F  F4  1  0.26625000  0.58644600  0.35032200  1
  F  F5  1  0.60103800  0.25000000  0.00000000  1
  F  F6  1  0.01698800  0.24688700  0.59958400  1
  F  F7  1  0.73229500  0.91666700  0.06562800  1
  F  F8  1  0.06708300  0.58022100  0.75073700  1
  F  F9  1  0.41740400  0.25311300  0.40041600  1
  F  F10  1  0.59449300  0.74989200  0.59478400  1
  F  F11  1  0.26145100  0.08344100  0.92782600  1
  F  F12  1  0.73884000  0.41677400  0.66695800  1
  F  F13  1  0.91593000  0.91355400  0.64967800  1
  F  F14  1  0.66666700  0.58333300  0.93437200  1
loop_
_geom_bond_atom_site_label_1
_geom_bond_atom_site_label_2
_geom_bond_distance
_geom_bond_site_symmetry_2
O0 V3 1.796940 1_554
O0 V2 1.796941 1_555
O1 V0 1.796935 1_655
O1 V4 1.796947 1_555
O2 V1 1.796932 1_555
O2 V5 1.796943 1_555
F0 V3 1.951607 1_655
F0 V2 1.998238 1_555
F1 V0 1.951593 1_555
F1 V4 1.998239 1_555
F2 V5 1.951597 1_555
F2 V1 1.998238 1_454
F3 V2 1.986563 1_555
F3 V1 1.997173 1_464
F4 V0 1.986567 1_555
F4 V3 1.997164 1_555
F5 V5 1.966973 1_554
F5 V4 1.966974 1_555
F6 V4 1.986568 1_455
F6 V5 1.997165 1_555
F7 V1 1.966971 1_564
F7 V2 1.966971 1_555
F8 V3 1.986555 1_555
F8 V0 1.997173 1_556
F9 V5 1.986566 1_555
F9 V4 1.997162 1_555
F10 V2 1.951610 1_555
F10 V3 1.998243 1_555
F11 V1 1.951602 1_455
F11 V5 1.998239 1_555
F12 V4 1.951597 1_555
F12 V0 1.998240 1_656
F13 V1 1.986571 1_565
F13 V2 1.997165 1_555
F14 V3 1.966973 1_555
F14 V0 1.966974 1_656
