# generated using pymatgen
data_Mg(GaO2)2
_symmetry_space_group_name_H-M   'P 1'
_cell_length_a   5.94650222
_cell_length_b   5.94650222
_cell_length_c   5.94650247
_cell_angle_alpha   60.15490955
_cell_angle_beta   60.15490955
_cell_angle_gamma   60.15490659
_symmetry_Int_Tables_number   1
_chemical_formula_structural   Mg(GaO2)2
_chemical_formula_sum   'Mg2 Ga4 O8'
_cell_volume   149.20759400
_cell_formula_units_Z   2
loop_
 _symmetry_equiv_pos_site_id
 _symmetry_equiv_pos_as_xyz
  1  'x, y, z'
loop_
 _atom_site_type_symbol
 _atom_site_label
 _atom_site_symmetry_multiplicity
 _atom_site_fract_x
 _atom_site_fract_y
 _atom_site_fract_z
 _atom_site_occupancy
  Mg  Mg0  1  0.12130100  0.12130100  0.12130100  1
  Mg  Mg1  1  0.49808600  0.49808600  0.49808600  1
  Ga  Ga0  1  0.49706400  0.01023500  0.49706400  1
  Ga  Ga1  1  0.01023500  0.49706400  0.49706400  1
  Ga  Ga2  1  0.49706400  0.49706400  0.01023500  1
  Ga  Ga3  1  0.88012300  0.88012300  0.88012300  1
  O  O0  1  0.71835400  0.25492100  0.25492100  1
  O  O1  1  0.25492100  0.25492100  0.71835400  1
  O  O2  1  0.25492100  0.71835400  0.25492100  1
  O  O3  1  0.25806400  0.25806400  0.25806400  1
  O  O4  1  0.74493100  0.74493100  0.74493100  1
  O  O5  1  0.74608400  0.27277300  0.74608400  1
  O  O6  1  0.74608400  0.74608400  0.27277300  1
  O  O7  1  0.27277300  0.74608400  0.74608400  1
loop_
_geom_bond_atom_site_label_1
_geom_bond_atom_site_label_2
_geom_bond_distance
_geom_bond_site_symmetry_2
Mg0 O0 1.960242 1_455
Mg0 O2 1.960242 1_545
Mg0 O1 1.960242 1_554
Mg0 O3 1.989740 1_555
Mg1 O0 2.051394 1_555
Mg1 O2 2.051394 1_555
Mg1 O1 2.051394 1_555
Mg1 O7 2.091919 1_555
Mg1 O5 2.091919 1_555
Mg1 O6 2.091919 1_555
Ga0 O1 1.963809 1_555
Ga0 O0 1.963809 1_555
Ga0 O3 2.013112 1_555
Ga0 O6 2.059932 1_545
Ga0 O7 2.059932 1_545
Ga0 O4 2.089826 1_545
Ga1 O1 1.963809 1_555
Ga1 O2 1.963809 1_555
Ga1 O3 2.013112 1_555
Ga1 O6 2.059932 1_455
Ga1 O5 2.059932 1_455
Ga1 O4 2.089826 1_455
Ga2 O0 1.963809 1_555
Ga2 O2 1.963809 1_555
Ga2 O3 2.013112 1_555
Ga2 O5 2.059932 1_554
Ga2 O7 2.059932 1_554
Ga2 O4 2.089826 1_554
Ga3 O5 1.910500 1_565
Ga3 O7 1.910500 1_655
Ga3 O6 1.910500 1_556
Ga3 O4 1.966884 1_555
