# generated using pymatgen
data_Li3FePCO7
_symmetry_space_group_name_H-M   'P 1'
_cell_length_a   6.42224900
_cell_length_b   5.03354500
_cell_length_c   8.93847231
_cell_angle_alpha   87.62156520
_cell_angle_beta   90.00000000
_cell_angle_gamma   90.00000000
_symmetry_Int_Tables_number   1
_chemical_formula_structural   Li3FePCO7
_chemical_formula_sum   'Li6 Fe2 P2 C2 O14'
_cell_volume   288.70220273
_cell_formula_units_Z   2
loop_
 _symmetry_equiv_pos_site_id
 _symmetry_equiv_pos_as_xyz
  1  'x, y, z'
loop_
 _atom_site_type_symbol
 _atom_site_label
 _atom_site_symmetry_multiplicity
 _atom_site_fract_x
 _atom_site_fract_y
 _atom_site_fract_z
 _atom_site_occupancy
  Li  Li0  1  0.77067500  0.99281200  0.29488300  1
  Li  Li1  1  0.22932500  0.99281200  0.29488300  1
  Li  Li2  1  0.71107000  0.36288800  0.73070700  1
  Li  Li3  1  0.28893000  0.36288800  0.73070700  1
  Li  Li4  1  0.78495100  0.69789800  0.97050700  1
  Li  Li5  1  0.21504900  0.69789800  0.97050700  1
  Fe  Fe0  1  0.50000000  0.40171100  0.37575100  1
  Fe  Fe1  1  0.00000000  0.94746200  0.65375000  1
  P  P0  1  0.00000000  0.49348100  0.45533900  1
  P  P1  1  0.50000000  0.87165700  0.60283500  1
  C  C0  1  0.00000000  0.13816400  0.00616400  1
  C  C1  1  0.50000000  0.44945100  0.08008400  1
  O  O0  1  0.50000000  0.21801300  0.14564400  1
  O  O1  1  0.50000000  0.66190900  0.15993400  1
  O  O2  1  0.00000000  0.03274700  0.13992300  1
  O  O3  1  0.19196800  0.36645500  0.38595400  1
  O  O4  1  0.80803200  0.36645500  0.38595400  1
  O  O5  1  0.50000000  0.96613300  0.43621100  1
  O  O6  1  0.00000000  0.80288800  0.43237600  1
  O  O7  1  0.50000000  0.56225400  0.61241000  1
  O  O8  1  0.00000000  0.43610000  0.63172100  1
  O  O9  1  0.69246100  0.97920900  0.68704100  1
  O  O10  1  0.30753900  0.97920900  0.68704100  1
  O  O11  1  0.50000000  0.48831100  0.93252600  1
  O  O12  1  0.00000000  0.96558100  0.89776200  1
  O  O13  1  0.00000000  0.39089200  0.97399300  1
loop_
_geom_bond_atom_site_label_1
_geom_bond_atom_site_label_2
_geom_bond_distance
_geom_bond_site_symmetry_2
Li0 O2 2.026056 1_665
Li0 O4 2.093920 1_565
Li0 O6 2.120348 1_655
Li0 O5 2.149792 1_555
Li0 O0 2.441466 1_565
Li1 O2 2.026056 1_565
Li1 O3 2.093920 1_565
Li1 O6 2.120348 1_555
Li1 O5 2.149792 1_555
Li1 O0 2.441466 1_565
Li2 O7 1.968390 1_555
Li2 O9 1.989717 1_545
Li2 O8 2.082009 1_655
Li2 O11 2.363227 1_555
Li3 O7 1.968390 1_555
Li3 O10 1.989717 1_545
Li3 O8 2.082009 1_555
Li3 O11 2.363227 1_555
Li4 O12 2.018164 1_655
Li4 O13 2.071822 1_655
Li4 O11 2.146376 1_555
Li5 O12 2.018164 1_555
Li5 O13 2.071822 1_555
Li5 O11 2.146376 1_555
Fe0 O3 1.987957 1_555
Fe0 O4 1.987957 1_555
Fe0 O5 2.236241 1_545
Fe0 O1 2.286261 1_555
Fe0 O0 2.289821 1_555
Fe0 O7 2.295582 1_555
Fe1 O9 2.004749 1_455
Fe1 O10 2.004749 1_555
Fe1 O6 2.136475 1_555
Fe1 O12 2.186779 1_555
Fe1 O8 2.459292 1_565
Fe1 O8 2.589619 1_555
C0 O2 1.287775 1_555
C0 O13 1.292522 1_554
C0 O12 1.327920 1_544
C1 O0 1.282131 1_555
C1 O1 1.310124 1_555
C1 O11 1.325315 1_554
O3 P0 1.531776 1_555
O4 P0 1.531776 1_655
O5 P1 1.544528 1_555
O6 P0 1.562413 1_555
O7 P1 1.556193 1_555
O8 P0 1.590990 1_555
O9 P1 1.556018 1_555
O10 P1 1.556018 1_555
