# generated using pymatgen
data_Na5P3(H3O4)4
_symmetry_space_group_name_H-M   'P 1'
_cell_length_a   10.45307100
_cell_length_b   9.89439407
_cell_length_c   7.61166514
_cell_angle_alpha   92.13686282
_cell_angle_beta   94.76088934
_cell_angle_gamma   90.72999936
_symmetry_Int_Tables_number   1
_chemical_formula_structural   Na5P3(H3O4)4
_chemical_formula_sum   'Na10 P6 H24 O32'
_cell_volume   783.88930654
_cell_formula_units_Z   2
loop_
 _symmetry_equiv_pos_site_id
 _symmetry_equiv_pos_as_xyz
  1  'x, y, z'
loop_
 _atom_site_type_symbol
 _atom_site_label
 _atom_site_symmetry_multiplicity
 _atom_site_fract_x
 _atom_site_fract_y
 _atom_site_fract_z
 _atom_site_occupancy
  Na  Na0  1  0.93436200  0.09114400  0.88236500  1
  Na  Na1  1  0.06563800  0.90885600  0.11763500  1
  Na  Na2  1  0.58935600  0.04938200  0.86779400  1
  Na  Na3  1  0.41064400  0.95061800  0.13220600  1
  Na  Na4  1  0.93723200  0.41682000  0.13679100  1
  Na  Na5  1  0.06276800  0.58318000  0.86320900  1
  Na  Na6  1  0.75834900  0.77040400  0.66134100  1
  Na  Na7  1  0.24165100  0.22959600  0.33865900  1
  Na  Na8  1  0.55027000  0.42189500  0.14591500  1
  Na  Na9  1  0.44973000  0.57810500  0.85408500  1
  P  P0  1  0.74545400  0.25989600  0.39097000  1
  P  P1  1  0.25454600  0.74010400  0.60903000  1
  P  P2  1  0.73438100  0.04763700  0.14739200  1
  P  P3  1  0.26561900  0.95236300  0.85260800  1
  P  P4  1  0.76331800  0.71772100  0.99486900  1
  P  P5  1  0.23668200  0.28227900  0.00513100  1
  H  H0  1  0.71902200  0.38822700  0.89263400  1
  H  H1  1  0.28097800  0.61177300  0.10736600  1
  H  H2  1  0.76522000  0.32512600  0.75390800  1
  H  H3  1  0.23478000  0.67487400  0.24609200  1
  H  H4  1  0.90958700  0.10714800  0.58800400  1
  H  H5  1  0.09041300  0.89285200  0.41199600  1
  H  H6  1  0.99139300  0.94278800  0.61998400  1
  H  H7  1  0.00860700  0.05721200  0.38001600  1
  H  H8  1  0.60494900  0.08708800  0.58452300  1
  H  H9  1  0.39505100  0.91291200  0.41547700  1
  H  H10  1  0.51068500  0.92493400  0.61189900  1
  H  H11  1  0.48931500  0.07506600  0.38810100  1
  H  H12  1  0.58330800  0.44009100  0.60366100  1
  H  H13  1  0.41669200  0.55990900  0.39633900  1
  H  H14  1  0.51285600  0.61978900  0.60049500  1
  H  H15  1  0.48714400  0.38021100  0.39950500  1
  H  H16  1  0.75758200  0.82901100  0.38154100  1
  H  H17  1  0.24241800  0.17098900  0.61845900  1
  H  H18  1  0.74816700  0.62243400  0.38119400  1
  H  H19  1  0.25183300  0.37756600  0.61880600  1
  H  H20  1  0.08854300  0.55953000  0.40329700  1
  H  H21  1  0.91145700  0.44047000  0.59670300  1
  H  H22  1  0.99699000  0.39088900  0.37785600  1
  H  H23  1  0.00301000  0.60911100  0.62214400  1
  O  O0  1  0.73112100  0.06640600  0.30305800  1
  O  O1  1  0.26887900  0.93359400  0.69694200  1
  O  O2  1  0.71178100  0.83671400  0.12770500  1
  O  O3  1  0.28821900  0.16328600  0.87229500  1
  O  O4  1  0.61033200  0.12887100  0.09349000  1
  O  O5  1  0.38966800  0.87112900  0.90651000  1
  O  O6  1  0.87231800  0.10716800  0.10348300  1
  O  O7  1  0.12768200  0.89283200  0.89651700  1
  O  O8  1  0.61910300  0.25458300  0.47583300  1
  O  O9  1  0.38089700  0.74541700  0.52416700  1
  O  O10  1  0.87938700  0.25202400  0.46678800  1
  O  O11  1  0.12061200  0.74797600  0.53321200  1
  O  O12  1  0.74748000  0.40187400  0.29655700  1
  O  O13  1  0.25252000  0.59812600  0.70344300  1
  O  O14  1  0.65904200  0.56298200  0.98320500  1
  O  O15  1  0.34095800  0.43701800  0.01679500  1
  O  O16  1  0.90633800  0.66625500  0.02855500  1
  O  O17  1  0.09366200  0.33374500  0.97144500  1
  O  O18  1  0.75562200  0.83959300  0.88609600  1
  O  O19  1  0.24437800  0.16040700  0.11390400  1
  O  O20  1  0.74717500  0.28183400  0.83720700  1
  O  O21  1  0.25282500  0.71816600  0.16279300  1
  O  O22  1  0.92740000  0.02802400  0.65692300  1
  O  O23  1  0.07260000  0.97197600  0.34307700  1
  O  O24  1  0.59036500  0.99523700  0.64575000  1
  O  O25  1  0.40963500  0.00476300  0.35425000  1
  O  O26  1  0.57059400  0.55287600  0.65551200  1
  O  O27  1  0.42940600  0.44712400  0.34448800  1
  O  O28  1  0.75497800  0.73359500  0.43770800  1
  O  O29  1  0.24502200  0.26640500  0.56229200  1
  O  O30  1  0.07052000  0.45889200  0.33815300  1
  O  O31  1  0.92948000  0.54110800  0.66184700  1
loop_
_geom_bond_atom_site_label_1
_geom_bond_atom_site_label_2
_geom_bond_distance
_geom_bond_site_symmetry_2
Na0 O22 1.799486 1_555
Na0 O6 1.855374 1_556
Na0 O17 2.929809 1_655
Na1 O23 1.799486 1_555
Na1 O7 1.855374 1_554
Na1 O16 2.929809 1_455
Na2 O24 1.754771 1_545
Na2 O4 1.857479 1_556
Na3 O25 1.754771 1_565
Na3 O5 1.857479 1_554
Na4 O30 2.011671 1_655
Na4 O17 2.287383 1_654
Na4 O12 2.416879 1_555
Na4 O16 2.646104 1_555
Na5 O31 2.011671 1_455
Na5 O16 2.287383 1_456
Na5 O13 2.416879 1_555
Na5 O17 2.646104 1_555
Na6 O28 1.724796 1_555
Na6 O18 1.821379 1_555
Na7 O29 1.724796 1_555
Na7 O19 1.821379 1_555
Na8 O27 2.059107 1_555
Na8 O14 2.257788 1_554
Na8 O12 2.288792 1_555
Na8 O15 2.331913 1_555
Na9 O26 2.059107 1_555
Na9 O15 2.257788 1_556
Na9 O13 2.288792 1_555
Na9 O14 2.331913 1_555
H0 O20 1.169677 1_555
H1 O21 1.169677 1_555
H2 O20 0.811863 1_555
H3 O21 0.811863 1_555
H4 O22 0.969999 1_555
H5 O23 0.969999 1_555
H6 O22 1.125024 1_565
H7 O23 1.125024 1_545
H8 O24 1.051768 1_545
H9 O25 1.051768 1_565
H10 O24 1.086383 1_555
H11 O25 1.086383 1_555
H12 O26 1.182536 1_555
H13 O27 1.182536 1_555
H14 O26 0.983290 1_555
H15 O27 0.983290 1_555
H16 O28 1.051755 1_555
H17 O29 1.051755 1_555
H18 O28 1.165103 1_555
H19 O29 1.165103 1_555
H20 O30 1.102624 1_555
H21 O31 1.102624 1_555
H22 O30 1.084142 1_655
H22 Na4 1.916203 1_555
H23 O31 1.084142 1_455
H23 Na5 1.916203 1_555
O0 P2 1.195842 1_555
O0 P0 2.003975 1_555
O1 P3 1.195842 1_555
O1 P1 2.003975 1_555
O2 P4 1.648193 1_554
O2 P2 2.095683 1_565
O3 P5 1.648193 1_556
O3 P3 2.095683 1_545
O4 P2 1.567997 1_555
O5 P3 1.567997 1_555
O6 P2 1.615754 1_555
O7 P3 1.615754 1_555
O8 P0 1.518812 1_555
O9 P1 1.518812 1_555
O10 P0 1.473485 1_555
O11 P1 1.473495 1_555
O12 P0 1.602301 1_555
O13 P1 1.602301 1_555
O14 P4 1.863163 1_555
O15 P5 1.863163 1_555
O16 P4 1.589207 1_554
O17 P5 1.589207 1_556
O18 P4 1.487247 1_555
O19 P5 1.487247 1_555
