# generated using pymatgen
data_Li2SnP2O7
_symmetry_space_group_name_H-M   'P 1'
_cell_length_a   10.27695800
_cell_length_b   10.44555781
_cell_length_c   12.03035369
_cell_angle_alpha   75.13476798
_cell_angle_beta   89.96415190
_cell_angle_gamma   89.87018210
_symmetry_Int_Tables_number   1
_chemical_formula_structural   Li2SnP2O7
_chemical_formula_sum   'Li16 Sn8 P16 O56'
_cell_volume   1248.21588891
_cell_formula_units_Z   8
loop_
 _symmetry_equiv_pos_site_id
 _symmetry_equiv_pos_as_xyz
  1  'x, y, z'
loop_
 _atom_site_type_symbol
 _atom_site_label
 _atom_site_symmetry_multiplicity
 _atom_site_fract_x
 _atom_site_fract_y
 _atom_site_fract_z
 _atom_site_occupancy
  Li  Li0  1  0.73001000  0.08808300  0.57692900  1
  Li  Li1  1  0.41800200  0.17821400  0.43605600  1
  Li  Li2  1  0.11101100  0.06954200  0.97383700  1
  Li  Li3  1  0.90322000  0.35839300  0.03876700  1
  Li  Li4  1  0.40227800  0.14039200  0.96068900  1
  Li  Li5  1  0.61142700  0.43010700  0.02654400  1
  Li  Li6  1  0.91806100  0.32186000  0.56370200  1
  Li  Li7  1  0.23052100  0.41287000  0.42316000  1
  Li  Li8  1  0.76947900  0.58713000  0.57684000  1
  Li  Li9  1  0.08193900  0.67814000  0.43629800  1
  Li  Li10  1  0.38857300  0.56989300  0.97345600  1
  Li  Li11  1  0.59772200  0.85960800  0.03931100  1
  Li  Li12  1  0.09678000  0.64160700  0.96123300  1
  Li  Li13  1  0.88898900  0.93045800  0.02616300  1
  Li  Li14  1  0.58199800  0.82178600  0.56394400  1
  Li  Li15  1  0.26999000  0.91191700  0.42307100  1
  Sn  Sn0  1  0.90108600  0.20361100  0.32990600  1
  Sn  Sn1  1  0.22405900  0.25656700  0.16995200  1
  Sn  Sn2  1  0.72392500  0.24320400  0.83020100  1
  Sn  Sn3  1  0.40066500  0.29666700  0.67016400  1
  Sn  Sn4  1  0.59933500  0.70333300  0.32983600  1
  Sn  Sn5  1  0.27607500  0.75679600  0.16979900  1
  Sn  Sn6  1  0.77594100  0.74343300  0.83004800  1
  Sn  Sn7  1  0.09891400  0.79638900  0.67009500  1
  P  P0  1  0.46677900  0.03109700  0.22896600  1
  P  P1  1  0.69791100  0.13433400  0.09402000  1
  P  P2  1  0.95316600  0.05240300  0.74722000  1
  P  P3  1  0.14654000  0.12680600  0.54988700  1
  P  P4  1  0.64653900  0.37301200  0.45006000  1
  P  P5  1  0.45305700  0.44771500  0.25296000  1
  P  P6  1  0.03405900  0.53108100  0.22945500  1
  P  P7  1  0.19743100  0.36595700  0.90599100  1
  P  P8  1  0.80256900  0.63404300  0.09400900  1
  P  P9  1  0.96594100  0.46891900  0.77054500  1
  P  P10  1  0.54694300  0.55228500  0.74704000  1
  P  P11  1  0.35346100  0.62698800  0.54994000  1
  P  P12  1  0.85346000  0.87319400  0.45011300  1
  P  P13  1  0.04683400  0.94759700  0.25278000  1
  P  P14  1  0.30208900  0.86566600  0.90598000  1
  P  P15  1  0.53322100  0.96890300  0.77103400  1
  O  O0  1  0.41946100  0.03810100  0.34756700  1
  O  O1  1  0.84603900  0.99963400  0.49052400  1
  O  O2  1  0.08346500  0.09043100  0.25843300  1
  O  O3  1  0.37852900  0.10871100  0.13050000  1
  O  O4  1  0.60986500  0.10128300  0.21192500  1
  O  O5  1  0.82287700  0.19561100  0.12383400  1
  O  O6  1  0.61813100  0.23978700  0.00297800  1
  O  O7  1  0.28400600  0.99243700  0.94511900  1
  O  O8  1  0.09623100  0.08375200  0.68509800  1
  O  O9  1  0.96775500  0.06153500  0.87068700  1
  O  O10  1  0.51365500  0.11079600  0.78560900  1
  O  O11  1  0.28268500  0.18581800  0.55371700  1
  O  O12  1  0.85879900  0.15367700  0.67414000  1
  O  O13  1  0.05401600  0.23572600  0.48198400  1
  O  O14  1  0.55479600  0.26376700  0.51801700  1
  O  O15  1  0.35874300  0.34682500  0.32599300  1
  O  O16  1  0.78323300  0.31454800  0.44612300  1
  O  O17  1  0.01537400  0.38917300  0.21472200  1
  O  O18  1  0.59621600  0.41567800  0.31491200  1
  O  O19  1  0.46758100  0.43862300  0.12941900  1
  O  O20  1  0.78444200  0.50681700  0.05534500  1
  O  O21  1  0.11712800  0.26151900  0.99729000  1
  O  O22  1  0.32205600  0.30380600  0.87656300  1
  O  O23  1  0.10941700  0.39897100  0.78801300  1
  O  O24  1  0.58336900  0.40939000  0.74103500  1
  O  O25  1  0.87754200  0.39114700  0.86873900  1
  O  O26  1  0.08074400  0.53801100  0.34810200  1
  O  O27  1  0.34678400  0.50053700  0.50955300  1
  O  O28  1  0.65321600  0.49946300  0.49044700  1
  O  O29  1  0.91925600  0.46198900  0.65189800  1
  O  O30  1  0.12245800  0.60885300  0.13126100  1
  O  O31  1  0.41663100  0.59061000  0.25896500  1
  O  O32  1  0.89058300  0.60102900  0.21198700  1
  O  O33  1  0.67794400  0.69619400  0.12343700  1
  O  O34  1  0.88287200  0.73848100  0.00271000  1
  O  O35  1  0.21555800  0.49318300  0.94465500  1
  O  O36  1  0.53241900  0.56137700  0.87058100  1
  O  O37  1  0.40378400  0.58432200  0.68508800  1
  O  O38  1  0.98462600  0.61082700  0.78527800  1
  O  O39  1  0.21676700  0.68545200  0.55387700  1
  O  O40  1  0.64125700  0.65317500  0.67400700  1
  O  O41  1  0.44520400  0.73623300  0.48198300  1
  O  O42  1  0.94598400  0.76427400  0.51801600  1
  O  O43  1  0.14120100  0.84632300  0.32586000  1
  O  O44  1  0.71731500  0.81418200  0.44628300  1
  O  O45  1  0.48634500  0.88920400  0.21439100  1
  O  O46  1  0.03224500  0.93846500  0.12931300  1
  O  O47  1  0.90376900  0.91624800  0.31490200  1
  O  O48  1  0.71599400  0.00756300  0.05488100  1
  O  O49  1  0.38186900  0.76021300  0.99702200  1
  O  O50  1  0.17712300  0.80438900  0.87616600  1
  O  O51  1  0.39013500  0.89871700  0.78807500  1
  O  O52  1  0.62147100  0.89128900  0.86950000  1
  O  O53  1  0.91653500  0.90956900  0.74156700  1
  O  O54  1  0.15396100  0.00036600  0.50947600  1
  O  O55  1  0.58053900  0.96189900  0.65243300  1
loop_
_geom_bond_atom_site_label_1
_geom_bond_atom_site_label_2
_geom_bond_distance
_geom_bond_site_symmetry_2
Li0 O1 1.960156 1_545
Li0 O12 2.001533 1_555
Li0 O55 2.077288 1_545
Li0 O14 2.536070 1_555
Li0 O16 2.542863 1_555
Li1 O11 1.999645 1_555
Li1 O15 2.006405 1_555
Li1 O0 2.018614 1_555
Li1 O14 2.051032 1_555
Li2 O9 1.941773 1_455
Li2 O7 2.016023 1_545
Li2 O21 2.096595 1_555
Li2 O46 2.171986 1_546
Li3 O5 1.932025 1_555
Li3 O25 2.002983 1_554
Li3 O20 2.020705 1_555
Li3 O17 2.503326 1_655
Li3 O21 2.520551 1_654
Li4 O22 1.930267 1_555
Li4 O3 1.998833 1_556
Li4 O7 2.014518 1_545
Li4 O10 2.484268 1_555
Li4 O6 2.557448 1_556
Li5 O19 1.943860 1_555
Li5 O20 2.018243 1_555
Li5 O6 2.079856 1_555
Li5 O36 2.176398 1_554
Li6 O16 1.996248 1_555
Li6 O12 2.007136 1_555
Li6 O29 2.016280 1_555
Li6 O13 2.043176 1_655
Li7 O27 1.959912 1_555
Li7 O15 1.996629 1_555
Li7 O26 2.068899 1_555
Li7 O11 2.542281 1_555
Li7 O13 2.560616 1_555
Li8 O28 1.959912 1_555
Li8 O40 1.996629 1_555
Li8 O29 2.068899 1_555
Li8 O44 2.542281 1_555
Li8 O42 2.560616 1_555
Li9 O39 1.996248 1_555
Li9 O43 2.007136 1_555
Li9 O26 2.016280 1_555
Li9 O42 2.043176 1_455
Li10 O36 1.943860 1_555
Li10 O35 2.018243 1_555
Li10 O49 2.079856 1_555
Li10 O19 2.176398 1_556
Li11 O33 1.930267 1_555
Li11 O52 1.998833 1_554
Li11 O48 2.014518 1_565
Li11 O45 2.484268 1_555
Li11 O49 2.557448 1_554
Li12 O50 1.932025 1_555
Li12 O30 2.002983 1_556
Li12 O35 2.020705 1_555
Li12 O38 2.503326 1_455
Li12 O34 2.520551 1_456
Li13 O46 1.941773 1_655
Li13 O48 2.016023 1_565
Li13 O34 2.096595 1_555
Li13 O9 2.171986 1_564
Li14 O44 1.999645 1_555
Li14 O40 2.006405 1_555
Li14 O55 2.018614 1_555
Li14 O41 2.051032 1_555
Li15 O54 1.960156 1_565
Li15 O43 2.001533 1_555
Li15 O0 2.077288 1_565
Li15 O41 2.536070 1_555
Li15 O39 2.542863 1_555
O0 P0 1.526482 1_555
O1 P12 1.521663 1_555
O1 Sn0 2.546593 1_565
O2 P13 1.557880 1_545
O2 Sn1 2.300854 1_555
O2 Sn0 2.481838 1_455
O3 P0 1.545413 1_555
O3 Sn1 2.344080 1_555
O4 P0 1.633781 1_555
O4 P1 1.642696 1_555
O5 P1 1.519798 1_555
O5 Sn0 2.628331 1_555
O6 P1 1.569454 1_555
O6 Sn2 2.337326 1_554
O7 P14 1.525917 1_555
O8 P2 1.643990 1_455
O8 P3 1.655344 1_555
O9 P2 1.520161 1_555
O10 P15 1.549161 1_545
O10 Sn3 2.378033 1_555
O10 Sn2 2.695555 1_555
O11 P3 1.535672 1_555
O11 Sn3 2.369401 1_555
O12 P2 1.533548 1_555
O12 Sn2 2.685590 1_555
O13 P3 1.544374 1_555
O13 Sn0 2.500157 1_455
O14 P4 1.544257 1_555
O14 Sn3 2.508805 1_555
O15 P5 1.533137 1_555
O15 Sn1 2.691831 1_555
O16 P4 1.536071 1_555
O16 Sn0 2.363753 1_555
O17 P6 1.549730 1_555
O17 Sn0 2.384715 1_455
O17 Sn1 2.678825 1_555
O18 P5 1.644135 1_555
O18 P4 1.654624 1_555
O19 P5 1.520623 1_555
O20 P8 1.528253 1_555
O21 P7 1.570257 1_555
O21 Sn1 2.339333 1_556
O22 P7 1.516823 1_555
O22 Sn3 2.629824 1_555
O23 P9 1.633668 1_455
O23 P7 1.643348 1_555
O24 P10 1.557570 1_555
O24 Sn2 2.299074 1_555
O24 Sn3 2.483140 1_555
O25 P9 1.546081 1_555
O25 Sn2 2.339866 1_555
O26 P6 1.525395 1_555
O27 P11 1.521566 1_555
O27 Sn3 2.541601 1_555
O28 P4 1.521566 1_555
O28 Sn4 2.541601 1_555
O29 P9 1.525395 1_555
O30 P6 1.546081 1_555
O30 Sn5 2.339866 1_555
O31 P5 1.557570 1_555
O31 Sn5 2.299074 1_555
O31 Sn4 2.483140 1_555
O32 P6 1.633668 1_655
O32 P8 1.643348 1_555
O33 P8 1.516823 1_555
O33 Sn4 2.629824 1_555
O34 P8 1.570257 1_555
O34 Sn6 2.339333 1_554
O35 P7 1.528253 1_555
O36 P10 1.520623 1_555
O37 P10 1.644135 1_555
O37 P11 1.654624 1_555
O38 P9 1.549730 1_555
O38 Sn7 2.384710 1_655
O38 Sn6 2.678825 1_555
O39 P11 1.536071 1_555
O39 Sn7 2.363762 1_555
O40 P10 1.533137 1_555
O40 Sn6 2.691831 1_555
O41 P11 1.544257 1_555
O41 Sn4 2.508805 1_555
O42 P12 1.544374 1_555
O42 Sn7 2.500167 1_655
O43 P13 1.533548 1_555
O43 Sn5 2.685590 1_555
O44 P12 1.535672 1_555
O44 Sn4 2.369401 1_555
O45 P0 1.549161 1_565
O45 Sn4 2.378033 1_555
O45 Sn5 2.695555 1_555
O46 P13 1.520161 1_555
O47 P13 1.643990 1_655
O47 P12 1.655344 1_555
O48 P1 1.525917 1_555
O49 P14 1.569454 1_555
O49 Sn5 2.337326 1_556
O50 P14 1.519798 1_555
O50 Sn7 2.628319 1_555
O51 P15 1.633781 1_555
O51 P14 1.642696 1_555
O52 P15 1.545413 1_555
O52 Sn6 2.344080 1_555
O53 P2 1.557880 1_565
O53 Sn6 2.300854 1_555
O53 Sn7 2.481833 1_655
O54 P3 1.521663 1_555
O54 Sn7 2.546600 1_545
O55 P15 1.526482 1_555
