# generated using pymatgen
data_La2Th5O13
_symmetry_space_group_name_H-M   'P 1'
_cell_length_a   23.09422078
_cell_length_b   23.09422078
_cell_length_c   23.09422039
_cell_angle_alpha   9.88192825
_cell_angle_beta   9.88192825
_cell_angle_gamma   9.88192900
_symmetry_Int_Tables_number   1
_chemical_formula_structural   La2Th5O13
_chemical_formula_sum   'La2 Th5 O13'
_cell_volume   314.95128491
_cell_formula_units_Z   1
loop_
 _symmetry_equiv_pos_site_id
 _symmetry_equiv_pos_as_xyz
  1  'x, y, z'
loop_
 _atom_site_type_symbol
 _atom_site_label
 _atom_site_symmetry_multiplicity
 _atom_site_fract_x
 _atom_site_fract_y
 _atom_site_fract_z
 _atom_site_occupancy
  La  La0  1  0.00127300  0.00127300  0.00127300  1
  La  La1  1  0.28340600  0.28340600  0.28340600  1
  Th  Th0  1  0.57125000  0.57125000  0.57125000  1
  Th  Th1  1  0.85750900  0.85750900  0.85750900  1
  Th  Th2  1  0.14340200  0.14340200  0.14340200  1
  Th  Th3  1  0.42916000  0.42916000  0.42916000  1
  Th  Th4  1  0.71529900  0.71529900  0.71529900  1
  O  O0  1  0.96909800  0.96909800  0.96909800  1
  O  O1  1  0.60588000  0.60588000  0.60588000  1
  O  O2  1  0.24867500  0.24867500  0.24867500  1
  O  O3  1  0.53528900  0.53528900  0.53528900  1
  O  O4  1  0.89217000  0.89217000  0.89217000  1
  O  O5  1  0.82121500  0.82121500  0.82121500  1
  O  O6  1  0.17829000  0.17829000  0.17829000  1
  O  O7  1  0.46408700  0.46408700  0.46408700  1
  O  O8  1  0.10696200  0.10696200  0.10696200  1
  O  O9  1  0.74979700  0.74979700  0.74979700  1
  O  O10  1  0.03683400  0.03683400  0.03683400  1
  O  O11  1  0.67592100  0.67592100  0.67592100  1
  O  O12  1  0.39305500  0.39305500  0.39305500  1
loop_
_geom_bond_atom_site_label_1
_geom_bond_atom_site_label_2
_geom_bond_distance
_geom_bond_site_symmetry_2
La0 O0 2.218118 1_444
La0 O11 2.361788 1_445
La0 O11 2.361788 1_544
La0 O11 2.361788 1_454
La0 O10 2.451546 1_555
La1 O2 2.394326 1_555
La1 O1 2.415729 1_554
La1 O1 2.415729 1_545
La1 O1 2.415729 1_455
La1 O0 2.644913 1_445
La1 O0 2.644913 1_544
La1 O0 2.644913 1_454
O1 Th0 2.387364 1_555
O2 Th0 2.413580 1_554
O2 Th0 2.413580 1_455
O2 Th0 2.413580 1_545
O3 Th1 2.421212 1_554
O3 Th1 2.421213 1_455
O3 Th1 2.421213 1_545
O3 Th0 2.479122 1_555
O4 Th1 2.389501 1_555
O4 Th0 2.451046 1_556
O4 Th0 2.451046 1_655
O4 Th0 2.451046 1_565
O5 Th2 2.421933 1_665
O5 Th2 2.421934 1_566
O5 Th2 2.421934 1_656
O5 Th1 2.502078 1_555
O6 Th2 2.405150 1_555
O6 Th1 2.454408 1_445
O6 Th1 2.454408 1_454
O6 Th1 2.454408 1_544
O7 Th3 2.407839 1_555
O7 Th2 2.456749 1_556
O7 Th2 2.456750 1_565
O7 Th2 2.456750 1_655
O8 Th3 2.421693 1_554
O8 Th3 2.421693 1_455
O8 Th3 2.421693 1_545
O8 Th2 2.512143 1_555
O9 Th4 2.378264 1_555
O9 Th3 2.457926 1_556
O9 Th3 2.457926 1_565
O9 Th3 2.457926 1_655
O10 Th4 2.436567 1_445
O10 Th4 2.436567 1_544
O10 Th4 2.436567 1_454
O11 Th4 2.714687 1_555
O12 Th4 2.420689 1_554
O12 Th4 2.420690 1_455
O12 Th4 2.420690 1_545
O12 Th3 2.489049 1_555
