# generated using pymatgen
data_Li5Ni2(PO4)3
_symmetry_space_group_name_H-M   'P 1'
_cell_length_a   8.31873300
_cell_length_b   8.35928295
_cell_length_c   9.17467443
_cell_angle_alpha   63.41981986
_cell_angle_beta   63.34008638
_cell_angle_gamma   60.19371216
_symmetry_Int_Tables_number   1
_chemical_formula_structural   Li5Ni2(PO4)3
_chemical_formula_sum   'Li10 Ni4 P6 O24'
_cell_volume   473.56889788
_cell_formula_units_Z   2
loop_
 _symmetry_equiv_pos_site_id
 _symmetry_equiv_pos_as_xyz
  1  'x, y, z'
loop_
 _atom_site_type_symbol
 _atom_site_label
 _atom_site_symmetry_multiplicity
 _atom_site_fract_x
 _atom_site_fract_y
 _atom_site_fract_z
 _atom_site_occupancy
  Li  Li0  1  0.27220900  0.92681500  0.13319700  1
  Li  Li1  1  0.92309300  0.68721400  0.11208600  1
  Li  Li2  1  0.69279700  0.27511500  0.10153200  1
  Li  Li3  1  0.89982000  0.46238200  0.42048900  1
  Li  Li4  1  0.48380200  0.21356100  0.40854000  1
  Li  Li5  1  0.51619800  0.78643900  0.59146000  1
  Li  Li6  1  0.10018000  0.53761800  0.57951100  1
  Li  Li7  1  0.30720300  0.72488500  0.89846800  1
  Li  Li8  1  0.07690700  0.31278600  0.88791400  1
  Li  Li9  1  0.72779100  0.07318500  0.86680300  1
  Ni  Ni0  1  0.65437000  0.65365500  0.04348500  1
  Ni  Ni1  1  0.14279400  0.12675400  0.57570200  1
  Ni  Ni2  1  0.85720600  0.87324600  0.42429800  1
  Ni  Ni3  1  0.34563000  0.34634500  0.95651500  1
  P  P0  1  0.95483300  0.25487000  0.24844600  1
  P  P1  1  0.54693700  0.95760200  0.24259600  1
  P  P2  1  0.25380500  0.54465900  0.24329100  1
  P  P3  1  0.74619500  0.45534100  0.75670900  1
  P  P4  1  0.45306300  0.04239800  0.75740400  1
  P  P5  1  0.04516700  0.74513000  0.75155400  1
  O  O0  1  0.14393900  0.20626700  0.09782600  1
  O  O1  1  0.83452700  0.47529000  0.20457500  1
  O  O2  1  0.49888900  0.83715200  0.19359800  1
  O  O3  1  0.54792400  0.15177000  0.09821100  1
  O  O4  1  0.19991800  0.54367000  0.10094900  1
  O  O5  1  0.99885000  0.20112400  0.41217400  1
  O  O6  1  0.75358100  0.84528200  0.26692100  1
  O  O7  1  0.40620300  0.99968200  0.41314900  1
  O  O8  1  0.47473000  0.48448700  0.19850100  1
  O  O9  1  0.13866500  0.74821200  0.26594500  1
  O  O10  1  0.19336800  0.39810900  0.41630700  1
  O  O11  1  0.83669100  0.14552300  0.26773000  1
  O  O12  1  0.16330900  0.85447700  0.73227000  1
  O  O13  1  0.80663200  0.60189100  0.58369300  1
  O  O14  1  0.86133500  0.25178800  0.73405500  1
  O  O15  1  0.52527000  0.51551300  0.80149900  1
  O  O16  1  0.59379700  0.00031800  0.58685100  1
  O  O17  1  0.24641900  0.15471800  0.73307900  1
  O  O18  1  0.00115000  0.79887600  0.58782600  1
  O  O19  1  0.80008200  0.45633000  0.89905100  1
  O  O20  1  0.45207600  0.84823000  0.90178900  1
  O  O21  1  0.50111100  0.16284800  0.80640200  1
  O  O22  1  0.16547300  0.52471000  0.79542500  1
  O  O23  1  0.85606100  0.79373300  0.90217400  1
loop_
_geom_bond_atom_site_label_1
_geom_bond_atom_site_label_2
_geom_bond_distance
_geom_bond_site_symmetry_2
Li0 O2 1.893587 1_555
Li0 O9 1.937512 1_555
Li0 O0 1.963464 1_565
Li0 O20 2.144314 1_554
Li1 O23 1.936047 1_554
Li1 O6 1.944784 1_555
Li1 O1 1.947420 1_555
Li1 O4 1.976066 1_655
Li2 O11 1.949879 1_555
Li2 O3 1.952652 1_555
Li2 O19 1.969803 1_554
Li2 O8 1.983500 1_555
Li3 O5 1.938591 1_555
Li3 O13 1.955832 1_555
Li3 O10 2.209820 1_655
Li3 O1 2.224138 1_555
Li4 O16 1.950184 1_555
Li4 O10 2.112049 1_555
Li4 O7 2.161062 1_545
Li4 O8 2.214335 1_555
Li4 O11 2.490892 1_555
Li5 O7 1.950184 1_555
Li5 O13 2.112049 1_555
Li5 O16 2.161062 1_565
Li5 O15 2.214335 1_555
Li5 O12 2.490892 1_555
Li6 O18 1.938591 1_555
Li6 O10 1.955832 1_555
Li6 O13 2.209820 1_455
Li6 O22 2.224138 1_555
Li7 O12 1.949879 1_555
Li7 O20 1.952652 1_555
Li7 O4 1.969803 1_556
Li7 O15 1.983500 1_555
Li8 O0 1.936047 1_556
Li8 O17 1.944784 1_555
Li8 O22 1.947420 1_555
Li8 O19 1.976066 1_455
Li9 O21 1.893587 1_555
Li9 O14 1.937512 1_555
Li9 O23 1.963464 1_545
Li9 O3 2.144314 1_556
Ni0 O2 2.059658 1_555
Ni0 O1 2.108953 1_555
Ni0 O19 2.114958 1_554
Ni0 O23 2.123573 1_554
Ni0 O20 2.125408 1_554
Ni0 O8 2.156247 1_555
Ni1 O5 2.026996 1_455
Ni1 O12 2.044730 1_545
Ni1 O7 2.079696 1_545
Ni1 O17 2.121758 1_555
Ni1 O14 2.135109 1_455
Ni1 O10 2.211104 1_555
Ni2 O18 2.026996 1_655
Ni2 O11 2.044730 1_565
Ni2 O16 2.079696 1_565
Ni2 O6 2.121758 1_555
Ni2 O9 2.135109 1_655
Ni2 O13 2.211104 1_555
Ni3 O21 2.059658 1_555
Ni3 O22 2.108953 1_555
Ni3 O4 2.114958 1_556
Ni3 O0 2.123573 1_556
Ni3 O3 2.125408 1_556
Ni3 O15 2.156247 1_555
O0 P0 1.570232 1_455
O1 P0 1.556661 1_555
O2 P1 1.530371 1_555
O3 P1 1.571207 1_545
O4 P2 1.563711 1_555
O5 P0 1.522657 1_555
O6 P1 1.561599 1_555
O7 P1 1.543395 1_555
O8 P2 1.545216 1_555
O9 P2 1.540624 1_555
O10 P2 1.558572 1_555
O11 P0 1.557241 1_555
O12 P5 1.557241 1_555
O13 P3 1.558572 1_555
O14 P3 1.540624 1_555
O15 P3 1.545216 1_555
O16 P4 1.543395 1_555
O17 P4 1.561599 1_555
O18 P5 1.522657 1_555
O19 P3 1.563711 1_555
O20 P4 1.571207 1_565
O21 P4 1.530371 1_555
O22 P5 1.556661 1_555
O23 P5 1.570232 1_655
