# generated using pymatgen
data_Li4Fe2Ni3O10
_symmetry_space_group_name_H-M   'P 1'
_cell_length_a   5.04211300
_cell_length_b   5.08188822
_cell_length_c   7.76669019
_cell_angle_alpha   102.83722465
_cell_angle_beta   108.34019833
_cell_angle_gamma   99.31494888
_symmetry_Int_Tables_number   1
_chemical_formula_structural   Li4Fe2Ni3O10
_chemical_formula_sum   'Li4 Fe2 Ni3 O10'
_cell_volume   178.31003191
_cell_formula_units_Z   1
loop_
 _symmetry_equiv_pos_site_id
 _symmetry_equiv_pos_as_xyz
  1  'x, y, z'
loop_
 _atom_site_type_symbol
 _atom_site_label
 _atom_site_symmetry_multiplicity
 _atom_site_fract_x
 _atom_site_fract_y
 _atom_site_fract_z
 _atom_site_occupancy
  Li  Li0  1  0.07566600  0.77029400  0.58697000  1
  Li  Li1  1  0.69906400  0.60026600  0.21740100  1
  Li  Li2  1  0.30093600  0.39973400  0.78259900  1
  Li  Li3  1  0.92433400  0.22970600  0.41303000  1
  Fe  Fe0  1  0.30262300  0.89705100  0.31297200  1
  Fe  Fe1  1  0.69737700  0.10294900  0.68702800  1
  Ni  Ni0  1  0.50000000  0.00000000  0.00000000  1
  Ni  Ni1  1  0.09919900  0.29991300  0.09779000  1
  Ni  Ni2  1  0.90080100  0.70008700  0.90221000  1
  O  O0  1  0.89846800  0.94137200  0.13692900  1
  O  O1  1  0.69733800  0.88851200  0.44694200  1
  O  O2  1  0.28172100  0.67006900  0.04616100  1
  O  O3  1  0.09078000  0.54206600  0.31992500  1
  O  O4  1  0.53902700  0.77669100  0.78132100  1
  O  O5  1  0.46097300  0.22330900  0.21867900  1
  O  O6  1  0.90922000  0.45793400  0.68007500  1
  O  O7  1  0.71827900  0.32993100  0.95383900  1
  O  O8  1  0.30266200  0.11148800  0.55305800  1
  O  O9  1  0.10153200  0.05862800  0.86307100  1
loop_
_geom_bond_atom_site_label_1
_geom_bond_atom_site_label_2
_geom_bond_distance
_geom_bond_site_symmetry_2
Li0 O8 2.033714 1_565
Li0 O6 2.051271 1_455
Li0 O1 2.130325 1_455
Li0 O3 2.170682 1_555
Li0 O9 2.264587 1_565
Li0 O4 2.339271 1_555
Li1 O3 1.981536 1_655
Li1 O1 2.043904 1_555
Li1 O5 2.093433 1_555
Li1 O0 2.172342 1_555
Li1 O7 2.237237 1_554
Li1 O2 2.238916 1_555
Li2 O6 1.981536 1_455
Li2 O8 2.043904 1_555
Li2 O4 2.093433 1_555
Li2 O9 2.172342 1_555
Li2 O2 2.237237 1_556
Li2 O7 2.238916 1_555
Li3 O1 2.033714 1_545
Li3 O3 2.051271 1_655
Li3 O8 2.130325 1_655
Li3 O6 2.170682 1_555
Li3 O0 2.264587 1_545
Li3 O5 2.339271 1_555
Fe0 O8 1.939406 1_565
Fe0 O1 1.946855 1_555
Fe0 O3 1.963169 1_555
Fe0 O2 2.096871 1_555
Fe0 O5 2.098042 1_565
Fe0 O0 2.145876 1_455
Fe1 O1 1.939406 1_545
Fe1 O8 1.946855 1_555
Fe1 O6 1.963169 1_555
Fe1 O7 2.096871 1_555
Fe1 O4 2.098042 1_545
Fe1 O9 2.145876 1_655
Ni0 O4 1.907173 1_544
Ni0 O5 1.907173 1_555
Ni0 O2 2.017205 1_545
Ni0 O7 2.017205 1_554
Ni0 O9 2.060648 1_554
Ni0 O0 2.060648 1_545
Ni1 O3 1.900590 1_555
Ni1 O5 1.917015 1_555
Ni1 O7 1.944582 1_454
Ni1 O9 1.962607 1_554
Ni1 O0 2.068681 1_445
Ni1 O2 2.133832 1_555
Ni2 O6 1.900590 1_555
Ni2 O4 1.917015 1_555
Ni2 O2 1.944582 1_656
Ni2 O0 1.962607 1_556
Ni2 O9 2.068681 1_665
Ni2 O7 2.133832 1_555
