# generated using pymatgen
data_Li5NiO4
_symmetry_space_group_name_H-M   'P 1'
_cell_length_a   9.07108700
_cell_length_b   9.15284600
_cell_length_c   9.18443900
_cell_angle_alpha   90.00000000
_cell_angle_beta   90.00000000
_cell_angle_gamma   90.00000000
_symmetry_Int_Tables_number   1
_chemical_formula_structural   Li5NiO4
_chemical_formula_sum   'Li40 Ni8 O32'
_cell_volume   762.54964208
_cell_formula_units_Z   8
loop_
 _symmetry_equiv_pos_site_id
 _symmetry_equiv_pos_as_xyz
  1  'x, y, z'
loop_
 _atom_site_type_symbol
 _atom_site_label
 _atom_site_symmetry_multiplicity
 _atom_site_fract_x
 _atom_site_fract_y
 _atom_site_fract_z
 _atom_site_occupancy
  Li  Li0  1  0.85651300  0.38805600  0.10925300  1
  Li  Li1  1  0.35651300  0.11194400  0.10925300  1
  Li  Li2  1  0.15955800  0.89005300  0.11795100  1
  Li  Li3  1  0.65955800  0.60994700  0.11795100  1
  Li  Li4  1  0.62615400  0.14823100  0.11894500  1
  Li  Li5  1  0.12615400  0.35176900  0.11894500  1
  Li  Li6  1  0.89633600  0.12347200  0.14730100  1
  Li  Li7  1  0.39633600  0.37652800  0.14730100  1
  Li  Li8  1  0.60532800  0.88109500  0.15604100  1
  Li  Li9  1  0.10532800  0.61890500  0.15604100  1
  Li  Li10  1  0.10532800  0.11890500  0.34395900  1
  Li  Li11  1  0.60532800  0.38109500  0.34395900  1
  Li  Li12  1  0.89633600  0.62347200  0.35269900  1
  Li  Li13  1  0.39633600  0.87652800  0.35269900  1
  Li  Li14  1  0.62615400  0.64823100  0.38105500  1
  Li  Li15  1  0.12615400  0.85176900  0.38105500  1
  Li  Li16  1  0.65955800  0.10994700  0.38204900  1
  Li  Li17  1  0.15955800  0.39005300  0.38204900  1
  Li  Li18  1  0.85651300  0.88805600  0.39074700  1
  Li  Li19  1  0.35651300  0.61194400  0.39074700  1
  Li  Li20  1  0.64348700  0.38805600  0.60925300  1
  Li  Li21  1  0.14348700  0.11194400  0.60925300  1
  Li  Li22  1  0.34044200  0.89005300  0.61795100  1
  Li  Li23  1  0.84044200  0.60994700  0.61795100  1
  Li  Li24  1  0.37384600  0.35176900  0.61894500  1
  Li  Li25  1  0.87384600  0.14823100  0.61894500  1
  Li  Li26  1  0.10366400  0.37652800  0.64730100  1
  Li  Li27  1  0.60366400  0.12347200  0.64730100  1
  Li  Li28  1  0.89467200  0.88109500  0.65604100  1
  Li  Li29  1  0.39467200  0.61890500  0.65604100  1
  Li  Li30  1  0.89467200  0.38109500  0.84395900  1
  Li  Li31  1  0.39467200  0.11890500  0.84395900  1
  Li  Li32  1  0.60366400  0.62347200  0.85269900  1
  Li  Li33  1  0.10366400  0.87652800  0.85269900  1
  Li  Li34  1  0.37384600  0.85176900  0.88105500  1
  Li  Li35  1  0.87384600  0.64823100  0.88105500  1
  Li  Li36  1  0.34044200  0.39005300  0.88204900  1
  Li  Li37  1  0.84044200  0.10994700  0.88204900  1
  Li  Li38  1  0.64348700  0.88805600  0.89074700  1
  Li  Li39  1  0.14348700  0.61194400  0.89074700  1
  Ni  Ni0  1  0.88189200  0.85341400  0.11726800  1
  Ni  Ni1  1  0.38189200  0.64658600  0.11726800  1
  Ni  Ni2  1  0.88189200  0.35341400  0.38273200  1
  Ni  Ni3  1  0.38189200  0.14658600  0.38273200  1
  Ni  Ni4  1  0.61810800  0.85341400  0.61726800  1
  Ni  Ni5  1  0.11810800  0.64658600  0.61726800  1
  Ni  Ni6  1  0.61810800  0.35341400  0.88273200  1
  Ni  Ni7  1  0.11810800  0.14658600  0.88273200  1
  O  O0  1  0.51445000  0.74837800  0.00618600  1
  O  O1  1  0.01445000  0.75162200  0.00618600  1
  O  O2  1  0.75554900  0.99215100  0.03532000  1
  O  O3  1  0.25554900  0.50784900  0.03532000  1
  O  O4  1  0.99930700  0.96582100  0.24537500  1
  O  O5  1  0.49930700  0.53417900  0.24537500  1
  O  O6  1  0.76103500  0.75211600  0.24592300  1
  O  O7  1  0.26103500  0.74788400  0.24592300  1
  O  O8  1  0.76103500  0.25211600  0.25407700  1
  O  O9  1  0.26103500  0.24788400  0.25407700  1
  O  O10  1  0.99930700  0.46582100  0.25462500  1
  O  O11  1  0.49930700  0.03417900  0.25462500  1
  O  O12  1  0.75554900  0.49215100  0.46468000  1
  O  O13  1  0.25554900  0.00784900  0.46468000  1
  O  O14  1  0.51445000  0.24837800  0.49381400  1
  O  O15  1  0.01445000  0.25162200  0.49381400  1
  O  O16  1  0.98555000  0.74837800  0.50618600  1
  O  O17  1  0.48555000  0.75162200  0.50618600  1
  O  O18  1  0.74445100  0.99215100  0.53532000  1
  O  O19  1  0.24445100  0.50784900  0.53532000  1
  O  O20  1  0.50069300  0.96582100  0.74537500  1
  O  O21  1  0.00069300  0.53417900  0.74537500  1
  O  O22  1  0.73896500  0.75211600  0.74592300  1
  O  O23  1  0.23896500  0.74788400  0.74592300  1
  O  O24  1  0.73896500  0.25211600  0.75407700  1
  O  O25  1  0.23896500  0.24788400  0.75407700  1
  O  O26  1  0.50069300  0.46582100  0.75462500  1
  O  O27  1  0.00069300  0.03417900  0.75462500  1
  O  O28  1  0.24445100  0.00784900  0.96468000  1
  O  O29  1  0.74445100  0.49215100  0.96468000  1
  O  O30  1  0.98555000  0.24837800  0.99381400  1
  O  O31  1  0.48555000  0.25162200  0.99381400  1
loop_
_geom_bond_atom_site_label_1
_geom_bond_atom_site_label_2
_geom_bond_distance
_geom_bond_site_symmetry_2
Li0 O29 1.924628 1_554
Li0 O10 1.991749 1_555
Li0 O8 2.016799 1_555
Li0 O30 2.031904 1_554
Li1 O28 1.924628 1_554
Li1 O11 1.991749 1_555
Li1 O9 2.016799 1_555
Li1 O31 2.031904 1_554
Li2 O28 1.933158 1_564
Li2 O7 1.980413 1_555
Li2 O4 1.990899 1_455
Li2 O1 2.095637 1_555
Li3 O29 1.933158 1_554
Li3 O6 1.980413 1_555
Li3 O5 1.990899 1_555
Li3 O0 2.095637 1_555
Li4 O31 1.960368 1_554
Li4 O8 1.985310 1_555
Li4 O11 1.991627 1_555
Li4 O2 2.002105 1_545
Li5 O30 1.960368 1_454
Li5 O9 1.985310 1_555
Li5 O10 1.991627 1_455
Li5 O3 2.002105 1_555
Li6 O4 1.940604 1_545
Li6 O8 1.963280 1_555
Li6 O30 1.987248 1_554
Li6 O2 2.033088 1_545
Li7 O5 1.940604 1_555
Li7 O9 1.963280 1_555
Li7 O31 1.987248 1_554
Li7 O3 2.033088 1_555
Li8 O11 1.925609 1_565
Li8 O0 2.012326 1_555
Li8 O6 2.017444 1_555
Li8 O2 2.029638 1_555
Li9 O10 1.925609 1_455
Li9 O1 2.012326 1_555
Li9 O7 2.017444 1_555
Li9 O3 2.029638 1_555
Li10 O4 1.925609 1_445
Li10 O15 2.012326 1_555
Li10 O9 2.017444 1_555
Li10 O13 2.029638 1_555
Li11 O5 1.925609 1_555
Li11 O14 2.012326 1_555
Li11 O8 2.017444 1_555
Li11 O12 2.029638 1_555
Li12 O10 1.940604 1_555
Li12 O6 1.963280 1_555
Li12 O16 1.987248 1_555
Li12 O12 2.033088 1_555
Li13 O11 1.940604 1_565
Li13 O7 1.963280 1_555
Li13 O17 1.987248 1_555
Li13 O13 2.033088 1_565
Li14 O17 1.960368 1_555
Li14 O6 1.985310 1_555
Li14 O5 1.991627 1_555
Li14 O12 2.002105 1_555
Li15 O16 1.960368 1_455
Li15 O7 1.985310 1_555
Li15 O4 1.991627 1_455
Li15 O13 2.002105 1_565
Li16 O18 1.933158 1_545
Li16 O8 1.980413 1_555
Li16 O11 1.990899 1_555
Li16 O14 2.095637 1_555
Li17 O19 1.933158 1_555
Li17 O9 1.980413 1_555
Li17 O10 1.990899 1_455
Li17 O15 2.095637 1_555
Li18 O18 1.924628 1_555
Li18 O4 1.991749 1_555
Li18 O6 2.016799 1_555
Li18 O16 2.031904 1_555
Li19 O19 1.924628 1_555
Li19 O5 1.991749 1_555
Li19 O7 2.016799 1_555
Li19 O17 2.031904 1_555
Li20 O12 1.924628 1_555
Li20 O26 1.991749 1_555
Li20 O24 2.016799 1_555
Li20 O14 2.031904 1_555
Li21 O13 1.924628 1_555
Li21 O27 1.991749 1_555
Li21 O25 2.016799 1_555
Li21 O15 2.031904 1_555
Li22 O13 1.933158 1_565
Li22 O23 1.980413 1_555
Li22 O20 1.990899 1_555
Li22 O17 2.095637 1_555
Li23 O12 1.933158 1_555
Li23 O22 1.980413 1_555
Li23 O21 1.990899 1_655
Li23 O16 2.095637 1_555
Li24 O14 1.960368 1_555
Li24 O25 1.985310 1_555
Li24 O26 1.991627 1_555
Li24 O19 2.002105 1_555
Li25 O15 1.960368 1_655
Li25 O24 1.985310 1_555
Li25 O27 1.991627 1_655
Li25 O18 2.002105 1_545
Li26 O21 1.940604 1_555
Li26 O25 1.963280 1_555
Li26 O15 1.987248 1_555
Li26 O19 2.033088 1_555
Li27 O20 1.940604 1_545
Li27 O24 1.963280 1_555
Li27 O14 1.987248 1_555
Li27 O18 2.033088 1_545
Li28 O27 1.925609 1_665
Li28 O16 2.012326 1_555
Li28 O22 2.017444 1_555
Li28 O18 2.029638 1_555
Li29 O26 1.925609 1_555
Li29 O17 2.012326 1_555
Li29 O23 2.017444 1_555
Li29 O19 2.029638 1_555
Li30 O21 1.925609 1_655
Li30 O30 2.012326 1_555
Li30 O24 2.017444 1_555
Li30 O29 2.029638 1_555
Li31 O20 1.925609 1_545
Li31 O31 2.012326 1_555
Li31 O25 2.017444 1_555
Li31 O28 2.029638 1_555
Li32 O26 1.940604 1_555
Li32 O22 1.963280 1_555
Li32 O0 1.987248 1_556
Li32 O29 2.033088 1_555
Li33 O27 1.940604 1_565
Li33 O23 1.963280 1_555
Li33 O1 1.987248 1_556
Li33 O28 2.033088 1_565
Li34 O0 1.960368 1_556
Li34 O23 1.985310 1_555
Li34 O20 1.991627 1_555
Li34 O28 2.002105 1_565
Li35 O1 1.960368 1_656
Li35 O22 1.985310 1_555
Li35 O21 1.991627 1_655
Li35 O29 2.002105 1_555
Li36 O3 1.933158 1_556
Li36 O25 1.980413 1_555
Li36 O26 1.990899 1_555
Li36 O31 2.095637 1_555
Li37 O2 1.933158 1_546
Li37 O24 1.980413 1_555
Li37 O27 1.990899 1_655
Li37 O30 2.095637 1_555
Li38 O2 1.924628 1_556
Li38 O20 1.991749 1_555
Li38 O22 2.016799 1_555
Li38 O0 2.031904 1_556
Li39 O3 1.924628 1_556
Li39 O21 1.991749 1_555
Li39 O23 2.016799 1_555
Li39 O1 2.031904 1_556
Ni0 O1 1.831604 1_655
Ni0 O6 1.859504 1_555
Ni0 O2 1.868807 1_555
Ni0 O4 1.891371 1_555
Ni1 O0 1.831604 1_555
Ni1 O7 1.859504 1_555
Ni1 O3 1.868807 1_555
Ni1 O5 1.891371 1_555
Ni2 O15 1.831604 1_655
Ni2 O8 1.859504 1_555
Ni2 O12 1.868807 1_555
Ni2 O10 1.891371 1_555
Ni3 O14 1.831604 1_555
Ni3 O9 1.859504 1_555
Ni3 O13 1.868807 1_555
Ni3 O11 1.891371 1_555
Ni4 O17 1.831604 1_555
Ni4 O22 1.859504 1_555
Ni4 O18 1.868807 1_555
Ni4 O20 1.891371 1_555
Ni5 O16 1.831604 1_455
Ni5 O23 1.859504 1_555
Ni5 O19 1.868807 1_555
Ni5 O21 1.891371 1_555
Ni6 O31 1.831604 1_555
Ni6 O24 1.859504 1_555
Ni6 O29 1.868807 1_555
Ni6 O26 1.891371 1_555
Ni7 O30 1.831604 1_455
Ni7 O25 1.859504 1_555
Ni7 O28 1.868807 1_555
Ni7 O27 1.891371 1_555
