# generated using pymatgen
data_Fe4OF7
_symmetry_space_group_name_H-M   'P 1'
_cell_length_a   7.61096292
_cell_length_b   7.61096292
_cell_length_c   6.68309800
_cell_angle_alpha   90.00000000
_cell_angle_beta   90.00000000
_cell_angle_gamma   129.13287822
_symmetry_Int_Tables_number   1
_chemical_formula_structural   Fe4OF7
_chemical_formula_sum   'Fe8 O2 F14'
_cell_volume   300.29084082
_cell_formula_units_Z   2
loop_
 _symmetry_equiv_pos_site_id
 _symmetry_equiv_pos_as_xyz
  1  'x, y, z'
loop_
 _atom_site_type_symbol
 _atom_site_label
 _atom_site_symmetry_multiplicity
 _atom_site_fract_x
 _atom_site_fract_y
 _atom_site_fract_z
 _atom_site_occupancy
  Fe  Fe0  1  0.12591800  0.87408200  0.00683000  1
  Fe  Fe1  1  0.62484500  0.37515500  0.97466200  1
  Fe  Fe2  1  0.38370200  0.13374900  0.50844000  1
  Fe  Fe3  1  0.86625100  0.61629800  0.50844000  1
  Fe  Fe4  1  0.61629800  0.86625100  0.00844000  1
  Fe  Fe5  1  0.13374900  0.38370200  0.00844000  1
  Fe  Fe6  1  0.87408200  0.12591800  0.50683000  1
  Fe  Fe7  1  0.37515500  0.62484500  0.47466200  1
  O  O0  1  0.62543000  0.37457000  0.70117800  1
  O  O1  1  0.37457000  0.62543000  0.20117800  1
  F  F0  1  0.76913000  0.71193600  0.00148100  1
  F  F1  1  0.28806400  0.23087000  0.00148100  1
  F  F2  1  0.12535600  0.87464400  0.70613200  1
  F  F3  1  0.12456300  0.87543700  0.30751200  1
  F  F4  1  0.87543700  0.12456300  0.80751200  1
  F  F5  1  0.37448100  0.62551900  0.77972900  1
  F  F6  1  0.62551900  0.37448100  0.27972900  1
  F  F7  1  0.48450700  0.04076800  0.00205800  1
  F  F8  1  0.95923200  0.51549300  0.00205800  1
  F  F9  1  0.71193600  0.76913000  0.50148100  1
  F  F10  1  0.23087000  0.28806400  0.50148100  1
  F  F11  1  0.04076800  0.48450700  0.50205800  1
  F  F12  1  0.51549300  0.95923200  0.50205800  1
  F  F13  1  0.87464400  0.12535600  0.20613200  1
loop_
_geom_bond_atom_site_label_1
_geom_bond_atom_site_label_2
_geom_bond_distance
_geom_bond_site_symmetry_2
Fe1 O0 1.827738 1_555
Fe2 O0 2.036421 1_555
Fe3 O0 2.036421 1_555
Fe4 O1 2.036421 1_555
Fe5 O1 2.036421 1_555
Fe7 O1 1.827738 1_555
F0 Fe1 2.062820 1_554
F0 Fe4 2.111643 1_555
F0 Fe0 2.160604 1_655
F1 Fe1 2.062820 1_554
F1 Fe5 2.111643 1_555
F1 Fe0 2.160604 1_545
F2 Fe0 2.009609 1_556
F2 Fe2 2.146224 1_565
F2 Fe3 2.146224 1_455
F3 Fe0 2.009574 1_555
F3 Fe3 2.159606 1_455
F3 Fe2 2.159606 1_565
F4 Fe6 2.009574 1_555
F4 Fe4 2.159606 1_546
F4 Fe5 2.159606 1_656
F5 Fe7 2.038814 1_555
F5 Fe4 2.196398 1_556
F5 Fe5 2.196398 1_556
F6 Fe1 2.038814 1_554
F6 Fe2 2.196398 1_555
F6 Fe3 2.196398 1_555
F7 Fe1 2.054320 1_554
F7 Fe4 2.110416 1_545
F7 Fe0 2.165335 1_545
F8 Fe1 2.054320 1_554
F8 Fe5 2.110416 1_655
F8 Fe0 2.165335 1_655
F9 Fe7 2.062820 1_555
F9 Fe3 2.111643 1_555
F9 Fe6 2.160604 1_565
F10 Fe7 2.062820 1_555
F10 Fe2 2.111643 1_555
F10 Fe6 2.160604 1_455
F11 Fe7 2.054320 1_555
F11 Fe3 2.110416 1_455
F11 Fe6 2.165335 1_455
F12 Fe7 2.054320 1_555
F12 Fe2 2.110416 1_565
F12 Fe6 2.165335 1_565
F13 Fe6 2.009609 1_555
F13 Fe4 2.146224 1_545
F13 Fe5 2.146224 1_655
