# generated using pymatgen
data_Ti3Nb2Cr(PO4)6
_symmetry_space_group_name_H-M   'P 1'
_cell_length_a   8.63732098
_cell_length_b   8.63732098
_cell_length_c   8.63731998
_cell_angle_alpha   60.55716725
_cell_angle_beta   60.55716725
_cell_angle_gamma   60.55716350
_symmetry_Int_Tables_number   1
_chemical_formula_structural   Ti3Nb2Cr(PO4)6
_chemical_formula_sum   'Ti3 Nb2 Cr1 P6 O24'
_cell_volume   461.37552688
_cell_formula_units_Z   1
loop_
 _symmetry_equiv_pos_site_id
 _symmetry_equiv_pos_as_xyz
  1  'x, y, z'
loop_
 _atom_site_type_symbol
 _atom_site_label
 _atom_site_symmetry_multiplicity
 _atom_site_fract_x
 _atom_site_fract_y
 _atom_site_fract_z
 _atom_site_occupancy
  Ti  Ti0  1  0.14319800  0.14319800  0.14319800  1
  Ti  Ti1  1  0.35785100  0.35785100  0.35785100  1
  Ti  Ti2  1  0.64100700  0.64100700  0.64100700  1
  Nb  Nb0  1  0.00208200  0.00208200  0.00208200  1
  Nb  Nb1  1  0.50006100  0.50006100  0.50006100  1
  Cr  Cr0  1  0.85600100  0.85600100  0.85600100  1
  P  P0  1  0.74931500  0.03910400  0.46214000  1
  P  P1  1  0.03910400  0.46214000  0.74931500  1
  P  P2  1  0.54246300  0.24623300  0.96127600  1
  P  P3  1  0.96127600  0.54246300  0.24623300  1
  P  P4  1  0.24623300  0.96127600  0.54246300  1
  P  P5  1  0.46214000  0.74931500  0.03910400  1
  O  O0  1  0.30915100  0.11812800  0.50291100  1
  O  O1  1  0.50291100  0.30915100  0.11812800  1
  O  O2  1  0.91199300  0.05798900  0.26580100  1
  O  O3  1  0.11812800  0.50291100  0.30915100  1
  O  O4  1  0.80751500  0.00825200  0.61639600  1
  O  O5  1  0.58819800  0.23594300  0.43997300  1
  O  O6  1  0.05798900  0.26580100  0.91199300  1
  O  O7  1  0.23594200  0.43997300  0.58819800  1
  O  O8  1  0.38372300  0.18574600  0.99996000  1
  O  O9  1  0.43997300  0.58819800  0.23594300  1
  O  O10  1  0.73792000  0.08657700  0.94345700  1
  O  O11  1  0.99996000  0.38372300  0.18574600  1
  O  O12  1  0.00825200  0.61639600  0.80751500  1
  O  O13  1  0.26580100  0.91199300  0.05798900  1
  O  O14  1  0.55731800  0.40834000  0.76660300  1
  O  O15  1  0.61639600  0.80751500  0.00825200  1
  O  O16  1  0.76660300  0.55731800  0.40834000  1
  O  O17  1  0.94345700  0.73792000  0.08657700  1
  O  O18  1  0.40834000  0.76660300  0.55731800  1
  O  O19  1  0.18574600  0.99996000  0.38372300  1
  O  O20  1  0.88302200  0.49592900  0.68842100  1
  O  O21  1  0.08657700  0.94345700  0.73792000  1
  O  O22  1  0.49592900  0.68842100  0.88302200  1
  O  O23  1  0.68842100  0.88302200  0.49592900  1
loop_
_geom_bond_atom_site_label_1
_geom_bond_atom_site_label_2
_geom_bond_distance
_geom_bond_site_symmetry_2
Nb0 O2 2.235308 1_455
Nb0 O13 2.235308 1_545
Nb0 O6 2.235308 1_554
Nb0 O21 2.265047 1_544
Nb0 O10 2.265047 1_454
Nb0 O17 2.265047 1_445
Nb1 O14 2.261293 1_555
Nb1 O18 2.261293 1_555
Nb1 O16 2.261293 1_555
Nb1 O9 2.263033 1_555
Nb1 O5 2.263034 1_555
Nb1 O7 2.263042 1_555
Cr0 O4 1.955200 1_565
Cr0 O12 1.955200 1_655
Cr0 O15 1.955200 1_556
Cr0 O17 2.074079 1_556
Cr0 O10 2.074079 1_565
Cr0 O21 2.074079 1_655
O0 P4 1.527663 1_545
O0 Ti1 1.954909 1_555
O1 P2 1.527663 1_554
O1 Ti1 1.954909 1_555
O2 P0 1.577210 1_555
O2 Ti0 2.061729 1_655
O3 P3 1.527663 1_455
O3 Ti1 1.954909 1_555
O4 P0 1.508841 1_555
O5 P0 1.574712 1_555
O5 Ti1 2.040553 1_555
O6 P1 1.577210 1_555
O6 Ti0 2.061729 1_556
O7 P1 1.574707 1_555
O7 Ti1 2.040552 1_555
O8 P2 1.531894 1_555
O8 Ti0 1.938665 1_556
O9 P5 1.574712 1_555
O9 Ti1 2.040553 1_555
O10 P2 1.562019 1_555
O11 P3 1.531894 1_555
O11 Ti0 1.938665 1_655
O12 P1 1.508841 1_555
O13 P5 1.577210 1_555
O13 Ti0 2.061729 1_565
O14 P2 1.566584 1_555
O14 Ti2 2.062005 1_555
O15 P5 1.508841 1_555
O16 P3 1.566585 1_555
O16 Ti2 2.062005 1_555
O17 P3 1.562019 1_555
O18 P4 1.566585 1_555
O18 Ti2 2.062005 1_555
O19 P4 1.531894 1_555
O19 Ti0 1.938665 1_565
O20 P1 1.529262 1_655
O20 Ti2 1.967101 1_555
O21 P4 1.562019 1_555
O22 P5 1.529262 1_556
O22 Ti2 1.967101 1_555
O23 P0 1.529263 1_565
O23 Ti2 1.967101 1_555
