# generated using pymatgen
data_LiMn2(BO3)2
_symmetry_space_group_name_H-M   'P 1'
_cell_length_a   5.29549800
_cell_length_b   5.77968581
_cell_length_c   13.42474048
_cell_angle_alpha   97.50300844
_cell_angle_beta   90.99392571
_cell_angle_gamma   113.72457966
_symmetry_Int_Tables_number   1
_chemical_formula_structural   LiMn2(BO3)2
_chemical_formula_sum   'Li3 Mn6 B6 O18'
_cell_volume   371.83054269
_cell_formula_units_Z   3
loop_
 _symmetry_equiv_pos_site_id
 _symmetry_equiv_pos_as_xyz
  1  'x, y, z'
loop_
 _atom_site_type_symbol
 _atom_site_label
 _atom_site_symmetry_multiplicity
 _atom_site_fract_x
 _atom_site_fract_y
 _atom_site_fract_z
 _atom_site_occupancy
  Li  Li0  1  0.09030600  0.98131400  0.31083500  1
  Li  Li1  1  0.58368000  0.35533500  0.01868900  1
  Li  Li2  1  0.91902600  0.02096500  0.68593900  1
  Mn  Mn0  1  0.56065300  0.94109800  0.19801800  1
  Mn  Mn1  1  0.10135900  0.37991200  0.13082000  1
  Mn  Mn2  1  0.75692800  0.70474400  0.45584800  1
  Mn  Mn3  1  0.22981800  0.28974400  0.53642200  1
  Mn  Mn4  1  0.90268900  0.62614500  0.87082000  1
  Mn  Mn5  1  0.43454100  0.05396700  0.79666900  1
  B  B0  1  0.34240900  0.83966700  0.58130200  1
  B  B1  1  0.99031200  0.82954600  0.09225800  1
  B  B2  1  0.67440600  0.49616000  0.23931900  1
  B  B3  1  0.32703400  0.50093600  0.75841400  1
  B  B4  1  0.00199000  0.16546900  0.91343500  1
  B  B5  1  0.66067700  0.16527600  0.41639300  1
  O  O0  1  0.11313300  0.89623900  0.56819500  1
  O  O1  1  0.18831300  0.73608200  0.11261800  1
  O  O2  1  0.99234800  0.03009900  0.16763100  1
  O  O3  1  0.53240200  0.94814100  0.66344500  1
  O  O4  1  0.79740600  0.72330900  0.01487700  1
  O  O5  1  0.39368500  0.67464800  0.50682600  1
  O  O6  1  0.45454300  0.55833600  0.22371900  1
  O  O7  1  0.31589100  0.70519100  0.82574200  1
  O  O8  1  0.86678600  0.61506200  0.32006700  1
  O  O9  1  0.13806800  0.38201300  0.67950500  1
  O  O10  1  0.71217200  0.32521200  0.16181700  1
  O  O11  1  0.52859000  0.41424400  0.78360400  1
  O  O12  1  0.65339200  0.36003800  0.48906200  1
  O  O13  1  0.19351900  0.25679300  0.99461700  1
  O  O14  1  0.47096200  0.06850100  0.33691400  1
  O  O15  1  0.03942000  0.00815700  0.83070300  1
  O  O16  1  0.77726600  0.23060000  0.90705500  1
  O  O17  1  0.86737200  0.07145200  0.43132600  1
loop_
_geom_bond_atom_site_label_1
_geom_bond_atom_site_label_2
_geom_bond_distance
_geom_bond_site_symmetry_2
Li0 O14 1.884642 1_565
Li0 O8 1.988652 1_455
Li0 O2 2.066197 1_465
Li0 O17 2.150041 1_465
Li1 O13 1.918188 1_554
Li1 O4 1.974905 1_555
Li1 O16 2.045104 1_554
Li1 O10 2.079091 1_555
Li2 O3 1.926653 1_545
Li2 O9 1.951983 1_655
Li2 O15 2.054601 1_655
Li2 O0 2.104716 1_645
Mn0 O14 2.048966 1_565
Mn0 O1 2.071940 1_555
Mn0 O6 2.129459 1_555
Mn0 O10 2.161146 1_565
Mn0 O2 2.190411 1_565
Mn1 O1 1.970251 1_555
Mn1 O2 1.999206 1_455
Mn1 O13 2.014577 1_554
Mn1 O10 2.015041 1_455
Mn1 O6 2.036663 1_555
Mn2 O12 1.957079 1_555
Mn2 O8 1.990598 1_555
Mn2 O5 2.001546 1_555
Mn2 O17 2.033214 1_565
Mn2 O0 2.200729 1_655
Mn3 O9 2.045356 1_555
Mn3 O5 2.132892 1_555
Mn3 O17 2.181474 1_455
Mn3 O0 2.206355 1_545
Mn3 O12 2.232518 1_555
Mn4 O4 2.090933 1_556
Mn4 O11 2.094770 1_555
Mn4 O7 2.162522 1_655
Mn4 O15 2.174128 1_665
Mn4 O16 2.232475 1_555
Mn5 O7 1.950749 1_545
Mn5 O3 1.960334 1_545
Mn5 O11 1.969426 1_555
Mn5 O15 2.067804 1_555
Mn5 O16 2.133727 1_555
B0 O3 1.376499 1_555
B0 O0 1.392494 1_555
B0 O5 1.397069 1_555
B1 O4 1.338496 1_555
B1 O1 1.396526 1_655
B1 O2 1.432073 1_565
B2 O6 1.369826 1_555
B2 O8 1.374407 1_555
B2 O10 1.412965 1_555
B3 O9 1.347431 1_555
B3 O11 1.402388 1_555
B3 O7 1.411856 1_555
B4 O13 1.369560 1_555
B4 O16 1.389445 1_455
B4 O15 1.410122 1_555
B5 O14 1.347362 1_555
B5 O12 1.403491 1_555
B5 O17 1.425022 1_555
