# generated using pymatgen
data_Co(NO6)2
_symmetry_space_group_name_H-M   'P 1'
_cell_length_a   8.73390375
_cell_length_b   8.73390375
_cell_length_c   12.40479391
_cell_angle_alpha   61.19556095
_cell_angle_beta   61.19556095
_cell_angle_gamma   41.34588976
_symmetry_Int_Tables_number   1
_chemical_formula_structural   Co(NO6)2
_chemical_formula_sum   'Co2 N4 O24'
_cell_volume   535.83373548
_cell_formula_units_Z   2
loop_
 _symmetry_equiv_pos_site_id
 _symmetry_equiv_pos_as_xyz
  1  'x, y, z'
loop_
 _atom_site_type_symbol
 _atom_site_label
 _atom_site_symmetry_multiplicity
 _atom_site_fract_x
 _atom_site_fract_y
 _atom_site_fract_z
 _atom_site_occupancy
  Co  Co0  1  0.00000000  0.50000000  0.50000000  1
  Co  Co1  1  0.50000000  0.00000000  0.00000000  1
  N  N0  1  0.76638200  0.30658400  0.35977400  1
  N  N1  1  0.69341600  0.23361800  0.14022600  1
  N  N2  1  0.23361800  0.69341600  0.64022600  1
  N  N3  1  0.30658400  0.76638200  0.85977400  1
  O  O0  1  0.10662800  0.64074900  0.44592000  1
  O  O1  1  0.35925100  0.89337200  0.05408000  1
  O  O2  1  0.89337200  0.35925100  0.55408000  1
  O  O3  1  0.64074900  0.10662800  0.94592000  1
  O  O4  1  0.19794900  0.29866700  0.39804900  1
  O  O5  1  0.70133300  0.80205100  0.10195100  1
  O  O6  1  0.80205100  0.70133300  0.60195100  1
  O  O7  1  0.29866700  0.19794900  0.89804900  1
  O  O8  1  0.27526500  0.26241000  0.06045500  1
  O  O9  1  0.73759000  0.72473500  0.43954500  1
  O  O10  1  0.72473500  0.73759000  0.93954500  1
  O  O11  1  0.26241000  0.27526500  0.56045500  1
  O  O12  1  0.81845500  0.28513700  0.07947700  1
  O  O13  1  0.71486300  0.18154500  0.42052300  1
  O  O14  1  0.18154500  0.71486300  0.92052300  1
  O  O15  1  0.28513700  0.81845500  0.57947700  1
  O  O16  1  0.60497000  0.52695100  0.34017400  1
  O  O17  1  0.47304900  0.39503000  0.15982600  1
  O  O18  1  0.39503000  0.47304900  0.65982600  1
  O  O19  1  0.52695100  0.60497000  0.84017400  1
  O  O20  1  0.97916200  0.20841300  0.31934200  1
  O  O21  1  0.79158700  0.02083800  0.18065800  1
  O  O22  1  0.02083800  0.79158700  0.68065800  1
  O  O23  1  0.20841300  0.97916200  0.81934200  1
loop_
_geom_bond_atom_site_label_1
_geom_bond_atom_site_label_2
_geom_bond_distance
_geom_bond_site_symmetry_2
Co0 O2 1.775006 1_455
Co0 O0 1.775006 1_555
Co0 O9 1.775134 1_455
Co0 O11 1.775134 1_555
Co0 O4 1.775354 1_555
Co0 O6 1.775354 1_455
Co1 O1 1.775006 1_545
Co1 O3 1.775006 1_554
Co1 O8 1.775134 1_555
Co1 O10 1.775134 1_544
Co1 O5 1.775354 1_545
Co1 O7 1.775354 1_554
N0 O16 1.247505 1_555
N0 O20 1.250639 1_555
N0 O13 1.257376 1_555
N1 O17 1.247505 1_555
N1 O21 1.250639 1_555
N1 O12 1.257376 1_555
N2 O18 1.247505 1_555
N2 O22 1.250639 1_555
N2 O15 1.257376 1_555
N3 O19 1.247505 1_555
N3 O23 1.250639 1_555
N3 O14 1.257376 1_555
