# generated using pymatgen
data_Li4Fe3Co2Ni3O16
_symmetry_space_group_name_H-M   'P 1'
_cell_length_a   5.81317324
_cell_length_b   5.81317324
_cell_length_c   9.28840466
_cell_angle_alpha   89.74638075
_cell_angle_beta   89.74638075
_cell_angle_gamma   60.26914610
_symmetry_Int_Tables_number   1
_chemical_formula_structural   Li4Fe3Co2Ni3O16
_chemical_formula_sum   'Li4 Fe3 Co2 Ni3 O16'
_cell_volume   272.56122534
_cell_formula_units_Z   1
loop_
 _symmetry_equiv_pos_site_id
 _symmetry_equiv_pos_as_xyz
  1  'x, y, z'
loop_
 _atom_site_type_symbol
 _atom_site_label
 _atom_site_symmetry_multiplicity
 _atom_site_fract_x
 _atom_site_fract_y
 _atom_site_fract_z
 _atom_site_occupancy
  Li  Li0  1  0.32926800  0.32926800  0.10573500  1
  Li  Li1  1  0.00602000  0.00602000  0.00749700  1
  Li  Li2  1  0.00569100  0.00569100  0.50568700  1
  Li  Li3  1  0.66381700  0.66381700  0.59917700  1
  Fe  Fe0  1  0.65919400  0.16882400  0.78742000  1
  Fe  Fe1  1  0.16882400  0.65919400  0.78742000  1
  Fe  Fe2  1  0.83107500  0.83107500  0.28664900  1
  Co  Co0  1  0.33353000  0.33353000  0.51427700  1
  Co  Co1  1  0.66370200  0.66370200  0.01801300  1
  Ni  Ni0  1  0.17240300  0.17240300  0.78913200  1
  Ni  Ni1  1  0.82807800  0.34281000  0.28742700  1
  Ni  Ni2  1  0.34281000  0.82807800  0.28742700  1
  O  O0  1  0.66551300  0.16913100  0.40220000  1
  O  O1  1  0.47737700  0.47737700  0.65099300  1
  O  O2  1  0.32965700  0.32965700  0.89698700  1
  O  O3  1  0.00801500  0.00801500  0.69850300  1
  O  O4  1  0.00931100  0.00931100  0.20018300  1
  O  O5  1  0.16913100  0.66551300  0.40220000  1
  O  O6  1  0.48039100  0.04142900  0.64903900  1
  O  O7  1  0.04142900  0.48039100  0.64903900  1
  O  O8  1  0.83029000  0.83029000  0.90427000  1
  O  O9  1  0.17437600  0.17437600  0.40426900  1
  O  O10  1  0.95290000  0.51838300  0.15280200  1
  O  O11  1  0.51838300  0.95290000  0.15280200  1
  O  O12  1  0.65997400  0.65997400  0.39053900  1
  O  O13  1  0.82485400  0.34316400  0.90517300  1
  O  O14  1  0.51808700  0.51808700  0.15202400  1
  O  O15  1  0.34316400  0.82485400  0.90517300  1
loop_
_geom_bond_atom_site_label_1
_geom_bond_atom_site_label_2
_geom_bond_distance
_geom_bond_site_symmetry_2
Li0 O2 1.938920 1_554
Li0 O10 1.948510 1_455
Li0 O11 1.948510 1_545
Li0 O14 1.948800 1_555
Li1 O4 1.790221 1_555
Li1 O13 1.949024 1_454
Li1 O15 1.949024 1_544
Li1 O8 2.014659 1_444
Li2 O3 1.791225 1_555
Li2 O9 1.935948 1_555
Li2 O0 1.970387 1_455
Li2 O5 1.970387 1_545
Li3 O1 1.933068 1_555
Li3 O12 1.938497 1_555
Li3 O6 1.962932 1_565
Li3 O7 1.962932 1_655
Fe0 O3 1.944134 1_655
Fe0 O2 1.947897 1_555
Fe0 O1 2.012840 1_555
Fe0 O6 2.016100 1_555
Fe0 O8 2.022210 1_545
Fe0 O13 2.034192 1_555
Fe1 O3 1.944134 1_565
Fe1 O2 1.947897 1_555
Fe1 O1 2.012840 1_555
Fe1 O7 2.016100 1_555
Fe1 O8 2.022210 1_455
Fe1 O15 2.034192 1_555
Fe2 O4 1.960141 1_665
Fe2 O12 1.968259 1_555
Fe2 O0 2.018347 1_565
Fe2 O5 2.018347 1_655
Fe2 O10 2.021557 1_555
Fe2 O11 2.021557 1_555
Co0 O9 1.903094 1_555
Co0 O1 1.929615 1_555
Co0 O7 1.931781 1_555
Co0 O6 1.931781 1_555
Co0 O0 1.970574 1_555
Co0 O5 1.970574 1_555
Co1 O14 1.916903 1_555
Co1 O11 1.925622 1_555
Co1 O10 1.925622 1_555
Co1 O15 1.930130 1_554
Co1 O13 1.930130 1_554
Co1 O8 1.975814 1_554
Ni0 O3 1.858772 1_555
Ni0 O2 1.876165 1_555
Ni0 O6 2.028424 1_555
Ni0 O7 2.028424 1_555
Ni0 O15 2.056689 1_545
Ni0 O13 2.056689 1_455
Ni1 O12 1.868655 1_555
Ni1 O4 1.872336 1_655
Ni1 O10 1.961393 1_555
Ni1 O0 1.994186 1_555
Ni1 O14 2.013658 1_555
Ni1 O9 2.060089 1_655
Ni2 O12 1.868655 1_555
Ni2 O4 1.872336 1_565
Ni2 O11 1.961393 1_555
Ni2 O5 1.994186 1_555
Ni2 O14 2.013658 1_555
Ni2 O9 2.060089 1_565
