# generated using pymatgen
data_Li4Ti3V3(FeO8)2
_symmetry_space_group_name_H-M   'P 1'
_cell_length_a   5.90953500
_cell_length_b   5.94335048
_cell_length_c   9.63465899
_cell_angle_alpha   90.02400979
_cell_angle_beta   90.29833649
_cell_angle_gamma   119.69191505
_symmetry_Int_Tables_number   1
_chemical_formula_structural   Li4Ti3V3(FeO8)2
_chemical_formula_sum   'Li4 Ti3 V3 Fe2 O16'
_cell_volume   293.95649180
_cell_formula_units_Z   1
loop_
 _symmetry_equiv_pos_site_id
 _symmetry_equiv_pos_as_xyz
  1  'x, y, z'
loop_
 _atom_site_type_symbol
 _atom_site_label
 _atom_site_symmetry_multiplicity
 _atom_site_fract_x
 _atom_site_fract_y
 _atom_site_fract_z
 _atom_site_occupancy
  Li  Li0  1  0.66806500  0.33705100  0.89434500  1
  Li  Li1  1  0.99722800  0.99647900  0.99448800  1
  Li  Li2  1  0.00199200  0.00450300  0.49704700  1
  Li  Li3  1  0.33285700  0.66524500  0.39380800  1
  Ti  Ti0  1  0.34085400  0.17324700  0.21645900  1
  Ti  Ti1  1  0.83284900  0.17381400  0.21651100  1
  Ti  Ti2  1  0.17011600  0.34193000  0.72161700  1
  V  V0  1  0.82993300  0.66026200  0.21051900  1
  V  V1  1  0.65897100  0.83267500  0.70933600  1
  V  V2  1  0.18135100  0.83681800  0.71057200  1
  Fe  Fe0  1  0.67089000  0.33741000  0.49315100  1
  Fe  Fe1  1  0.33417000  0.66998700  0.99306200  1
  O  O0  1  0.33175100  0.16353600  0.60255300  1
  O  O1  1  0.52010000  0.03793300  0.33492100  1
  O  O2  1  0.65461500  0.31120100  0.10165300  1
  O  O3  1  0.00604200  0.01012200  0.31063800  1
  O  O4  1  0.01052900  0.00693500  0.80870100  1
  O  O5  1  0.83514400  0.16475200  0.60243400  1
  O  O6  1  0.51363200  0.47328700  0.33855700  1
  O  O7  1  0.96093200  0.47276400  0.33814100  1
  O  O8  1  0.16280000  0.32749800  0.10196100  1
  O  O9  1  0.84799000  0.67905100  0.60366600  1
  O  O10  1  0.03788200  0.51740800  0.83686900  1
  O  O11  1  0.47926600  0.51934000  0.83810700  1
  O  O12  1  0.31404200  0.64812700  0.59938700  1
  O  O13  1  0.16473200  0.83789100  0.10227100  1
  O  O14  1  0.46855400  0.96208700  0.83559800  1
  O  O15  1  0.67241100  0.83864400  0.10147000  1
loop_
_geom_bond_atom_site_label_1
_geom_bond_atom_site_label_2
_geom_bond_distance
_geom_bond_site_symmetry_2
Li0 O11 1.975821 1_555
Li0 O10 1.980952 1_655
Li0 O2 2.002276 1_556
Li0 O14 2.016398 1_545
Li1 O4 1.791882 1_665
Li1 O13 1.964949 1_656
Li1 O15 1.965835 1_556
Li1 O8 1.995194 1_666
Li2 O3 1.796375 1_555
Li2 O5 1.962189 1_455
Li2 O0 1.969274 1_555
Li2 O9 1.972906 1_445
Li3 O7 1.980765 1_455
Li3 O12 1.984207 1_555
Li3 O6 1.984705 1_555
Li3 O1 2.008001 1_565
Fe0 O5 2.020112 1_555
Fe0 O0 2.041252 1_555
Fe0 O9 2.057500 1_555
Fe0 O6 2.112906 1_555
Fe0 O7 2.115920 1_555
Fe0 O1 2.167597 1_555
Fe1 O15 2.020779 1_556
Fe1 O13 2.026208 1_556
Fe1 O8 2.059243 1_556
Fe1 O11 2.130375 1_555
Fe1 O10 2.133339 1_555
Fe1 O14 2.143621 1_555
O0 V2 1.986257 1_545
O0 Ti2 2.089534 1_555
O1 Ti0 1.975745 1_555
O1 Ti1 1.978289 1_555
O2 Ti1 1.959944 1_555
O2 Ti0 1.962084 1_555
O2 V0 2.082072 1_555
O3 Ti1 1.947813 1_455
O3 Ti0 1.948629 1_555
O3 V0 2.044816 1_445
O4 Ti2 1.925332 1_555
O4 V2 1.988824 1_545
O4 V1 2.037693 1_445
O5 V1 2.004315 1_545
O5 Ti2 2.063062 1_655
O6 Ti0 1.946352 1_555
O6 V0 2.053760 1_555
O7 Ti1 1.939015 1_555
O7 V0 2.049117 1_555
O8 Ti0 2.027057 1_555
O8 Ti1 2.028091 1_455
O9 V2 1.992269 1_655
O9 V1 2.034530 1_555
O10 Ti2 1.935670 1_555
O10 V2 2.054624 1_555
O11 Ti2 1.943811 1_555
O11 V1 2.047311 1_555
O12 V2 1.974588 1_555
O12 Ti2 1.975067 1_555
O12 V1 2.059563 1_555
O13 V0 2.017396 1_455
O13 Ti0 2.048744 1_565
O14 V2 1.900542 1_555
O14 V1 2.051480 1_555
O15 V0 2.015652 1_555
O15 Ti1 2.052260 1_565
