# generated using pymatgen
data_Ti13(Fe5O14)3
_symmetry_space_group_name_H-M   'P 1'
_cell_length_a   9.17742373
_cell_length_b   8.91016815
_cell_length_c   9.96179573
_cell_angle_alpha   81.63652452
_cell_angle_beta   104.51312467
_cell_angle_gamma   80.72321282
_symmetry_Int_Tables_number   1
_chemical_formula_structural   Ti13(Fe5O14)3
_chemical_formula_sum   'Ti13 Fe15 O42'
_cell_volume   763.42550165
_cell_formula_units_Z   1
loop_
 _symmetry_equiv_pos_site_id
 _symmetry_equiv_pos_as_xyz
  1  'x, y, z'
loop_
 _atom_site_type_symbol
 _atom_site_label
 _atom_site_symmetry_multiplicity
 _atom_site_fract_x
 _atom_site_fract_y
 _atom_site_fract_z
 _atom_site_occupancy
  Ti  Ti0  1  0.93738100  0.98319200  0.18523800  1
  Ti  Ti1  1  0.79457200  0.26586100  0.61476900  1
  Ti  Ti2  1  0.92069900  0.30779100  0.24136300  1
  Ti  Ti3  1  0.77374400  0.59300100  0.66776700  1
  Ti  Ti4  1  0.36992600  0.12021300  0.90345100  1
  Ti  Ti5  1  0.49098900  0.16106500  0.52759400  1
  Ti  Ti6  1  0.63662200  0.87679100  0.09933700  1
  Ti  Ti7  1  0.65164700  0.54758600  0.04334600  1
  Ti  Ti8  1  0.34742700  0.44835400  0.95737000  1
  Ti  Ti9  1  0.07896500  0.69469000  0.75770500  1
  Ti  Ti10  1  0.22311500  0.40847700  0.33024500  1
  Ti  Ti11  1  0.06108400  0.02191800  0.81190800  1
  Ti  Ti12  1  0.20516100  0.73743000  0.38507600  1
  Fe  Fe0  1  0.84273600  0.95108100  0.45459500  1
  Fe  Fe1  1  0.70628200  0.23539400  0.88340400  1
  Fe  Fe2  1  0.72592100  0.90796600  0.83038300  1
  Fe  Fe3  1  0.86956500  0.62122200  0.40269600  1
  Fe  Fe4  1  0.98805700  0.66573600  0.02674000  1
  Fe  Fe5  1  0.51053500  0.83536600  0.47352700  1
  Fe  Fe6  1  0.42030200  0.80775300  0.74045100  1
  Fe  Fe7  1  0.58062100  0.19033500  0.25830700  1
  Fe  Fe8  1  0.43621000  0.48036400  0.68682000  1
  Fe  Fe9  1  0.56455600  0.52506300  0.31678700  1
  Fe  Fe10  1  0.14930500  0.05271000  0.54333100  1
  Fe  Fe11  1  0.29519400  0.76559400  0.11828000  1
  Fe  Fe12  1  0.27980800  0.09060500  0.17352100  1
  Fe  Fe13  1  0.00787400  0.34054300  0.97064600  1
  Fe  Fe14  1  0.13550600  0.37502600  0.60005500  1
  O  O0  1  0.95835300  0.85976700  0.84697100  1
  O  O1  1  0.94028800  0.55929600  0.84116500  1
  O  O2  1  0.92940500  0.19267300  0.83218400  1
  O  O3  1  0.93048900  0.09009500  0.59975500  1
  O  O4  1  0.92038200  0.72794200  0.59298100  1
  O  O5  1  0.90286900  0.42389600  0.58349800  1
  O  O6  1  0.81939800  0.14353000  0.27247100  1
  O  O7  1  0.67631100  0.42922900  0.70568000  1
  O  O8  1  0.65261100  0.13208000  0.69572500  1
  O  O9  1  0.79581200  0.84183100  0.26367900  1
  O  O10  1  0.64283400  0.76413300  0.69019500  1
  O  O11  1  0.78373300  0.48155200  0.25681500  1
  O  O12  1  0.65265900  0.65326300  0.45592900  1
  O  O13  1  0.50363300  0.94727800  0.88106600  1
  O  O14  1  0.78610700  0.37638600  0.02219600  1
  O  O15  1  0.63252300  0.30139600  0.44835400  1
  O  O16  1  0.77458000  0.01366400  0.02063500  1
  O  O17  1  0.48750200  0.58436500  0.87831700  1
  O  O18  1  0.61331800  0.00586700  0.43777300  1
  O  O19  1  0.46587900  0.28565800  0.86578300  1
  O  O20  1  0.74977700  0.71263700  0.01168500  1
  O  O21  1  0.24822900  0.28204700  0.99555100  1
  O  O22  1  0.52032700  0.71928800  0.13035400  1
  O  O23  1  0.38690400  0.00153900  0.56076900  1
  O  O24  1  0.36500300  0.69770900  0.55314300  1
  O  O25  1  0.23011600  0.97221600  0.98370800  1
  O  O26  1  0.51186000  0.41556100  0.12408600  1
  O  O27  1  0.35119600  0.33774700  0.54377100  1
  O  O28  1  0.50183000  0.05204900  0.11668000  1
  O  O29  1  0.22012400  0.62837000  0.98225700  1
  O  O30  1  0.21553000  0.51882300  0.74625300  1
  O  O31  1  0.35874000  0.23685100  0.31252300  1
  O  O32  1  0.33779800  0.86993000  0.29341200  1
  O  O33  1  0.20522200  0.15496600  0.73996800  1
  O  O34  1  0.17936300  0.85854500  0.72101900  1
  O  O35  1  0.32204400  0.57538900  0.28808200  1
  O  O36  1  0.10322600  0.57413800  0.41779000  1
  O  O37  1  0.08159700  0.26735900  0.40881800  1
  O  O38  1  0.06557500  0.90823200  0.39912000  1
  O  O39  1  0.07481000  0.80488800  0.16263200  1
  O  O40  1  0.05997500  0.44292100  0.16382100  1
  O  O41  1  0.03825900  0.14377100  0.14867900  1
loop_
_geom_bond_atom_site_label_1
_geom_bond_atom_site_label_2
_geom_bond_distance
_geom_bond_site_symmetry_2
Fe0 O18 2.041411 1_565
Fe0 O3 2.129050 1_565
Fe0 O4 2.148193 1_555
Fe0 O38 2.238223 1_655
Fe0 O9 2.239050 1_555
Fe0 O6 2.249373 1_565
Fe1 O14 2.078665 1_556
Fe1 O16 2.133200 1_556
Fe1 O19 2.136238 1_555
Fe1 O8 2.184215 1_555
Fe1 O7 2.215014 1_555
Fe1 O2 2.219721 1_555
Fe2 O0 2.066229 1_555
Fe2 O10 2.115692 1_555
Fe2 O8 2.138911 1_565
Fe2 O13 2.208312 1_555
Fe2 O16 2.215627 1_566
Fe2 O20 2.259092 1_556
Fe3 O36 2.080164 1_655
Fe3 O9 2.132874 1_555
Fe3 O11 2.132968 1_555
Fe3 O12 2.171465 1_555
Fe3 O4 2.222424 1_555
Fe3 O5 2.249074 1_555
Fe4 O39 2.066415 1_655
Fe4 O20 2.121784 1_555
Fe4 O40 2.139867 1_655
Fe4 O1 2.178779 1_554
Fe4 O0 2.230019 1_554
Fe4 O29 2.265058 1_654
Fe5 O18 1.948741 1_565
Fe5 O12 1.969711 1_555
Fe5 O32 2.020785 1_555
Fe5 O23 2.135851 1_565
Fe5 O10 2.138990 1_555
Fe5 O24 2.166426 1_555
Fe6 O13 2.090159 1_555
Fe6 O34 2.137530 1_555
Fe6 O17 2.147750 1_555
Fe6 O10 2.210364 1_555
Fe6 O24 2.217808 1_555
Fe6 O23 2.221389 1_565
Fe7 O28 2.076832 1_555
Fe7 O6 2.128179 1_555
Fe7 O26 2.145111 1_555
Fe7 O18 2.169128 1_555
Fe7 O31 2.225805 1_555
Fe7 O15 2.243964 1_555
Fe8 O24 2.087183 1_555
Fe8 O7 2.131257 1_555
Fe8 O27 2.131523 1_555
Fe8 O17 2.219066 1_555
Fe8 O19 2.228655 1_555
Fe8 O30 2.237397 1_555
Fe9 O12 2.019038 1_555
Fe9 O15 2.123248 1_555
Fe9 O35 2.135006 1_555
Fe9 O11 2.229694 1_555
Fe9 O22 2.251574 1_555
Fe9 O26 2.258886 1_555
Fe10 O37 2.072089 1_555
Fe10 O23 2.111732 1_555
Fe10 O38 2.148286 1_545
Fe10 O3 2.205486 1_455
Fe10 O34 2.216511 1_545
Fe10 O33 2.257591 1_555
Fe11 O22 2.009926 1_555
Fe11 O25 2.017302 1_554
Fe11 O29 2.022718 1_554
Fe11 O32 2.075567 1_555
Fe11 O35 2.148653 1_555
Fe11 O39 2.161737 1_555
Fe12 O32 2.058325 1_545
Fe12 O31 2.113449 1_555
Fe12 O41 2.133591 1_555
Fe12 O21 2.200045 1_554
Fe12 O28 2.235977 1_555
Fe12 O25 2.280194 1_544
Fe13 O1 2.079766 1_455
Fe13 O2 2.119861 1_455
Fe13 O21 2.125173 1_555
Fe13 O14 2.206793 1_456
Fe13 O40 2.225771 1_556
Fe13 O41 2.233173 1_556
Fe14 O5 2.068321 1_455
Fe14 O33 2.133117 1_555
Fe14 O30 2.147601 1_555
Fe14 O27 2.177500 1_555
Fe14 O37 2.237552 1_555
Fe14 O36 2.270653 1_555
O0 Ti11 1.885665 1_665
O0 Ti9 2.127997 1_655
O1 Ti3 1.946261 1_555
O1 Ti9 2.121306 1_655
O2 Ti11 1.853371 1_655
O2 Ti1 2.152453 1_555
O3 Ti1 1.887538 1_555
O3 Ti11 2.096257 1_655
O4 Ti9 1.849648 1_655
O4 Ti3 2.139004 1_555
O5 Ti1 1.883199 1_555
O5 Ti3 2.161066 1_555
O6 Ti2 1.885098 1_555
O6 Ti0 2.074270 1_545
O7 Ti3 1.871150 1_555
O7 Ti1 2.117493 1_555
O8 Ti5 1.891443 1_555
O8 Ti1 2.125164 1_555
O9 Ti6 1.848730 1_555
O9 Ti0 2.152958 1_555
O10 Ti3 1.860481 1_555
O11 Ti2 1.881392 1_555
O11 Ti7 2.109940 1_555
O12 Ti3 2.068609 1_555
O13 Ti4 1.886074 1_565
O13 Ti6 2.153474 1_556
O14 Ti7 1.873756 1_555
O14 Ti2 2.163985 1_555
O15 Ti1 1.876183 1_555
O15 Ti5 2.150380 1_555
O16 Ti0 1.872584 1_545
O16 Ti6 2.102904 1_545
O17 Ti7 1.876770 1_556
O17 Ti8 2.115056 1_555
O18 Ti5 2.082342 1_555
O19 Ti4 1.874190 1_555
O19 Ti8 2.118829 1_555
O20 Ti7 1.872890 1_555
O20 Ti6 2.077608 1_555
O21 Ti8 1.900997 1_555
O21 Ti4 2.132521 1_555
O22 Ti6 1.930309 1_555
O22 Ti7 2.204348 1_555
O23 Ti5 1.871204 1_555
O24 Ti12 1.873379 1_555
O25 Ti11 1.938807 1_565
O25 Ti4 2.185731 1_565
O26 Ti8 1.892466 1_554
O26 Ti7 2.098816 1_555
O27 Ti5 1.917415 1_555
O27 Ti10 2.102727 1_555
O28 Ti6 1.887179 1_545
O28 Ti4 2.108354 1_554
O29 Ti8 1.912022 1_555
O29 Ti9 2.224313 1_555
O30 Ti9 1.878774 1_555
O30 Ti8 2.092227 1_555
O31 Ti10 1.869203 1_555
O31 Ti5 2.128598 1_555
O32 Ti12 2.101474 1_555
O33 Ti4 1.871245 1_555
O33 Ti11 2.098185 1_555
O34 Ti9 1.887146 1_555
O34 Ti11 2.117463 1_565
O35 Ti10 1.912401 1_555
O35 Ti12 2.143557 1_555
O36 Ti12 1.884668 1_555
O36 Ti10 2.117011 1_555
O37 Ti2 1.874042 1_455
O37 Ti10 2.151791 1_555
O38 Ti12 1.870813 1_555
O38 Ti0 2.108604 1_455
O39 Ti0 1.940588 1_455
O39 Ti12 2.180561 1_555
O40 Ti10 1.882589 1_555
O40 Ti2 2.097772 1_455
O41 Ti0 1.865842 1_445
O41 Ti2 2.129735 1_455
