# generated using pymatgen
data_HgTe(HO)7
_symmetry_space_group_name_H-M   'P 1'
_cell_length_a   6.01055500
_cell_length_b   6.97083931
_cell_length_c   8.67770599
_cell_angle_alpha   91.70999675
_cell_angle_beta   104.65502192
_cell_angle_gamma   91.04044627
_symmetry_Int_Tables_number   1
_chemical_formula_structural   HgTe(HO)7
_chemical_formula_sum   'Hg2 Te2 H14 O14'
_cell_volume   351.47433802
_cell_formula_units_Z   2
loop_
 _symmetry_equiv_pos_site_id
 _symmetry_equiv_pos_as_xyz
  1  'x, y, z'
loop_
 _atom_site_type_symbol
 _atom_site_label
 _atom_site_symmetry_multiplicity
 _atom_site_fract_x
 _atom_site_fract_y
 _atom_site_fract_z
 _atom_site_occupancy
  Hg  Hg0  1  0.31454500  0.05538800  0.40453700  1
  Hg  Hg1  1  0.68545500  0.94461200  0.59546300  1
  Te  Te0  1  0.00000000  0.50000000  0.50000000  1
  Te  Te1  1  0.00000000  0.00000000  0.00000000  1
  H  H0  1  0.12277500  0.70523900  0.74671700  1
  H  H1  1  0.09084100  0.24421700  0.70197600  1
  H  H2  1  0.20549100  0.32090800  0.99730000  1
  H  H3  1  0.25798200  0.48160000  0.30904200  1
  H  H4  1  0.49254500  0.53713200  0.81758200  1
  H  H5  1  0.56685100  0.03828500  0.90865600  1
  H  H6  1  0.33842400  0.62810500  0.10512400  1
  H  H7  1  0.66157600  0.37189500  0.89487600  1
  H  H8  1  0.43314900  0.96171500  0.09134400  1
  H  H9  1  0.50745500  0.46286800  0.18241800  1
  H  H10  1  0.74201800  0.51840000  0.69095800  1
  H  H11  1  0.79450900  0.67909200  0.00270000  1
  H  H12  1  0.90915900  0.75578300  0.29802400  1
  H  H13  1  0.87722500  0.29476100  0.25328300  1
  O  O0  1  0.14540300  0.21448700  0.91469100  1
  O  O1  1  0.03561100  0.23820700  0.58327800  1
  O  O2  1  0.20689900  0.60326700  0.69981700  1
  O  O3  1  0.04094500  0.13303400  0.19987700  1
  O  O4  1  0.26952900  0.45089000  0.42337000  1
  O  O5  1  0.30384700  0.87019400  0.07195900  1
  O  O6  1  0.34366900  0.49115700  0.13542400  1
  O  O7  1  0.65633100  0.50884300  0.86457600  1
  O  O8  1  0.69615300  0.12980600  0.92804100  1
  O  O9  1  0.73047100  0.54911000  0.57663000  1
  O  O10  1  0.95905500  0.86696600  0.80012300  1
  O  O11  1  0.79310100  0.39673300  0.30018300  1
  O  O12  1  0.96438900  0.76179300  0.41672200  1
  O  O13  1  0.85459700  0.78551300  0.08530900  1
loop_
_geom_bond_atom_site_label_1
_geom_bond_atom_site_label_2
_geom_bond_distance
_geom_bond_site_symmetry_2
Hg0 O3 2.182497 1_555
Hg1 O10 2.182497 1_555
H0 O2 1.013160 1_555
H0 O10 1.641330 1_455
H1 O1 0.998405 1_555
H2 O0 1.011030 1_555
H3 O4 1.006623 1_555
H4 O7 0.991480 1_555
H5 O8 0.974040 1_555
H6 O6 0.996669 1_555
H7 O7 0.996669 1_555
H8 O5 0.974040 1_555
H9 O6 0.991480 1_555
H10 O9 1.006623 1_555
H11 O13 1.011030 1_555
H12 O12 0.998405 1_555
H13 O11 1.013160 1_555
H13 O3 1.641330 1_655
O0 Te1 1.973138 1_556
O1 Te0 1.978131 1_555
O2 Te0 1.968041 1_555
O3 Te1 1.899654 1_555
O4 Te0 1.932743 1_555
O5 Te1 2.015122 1_565
O8 Te1 2.015122 1_656
O9 Te0 1.932743 1_655
O10 Te1 1.899654 1_666
O11 Te0 1.968041 1_655
O12 Te0 1.978131 1_655
O13 Te1 1.973138 1_665
