# generated using pymatgen
data_BeClO
_symmetry_space_group_name_H-M   'P 1'
_cell_length_a   26.94287245
_cell_length_b   26.94287245
_cell_length_c   26.94287355
_cell_angle_alpha   11.53560029
_cell_angle_beta   11.53560029
_cell_angle_gamma   11.53559904
_symmetry_Int_Tables_number   1
_chemical_formula_structural   BeClO
_chemical_formula_sum   'Be16 Cl16 O16'
_cell_volume   679.65088996
_cell_formula_units_Z   16
loop_
 _symmetry_equiv_pos_site_id
 _symmetry_equiv_pos_as_xyz
  1  'x, y, z'
loop_
 _atom_site_type_symbol
 _atom_site_label
 _atom_site_symmetry_multiplicity
 _atom_site_fract_x
 _atom_site_fract_y
 _atom_site_fract_z
 _atom_site_occupancy
  Be  Be0_0  1  0.06717150  0.06717150  0.06717150  1
  Be  Be0_1  1  0.06717150  0.06717150  0.56717150  1
  Be  Be0_2  1  0.06717150  0.56717150  0.06717150  1
  Be  Be0_3  1  0.06717150  0.56717150  0.56717150  1
  Be  Be0_4  1  0.56717150  0.06717150  0.06717150  1
  Be  Be0_5  1  0.56717150  0.06717150  0.56717150  1
  Be  Be0_6  1  0.56717150  0.56717150  0.06717150  1
  Be  Be0_7  1  0.56717150  0.56717150  0.56717150  1
  Be  Be1_0  1  0.43282850  0.43282850  0.43282850  1
  Be  Be1_1  1  0.43282850  0.43282850  0.93282850  1
  Be  Be1_2  1  0.43282850  0.93282850  0.43282850  1
  Be  Be1_3  1  0.43282850  0.93282850  0.93282850  1
  Be  Be1_4  1  0.93282850  0.43282850  0.43282850  1
  Be  Be1_5  1  0.93282850  0.43282850  0.93282850  1
  Be  Be1_6  1  0.93282850  0.93282850  0.43282850  1
  Be  Be1_7  1  0.93282850  0.93282850  0.93282850  1
  Cl  Cl0_0  1  0.18957000  0.18957000  0.18957000  1
  Cl  Cl0_1  1  0.18957000  0.18957000  0.68957000  1
  Cl  Cl0_2  1  0.18957000  0.68957000  0.18957000  1
  Cl  Cl0_3  1  0.18957000  0.68957000  0.68957000  1
  Cl  Cl0_4  1  0.68957000  0.18957000  0.18957000  1
  Cl  Cl0_5  1  0.68957000  0.18957000  0.68957000  1
  Cl  Cl0_6  1  0.68957000  0.68957000  0.18957000  1
  Cl  Cl0_7  1  0.68957000  0.68957000  0.68957000  1
  Cl  Cl1_0  1  0.31043000  0.31043000  0.31043000  1
  Cl  Cl1_1  1  0.31043000  0.31043000  0.81043000  1
  Cl  Cl1_2  1  0.31043000  0.81043000  0.31043000  1
  Cl  Cl1_3  1  0.31043000  0.81043000  0.81043000  1
  Cl  Cl1_4  1  0.81043000  0.31043000  0.31043000  1
  Cl  Cl1_5  1  0.81043000  0.31043000  0.81043000  1
  Cl  Cl1_6  1  0.81043000  0.81043000  0.31043000  1
  Cl  Cl1_7  1  0.81043000  0.81043000  0.81043000  1
  O  O0_0  1  0.09984650  0.09984650  0.09984650  1
  O  O0_1  1  0.09984650  0.09984650  0.59984650  1
  O  O0_2  1  0.09984650  0.59984650  0.09984650  1
  O  O0_3  1  0.09984650  0.59984650  0.59984650  1
  O  O0_4  1  0.59984650  0.09984650  0.09984650  1
  O  O0_5  1  0.59984650  0.09984650  0.59984650  1
  O  O0_6  1  0.59984650  0.59984650  0.09984650  1
  O  O0_7  1  0.59984650  0.59984650  0.59984650  1
  O  O1_0  1  0.40015350  0.40015350  0.40015350  1
  O  O1_1  1  0.40015350  0.40015350  0.90015350  1
  O  O1_2  1  0.40015350  0.90015350  0.40015350  1
  O  O1_3  1  0.40015350  0.90015350  0.90015350  1
  O  O1_4  1  0.90015350  0.40015350  0.40015350  1
  O  O1_5  1  0.90015350  0.40015350  0.90015350  1
  O  O1_6  1  0.90015350  0.90015350  0.40015350  1
  O  O1_7  1  0.90015350  0.90015350  0.90015350  1
loop_
_geom_bond_atom_site_label_1
_geom_bond_atom_site_label_2
_geom_bond_distance
_geom_bond_site_symmetry_2
Be0_0 O1_5 1.563535 1_454
Be0_0 O1_3 1.563535 1_544
Be0_0 O1_6 1.563536 1_445
Be0_1 O1_2 1.563535 1_545
Be0_1 O1_4 1.563535 1_455
Be0_1 O1_7 1.563536 1_445
Be0_2 O1_1 1.563535 1_554
Be0_2 O1_7 1.563535 1_454
Be0_2 O1_4 1.563536 1_455
Be0_3 O1_0 1.563535 1_555
Be0_3 O1_6 1.563535 1_455
Be0_3 O1_5 1.563536 1_455
Be0_4 O1_1 1.563535 1_554
Be0_4 O1_7 1.563535 1_544
Be0_4 O1_2 1.563536 1_545
Be0_5 O1_0 1.563535 1_555
Be0_5 O1_6 1.563535 1_545
Be0_5 O1_3 1.563536 1_545
Be0_6 O1_3 1.563535 1_554
Be0_6 O1_5 1.563535 1_554
Be0_6 O1_0 1.563536 1_555
Be0_7 O1_2 1.563535 1_555
Be0_7 O1_4 1.563535 1_555
Be0_7 O1_1 1.563536 1_555
Be1_0 O0_3 1.563535 1_555
Be1_0 O0_5 1.563535 1_555
Be1_0 O0_6 1.563536 1_555
Be1_1 O0_4 1.563535 1_556
Be1_1 O0_2 1.563535 1_556
Be1_1 O0_7 1.563536 1_555
Be1_2 O0_7 1.563535 1_555
Be1_2 O0_1 1.563535 1_565
Be1_2 O0_4 1.563536 1_565
Be1_3 O0_6 1.563535 1_556
Be1_3 O0_0 1.563535 1_566
Be1_3 O0_5 1.563536 1_565
Be1_4 O0_7 1.563535 1_555
Be1_4 O0_1 1.563535 1_655
Be1_4 O0_2 1.563536 1_655
Be1_5 O0_0 1.563535 1_656
Be1_5 O0_6 1.563535 1_556
Be1_5 O0_3 1.563536 1_655
Be1_6 O0_3 1.563535 1_655
Be1_6 O0_5 1.563535 1_565
Be1_6 O0_0 1.563536 1_665
Be1_7 O0_4 1.563535 1_566
Be1_7 O0_2 1.563535 1_656
Be1_7 O0_1 1.563536 1_665
Cl0_0 Cl0_6 2.707682 1_455
Cl0_0 Cl0_6 2.707682 1_545
Cl0_0 Cl0_3 2.707682 1_554
Cl0_0 Cl0_5 2.707682 1_554
Cl0_0 Cl0_3 2.707682 1_545
Cl0_0 Cl0_5 2.707682 1_455
Cl0_1 Cl0_7 2.707682 1_455
Cl0_1 Cl0_7 2.707682 1_545
Cl0_1 Cl0_2 2.707682 1_546
Cl0_1 Cl0_2 2.707682 1_555
Cl0_1 Cl0_4 2.707682 1_456
Cl0_1 Cl0_4 2.707682 1_555
Cl0_2 Cl0_4 2.707682 1_465
Cl0_2 Cl0_4 2.707682 1_555
Cl0_2 Cl0_7 2.707682 1_455
Cl0_2 Cl0_7 2.707682 1_554
Cl0_3 Cl0_5 2.707682 1_555
Cl0_3 Cl0_5 2.707682 1_465
Cl0_3 Cl0_6 2.707682 1_456
Cl0_3 Cl0_6 2.707682 1_555
Cl0_4 Cl0_7 2.707682 1_545
Cl0_4 Cl0_7 2.707682 1_554
Cl0_5 Cl0_6 2.707682 1_546
Cl0_5 Cl0_6 2.707682 1_555
Cl1_0 Cl1_6 2.707682 1_455
Cl1_0 Cl1_6 2.707682 1_545
Cl1_0 Cl1_3 2.707682 1_554
Cl1_0 Cl1_5 2.707682 1_554
Cl1_0 Cl1_5 2.707682 1_455
Cl1_0 Cl1_3 2.707682 1_545
Cl1_1 Cl1_7 2.707682 1_455
Cl1_1 Cl1_7 2.707682 1_545
Cl1_1 Cl1_4 2.707682 1_555
Cl1_1 Cl1_2 2.707682 1_546
Cl1_1 Cl1_2 2.707682 1_555
Cl1_1 Cl1_4 2.707682 1_456
Cl1_2 Cl1_4 2.707682 1_555
Cl1_2 Cl1_4 2.707682 1_465
Cl1_2 Cl1_7 2.707682 1_554
Cl1_2 Cl1_7 2.707682 1_455
Cl1_3 Cl1_5 2.707682 1_555
Cl1_3 Cl1_5 2.707682 1_465
Cl1_3 Cl1_6 2.707682 1_456
Cl1_3 Cl1_6 2.707682 1_555
Cl1_4 Cl1_7 2.707682 1_554
Cl1_4 Cl1_7 2.707682 1_545
Cl1_5 Cl1_6 2.707682 1_546
Cl1_5 Cl1_6 2.707682 1_555
