# generated using pymatgen
data_VOF
_symmetry_space_group_name_H-M   'P 1'
_cell_length_a   4.71399400
_cell_length_b   6.22460700
_cell_length_c   9.98217608
_cell_angle_alpha   72.00472579
_cell_angle_beta   90.00000000
_cell_angle_gamma   90.00000000
_symmetry_Int_Tables_number   1
_chemical_formula_structural   VOF
_chemical_formula_sum   'V8 O8 F8'
_cell_volume   278.57629067
_cell_formula_units_Z   8
loop_
 _symmetry_equiv_pos_site_id
 _symmetry_equiv_pos_as_xyz
  1  'x, y, z'
loop_
 _atom_site_type_symbol
 _atom_site_label
 _atom_site_symmetry_multiplicity
 _atom_site_fract_x
 _atom_site_fract_y
 _atom_site_fract_z
 _atom_site_occupancy
  V  V0  1  0.52896400  0.04903000  0.64242400  1
  V  V1  1  0.50431700  0.31604800  0.12547500  1
  V  V2  1  0.46336700  0.57641000  0.60829700  1
  V  V3  1  0.50392000  0.80637700  0.12414300  1
  V  V4  1  0.96336700  0.42359000  0.39170300  1
  V  V5  1  0.00431700  0.68395200  0.87452500  1
  V  V6  1  0.00392000  0.19362300  0.87585700  1
  V  V7  1  0.02896400  0.95097000  0.35757600  1
  O  O0  1  0.17806200  0.64455700  0.46325800  1
  O  O1  1  0.19059200  0.38683400  0.96932700  1
  O  O2  1  0.31938900  0.01250400  0.21377500  1
  O  O3  1  0.31106600  0.76499100  0.71947600  1
  O  O4  1  0.67806200  0.35544300  0.53674200  1
  O  O5  1  0.69059200  0.61316600  0.03067300  1
  O  O6  1  0.81938900  0.98749600  0.78622500  1
  O  O7  1  0.81106600  0.23500900  0.28052400  1
  F  F0  1  0.20877200  0.13417400  0.47942500  1
  F  F1  1  0.20522800  0.88971100  0.97611500  1
  F  F2  1  0.29468700  0.26370700  0.72577700  1
  F  F3  1  0.29163600  0.51224600  0.22962600  1
  F  F4  1  0.70522800  0.11028900  0.02388500  1
  F  F5  1  0.70877200  0.86582600  0.52057500  1
  F  F6  1  0.79468700  0.73629300  0.27422300  1
  F  F7  1  0.79163600  0.48775400  0.77037400  1
loop_
_geom_bond_atom_site_label_1
_geom_bond_atom_site_label_2
_geom_bond_distance
_geom_bond_site_symmetry_2
O0 V2 1.924951 1_555
O0 V7 2.000365 1_555
O0 V4 2.008312 1_455
O1 V6 1.945413 1_555
O1 V5 2.001409 1_555
O1 V1 2.094389 1_556
O2 V7 1.934381 1_545
O2 V3 1.978072 1_545
O2 V1 2.019365 1_555
O3 V2 1.982413 1_555
O3 V0 1.983019 1_565
O3 V5 2.063606 1_555
O4 V4 1.924951 1_555
O4 V0 2.000365 1_555
O4 V2 2.008312 1_555
O5 V3 1.945413 1_555
O5 V1 2.001409 1_555
O5 V5 2.094389 1_654
O6 V0 1.934381 1_565
O6 V6 1.978072 1_665
O6 V5 2.019365 1_655
O7 V4 1.982413 1_555
O7 V7 1.983019 1_645
O7 V1 2.063606 1_555
F0 V7 2.086950 1_545
F0 V4 2.091830 1_455
F0 V0 2.161877 1_555
F1 V3 1.990341 1_556
F1 V6 2.076292 1_565
F1 V5 2.090033 1_555
F2 V6 1.977276 1_555
F2 V0 2.093939 1_555
F2 V2 2.094234 1_555
F3 V3 2.066637 1_555
F3 V1 2.088543 1_555
F3 V4 2.182899 1_455
F4 V6 1.990341 1_654
F4 V3 2.076292 1_545
F4 V1 2.090033 1_555
F5 V0 2.086950 1_565
F5 V2 2.091830 1_555
F5 V7 2.161877 1_655
F6 V3 1.977276 1_555
F6 V7 2.093939 1_655
F6 V4 2.094234 1_555
F7 V6 2.066637 1_655
F7 V5 2.088543 1_655
F7 V2 2.182899 1_555
