# generated using pymatgen
data_Li5V3P8O29
_symmetry_space_group_name_H-M   'P 1'
_cell_length_a   9.79467847
_cell_length_b   9.79467847
_cell_length_c   13.96784524
_cell_angle_alpha   89.91982494
_cell_angle_beta   89.91982494
_cell_angle_gamma   60.01622213
_symmetry_Int_Tables_number   1
_chemical_formula_structural   Li5V3P8O29
_chemical_formula_sum   'Li10 V6 P16 O58'
_cell_volume   1160.67549559
_cell_formula_units_Z   2
loop_
 _symmetry_equiv_pos_site_id
 _symmetry_equiv_pos_as_xyz
  1  'x, y, z'
loop_
 _atom_site_type_symbol
 _atom_site_label
 _atom_site_symmetry_multiplicity
 _atom_site_fract_x
 _atom_site_fract_y
 _atom_site_fract_z
 _atom_site_occupancy
  Li  Li0  1  0.32190700  0.90538400  0.06078900  1
  Li  Li1  1  0.31719600  0.76984900  0.55946500  1
  Li  Li2  1  0.77587500  0.90203800  0.55781700  1
  Li  Li3  1  0.90203800  0.77587500  0.05781700  1
  Li  Li4  1  0.76984900  0.31719600  0.05946500  1
  Li  Li5  1  0.22496900  0.67972300  0.93989800  1
  Li  Li6  1  0.90538400  0.32190700  0.56078900  1
  Li  Li7  1  0.09208900  0.23013000  0.93895900  1
  Li  Li8  1  0.23013000  0.09208900  0.43895900  1
  Li  Li9  1  0.67972300  0.22496900  0.43989800  1
  V  V0  1  0.56986000  0.00191100  0.75451000  1
  V  V1  1  0.43141800  0.56721500  0.75098400  1
  V  V2  1  0.00191100  0.56986000  0.25451000  1
  V  V3  1  0.99824400  0.43325900  0.74641200  1
  V  V4  1  0.56721500  0.43141800  0.25098400  1
  V  V5  1  0.43325900  0.99824400  0.24641200  1
  P  P0  1  0.31911900  0.91327400  0.84207800  1
  P  P1  1  0.32006100  0.76804000  0.34241000  1
  P  P2  1  0.76621900  0.91250600  0.34214300  1
  P  P3  1  0.66294800  0.67121400  0.62769600  1
  P  P4  1  0.67121400  0.66294800  0.12769600  1
  P  P5  1  0.91250600  0.76621900  0.84214300  1
  P  P6  1  0.08608200  0.68280100  0.65793600  1
  P  P7  1  0.76804000  0.32006100  0.84241000  1
  P  P8  1  0.23097900  0.67972500  0.15914600  1
  P  P9  1  0.91327400  0.31911900  0.34207800  1
  P  P10  1  0.08644000  0.23431900  0.15750000  1
  P  P11  1  0.33016400  0.33253400  0.87274300  1
  P  P12  1  0.33253400  0.33016400  0.37274300  1
  P  P13  1  0.23431900  0.08644000  0.65750000  1
  P  P14  1  0.67972500  0.23097900  0.65914600  1
  P  P15  1  0.68280100  0.08608200  0.15793600  1
  O  O0  1  0.24750000  0.99595400  0.56767700  1
  O  O1  1  0.33829000  0.91706900  0.33673100  1
  O  O2  1  0.21049600  0.78931200  0.25053800  1
  O  O3  1  0.23644900  0.76110400  0.06891100  1
  O  O4  1  0.48051000  0.90174400  0.82374200  1
  O  O5  1  0.33485400  0.74843600  0.84334800  1
  O  O6  1  0.51498000  0.81090400  0.16609600  1
  O  O7  1  0.61993700  0.89838400  0.32458300  1
  O  O8  1  0.76749700  0.99283800  0.07332900  1
  O  O9  1  0.74633100  0.91555900  0.83461100  1
  O  O10  1  0.51000500  0.67786100  0.66757900  1
  O  O11  1  0.66923900  0.81819700  0.67158600  1
  O  O12  1  0.48060100  0.61722900  0.32093700  1
  O  O13  1  0.66669500  0.67551400  0.52099200  1
  O  O14  1  0.67551400  0.66669500  0.02099200  1
  O  O15  1  0.61722900  0.48060100  0.82093700  1
  O  O16  1  0.81819700  0.66923900  0.17158600  1
  O  O17  1  0.67786100  0.51000500  0.16757900  1
  O  O18  1  0.91555900  0.74633100  0.33461100  1
  O  O19  1  0.00781300  0.78545900  0.75419400  1
  O  O20  1  0.99727200  0.76095700  0.93252200  1
  O  O21  1  0.99283800  0.76749700  0.57332900  1
  O  O22  1  0.89838400  0.61993700  0.82458300  1
  O  O23  1  0.81090400  0.51498000  0.66609600  1
  O  O24  1  0.74843600  0.33485400  0.34334800  1
  O  O25  1  0.07945500  0.66573200  0.16114300  1
  O  O26  1  0.90174400  0.48051000  0.32374200  1
  O  O27  1  0.24855100  0.75936200  0.43374800  1
  O  O28  1  0.76110400  0.23644900  0.56891100  1
  O  O29  1  0.09735000  0.52051600  0.67630500  1
  O  O30  1  0.91706900  0.33829000  0.83673100  1
  O  O31  1  0.78931200  0.21049600  0.75053800  1
  O  O32  1  0.25445800  0.66178300  0.66025300  1
  O  O33  1  0.18492200  0.48141500  0.32460100  1
  O  O34  1  0.09523200  0.38420200  0.17711700  1
  O  O35  1  0.99595400  0.24750000  0.06767700  1
  O  O36  1  0.00384600  0.24279400  0.43188100  1
  O  O37  1  0.99943900  0.21008500  0.24979700  1
  O  O38  1  0.08441100  0.25061900  0.65655000  1
  O  O39  1  0.32629000  0.48586700  0.83377700  1
  O  O40  1  0.37732900  0.51878100  0.17561600  1
  O  O41  1  0.18546200  0.32428000  0.83271800  1
  O  O42  1  0.32388300  0.33854000  0.47907400  1
  O  O43  1  0.33854000  0.32388300  0.97907400  1
  O  O44  1  0.51878100  0.37732900  0.67561600  1
  O  O45  1  0.32428000  0.18546200  0.33271800  1
  O  O46  1  0.48586700  0.32629000  0.33377700  1
  O  O47  1  0.25061900  0.08441100  0.15655000  1
  O  O48  1  0.21008500  0.99943900  0.74979700  1
  O  O49  1  0.24279400  0.00384600  0.93188100  1
  O  O50  1  0.38420200  0.09523200  0.67711700  1
  O  O51  1  0.48141500  0.18492200  0.82460100  1
  O  O52  1  0.66178300  0.25445800  0.16025300  1
  O  O53  1  0.52051600  0.09735000  0.17630500  1
  O  O54  1  0.75936200  0.24855100  0.93374800  1
  O  O55  1  0.66573200  0.07945500  0.66114300  1
  O  O56  1  0.76095700  0.99727200  0.43252200  1
  O  O57  1  0.78545900  0.00781300  0.25419400  1
loop_
_geom_bond_atom_site_label_1
_geom_bond_atom_site_label_2
_geom_bond_distance
_geom_bond_site_symmetry_2
Li0 O3 1.972852 1_555
Li0 O49 2.006159 1_564
Li0 O47 2.032640 1_565
Li0 O6 2.202494 1_555
Li1 O27 1.902359 1_555
Li1 O0 1.968033 1_555
Li1 O32 2.030607 1_555
Li1 O10 2.227593 1_555
Li2 O21 1.871080 1_555
Li2 O56 1.953001 1_555
Li2 O55 2.096525 1_565
Li2 O11 2.267052 1_555
Li3 O8 1.871080 1_555
Li3 O20 1.953001 1_554
Li3 O25 2.096525 1_655
Li3 O16 2.267052 1_555
Li4 O54 1.902359 1_554
Li4 O35 1.968033 1_555
Li4 O52 2.030607 1_555
Li4 O17 2.227593 1_555
Li5 O20 1.960702 1_455
Li5 O3 1.997376 1_556
Li5 O5 2.036534 1_555
Li5 O39 2.215322 1_555
Li6 O28 1.972852 1_555
Li6 O36 2.006159 1_655
Li6 O38 2.032640 1_655
Li6 O23 2.202494 1_555
Li7 O49 1.957345 1_555
Li7 O35 1.996013 1_456
Li7 O30 2.070593 1_455
Li7 O41 2.173541 1_555
Li8 O36 1.957345 1_555
Li8 O0 1.996013 1_545
Li8 O1 2.070593 1_545
Li8 O45 2.173541 1_555
Li9 O56 1.960702 1_545
Li9 O28 1.997376 1_555
Li9 O24 2.036534 1_555
Li9 O46 2.215322 1_555
O0 P13 1.504846 1_565
O1 P1 1.558526 1_555
O1 V5 1.955013 1_555
O2 P8 1.615497 1_555
O2 P1 1.619084 1_555
O3 P8 1.505481 1_555
O4 P0 1.548453 1_555
O4 V0 1.875304 1_565
O5 P0 1.543376 1_555
O5 V1 2.008635 1_555
O6 P4 1.585199 1_555
O6 V5 1.949727 1_555
O7 P2 1.526870 1_555
O7 V5 1.925405 1_555
O8 P15 1.470340 1_565
O9 P5 1.555722 1_555
O9 V0 1.869851 1_565
O10 P3 1.568103 1_555
O10 V1 1.987945 1_555
O11 P3 1.594824 1_555
O11 V0 1.943961 1_565
O12 P1 1.556540 1_555
O12 V4 1.856370 1_555
O13 P3 1.491879 1_555
O14 P4 1.491879 1_555
O15 P7 1.556540 1_555
O15 V1 1.856370 1_555
O16 P4 1.594824 1_555
O16 V2 1.943961 1_655
O17 P4 1.568103 1_555
O17 V4 1.987945 1_555
O18 P2 1.555722 1_555
O18 V2 1.869851 1_655
O19 P5 1.608733 1_455
O19 P6 1.623855 1_555
O20 P5 1.498538 1_555
O21 P6 1.470340 1_655
O22 P5 1.526870 1_555
O22 V3 1.925405 1_555
O23 P3 1.585199 1_555
O23 V3 1.949727 1_555
O24 P9 1.543376 1_555
O24 V4 2.008635 1_555
O25 P8 1.557365 1_555
O25 V2 1.966238 1_555
O26 P9 1.548453 1_555
O26 V2 1.875304 1_655
O27 P1 1.477215 1_555
O28 P14 1.505481 1_555
O29 P6 1.558271 1_555
O29 V3 1.858991 1_455
O30 P7 1.558526 1_555
O30 V3 1.955013 1_555
O31 P14 1.615497 1_555
O31 P7 1.619084 1_555
O32 P6 1.556933 1_555
O32 V1 1.966331 1_555
O33 P12 1.611315 1_555
O33 V2 1.836454 1_555
O34 P10 1.537932 1_555
O34 V2 1.911090 1_555
O35 P10 1.504846 1_655
O36 P9 1.502294 1_455
O37 P9 1.616839 1_555
O37 P10 1.625653 1_655
O38 P13 1.543377 1_555
O38 V3 1.995546 1_455
O39 P11 1.579249 1_555
O39 V1 1.961276 1_555
O40 P8 1.527762 1_555
O40 V4 1.926612 1_555
O41 P11 1.563561 1_555
O41 V3 2.000353 1_455
O42 P12 1.487553 1_555
O43 P11 1.487553 1_555
O44 P14 1.527762 1_555
O44 V1 1.926612 1_555
O45 P12 1.563561 1_555
O45 V5 2.000353 1_545
O46 P12 1.579249 1_555
O46 V4 1.961276 1_555
O47 P10 1.543377 1_555
O47 V5 1.995546 1_545
O48 P0 1.616839 1_555
O48 P13 1.625653 1_565
O49 P0 1.502294 1_545
O50 P13 1.537932 1_555
O50 V0 1.911090 1_555
O51 P11 1.611315 1_555
O51 V0 1.836454 1_555
O52 P15 1.556933 1_555
O52 V4 1.966331 1_555
O53 P15 1.558271 1_555
O53 V5 1.858991 1_545
O54 P7 1.477215 1_555
O55 P14 1.557365 1_555
O55 V0 1.966238 1_555
O56 P2 1.498538 1_555
O57 P2 1.608733 1_545
O57 P15 1.623855 1_555
