# generated using pymatgen
data_LiMn4O8
_symmetry_space_group_name_H-M   'P 1'
_cell_length_a   5.86298827
_cell_length_b   5.86298827
_cell_length_c   5.83028126
_cell_angle_alpha   62.42887796
_cell_angle_beta   62.42887796
_cell_angle_gamma   59.90654011
_symmetry_Int_Tables_number   1
_chemical_formula_structural   LiMn4O8
_chemical_formula_sum   'Li1 Mn4 O8'
_cell_volume   146.58476204
_cell_formula_units_Z   1
loop_
 _symmetry_equiv_pos_site_id
 _symmetry_equiv_pos_as_xyz
  1  'x, y, z'
loop_
 _atom_site_type_symbol
 _atom_site_label
 _atom_site_symmetry_multiplicity
 _atom_site_fract_x
 _atom_site_fract_y
 _atom_site_fract_z
 _atom_site_occupancy
  Li  Li0  1  0.00000000  0.00000000  0.00000000  1
  Mn  Mn0  1  0.50000000  0.50000000  0.50000000  1
  Mn  Mn1  1  0.00000000  0.50000000  0.00000000  1
  Mn  Mn2  1  0.50000000  0.00000000  0.00000000  1
  Mn  Mn3  1  0.50000000  0.50000000  0.00000000  1
  O  O0  1  0.69914600  0.25372400  0.77624400  1
  O  O1  1  0.27368700  0.27368700  0.19990600  1
  O  O2  1  0.23756600  0.23756600  0.79997000  1
  O  O3  1  0.25372400  0.69914600  0.77624400  1
  O  O4  1  0.72631300  0.72631300  0.80009400  1
  O  O5  1  0.30085400  0.74627600  0.22375600  1
  O  O6  1  0.74627600  0.30085400  0.22375600  1
  O  O7  1  0.76243400  0.76243400  0.20003000  1
loop_
_geom_bond_atom_site_label_1
_geom_bond_atom_site_label_2
_geom_bond_distance
_geom_bond_site_symmetry_2
Li0 O2 2.044080 1_554
Li0 O7 2.044080 1_445
Li0 O6 2.174504 1_455
Li0 O5 2.174504 1_545
Li0 O0 2.174504 1_454
Li0 O3 2.174504 1_544
Mn0 O0 1.984815 1_555
Mn0 O3 1.984815 1_555
Mn0 O5 1.984815 1_555
Mn0 O6 1.984815 1_555
Mn0 O7 2.277202 1_555
Mn0 O2 2.277202 1_555
Mn1 O2 1.917239 1_554
Mn1 O7 1.917239 1_455
Mn1 O3 1.952785 1_554
Mn1 O6 1.952785 1_455
Mn1 O1 1.964266 1_555
Mn1 O4 1.964266 1_454
Mn2 O7 1.917239 1_545
Mn2 O2 1.917239 1_554
Mn2 O0 1.952785 1_554
Mn2 O5 1.952785 1_545
Mn2 O1 1.964266 1_555
Mn2 O4 1.964266 1_544
Mn3 O1 1.944734 1_555
Mn3 O4 1.944734 1_554
Mn3 O5 1.947580 1_555
Mn3 O6 1.947580 1_555
Mn3 O3 1.947580 1_554
Mn3 O0 1.947580 1_554
