# generated using pymatgen
data_V3CrO10
_symmetry_space_group_name_H-M   'P 1'
_cell_length_a   8.01537910
_cell_length_b   8.01111721
_cell_length_c   8.01088471
_cell_angle_alpha   110.43880571
_cell_angle_beta   71.01991918
_cell_angle_gamma   71.01925530
_symmetry_Int_Tables_number   1
_chemical_formula_structural   V3CrO10
_chemical_formula_sum   'V6 Cr2 O20'
_cell_volume   395.98641528
_cell_formula_units_Z   2
loop_
 _symmetry_equiv_pos_site_id
 _symmetry_equiv_pos_as_xyz
  1  'x, y, z'
loop_
 _atom_site_type_symbol
 _atom_site_label
 _atom_site_symmetry_multiplicity
 _atom_site_fract_x
 _atom_site_fract_y
 _atom_site_fract_z
 _atom_site_occupancy
  V  V0  1  0.25050600  0.55903300  0.80815600  1
  V  V1  1  0.74917300  0.44179300  0.19122500  1
  V  V2  1  0.75096100  0.94021000  0.69077900  1
  V  V3  1  0.25000800  0.74984300  0.49990800  1
  V  V4  1  0.24999800  0.24996500  0.99989700  1
  V  V5  1  0.24948400  0.05865300  0.30966400  1
  Cr  Cr0  1  0.74986800  0.75102000  0.00063800  1
  Cr  Cr1  1  0.75007900  0.24961400  0.49975200  1
  O  O0  1  0.24986900  0.88143200  0.13349700  1
  O  O1  1  0.25021000  0.38317600  0.63120900  1
  O  O2  1  0.74802600  0.61871900  0.36859500  1
  O  O3  1  0.75204200  0.11647200  0.86672400  1
  O  O4  1  0.75169500  0.75050600  0.78408000  1
  O  O5  1  0.74808400  0.25225800  0.28605800  1
  O  O6  1  0.53364100  0.96417500  0.21612200  1
  O  O7  1  0.53362300  0.46573300  0.71395800  1
  O  O8  1  0.96636100  0.74962600  0.99759900  1
  O  O9  1  0.96638900  0.24755500  0.49953400  1
  O  O10  1  0.74793500  0.53645100  0.00253800  1
  O  O11  1  0.75204800  0.03388900  0.50020700  1
  O  O12  1  0.25033300  0.96716800  0.49930900  1
  O  O13  1  0.24968800  0.46716200  0.99801000  1
  O  O14  1  0.03207200  0.75062600  0.50042100  1
  O  O15  1  0.03086400  0.25208300  0.00222200  1
  O  O16  1  0.46793300  0.53242900  0.28273300  1
  O  O17  1  0.46902800  0.03332800  0.78290000  1
  O  O18  1  0.24981300  0.74945100  0.71751000  1
  O  O19  1  0.25027200  0.24762900  0.21675500  1
loop_
_geom_bond_atom_site_label_1
_geom_bond_atom_site_label_2
_geom_bond_distance
_geom_bond_site_symmetry_2
Cr0 O6 1.723239 1_555
Cr0 O8 1.723838 1_554
Cr0 O4 1.728665 1_554
Cr0 O10 1.729353 1_555
Cr1 O11 1.724421 1_555
Cr1 O5 1.724570 1_555
Cr1 O9 1.727937 1_555
Cr1 O7 1.728220 1_555
O0 V5 1.613156 1_565
O1 V0 1.613599 1_555
O2 V1 1.613826 1_555
O3 V2 1.614459 1_545
O4 V2 1.912761 1_555
O5 V1 1.921627 1_555
O6 V5 1.922048 1_565
O7 V0 1.914839 1_555
O8 V0 1.921672 1_655
O9 V5 1.914712 1_655
O10 V1 1.914505 1_555
O11 V2 1.920867 1_545
O12 V3 1.743543 1_555
O12 V5 1.904297 1_565
O13 V4 1.744530 1_555
O13 V0 1.906119 1_555
O14 V3 1.743471 1_555
O14 V2 1.905356 1_455
O15 V4 1.744946 1_554
O15 V1 1.907127 1_455
O16 V3 1.743383 1_555
O16 V1 1.906519 1_555
O17 V4 1.744067 1_555
O17 V2 1.908383 1_545
O18 V3 1.743777 1_555
O18 V0 1.903975 1_555
O19 V4 1.744553 1_554
O19 V5 1.906839 1_555
