# generated using pymatgen
data_Li2Th5OF22
_symmetry_space_group_name_H-M   'P 1'
_cell_length_a   11.33765700
_cell_length_b   11.33765700
_cell_length_c   6.87766500
_cell_angle_alpha   90.00000000
_cell_angle_beta   90.00000000
_cell_angle_gamma   90.00000000
_symmetry_Int_Tables_number   1
_chemical_formula_structural   Li2Th5OF22
_chemical_formula_sum   'Li4 Th10 O2 F44'
_cell_volume   884.07202114
_cell_formula_units_Z   2
loop_
 _symmetry_equiv_pos_site_id
 _symmetry_equiv_pos_as_xyz
  1  'x, y, z'
loop_
 _atom_site_type_symbol
 _atom_site_label
 _atom_site_symmetry_multiplicity
 _atom_site_fract_x
 _atom_site_fract_y
 _atom_site_fract_z
 _atom_site_occupancy
  Li  Li0  1  0.50000000  0.50000000  0.24959800  1
  Li  Li1  1  0.00000000  0.00000000  0.75040200  1
  Li  Li2  1  0.50000000  0.50000000  0.75040200  1
  Li  Li3  1  0.00000000  0.00000000  0.24959800  1
  Th  Th0  1  0.34556600  0.65443400  0.50000000  1
  Th  Th1  1  0.65443400  0.34556600  0.50000000  1
  Th  Th2  1  0.84556600  0.84556600  0.50000000  1
  Th  Th3  1  0.15443400  0.15443400  0.50000000  1
  Th  Th4  1  0.15604400  0.84395600  0.00000000  1
  Th  Th5  1  0.84395600  0.15604400  0.00000000  1
  Th  Th6  1  0.65604400  0.65604400  0.00000000  1
  Th  Th7  1  0.34395600  0.34395600  0.00000000  1
  Th  Th8  1  0.00000000  0.50000000  0.25599200  1
  Th  Th9  1  0.50000000  0.00000000  0.74400800  1
  O  O0  1  0.00000000  0.50000000  0.69661300  1
  O  O1  1  0.50000000  0.00000000  0.30338700  1
  F  F0  1  0.08854500  0.65060800  0.06248300  1
  F  F1  1  0.91145500  0.34939200  0.06248300  1
  F  F2  1  0.58854500  0.84939200  0.93751600  1
  F  F3  1  0.41145500  0.15060800  0.93751600  1
  F  F4  1  0.65060800  0.08854500  0.93751600  1
  F  F5  1  0.34939200  0.91145500  0.93751600  1
  F  F6  1  0.84939200  0.58854500  0.06248300  1
  F  F7  1  0.15060800  0.41145500  0.06248300  1
  F  F8  1  0.99814100  0.83190600  0.24864200  1
  F  F9  1  0.00185900  0.16809400  0.24864200  1
  F  F10  1  0.49814100  0.66809400  0.75135800  1
  F  F11  1  0.50185900  0.33190600  0.75135800  1
  F  F12  1  0.83190600  0.99814100  0.75135800  1
  F  F13  1  0.16809400  0.00185900  0.75135800  1
  F  F14  1  0.66809400  0.49814100  0.24864200  1
  F  F15  1  0.33190600  0.50185900  0.24864200  1
  F  F16  1  0.50352500  0.67644300  0.25159400  1
  F  F17  1  0.49647500  0.32355700  0.25159400  1
  F  F18  1  0.00352500  0.82355700  0.74840600  1
  F  F19  1  0.99647500  0.17644300  0.74840600  1
  F  F20  1  0.67644300  0.50352500  0.74840600  1
  F  F21  1  0.32355700  0.49647500  0.74840600  1
  F  F22  1  0.82355700  0.00352500  0.25159400  1
  F  F23  1  0.17644300  0.99647500  0.25159400  1
  F  F24  1  0.15267100  0.59051000  0.44358000  1
  F  F25  1  0.84732900  0.40949000  0.44358000  1
  F  F26  1  0.65267100  0.90949000  0.55642000  1
  F  F27  1  0.34732900  0.09051000  0.55642000  1
  F  F28  1  0.59051000  0.15267100  0.55642000  1
  F  F29  1  0.40949000  0.84732900  0.55642000  1
  F  F30  1  0.90949000  0.65267100  0.44358000  1
  F  F31  1  0.09051000  0.34732900  0.44358000  1
  F  F32  1  0.26873200  0.76474600  0.24706800  1
  F  F33  1  0.73126800  0.23525400  0.24706800  1
  F  F34  1  0.76873200  0.73525400  0.75293200  1
  F  F35  1  0.23126800  0.26474600  0.75293200  1
  F  F36  1  0.76474600  0.26873200  0.75293200  1
  F  F37  1  0.23525400  0.73126800  0.75293200  1
  F  F38  1  0.73525400  0.76873200  0.24706800  1
  F  F39  1  0.26474600  0.23126800  0.24706800  1
  F  F40  1  0.50000000  0.50000000  0.00000000  1
  F  F41  1  0.00000000  0.00000000  0.00000000  1
  F  F42  1  0.50000000  0.50000000  0.50000000  1
  F  F43  1  0.00000000  0.00000000  0.50000000  1
loop_
_geom_bond_atom_site_label_1
_geom_bond_atom_site_label_2
_geom_bond_distance
_geom_bond_site_symmetry_2
F0 Th4 2.361290 1_555
F0 Th8 2.386371 1_555
F1 Th5 2.361290 1_555
F1 Th8 2.386371 1_655
F2 Th6 2.361291 1_556
F2 Th9 2.386368 1_565
F3 Th7 2.361291 1_556
F3 Th9 2.386368 1_555
F4 Th5 2.361291 1_556
F4 Th9 2.386368 1_555
F5 Th4 2.361291 1_556
F5 Th9 2.386368 1_565
F6 Th6 2.361290 1_555
F6 Th8 2.386371 1_655
F7 Th7 2.361290 1_555
F7 Th8 2.386371 1_555
F8 Li3 1.905920 1_665
F8 Th2 2.450498 1_555
F8 Th4 2.479520 1_655
F9 Li3 1.905920 1_555
F9 Th3 2.450498 1_555
F9 Th5 2.479520 1_455
F10 Li2 1.905920 1_555
F10 Th0 2.450498 1_555
F10 Th6 2.479520 1_556
F11 Li2 1.905920 1_555
F11 Th1 2.450498 1_555
F11 Th7 2.479520 1_556
F12 Li1 1.905920 1_665
F12 Th2 2.450498 1_555
F12 Th5 2.479520 1_566
F13 Li1 1.905920 1_555
F13 Th3 2.450498 1_555
F13 Th4 2.479520 1_546
F14 Li0 1.905920 1_555
F14 Th1 2.450498 1_555
F14 Th6 2.479520 1_555
F15 Li0 1.905920 1_555
F15 Th0 2.450498 1_555
F15 Th7 2.479520 1_555
F16 Li0 2.000896 1_555
F16 Th6 2.457206 1_555
F16 Th0 2.487639 1_555
F17 Li0 2.000896 1_555
F17 Th7 2.457206 1_555
F17 Th1 2.487639 1_555
F18 Li1 2.000896 1_565
F18 Th4 2.457206 1_556
F18 Th2 2.487639 1_455
F19 Li1 2.000896 1_655
F19 Th5 2.457206 1_556
F19 Th3 2.487639 1_655
F20 Li2 2.000896 1_555
F20 Th6 2.457206 1_556
F20 Th1 2.487639 1_555
F21 Li2 2.000896 1_555
F21 Th7 2.457206 1_556
F21 Th0 2.487639 1_555
F22 Li3 2.000896 1_655
F22 Th5 2.457206 1_555
F22 Th2 2.487639 1_545
F23 Li3 2.000896 1_565
F23 Th4 2.457206 1_555
F23 Th3 2.487639 1_565
F24 Th0 2.336387 1_555
F24 Th8 2.390331 1_555
F25 Th1 2.336387 1_555
F25 Th8 2.390331 1_655
F26 Th2 2.336387 1_555
F26 Th9 2.390331 1_565
F27 Th3 2.336387 1_555
F27 Th9 2.390331 1_555
F28 Th1 2.336387 1_555
F28 Th9 2.390331 1_555
F29 Th0 2.336387 1_555
F29 Th9 2.390331 1_565
F30 Th2 2.336387 1_555
F30 Th8 2.390331 1_655
F31 Th3 2.336387 1_555
F31 Th8 2.390331 1_555
F32 Th4 2.307870 1_555
F32 Th0 2.312831 1_555
F33 Th5 2.307870 1_555
F33 Th1 2.312831 1_555
F34 Th6 2.307870 1_556
F34 Th2 2.312831 1_555
F35 Th7 2.307870 1_556
F35 Th3 2.312831 1_555
F36 Th5 2.307870 1_556
F36 Th1 2.312831 1_555
F37 Th4 2.307870 1_556
F37 Th0 2.312831 1_555
F38 Th6 2.307870 1_555
F38 Th2 2.312831 1_555
F39 Th7 2.307870 1_555
F39 Th3 2.312831 1_555
F40 Li2 1.716651 1_554
F40 Li0 1.716651 1_555
F40 Th6 2.501989 1_555
F40 Th7 2.501989 1_555
F41 Li1 1.716651 1_554
F41 Li3 1.716651 1_555
F41 Th5 2.501989 1_455
F41 Th4 2.501989 1_545
F42 Li0 1.722181 1_555
F42 Li2 1.722181 1_555
F42 Th0 2.476174 1_555
F42 Th1 2.476174 1_555
F43 Li1 1.722181 1_555
F43 Li3 1.722181 1_555
F43 Th3 2.476174 1_555
F43 Th2 2.476174 1_445
