# generated using pymatgen
data_Li2MnV3O8
_symmetry_space_group_name_H-M   'P 1'
_cell_length_a   5.96385275
_cell_length_b   5.96385275
_cell_length_c   5.96385306
_cell_angle_alpha   59.36382504
_cell_angle_beta   59.36382504
_cell_angle_gamma   59.36382465
_symmetry_Int_Tables_number   1
_chemical_formula_structural   Li2MnV3O8
_chemical_formula_sum   'Li2 Mn1 V3 O8'
_cell_volume   147.81928720
_cell_formula_units_Z   1
loop_
 _symmetry_equiv_pos_site_id
 _symmetry_equiv_pos_as_xyz
  1  'x, y, z'
loop_
 _atom_site_type_symbol
 _atom_site_label
 _atom_site_symmetry_multiplicity
 _atom_site_fract_x
 _atom_site_fract_y
 _atom_site_fract_z
 _atom_site_occupancy
  Li  Li0  1  0.87235000  0.87235000  0.87235000  1
  Li  Li1  1  0.12765000  0.12765000  0.12765000  1
  Mn  Mn0  1  0.50000000  0.50000000  0.50000000  1
  V  V0  1  0.50000000  0.00000000  0.50000000  1
  V  V1  1  0.50000000  0.50000000  0.00000000  1
  V  V2  1  0.00000000  0.50000000  0.50000000  1
  O  O0  1  0.73646600  0.73646600  0.73646600  1
  O  O1  1  0.28607500  0.73293700  0.73293700  1
  O  O2  1  0.73293700  0.73293700  0.28607500  1
  O  O3  1  0.73293700  0.28607500  0.73293700  1
  O  O4  1  0.26706300  0.71392500  0.26706300  1
  O  O5  1  0.26706300  0.26706300  0.71392500  1
  O  O6  1  0.71392500  0.26706300  0.26706300  1
  O  O7  1  0.26353400  0.26353400  0.26353400  1
loop_
_geom_bond_atom_site_label_1
_geom_bond_atom_site_label_2
_geom_bond_distance
_geom_bond_site_symmetry_2
Li0 O0 1.994538 1_555
Li0 O1 1.998383 1_655
Li0 O3 1.998383 1_565
Li0 O2 1.998383 1_556
Li1 O7 1.994538 1_555
Li1 O4 1.998383 1_545
Li1 O6 1.998383 1_455
Li1 O5 1.998383 1_554
Mn0 O2 1.960016 1_555
Mn0 O5 1.960016 1_555
Mn0 O3 1.960016 1_555
Mn0 O1 1.960016 1_555
Mn0 O4 1.960016 1_555
Mn0 O6 1.960016 1_555
O0 V1 1.989173 1_556
O0 V2 1.989173 1_655
O0 V0 1.989173 1_565
O1 V0 2.025825 1_565
O1 V1 2.025825 1_556
O2 V0 2.025825 1_565
O2 V2 2.025825 1_655
O3 V2 2.025825 1_655
O3 V1 2.025825 1_556
O4 V2 2.025825 1_555
O4 V1 2.025825 1_555
O5 V2 2.025825 1_555
O5 V0 2.025825 1_555
O6 V0 2.025825 1_555
O6 V1 2.025825 1_555
O7 V1 1.989173 1_555
O7 V0 1.989173 1_555
O7 V2 1.989173 1_555
