# generated using pymatgen
data_Cr11Ni40Mo9
_symmetry_space_group_name_H-M   'P 1'
_cell_length_a   7.65120187
_cell_length_b   11.26537553
_cell_length_c   16.83390571
_cell_angle_alpha   72.91170637
_cell_angle_beta   81.45854397
_cell_angle_gamma   85.34477735
_symmetry_Int_Tables_number   1
_chemical_formula_structural   Cr11Ni40Mo9
_chemical_formula_sum   'Cr22 Ni80 Mo18'
_cell_volume   1370.45637763
_cell_formula_units_Z   2
loop_
 _symmetry_equiv_pos_site_id
 _symmetry_equiv_pos_as_xyz
  1  'x, y, z'
loop_
 _atom_site_type_symbol
 _atom_site_label
 _atom_site_symmetry_multiplicity
 _atom_site_fract_x
 _atom_site_fract_y
 _atom_site_fract_z
 _atom_site_occupancy
  Cr  Cr0  1  0.79823858  0.90271081  0.79844135  1
  Cr  Cr1  1  0.45210151  0.59767086  0.95156308  1
  Cr  Cr2  1  0.05093471  0.89802308  0.55113285  1
  Cr  Cr3  1  0.14844182  0.70330784  0.64851827  1
  Cr  Cr4  1  0.79988966  0.40033982  0.80025660  1
  Cr  Cr5  1  0.30075531  0.90015184  0.29993411  1
  Cr  Cr6  1  0.84784397  0.80275456  0.34841769  1
  Cr  Cr7  1  0.50014279  0.49977051  0.49943976  1
  Cr  Cr8  1  0.25033942  0.99896687  0.74997263  1
  Cr  Cr9  1  0.70198060  0.09684517  0.70134668  1
  Cr  Cr10  1  0.55156311  0.89683500  0.05175367  1
  Cr  Cr11  1  0.20185624  0.59698671  0.20131990  1
  Cr  Cr12  1  0.65011016  0.69964338  0.15017591  1
  Cr  Cr13  1  0.30064863  0.40010053  0.29973507  1
  Cr  Cr14  1  0.74953883  0.49960926  0.24995317  1
  Cr  Cr15  1  0.40022967  0.20003370  0.39963126  1
  Cr  Cr16  1  0.84831863  0.30228167  0.34859773  1
  Cr  Cr17  1  0.49913017  0.00272752  0.49838180  1
  Cr  Cr18  1  0.99923375  0.49992489  0.00044251  1
  Cr  Cr19  1  0.54955590  0.40060928  0.05024179  1
  Cr  Cr20  1  0.64964378  0.20016350  0.15052416  1
  Cr  Cr21  1  0.74975609  0.99997062  0.25029541  1
  Ni  Ni0  1  0.64994065  0.70062381  0.81686828  1
  Ni  Ni1  1  0.09924242  0.80067132  0.76493534  1
  Ni  Ni2  1  0.74900852  0.49874466  0.91677429  1
  Ni  Ni3  1  0.20085361  0.59852290  0.86790239  1
  Ni  Ni4  1  0.34685297  0.80164629  0.51691874  1
  Ni  Ni5  1  0.44875974  0.59968605  0.61451653  1
  Ni  Ni6  1  0.90413360  0.70139806  0.56641100  1
  Ni  Ni7  1  0.55222777  0.39929107  0.71673138  1
  Ni  Ni8  1  0.99963042  0.50011778  0.66661561  1
  Ni  Ni9  1  0.65225234  0.19974035  0.81463558  1
  Ni  Ni10  1  0.09772570  0.30038808  0.76602798  1
  Ni  Ni11  1  0.74892904  0.99720437  0.91577509  1
  Ni  Ni12  1  0.20083951  0.09814144  0.86455437  1
  Ni  Ni13  1  0.60152209  0.80067333  0.26587289  1
  Ni  Ni14  1  0.69959912  0.59906607  0.36558654  1
  Ni  Ni15  1  0.14990343  0.70104938  0.31465009  1
  Ni  Ni16  1  0.35249634  0.29992709  0.51449433  1
  Ni  Ni17  1  0.79769550  0.39920525  0.46470594  1
  Ni  Ni18  1  0.25359564  0.49890874  0.41522169  1
  Ni  Ni19  1  0.45227571  0.09716297  0.61642445  1
  Ni  Ni20  1  0.89856823  0.19824287  0.56712813  1
  Ni  Ni21  1  0.55149091  0.90181782  0.71663899  1
  Ni  Ni22  1  0.99826863  0.99824461  0.66667518  1
  Ni  Ni23  1  0.40348323  0.69894482  0.06658675  1
  Ni  Ni24  1  0.84607675  0.79866262  0.01756992  1
  Ni  Ni25  1  0.49982170  0.50001263  0.16661913  1
  Ni  Ni26  1  0.94831716  0.59751094  0.11692806  1
  Ni  Ni27  1  0.59971432  0.30020227  0.26668961  1
  Ni  Ni28  1  0.04969104  0.40069438  0.21756974  1
  Ni  Ni29  1  0.69802762  0.10003259  0.36595059  1
  Ni  Ni30  1  0.15140879  0.20175006  0.31646616  1
  Ni  Ni31  1  0.80004572  0.89947137  0.46554633  1
  Ni  Ni32  1  0.25279154  0.99934549  0.41592558  1
  Ni  Ni33  1  0.30115423  0.40226114  0.96673503  1
  Ni  Ni34  1  0.40374230  0.20135810  0.06653342  1
  Ni  Ni35  1  0.84660417  0.30089890  0.01737479  1
  Ni  Ni36  1  0.50261516  0.99902197  0.16669149  1
  Ni  Ni37  1  0.94602460  0.09913457  0.11759551  1
  Ni  Ni38  1  0.04781969  0.89883192  0.21790793  1
  Ni  Ni39  1  0.30253421  0.89877571  0.96666994  1
  Ni  Ni40  1  0.39746637  0.70126336  0.73309821  1
  Ni  Ni41  1  0.85286799  0.80182801  0.68389062  1
  Ni  Ni42  1  0.50213540  0.50114510  0.83516211  1
  Ni  Ni43  1  0.95003553  0.60014277  0.78335581  1
  Ni  Ni44  1  0.09900476  0.80304524  0.43310982  1
  Ni  Ni45  1  0.20199748  0.60114716  0.53468523  1
  Ni  Ni46  1  0.64950615  0.69999253  0.48298635  1
  Ni  Ni47  1  0.30214999  0.40110078  0.63286720  1
  Ni  Ni48  1  0.74712930  0.50091349  0.58302687  1
  Ni  Ni49  1  0.40170508  0.19792243  0.73383044  1
  Ni  Ni50  1  0.84780299  0.29990491  0.68550044  1
  Ni  Ni51  1  0.50227872  0.00068266  0.83186748  1
  Ni  Ni52  1  0.94817457  0.09753131  0.78334492  1
  Ni  Ni53  1  0.35275685  0.80004289  0.18434221  1
  Ni  Ni54  1  0.45070010  0.59927757  0.28213101  1
  Ni  Ni55  1  0.89756512  0.69872315  0.23465673  1
  Ni  Ni56  1  0.10151702  0.30068141  0.43205553  1
  Ni  Ni57  1  0.54998785  0.40031705  0.38321043  1
  Ni  Ni58  1  0.00095894  0.49920317  0.33229175  1
  Ni  Ni59  1  0.20281699  0.09889613  0.53265252  1
  Ni  Ni60  1  0.64778550  0.19949645  0.48235276  1
  Ni  Ni61  1  0.29691906  0.90119802  0.63364643  1
  Ni  Ni62  1  0.75027663  0.00088135  0.58412841  1
  Ni  Ni63  1  0.15077562  0.69797278  0.98418874  1
  Ni  Ni64  1  0.59941444  0.80053296  0.93440758  1
  Ni  Ni65  1  0.25160285  0.50199433  0.08348232  1
  Ni  Ni66  1  0.69859088  0.59877345  0.03443984  1
  Ni  Ni67  1  0.35349724  0.30191778  0.18393338  1
  Ni  Ni68  1  0.79666586  0.40068162  0.13394244  1
  Ni  Ni69  1  0.45241533  0.10015533  0.28395829  1
  Ni  Ni70  1  0.89567295  0.20026132  0.23488234  1
  Ni  Ni71  1  0.55146034  0.90160111  0.38319435  1
  Ni  Ni72  1  0.99855263  0.99833626  0.33345624  1
  Ni  Ni73  1  0.04637155  0.40210775  0.88491329  1
  Ni  Ni74  1  0.14952303  0.20074236  0.98423546  1
  Ni  Ni75  1  0.60062362  0.30252559  0.93408930  1
  Ni  Ni76  1  0.25237537  0.99956237  0.08436412  1
  Ni  Ni77  1  0.69800690  0.09985787  0.03549369  1
  Ni  Ni78  1  0.79603525  0.89940167  0.13502150  1
  Ni  Ni79  1  0.04902527  0.90093482  0.88233478  1
  Mo  Mo0  1  0.34978844  0.80017536  0.84991974  1
  Mo  Mo1  1  0.89976526  0.69971475  0.90024023  1
  Mo  Mo2  1  0.59814647  0.80402067  0.59816618  1
  Mo  Mo3  1  0.24851891  0.50421106  0.74813862  1
  Mo  Mo4  1  0.70140582  0.59707451  0.70172410  1
  Mo  Mo5  1  0.34996100  0.30029954  0.85013844  1
  Mo  Mo6  1  0.45266983  0.09618255  0.95188660  1
  Mo  Mo7  1  0.89717504  0.20382615  0.89815229  1
  Mo  Mo8  1  0.40002692  0.70020727  0.39962908  1
  Mo  Mo9  1  0.04976819  0.40003641  0.54967195  1
  Mo  Mo10  1  0.94898822  0.60404553  0.44743088  1
  Mo  Mo11  1  0.15250620  0.19539711  0.65167331  1
  Mo  Mo12  1  0.59995301  0.29970991  0.59954233  1
  Mo  Mo13  1  0.10157857  0.79545103  0.10250026  1
  Mo  Mo14  1  0.95037233  0.09959167  0.44973789  1
  Mo  Mo15  1  0.09746402  0.30475095  0.09867955  1
  Mo  Mo16  1  0.20235333  0.09647527  0.20228542  1
  Mo  Mo17  1  0.99947344  0.99932274  0.00045197  1
loop_
_geom_bond_atom_site_label_1
_geom_bond_atom_site_label_2
_geom_bond_distance
_geom_bond_site_symmetry_2
Cr0 Cr9 2.447913 1_565
Cr0 Ni11 2.475074 1_555
Cr0 Ni41 2.481166 1_555
Cr0 Ni52 2.488322 1_565
Cr0 Ni51 2.498657 1_565
Cr0 Ni21 2.498817 1_555
Cr0 Ni22 2.505341 1_555
Cr0 Ni79 2.541428 1_655
Cr0 Ni0 2.542879 1_555
Cr0 Ni1 2.551268 1_655
Cr0 Mo1 2.563917 1_555
Cr0 Ni64 2.565062 1_555
Cr1 Ni42 2.475960 1_555
Cr1 Cr19 2.485094 1_556
Cr1 Ni23 2.490918 1_556
Cr1 Ni33 2.497946 1_555
Cr1 Ni65 2.509260 1_556
Cr1 Ni66 2.509762 1_556
Cr1 Ni2 2.514552 1_555
Cr1 Ni63 2.541551 1_555
Cr1 Ni3 2.544051 1_555
Cr1 Ni0 2.549051 1_555
Cr1 Ni64 2.551476 1_555
Cr1 Mo0 2.561016 1_555
Cr2 Cr3 2.457657 1_555
Cr2 Ni44 2.489133 1_555
Cr2 Ni22 2.490809 1_455
Cr2 Ni6 2.493478 1_455
Cr2 Ni4 2.493576 1_555
Cr2 Ni61 2.507901 1_555
Cr2 Ni41 2.510508 1_455
Cr2 Ni59 2.544350 1_565
Cr2 Mo14 2.547630 1_465
Cr2 Ni62 2.551280 1_465
Cr2 Ni31 2.561945 1_455
Cr2 Ni32 2.565892 1_555
Cr3 Ni45 2.480069 1_555
Cr3 Ni1 2.482436 1_555
Cr3 Ni6 2.489273 1_455
Cr3 Ni4 2.504242 1_555
Cr3 Ni41 2.506331 1_455
Cr3 Mo3 2.514241 1_555
Cr3 Ni61 2.514290 1_555
Cr3 Ni40 2.537229 1_555
Cr3 Ni43 2.553398 1_455
Cr3 Ni5 2.556707 1_555
Cr3 Ni8 2.557137 1_455
Cr4 Mo7 2.474594 1_555
Cr4 Ni50 2.480563 1_555
Cr4 Mo4 2.484098 1_555
Cr4 Ni2 2.491736 1_555
Cr4 Ni10 2.523404 1_655
Cr4 Ni7 2.524413 1_555
Cr4 Ni42 2.529731 1_555
Cr4 Ni75 2.531360 1_555
Cr4 Ni73 2.531598 1_655
Cr4 Ni43 2.532452 1_555
Cr4 Ni8 2.536060 1_555
Cr4 Ni9 2.540292 1_555
Cr5 Mo16 2.474098 1_565
Cr5 Ni32 2.489751 1_555
Cr5 Ni53 2.490663 1_555
Cr5 Mo8 2.519198 1_555
Cr5 Ni44 2.531860 1_555
Cr5 Ni15 2.536368 1_555
Cr5 Ni36 2.537509 1_555
Cr5 Ni13 2.539168 1_555
Cr5 Ni72 2.540137 1_455
Cr5 Ni71 2.541922 1_555
Cr5 Ni38 2.542175 1_555
Cr5 Ni69 2.543798 1_565
Cr6 Ni31 2.488424 1_555
Cr6 Ni38 2.492409 1_655
Cr6 Ni55 2.493146 1_555
Cr6 Ni72 2.499523 1_555
Cr6 Ni13 2.507505 1_555
Cr6 Mo10 2.509437 1_555
Cr6 Ni71 2.510777 1_555
Cr6 Ni46 2.549020 1_555
Cr6 Ni15 2.557308 1_655
Cr6 Ni44 2.557948 1_655
Cr6 Ni14 2.563339 1_555
Cr7 Ni5 2.481451 1_555
Cr7 Ni57 2.495243 1_555
Cr7 Ni48 2.521049 1_555
Cr7 Ni47 2.524030 1_555
Cr7 Mo12 2.524514 1_555
Cr7 Ni18 2.524666 1_555
Cr7 Mo8 2.525930 1_555
Cr7 Ni17 2.526588 1_555
Cr7 Ni16 2.530071 1_555
Cr7 Ni46 2.535268 1_555
Cr7 Ni14 2.536096 1_555
Cr7 Ni45 2.536401 1_555
Cr8 Ni12 2.468388 1_565
Cr8 Mo11 2.478386 1_565
Cr8 Ni61 2.484199 1_555
Cr8 Mo0 2.512829 1_555
Cr8 Ni79 2.523365 1_555
Cr8 Ni21 2.527716 1_555
Cr8 Ni1 2.528272 1_555
Cr8 Ni49 2.531500 1_565
Cr8 Ni51 2.535318 1_565
Cr8 Ni19 2.539511 1_565
Cr8 Ni52 2.541182 1_465
Cr8 Ni22 2.549226 1_455
Cr9 Ni9 2.477385 1_555
Cr9 Ni62 2.484183 1_555
Cr9 Ni51 2.491663 1_555
Cr9 Ni21 2.491846 1_545
Cr9 Ni52 2.496934 1_555
Cr9 Ni22 2.508548 1_545
Cr9 Ni20 2.534722 1_555
Cr9 Ni49 2.538122 1_555
Cr9 Ni19 2.549719 1_555
Cr9 Ni50 2.552664 1_555
Cr9 Mo12 2.564234 1_555
Cr10 Cr12 2.486883 1_555
Cr10 Ni64 2.488640 1_554
Cr10 Ni24 2.493252 1_555
Cr10 Ni36 2.496573 1_555
Cr10 Ni78 2.505174 1_555
Cr10 Ni23 2.512893 1_555
Cr10 Ni53 2.512948 1_555
Cr10 Mo6 2.515025 1_564
Cr10 Ni76 2.539855 1_555
Cr10 Ni39 2.543201 1_554
Cr10 Ni77 2.553094 1_565
Cr10 Ni11 2.554969 1_554
Cr11 Cr13 2.485135 1_555
Cr11 Ni65 2.486385 1_555
Cr11 Ni15 2.487054 1_555
Cr11 Mo13 2.503912 1_555
Cr11 Ni54 2.504855 1_555
Cr11 Ni58 2.505589 1_555
Cr11 Ni28 2.507583 1_555
Cr11 Ni25 2.511437 1_555
Cr11 Ni23 2.561372 1_555
Cr11 Ni26 2.567730 1_455
Cr11 Ni53 2.567851 1_555
Cr11 Ni55 2.570158 1_455
Cr12 Ni66 2.498538 1_555
Cr12 Ni13 2.499160 1_555
Cr12 Ni24 2.507862 1_555
Cr12 Ni54 2.517489 1_555
Cr12 Ni23 2.517634 1_555
Cr12 Cr14 2.520893 1_555
Cr12 Ni78 2.522218 1_555
Cr12 Ni53 2.522319 1_555
Cr12 Ni55 2.528887 1_555
Cr12 Ni25 2.532952 1_555
Cr12 Ni26 2.532968 1_555
Cr13 Ni18 2.479298 1_555
Cr13 Ni67 2.479401 1_555
Cr13 Ni30 2.514935 1_555
Cr13 Ni56 2.517952 1_555
Cr13 Cr15 2.522423 1_555
Cr13 Ni54 2.523262 1_555
Cr13 Ni58 2.524940 1_555
Cr13 Ni28 2.526157 1_555
Cr13 Ni27 2.526595 1_555
Cr13 Ni25 2.528317 1_555
Cr13 Ni57 2.532435 1_555
Cr14 Ni14 2.486310 1_555
Cr14 Ni68 2.488086 1_555
Cr14 Cr16 2.490181 1_555
Cr14 Ni26 2.520564 1_555
Cr14 Ni54 2.520888 1_555
Cr14 Ni55 2.523251 1_555
Cr14 Ni28 2.526386 1_655
Cr14 Ni27 2.527818 1_555
Cr14 Ni57 2.529749 1_555
Cr14 Ni58 2.531524 1_655
Cr14 Ni25 2.531706 1_555
Cr15 Ni16 2.478074 1_555
Cr15 Ni69 2.490151 1_555
Cr15 Cr17 2.491127 1_555
Cr15 Ni60 2.510669 1_555
Cr15 Ni30 2.520827 1_555
Cr15 Ni29 2.521343 1_555
Cr15 Ni59 2.523714 1_555
Cr15 Ni56 2.525782 1_555
Cr15 Ni27 2.528253 1_555
Cr15 Ni32 2.533132 1_545
Cr15 Ni57 2.537538 1_555
Cr16 Ni17 2.474509 1_555
Cr16 Ni70 2.477084 1_555
Cr16 Ni28 2.509743 1_655
Cr16 Ni27 2.514973 1_555
Cr16 Ni58 2.515555 1_655
Cr16 Ni57 2.518599 1_555
Cr16 Ni60 2.548457 1_555
Cr16 Ni30 2.552267 1_655
Cr16 Ni56 2.552466 1_655
Cr16 Ni29 2.555998 1_555
Cr16 Mo14 2.557946 1_555
Cr17 Ni19 2.485518 1_555
Cr17 Ni71 2.492317 1_545
Cr17 Ni59 2.495317 1_555
Cr17 Ni60 2.499337 1_555
Cr17 Mo2 2.509860 1_545
Cr17 Ni32 2.510072 1_545
Cr17 Ni29 2.512820 1_555
Cr17 Ni4 2.547785 1_545
Cr17 Ni31 2.554332 1_545
Cr17 Ni62 2.564414 1_555
Cr17 Ni61 2.568453 1_545
Cr18 Mo15 2.469426 1_655
Cr18 Ni73 2.472497 1_654
Cr18 Ni26 2.485142 1_555
Cr18 Mo1 2.522362 1_554
Cr18 Ni63 2.522676 1_654
Cr18 Ni3 2.528014 1_654
Cr18 Ni35 2.534279 1_555
Cr18 Ni66 2.535064 1_555
Cr18 Ni33 2.536491 1_654
Cr18 Ni2 2.542733 1_554
Cr18 Ni68 2.544129 1_555
Cr18 Ni65 2.551737 1_655
Cr19 Ni75 2.483841 1_554
Cr19 Ni25 2.497093 1_555
Cr19 Ni35 2.512109 1_555
Cr19 Ni34 2.512391 1_555
Cr19 Ni66 2.515695 1_555
Cr19 Ni67 2.519663 1_555
Cr19 Ni68 2.520372 1_555
Cr19 Ni33 2.522133 1_554
Cr19 Ni65 2.527579 1_555
Cr19 Ni2 2.528765 1_554
Cr19 Cr20 2.529492 1_555
Cr20 Ni77 2.483684 1_555
Cr20 Ni27 2.498686 1_555
Cr20 Ni34 2.512768 1_555
Cr20 Ni37 2.514631 1_555
Cr20 Ni67 2.518578 1_555
Cr20 Ni70 2.521001 1_555
Cr20 Ni35 2.522333 1_555
Cr20 Cr21 2.523773 1_545
Cr20 Ni69 2.524640 1_555
Cr20 Ni68 2.528757 1_555
Cr20 Ni36 2.536616 1_545
Cr21 Cr6 2.483650 1_555
Cr21 Ni78 2.489445 1_555
Cr21 Ni29 2.491244 1_565
Cr21 Ni37 2.510459 1_565
Cr21 Ni71 2.518466 1_555
Cr21 Ni69 2.519271 1_565
Cr21 Ni72 2.520823 1_555
Cr21 Ni36 2.521721 1_555
Cr21 Ni38 2.523935 1_655
Cr21 Ni13 2.524841 1_555
Cr21 Ni70 2.526591 1_565
Ni0 Ni42 2.515157 1_555
Ni0 Ni64 2.518374 1_555
Ni0 Ni21 2.530675 1_555
Ni0 Ni2 2.535006 1_555
Ni0 Ni43 2.537762 1_555
Ni0 Ni41 2.544910 1_555
Ni0 Ni40 2.553664 1_555
Ni1 Ni41 2.482831 1_455
Ni1 Ni22 2.494730 1_455
Ni1 Ni61 2.503749 1_555
Ni1 Ni40 2.514460 1_555
Ni1 Ni79 2.518927 1_555
Ni1 Ni43 2.530697 1_455
Ni1 Ni3 2.566712 1_555
Ni2 Ni75 2.488081 1_555
Ni2 Ni42 2.489334 1_555
Ni2 Ni73 2.495578 1_655
Ni2 Ni35 2.506070 1_556
Ni2 Ni66 2.521171 1_556
Ni2 Ni43 2.542867 1_555
Ni3 Ni33 2.487444 1_555
Ni3 Ni63 2.496074 1_555
Ni3 Ni73 2.515286 1_555
Ni3 Ni42 2.527533 1_555
Ni3 Ni40 2.545040 1_555
Ni3 Ni43 2.549342 1_455
Ni4 Ni61 2.503478 1_555
Ni4 Ni45 2.516031 1_555
Ni4 Ni44 2.522618 1_555
Ni4 Ni5 2.525746 1_555
Ni4 Ni71 2.556521 1_555
Ni4 Ni46 2.561454 1_555
Ni5 Ni7 2.552555 1_555
Ni6 Ni8 2.523919 1_555
Ni7 Ni9 2.504709 1_555
Ni10 Ni50 2.504044 1_455
Ni10 Ni8 2.512497 1_455
Ni10 Ni12 2.537810 1_555
Ni10 Ni47 2.551544 1_555
Ni10 Ni73 2.552215 1_555
Ni10 Ni52 2.559402 1_455
Ni10 Ni49 2.567692 1_555
Ni11 Ni64 2.492436 1_555
Ni11 Ni51 2.511051 1_565
Ni11 Ni79 2.517093 1_655
Ni11 Ni24 2.519438 1_556
Ni11 Ni52 2.522031 1_565
Ni11 Ni9 2.543417 1_565
Ni11 Ni77 2.571765 1_566
Ni12 Ni49 2.508019 1_555
Ni12 Ni79 2.509812 1_545
Ni12 Ni51 2.528748 1_555
Ni12 Ni52 2.529602 1_455
Ni12 Ni39 2.539551 1_545
Ni12 Ni74 2.570804 1_555
Ni13 Ni78 2.481750 1_555
Ni13 Ni36 2.502298 1_555
Ni13 Ni53 2.508070 1_555
Ni13 Ni55 2.510909 1_555
Ni13 Ni71 2.522751 1_555
Ni13 Ni14 2.529037 1_555
Ni13 Ni54 2.553475 1_555
Ni14 Ni55 2.498532 1_555
Ni14 Ni17 2.511298 1_555
Ni14 Ni57 2.517176 1_555
Ni14 Ni46 2.523918 1_555
Ni14 Ni54 2.528316 1_555
Ni14 Ni58 2.542031 1_655
Ni15 Ni38 2.487877 1_555
Ni15 Ni53 2.509261 1_555
Ni15 Ni55 2.518498 1_455
Ni15 Ni54 2.545021 1_555
Ni15 Ni58 2.545706 1_555
Ni15 Ni44 2.547894 1_555
Ni15 Ni18 2.553690 1_555
Ni16 Ni60 2.501805 1_555
Ni16 Ni57 2.502599 1_555
Ni16 Ni18 2.507771 1_555
Ni16 Ni56 2.528939 1_555
Ni16 Ni59 2.538497 1_555
Ni16 Ni47 2.540407 1_555
Ni16 Ni19 2.558781 1_555
Ni17 Ni57 2.496528 1_555
Ni17 Ni60 2.527902 1_555
Ni17 Ni58 2.536781 1_655
Ni17 Ni48 2.543644 1_555
Ni17 Ni56 2.549106 1_655
Ni17 Ni20 2.551751 1_555
Ni18 Ni57 2.499319 1_555
Ni18 Ni54 2.521250 1_555
Ni18 Ni56 2.524463 1_555
Ni18 Ni58 2.546201 1_555
Ni18 Ni45 2.564809 1_555
Ni19 Ni21 2.488473 1_545
Ni19 Ni62 2.499528 1_555
Ni19 Ni61 2.513564 1_545
Ni19 Ni49 2.522753 1_555
Ni19 Ni60 2.531491 1_555
Ni19 Ni59 2.531672 1_555
Ni20 Ni62 2.500322 1_555
Ni20 Ni22 2.519569 1_545
Ni20 Ni50 2.544068 1_555
Ni20 Ni60 2.552595 1_555
Ni20 Ni59 2.562394 1_655
Ni20 Ni56 2.571587 1_655
Ni21 Ni51 2.475770 1_565
Ni21 Ni62 2.517799 1_565
Ni21 Ni41 2.540792 1_555
Ni21 Ni40 2.556833 1_555
Ni21 Ni61 2.561647 1_555
Ni22 Ni41 2.478837 1_555
Ni22 Ni52 2.500617 1_565
Ni22 Ni62 2.506373 1_565
Ni22 Ni61 2.509998 1_655
Ni22 Ni59 2.561426 1_665
Ni23 Ni66 2.499374 1_555
Ni23 Ni25 2.506794 1_555
Ni23 Ni64 2.509815 1_554
Ni23 Ni65 2.510675 1_555
Ni23 Ni39 2.524252 1_554
Ni23 Ni53 2.530553 1_555
Ni23 Ni63 2.543941 1_554
Ni24 Ni64 2.506610 1_554
Ni24 Ni66 2.523134 1_555
Ni24 Ni78 2.523286 1_555
Ni24 Ni26 2.533366 1_555
Ni24 Ni63 2.567811 1_654
Ni24 Ni79 2.572956 1_654
Ni25 Ni54 2.483042 1_555
Ni25 Ni67 2.498962 1_555
Ni25 Ni68 2.508238 1_555
Ni25 Ni66 2.513232 1_555
Ni25 Ni65 2.516008 1_555
Ni25 Ni27 2.522585 1_555
Ni26 Ni68 2.508126 1_555
Ni26 Ni28 2.508293 1_655
Ni26 Ni66 2.520183 1_555
Ni26 Ni55 2.531010 1_555
Ni26 Ni65 2.534207 1_655
Ni26 Ni63 2.538431 1_654
Ni27 Ni67 2.499580 1_555
Ni27 Ni70 2.502451 1_555
Ni27 Ni57 2.504599 1_555
Ni27 Ni29 2.515254 1_555
Ni27 Ni68 2.517097 1_555
Ni27 Ni69 2.522565 1_555
Ni28 Ni58 2.465481 1_555
Ni28 Ni30 2.511810 1_555
Ni28 Ni70 2.552474 1_455
Ni28 Ni65 2.553513 1_555
Ni28 Ni67 2.553728 1_555
Ni28 Ni68 2.557236 1_455
Ni29 Ni69 2.491093 1_555
Ni29 Ni60 2.497922 1_555
Ni29 Ni70 2.500364 1_555
Ni29 Ni71 2.503544 1_545
Ni29 Ni31 2.530090 1_545
Ni29 Ni72 2.542821 1_545
Ni30 Ni56 2.481696 1_555
Ni30 Ni67 2.533897 1_555
Ni30 Ni32 2.541496 1_545
Ni30 Ni69 2.545446 1_555
Ni30 Ni70 2.555812 1_455
Ni30 Ni72 2.578995 1_445
Ni31 Ni44 2.506906 1_655
Ni31 Ni71 2.509227 1_555
Ni31 Ni72 2.511483 1_555
Ni31 Ni6 2.526442 1_555
Ni31 Ni46 2.528784 1_555
Ni31 Ni62 2.545341 1_565
Ni32 Ni4 2.499317 1_555
Ni32 Ni59 2.503458 1_565
Ni32 Ni44 2.510731 1_555
Ni32 Ni71 2.512410 1_555
Ni32 Ni69 2.519661 1_565
Ni32 Ni72 2.554691 1_455
Ni33 Ni65 2.505138 1_556
Ni33 Ni42 2.515475 1_555
Ni33 Ni75 2.526936 1_555
Ni33 Ni34 2.535664 1_556
Ni33 Ni73 2.548893 1_555
Ni33 Ni74 2.553320 1_555
Ni34 Ni77 2.496681 1_555
Ni34 Ni75 2.515286 1_554
Ni34 Ni67 2.521160 1_555
Ni34 Ni36 2.539898 1_545
Ni34 Ni74 2.551670 1_554
Ni34 Ni76 2.553894 1_545
Ni35 Ni68 2.502805 1_555
Ni35 Ni75 2.504239 1_554
Ni35 Ni73 2.526793 1_654
Ni35 Ni77 2.534560 1_555
Ni35 Ni37 2.537366 1_555
Ni35 Ni74 2.552909 1_654
Ni36 Ni78 2.484133 1_555
Ni36 Ni77 2.494714 1_565
Ni36 Ni53 2.520354 1_555
Ni36 Ni76 2.523475 1_555
Ni36 Ni69 2.523477 1_565
Ni37 Ni77 2.506234 1_555
Ni37 Ni70 2.523728 1_555
Ni37 Ni78 2.529242 1_545
Ni37 Ni38 2.532972 1_645
Ni37 Ni74 2.552483 1_654
Ni37 Ni76 2.572509 1_645
Ni38 Ni72 2.485391 1_455
Ni38 Ni55 2.536505 1_455
Ni38 Ni78 2.539553 1_455
Ni38 Ni76 2.556351 1_555
Ni38 Ni53 2.560823 1_555
Ni39 Ni64 2.501646 1_555
Ni39 Ni76 2.527292 1_556
Ni39 Ni63 2.546560 1_555
Ni39 Ni51 2.554739 1_565
Ni39 Ni79 2.562885 1_555
Ni40 Ni61 2.520508 1_555
Ni40 Ni5 2.546580 1_555
Ni40 Ni42 2.552453 1_555
Ni41 Ni6 2.521392 1_555
Ni41 Ni62 2.521427 1_565
Ni41 Ni43 2.525546 1_555
Ni42 Ni75 2.501381 1_555
Ni42 Ni7 2.546398 1_555
Ni43 Ni8 2.507223 1_555
Ni43 Ni73 2.511789 1_655
Ni44 Ni72 2.486885 1_455
Ni44 Ni6 2.518516 1_455
Ni44 Ni45 2.557667 1_555
Ni45 Ni5 2.471147 1_555
Ni45 Ni47 2.510882 1_555
Ni45 Ni6 2.515898 1_455
Ni45 Ni8 2.530657 1_455
Ni46 Ni48 2.511142 1_555
Ni46 Ni5 2.517869 1_555
Ni46 Ni71 2.529555 1_555
Ni46 Ni6 2.568811 1_555
Ni47 Ni5 2.501355 1_555
Ni47 Ni7 2.536480 1_555
Ni47 Ni8 2.547015 1_455
Ni47 Ni49 2.554052 1_555
Ni48 Ni5 2.511083 1_555
Ni48 Ni7 2.523115 1_555
Ni48 Ni8 2.551423 1_555
Ni48 Ni50 2.551992 1_555
Ni48 Ni6 2.567408 1_555
Ni49 Ni51 2.489499 1_555
Ni49 Ni9 2.514542 1_555
Ni49 Ni7 2.548948 1_555
Ni50 Ni9 2.470588 1_555
Ni50 Ni7 2.495219 1_555
Ni50 Ni52 2.526855 1_555
Ni50 Ni8 2.536116 1_555
Ni51 Ni9 2.523091 1_555
Ni51 Ni64 2.537252 1_545
Ni52 Ni79 2.492575 1_645
Ni52 Ni9 2.511704 1_555
Ni53 Ni54 2.507987 1_555
Ni53 Ni76 2.520921 1_555
Ni54 Ni57 2.522375 1_555
Ni55 Ni58 2.511122 1_655
Ni55 Ni78 2.530030 1_555
Ni56 Ni58 2.512212 1_555
Ni56 Ni59 2.545080 1_555
Ni57 Ni60 2.518063 1_555
Ni59 Ni61 2.499413 1_545
Ni60 Ni62 2.533375 1_555
Ni63 Ni65 2.490207 1_556
Ni63 Ni79 2.564644 1_555
Ni64 Ni66 2.535308 1_556
Ni65 Ni67 2.532574 1_555
Ni66 Ni68 2.500705 1_555
Ni67 Ni69 2.534633 1_555
Ni68 Ni70 2.531588 1_555
Ni69 Ni71 2.504617 1_545
Ni70 Ni72 2.535095 1_545
Ni73 Ni74 2.537061 1_555
Ni74 Ni76 2.540925 1_546
Ni75 Ni77 2.548146 1_556
Ni75 Ni9 2.568774 1_555
Ni77 Ni78 2.518733 1_545
Mo0 Ni39 2.496773 1_555
Mo0 Ni40 2.500158 1_555
Mo0 Ni0 2.531880 1_555
Mo0 Ni79 2.539434 1_555
Mo0 Ni3 2.542503 1_555
Mo0 Ni51 2.544563 1_565
Mo0 Ni21 2.544636 1_555
Mo0 Ni64 2.546024 1_555
Mo0 Ni63 2.546732 1_555
Mo0 Ni1 2.555332 1_555
Mo1 Ni43 2.505988 1_555
Mo1 Ni24 2.508166 1_556
Mo1 Ni0 2.531559 1_555
Mo1 Ni79 2.539672 1_655
Mo1 Ni3 2.543373 1_655
Mo1 Ni64 2.543500 1_555
Mo1 Ni63 2.543561 1_655
Mo1 Ni2 2.547914 1_555
Mo1 Ni66 2.550944 1_556
Mo1 Ni1 2.556867 1_655
Mo2 Ni46 2.514268 1_555
Mo2 Ni21 2.516876 1_555
Mo2 Ni62 2.521554 1_565
Mo2 Ni31 2.522111 1_555
Mo2 Ni4 2.525691 1_555
Mo2 Ni61 2.536312 1_555
Mo2 Ni40 2.562081 1_555
Mo2 Ni5 2.577251 1_555
Mo2 Ni6 2.579818 1_555
Mo2 Ni41 2.586130 1_555
Mo2 Mo4 2.611512 1_555
Mo3 Ni40 2.507048 1_555
Mo3 Ni47 2.508748 1_555
Mo3 Ni3 2.510774 1_555
Mo3 Ni43 2.511706 1_455
Mo3 Ni8 2.517848 1_455
Mo3 Ni5 2.527009 1_555
Mo3 Ni10 2.571872 1_555
Mo3 Mo5 2.572155 1_555
Mo3 Ni7 2.575424 1_555
Mo3 Ni73 2.586703 1_555
Mo3 Ni42 2.591619 1_555
Mo4 Ni48 2.508265 1_555
Mo4 Ni0 2.510075 1_555
Mo4 Ni8 2.514570 1_555
Mo4 Ni43 2.514654 1_555
Mo4 Ni7 2.515430 1_555
Mo4 Ni42 2.522245 1_555
Mo4 Ni40 2.573122 1_555
Mo4 Ni6 2.578534 1_555
Mo4 Ni41 2.584030 1_555
Mo4 Ni5 2.588637 1_555
Mo5 Ni49 2.518534 1_555
Mo5 Ni33 2.519704 1_555
Mo5 Ni7 2.541258 1_555
Mo5 Ni74 2.543318 1_555
Mo5 Ni75 2.551431 1_555
Mo5 Ni10 2.557320 1_555
Mo5 Ni42 2.558073 1_555
Mo5 Ni9 2.559679 1_555
Mo5 Ni12 2.561620 1_555
Mo5 Ni73 2.571346 1_555
Mo5 Mo6 2.575008 1_555
Mo6 Ni34 2.515148 1_556
Mo6 Ni11 2.515890 1_545
Mo6 Ni39 2.516255 1_545
Mo6 Ni76 2.517080 1_546
Mo6 Ni77 2.517503 1_556
Mo6 Ni51 2.523255 1_555
Mo6 Ni74 2.573344 1_555
Mo6 Ni9 2.586151 1_555
Mo6 Ni12 2.586477 1_555
Mo6 Ni75 2.586849 1_555
Mo7 Ni10 2.513970 1_655
Mo7 Ni9 2.514965 1_555
Mo7 Ni75 2.515666 1_555
Mo7 Ni35 2.522704 1_556
Mo7 Ni52 2.526167 1_555
Mo7 Ni73 2.527452 1_655
Mo7 Ni74 2.572867 1_655
Mo7 Ni77 2.586707 1_556
Mo7 Ni12 2.586875 1_655
Mo7 Ni11 2.591407 1_545
Mo8 Ni54 2.525418 1_555
Mo8 Ni4 2.526211 1_555
Mo8 Ni46 2.530917 1_555
Mo8 Ni18 2.538079 1_555
Mo8 Ni14 2.539671 1_555
Mo8 Ni45 2.543641 1_555
Mo8 Ni13 2.545980 1_555
Mo8 Ni15 2.551710 1_555
Mo8 Ni71 2.555180 1_555
Mo8 Ni44 2.555282 1_555
Mo9 Ni8 2.510704 1_455
Mo9 Ni56 2.515410 1_555
Mo9 Ni47 2.550955 1_555
Mo9 Ni20 2.554563 1_455
Mo9 Ni48 2.555416 1_455
Mo9 Ni18 2.558766 1_555
Mo9 Ni16 2.559006 1_555
Mo9 Ni45 2.560915 1_555
Mo9 Ni17 2.568236 1_455
Mo9 Ni50 2.570228 1_455
Mo10 Ni46 2.519491 1_555
Mo10 Ni58 2.519931 1_655
Mo10 Ni6 2.521470 1_555
Mo10 Ni15 2.523884 1_655
Mo10 Ni14 2.527061 1_555
Mo10 Ni44 2.533601 1_655
Mo10 Mo9 2.573065 1_655
Mo10 Ni48 2.575073 1_555
Mo10 Ni18 2.585059 1_655
Mo10 Ni17 2.586268 1_555
Mo10 Ni45 2.590779 1_655
Mo11 Ni10 2.509643 1_555
Mo11 Ni59 2.515432 1_555
Mo11 Ni49 2.522737 1_555
Mo11 Ni52 2.527250 1_455
Mo11 Ni22 2.529136 1_445
Mo11 Ni19 2.531202 1_555
Mo11 Ni20 2.566333 1_455
Mo11 Mo9 2.580951 1_555
Mo11 Ni47 2.583218 1_555
Mo11 Ni50 2.588366 1_455
Mo11 Ni16 2.589493 1_555
Mo12 Ni7 2.510713 1_555
Mo12 Ni60 2.515463 1_555
Mo12 Ni47 2.526966 1_555
Mo12 Ni20 2.529189 1_555
Mo12 Ni48 2.536520 1_555
Mo12 Ni16 2.537100 1_555
Mo12 Ni17 2.541153 1_555
Mo12 Ni49 2.542892 1_555
Mo12 Ni19 2.550673 1_555
Mo12 Ni50 2.551010 1_555
Mo13 Ni63 2.511924 1_554
Mo13 Ni38 2.512853 1_555
Mo13 Ni55 2.528466 1_455
Mo13 Ni26 2.535336 1_455
Mo13 Ni53 2.537457 1_555
Mo13 Ni23 2.539105 1_555
Mo13 Mo17 2.573892 1_455
Mo13 Ni76 2.573915 1_555
Mo13 Ni39 2.574740 1_554
Mo13 Ni24 2.579797 1_455
Mo13 Ni78 2.586206 1_455
Mo14 Ni20 2.506750 1_555
Mo14 Ni72 2.509655 1_545
Mo14 Ni31 2.540389 1_545
Mo14 Ni62 2.543139 1_555
Mo14 Ni30 2.543333 1_655
Mo14 Ni59 2.543799 1_655
Mo14 Ni56 2.546461 1_655
Mo14 Ni60 2.547679 1_555
Mo14 Ni32 2.552588 1_645
Mo14 Ni29 2.553521 1_555
Mo15 Ni74 2.503196 1_554
Mo15 Ni28 2.509424 1_555
Mo15 Ni68 2.526757 1_455
Mo15 Ni33 2.526798 1_554
Mo15 Ni35 2.527440 1_455
Mo15 Ni65 2.528903 1_555
Mo15 Ni70 2.585290 1_455
Mo15 Ni34 2.586830 1_555
Mo15 Ni67 2.587718 1_555
Mo15 Ni37 2.588823 1_455
Mo15 Mo16 2.626072 1_555
Mo16 Ni76 2.501819 1_545
Mo16 Ni30 2.508986 1_555
Mo16 Ni72 2.520298 1_445
Mo16 Ni69 2.525942 1_555
Mo16 Ni36 2.531890 1_545
Mo16 Ni38 2.532865 1_545
Mo16 Ni34 2.579793 1_555
Mo16 Ni37 2.583744 1_455
Mo16 Ni67 2.587910 1_555
Mo16 Ni70 2.592932 1_455
Mo17 Ni37 2.511809 1_565
Mo17 Ni79 2.515734 1_654
Mo17 Ni74 2.550872 1_664
Mo17 Ni77 2.552530 1_565
Mo17 Ni24 2.553001 1_555
Mo17 Ni39 2.558060 1_654
Mo17 Ni11 2.558579 1_554
Mo17 Ni76 2.560200 1_655
Mo17 Ni78 2.561256 1_555
Mo17 Ni12 2.565396 1_664
Mo17 Mo7 2.581065 1_564
