# generated using pymatgen
data_LiCo3O4
_symmetry_space_group_name_H-M   'P 1'
_cell_length_a   5.17936027
_cell_length_b   5.17936027
_cell_length_c   2.99422200
_cell_angle_alpha   90.00000000
_cell_angle_beta   90.00000000
_cell_angle_gamma   108.27060709
_symmetry_Int_Tables_number   1
_chemical_formula_structural   LiCo3O4
_chemical_formula_sum   'Li1 Co3 O4'
_cell_volume   76.27298435
_cell_formula_units_Z   1
loop_
 _symmetry_equiv_pos_site_id
 _symmetry_equiv_pos_as_xyz
  1  'x, y, z'
loop_
 _atom_site_type_symbol
 _atom_site_label
 _atom_site_symmetry_multiplicity
 _atom_site_fract_x
 _atom_site_fract_y
 _atom_site_fract_z
 _atom_site_occupancy
  Li  Li0  1  0.50000000  0.50000000  0.50000000  1
  Co  Co0  1  0.50000000  0.00000000  0.00000000  1
  Co  Co1  1  0.00000000  0.00000000  0.50000000  1
  Co  Co2  1  0.00000000  0.50000000  0.00000000  1
  O  O0  1  0.76657600  0.76657600  0.00000000  1
  O  O1  1  0.24251200  0.75748800  0.50000000  1
  O  O2  1  0.75748800  0.24251200  0.50000000  1
  O  O3  1  0.23342400  0.23342400  0.00000000  1
loop_
_geom_bond_atom_site_label_1
_geom_bond_atom_site_label_2
_geom_bond_distance
_geom_bond_site_symmetry_2
Li0 O2 2.161544 1_555
Li0 O1 2.161544 1_555
Li0 O0 2.204244 1_555
Li0 O0 2.204244 1_556
Li0 O3 2.204244 1_555
Li0 O3 2.204244 1_556
Co0 O3 2.101094 1_555
Co0 O0 2.101094 1_545
Co0 O2 2.132431 1_554
Co0 O2 2.132431 1_555
Co0 O1 2.132431 1_545
Co0 O1 2.132431 1_544
Co1 O2 2.035824 1_455
Co1 O1 2.035824 1_545
Co1 O3 2.061109 1_555
Co1 O3 2.061109 1_556
Co1 O0 2.061109 1_446
Co1 O0 2.061109 1_445
Co2 O3 2.101094 1_555
Co2 O0 2.101094 1_455
Co2 O1 2.132431 1_554
Co2 O1 2.132431 1_555
Co2 O2 2.132431 1_455
Co2 O2 2.132431 1_454
