# generated using pymatgen
data_Li3MnFe2(BO3)3
_symmetry_space_group_name_H-M   'P 1'
_cell_length_a   8.83059002
_cell_length_b   8.83059002
_cell_length_c   8.25457409
_cell_angle_alpha   62.26045831
_cell_angle_beta   62.26045831
_cell_angle_gamma   41.81544650
_symmetry_Int_Tables_number   1
_chemical_formula_structural   Li3MnFe2(BO3)3
_chemical_formula_sum   'Li6 Mn2 Fe4 B6 O18'
_cell_volume   372.09962129
_cell_formula_units_Z   2
loop_
 _symmetry_equiv_pos_site_id
 _symmetry_equiv_pos_as_xyz
  1  'x, y, z'
loop_
 _atom_site_type_symbol
 _atom_site_label
 _atom_site_symmetry_multiplicity
 _atom_site_fract_x
 _atom_site_fract_y
 _atom_site_fract_z
 _atom_site_occupancy
  Li  Li0  1  0.26015900  0.75693800  0.69855800  1
  Li  Li1  1  0.75693800  0.26015900  0.69855800  1
  Li  Li2  1  0.10057300  0.59793200  0.28415500  1
  Li  Li3  1  0.59793200  0.10057300  0.28415500  1
  Li  Li4  1  0.39318000  0.89223000  0.01597500  1
  Li  Li5  1  0.89223000  0.39318000  0.01597500  1
  Mn  Mn0  1  0.82048300  0.82048300  0.98738400  1
  Mn  Mn1  1  0.99383000  0.99383000  0.37116100  1
  Fe  Fe0  1  0.31916300  0.31916300  0.99253900  1
  Fe  Fe1  1  0.49620200  0.49620200  0.36846500  1
  Fe  Fe2  1  0.18311100  0.18311100  0.64125900  1
  Fe  Fe3  1  0.68409300  0.68409300  0.63992700  1
  B  B0  1  0.91653300  0.41673800  0.33487700  1
  B  B1  1  0.41673800  0.91653300  0.33487700  1
  B  B2  1  0.08542300  0.58013800  0.66607000  1
  B  B3  1  0.58013800  0.08542300  0.66607000  1
  B  B4  1  0.00134300  0.00134300  0.99923900  1
  B  B5  1  0.50002400  0.50002400  0.99975300  1
  O  O0  1  0.54304300  0.54304300  0.80587600  1
  O  O1  1  0.04134100  0.04134100  0.80491000  1
  O  O2  1  0.45983700  0.95978300  0.44299500  1
  O  O3  1  0.95978300  0.45983700  0.44299500  1
  O  O4  1  0.90429800  0.90429800  0.11305600  1
  O  O5  1  0.40261500  0.40261500  0.10750900  1
  O  O6  1  0.81590100  0.32319100  0.42063400  1
  O  O7  1  0.32319100  0.81590100  0.42063400  1
  O  O8  1  0.46733300  0.97378600  0.14056400  1
  O  O9  1  0.97378600  0.46733300  0.14056400  1
  O  O10  1  0.12682800  0.61993900  0.77940300  1
  O  O11  1  0.61993900  0.12682800  0.77940300  1
  O  O12  1  0.55395900  0.55395900  0.08698500  1
  O  O13  1  0.05869500  0.05869500  0.07837300  1
  O  O14  1  0.98590500  0.48601900  0.74613100  1
  O  O15  1  0.48601900  0.98590500  0.74613100  1
  O  O16  1  0.14303200  0.63638300  0.47242100  1
  O  O17  1  0.63638300  0.14303200  0.47242100  1
loop_
_geom_bond_atom_site_label_1
_geom_bond_atom_site_label_2
_geom_bond_distance
_geom_bond_site_symmetry_2
Li0 O10 1.983774 1_555
Li0 O7 1.993821 1_555
Li0 O1 2.012832 1_565
Li0 O0 2.015401 1_555
Li1 O11 1.983774 1_555
Li1 O6 1.993821 1_555
Li1 O1 2.012832 1_655
Li1 O0 2.015401 1_555
Li2 O16 1.973411 1_555
Li2 O3 2.001474 1_455
Li2 O4 2.012538 1_455
Li2 O5 2.019538 1_555
Li3 O17 1.973411 1_555
Li3 O2 2.001474 1_545
Li3 O4 2.012538 1_545
Li3 O5 2.019538 1_555
Li4 O15 1.978276 1_554
Li4 O13 1.991755 1_565
Li4 O8 2.006104 1_555
Li4 O12 2.026173 1_555
Li5 O14 1.978276 1_554
Li5 O13 1.991755 1_655
Li5 O9 2.006104 1_555
Li5 O12 2.026173 1_555
Mn0 O4 2.101850 1_556
Mn0 O11 2.183471 1_565
Mn0 O10 2.183471 1_655
Mn0 O8 2.187812 1_556
Mn0 O9 2.187812 1_556
Mn1 O13 2.099751 1_665
Mn1 O16 2.183562 1_655
Mn1 O17 2.183562 1_565
Mn1 O7 2.188888 1_655
Mn1 O6 2.188888 1_565
Fe0 O5 2.024443 1_556
Fe0 O9 2.139544 1_456
Fe0 O8 2.139544 1_546
Fe0 O10 2.177598 1_555
Fe0 O11 2.177598 1_555
Fe1 O12 2.024921 1_555
Fe1 O7 2.140042 1_555
Fe1 O6 2.140042 1_555
Fe1 O16 2.176696 1_555
Fe1 O17 2.176696 1_555
Fe2 O1 2.036409 1_555
Fe2 O3 2.153437 1_455
Fe2 O2 2.153437 1_545
Fe2 O15 2.178469 1_545
Fe2 O14 2.178469 1_455
Fe3 O0 2.028582 1_555
Fe3 O2 2.148816 1_555
Fe3 O3 2.148816 1_555
Fe3 O14 2.174863 1_555
Fe3 O15 2.174863 1_555
B0 O3 1.391897 1_555
B0 O6 1.391922 1_555
B0 O9 1.393784 1_555
B1 O2 1.391897 1_555
B1 O7 1.391922 1_555
B1 O8 1.393784 1_555
B2 O14 1.391609 1_455
B2 O16 1.393272 1_555
B2 O10 1.395872 1_555
B3 O15 1.391609 1_545
B3 O17 1.393272 1_555
B3 O11 1.395872 1_555
B4 O13 1.392099 1_556
B4 O4 1.395398 1_446
B4 O1 1.397766 1_555
B5 O0 1.390333 1_555
B5 O12 1.395997 1_556
B5 O5 1.396208 1_556
