# generated using pymatgen
data_Li3VF7
_symmetry_space_group_name_H-M   'P 1'
_cell_length_a   5.80731696
_cell_length_b   5.80731696
_cell_length_c   5.80731708
_cell_angle_alpha   63.76151931
_cell_angle_beta   63.76151931
_cell_angle_gamma   63.76151663
_symmetry_Int_Tables_number   1
_chemical_formula_structural   Li3VF7
_chemical_formula_sum   'Li3 V1 F7'
_cell_volume   149.98294220
_cell_formula_units_Z   1
loop_
 _symmetry_equiv_pos_site_id
 _symmetry_equiv_pos_as_xyz
  1  'x, y, z'
loop_
 _atom_site_type_symbol
 _atom_site_label
 _atom_site_symmetry_multiplicity
 _atom_site_fract_x
 _atom_site_fract_y
 _atom_site_fract_z
 _atom_site_occupancy
  Li  Li0  1  0.37654200  0.37654200  0.89027200  1
  Li  Li1  1  0.89027200  0.37654200  0.37654200  1
  Li  Li2  1  0.37654200  0.89027200  0.37654200  1
  V  V0  1  0.00173100  0.00173100  0.00173100  1
  F  F0  1  0.22005200  0.22005200  0.78110000  1
  F  F1  1  0.78110000  0.22005200  0.22005200  1
  F  F2  1  0.77009200  0.22258000  0.77009200  1
  F  F3  1  0.24734600  0.24734600  0.24734600  1
  F  F4  1  0.22258000  0.77009200  0.77009200  1
  F  F5  1  0.77009200  0.77009200  0.22258000  1
  F  F6  1  0.22005200  0.78110000  0.22005200  1
loop_
_geom_bond_atom_site_label_1
_geom_bond_atom_site_label_2
_geom_bond_distance
_geom_bond_site_symmetry_2
F0 V0 1.845310 1_556
F0 Li0 1.950108 1_555
F1 V0 1.845310 1_655
F1 Li1 1.950108 1_555
F2 V0 1.952705 1_656
F2 Li0 1.960716 1_555
F2 Li1 1.960716 1_555
F3 Li1 1.781074 1_455
F3 Li2 1.781074 1_545
F3 Li0 1.781074 1_554
F4 V0 1.952705 1_566
F4 Li0 1.960716 1_555
F4 Li2 1.960716 1_555
F5 V0 1.952705 1_665
F5 Li1 1.960716 1_555
F5 Li2 1.960716 1_555
F6 V0 1.845310 1_565
F6 Li2 1.950108 1_555
