# generated using pymatgen
data_Bi25BO39
_symmetry_space_group_name_H-M   'P 1'
_cell_length_a   9.31736800
_cell_length_b   9.60600510
_cell_length_c   14.61983229
_cell_angle_alpha   93.06054559
_cell_angle_beta   90.43215718
_cell_angle_gamma   113.52584568
_symmetry_Int_Tables_number   1
_chemical_formula_structural   Bi25BO39
_chemical_formula_sum   'Bi25 B1 O39'
_cell_volume   1197.44434723
_cell_formula_units_Z   1
loop_
 _symmetry_equiv_pos_site_id
 _symmetry_equiv_pos_as_xyz
  1  'x, y, z'
loop_
 _atom_site_type_symbol
 _atom_site_label
 _atom_site_symmetry_multiplicity
 _atom_site_fract_x
 _atom_site_fract_y
 _atom_site_fract_z
 _atom_site_occupancy
  Bi  Bi0  1  0.23767200  0.44359900  0.91560900  1
  Bi  Bi1  1  0.62211400  0.80867200  0.94041300  1
  Bi  Bi2  1  0.45851100  0.86452600  0.64118100  1
  Bi  Bi3  1  0.21243000  0.45946500  0.66445600  1
  Bi  Bi4  1  0.33696300  0.95479000  0.86712300  1
  Bi  Bi5  1  0.95406800  0.65645700  0.85732400  1
  Bi  Bi6  1  0.27010900  0.73020100  0.42827300  1
  Bi  Bi7  1  0.07112300  0.93870300  0.26761400  1
  Bi  Bi8  1  0.52763500  0.34251800  0.77643600  1
  Bi  Bi9  1  0.77210400  0.23074500  0.93558600  1
  Bi  Bi10  1  0.28596000  0.10689800  0.57163700  1
  Bi  Bi11  1  0.73588700  0.93732500  0.42499100  1
  Bi  Bi12  1  0.93538800  0.74703000  0.54487500  1
  Bi  Bi13  1  0.09367900  0.29848800  0.40261800  1
  Bi  Bi14  1  0.26713900  0.75780100  0.08394400  1
  Bi  Bi15  1  0.40521200  0.52606300  0.24858100  1
  Bi  Bi16  1  0.76238000  0.30930400  0.55610500  1
  Bi  Bi17  1  0.95035500  0.09524100  0.72079500  1
  Bi  Bi18  1  0.99915700  0.36130700  0.14900800  1
  Bi  Bi19  1  0.67812800  0.96849000  0.18481200  1
  Bi  Bi20  1  0.84431200  0.52825500  0.33163000  1
  Bi  Bi21  1  0.45376200  0.22369600  0.35047900  1
  Bi  Bi22  1  0.66866600  0.69409700  0.70942500  1
  Bi  Bi23  1  0.78654500  0.61666100  0.08985300  1
  Bi  Bi24  1  0.45650700  0.21434900  0.09650100  1
  B  B0  1  0.56720200  0.56154200  0.46820700  1
  O  O0  1  0.99774300  0.71450100  0.00305000  1
  O  O1  1  0.00135400  0.36368800  0.99395600  1
  O  O2  1  0.05201600  0.97159300  0.64746900  1
  O  O3  1  0.30054200  0.68219300  0.94676700  1
  O  O4  1  0.54230400  0.91715100  0.83364200  1
  O  O5  1  0.09746300  0.44521000  0.80046300  1
  O  O6  1  0.46063300  0.52372200  0.82560100  1
  O  O7  1  0.20277600  0.82490700  0.55163700  1
  O  O8  1  0.81540200  0.80369900  0.83942500  1
  O  O9  1  0.37347500  0.97674200  0.01072700  1
  O  O10  1  0.72626700  0.93481100  0.65471400  1
  O  O11  1  0.44163000  0.19915000  0.88658100  1
  O  O12  1  0.75115200  0.45915400  0.87349700  1
  O  O13  1  0.24211300  0.05021400  0.39164400  1
  O  O14  1  0.28851000  0.27981200  0.69267600  1
  O  O15  1  0.49936400  0.88270100  0.49891800  1
  O  O16  1  0.75495700  0.02499000  0.00718300  1
  O  O17  1  0.56041100  0.57997000  0.56209200  1
  O  O18  1  0.20188800  0.52572000  0.50026600  1
  O  O19  1  0.04050200  0.44118400  0.31146600  1
  O  O20  1  0.86058300  0.63339900  0.67411800  1
  O  O21  1  0.43815700  0.07091700  0.67745700  1
  O  O22  1  0.57505100  0.87910400  0.31343500  1
  O  O23  1  0.69648000  0.65929200  0.42136900  1
  O  O24  1  0.52491000  0.21968500  0.49908000  1
  O  O25  1  0.88332100  0.51071800  0.48361700  1
  O  O26  1  0.25782800  0.28719300  0.27137000  1
  O  O27  1  0.23839500  0.50333500  0.12734900  1
  O  O28  1  0.50862500  0.77182200  0.11193900  1
  O  O29  1  0.99818700  0.26757200  0.62063400  1
  O  O30  1  0.01786600  0.75332600  0.36299500  1
  O  O31  1  0.83380800  0.81069700  0.18622900  1
  O  O32  1  0.56761500  0.44652600  0.18915300  1
  O  O33  1  0.81943200  0.19971500  0.44036200  1
  O  O34  1  0.44861300  0.44969500  0.41307600  1
  O  O35  1  0.48513800  0.07940800  0.19801900  1
  O  O36  1  0.94220500  0.55978300  0.17516000  1
  O  O37  1  0.93630100  0.05236300  0.32244600  1
  O  O38  1  0.69887600  0.30301600  0.06044000  1
loop_
_geom_bond_atom_site_label_1
_geom_bond_atom_site_label_2
_geom_bond_distance
_geom_bond_site_symmetry_2
Bi0 O5 2.127557 1_555
Bi0 O3 2.148555 1_555
Bi0 O6 2.347882 1_555
Bi0 O1 2.352027 1_555
Bi1 O16 2.124782 1_566
Bi1 O4 2.202334 1_555
Bi1 O8 2.350904 1_555
Bi1 O28 2.714383 1_556
Bi1 O3 2.751750 1_555
Bi2 O21 2.106493 1_565
Bi2 O15 2.121051 1_555
Bi2 O10 2.313553 1_555
Bi2 O7 2.590762 1_555
Bi3 O14 2.167749 1_555
Bi3 O29 2.170281 1_455
Bi3 O5 2.250341 1_555
Bi3 O18 2.527106 1_555
Bi4 O9 2.110128 1_556
Bi4 O4 2.139690 1_555
Bi4 O11 2.153816 1_565
Bi5 O12 2.101550 1_555
Bi5 O0 2.166658 1_556
Bi5 O8 2.287267 1_555
Bi5 O20 2.780152 1_555
Bi6 O18 2.145743 1_555
Bi6 O7 2.184390 1_555
Bi6 O15 2.254441 1_555
Bi6 O30 2.624759 1_555
Bi7 O37 2.104601 1_465
Bi7 O30 2.220791 1_555
Bi7 O13 2.315230 1_565
Bi7 O31 2.334610 1_455
Bi8 O11 2.122999 1_555
Bi8 O6 2.162615 1_555
Bi8 O12 2.351378 1_555
Bi8 O14 2.373838 1_555
Bi8 O21 2.727291 1_555
Bi9 O38 2.130958 1_556
Bi9 O1 2.144779 1_655
Bi9 O16 2.235849 1_556
Bi9 O12 2.495615 1_555
Bi10 O21 2.222413 1_555
Bi10 O24 2.342761 1_555
Bi10 O14 2.354762 1_555
Bi10 O2 2.366072 1_545
Bi10 O7 2.501956 1_545
Bi10 O13 2.653526 1_555
Bi11 O22 2.101208 1_555
Bi11 O33 2.319483 1_565
Bi11 O15 2.339531 1_555
Bi11 O37 2.351049 1_565
Bi11 O23 2.544103 1_555
Bi12 O20 2.209128 1_555
Bi12 O25 2.255568 1_555
Bi12 O7 2.297119 1_655
Bi12 O2 2.417112 1_655
Bi12 O23 2.684183 1_555
Bi12 O30 2.770502 1_655
Bi13 O19 2.151185 1_555
Bi13 O18 2.389092 1_555
Bi13 O33 2.423997 1_455
Bi13 O37 2.454443 1_455
Bi13 O26 2.487438 1_555
Bi14 O3 2.163503 1_554
Bi14 O28 2.233049 1_555
Bi14 O9 2.267940 1_555
Bi14 O27 2.468822 1_555
Bi14 O0 2.634636 1_455
Bi15 O32 2.121364 1_555
Bi15 O26 2.198842 1_555
Bi15 O27 2.291526 1_555
Bi15 O34 2.625969 1_555
Bi16 O33 2.127020 1_555
Bi16 O25 2.152376 1_555
Bi16 O24 2.169480 1_555
Bi16 O29 2.567142 1_555
Bi17 O2 2.057845 1_645
Bi17 O29 2.182432 1_555
Bi17 O10 2.215743 1_545
Bi18 O27 2.135258 1_655
Bi18 O36 2.189893 1_555
Bi18 O1 2.268335 1_654
Bi18 O19 2.435962 1_655
Bi19 O28 2.139192 1_555
Bi19 O22 2.176476 1_555
Bi19 O35 2.432834 1_565
Bi19 O31 2.481961 1_555
Bi19 O16 2.723840 1_565
Bi20 O30 2.142766 1_655
Bi20 O25 2.274762 1_555
Bi20 O19 2.308754 1_655
Bi20 O36 2.457954 1_555
Bi20 O23 2.537320 1_555
Bi21 O13 2.128287 1_555
Bi21 O24 2.273410 1_555
Bi21 O34 2.329053 1_555
Bi21 O26 2.444357 1_555
Bi21 O35 2.641616 1_555
Bi22 O20 2.148968 1_555
Bi22 O8 2.277691 1_555
Bi22 O10 2.342608 1_555
Bi22 O17 2.385623 1_555
Bi22 O6 2.671029 1_555
Bi23 O36 2.153031 1_555
Bi23 O31 2.169863 1_555
Bi23 O0 2.248253 1_555
Bi23 O32 2.564403 1_555
Bi23 O38 2.796641 1_555
Bi24 O35 2.104687 1_555
Bi24 O38 2.152543 1_555
Bi24 O9 2.377117 1_545
Bi24 O32 2.386160 1_555
B0 O17 1.379721 1_555
B0 O34 1.404008 1_555
B0 O23 1.407003 1_555
