# generated using pymatgen
data_NaAlSi3O8
_symmetry_space_group_name_H-M   'P 1'
_cell_length_a   7.25189000
_cell_length_b   7.54327117
_cell_length_c   7.82918127
_cell_angle_alpha   114.73692068
_cell_angle_beta   107.05937784
_cell_angle_gamma   100.64503197
_symmetry_Int_Tables_number   1
_chemical_formula_structural   NaAlSi3O8
_chemical_formula_sum   'Na2 Al2 Si6 O16'
_cell_volume   347.76724305
_cell_formula_units_Z   2
loop_
 _symmetry_equiv_pos_site_id
 _symmetry_equiv_pos_as_xyz
  1  'x, y, z'
loop_
 _atom_site_type_symbol
 _atom_site_label
 _atom_site_symmetry_multiplicity
 _atom_site_fract_x
 _atom_site_fract_y
 _atom_site_fract_z
 _atom_site_occupancy
  Na  Na0  1  0.37471800  0.23681000  0.73923600  1
  Na  Na1  1  0.62528200  0.76319000  0.26076400  1
  Al  Al0  1  0.15132700  0.52262200  0.81962100  1
  Al  Al1  1  0.84867300  0.47737800  0.18037900  1
  Si  Si0  1  0.41156200  0.46362500  0.17576600  1
  Si  Si1  1  0.58843800  0.53637500  0.82423400  1
  Si  Si2  1  0.29388000  0.02908900  0.19373400  1
  Si  Si3  1  0.70612000  0.97091100  0.80626600  1
  Si  Si4  1  0.77444600  0.33217200  0.43218700  1
  Si  Si5  1  0.22555400  0.66782800  0.56781300  1
  O  O0  1  0.30756200  0.40504000  0.86186500  1
  O  O1  1  0.69243800  0.59496000  0.13813500  1
  O  O2  1  0.90962900  0.59218400  0.40415900  1
  O  O3  1  0.09037100  0.40781600  0.59584100  1
  O  O4  1  0.66231800  0.15619700  0.07261100  1
  O  O5  1  0.33768200  0.84380300  0.92738900  1
  O  O6  1  0.08923800  0.37539900  0.32738900  1
  O  O7  1  0.91076200  0.62460100  0.67261100  1
  O  O8  1  0.37220900  0.93068400  0.67887000  1
  O  O9  1  0.62779100  0.06931600  0.32113000  1
  O  O10  1  0.20031800  0.10475200  0.28170200  1
  O  O11  1  0.79968200  0.89524800  0.71829800  1
  O  O12  1  0.24003500  0.53442000  0.68530700  1
  O  O13  1  0.75996500  0.46558000  0.31469300  1
  O  O14  1  0.67017300  0.78954700  0.94863100  1
  O  O15  1  0.32982700  0.21045300  0.05136900  1
loop_
_geom_bond_atom_site_label_1
_geom_bond_atom_site_label_2
_geom_bond_distance
_geom_bond_site_symmetry_2
Na0 O0 1.500775 1_555
Na0 O8 2.149914 1_545
Na1 O1 1.500775 1_555
Na1 O9 2.149914 1_565
Al0 O12 1.407703 1_555
Al0 O3 1.466048 1_555
Al0 O0 1.605200 1_555
Al0 O5 2.195123 1_555
Al0 O7 2.240229 1_455
Al1 O13 1.407703 1_555
Al1 O2 1.466048 1_555
Al1 O1 1.605200 1_555
Al1 O4 2.195123 1_555
Al1 O6 2.240229 1_655
O2 Si5 2.097387 1_655
O3 Si4 2.097387 1_455
O4 Si3 2.125132 1_544
O4 Si4 2.340765 1_555
O5 Si2 2.125132 1_566
O5 Si5 2.340765 1_555
O6 Si5 2.003470 1_555
O7 Si4 2.003470 1_555
O8 Si5 1.747599 1_555
O8 Si3 2.238006 1_555
O9 Si4 1.747599 1_555
O9 Si2 2.238006 1_555
O10 Si2 1.161343 1_555
O11 Si3 1.161343 1_555
O12 O3 1.091709 1_555
O12 Si5 1.620805 1_555
O13 O2 1.091709 1_555
O13 Si4 1.620805 1_555
O14 Si1 1.622801 1_555
O14 Si3 2.120569 1_555
O15 Si0 1.622801 1_555
O15 Si2 2.120569 1_555
