# generated using pymatgen
data_FeSbO4
_symmetry_space_group_name_H-M   'P 1'
_cell_length_a   5.50729909
_cell_length_b   5.50726984
_cell_length_c   5.50728060
_cell_angle_alpha   72.17231383
_cell_angle_beta   108.00655104
_cell_angle_gamma   67.37403134
_symmetry_Int_Tables_number   1
_chemical_formula_structural   FeSbO4
_chemical_formula_sum   'Fe2 Sb2 O8'
_cell_volume   128.29108172
_cell_formula_units_Z   2
loop_
 _symmetry_equiv_pos_site_id
 _symmetry_equiv_pos_as_xyz
  1  'x, y, z'
loop_
 _atom_site_type_symbol
 _atom_site_label
 _atom_site_symmetry_multiplicity
 _atom_site_fract_x
 _atom_site_fract_y
 _atom_site_fract_z
 _atom_site_occupancy
  Fe  Fe0  1  0.74112649  0.75888258  0.50000808  1
  Fe  Fe1  1  0.49336233  0.50663881  0.00000214  1
  Sb  Sb0  1  0.25557245  0.24442701  0.50000246  1
  Sb  Sb1  1  0.00439540  0.99560359  -0.00000100  1
  O  O0  1  0.04476733  0.75359067  0.79835600  1
  O  O1  1  0.56029453  0.24650972  0.80680725  1
  O  O2  1  0.50539236  0.80210980  0.69249823  1
  O  O3  1  0.99748535  0.31240549  0.69010955  1
  O  O4  1  0.50539236  0.18710887  0.30750316  1
  O  O5  1  0.99748735  0.69262220  0.30989184  1
  O  O6  1  0.44803852  0.75359190  0.20162642  1
  O  O7  1  0.94668655  0.24651035  0.19319590  1
loop_
_geom_bond_atom_site_label_1
_geom_bond_atom_site_label_2
_geom_bond_distance
_geom_bond_site_symmetry_2
Fe0 O2 1.906192 1_555
Fe0 O4 1.906201 1_565
Fe0 O0 1.931689 1_655
Fe0 O6 1.931893 1_555
Fe0 O3 1.993544 1_555
Fe0 O5 1.993544 1_555
Fe1 O6 1.994958 1_555
Fe1 O0 1.995049 1_554
Fe1 O4 1.996288 1_555
Fe1 O2 1.996301 1_554
Fe1 O1 2.022313 1_554
Fe1 O7 2.022332 1_555
O0 Sb1 1.972314 1_556
O1 Sb1 1.978359 1_646
O1 Sb0 1.986202 1_555
O2 Sb0 1.972047 1_565
O3 Sb0 2.001797 1_655
O3 Sb1 2.010885 1_646
O4 Sb0 1.972053 1_555
O5 Sb0 2.001800 1_655
O5 Sb1 2.010887 1_655
O6 Sb1 1.972275 1_555
O7 Sb1 1.978354 1_645
O7 Sb0 1.986201 1_655
