# generated using pymatgen
data_Mg(CoO2)2
_symmetry_space_group_name_H-M   'P 1'
_cell_length_a   5.71619911
_cell_length_b   5.71619911
_cell_length_c   5.71619911
_cell_angle_alpha   60.00000000
_cell_angle_beta   60.00000000
_cell_angle_gamma   60.00000000
_symmetry_Int_Tables_number   1
_chemical_formula_structural   Mg(CoO2)2
_chemical_formula_sum   'Mg2 Co4 O8'
_cell_volume   132.07087193
_cell_formula_units_Z   2
loop_
 _symmetry_equiv_pos_site_id
 _symmetry_equiv_pos_as_xyz
  1  'x, y, z'
loop_
 _atom_site_type_symbol
 _atom_site_label
 _atom_site_symmetry_multiplicity
 _atom_site_fract_x
 _atom_site_fract_y
 _atom_site_fract_z
 _atom_site_occupancy
  Mg  Mg0  1  0.50000000  0.50000000  0.50000000  1
  Mg  Mg1  1  0.75000000  0.75000000  0.75000000  1
  Co  Co0  1  0.12500000  0.12500000  0.12500000  1
  Co  Co1  1  0.62500000  0.12500000  0.12500000  1
  Co  Co2  1  0.12500000  0.62500000  0.12500000  1
  Co  Co3  1  0.12500000  0.12500000  0.62500000  1
  O  O0  1  0.88889752  0.88889752  0.88889752  1
  O  O1  1  0.91669255  0.36110248  0.36110248  1
  O  O2  1  0.36110248  0.91669255  0.36110248  1
  O  O3  1  0.36110248  0.36110248  0.91669255  1
  O  O4  1  0.88889752  0.33330745  0.88889752  1
  O  O5  1  0.88889752  0.88889752  0.33330745  1
  O  O6  1  0.33330745  0.88889752  0.88889752  1
  O  O7  1  0.36110248  0.36110248  0.36110248  1
loop_
_geom_bond_atom_site_label_1
_geom_bond_atom_site_label_2
_geom_bond_distance
_geom_bond_site_symmetry_2
Mg0 O1 1.944811 1_555
Mg0 O2 1.944811 1_555
Mg0 O3 1.944811 1_555
Mg0 O7 1.944811 1_555
Mg1 O4 1.944811 1_555
Mg1 O5 1.944811 1_555
Mg1 O6 1.944811 1_555
Mg1 O0 1.944811 1_555
Co0 O4 1.915237 1_454
Co0 O6 1.915237 1_544
Co0 O5 1.915237 1_445
Co0 O3 1.915237 1_554
Co0 O2 1.915237 1_545
Co0 O1 1.915237 1_455
Co1 O7 1.915237 1_555
Co1 O0 1.915237 1_544
Co1 O3 1.915237 1_554
Co1 O2 1.915237 1_545
Co1 O4 1.915237 1_554
Co1 O5 1.915237 1_545
Co2 O7 1.915237 1_555
Co2 O0 1.915237 1_454
Co2 O1 1.915237 1_455
Co2 O6 1.915237 1_554
Co2 O3 1.915237 1_554
Co2 O5 1.915237 1_455
Co3 O7 1.915237 1_555
Co3 O0 1.915237 1_445
Co3 O4 1.915237 1_455
Co3 O2 1.915237 1_545
Co3 O1 1.915237 1_455
Co3 O6 1.915237 1_545
