# generated using pymatgen
data_V2OF5
_symmetry_space_group_name_H-M   'P 1'
_cell_length_a   5.06785036
_cell_length_b   5.32285035
_cell_length_c   5.10160966
_cell_angle_alpha   118.62153176
_cell_angle_beta   119.00617787
_cell_angle_gamma   91.08873405
_symmetry_Int_Tables_number   1
_chemical_formula_structural   V2OF5
_chemical_formula_sum   'V2 O1 F5'
_cell_volume   99.82934698
_cell_formula_units_Z   1
loop_
 _symmetry_equiv_pos_site_id
 _symmetry_equiv_pos_as_xyz
  1  'x, y, z'
loop_
 _atom_site_type_symbol
 _atom_site_label
 _atom_site_symmetry_multiplicity
 _atom_site_fract_x
 _atom_site_fract_y
 _atom_site_fract_z
 _atom_site_occupancy
  V  V0  1  0.68520649  0.99134781  0.32681877  1
  V  V1  1  0.15557735  0.46618899  0.32076181  1
  O  O0  1  0.97758771  0.22235365  0.39638682  1
  F  F0  1  0.32038597  0.72854066  0.22397982  1
  F  F1  1  0.39213304  0.21203714  0.19915423  1
  F  F2  1  0.51208034  0.71266087  0.81297247  1
  F  F3  1  0.91803044  0.73153250  0.43344507  1
  F  F4  1  0.80015365  0.23057139  0.81995700  1
loop_
_geom_bond_atom_site_label_1
_geom_bond_atom_site_label_2
_geom_bond_distance
_geom_bond_site_symmetry_2
O0 V0 1.684082 1_545
O0 V1 1.849266 1_655
F0 V1 1.976780 1_555
F0 V0 1.976937 1_555
F1 V1 1.905529 1_555
F1 V0 1.967541 1_545
F2 V1 1.909140 1_555
F2 V0 1.958757 1_556
F3 V1 1.931959 1_655
F3 V0 1.939317 1_555
F4 V1 1.930339 1_656
F4 V0 1.942021 1_545
