# generated using pymatgen
data_LiMnP2O7
_symmetry_space_group_name_H-M   'P 1'
_cell_length_a   9.73821000
_cell_length_b   9.74988279
_cell_length_c   11.12772628
_cell_angle_alpha   102.47443002
_cell_angle_beta   90.01865454
_cell_angle_gamma   90.79213863
_symmetry_Int_Tables_number   1
_chemical_formula_structural   LiMnP2O7
_chemical_formula_sum   'Li8 Mn8 P16 O56'
_cell_volume   1031.49088559
_cell_formula_units_Z   8
loop_
 _symmetry_equiv_pos_site_id
 _symmetry_equiv_pos_as_xyz
  1  'x, y, z'
loop_
 _atom_site_type_symbol
 _atom_site_label
 _atom_site_symmetry_multiplicity
 _atom_site_fract_x
 _atom_site_fract_y
 _atom_site_fract_z
 _atom_site_occupancy
  Li  Li0  1  0.57165800  0.16686800  0.53853700  1
  Li  Li1  1  0.39021500  0.40742200  0.97206900  1
  Li  Li2  1  0.06398900  0.36218600  0.47688500  1
  Li  Li3  1  0.60547200  0.58827300  0.02987500  1
  Li  Li4  1  0.90872100  0.64881100  0.04509000  1
  Li  Li5  1  0.09771600  0.91528800  0.97480500  1
  Li  Li6  1  0.41339200  0.82534500  0.45398900  1
  Li  Li7  1  0.71937800  0.88002400  0.54883600  1
  Mn  Mn0  1  0.07380800  0.19976900  0.67187800  1
  Mn  Mn1  1  0.78878800  0.25793200  0.82897000  1
  Mn  Mn2  1  0.27829400  0.22599200  0.16895800  1
  Mn  Mn3  1  0.57344500  0.30498900  0.32690700  1
  Mn  Mn4  1  0.42736300  0.70253300  0.67766100  1
  Mn  Mn5  1  0.72147000  0.76974000  0.83424900  1
  Mn  Mn6  1  0.21631100  0.73441900  0.16970700  1
  Mn  Mn7  1  0.93017100  0.80514800  0.33385100  1
  P  P0  1  0.55424300  0.02501300  0.75705900  1
  P  P1  1  0.28555000  0.11507700  0.88180100  1
  P  P2  1  0.07059800  0.06605900  0.24466400  1
  P  P3  1  0.85141700  0.12717300  0.43166700  1
  P  P4  1  0.35618200  0.38170100  0.57421700  1
  P  P5  1  0.57572800  0.43461100  0.75947500  1
  P  P6  1  0.94284900  0.52261200  0.74912300  1
  P  P7  1  0.79138400  0.37886300  0.11491300  1
  P  P8  1  0.20787900  0.61596500  0.88508500  1
  P  P9  1  0.06148400  0.46852100  0.24053900  1
  P  P10  1  0.42585100  0.56488300  0.24028700  1
  P  P11  1  0.65252100  0.62512500  0.41969600  1
  P  P12  1  0.14441600  0.87748900  0.57275500  1
  P  P13  1  0.92536600  0.92984900  0.75880300  1
  P  P14  1  0.71530800  0.88939600  0.11545500  1
  P  P15  1  0.44594100  0.97582000  0.24744100  1
  O  O0  1  0.58332300  0.01747500  0.62272400  1
  O  O1  1  0.15279900  0.03427600  0.56999500  1
  O  O2  1  0.91220800  0.07797800  0.73376300  1
  O  O3  1  0.65648000  0.11241600  0.84807000  1
  O  O4  1  0.40994700  0.09882700  0.78242200  1
  O  O5  1  0.17496300  0.18751700  0.81909200  1
  O  O6  1  0.34093100  0.22227100  0.99786400  1
  O  O7  1  0.74482100  0.02469300  0.08285800  1
  O  O8  1  0.92609700  0.12420800  0.30079300  1
  O  O9  1  0.08009400  0.06660100  0.11042500  1
  O  O10  1  0.45034900  0.12653500  0.21605200  1
  O  O11  1  0.71158000  0.18844900  0.41747100  1
  O  O12  1  0.18195300  0.17255000  0.31023300  1
  O  O13  1  0.94672500  0.21681900  0.52942200  1
  O  O14  1  0.44616300  0.29469600  0.47190300  1
  O  O15  1  0.68303400  0.32436000  0.69882200  1
  O  O16  1  0.21288200  0.32324100  0.58346200  1
  O  O17  1  0.95176400  0.37057100  0.78393000  1
  O  O18  1  0.43095500  0.36921400  0.70069400  1
  O  O19  1  0.56708800  0.43479200  0.89484900  1
  O  O20  1  0.23347600  0.47955300  0.91906000  1
  O  O21  1  0.84123000  0.27460100  0.99959100  1
  O  O22  1  0.66962700  0.31762000  0.17653400  1
  O  O23  1  0.91189800  0.39588000  0.21595900  1
  O  O24  1  0.40800500  0.42076400  0.27174800  1
  O  O25  1  0.15816500  0.37645700  0.14822500  1
  O  O26  1  0.91475000  0.51778400  0.61820000  1
  O  O27  1  0.66127100  0.47270100  0.42943800  1
  O  O28  1  0.35170900  0.53891400  0.57082600  1
  O  O29  1  0.09089100  0.48302500  0.37302000  1
  O  O30  1  0.84994600  0.61153400  0.85070400  1
  O  O31  1  0.59303300  0.58047600  0.72918900  1
  O  O32  1  0.09223100  0.59527300  0.77983500  1
  O  O33  1  0.32801200  0.68487000  0.82959400  1
  O  O34  1  0.14406600  0.72453500  0.99889600  1
  O  O35  1  0.76848600  0.52276100  0.08924300  1
  O  O36  1  0.42886700  0.56632700  0.10503500  1
  O  O37  1  0.57181800  0.62981600  0.29351600  1
  O  O38  1  0.05279200  0.61518300  0.19828200  1
  O  O39  1  0.79137900  0.69392600  0.40665700  1
  O  O40  1  0.31866000  0.67537900  0.30291100  1
  O  O41  1  0.56792800  0.72030100  0.52224300  1
  O  O42  1  0.06315700  0.79089800  0.46381800  1
  O  O43  1  0.80470100  0.83353800  0.69440200  1
  O  O44  1  0.28693000  0.82033300  0.58658000  1
  O  O45  1  0.54371900  0.87169500  0.78509800  1
  O  O46  1  0.92476000  0.91269700  0.89001800  1
  O  O47  1  0.06426800  0.86445600  0.69679700  1
  O  O48  1  0.25396200  0.97476500  0.90631800  1
  O  O49  1  0.66464100  0.77007600  0.00258000  1
  O  O50  1  0.83080700  0.81590800  0.17699400  1
  O  O51  1  0.59165200  0.90124100  0.21372500  1
  O  O52  1  0.34118000  0.88694100  0.15734100  1
  O  O53  1  0.08190000  0.91568100  0.27269000  1
  O  O54  1  0.83726000  0.97610800  0.44776800  1
  O  O55  1  0.42815100  0.98095700  0.38160800  1
loop_
_geom_bond_atom_site_label_1
_geom_bond_atom_site_label_2
_geom_bond_distance
_geom_bond_site_symmetry_2
Li0 O0 1.898970 1_555
Li0 O11 1.957440 1_555
Li0 O14 2.009317 1_555
Li0 O15 2.342004 1_555
Li1 O20 1.838643 1_555
Li1 O36 1.929886 1_556
Li1 O6 1.942026 1_555
Li1 O19 1.965616 1_555
Li2 O29 1.836428 1_555
Li2 O16 1.965117 1_555
Li2 O13 1.992039 1_455
Li2 O26 2.432750 1_455
Li2 O12 2.599242 1_555
Li3 O35 1.890530 1_555
Li3 O19 1.910349 1_554
Li3 O49 1.941824 1_555
Li3 O36 1.941938 1_555
Li4 O35 1.957454 1_555
Li4 O50 2.094317 1_555
Li4 O30 2.189154 1_554
Li4 O38 2.287889 1_655
Li4 O34 2.485916 1_654
Li5 O48 1.843772 1_555
Li5 O9 1.878500 1_566
Li5 O46 1.927460 1_455
Li5 O34 1.993250 1_555
Li6 O55 1.869021 1_555
Li6 O44 1.930438 1_555
Li6 O41 2.066017 1_555
Li6 O40 2.171402 1_555
Li7 O0 1.949669 1_565
Li7 O43 1.961202 1_555
Li7 O54 1.971430 1_555
Li7 O41 2.103570 1_555
Li7 O39 2.254479 1_555
Mn0 O1 1.930069 1_555
Mn0 O5 1.937764 1_555
Mn0 O13 2.047032 1_455
Mn0 O2 2.159415 1_455
Mn0 O16 2.172304 1_555
Mn0 O17 2.213392 1_455
Mn1 O21 1.937979 1_555
Mn1 O3 1.948859 1_555
Mn1 O15 2.000047 1_555
Mn1 O17 2.041140 1_555
Mn1 O2 2.213919 1_555
Mn2 O25 1.940975 1_555
Mn2 O12 1.991083 1_555
Mn2 O6 1.992410 1_554
Mn2 O10 2.070301 1_555
Mn2 O24 2.346158 1_555
Mn2 O9 2.458372 1_555
Mn3 O22 1.944037 1_555
Mn3 O27 1.965131 1_555
Mn3 O14 2.053667 1_555
Mn3 O24 2.143707 1_555
Mn3 O11 2.156911 1_555
Mn3 O10 2.236084 1_555
Mn4 O28 1.910131 1_555
Mn4 O33 1.986533 1_555
Mn4 O45 2.128154 1_555
Mn4 O31 2.166812 1_555
Mn4 O44 2.182205 1_555
Mn4 O41 2.240351 1_555
Mn5 O49 1.952693 1_556
Mn5 O43 1.967386 1_555
Mn5 O30 2.037976 1_555
Mn5 O45 2.136678 1_555
Mn5 O31 2.310738 1_555
Mn5 O46 2.407531 1_555
Mn6 O52 1.935842 1_555
Mn6 O40 1.976196 1_555
Mn6 O34 2.008776 1_554
Mn6 O38 2.024135 1_555
Mn6 O53 2.310806 1_555
Mn6 O36 2.659627 1_555
Mn7 O42 1.969418 1_655
Mn7 O39 1.999701 1_555
Mn7 O50 2.018603 1_555
Mn7 O53 2.020220 1_655
Mn7 O54 2.081715 1_555
Mn7 O38 2.446909 1_655
O0 P0 1.507827 1_555
O1 P12 1.536628 1_545
O2 P13 1.535849 1_545
O3 P0 1.531706 1_555
O4 P0 1.585121 1_555
O4 P1 1.626660 1_555
O5 P1 1.542395 1_555
O6 P1 1.565888 1_555
O7 P14 1.466484 1_545
O8 P2 1.600422 1_655
O8 P3 1.622870 1_555
O9 P2 1.497808 1_555
O10 P15 1.582131 1_545
O11 P3 1.516378 1_555
O12 P2 1.558006 1_555
O13 P3 1.541048 1_555
O14 P4 1.545192 1_555
O15 P5 1.555978 1_555
O16 P4 1.512042 1_555
O17 P6 1.614494 1_555
O18 P4 1.612953 1_555
O18 P5 1.617525 1_555
O19 P5 1.508402 1_555
O20 P8 1.483341 1_555
O21 P7 1.538266 1_556
O22 P7 1.546104 1_555
O23 P7 1.606956 1_555
O23 P9 1.608080 1_655
O24 P10 1.527415 1_555
O25 P9 1.540461 1_555
O26 P6 1.472866 1_555
O27 P11 1.516789 1_555
O28 P4 1.542613 1_555
O29 P9 1.477786 1_555
O30 P6 1.564245 1_555
O31 P5 1.537857 1_555
O32 P8 1.603594 1_555
O32 P6 1.612903 1_455
O33 P8 1.535969 1_555
O34 P8 1.596919 1_555
O35 P7 1.510442 1_555
O36 P10 1.508443 1_555
O37 P10 1.607717 1_555
O37 P11 1.618407 1_555
O38 P9 1.602122 1_555
O39 P11 1.522052 1_555
O40 P10 1.563042 1_555
O41 P11 1.551180 1_555
O42 P12 1.532058 1_555
O43 P13 1.566629 1_555
O44 P12 1.522684 1_555
O45 P0 1.593629 1_565
O46 P13 1.505134 1_555
O47 P13 1.595828 1_455
O47 P12 1.613784 1_555
O48 P1 1.479933 1_565
O49 P14 1.589639 1_555
O50 P14 1.575158 1_555
O51 P15 1.610580 1_555
O51 P14 1.615346 1_555
O52 P15 1.548056 1_555
O53 P2 1.568756 1_565
O54 P3 1.526056 1_565
O55 P15 1.493183 1_555
