# generated using pymatgen
data_Rb3InO3
_symmetry_space_group_name_H-M   'P 1'
_cell_length_a   7.06166937
_cell_length_b   7.06166937
_cell_length_c   6.99356755
_cell_angle_alpha   84.12665671
_cell_angle_beta   84.12665671
_cell_angle_gamma   114.54365522
_symmetry_Int_Tables_number   1
_chemical_formula_structural   Rb3InO3
_chemical_formula_sum   'Rb6 In2 O6'
_cell_volume   311.50413777
_cell_formula_units_Z   2
loop_
 _symmetry_equiv_pos_site_id
 _symmetry_equiv_pos_as_xyz
  1  'x, y, z'
loop_
 _atom_site_type_symbol
 _atom_site_label
 _atom_site_symmetry_multiplicity
 _atom_site_fract_x
 _atom_site_fract_y
 _atom_site_fract_z
 _atom_site_occupancy
  Rb  Rb0  1  0.63138300  0.63138300  0.64799206  1
  Rb  Rb1  1  0.19476154  0.80523846  0.50000000  1
  Rb  Rb2  1  0.80523846  0.19476154  0.50000000  1
  Rb  Rb3  1  0.74102968  0.25897032  -0.00000000  1
  Rb  Rb4  1  0.25897032  0.74102968  -0.00000000  1
  Rb  Rb5  1  0.36861700  0.36861700  0.35200794  1
  In  In0  1  0.82273836  0.82273836  0.14907744  1
  In  In1  1  0.17726164  0.17726164  0.85092256  1
  O  O0  1  0.90051792  0.90051792  0.83963081  1
  O  O1  1  0.84005620  0.55635997  0.27107503  1
  O  O2  1  0.55635997  0.84005620  0.27107503  1
  O  O3  1  0.15994380  0.44364003  0.72892497  1
  O  O4  1  0.44364003  0.15994380  0.72892497  1
  O  O5  1  0.09948208  0.09948208  0.16036919  1
loop_
_geom_bond_atom_site_label_1
_geom_bond_atom_site_label_2
_geom_bond_distance
_geom_bond_site_symmetry_2
In0 O1 2.040920 1_555
In0 O2 2.040920 1_555
In0 O5 2.129530 1_665
In0 O0 2.132997 1_554
In1 O3 2.040920 1_555
In1 O4 2.040920 1_555
In1 O0 2.129530 1_445
In1 O5 2.132997 1_556
O0 Rb0 2.657474 1_555
O0 Rb1 3.300053 1_655
O0 Rb2 3.300053 1_565
O1 Rb2 2.775814 1_555
O1 Rb3 2.891256 1_555
O1 Rb5 2.992535 1_555
O1 Rb4 3.031021 1_655
O1 Rb0 3.088689 1_555
O1 Rb1 3.108930 1_655
O2 Rb1 2.775814 1_555
O2 Rb4 2.891256 1_555
O2 Rb5 2.992535 1_555
O2 Rb3 3.031021 1_565
O2 Rb0 3.088689 1_555
O2 Rb2 3.108930 1_565
O3 Rb1 2.775814 1_555
O3 Rb4 2.891256 1_556
O3 Rb0 2.992535 1_555
O3 Rb3 3.031021 1_456
O3 Rb5 3.088689 1_555
O3 Rb2 3.108930 1_455
O4 Rb2 2.775814 1_555
O4 Rb3 2.891256 1_556
O4 Rb0 2.992535 1_555
O4 Rb4 3.031021 1_546
O4 Rb5 3.088689 1_555
O4 Rb1 3.108930 1_545
O5 Rb5 2.657474 1_555
O5 Rb1 3.300053 1_545
O5 Rb2 3.300053 1_455
