# generated using pymatgen
data_Li3(FeO2)4
_symmetry_space_group_name_H-M   'P 1'
_cell_length_a   5.98807089
_cell_length_b   5.98807037
_cell_length_c   6.00552918
_cell_angle_alpha   60.13372798
_cell_angle_beta   89.93402608
_cell_angle_gamma   119.96136463
_symmetry_Int_Tables_number   1
_chemical_formula_structural   Li3(FeO2)4
_chemical_formula_sum   'Li3 Fe4 O8'
_cell_volume   152.57704174
_cell_formula_units_Z   1
loop_
 _symmetry_equiv_pos_site_id
 _symmetry_equiv_pos_as_xyz
  1  'x, y, z'
loop_
 _atom_site_type_symbol
 _atom_site_label
 _atom_site_symmetry_multiplicity
 _atom_site_fract_x
 _atom_site_fract_y
 _atom_site_fract_z
 _atom_site_occupancy
  Li  Li0  1  0.00000000  0.50000000  0.50000000  1
  Li  Li1  1  0.50000000  0.50000000  0.50000000  1
  Li  Li2  1  0.50000000  0.00000000  0.50000000  1
  Fe  Fe0  1  0.00000000  0.50000000  0.00000000  1
  Fe  Fe1  1  0.00000000  0.00000000  0.00000000  1
  Fe  Fe2  1  0.50000000  0.50000000  0.00000000  1
  Fe  Fe3  1  0.50000000  0.00000000  0.00000000  1
  O  O0  1  0.25371300  0.98701300  0.77945400  1
  O  O1  1  0.26646600  0.53316700  0.22054600  1
  O  O2  1  0.24109700  0.48192100  0.77698300  1
  O  O3  1  0.26679300  0.01296500  0.22024200  1
  O  O4  1  0.73320700  0.98703500  0.77975800  1
  O  O5  1  0.75890300  0.51807900  0.22301700  1
  O  O6  1  0.73353400  0.46683300  0.77945400  1
  O  O7  1  0.74628700  0.01298700  0.22054600  1
loop_
_geom_bond_atom_site_label_1
_geom_bond_atom_site_label_2
_geom_bond_distance
_geom_bond_site_symmetry_2
Li0 O6 2.178845 1_455
Li0 O1 2.178845 1_555
Li0 O3 2.182345 1_565
Li0 O4 2.182345 1_445
Li0 O5 2.201203 1_455
Li0 O2 2.201203 1_555
Li1 O0 2.182301 1_545
Li1 O7 2.182301 1_565
Li1 O1 2.182305 1_555
Li1 O6 2.182305 1_555
Li1 O5 2.197569 1_555
Li1 O2 2.197569 1_555
Li2 O0 2.178849 1_545
Li2 O7 2.178849 1_555
Li2 O4 2.182345 1_545
Li2 O3 2.182345 1_555
Li2 O5 2.201199 1_555
Li2 O2 2.201199 1_545
Fe0 O5 2.045945 1_455
Fe0 O2 2.045945 1_554
Fe0 O6 2.071244 1_454
Fe0 O1 2.071244 1_555
Fe0 O7 2.071249 1_455
Fe0 O0 2.071249 1_554
Fe1 O2 2.047102 1_554
Fe1 O5 2.047102 1_445
Fe1 O7 2.069885 1_455
Fe1 O0 2.069885 1_544
Fe1 O3 2.071469 1_555
Fe1 O4 2.071469 1_444
Fe2 O5 2.047098 1_555
Fe2 O2 2.047098 1_554
Fe2 O1 2.069889 1_555
Fe2 O6 2.069889 1_554
Fe2 O3 2.071469 1_555
Fe2 O4 2.071469 1_554
Fe3 O3 1.977849 1_555
Fe3 O4 1.977849 1_544
Fe3 O1 1.981881 1_545
Fe3 O6 1.981881 1_554
Fe3 O0 1.981881 1_544
Fe3 O7 1.981881 1_555
