# generated using pymatgen
data_Tm3Sb5O12
_symmetry_space_group_name_H-M   'P 1'
_cell_length_a   9.22358800
_cell_length_b   9.22340685
_cell_length_c   9.22345362
_cell_angle_alpha   109.47042886
_cell_angle_beta   109.47182162
_cell_angle_gamma   109.47134787
_symmetry_Int_Tables_number   1
_chemical_formula_structural   Tm3Sb5O12
_chemical_formula_sum   'Tm6 Sb10 O24'
_cell_volume   604.03663546
_cell_formula_units_Z   2
loop_
 _symmetry_equiv_pos_site_id
 _symmetry_equiv_pos_as_xyz
  1  'x, y, z'
loop_
 _atom_site_type_symbol
 _atom_site_label
 _atom_site_symmetry_multiplicity
 _atom_site_fract_x
 _atom_site_fract_y
 _atom_site_fract_z
 _atom_site_occupancy
  Tm  Tm0  1  0.75004404  0.25001155  0.49999770  1
  Tm  Tm1  1  0.74999633  0.49997149  0.24994483  1
  Tm  Tm2  1  0.49996975  0.24996556  0.74996669  1
  Tm  Tm3  1  0.49998088  0.75003551  0.25001384  1
  Tm  Tm4  1  0.24996245  0.75000096  0.50002623  1
  Tm  Tm5  1  0.25003895  0.50002489  0.75005734  1
  Sb  Sb0  1  0.51951780  -0.00000112  0.00004399  1
  Sb  Sb1  1  0.28181207  0.00000345  0.28188414  1
  Sb  Sb2  1  0.28189912  0.28183129  0.00001647  1
  Sb  Sb3  1  0.71816534  0.00003349  0.71817168  1
  Sb  Sb4  1  0.71816261  0.71817269  0.00001503  1
  Sb  Sb5  1  0.00004693  0.51951786  0.00002966  1
  Sb  Sb6  1  -0.00000405  0.00002722  0.51950914  1
  Sb  Sb7  1  0.48057634  0.48054877  0.48054028  1
  Sb  Sb8  1  -0.00001305  0.28182999  0.28181597  1
  Sb  Sb9  1  0.00002266  0.71815334  0.71815774  1
  O  O0  1  0.48029624  -0.00001360  0.20158351  1
  O  O1  1  0.48030469  0.20160025  -0.00001405  1
  O  O2  1  0.70291305  0.50022102  -0.00000950  1
  O  O3  1  0.70292382  0.00000308  0.50022043  1
  O  O4  1  0.79728981  0.29706432  0.29706451  1
  O  O5  1  0.49980781  0.49979979  0.20271056  1
  O  O6  1  0.49978330  0.20270596  0.49979532  1
  O  O7  1  0.50021115  0.70292416  -0.00001480  1
  O  O8  1  0.50021506  -0.00000862  0.70291922  1
  O  O9  1  0.72129375  0.51969674  0.51970123  1
  O  O10  1  0.79837694  0.27867836  0.79837814  1
  O  O11  1  0.79838400  0.79839332  0.27868510  1
  O  O12  1  0.20158494  0.48029571  -0.00001617  1
  O  O13  1  0.20159426  0.99998646  0.48030223  1
  O  O14  1  0.51970738  0.72131115  0.51970510  1
  O  O15  1  0.51969189  0.51970387  0.72131066  1
  O  O16  1  -0.00002284  0.48029494  0.20159960  1
  O  O17  1  -0.00002113  0.20159298  0.48029366  1
  O  O18  1  0.29706317  0.79728354  0.29706713  1
  O  O19  1  0.29706384  0.29706626  0.79727868  1
  O  O20  1  0.20268428  0.49977226  0.49976480  1
  O  O21  1  -0.00000735  0.70291542  0.50019565  1
  O  O22  1  0.00000259  0.50020735  0.70291913  1
  O  O23  1  0.27868314  0.79838034  0.79837114  1
loop_
_geom_bond_atom_site_label_1
_geom_bond_atom_site_label_2
_geom_bond_distance
_geom_bond_site_symmetry_2
O0 Sb0 2.008680 1_555
O0 Sb1 2.191861 1_555
O0 Tm3 2.541429 1_545
O0 Tm0 2.542070 1_555
O1 Sb0 2.009296 1_555
O1 Sb2 2.190791 1_555
O1 Tm1 2.541592 1_555
O1 Tm2 2.541735 1_554
O2 Sb4 1.967762 1_555
O2 Tm1 2.200087 1_555
O2 Tm2 2.200664 1_554
O3 Sb3 1.967768 1_555
O3 Tm3 2.200261 1_545
O3 Tm0 2.200415 1_555
O4 Sb8 1.967784 1_655
O4 Tm0 2.200205 1_555
O4 Tm1 2.200396 1_555
O5 Sb2 1.967757 1_555
O5 Tm1 2.200418 1_555
O5 Tm3 2.200709 1_555
O6 Sb1 1.967795 1_555
O6 Tm2 2.200148 1_555
O6 Tm0 2.200859 1_555
O7 Sb4 1.967785 1_555
O7 Tm5 2.199919 1_554
O7 Tm3 2.200659 1_555
O8 Sb3 1.967722 1_555
O8 Tm2 2.200301 1_555
O8 Tm4 2.200458 1_545
O9 Sb7 2.008584 1_555
O9 Sb9 2.191417 1_655
O9 Tm0 2.541871 1_555
O9 Tm1 2.542292 1_555
O10 Sb5 2.009561 1_656
O10 Sb3 2.190853 1_555
O10 Tm2 2.541851 1_555
O10 Tm0 2.541862 1_555
O11 Sb6 2.009318 1_665
O11 Sb4 2.191045 1_555
O11 Tm1 2.541905 1_555
O11 Tm3 2.542045 1_555
O12 Sb5 2.008766 1_555
O12 Sb2 2.191757 1_555
O12 Tm5 2.541455 1_554
O12 Tm3 2.541983 1_555
O13 Sb6 2.009237 1_565
O13 Sb1 2.190793 1_565
O13 Tm2 2.541575 1_565
O13 Tm4 2.541604 1_555
O14 Sb7 2.008986 1_555
O14 Sb3 2.191386 1_565
O14 Tm3 2.541773 1_555
O14 Tm4 2.542254 1_555
O15 Sb7 2.009125 1_555
O15 Sb4 2.191308 1_556
O15 Tm5 2.541657 1_555
O15 Tm2 2.541914 1_555
O16 Sb5 2.009082 1_555
O16 Sb8 2.191154 1_555
O16 Tm1 2.541376 1_455
O16 Tm4 2.541919 1_555
O17 Sb6 2.008882 1_555
O17 Sb8 2.191387 1_555
O17 Tm0 2.541340 1_455
O17 Tm5 2.542260 1_555
O18 Sb1 1.967791 1_565
O18 Tm3 2.200107 1_555
O18 Tm4 2.200765 1_555
O19 Sb2 1.967850 1_556
O19 Tm5 2.200223 1_555
O19 Tm2 2.200426 1_555
O20 Sb8 1.967810 1_555
O20 Tm4 2.200335 1_555
O20 Tm5 2.200848 1_555
O21 Sb9 1.967882 1_555
O21 Tm4 2.199954 1_555
O21 Tm1 2.200545 1_455
O22 Sb9 1.967755 1_555
O22 Tm0 2.200158 1_455
O22 Tm5 2.200530 1_555
O23 Sb0 2.009475 1_566
O23 Sb9 2.190991 1_555
O23 Tm4 2.541292 1_555
O23 Tm5 2.541731 1_555
