# generated using pymatgen
data_Na3Zr2Si2PO12
_symmetry_space_group_name_H-M   'P 1'
_cell_length_a   9.15343900
_cell_length_b   9.16035265
_cell_length_c   16.33152915
_cell_angle_alpha   106.21232837
_cell_angle_beta   89.08067568
_cell_angle_gamma   119.88947017
_symmetry_Int_Tables_number   1
_chemical_formula_structural   Na3Zr2Si2PO12
_chemical_formula_sum   'Na12 Zr8 Si8 P4 O48'
_cell_volume   1127.49347841
_cell_formula_units_Z   4
loop_
 _symmetry_equiv_pos_site_id
 _symmetry_equiv_pos_as_xyz
  1  'x, y, z'
loop_
 _atom_site_type_symbol
 _atom_site_label
 _atom_site_symmetry_multiplicity
 _atom_site_fract_x
 _atom_site_fract_y
 _atom_site_fract_z
 _atom_site_occupancy
  Na  Na0  1  0.46108600  0.54141000  0.19153100  1
  Na  Na1  1  0.16731900  0.76218700  0.46267700  1
  Na  Na2  1  0.18567300  0.49111200  0.26502900  1
  Na  Na3  1  0.87369600  0.34887200  0.12652800  1
  Na  Na4  1  0.91543800  0.51332300  0.71454100  1
  Na  Na5  1  0.63287800  0.63870500  0.37885800  1
  Na  Na6  1  0.66797500  0.75936000  0.96383300  1
  Na  Na7  1  0.33068200  0.24346500  0.03581100  1
  Na  Na8  1  0.37667300  0.35194500  0.62657900  1
  Na  Na9  1  0.12803100  0.63730600  0.87751000  1
  Na  Na10  1  0.83090900  0.24228200  0.53492900  1
  Na  Na11  1  0.57957700  0.47771600  0.78666600  1
  Zr  Zr0  1  0.91986300  0.78789500  0.28107600  1
  Zr  Zr1  1  0.18233600  0.79820600  0.02889100  1
  Zr  Zr2  1  0.41798000  0.79284500  0.77959900  1
  Zr  Zr3  1  0.32667700  0.20746900  0.47013100  1
  Zr  Zr4  1  0.68286700  0.80071900  0.52796200  1
  Zr  Zr5  1  0.57721700  0.20526400  0.22191800  1
  Zr  Zr6  1  0.82928400  0.20530000  0.97149000  1
  Zr  Zr7  1  0.07403600  0.21118100  0.71990200  1
  Si  Si0  1  0.16083700  0.29015700  0.12004200  1
  Si  Si1  1  0.62185500  0.29377700  0.37515200  1
  Si  Si2  1  0.91447200  0.01979500  0.36644700  1
  Si  Si3  1  0.58866600  0.98378400  0.13210300  1
  Si  Si4  1  0.65967500  0.29149300  0.61754600  1
  Si  Si5  1  0.12586200  0.29368700  0.87555500  1
  Si  Si6  1  0.41323400  0.01841600  0.86762400  1
  Si  Si7  1  0.08901000  0.98640200  0.63119900  1
  P  P0  1  0.87767900  0.70429400  0.12692100  1
  P  P1  1  0.33683900  0.70855500  0.38073400  1
  P  P2  1  0.37501600  0.70657000  0.62490500  1
  P  P3  1  0.83898300  0.71045800  0.88130000  1
  O  O0  1  0.84227200  0.90600400  0.04260400  1
  O  O1  1  0.58996200  0.29629300  0.29097700  1
  O  O2  1  0.35347800  0.28036800  0.14461600  1
  O  O3  1  0.07521300  0.31556200  0.02709100  1
  O  O4  1  0.33931500  0.90771000  0.54272100  1
  O  O5  1  0.17618200  0.48568000  0.11463300  1
  O  O6  1  0.03851700  0.08760500  0.19294800  1
  O  O7  1  0.79045600  0.48139000  0.37597900  1
  O  O8  1  0.08440200  0.30335000  0.78849000  1
  O  O9  1  0.93266100  0.85779400  0.36115700  1
  O  O10  1  0.10441600  0.14547700  0.39252600  1
  O  O11  1  0.85010500  0.27473900  0.64390400  1
  O  O12  1  0.70879000  0.12615000  0.05752400  1
  O  O13  1  0.03255400  0.68187700  0.12477700  1
  O  O14  1  0.67515200  0.81428600  0.22287200  1
  O  O15  1  0.82259500  0.17868300  0.27406900  1
  O  O16  1  0.45445700  0.32542500  0.37097200  1
  O  O17  1  0.79163000  0.87326000  0.44083100  1
  O  O18  1  0.57465100  0.31260900  0.52564700  1
  O  O19  1  0.39909700  0.84846000  0.10903700  1
  O  O20  1  0.56851100  0.14182500  0.13844700  1
  O  O21  1  0.67331200  0.48765800  0.61039000  1
  O  O22  1  0.53915000  0.08862300  0.69197600  1
  O  O23  1  0.71555900  0.52795700  0.12557200  1
  O  O24  1  0.29488800  0.48234600  0.87513200  1
  O  O25  1  0.45281700  0.89757600  0.31042900  1
  O  O26  1  0.31973700  0.52289300  0.38621400  1
  O  O27  1  0.43351600  0.86018800  0.86081200  1
  O  O28  1  0.60112900  0.14299600  0.89587000  1
  O  O29  1  0.41928800  0.68504700  0.46796500  1
  O  O30  1  0.21159800  0.13109100  0.55733600  1
  O  O31  1  0.52962100  0.68329500  0.62338400  1
  O  O32  1  0.17452900  0.81624100  0.72308500  1
  O  O33  1  0.32538100  0.18529600  0.77633200  1
  O  O34  1  0.96029500  0.31976900  0.87574200  1
  O  O35  1  0.28911200  0.86746400  0.94190300  1
  O  O36  1  0.16117900  0.73014200  0.35600400  1
  O  O37  1  0.90044300  0.85624200  0.60588200  1
  O  O38  1  0.07086400  0.14244300  0.63967200  1
  O  O39  1  0.91179900  0.69734600  0.20708800  1
  O  O40  1  0.21374700  0.52920100  0.62432100  1
  O  O41  1  0.95536500  0.89856000  0.81156400  1
  O  O42  1  0.82053500  0.52133900  0.88869500  1
  O  O43  1  0.65476400  0.07877000  0.46314500  1
  O  O44  1  0.91848700  0.68795500  0.96847000  1
  O  O45  1  0.66029100  0.72841700  0.85509300  1
  O  O46  1  0.41222600  0.69419600  0.70766300  1
  O  O47  1  0.16287500  0.08065200  0.96280400  1
loop_
_geom_bond_atom_site_label_1
_geom_bond_atom_site_label_2
_geom_bond_distance
_geom_bond_site_symmetry_2
Na0 O2 1.982160 1_555
Na0 O14 2.187653 1_555
Na0 O5 2.656862 1_555
Na1 O36 1.680921 1_555
Na1 O4 1.722146 1_555
Na1 P1 2.183129 1_555
Na2 P1 2.165200 1_555
Na2 O26 2.215348 1_555
Na2 O36 2.390418 1_555
Na2 O5 2.444835 1_555
Na2 Si0 2.492651 1_555
Na3 O12 1.847249 1_555
Na3 O5 2.436158 1_655
Na4 O11 1.943346 1_555
Na4 Si4 2.387371 1_555
Na4 O32 2.565001 1_655
Na5 O17 1.863757 1_555
Na5 O16 2.459383 1_555
Na5 O7 2.488157 1_555
Na5 O26 2.526883 1_555
Na6 O45 1.715265 1_555
Na6 O0 1.723286 1_556
Na7 O47 1.669704 1_554
Na7 O2 1.709253 1_555
Na8 O30 1.839976 1_555
Na9 O35 1.854303 1_555
Na9 O34 2.514452 1_455
Na10 O43 1.700206 1_555
Na10 O11 1.717324 1_555
Na10 Si4 2.185658 1_555
Na11 O45 1.992753 1_555
Na11 O33 2.483135 1_555
O1 Zr5 1.167506 1_555
O1 Si1 1.418749 1_555
O2 Si0 1.865161 1_555
O3 O5 1.639976 1_555
O3 Si0 1.841217 1_555
O3 Zr6 2.049274 1_454
O5 Si0 1.752897 1_555
O6 Si0 2.287864 1_555
O7 Si1 1.637002 1_555
O8 Zr7 1.171344 1_555
O8 Si5 1.514842 1_555
O9 Zr0 1.263613 1_555
O9 Si2 1.552930 1_565
O10 Si2 1.511525 1_455
O10 Zr3 2.144110 1_555
O11 Si4 1.890716 1_555
O12 Zr6 1.854317 1_554
O12 Si3 1.951428 1_545
O13 P0 1.528928 1_455
O13 Zr1 2.207780 1_555
O14 Zr0 2.591469 1_555
O15 Zr5 2.559628 1_555
O16 Si1 1.701084 1_555
O16 Zr3 2.194263 1_555
O17 Zr4 1.811292 1_555
O17 Si2 1.975934 1_565
O18 Si4 1.801468 1_555
O18 Zr3 2.073965 1_555
O19 Si3 1.518526 1_555
O19 Zr1 2.167579 1_555
O20 Zr5 1.310484 1_555
O20 Si3 1.523962 1_545
O21 Si4 1.775241 1_555
O22 Si4 2.307206 1_555
O23 P0 1.550476 1_555
O24 Si5 1.649808 1_555
O25 P1 2.163892 1_555
O26 O29 1.549807 1_555
O26 P1 1.656561 1_555
O27 Zr2 1.273449 1_555
O27 Si6 1.524846 1_565
O28 Si6 1.499489 1_555
O28 Zr6 2.171086 1_555
O29 P1 1.735868 1_555
O29 Zr4 2.202716 1_555
O30 Zr3 1.844222 1_555
O30 Si7 1.959089 1_545
O31 P2 1.531471 1_555
O31 Zr4 2.217050 1_555
O32 Zr2 2.552656 1_555
O33 Zr7 2.632945 1_555
O34 Si5 1.647475 1_655
O34 Zr6 2.141250 1_555
O35 Zr1 1.793520 1_556
O35 Si6 2.000284 1_565
O36 P1 1.780411 1_555
O37 Si7 1.506085 1_655
O37 Zr4 2.134195 1_555
O38 Zr7 1.279240 1_555
O38 Si7 1.488400 1_545
O39 Zr0 1.239238 1_555
O39 P0 1.376659 1_555
O40 P2 1.555766 1_555
O41 P3 2.151362 1_555
O42 P3 1.693787 1_555
O44 P3 1.716218 1_555
O44 Zr1 2.217101 1_656
O45 P3 1.793195 1_555
O46 Zr2 1.249529 1_555
O46 P2 1.447197 1_555
