# generated using pymatgen
data_LiVCrP2(O4F)2
_symmetry_space_group_name_H-M   'P 1'
_cell_length_a   7.33360200
_cell_length_b   7.94267708
_cell_length_c   10.27503014
_cell_angle_alpha   112.63328730
_cell_angle_beta   105.17176470
_cell_angle_gamma   87.36012857
_symmetry_Int_Tables_number   1
_chemical_formula_structural   LiVCrP2(O4F)2
_chemical_formula_sum   'Li3 V3 Cr3 P6 O24 F6'
_cell_volume   532.15315367
_cell_formula_units_Z   3
loop_
 _symmetry_equiv_pos_site_id
 _symmetry_equiv_pos_as_xyz
  1  'x, y, z'
loop_
 _atom_site_type_symbol
 _atom_site_label
 _atom_site_symmetry_multiplicity
 _atom_site_fract_x
 _atom_site_fract_y
 _atom_site_fract_z
 _atom_site_occupancy
  Li  Li0  1  0.68273600  0.93002000  0.50118700  1
  Li  Li1  1  0.98295700  0.40251900  0.16348500  1
  Li  Li2  1  0.64947300  0.73778800  0.83331700  1
  V  V0  1  0.00969400  0.99925200  0.00033900  1
  V  V1  1  0.33106100  0.66642200  0.33269200  1
  V  V2  1  0.66405200  0.33305700  0.66558600  1
  Cr  Cr0  1  0.49660500  0.49958300  0.00194500  1
  Cr  Cr1  1  0.16773100  0.83330200  0.66636900  1
  Cr  Cr2  1  0.83461600  0.16648700  0.33320400  1
  P  P0  1  0.43166200  0.93130600  0.18429000  1
  P  P1  1  0.90388900  0.73790300  0.14912700  1
  P  P2  1  0.23822000  0.40175300  0.48276600  1
  P  P3  1  0.75895700  0.59735200  0.51814100  1
  P  P4  1  0.09063700  0.26692200  0.85014500  1
  P  P5  1  0.57744400  0.06887900  0.81553000  1
  O  O0  1  0.45736400  0.76361200  0.05369300  1
  O  O1  1  0.88714300  0.78295900  0.01217000  1
  O  O2  1  0.10593800  0.66451100  0.19305400  1
  O  O3  1  0.44211900  0.88344000  0.32044800  1
  O  O4  1  0.87853700  0.90285900  0.28033500  1
  O  O5  1  0.77359300  0.56832500  0.11049700  1
  O  O6  1  0.22567900  0.44866000  0.34498500  1
  O  O7  1  0.55901300  0.67206200  0.47017400  1
  O  O8  1  0.44175700  0.90248800  0.77562300  1
  O  O9  1  0.22434000  0.99507400  0.13688400  1
  O  O10  1  0.89209700  0.76517800  0.55742400  1
  O  O11  1  0.21687300  0.57181000  0.61267400  1
  O  O12  1  0.78889200  0.43056000  0.39107900  1
  O  O13  1  0.10282300  0.23912000  0.44163500  1
  O  O14  1  0.77533900  0.99048900  0.86298200  1
  O  O15  1  0.56467200  0.09525900  0.22501300  1
  O  O16  1  0.44328900  0.33477700  0.52949400  1
  O  O17  1  0.75908400  0.56040400  0.65636400  1
  O  O18  1  0.22944500  0.42767400  0.89331500  1
  O  O19  1  0.11713900  0.09518200  0.72452600  1
  O  O20  1  0.57558100  0.10492000  0.67600900  1
  O  O21  1  0.88795400  0.33530700  0.79956400  1
  O  O22  1  0.08514300  0.22677000  0.98813300  1
  O  O23  1  0.55205400  0.23819500  0.94184700  1
  F  F0  1  0.22542400  0.82910100  0.48683600  1
  F  F1  1  0.43931800  0.50266400  0.17984100  1
  F  F2  1  0.10984200  0.83615800  0.84498200  1
  F  F3  1  0.89570400  0.17056300  0.15594500  1
  F  F4  1  0.55946300  0.50370500  0.82351300  1
  F  F5  1  0.77288600  0.16191200  0.51002100  1
loop_
_geom_bond_atom_site_label_1
_geom_bond_atom_site_label_2
_geom_bond_distance
_geom_bond_site_symmetry_2
Li0 O10 2.082840 1_555
Li0 O20 2.119373 1_565
Li0 O3 2.124974 1_555
Li0 O7 2.154088 1_555
Li1 O5 2.077556 1_555
Li1 O22 2.105011 1_654
Li1 O6 2.139442 1_655
Li1 O2 2.186044 1_655
Li2 O8 2.079374 1_555
Li2 O1 2.101774 1_556
Li2 O14 2.127438 1_555
Li2 O17 2.150833 1_555
Cr0 O18 1.969380 1_554
Cr0 F1 1.971003 1_555
Cr0 O23 1.980881 1_554
Cr0 O0 1.982331 1_555
Cr0 F4 2.016152 1_554
Cr0 O5 2.028783 1_555
Cr1 O11 1.975134 1_555
Cr1 O19 1.977262 1_565
Cr1 F2 1.980856 1_555
Cr1 F0 1.985680 1_555
Cr1 O8 2.011658 1_555
Cr1 O10 2.020408 1_455
Cr2 O13 1.976279 1_655
Cr2 O4 1.984263 1_545
Cr2 O15 1.985478 1_555
Cr2 O12 1.986190 1_555
Cr2 F5 1.997462 1_555
Cr2 F3 1.998210 1_555
O0 P0 1.530976 1_555
O1 P1 1.554530 1_555
O1 V0 2.033224 1_655
O2 P1 1.584921 1_455
O2 V1 1.878877 1_555
O3 P0 1.567875 1_555
O3 V1 2.000044 1_555
O4 P1 1.522492 1_555
O5 P1 1.547032 1_555
O6 P2 1.576746 1_555
O6 V1 1.986745 1_555
O7 P3 1.584857 1_555
O7 V1 1.874636 1_555
O8 P5 1.547705 1_565
O9 P0 1.592722 1_555
O9 V0 1.822753 1_555
O10 P3 1.546810 1_555
O11 P2 1.527377 1_555
O12 P3 1.516496 1_555
O13 P2 1.520354 1_555
O14 P5 1.584817 1_565
O14 V0 1.901665 1_656
O15 P0 1.518668 1_545
O16 P2 1.587499 1_555
O16 V2 1.845092 1_555
O17 P3 1.556693 1_555
O17 V2 2.009374 1_555
O18 P4 1.520099 1_555
O19 P4 1.521923 1_555
O20 P5 1.562861 1_555
O20 V2 2.002465 1_555
O21 P4 1.585261 1_655
O21 V2 1.841795 1_555
O22 P4 1.578821 1_555
O22 V0 1.972402 1_546
O23 P5 1.512549 1_555
F0 V1 1.937308 1_555
F1 V1 1.942669 1_555
F2 V0 1.923570 1_556
F3 Li1 1.944864 1_555
F3 V0 2.006737 1_645
F4 Li2 1.958766 1_555
F4 V2 1.980277 1_555
F5 Li0 1.946739 1_545
F5 V2 1.983772 1_555
