# generated using pymatgen
data_Cr3TeO8
_symmetry_space_group_name_H-M   'P 1'
_cell_length_a   5.98015400
_cell_length_b   5.98012319
_cell_length_c   9.18019900
_cell_angle_alpha   89.99790041
_cell_angle_beta   90.00177975
_cell_angle_gamma   120.00066296
_symmetry_Int_Tables_number   1
_chemical_formula_structural   Cr3TeO8
_chemical_formula_sum   'Cr6 Te2 O16'
_cell_volume   284.31667011
_cell_formula_units_Z   2
loop_
 _symmetry_equiv_pos_site_id
 _symmetry_equiv_pos_as_xyz
  1  'x, y, z'
loop_
 _atom_site_type_symbol
 _atom_site_label
 _atom_site_symmetry_multiplicity
 _atom_site_fract_x
 _atom_site_fract_y
 _atom_site_fract_z
 _atom_site_occupancy
  Cr  Cr0  1  0.17068700  0.82930100  0.21294700  1
  Cr  Cr1  1  0.17069800  0.34142900  0.21300000  1
  Cr  Cr2  1  0.65854000  0.82926900  0.21299300  1
  Cr  Cr3  1  0.34145900  0.17074200  0.71295400  1
  Cr  Cr4  1  0.82930600  0.65859000  0.71296000  1
  Cr  Cr5  1  0.82931400  0.17073400  0.71295800  1
  Te  Te0  1  0.33333700  0.66668700  0.49055200  1
  Te  Te1  1  0.66666500  0.33334300  0.99054600  1
  O  O0  1  0.17206100  0.82797100  0.59690500  1
  O  O1  1  0.04403200  0.52201500  0.34519300  1
  O  O2  1  0.33332800  0.66663500  0.10884200  1
  O  O3  1  0.99993100  0.00000800  0.29332600  1
  O  O4  1  0.00002400  0.00000600  0.79329800  1
  O  O5  1  0.17205600  0.34409000  0.59689800  1
  O  O6  1  0.47798200  0.95597400  0.34519000  1
  O  O7  1  0.47797900  0.52199900  0.34520300  1
  O  O8  1  0.34407200  0.17206800  0.09689800  1
  O  O9  1  0.65593100  0.82796900  0.59689600  1
  O  O10  1  0.52203700  0.47800500  0.84516800  1
  O  O11  1  0.52203800  0.04404600  0.84518000  1
  O  O12  1  0.66668600  0.33336500  0.60881400  1
  O  O13  1  0.82791800  0.65592600  0.09690300  1
  O  O14  1  0.95598700  0.47799700  0.84518500  1
  O  O15  1  0.82793400  0.17203700  0.09691300  1
loop_
_geom_bond_atom_site_label_1
_geom_bond_atom_site_label_2
_geom_bond_distance
_geom_bond_site_symmetry_2
Cr0 O3 1.916226 1_465
Cr0 O2 1.936981 1_555
Cr0 O1 2.008088 1_555
Cr0 O6 2.008118 1_555
Cr0 O8 2.070317 1_565
Cr0 O13 2.070318 1_455
Cr1 O3 1.915774 1_455
Cr1 O2 1.936695 1_555
Cr1 O1 2.007720 1_555
Cr1 O7 2.007820 1_555
Cr1 O15 2.070499 1_455
Cr1 O8 2.070502 1_555
Cr2 O3 1.915671 1_565
Cr2 O2 1.936706 1_555
Cr2 O6 2.007771 1_555
Cr2 O7 2.007797 1_555
Cr2 O13 2.070383 1_555
Cr2 O15 2.070467 1_565
Cr3 O4 1.915940 1_555
Cr3 O12 1.936748 1_555
Cr3 O10 2.007841 1_555
Cr3 O11 2.007915 1_555
Cr3 O5 2.070283 1_555
Cr3 O0 2.070379 1_545
Cr4 O4 1.915826 1_665
Cr4 O12 1.936767 1_555
Cr4 O10 2.007830 1_555
Cr4 O14 2.007909 1_555
Cr4 O0 2.070336 1_655
Cr4 O9 2.070336 1_555
Cr5 O4 1.915916 1_655
Cr5 O12 1.936877 1_555
Cr5 O14 2.007927 1_555
Cr5 O11 2.007947 1_555
Cr5 O5 2.070300 1_655
Cr5 O9 2.070414 1_545
O0 Te0 1.934951 1_555
O1 Te0 2.006366 1_555
O5 Te0 1.935012 1_555
O6 Te0 2.006299 1_555
O7 Te0 2.006464 1_555
O8 Te1 1.935063 1_554
O9 Te0 1.935005 1_555
O10 Te1 2.006408 1_555
O11 Te1 2.006411 1_555
O13 Te1 1.935042 1_554
O14 Te1 2.006473 1_555
O15 Te1 1.935017 1_554
