# generated using pymatgen
data_ScMn2O5
_symmetry_space_group_name_H-M   'P 1'
_cell_length_a   5.27431675
_cell_length_b   5.27431675
_cell_length_c   9.89139000
_cell_angle_alpha   90.00000000
_cell_angle_beta   90.00000000
_cell_angle_gamma   135.53445207
_symmetry_Int_Tables_number   1
_chemical_formula_structural   ScMn2O5
_chemical_formula_sum   'Sc2 Mn4 O10'
_cell_volume   192.74611906
_cell_formula_units_Z   2
loop_
 _symmetry_equiv_pos_site_id
 _symmetry_equiv_pos_as_xyz
  1  'x, y, z'
loop_
 _atom_site_type_symbol
 _atom_site_label
 _atom_site_symmetry_multiplicity
 _atom_site_fract_x
 _atom_site_fract_y
 _atom_site_fract_z
 _atom_site_occupancy
  Sc  Sc0  1  0.79645000  0.20355000  0.25000000  1
  Sc  Sc1  1  0.20355000  0.79645000  0.75000000  1
  Mn  Mn0  1  0.86173900  0.13826100  0.55585800  1
  Mn  Mn1  1  0.86173900  0.13826100  0.94414200  1
  Mn  Mn2  1  0.13826100  0.86173900  0.05585800  1
  Mn  Mn3  1  0.13826100  0.86173900  0.44414200  1
  O  O0  1  0.95216100  0.04783900  0.11508100  1
  O  O1  1  0.95216100  0.04783900  0.38491900  1
  O  O2  1  0.68750600  0.31249400  0.44570500  1
  O  O3  1  0.68750600  0.31249400  0.05429500  1
  O  O4  1  0.21939700  0.78060300  0.25000000  1
  O  O5  1  0.04783900  0.95216100  0.61508100  1
  O  O6  1  0.31249400  0.68750600  0.55429500  1
  O  O7  1  0.78060300  0.21939700  0.75000000  1
  O  O8  1  0.04783900  0.95216100  0.88491900  1
  O  O9  1  0.31249400  0.68750600  0.94570500  1
loop_
_geom_bond_atom_site_label_1
_geom_bond_atom_site_label_2
_geom_bond_distance
_geom_bond_site_symmetry_2
Mn0 O1 1.907466 1_555
Mn0 O5 1.909241 1_645
Mn0 O2 2.020273 1_555
Mn0 O6 2.052816 1_655
Mn0 O6 2.052816 1_545
Mn0 O7 2.077338 1_555
Mn1 O0 1.907466 1_556
Mn1 O8 1.909241 1_645
Mn1 O3 2.020273 1_556
Mn1 O9 2.052816 1_655
Mn1 O9 2.052816 1_545
Mn1 O7 2.077338 1_555
Mn2 O8 1.907466 1_554
Mn2 O0 1.909241 1_465
Mn2 O9 2.020273 1_554
Mn2 O3 2.052816 1_455
Mn2 O3 2.052816 1_565
Mn2 O4 2.077338 1_555
Mn3 O5 1.907466 1_555
Mn3 O1 1.909241 1_465
Mn3 O6 2.020273 1_555
Mn3 O2 2.052816 1_565
Mn3 O2 2.052816 1_455
Mn3 O4 2.077338 1_555
O0 Sc0 2.023035 1_555
O1 Sc0 2.023035 1_555
O2 Sc0 2.208825 1_555
O3 Sc0 2.208825 1_555
O4 Sc0 2.132761 1_565
O4 Sc0 2.132761 1_455
O5 Sc1 2.023035 1_555
O6 Sc1 2.208825 1_555
O7 Sc1 2.132761 1_655
O7 Sc1 2.132761 1_545
O8 Sc1 2.023035 1_555
O9 Sc1 2.208825 1_555
