# generated using pymatgen
data_LiV(PO3)3
_symmetry_space_group_name_H-M   'P 1'
_cell_length_a   6.49735500
_cell_length_b   9.74288300
_cell_length_c   6.49721522
_cell_angle_alpha   89.99903356
_cell_angle_beta   59.99946941
_cell_angle_gamma   89.99980383
_symmetry_Int_Tables_number   1
_chemical_formula_structural   LiV(PO3)3
_chemical_formula_sum   'Li2 V2 P6 O18'
_cell_volume   356.18829668
_cell_formula_units_Z   2
loop_
 _symmetry_equiv_pos_site_id
 _symmetry_equiv_pos_as_xyz
  1  'x, y, z'
loop_
 _atom_site_type_symbol
 _atom_site_label
 _atom_site_symmetry_multiplicity
 _atom_site_fract_x
 _atom_site_fract_y
 _atom_site_fract_z
 _atom_site_occupancy
  Li  Li0  1  0.66677200  0.49999900  0.66675000  1
  Li  Li1  1  0.66648000  0.00000000  0.66675000  1
  V  V0  1  0.33334000  0.50003400  0.33335000  1
  V  V1  1  0.33325300  0.99999700  0.33338400  1
  P  P0  1  0.72596100  0.74997100  0.02097300  1
  P  P1  1  0.72597100  0.25002000  0.25306200  1
  P  P2  1  0.25306600  0.25002800  0.02097800  1
  P  P3  1  0.02097400  0.74996000  0.25305700  1
  P  P4  1  0.25305400  0.74997500  0.72594900  1
  P  P5  1  0.02100500  0.25003800  0.72594300  1
  O  O0  1  0.98167700  0.25000000  0.23215200  1
  O  O1  1  0.78619000  0.75002000  0.23214300  1
  O  O2  1  0.98165400  0.75001800  0.78618200  1
  O  O3  1  0.78622300  0.24996200  0.98164300  1
  O  O4  1  0.23215900  0.25000300  0.78618800  1
  O  O5  1  0.23213500  0.74997700  0.98165000  1
  O  O6  1  0.60628300  0.88337600  0.02682700  1
  O  O7  1  0.60635800  0.61666700  0.02680700  1
  O  O8  1  0.60633000  0.38331900  0.36680000  1
  O  O9  1  0.60632300  0.11660900  0.36687500  1
  O  O10  1  0.36686600  0.11661300  0.02682000  1
  O  O11  1  0.36685300  0.38331600  0.02682500  1
  O  O12  1  0.02687400  0.88337100  0.36683500  1
  O  O13  1  0.02679800  0.61666700  0.36684700  1
  O  O14  1  0.36681800  0.61669100  0.60628300  1
  O  O15  1  0.36684900  0.88339500  0.60632700  1
  O  O16  1  0.02682300  0.38334400  0.60635600  1
  O  O17  1  0.02691100  0.11663300  0.60624100  1
loop_
_geom_bond_atom_site_label_1
_geom_bond_atom_site_label_2
_geom_bond_distance
_geom_bond_site_symmetry_2
Li0 O16 2.449582 1_655
Li0 O7 2.449605 1_556
Li0 O13 2.450019 1_655
Li0 O11 2.450279 1_556
Li0 O8 2.451518 1_555
Li0 O14 2.451695 1_555
Li1 O15 2.449318 1_545
Li1 O10 2.449346 1_556
Li1 O9 2.449706 1_555
Li1 O6 2.449933 1_546
Li1 O12 2.451224 1_645
Li1 O17 2.451407 1_655
O0 P1 1.597821 1_555
O0 P2 1.603867 1_655
O1 P3 1.597757 1_655
O1 P0 1.603898 1_555
O2 P0 1.597732 1_556
O2 P4 1.603921 1_655
O3 P5 1.597727 1_655
O3 P1 1.603965 1_556
O4 P2 1.597739 1_556
O4 P5 1.603889 1_555
O5 P4 1.597726 1_555
O5 P3 1.603903 1_556
O6 P0 1.505278 1_555
O6 V1 2.207212 1_555
O7 P0 1.504216 1_555
O7 V0 2.207171 1_555
O8 P1 1.504194 1_555
O8 V0 2.207226 1_555
O9 P1 1.505245 1_555
O9 V1 2.207296 1_545
O10 P2 1.505261 1_555
O10 V1 2.206994 1_545
O11 P2 1.504164 1_555
O11 V0 2.207553 1_555
O12 P3 1.505263 1_555
O12 V1 2.206447 1_555
O13 P3 1.504154 1_555
O13 V0 2.207277 1_555
O14 P4 1.504151 1_555
O14 V0 2.206701 1_555
O15 P4 1.505246 1_555
O15 V1 2.206833 1_555
O16 P5 1.504183 1_555
O16 V0 2.207356 1_555
O17 P5 1.505282 1_555
O17 V1 2.206198 1_545
