# generated using pymatgen
data_Li4Mn3F10
_symmetry_space_group_name_H-M   'P 1'
_cell_length_a   5.41154500
_cell_length_b   5.41589000
_cell_length_c   27.09654300
_cell_angle_alpha   90.00000000
_cell_angle_beta   90.00000000
_cell_angle_gamma   90.00000000
_symmetry_Int_Tables_number   1
_chemical_formula_structural   Li4Mn3F10
_chemical_formula_sum   'Li16 Mn12 F40'
_cell_volume   794.15449049
_cell_formula_units_Z   4
loop_
 _symmetry_equiv_pos_site_id
 _symmetry_equiv_pos_as_xyz
  1  'x, y, z'
loop_
 _atom_site_type_symbol
 _atom_site_label
 _atom_site_symmetry_multiplicity
 _atom_site_fract_x
 _atom_site_fract_y
 _atom_site_fract_z
 _atom_site_occupancy
  Li  Li0  1  0.01439500  0.51038300  0.57450700  1
  Li  Li1  1  0.01439500  0.98961700  0.07450700  1
  Li  Li2  1  0.96321000  0.46595700  0.72019400  1
  Li  Li3  1  0.96321000  0.03404300  0.22019400  1
  Li  Li4  1  0.53679000  0.96595700  0.72019400  1
  Li  Li5  1  0.53679000  0.53404300  0.22019400  1
  Li  Li6  1  0.48560500  0.48961700  0.07450700  1
  Li  Li7  1  0.48560500  0.01038300  0.57450700  1
  Li  Li8  1  0.51439500  0.98961700  0.42549300  1
  Li  Li9  1  0.51439500  0.51038300  0.92549300  1
  Li  Li10  1  0.46321000  0.46595700  0.77980600  1
  Li  Li11  1  0.46321000  0.03404300  0.27980600  1
  Li  Li12  1  0.03679000  0.96595700  0.77980600  1
  Li  Li13  1  0.03679000  0.53404300  0.27980600  1
  Li  Li14  1  0.98560500  0.01038300  0.92549300  1
  Li  Li15  1  0.98560500  0.48961700  0.42549300  1
  Mn  Mn0  1  0.00000000  0.50000000  0.00000000  1
  Mn  Mn1  1  0.00000000  0.00000000  0.50000000  1
  Mn  Mn2  1  0.99637900  0.49578200  0.85146400  1
  Mn  Mn3  1  0.99637900  0.00421800  0.35146400  1
  Mn  Mn4  1  0.50362100  0.50421800  0.35146400  1
  Mn  Mn5  1  0.50362100  0.99578200  0.85146400  1
  Mn  Mn6  1  0.50000000  0.50000000  0.50000000  1
  Mn  Mn7  1  0.50000000  0.00000000  0.00000000  1
  Mn  Mn8  1  0.49637900  0.49578200  0.64853600  1
  Mn  Mn9  1  0.49637900  0.00421800  0.14853600  1
  Mn  Mn10  1  0.00362100  0.99578200  0.64853600  1
  Mn  Mn11  1  0.00362100  0.50421800  0.14853600  1
  F  F0  1  0.87375000  0.09827600  0.72136900  1
  F  F1  1  0.87375000  0.40172400  0.22136900  1
  F  F2  1  0.86021200  0.39301400  0.92566100  1
  F  F3  1  0.86021200  0.10698600  0.42566100  1
  F  F4  1  0.83880400  0.33458900  0.52279600  1
  F  F5  1  0.83880400  0.16541100  0.02279600  1
  F  F6  1  0.84338400  0.15946700  0.82708900  1
  F  F7  1  0.84338400  0.34053300  0.32708900  1
  F  F8  1  0.84019300  0.33262900  0.62610600  1
  F  F9  1  0.84019300  0.16737100  0.12610600  1
  F  F10  1  0.65980700  0.66737100  0.12610600  1
  F  F11  1  0.65980700  0.83262900  0.62610600  1
  F  F12  1  0.65661600  0.65946700  0.82708900  1
  F  F13  1  0.65661600  0.84053300  0.32708900  1
  F  F14  1  0.66119600  0.83458900  0.52279600  1
  F  F15  1  0.66119600  0.66541100  0.02279600  1
  F  F16  1  0.63978800  0.60698600  0.42566100  1
  F  F17  1  0.63978800  0.89301400  0.92566100  1
  F  F18  1  0.62625000  0.59827600  0.72136900  1
  F  F19  1  0.62625000  0.90172400  0.22136900  1
  F  F20  1  0.37375000  0.09827600  0.77863100  1
  F  F21  1  0.37375000  0.40172400  0.27863100  1
  F  F22  1  0.36021200  0.10698600  0.07433900  1
  F  F23  1  0.36021200  0.39301400  0.57433900  1
  F  F24  1  0.33880400  0.33458900  0.97720400  1
  F  F25  1  0.33880400  0.16541100  0.47720400  1
  F  F26  1  0.34338400  0.15946700  0.67291100  1
  F  F27  1  0.34338400  0.34053300  0.17291100  1
  F  F28  1  0.34019300  0.16737100  0.37389400  1
  F  F29  1  0.34019300  0.33262900  0.87389400  1
  F  F30  1  0.15980700  0.66737100  0.37389400  1
  F  F31  1  0.15980700  0.83262900  0.87389400  1
  F  F32  1  0.15661600  0.65946700  0.67291100  1
  F  F33  1  0.15661600  0.84053300  0.17291100  1
  F  F34  1  0.16119600  0.83458900  0.97720400  1
  F  F35  1  0.16119600  0.66541100  0.47720400  1
  F  F36  1  0.13978800  0.89301400  0.57433900  1
  F  F37  1  0.13978800  0.60698600  0.07433900  1
  F  F38  1  0.12625000  0.59827600  0.77863100  1
  F  F39  1  0.12625000  0.90172400  0.27863100  1
loop_
_geom_bond_atom_site_label_1
_geom_bond_atom_site_label_2
_geom_bond_distance
_geom_bond_site_symmetry_2
F0 Li12 1.949176 1_645
F0 Li4 1.959496 1_545
F0 Li2 2.049570 1_555
F0 Mn10 2.167223 1_645
F1 Li13 1.949176 1_655
F1 Li5 1.959496 1_555
F1 Li3 2.049570 1_555
F1 Mn11 2.167223 1_655
F2 Li9 1.976420 1_555
F2 Li14 2.180563 1_555
F2 Mn2 2.212420 1_555
F2 Mn0 2.228341 1_656
F3 Li8 1.976420 1_545
F3 Li15 2.180563 1_555
F3 Mn3 2.212420 1_555
F3 Mn1 2.228341 1_655
F4 Li0 1.942345 1_655
F4 Mn1 2.103849 1_655
F4 Mn6 2.132050 1_555
F5 Li1 1.942345 1_645
F5 Mn0 2.103849 1_655
F5 Mn7 2.132050 1_555
F6 Li12 1.958386 1_645
F6 Mn2 2.106983 1_555
F6 Mn5 2.145395 1_545
F7 Li13 1.958386 1_655
F7 Mn3 2.106983 1_555
F7 Mn4 2.145395 1_555
F8 Li0 1.941728 1_655
F8 Mn10 2.116534 1_645
F8 Mn8 2.147528 1_555
F9 Li1 1.941728 1_645
F9 Mn11 2.116534 1_655
F9 Mn9 2.147528 1_555
F10 Li6 1.941728 1_555
F10 Mn9 2.116534 1_565
F10 Mn11 2.147528 1_655
F11 Li7 1.941728 1_565
F11 Mn8 2.116534 1_555
F11 Mn10 2.147528 1_655
F12 Li10 1.958386 1_555
F12 Mn5 2.106983 1_555
F12 Mn2 2.145395 1_555
F13 Li11 1.958386 1_565
F13 Mn4 2.106983 1_555
F13 Mn3 2.145395 1_565
F14 Li7 1.942345 1_565
F14 Mn6 2.103849 1_555
F14 Mn1 2.132050 1_665
F15 Li6 1.942345 1_555
F15 Mn7 2.103849 1_565
F15 Mn0 2.132050 1_655
F16 Li15 1.976420 1_555
F16 Li8 2.180563 1_555
F16 Mn4 2.212420 1_555
F16 Mn6 2.228341 1_555
F17 Li14 1.976420 1_565
F17 Li9 2.180563 1_555
F17 Mn5 2.212420 1_555
F17 Mn7 2.228341 1_566
F18 Li10 1.949176 1_555
F18 Li2 1.959496 1_555
F18 Li4 2.049570 1_555
F18 Mn8 2.167223 1_555
F19 Li11 1.949176 1_565
F19 Li3 1.959496 1_565
F19 Li5 2.049570 1_555
F19 Mn9 2.167223 1_565
F20 Li4 1.949176 1_545
F20 Li12 1.959496 1_545
F20 Li10 2.049570 1_555
F20 Mn5 2.167223 1_545
F21 Li5 1.949176 1_555
F21 Li13 1.959496 1_555
F21 Li11 2.049570 1_555
F21 Mn4 2.167223 1_555
F22 Li1 1.976420 1_545
F22 Li6 2.180563 1_555
F22 Mn9 2.212420 1_555
F22 Mn7 2.228341 1_555
F23 Li0 1.976420 1_555
F23 Li7 2.180563 1_555
F23 Mn8 2.212420 1_555
F23 Mn6 2.228341 1_555
F24 Li9 1.942345 1_555
F24 Mn7 2.103849 1_556
F24 Mn0 2.132050 1_556
F25 Li8 1.942345 1_545
F25 Mn6 2.103849 1_555
F25 Mn1 2.132050 1_555
F26 Li4 1.958386 1_545
F26 Mn8 2.106983 1_555
F26 Mn10 2.145395 1_545
F27 Li5 1.958386 1_555
F27 Mn9 2.106983 1_555
F27 Mn11 2.145395 1_555
F28 Li8 1.941728 1_545
F28 Mn4 2.116534 1_555
F28 Mn3 2.147528 1_455
F29 Li9 1.941728 1_555
F29 Mn5 2.116534 1_545
F29 Mn2 2.147528 1_455
F30 Li15 1.941728 1_455
F30 Mn3 2.116534 1_465
F30 Mn4 2.147528 1_555
F31 Li14 1.941728 1_465
F31 Mn2 2.116534 1_455
F31 Mn5 2.147528 1_555
F32 Li2 1.958386 1_455
F32 Mn10 2.106983 1_555
F32 Mn8 2.145395 1_555
F33 Li3 1.958386 1_465
F33 Mn11 2.106983 1_555
F33 Mn9 2.145395 1_565
F34 Li14 1.942345 1_465
F34 Mn0 2.103849 1_556
F34 Mn7 2.132050 1_566
F35 Li15 1.942345 1_455
F35 Mn1 2.103849 1_565
F35 Mn6 2.132050 1_555
F36 Li7 1.976420 1_565
F36 Li0 2.180563 1_555
F36 Mn10 2.212420 1_555
F36 Mn1 2.228341 1_565
F37 Li6 1.976420 1_555
F37 Li1 2.180563 1_555
F37 Mn11 2.212420 1_555
F37 Mn0 2.228341 1_555
F38 Li2 1.949176 1_455
F38 Li10 1.959496 1_555
F38 Li12 2.049570 1_555
F38 Mn2 2.167223 1_455
F39 Li3 1.949176 1_465
F39 Li11 1.959496 1_565
F39 Li13 2.049570 1_555
F39 Mn3 2.167223 1_465
