# generated using pymatgen
data_Li2Sn4P4O15
_symmetry_space_group_name_H-M   'P 1'
_cell_length_a   9.35968651
_cell_length_b   9.35968651
_cell_length_c   20.34017173
_cell_angle_alpha   86.86276654
_cell_angle_beta   86.86276654
_cell_angle_gamma   113.09788876
_symmetry_Int_Tables_number   1
_chemical_formula_structural   Li2Sn4P4O15
_chemical_formula_sum   'Li8 Sn16 P16 O60'
_cell_volume   1630.93442400
_cell_formula_units_Z   4
loop_
 _symmetry_equiv_pos_site_id
 _symmetry_equiv_pos_as_xyz
  1  'x, y, z'
loop_
 _atom_site_type_symbol
 _atom_site_label
 _atom_site_symmetry_multiplicity
 _atom_site_fract_x
 _atom_site_fract_y
 _atom_site_fract_z
 _atom_site_occupancy
  Li  Li0  1  0.54012900  0.97123200  0.26058900  1
  Li  Li1  1  0.55847400  0.45770700  0.09755300  1
  Li  Li2  1  0.54229300  0.44152600  0.40244700  1
  Li  Li3  1  0.97123200  0.54012900  0.76058900  1
  Li  Li4  1  0.02876800  0.45987100  0.23941100  1
  Li  Li5  1  0.45770700  0.55847400  0.59755300  1
  Li  Li6  1  0.44152600  0.54229300  0.90244700  1
  Li  Li7  1  0.45987100  0.02876800  0.73941100  1
  Sn  Sn0  1  0.09592200  0.14987900  0.43430300  1
  Sn  Sn1  1  0.07302400  0.66508800  0.06335600  1
  Sn  Sn2  1  0.00000000  0.50000000  0.50000000  1
  Sn  Sn3  1  0.14987900  0.09592200  0.93430300  1
  Sn  Sn4  1  0.19394400  0.80605600  0.25000000  1
  Sn  Sn5  1  0.47897900  0.52102100  0.25000000  1
  Sn  Sn6  1  0.97516700  0.02483300  0.25000000  1
  Sn  Sn7  1  0.66508800  0.07302400  0.56335600  1
  Sn  Sn8  1  0.33491200  0.92697600  0.43664400  1
  Sn  Sn9  1  0.02483300  0.97516700  0.75000000  1
  Sn  Sn10  1  0.80605600  0.19394400  0.75000000  1
  Sn  Sn11  1  0.52102100  0.47897900  0.75000000  1
  Sn  Sn12  1  0.85012100  0.90407800  0.06569700  1
  Sn  Sn13  1  0.92697600  0.33491200  0.93664400  1
  Sn  Sn14  1  0.90407800  0.85012100  0.56569700  1
  Sn  Sn15  1  0.50000000  0.00000000  0.00000000  1
  P  P0  1  0.26113000  0.12348400  0.10410100  1
  P  P1  1  0.04946200  0.28823200  0.11258100  1
  P  P2  1  0.36425700  0.16543200  0.32191900  1
  P  P3  1  0.12348400  0.26113000  0.60410100  1
  P  P4  1  0.28823200  0.04946200  0.61258100  1
  P  P5  1  0.22977400  0.53737500  0.37218100  1
  P  P6  1  0.16543200  0.36425700  0.82191900  1
  P  P7  1  0.46262500  0.77022600  0.12781900  1
  P  P8  1  0.53737500  0.22977400  0.87218100  1
  P  P9  1  0.83456800  0.63574300  0.17808100  1
  P  P10  1  0.77022600  0.46262500  0.62781900  1
  P  P11  1  0.71176800  0.95053800  0.38741900  1
  P  P12  1  0.87651600  0.73887000  0.39589900  1
  P  P13  1  0.63574300  0.83456800  0.67808100  1
  P  P14  1  0.95053800  0.71176800  0.88741900  1
  P  P15  1  0.73887000  0.87651600  0.89589900  1
  O  O0  1  0.20914300  0.06220900  0.17721200  1
  O  O1  1  0.18624900  0.13573900  0.32517800  1
  O  O2  1  0.21212300  0.27371200  0.09074600  1
  O  O3  1  0.43712900  0.19665400  0.08475700  1
  O  O4  1  0.05490900  0.42777100  0.06695200  1
  O  O5  1  0.06220900  0.20914300  0.67721200  1
  O  O6  1  0.43110200  0.22326900  0.38793900  1
  O  O7  1  0.09540200  0.38858900  0.40840100  1
  O  O8  1  0.99997400  0.62452300  0.18237600  1
  O  O9  1  0.13573900  0.18624900  0.82517800  1
  O  O10  1  0.45491900  0.27574700  0.26165400  1
  O  O11  1  0.27371200  0.21212300  0.59074600  1
  O  O12  1  0.19665400  0.43712900  0.58475700  1
  O  O13  1  0.42777100  0.05490900  0.56695200  1
  O  O14  1  0.18340000  0.56450400  0.30111200  1
  O  O15  1  0.68846600  0.95646800  0.31411900  1
  O  O16  1  0.17091500  0.00068400  0.05722200  1
  O  O17  1  0.91512300  0.13759300  0.09674800  1
  O  O18  1  0.32679300  0.76851100  0.08579700  1
  O  O19  1  0.22326900  0.43110200  0.88793900  1
  O  O20  1  0.47997900  0.61342900  0.12999100  1
  O  O21  1  0.38858900  0.09540200  0.90840100  1
  O  O22  1  0.38657100  0.52002100  0.37000900  1
  O  O23  1  0.23148900  0.67320700  0.41420300  1
  O  O24  1  0.86240700  0.08487700  0.40325200  1
  O  O25  1  0.99931600  0.82908500  0.44277800  1
  O  O26  1  0.62452300  0.99997400  0.68237600  1
  O  O27  1  0.27574700  0.45491900  0.76165400  1
  O  O28  1  0.04353200  0.31153400  0.18588100  1
  O  O29  1  0.43549600  0.81660000  0.19888800  1
  O  O30  1  0.56450400  0.18340000  0.80111200  1
  O  O31  1  0.95646800  0.68846600  0.81411900  1
  O  O32  1  0.72425300  0.54508100  0.23834600  1
  O  O33  1  0.37547700  0.00002600  0.31762400  1
  O  O34  1  0.00068400  0.17091500  0.55722200  1
  O  O35  1  0.13759300  0.91512300  0.59674800  1
  O  O36  1  0.76851100  0.32679300  0.58579700  1
  O  O37  1  0.61342900  0.47997900  0.62999100  1
  O  O38  1  0.61141100  0.90459800  0.09159900  1
  O  O39  1  0.52002100  0.38657100  0.87000900  1
  O  O40  1  0.77673100  0.56889800  0.11206100  1
  O  O41  1  0.67320700  0.23148900  0.91420300  1
  O  O42  1  0.08487700  0.86240700  0.90325200  1
  O  O43  1  0.82908500  0.99931600  0.94277800  1
  O  O44  1  0.31153400  0.04353200  0.68588100  1
  O  O45  1  0.81660000  0.43549600  0.69888800  1
  O  O46  1  0.57222900  0.94509100  0.43304800  1
  O  O47  1  0.80334600  0.56287100  0.41524300  1
  O  O48  1  0.72628800  0.78787700  0.40925400  1
  O  O49  1  0.54508100  0.72425300  0.73834600  1
  O  O50  1  0.86426100  0.81375100  0.17482200  1
  O  O51  1  0.00002600  0.37547700  0.81762400  1
  O  O52  1  0.90459800  0.61141100  0.59159900  1
  O  O53  1  0.56889800  0.77673100  0.61206100  1
  O  O54  1  0.93779100  0.79085700  0.32278800  1
  O  O55  1  0.94509100  0.57222900  0.93304800  1
  O  O56  1  0.56287100  0.80334600  0.91524300  1
  O  O57  1  0.78787700  0.72628800  0.90925400  1
  O  O58  1  0.81375100  0.86426100  0.67482200  1
  O  O59  1  0.79085700  0.93779100  0.82278800  1
loop_
_geom_bond_atom_site_label_1
_geom_bond_atom_site_label_2
_geom_bond_distance
_geom_bond_site_symmetry_2
Li0 O15 1.852498 1_555
Li0 O29 1.962162 1_555
Li0 O33 1.989430 1_565
Li1 O40 1.942885 1_555
Li1 O20 1.997948 1_555
Li1 O3 2.291807 1_555
Li2 O6 1.942885 1_555
Li2 O22 1.997948 1_555
Li2 O47 2.291807 1_555
Li3 O31 1.852498 1_555
Li3 O45 1.962162 1_555
Li3 O51 1.989430 1_655
Li4 O28 1.852498 1_555
Li4 O14 1.962162 1_555
Li4 O8 1.989430 1_455
Li5 O53 1.942885 1_555
Li5 O37 1.997948 1_555
Li5 O12 2.291807 1_555
Li6 O19 1.942885 1_555
Li6 O39 1.997948 1_555
Li6 O56 2.291807 1_555
Li7 O44 1.852498 1_555
Li7 O30 1.962162 1_555
Li7 O26 1.989430 1_545
O0 P0 1.544543 1_555
O0 Sn6 2.469313 1_455
O0 Sn4 2.698345 1_545
O1 P2 1.574837 1_555
O1 Sn0 2.360834 1_555
O1 Sn6 2.492858 1_455
O2 P1 1.621273 1_555
O2 P0 1.655034 1_555
O3 P0 1.533565 1_555
O3 Sn15 2.791476 1_555
O4 P1 1.542601 1_555
O4 Sn1 2.157140 1_555
O5 P3 1.544543 1_555
O5 Sn9 2.469313 1_545
O5 Sn10 2.698345 1_455
O6 P2 1.547107 1_555
O6 Sn8 2.669340 1_545
O7 P5 1.573508 1_555
O7 Sn0 2.269238 1_555
O7 Sn2 2.473280 1_555
O8 P9 1.598995 1_555
O8 Sn1 2.446808 1_655
O8 Sn4 2.486718 1_655
O9 P6 1.574837 1_555
O9 Sn3 2.360834 1_555
O9 Sn9 2.492858 1_545
O10 P2 1.532617 1_555
O10 Sn5 2.214962 1_555
O11 P4 1.621273 1_555
O11 P3 1.655034 1_555
O12 P3 1.533565 1_555
O12 Sn2 2.791476 1_555
O13 P4 1.542601 1_555
O13 Sn7 2.157140 1_555
O14 P5 1.567634 1_555
O14 Sn4 2.399677 1_555
O15 P11 1.519726 1_555
O15 Sn6 2.736702 1_565
O16 P0 1.545919 1_555
O16 Sn3 2.651786 1_554
O16 Sn12 2.767427 1_445
O17 P1 1.541322 1_655
O17 Sn12 2.166990 1_545
O18 P7 1.565752 1_555
O18 Sn1 2.269364 1_555
O18 Sn15 2.624614 1_565
O19 P6 1.547107 1_555
O19 Sn13 2.669340 1_455
O20 P7 1.537146 1_555
O20 Sn5 2.542974 1_555
O21 P8 1.573508 1_555
O21 Sn3 2.269238 1_555
O21 Sn15 2.473280 1_556
O22 P5 1.537146 1_555
O22 Sn5 2.542974 1_555
O23 P5 1.565752 1_555
O23 Sn8 2.269364 1_555
O23 Sn2 2.624614 1_555
O24 P11 1.541322 1_545
O24 Sn0 2.166990 1_655
O25 P12 1.545919 1_555
O25 Sn14 2.651786 1_555
O25 Sn0 2.767427 1_665
O26 P13 1.598995 1_555
O26 Sn7 2.446808 1_565
O26 Sn10 2.486718 1_565
O27 P6 1.532617 1_555
O27 Sn11 2.214962 1_555
O28 P1 1.519726 1_555
O28 Sn6 2.736702 1_455
O29 P7 1.567634 1_555
O29 Sn4 2.399677 1_555
O30 P8 1.567634 1_555
O30 Sn10 2.399677 1_555
O31 P14 1.519726 1_555
O31 Sn9 2.736702 1_655
O32 P9 1.532617 1_555
O32 Sn5 2.214962 1_555
O33 P2 1.598995 1_555
O33 Sn8 2.446808 1_545
O33 Sn4 2.486718 1_545
O34 P3 1.545919 1_555
O34 Sn0 2.651786 1_555
O34 Sn14 2.767427 1_445
O35 P4 1.541322 1_565
O35 Sn14 2.166990 1_455
O36 P10 1.565752 1_555
O36 Sn7 2.269364 1_555
O36 Sn2 2.624614 1_655
O37 P10 1.537146 1_555
O37 Sn11 2.542974 1_555
O38 P7 1.573508 1_555
O38 Sn12 2.269238 1_555
O38 Sn15 2.473280 1_565
O39 P8 1.537146 1_555
O39 Sn11 2.542974 1_555
O40 P9 1.547107 1_555
O40 Sn1 2.669340 1_655
O41 P8 1.565752 1_555
O41 Sn13 2.269364 1_555
O41 Sn15 2.624614 1_556
O42 P14 1.541322 1_455
O42 Sn3 2.166990 1_565
O43 P15 1.545919 1_555
O43 Sn12 2.651786 1_556
O43 Sn3 2.767427 1_665
O44 P4 1.519726 1_555
O44 Sn9 2.736702 1_545
O45 P10 1.567634 1_555
O45 Sn10 2.399677 1_555
O46 P11 1.542601 1_555
O46 Sn8 2.157140 1_555
O47 P12 1.533565 1_555
O47 Sn2 2.791476 1_655
O48 P11 1.621273 1_555
O48 P12 1.655034 1_555
O49 P13 1.532617 1_555
O49 Sn11 2.214962 1_555
O50 P9 1.574837 1_555
O50 Sn12 2.360834 1_555
O50 Sn6 2.492858 1_565
O51 P6 1.598995 1_555
O51 Sn13 2.446808 1_455
O51 Sn10 2.486718 1_455
O52 P10 1.573508 1_555
O52 Sn14 2.269238 1_555
O52 Sn2 2.473280 1_655
O53 P13 1.547107 1_555
O53 Sn7 2.669340 1_565
O54 P12 1.544543 1_555
O54 Sn6 2.469313 1_565
O54 Sn4 2.698345 1_655
O55 P14 1.542601 1_555
O55 Sn13 2.157140 1_555
O56 P15 1.533565 1_555
O56 Sn15 2.791476 1_566
O57 P14 1.621273 1_555
O57 P15 1.655034 1_555
O58 P13 1.574837 1_555
O58 Sn14 2.360834 1_555
O58 Sn9 2.492858 1_655
O59 P15 1.544543 1_555
O59 Sn9 2.469313 1_655
O59 Sn10 2.698345 1_565
