# generated using pymatgen
data_LiSbF4
_symmetry_space_group_name_H-M   'P 1'
_cell_length_a   10.21185000
_cell_length_b   12.63326740
_cell_length_c   12.96930208
_cell_angle_alpha   88.24621256
_cell_angle_beta   89.46065821
_cell_angle_gamma   72.77334899
_symmetry_Int_Tables_number   1
_chemical_formula_structural   LiSbF4
_chemical_formula_sum   'Li16 Sb16 F64'
_cell_volume   1597.35175885
_cell_formula_units_Z   16
loop_
 _symmetry_equiv_pos_site_id
 _symmetry_equiv_pos_as_xyz
  1  'x, y, z'
loop_
 _atom_site_type_symbol
 _atom_site_label
 _atom_site_symmetry_multiplicity
 _atom_site_fract_x
 _atom_site_fract_y
 _atom_site_fract_z
 _atom_site_occupancy
  Li  Li0  1  0.92746400  0.67673800  0.03522600  1
  Li  Li1  1  0.93851800  0.20816400  0.37663200  1
  Li  Li2  1  0.88051500  0.02473100  0.45398000  1
  Li  Li3  1  0.50459500  0.94140200  0.46688800  1
  Li  Li4  1  0.45981700  0.96641600  0.15231500  1
  Li  Li5  1  0.56884200  0.68666800  0.47131800  1
  Li  Li6  1  0.39982800  0.81643700  0.95115300  1
  Li  Li7  1  0.54636800  0.51315000  0.67124400  1
  Li  Li8  1  0.53959900  0.50369300  0.95382200  1
  Li  Li9  1  0.43502000  0.48273700  0.34808300  1
  Li  Li10  1  0.58308100  0.21200200  0.07409800  1
  Li  Li11  1  0.43284700  0.28441000  0.56153700  1
  Li  Li12  1  0.61540200  0.04522100  0.85965000  1
  Li  Li13  1  0.39442600  0.07368000  0.70560100  1
  Li  Li14  1  0.03641000  0.83781600  0.56055900  1
  Li  Li15  1  0.07694700  0.34450500  0.95469500  1
  Sb  Sb0  1  0.81303500  0.78000900  0.40676500  1
  Sb  Sb1  1  0.85401800  0.32272800  0.07853100  1
  Sb  Sb2  1  0.60182700  0.66042000  0.14968700  1
  Sb  Sb3  1  0.39146300  0.81882900  0.66495400  1
  Sb  Sb4  1  0.57616800  0.18911300  0.33267600  1
  Sb  Sb5  1  0.41723600  0.30644900  0.83027000  1
  Sb  Sb6  1  0.18585500  0.68169300  0.90350700  1
  Sb  Sb7  1  0.15575000  0.18384100  0.53892200  1
  Sb  Sb8  1  0.78406200  0.94407900  0.11515300  1
  Sb  Sb9  1  0.75739000  0.59528000  0.83735900  1
  Sb  Sb10  1  0.76451500  0.44049000  0.44646200  1
  Sb  Sb11  1  0.75403400  0.09535200  0.66968500  1
  Sb  Sb12  1  0.24102700  0.91305500  0.32953800  1
  Sb  Sb13  1  0.22606800  0.55284900  0.59213900  1
  Sb  Sb14  1  0.24867500  0.44117600  0.15380200  1
  Sb  Sb15  1  0.23411400  0.05698100  0.91382700  1
  F  F0  1  0.85713800  0.00876200  0.78326400  1
  F  F1  1  0.92922800  0.82546300  0.04319400  1
  F  F2  1  0.84005800  0.95714600  0.58375300  1
  F  F3  1  0.87901400  0.79537000  0.26143200  1
  F  F4  1  0.90527300  0.66761800  0.88401900  1
  F  F5  1  0.85337200  0.55472900  0.41869700  1
  F  F6  1  0.86925400  0.51390200  0.72904500  1
  F  F7  1  0.79832000  0.62992400  0.11561100  1
  F  F8  1  0.02352800  0.30464600  0.45147700  1
  F  F9  1  0.87910200  0.41935700  0.95769900  1
  F  F10  1  0.69502400  0.94110600  0.38932700  1
  F  F11  1  0.82597900  0.37141900  0.30621200  1
  F  F12  1  0.60742900  0.02162600  0.70709500  1
  F  F13  1  0.94449300  0.13495800  0.52304700  1
  F  F14  1  0.65056100  0.79847000  0.52121400  1
  F  F15  1  0.60203900  0.82291700  0.13060900  1
  F  F16  1  0.66201800  0.73544500  0.33480600  1
  F  F17  1  0.65514600  0.71616000  0.74084000  1
  F  F18  1  0.55332000  0.68729800  0.99869200  1
  F  F19  1  0.86600400  0.06420000  0.08737900  1
  F  F20  1  0.78696500  0.13926000  0.35187300  1
  F  F21  1  0.65176700  0.55175700  0.55877600  1
  F  F22  1  0.65127400  0.48782700  0.07975600  1
  F  F23  1  0.59568800  0.53939600  0.37010900  1
  F  F24  1  0.60118100  0.49893700  0.81116400  1
  F  F25  1  0.71688900  0.27858400  0.99708400  1
  F  F26  1  0.55992500  0.33785200  0.38870900  1
  F  F27  1  0.63522000  0.25793200  0.20307800  1
  F  F28  1  0.40187000  0.95392400  0.83894100  1
  F  F29  1  0.63880400  0.19281200  0.80395500  1
  F  F30  1  0.36100000  0.95326400  0.03122300  1
  F  F31  1  0.59022200  0.16319100  0.50478900  1
  F  F32  1  0.39817200  0.81538300  0.49460100  1
  F  F33  1  0.69659400  0.96934900  0.97557800  1
  F  F34  1  0.35299900  0.80996600  0.22694500  1
  F  F35  1  0.56108800  0.07607000  0.14155600  1
  F  F36  1  0.35449300  0.75203200  0.81194800  1
  F  F37  1  0.42166300  0.66104000  0.63404000  1
  F  F38  1  0.28021700  0.74192500  0.01464200  1
  F  F39  1  0.37229400  0.52873600  0.21475000  1
  F  F40  1  0.44406100  0.41717300  0.62816200  1
  F  F41  1  0.35057900  0.54932400  0.92889500  1
  F  F42  1  0.29267100  0.50997900  0.44427300  1
  F  F43  1  0.19202700  0.84750600  0.64043700  1
  F  F44  1  0.15009800  0.93977200  0.89726400  1
  F  F45  1  0.44450900  0.30932400  0.99112600  1
  F  F46  1  0.34946100  0.31595700  0.25414600  1
  F  F47  1  0.38481800  0.22695700  0.69189600  1
  F  F48  1  0.43136100  0.14698400  0.87875500  1
  F  F49  1  0.30185400  0.24176000  0.47605600  1
  F  F50  1  0.01336100  0.89631800  0.42326200  1
  F  F51  1  0.40409000  0.97599400  0.32429300  1
  F  F52  1  0.19124800  0.57559200  0.77056000  1
  F  F53  1  0.35712600  0.03020700  0.56830800  1
  F  F54  1  0.11533300  0.60023600  0.02540400  1
  F  F55  1  0.05064400  0.68371500  0.55168100  1
  F  F56  1  0.21697900  0.32636500  0.86334400  1
  F  F57  1  0.11420000  0.50784500  0.25430900  1
  F  F58  1  0.14118700  0.43371500  0.59866800  1
  F  F59  1  0.08241300  0.36709900  0.09815600  1
  F  F60  1  0.20133700  0.10091400  0.75916900  1
  F  F61  1  0.15808600  0.10209700  0.40752800  1
  F  F62  1  0.00018600  0.21725200  0.99367800  1
  F  F63  1  0.14996600  0.01366700  0.21860300  1
loop_
_geom_bond_atom_site_label_1
_geom_bond_atom_site_label_2
_geom_bond_distance
_geom_bond_site_symmetry_2
F0 Sb11 1.929619 1_555
F1 Li0 1.890283 1_555
F1 Sb8 2.014411 1_555
F2 Li2 1.959665 1_565
F2 Sb11 2.062633 1_565
F2 Li14 2.147003 1_655
F3 Sb0 2.018785 1_555
F3 Sb8 2.608883 1_555
F4 Li0 1.986958 1_556
F4 Sb9 2.085765 1_555
F5 Sb10 1.942573 1_555
F6 Sb9 1.922964 1_555
F7 Li0 1.890564 1_555
F7 Sb2 1.976324 1_555
F8 Li1 1.973965 1_455
F8 Sb7 2.034900 1_555
F9 Li15 1.961317 1_655
F9 Sb1 2.017970 1_556
F10 Sb0 2.041975 1_555
F10 Li3 2.180038 1_555
F11 Sb10 2.053093 1_555
F11 Li1 2.215647 1_555
F12 Li12 2.015832 1_555
F12 Sb11 2.031950 1_555
F12 Li13 2.077716 1_555
F13 Li2 1.947969 1_555
F13 Li1 2.079933 1_555
F13 Sb7 2.425502 1_655
F14 Li5 1.968335 1_555
F14 Li3 2.080021 1_555
F14 Sb0 2.180838 1_555
F15 Li4 1.984714 1_555
F15 Sb2 2.060831 1_555
F16 Sb0 2.034625 1_555
F16 Li5 2.160650 1_555
F17 Sb9 1.988056 1_555
F18 Li6 1.985095 1_555
F18 Sb2 2.018302 1_556
F18 Li8 2.452582 1_555
F19 Sb8 1.961074 1_545
F20 Li2 1.961524 1_555
F20 Li1 2.020010 1_555
F20 Sb4 2.071214 1_555
F21 Li7 1.939532 1_555
F21 Li5 1.988321 1_555
F21 Sb10 2.135057 1_555
F22 Li8 1.971785 1_554
F22 Sb2 2.300444 1_555
F22 Sb1 2.465916 1_555
F23 Li9 2.000714 1_555
F23 Sb10 2.048076 1_555
F23 Li5 2.258375 1_555
F24 Li7 1.891615 1_555
F24 Li8 1.945443 1_555
F24 Sb9 2.308012 1_555
F25 Sb1 1.978439 1_556
F25 Li10 2.043513 1_556
F26 Li9 1.955912 1_555
F26 Sb4 1.995792 1_555
F27 Li10 1.917690 1_555
F27 Sb4 2.036320 1_555
F28 Sb15 2.073176 1_565
F28 Li6 2.236377 1_555
F28 Li13 2.249324 1_565
F29 Li12 2.057589 1_555
F29 Sb11 2.273225 1_555
F29 Sb5 2.321292 1_555
F30 Li4 1.912438 1_555
F30 Li6 1.979829 1_554
F30 Sb15 2.150198 1_564
F31 Li11 2.014591 1_555
F31 Sb4 2.245872 1_555
F32 Li5 2.028406 1_555
F32 Li3 2.197099 1_555
F32 Sb3 2.211138 1_555
F33 Li12 1.825172 1_565
F33 Sb8 2.000675 1_556
F34 Sb12 1.992323 1_555
F35 Li4 1.960099 1_545
F35 Li10 1.974244 1_555
F35 Sb8 2.419456 1_545
F36 Li6 2.112947 1_555
F36 Sb3 2.136753 1_555
F36 Sb6 2.443080 1_555
F37 Li7 1.972904 1_555
F37 Sb3 1.977860 1_555
F38 Li6 1.915904 1_554
F38 Sb6 2.027956 1_554
F39 Li9 1.864705 1_555
F39 Sb14 2.083609 1_555
F40 Li7 1.917449 1_555
F40 Li11 1.943498 1_555
F40 Sb13 2.412944 1_555
F41 Li8 1.871881 1_555
F41 Sb6 2.011225 1_555
F42 Li9 1.866454 1_555
F42 Sb13 2.062618 1_555
F43 Li14 1.941016 1_555
F43 Sb3 1.987022 1_555
F44 Sb15 1.936547 1_565
F45 Li10 1.894530 1_556
F45 Sb5 2.110129 1_555
F46 Sb14 2.047007 1_555
F46 Sb4 2.590748 1_555
F47 Li13 1.912473 1_555
F47 Li11 1.935420 1_555
F47 Sb5 2.158043 1_555
F48 Li12 1.955999 1_555
F48 Sb5 2.055903 1_555
F49 Li11 1.949398 1_555
F49 Sb7 2.003346 1_555
F50 Li2 1.832134 1_465
F50 Li14 1.896478 1_555
F51 Sb12 2.046568 1_555
F51 Li3 2.094059 1_555
F51 Li4 2.294595 1_555
F52 Sb6 2.206498 1_555
F52 Sb13 2.351224 1_555
F53 Li13 1.952886 1_555
F53 Li3 2.075802 1_545
F53 Sb7 2.397210 1_555
F54 Li0 1.880319 1_455
F54 Sb6 2.096391 1_554
F54 Sb14 2.623400 1_555
F55 Li14 1.915779 1_555
F55 Sb13 2.104311 1_555
F56 Li15 1.814291 1_555
F56 Sb5 2.028457 1_555
F57 Sb14 1.908593 1_555
F58 Sb13 1.946072 1_555
F59 Li15 1.894803 1_554
F59 Sb14 2.298872 1_555
F59 Sb1 2.571589 1_455
F60 Li13 2.018919 1_555
F60 Sb15 2.068285 1_555
F61 Sb7 2.015764 1_555
F61 Li1 2.277720 1_455
F61 Sb12 2.525406 1_545
F62 Sb1 2.023708 1_456
F62 Li15 2.035610 1_555
F63 Sb12 1.939969 1_545
