# generated using pymatgen
data_Ba2GeO4
_symmetry_space_group_name_H-M   'P 1'
_cell_length_a   5.68417000
_cell_length_b   7.85844200
_cell_length_c   12.82225700
_cell_angle_alpha   90.00000000
_cell_angle_beta   90.00000000
_cell_angle_gamma   90.00000000
_symmetry_Int_Tables_number   1
_chemical_formula_structural   Ba2GeO4
_chemical_formula_sum   'Ba8 Ge4 O16'
_cell_volume   572.75381108
_cell_formula_units_Z   4
loop_
 _symmetry_equiv_pos_site_id
 _symmetry_equiv_pos_as_xyz
  1  'x, y, z'
loop_
 _atom_site_type_symbol
 _atom_site_label
 _atom_site_symmetry_multiplicity
 _atom_site_fract_x
 _atom_site_fract_y
 _atom_site_fract_z
 _atom_site_occupancy
  Ba  Ba0  1  0.00000000  0.00000000  0.00000000  1
  Ba  Ba1  1  0.00000000  0.50000000  0.00000000  1
  Ba  Ba2  1  0.98570300  0.25000000  0.71556000  1
  Ba  Ba3  1  0.51429700  0.25000000  0.21556000  1
  Ba  Ba4  1  0.50000000  0.00000000  0.50000000  1
  Ba  Ba5  1  0.50000000  0.50000000  0.50000000  1
  Ba  Ba6  1  0.48570300  0.75000000  0.78444000  1
  Ba  Ba7  1  0.01429700  0.75000000  0.28444000  1
  Ge  Ge0  1  0.92915900  0.75000000  0.59973900  1
  Ge  Ge1  1  0.57084100  0.75000000  0.09973900  1
  Ge  Ge2  1  0.42915900  0.25000000  0.90026100  1
  Ge  Ge3  1  0.07084100  0.25000000  0.40026100  1
  O  O0  1  0.80901600  0.75000000  0.46930400  1
  O  O1  1  0.80350500  0.93223300  0.66345000  1
  O  O2  1  0.80350500  0.56776700  0.66345000  1
  O  O3  1  0.74220700  0.25000000  0.90513300  1
  O  O4  1  0.75779300  0.25000000  0.40513300  1
  O  O5  1  0.69649500  0.93223300  0.16345000  1
  O  O6  1  0.69649500  0.56776700  0.16345000  1
  O  O7  1  0.69098400  0.75000000  0.96930400  1
  O  O8  1  0.30901600  0.25000000  0.03069600  1
  O  O9  1  0.30350500  0.43223300  0.83655000  1
  O  O10  1  0.30350500  0.06776700  0.83655000  1
  O  O11  1  0.24220700  0.75000000  0.59486700  1
  O  O12  1  0.25779300  0.75000000  0.09486700  1
  O  O13  1  0.19649500  0.43223300  0.33655000  1
  O  O14  1  0.19649500  0.06776700  0.33655000  1
  O  O15  1  0.19098400  0.25000000  0.53069600  1
loop_
_geom_bond_atom_site_label_1
_geom_bond_atom_site_label_2
_geom_bond_distance
_geom_bond_site_symmetry_2
Ba0 O7 2.664564 1_444
Ba0 O8 2.664564 1_555
Ba0 O12 2.736159 1_545
Ba0 O3 2.736159 1_454
Ba0 O10 2.766260 1_554
Ba0 O5 2.766260 1_445
Ba1 O7 2.664564 1_454
Ba1 O8 2.664564 1_555
Ba1 O3 2.736159 1_454
Ba1 O12 2.736159 1_555
Ba1 O9 2.766260 1_554
Ba1 O6 2.766260 1_455
Ba2 O15 2.642010 1_655
Ba2 O9 2.778629 1_655
Ba2 O10 2.778629 1_655
Ba2 O2 2.784741 1_555
Ba2 O1 2.784741 1_545
Ba2 O3 2.797181 1_555
Ba3 O8 2.642010 1_555
Ba3 O13 2.778629 1_555
Ba3 O14 2.778629 1_555
Ba3 O5 2.784741 1_545
Ba3 O6 2.784741 1_555
Ba3 O4 2.797181 1_555
Ba4 O0 2.664564 1_545
Ba4 O15 2.664564 1_555
Ba4 O4 2.736159 1_555
Ba4 O11 2.736159 1_545
Ba4 O1 2.766260 1_545
Ba4 O14 2.766260 1_555
Ba5 O0 2.664564 1_555
Ba5 O15 2.664564 1_555
Ba5 O11 2.736159 1_555
Ba5 O4 2.736159 1_555
Ba5 O13 2.766260 1_555
Ba5 O2 2.766260 1_555
Ba6 O7 2.642010 1_555
Ba6 O1 2.778629 1_555
Ba6 O2 2.778629 1_555
Ba6 O10 2.784741 1_565
Ba6 O9 2.784741 1_555
Ba6 O11 2.797181 1_555
Ba7 O0 2.642010 1_455
Ba7 O6 2.778629 1_455
Ba7 O5 2.778629 1_455
Ba7 O14 2.784741 1_565
Ba7 O13 2.784741 1_555
Ba7 O12 2.797181 1_555
Ge0 O11 1.780514 1_655
Ge0 O1 1.796750 1_555
Ge0 O2 1.796750 1_555
Ge0 O0 1.806524 1_555
Ge1 O12 1.780514 1_555
Ge1 O5 1.796750 1_555
Ge1 O6 1.796750 1_555
Ge1 O7 1.806524 1_554
Ge2 O3 1.780514 1_555
Ge2 O9 1.796750 1_555
Ge2 O10 1.796750 1_555
Ge2 O8 1.806524 1_556
Ge3 O4 1.780514 1_455
Ge3 O13 1.796750 1_555
Ge3 O14 1.796750 1_555
Ge3 O15 1.806524 1_555
