# generated using pymatgen
data_MnFeCo(PO4)3
_symmetry_space_group_name_H-M   'P 1'
_cell_length_a   5.95246700
_cell_length_b   9.88512800
_cell_length_c   14.60889468
_cell_angle_alpha   89.93072999
_cell_angle_beta   90.00000000
_cell_angle_gamma   90.00000000
_symmetry_Int_Tables_number   1
_chemical_formula_structural   MnFeCo(PO4)3
_chemical_formula_sum   'Mn4 Fe4 Co4 P12 O48'
_cell_volume   859.59985642
_cell_formula_units_Z   4
loop_
 _symmetry_equiv_pos_site_id
 _symmetry_equiv_pos_as_xyz
  1  'x, y, z'
loop_
 _atom_site_type_symbol
 _atom_site_label
 _atom_site_symmetry_multiplicity
 _atom_site_fract_x
 _atom_site_fract_y
 _atom_site_fract_z
 _atom_site_occupancy
  Mn  Mn0  1  0.00000000  0.21612500  0.81293500  1
  Mn  Mn1  1  0.00000000  0.21679300  0.48172900  1
  Mn  Mn2  1  0.50000000  0.28432100  0.64788500  1
  Mn  Mn3  1  0.00000000  0.71523200  0.02109600  1
  Fe  Fe0  1  0.00000000  0.22546100  0.15473100  1
  Fe  Fe1  1  0.50000000  0.27547700  0.98727100  1
  Fe  Fe2  1  0.50000000  0.27554000  0.32173500  1
  Fe  Fe3  1  0.00000000  0.72893500  0.34447600  1
  Co  Co0  1  0.00000000  0.72114800  0.68362300  1
  Co  Co1  1  0.50000000  0.77814100  0.51740100  1
  Co  Co2  1  0.50000000  0.78256800  0.84967500  1
  Co  Co3  1  0.50000000  0.77200000  0.17671500  1
  P  P0  1  0.50000000  0.09825800  0.80423600  1
  P  P1  1  0.50000000  0.09732800  0.47343900  1
  P  P2  1  0.50000000  0.09678700  0.13946900  1
  P  P3  1  0.00000000  0.40146100  0.97251900  1
  P  P4  1  0.00000000  0.40068500  0.30732800  1
  P  P5  1  0.00000000  0.40073000  0.63912500  1
  P  P6  1  0.50000000  0.60239200  0.36233000  1
  P  P7  1  0.50000000  0.59711400  0.02705600  1
  P  P8  1  0.50000000  0.59851600  0.69389500  1
  P  P9  1  0.00000000  0.90244000  0.85815700  1
  P  P10  1  0.00000000  0.90180300  0.52826000  1
  P  P11  1  0.00000000  0.89987000  0.19407300  1
  O  O0  1  0.00000000  0.05350600  0.88266900  1
  O  O1  1  0.00000000  0.05370500  0.55124400  1
  O  O2  1  0.00000000  0.05148200  0.21323600  1
  O  O3  1  0.50000000  0.12168300  0.57662600  1
  O  O4  1  0.50000000  0.11890100  0.90800700  1
  O  O5  1  0.50000000  0.12026700  0.24259600  1
  O  O6  1  0.29861400  0.17271300  0.75662200  1
  O  O7  1  0.70138600  0.17271300  0.75662200  1
  O  O8  1  0.30012800  0.17214500  0.42382600  1
  O  O9  1  0.69987200  0.17214500  0.42382600  1
  O  O10  1  0.29859500  0.16985400  0.09051400  1
  O  O11  1  0.70140500  0.16985400  0.09051400  1
  O  O12  1  0.79604500  0.32990700  0.92598400  1
  O  O13  1  0.20395500  0.32990700  0.92598400  1
  O  O14  1  0.79884100  0.32645500  0.25885000  1
  O  O15  1  0.20115900  0.32645500  0.25885000  1
  O  O16  1  0.79849300  0.32787300  0.59101400  1
  O  O17  1  0.20150700  0.32787300  0.59101400  1
  O  O18  1  0.00000000  0.37914600  0.74315700  1
  O  O19  1  0.00000000  0.38155000  0.07691800  1
  O  O20  1  0.00000000  0.37802200  0.41135200  1
  O  O21  1  0.50000000  0.44741800  0.05189300  1
  O  O22  1  0.50000000  0.45014100  0.38081800  1
  O  O23  1  0.50000000  0.44694600  0.71790900  1
  O  O24  1  0.00000000  0.55463600  0.95098300  1
  O  O25  1  0.00000000  0.55122900  0.28654300  1
  O  O26  1  0.00000000  0.55270500  0.61684200  1
  O  O27  1  0.50000000  0.61884300  0.92407100  1
  O  O28  1  0.50000000  0.61471700  0.58952800  1
  O  O29  1  0.50000000  0.62523200  0.25754900  1
  O  O30  1  0.29927100  0.67152200  0.07691900  1
  O  O31  1  0.70072900  0.67152200  0.07691900  1
  O  O32  1  0.29678900  0.67384700  0.40974100  1
  O  O33  1  0.70321100  0.67384700  0.40974100  1
  O  O34  1  0.29681700  0.67184900  0.74174200  1
  O  O35  1  0.70318300  0.67184900  0.74174200  1
  O  O36  1  0.79610300  0.82857500  0.57600700  1
  O  O37  1  0.20389700  0.82857500  0.57600700  1
  O  O38  1  0.79573100  0.82917000  0.90519400  1
  O  O39  1  0.20426900  0.82917000  0.90519400  1
  O  O40  1  0.79945400  0.82831200  0.24388400  1
  O  O41  1  0.20054600  0.82831200  0.24388400  1
  O  O42  1  0.00000000  0.88559200  0.75358100  1
  O  O43  1  0.00000000  0.88369100  0.42492200  1
  O  O44  1  0.00000000  0.87778000  0.08999900  1
  O  O45  1  0.50000000  0.94736200  0.77883200  1
  O  O46  1  0.50000000  0.94745900  0.45000300  1
  O  O47  1  0.50000000  0.94370900  0.11937100  1
loop_
_geom_bond_atom_site_label_1
_geom_bond_atom_site_label_2
_geom_bond_distance
_geom_bond_site_symmetry_2
Mn0 O0 1.902091 1_555
Mn0 O18 1.905792 1_555
Mn0 O6 2.005310 1_555
Mn0 O7 2.005310 1_455
Mn0 O12 2.339008 1_455
Mn0 O13 2.339008 1_555
Mn1 O20 1.895571 1_555
Mn1 O1 1.904303 1_555
Mn1 O8 2.025544 1_555
Mn1 O9 2.025544 1_455
Mn1 O17 2.279816 1_555
Mn1 O16 2.279816 1_455
Mn2 O23 1.906496 1_555
Mn2 O3 1.916364 1_555
Mn2 O17 2.007899 1_555
Mn2 O16 2.007899 1_555
Mn2 O7 2.274500 1_555
Mn2 O6 2.274500 1_555
Mn3 O24 1.890307 1_554
Mn3 O44 1.897098 1_555
Mn3 O30 2.006063 1_555
Mn3 O31 2.006063 1_455
Mn3 O39 2.368390 1_554
Mn3 O38 2.368390 1_454
Fe0 O19 1.915388 1_555
Fe0 O2 1.919551 1_555
Fe0 O10 2.083884 1_555
Fe0 O11 2.083884 1_455
Fe0 O15 2.178930 1_555
Fe0 O14 2.178930 1_455
Fe1 O4 1.934117 1_555
Fe1 O21 1.945241 1_556
Fe1 O12 2.048243 1_555
Fe1 O13 2.048243 1_555
Fe1 O10 2.190537 1_556
Fe1 O11 2.190537 1_556
Fe2 O5 1.922715 1_555
Fe2 O22 1.930679 1_555
Fe2 O14 2.064084 1_555
Fe2 O15 2.064084 1_555
Fe2 O9 2.163514 1_555
Fe2 O8 2.163514 1_555
Fe3 O43 1.930218 1_555
Fe3 O25 1.950817 1_555
Fe3 O32 2.079740 1_555
Fe3 O33 2.079740 1_455
Fe3 O41 2.132157 1_555
Fe3 O40 2.132157 1_455
Co0 O42 1.921180 1_555
Co0 O26 1.930857 1_555
Co0 O34 2.019638 1_555
Co0 O35 2.019638 1_455
Co0 O36 2.251302 1_455
Co0 O37 2.251302 1_555
Co1 O28 1.927665 1_555
Co1 O46 1.940836 1_555
Co1 O36 2.022168 1_555
Co1 O37 2.022168 1_555
Co1 O33 2.236879 1_555
Co1 O32 2.236879 1_555
Co2 O45 1.928910 1_555
Co2 O27 1.948418 1_555
Co2 O38 1.992414 1_555
Co2 O39 1.992414 1_555
Co2 O34 2.269587 1_555
Co2 O35 2.269587 1_555
Co3 O29 1.869559 1_555
Co3 O47 1.891932 1_555
Co3 O41 2.109818 1_555
Co3 O40 2.109818 1_555
Co3 O31 2.131466 1_555
Co3 O30 2.131466 1_555
O0 P9 1.536063 1_545
O1 P10 1.539050 1_545
O2 P11 1.524959 1_545
O3 P1 1.526839 1_555
O4 P0 1.529896 1_555
O5 P2 1.524623 1_555
O6 P0 1.568848 1_555
O7 P0 1.568848 1_555
O8 P1 1.576851 1_555
O9 P1 1.576851 1_555
O10 P2 1.571360 1_555
O11 P2 1.571360 1_555
O12 P3 1.561252 1_655
O13 P3 1.561252 1_555
O14 P4 1.573210 1_655
O15 P4 1.573210 1_555
O16 P5 1.566085 1_655
O17 P5 1.566085 1_555
O18 P5 1.534441 1_555
O19 P3 1.537566 1_554
O20 P4 1.535832 1_555
O21 P7 1.523173 1_555
O22 P6 1.528742 1_555
O23 P8 1.538399 1_555
O24 P3 1.546123 1_555
O25 P4 1.518449 1_555
O26 P5 1.536772 1_555
O27 P7 1.519495 1_556
O28 P8 1.532882 1_555
O29 P6 1.547025 1_555
O30 P7 1.581315 1_555
O31 P7 1.581315 1_555
O32 P6 1.563002 1_555
O33 P6 1.563002 1_555
O34 P8 1.574182 1_555
O35 P8 1.574182 1_555
O36 P10 1.575550 1_655
O37 P10 1.575550 1_555
O38 P9 1.572893 1_655
O39 P9 1.572893 1_555
O40 P11 1.566416 1_655
O41 P11 1.566416 1_555
O42 P9 1.536991 1_555
O43 P10 1.520449 1_555
O44 P11 1.536268 1_555
O45 P0 1.537537 1_565
O46 P1 1.520925 1_565
O47 P2 1.541766 1_565
