# generated using pymatgen
data_LiVSiO4
_symmetry_space_group_name_H-M   'P 1'
_cell_length_a   10.89236493
_cell_length_b   10.89236493
_cell_length_c   12.19847500
_cell_angle_alpha   90.00000000
_cell_angle_beta   90.00000000
_cell_angle_gamma   120.00000562
_symmetry_Int_Tables_number   1
_chemical_formula_structural   LiVSiO4
_chemical_formula_sum   'Li12 V12 Si12 O48'
_cell_volume   1253.37351564
_cell_formula_units_Z   12
loop_
 _symmetry_equiv_pos_site_id
 _symmetry_equiv_pos_as_xyz
  1  'x, y, z'
loop_
 _atom_site_type_symbol
 _atom_site_label
 _atom_site_symmetry_multiplicity
 _atom_site_fract_x
 _atom_site_fract_y
 _atom_site_fract_z
 _atom_site_occupancy
  Li  Li0  1  0.00000000  0.50000000  0.00785800  1
  Li  Li1  1  0.00000000  0.50000000  0.65880900  1
  Li  Li2  1  0.00000000  0.50000000  0.33333300  1
  Li  Li3  1  0.00000000  0.00000000  0.16666700  1
  Li  Li4  1  0.00000000  0.00000000  0.50000000  1
  Li  Li5  1  0.00000000  0.00000000  0.83333300  1
  Li  Li6  1  0.50000000  0.50000000  0.34119100  1
  Li  Li7  1  0.50000000  0.50000000  0.66666700  1
  Li  Li8  1  0.50000000  0.50000000  0.99214200  1
  Li  Li9  1  0.50000000  0.00000000  0.32547600  1
  Li  Li10  1  0.50000000  0.00000000  0.00000000  1
  Li  Li11  1  0.50000000  0.00000000  0.67452400  1
  V  V0  1  0.00000000  0.74887900  0.83333300  1
  V  V1  1  0.00000000  0.25112100  0.83333300  1
  V  V2  1  0.25094300  0.74905700  0.16666700  1
  V  V3  1  0.25094300  0.50188700  0.50000000  1
  V  V4  1  0.49811300  0.74905700  0.83333300  1
  V  V5  1  0.25112100  0.25112100  0.16666700  1
  V  V6  1  0.25112100  0.00000000  0.50000000  1
  V  V7  1  0.74887900  0.74887900  0.16666700  1
  V  V8  1  0.50188700  0.25094300  0.83333300  1
  V  V9  1  0.74905700  0.49811300  0.50000000  1
  V  V10  1  0.74905700  0.25094300  0.16666700  1
  V  V11  1  0.74887900  0.00000000  0.50000000  1
  Si  Si0  1  0.00000000  0.75466900  0.33333300  1
  Si  Si1  1  0.24773900  0.75226100  0.66666700  1
  Si  Si2  1  0.00000000  0.24533100  0.33333300  1
  Si  Si3  1  0.24773900  0.49547700  0.00000000  1
  Si  Si4  1  0.24533100  0.24533100  0.66666700  1
  Si  Si5  1  0.50452300  0.75226100  0.33333300  1
  Si  Si6  1  0.24533100  0.00000000  0.00000000  1
  Si  Si7  1  0.49547700  0.24773900  0.33333300  1
  Si  Si8  1  0.75466900  0.75466900  0.66666700  1
  Si  Si9  1  0.75226100  0.50452300  0.00000000  1
  Si  Si10  1  0.75226100  0.24773900  0.66666700  1
  Si  Si11  1  0.75466900  0.00000000  0.00000000  1
  O  O0  1  0.07502300  0.88391900  0.42342100  1
  O  O1  1  0.11608100  0.92497700  0.90991300  1
  O  O2  1  0.09787500  0.69413300  0.73342600  1
  O  O3  1  0.10462100  0.70750400  0.27138900  1
  O  O4  1  0.29249600  0.89537900  0.06194500  1
  O  O5  1  0.30586700  0.90212500  0.59990700  1
  O  O6  1  0.19792800  0.61399900  0.58705400  1
  O  O7  1  0.09787500  0.40374100  0.93324000  1
  O  O8  1  0.19792800  0.58392900  0.07961300  1
  O  O9  1  0.10462100  0.39711700  0.39527800  1
  O  O10  1  0.07502300  0.19110400  0.24324600  1
  O  O11  1  0.38600100  0.80207200  0.74627900  1
  O  O12  1  0.41607100  0.80207200  0.25372100  1
  O  O13  1  0.11608100  0.19110400  0.75675400  1
  O  O14  1  0.29249600  0.39711700  0.60472200  1
  O  O15  1  0.38600100  0.58392900  0.92038700  1
  O  O16  1  0.30586700  0.40374100  0.06676000  1
  O  O17  1  0.41607100  0.61399900  0.41294600  1
  O  O18  1  0.19110400  0.11608100  0.57657900  1
  O  O19  1  0.19110400  0.07502300  0.09008700  1
  O  O20  1  0.59625900  0.90212500  0.40009300  1
  O  O21  1  0.60288300  0.89537900  0.93805500  1
  O  O22  1  0.60288300  0.70750400  0.72861100  1
  O  O23  1  0.40374100  0.30586700  0.26657400  1
  O  O24  1  0.59625900  0.69413300  0.26657400  1
  O  O25  1  0.39711700  0.29249600  0.72861100  1
  O  O26  1  0.39711700  0.10462100  0.93805500  1
  O  O27  1  0.40374100  0.09787500  0.40009300  1
  O  O28  1  0.80889600  0.92497700  0.09008700  1
  O  O29  1  0.80889600  0.88391900  0.57657900  1
  O  O30  1  0.58392900  0.38600100  0.41294600  1
  O  O31  1  0.69413300  0.59625900  0.06676000  1
  O  O32  1  0.61399900  0.41607100  0.92038700  1
  O  O33  1  0.70750400  0.60288300  0.60472200  1
  O  O34  1  0.88391900  0.80889600  0.75675400  1
  O  O35  1  0.58392900  0.19792800  0.25372100  1
  O  O36  1  0.61399900  0.19792800  0.74627900  1
  O  O37  1  0.92497700  0.80889600  0.24324600  1
  O  O38  1  0.89537900  0.60288300  0.39527800  1
  O  O39  1  0.80207200  0.41607100  0.07961300  1
  O  O40  1  0.90212500  0.59625900  0.93324000  1
  O  O41  1  0.80207200  0.38600100  0.58705400  1
  O  O42  1  0.69413300  0.09787500  0.59990700  1
  O  O43  1  0.70750400  0.10462100  0.06194500  1
  O  O44  1  0.89537900  0.29249600  0.27138900  1
  O  O45  1  0.90212500  0.30586700  0.73342600  1
  O  O46  1  0.88391900  0.07502300  0.90991300  1
  O  O47  1  0.92497700  0.11608100  0.42342100  1
loop_
_geom_bond_atom_site_label_1
_geom_bond_atom_site_label_2
_geom_bond_distance
_geom_bond_site_symmetry_2
Li0 O7 2.045035 1_554
Li0 O40 2.045035 1_454
Li0 O39 2.068554 1_455
Li0 O8 2.068554 1_555
Li1 O45 2.045021 1_455
Li1 O2 2.045021 1_555
Li1 O41 2.068553 1_455
Li1 O6 2.068553 1_555
Li2 O44 2.098205 1_455
Li2 O3 2.098205 1_555
Li2 O9 2.098209 1_555
Li2 O38 2.098209 1_455
Li3 O37 2.042632 1_445
Li3 O10 2.042632 1_555
Li3 O28 2.042638 1_445
Li3 O19 2.042638 1_555
Li4 O18 2.042632 1_555
Li4 O29 2.042632 1_445
Li4 O0 2.042632 1_545
Li4 O47 2.042632 1_455
Li5 O13 2.042632 1_555
Li5 O34 2.042632 1_445
Li5 O46 2.042638 1_455
Li5 O1 2.042638 1_545
Li6 O23 2.045021 1_555
Li6 O24 2.045021 1_555
Li6 O30 2.068554 1_555
Li6 O17 2.068554 1_555
Li7 O22 2.098205 1_555
Li7 O25 2.098205 1_555
Li7 O14 2.098209 1_555
Li7 O33 2.098209 1_555
Li8 O31 2.045027 1_556
Li8 O16 2.045027 1_556
Li8 O15 2.068554 1_555
Li8 O32 2.068554 1_555
Li9 O27 2.045030 1_555
Li9 O20 2.045030 1_545
Li9 O12 2.068554 1_545
Li9 O35 2.068554 1_555
Li10 O43 2.098209 1_555
Li10 O4 2.098209 1_545
Li10 O26 2.098209 1_554
Li10 O21 2.098209 1_544
Li11 O5 2.045021 1_545
Li11 O42 2.045021 1_555
Li11 O36 2.068553 1_555
Li11 O11 2.068553 1_545
O0 Si0 1.645295 1_555
O0 V6 1.930093 1_565
O1 Si6 1.645286 1_566
O1 V0 1.930099 1_555
O2 Si1 1.641695 1_555
O2 V0 1.900822 1_555
O3 Si0 1.648925 1_555
O3 V2 1.911946 1_555
O4 Si6 1.648930 1_565
O4 V2 1.911946 1_555
O5 Si1 1.641701 1_555
O5 V6 1.900822 1_565
O6 Si1 1.639652 1_555
O6 V3 1.912475 1_555
O7 Si3 1.641701 1_556
O7 V1 1.900815 1_555
O8 Si3 1.639660 1_555
O8 V2 1.912484 1_555
O9 Si2 1.648930 1_555
O9 V3 1.911948 1_555
O10 Si2 1.645287 1_555
O10 V5 1.930093 1_555
O11 Si1 1.639645 1_555
O11 V4 1.912475 1_555
O12 Si5 1.639653 1_555
O12 V2 1.912484 1_555
O13 Si4 1.645286 1_555
O13 V1 1.930093 1_555
O14 Si4 1.648930 1_555
O14 V3 1.911954 1_555
O15 Si3 1.639653 1_556
O15 V4 1.912482 1_555
O16 Si3 1.641701 1_555
O16 V5 1.900814 1_555
O17 Si5 1.639653 1_555
O17 V3 1.912482 1_555
O18 Si4 1.645295 1_555
O18 V6 1.930093 1_555
O19 Si6 1.645287 1_555
O19 V5 1.930099 1_555
O20 Si5 1.641701 1_555
O20 V11 1.900815 1_565
O21 Si11 1.648930 1_566
O21 V4 1.911948 1_555
O22 Si8 1.648925 1_555
O22 V4 1.911954 1_555
O23 Si7 1.641695 1_555
O23 V5 1.900814 1_555
O24 Si5 1.641695 1_555
O24 V7 1.900814 1_555
O25 Si4 1.648925 1_555
O25 V8 1.911954 1_555
O26 Si6 1.648930 1_556
O26 V8 1.911948 1_555
O27 Si7 1.641701 1_555
O27 V6 1.900815 1_555
O28 Si11 1.645287 1_565
O28 V7 1.930099 1_555
O29 Si8 1.645295 1_555
O29 V11 1.930093 1_565
O30 Si7 1.639653 1_555
O30 V9 1.912482 1_555
O31 Si9 1.641701 1_555
O31 V7 1.900814 1_555
O32 Si9 1.639653 1_556
O32 V8 1.912482 1_555
O33 Si8 1.648930 1_555
O33 V9 1.911954 1_555
O34 Si8 1.645286 1_555
O34 V0 1.930093 1_655
O35 Si7 1.639653 1_555
O35 V10 1.912484 1_555
O36 Si10 1.639645 1_555
O36 V8 1.912475 1_555
O37 Si0 1.645287 1_655
O37 V7 1.930093 1_555
O38 Si0 1.648930 1_655
O38 V9 1.911948 1_555
O39 Si9 1.639660 1_555
O39 V10 1.912484 1_555
O40 Si9 1.641701 1_556
O40 V0 1.900815 1_655
O41 Si10 1.639652 1_555
O41 V9 1.912475 1_555
O42 Si10 1.641701 1_555
O42 V11 1.900822 1_555
O43 Si11 1.648930 1_555
O43 V10 1.911946 1_555
O44 Si2 1.648925 1_655
O44 V10 1.911946 1_555
O45 Si10 1.641695 1_555
O45 V1 1.900822 1_655
O46 Si11 1.645286 1_556
O46 V1 1.930099 1_655
O47 Si2 1.645295 1_655
O47 V11 1.930093 1_555
