# generated using pymatgen
data_TlF
_symmetry_space_group_name_H-M   'P 1'
_cell_length_a   5.04398845
_cell_length_b   5.56128201
_cell_length_c   6.13598387
_cell_angle_alpha   90.00000000
_cell_angle_beta   90.00000000
_cell_angle_gamma   90.00000000
_symmetry_Int_Tables_number   1
_chemical_formula_structural   TlF
_chemical_formula_sum   'Tl4 F4'
_cell_volume   172.12074263
_cell_formula_units_Z   4
loop_
 _symmetry_equiv_pos_site_id
 _symmetry_equiv_pos_as_xyz
  1  'x, y, z'
loop_
 _atom_site_type_symbol
 _atom_site_label
 _atom_site_symmetry_multiplicity
 _atom_site_fract_x
 _atom_site_fract_y
 _atom_site_fract_z
 _atom_site_occupancy
  Tl  Tl0  1  0.25000000  0.51100819  0.74393232  1
  Tl  Tl1  1  0.75000000  0.48899181  0.25606768  1
  Tl  Tl2  1  0.25000000  0.01100819  0.25606768  1
  Tl  Tl3  1  0.75000000  0.98899181  0.74393232  1
  F  F0  1  0.25000000  0.57919857  0.13712164  1
  F  F1  1  0.75000000  0.42080143  0.86287836  1
  F  F2  1  0.25000000  0.07919857  0.86287836  1
  F  F3  1  0.75000000  0.92080143  0.13712164  1
loop_
_geom_bond_atom_site_label_1
_geom_bond_atom_site_label_2
_geom_bond_distance
_geom_bond_site_symmetry_2
F0 Tl0 2.442226 1_554
F0 Tl2 2.509876 1_565
F0 Tl1 2.672977 1_555
F0 Tl1 2.672977 1_455
F1 Tl1 2.442226 1_556
F1 Tl3 2.509876 1_545
F1 Tl0 2.672977 1_555
F1 Tl0 2.672977 1_655
F2 Tl2 2.442226 1_556
F2 Tl0 2.509876 1_555
F2 Tl3 2.672977 1_445
F2 Tl3 2.672977 1_545
F3 Tl3 2.442226 1_554
F3 Tl1 2.509876 1_555
F3 Tl2 2.672977 1_565
F3 Tl2 2.672977 1_665
