# generated using pymatgen
data_Li2Mn4O5F3
_symmetry_space_group_name_H-M   'P 1'
_cell_length_a   6.12788384
_cell_length_b   6.12788384
_cell_length_c   5.89823919
_cell_angle_alpha   61.52618535
_cell_angle_beta   61.52618535
_cell_angle_gamma   58.66329286
_symmetry_Int_Tables_number   1
_chemical_formula_structural   Li2Mn4O5F3
_chemical_formula_sum   'Li2 Mn4 O5 F3'
_cell_volume   158.38169174
_cell_formula_units_Z   1
loop_
 _symmetry_equiv_pos_site_id
 _symmetry_equiv_pos_as_xyz
  1  'x, y, z'
loop_
 _atom_site_type_symbol
 _atom_site_label
 _atom_site_symmetry_multiplicity
 _atom_site_fract_x
 _atom_site_fract_y
 _atom_site_fract_z
 _atom_site_occupancy
  Li  Li0  1  0.87045200  0.38137300  0.37969500  1
  Li  Li1  1  0.38137300  0.87045200  0.37969500  1
  Mn  Mn0  1  0.38902000  0.38902000  0.86192200  1
  Mn  Mn1  1  0.98709800  0.98709800  0.01221900  1
  Mn  Mn2  1  0.75469800  0.75469800  0.72926000  1
  Mn  Mn3  1  0.37531300  0.37531300  0.37590400  1
  O  O0  1  0.59674500  0.16385200  0.61945300  1
  O  O1  1  0.59730900  0.59730900  0.64803200  1
  O  O2  1  0.58278400  0.15416200  0.13189400  1
  O  O3  1  0.15416200  0.58278400  0.13189400  1
  O  O4  1  0.16385200  0.59674500  0.61945300  1
  F  F0  1  0.12532500  0.12532500  0.60068000  1
  F  F1  1  0.14474900  0.14474900  0.11484900  1
  F  F2  1  0.62712200  0.62712200  0.14504700  1
loop_
_geom_bond_atom_site_label_1
_geom_bond_atom_site_label_2
_geom_bond_distance
_geom_bond_site_symmetry_2
Li0 O1 2.055422 1_555
Li0 O3 2.184253 1_655
Li0 O0 2.203663 1_555
Li1 O1 2.055422 1_555
Li1 O2 2.184253 1_565
Li1 O4 2.203663 1_555
Mn0 O1 1.863747 1_555
Mn0 O2 1.963906 1_556
Mn0 O3 1.963906 1_556
Mn0 O4 1.971895 1_555
Mn0 O0 1.971895 1_555
Mn1 O2 2.016934 1_565
Mn1 O3 2.016934 1_655
Mn2 O1 1.984595 1_555
Mn2 O4 2.041518 1_655
Mn2 O0 2.041518 1_565
Mn3 O0 1.959264 1_555
Mn3 O4 1.959264 1_555
Mn3 O2 1.961436 1_555
Mn3 O3 1.961436 1_555
F0 Li0 2.010530 1_455
F0 Li1 2.010530 1_545
F0 Mn1 2.037719 1_446
F0 Mn3 2.240291 1_555
F1 Mn1 2.078212 1_445
F1 Li0 2.118752 1_455
F1 Li1 2.118752 1_545
F1 Mn0 2.186038 1_554
F2 Li1 2.012834 1_555
F2 Li0 2.012834 1_555
F2 Mn2 2.053326 1_554
F2 Mn3 2.255184 1_555
