# generated using pymatgen
data_Li2VF5
_symmetry_space_group_name_H-M   'P 1'
_cell_length_a   5.35157400
_cell_length_b   7.72448300
_cell_length_c   10.09109300
_cell_angle_alpha   90.00000000
_cell_angle_beta   90.00000000
_cell_angle_gamma   90.00000000
_symmetry_Int_Tables_number   1
_chemical_formula_structural   Li2VF5
_chemical_formula_sum   'Li8 V4 F20'
_cell_volume   417.14703927
_cell_formula_units_Z   4
loop_
 _symmetry_equiv_pos_site_id
 _symmetry_equiv_pos_as_xyz
  1  'x, y, z'
loop_
 _atom_site_type_symbol
 _atom_site_label
 _atom_site_symmetry_multiplicity
 _atom_site_fract_x
 _atom_site_fract_y
 _atom_site_fract_z
 _atom_site_occupancy
  Li  Li0  1  0.81582600  0.13931000  0.50252700  1
  Li  Li1  1  0.81582600  0.13931000  0.99747300  1
  Li  Li2  1  0.31582600  0.36069000  0.00252700  1
  Li  Li3  1  0.31582600  0.36069000  0.49747300  1
  Li  Li4  1  0.68417400  0.63931000  0.50252700  1
  Li  Li5  1  0.68417400  0.63931000  0.99747300  1
  Li  Li6  1  0.18417400  0.86069000  0.00252700  1
  Li  Li7  1  0.18417400  0.86069000  0.49747300  1
  V  V0  1  0.29099200  0.11796600  0.25000000  1
  V  V1  1  0.79099200  0.38203400  0.75000000  1
  V  V2  1  0.20900800  0.61796600  0.25000000  1
  V  V3  1  0.70900800  0.88203400  0.75000000  1
  F  F0  1  0.05661600  0.05397800  0.11443900  1
  F  F1  1  0.05661600  0.05397800  0.38556100  1
  F  F2  1  0.62248100  0.14050200  0.75000000  1
  F  F3  1  0.51226500  0.18041400  0.10020000  1
  F  F4  1  0.51226500  0.18041400  0.39980000  1
  F  F5  1  0.01226500  0.31958600  0.60020000  1
  F  F6  1  0.01226500  0.31958600  0.89980000  1
  F  F7  1  0.12248100  0.35949800  0.25000000  1
  F  F8  1  0.55661600  0.44602200  0.61443900  1
  F  F9  1  0.55661600  0.44602200  0.88556100  1
  F  F10  1  0.44338400  0.55397800  0.11443900  1
  F  F11  1  0.44338400  0.55397800  0.38556100  1
  F  F12  1  0.87751900  0.64050200  0.75000000  1
  F  F13  1  0.98773500  0.68041400  0.10020000  1
  F  F14  1  0.98773500  0.68041400  0.39980000  1
  F  F15  1  0.48773500  0.81958600  0.60020000  1
  F  F16  1  0.48773500  0.81958600  0.89980000  1
  F  F17  1  0.37751900  0.85949800  0.25000000  1
  F  F18  1  0.94338400  0.94602200  0.61443900  1
  F  F19  1  0.94338400  0.94602200  0.88556100  1
loop_
_geom_bond_atom_site_label_1
_geom_bond_atom_site_label_2
_geom_bond_distance
_geom_bond_site_symmetry_2
F0 Li1 1.867651 1_454
F0 V0 1.920635 1_555
F0 Li6 1.992622 1_545
F1 Li0 1.867651 1_455
F1 V0 1.920635 1_555
F1 Li7 1.992622 1_545
F2 V3 2.049527 1_545
F2 V1 2.072225 1_555
F3 Li1 1.953075 1_554
F3 V0 1.979897 1_555
F3 Li2 2.003938 1_555
F4 Li0 1.953075 1_555
F4 V0 1.979897 1_555
F4 Li3 2.003938 1_555
F5 Li3 1.953075 1_555
F5 V1 1.979897 1_455
F5 Li0 2.003938 1_455
F6 Li2 1.953075 1_556
F6 V1 1.979897 1_455
F6 Li1 2.003938 1_455
F7 V2 2.049527 1_555
F7 V0 2.072225 1_555
F8 Li3 1.867651 1_555
F8 V1 1.920635 1_555
F8 Li4 1.992622 1_555
F9 Li2 1.867651 1_556
F9 V1 1.920635 1_555
F9 Li5 1.992622 1_555
F10 Li5 1.867651 1_554
F10 V2 1.920635 1_555
F10 Li2 1.992622 1_555
F11 Li4 1.867651 1_555
F11 V2 1.920635 1_555
F11 Li3 1.992622 1_555
F12 V1 2.049527 1_555
F12 V3 2.072225 1_555
F13 Li5 1.953075 1_554
F13 V2 1.979897 1_655
F13 Li6 2.003938 1_655
F14 Li4 1.953075 1_555
F14 V2 1.979897 1_655
F14 Li7 2.003938 1_655
F15 Li7 1.953075 1_555
F15 V3 1.979897 1_555
F15 Li4 2.003938 1_555
F16 Li6 1.953075 1_556
F16 V3 1.979897 1_555
F16 Li5 2.003938 1_555
F17 V0 2.049527 1_565
F17 V2 2.072225 1_555
F18 Li7 1.867651 1_655
F18 V3 1.920635 1_555
F18 Li0 1.992622 1_565
F19 Li6 1.867651 1_656
F19 V3 1.920635 1_555
F19 Li1 1.992622 1_565
