# generated using pymatgen
data_LiFePO4
_symmetry_space_group_name_H-M   'P 1'
_cell_length_a   4.95935900
_cell_length_b   5.40361680
_cell_length_c   12.73870414
_cell_angle_alpha   86.91147875
_cell_angle_beta   90.00390821
_cell_angle_gamma   117.31411204
_symmetry_Int_Tables_number   1
_chemical_formula_structural   LiFePO4
_chemical_formula_sum   'Li4 Fe4 P4 O16'
_cell_volume   302.75812886
_cell_formula_units_Z   4
loop_
 _symmetry_equiv_pos_site_id
 _symmetry_equiv_pos_as_xyz
  1  'x, y, z'
loop_
 _atom_site_type_symbol
 _atom_site_label
 _atom_site_symmetry_multiplicity
 _atom_site_fract_x
 _atom_site_fract_y
 _atom_site_fract_z
 _atom_site_occupancy
  Li  Li0  1  0.32398500  0.64460700  0.37397500  1
  Li  Li1  1  0.32389900  0.64406200  0.87413800  1
  Li  Li2  1  0.67937900  0.35538700  0.12602500  1
  Li  Li3  1  0.67983700  0.35593900  0.62586100  1
  Fe  Fe0  1  0.98323100  0.99828600  0.00025400  1
  Fe  Fe1  1  0.98488400  0.00165600  0.49974800  1
  Fe  Fe2  1  0.96146100  0.00007000  0.74998900  1
  Fe  Fe3  1  0.96040100  0.99996800  0.25001700  1
  P  P0  1  0.31854300  0.62522500  0.12188500  1
  P  P1  1  0.31961800  0.62530400  0.62197900  1
  P  P2  1  0.69331300  0.37477600  0.37811300  1
  P  P3  1  0.69431300  0.37469500  0.87801900  1
  O  O0  1  0.90310300  0.70484400  0.37029100  1
  O  O1  1  0.90441700  0.70509400  0.87092900  1
  O  O2  1  0.19826700  0.29515800  0.12972200  1
  O  O3  1  0.19933600  0.29490900  0.62908000  1
  O  O4  1  0.50378200  0.73519200  0.22093600  1
  O  O5  1  0.50536900  0.73488600  0.72101800  1
  O  O6  1  0.76858500  0.26482700  0.27906400  1
  O  O7  1  0.77047100  0.26513200  0.77897900  1
  O  O8  1  0.51504600  0.72823200  0.02026200  1
  O  O9  1  0.51803000  0.72971900  0.52060100  1
  O  O10  1  0.78682800  0.27174600  0.47973800  1
  O  O11  1  0.78833700  0.27025700  0.97939700  1
  O  O12  1  0.06347500  0.71863000  0.11679000  1
  O  O13  1  0.06411400  0.71734300  0.61726400  1
  O  O14  1  0.34485500  0.28138500  0.38320000  1
  O  O15  1  0.34678300  0.28267100  0.88272500  1
loop_
_geom_bond_atom_site_label_1
_geom_bond_atom_site_label_2
_geom_bond_distance
_geom_bond_site_symmetry_2
Li0 O14 2.009562 1_555
Li0 O9 2.076662 1_555
Li0 O4 2.081384 1_555
Li0 O0 2.255406 1_455
Li1 O15 2.004674 1_555
Li1 O8 2.065364 1_556
Li1 O5 2.084993 1_555
Li1 O1 2.250894 1_455
Li2 O12 2.009689 1_655
Li2 O11 2.076852 1_554
Li2 O6 2.081243 1_555
Li2 O2 2.255410 1_555
Li3 O13 2.004772 1_655
Li3 O10 2.065508 1_555
Li3 O7 2.084830 1_555
Li3 O3 2.250857 1_555
Fe0 O11 2.103834 1_564
Fe0 O8 2.106204 1_555
Fe0 O12 2.226171 1_655
Fe0 O15 2.250210 1_664
Fe0 O1 2.256028 1_554
Fe0 O2 2.268383 1_665
Fe1 O9 2.103836 1_545
Fe1 O10 2.106007 1_555
Fe1 O14 2.226684 1_655
Fe1 O13 2.249840 1_645
Fe1 O3 2.256303 1_655
Fe1 O0 2.268121 1_545
Fe2 O3 2.076826 1_655
Fe2 O1 2.077447 1_545
Fe2 O7 2.094541 1_555
Fe2 O5 2.094786 1_545
Fe2 O15 2.538201 1_655
Fe2 O13 2.538514 1_645
Fe3 O0 2.071776 1_555
Fe3 O2 2.072235 1_665
Fe3 O4 2.096653 1_555
Fe3 O6 2.096848 1_565
Fe3 O14 2.538270 1_665
Fe3 O12 2.538515 1_655
O0 P2 1.597297 1_555
O1 P3 1.598977 1_555
O2 P0 1.597280 1_555
O3 P1 1.598951 1_555
O4 P0 1.539087 1_555
O5 P1 1.539704 1_555
O6 P2 1.539074 1_555
O7 P3 1.539697 1_555
O8 P0 1.536257 1_555
O9 P1 1.538346 1_555
O10 P2 1.536283 1_555
O11 P3 1.538370 1_555
O12 P0 1.562536 1_555
O13 P1 1.559398 1_555
O14 P2 1.562508 1_555
O15 P3 1.559380 1_555
