# generated using pymatgen
data_Li5VO4F
_symmetry_space_group_name_H-M   'P 1'
_cell_length_a   5.13703222
_cell_length_b   5.13703222
_cell_length_c   5.81470057
_cell_angle_alpha   73.65085018
_cell_angle_beta   73.65085018
_cell_angle_gamma   46.07587587
_symmetry_Int_Tables_number   1
_chemical_formula_structural   Li5VO4F
_chemical_formula_sum   'Li5 V1 O4 F1'
_cell_volume   105.22254041
_cell_formula_units_Z   1
loop_
 _symmetry_equiv_pos_site_id
 _symmetry_equiv_pos_as_xyz
  1  'x, y, z'
loop_
 _atom_site_type_symbol
 _atom_site_label
 _atom_site_symmetry_multiplicity
 _atom_site_fract_x
 _atom_site_fract_y
 _atom_site_fract_z
 _atom_site_occupancy
  Li  Li0  1  0.67001200  0.67001200  0.11090400  1
  Li  Li1  1  0.69578000  0.69578000  0.65711900  1
  Li  Li2  1  0.28997600  0.28997600  0.30366800  1
  Li  Li3  1  0.31686600  0.31686600  0.85513600  1
  Li  Li4  1  0.98622000  0.98622000  0.47849300  1
  V  V0  1  0.97652700  0.97652700  0.01507600  1
  O  O0  1  0.13314300  0.13314300  0.14782100  1
  O  O1  1  0.49059500  0.49059500  0.98476700  1
  O  O2  1  0.82552000  0.82552000  0.31396900  1
  O  O3  1  0.85412900  0.85412900  0.81071400  1
  F  F0  1  0.15987200  0.15987200  0.64883700  1
loop_
_geom_bond_atom_site_label_1
_geom_bond_atom_site_label_2
_geom_bond_distance
_geom_bond_site_symmetry_2
Li0 O0 2.040401 1_655
Li0 O0 2.040401 1_565
Li0 O1 2.043679 1_554
Li0 O3 2.053825 1_554
Li0 O2 2.148947 1_555
Li1 O3 1.963941 1_555
Li1 O2 1.997150 1_555
Li1 O1 2.265401 1_555
Li2 O0 1.960092 1_555
Li2 O2 2.042121 1_545
Li2 O2 2.042121 1_455
Li2 O1 2.210098 1_554
Li3 O1 2.005882 1_555
Li3 O0 2.026118 1_556
Li3 O3 2.043671 1_545
Li3 O3 2.043671 1_455
Li4 O3 1.953328 1_555
Li4 O0 1.998157 1_665
Li4 O2 2.028024 1_555
O0 V0 1.867522 1_445
O1 V0 2.018869 1_546
O1 V0 2.018869 1_456
O2 V0 1.881735 1_555
O3 V0 1.895396 1_556
F0 Li2 2.007738 1_555
F0 Li1 2.041814 1_545
F0 Li1 2.041814 1_455
F0 Li4 2.161375 1_445
F0 Li3 2.175195 1_555
F0 V0 2.298172 1_446
