# generated using pymatgen
data_Li3Co2(CO3)4
_symmetry_space_group_name_H-M   'P 1'
_cell_length_a   6.37393854
_cell_length_b   7.83637210
_cell_length_c   5.20862225
_cell_angle_alpha   89.55588765
_cell_angle_beta   114.32798150
_cell_angle_gamma   90.24571494
_symmetry_Int_Tables_number   1
_chemical_formula_structural   Li3Co2(CO3)4
_chemical_formula_sum   'Li3 Co2 C4 O12'
_cell_volume   237.05394175
_cell_formula_units_Z   1
loop_
 _symmetry_equiv_pos_site_id
 _symmetry_equiv_pos_as_xyz
  1  'x, y, z'
loop_
 _atom_site_type_symbol
 _atom_site_label
 _atom_site_symmetry_multiplicity
 _atom_site_fract_x
 _atom_site_fract_y
 _atom_site_fract_z
 _atom_site_occupancy
  Li  Li0  1  0.33567700  0.94284300  0.62738500  1
  Li  Li1  1  0.65472300  0.06796400  0.36396400  1
  Li  Li2  1  0.79623700  0.55678400  0.60651000  1
  Co  Co0  1  0.00182100  0.99432800  0.99539200  1
  Co  Co1  1  0.48559300  0.50129400  0.98054600  1
  C  C0  1  0.11583700  0.25480300  0.86867700  1
  C  C1  1  0.62483300  0.23610100  0.84856400  1
  C  C2  1  0.39137100  0.76998800  0.15373000  1
  C  C3  1  0.87958400  0.74040000  0.14362400  1
  O  O0  1  0.08615000  0.11381100  0.71859100  1
  O  O1  1  0.15054000  0.40074000  0.79093600  1
  O  O2  1  0.38644100  0.75991400  0.90171600  1
  O  O3  1  0.09270200  0.22445600  0.10290500  1
  O  O4  1  0.35035400  0.91622700  0.24617000  1
  O  O5  1  0.44080900  0.63503600  0.30777800  1
  O  O6  1  0.61380700  0.37740400  0.71523600  1
  O  O7  1  0.65453700  0.08883900  0.74976600  1
  O  O8  1  0.90070500  0.75549100  0.90339600  1
  O  O9  1  0.59505000  0.24305500  0.08008700  1
  O  O10  1  0.83056900  0.60390300  0.23398400  1
  O  O11  1  0.91893100  0.88677600  0.28102700  1
loop_
_geom_bond_atom_site_label_1
_geom_bond_atom_site_label_2
_geom_bond_distance
_geom_bond_site_symmetry_2
Li0 O2 1.947467 1_555
Li0 O4 2.038263 1_555
Li0 O7 2.183993 1_565
Li0 O0 2.280553 1_565
Li0 O11 2.560779 1_455
Li1 O9 1.929562 1_555
Li1 O7 2.017895 1_555
Li1 O4 2.136551 1_545
Li1 O11 2.380761 1_545
Li2 O6 2.040824 1_555
Li2 O10 2.070559 1_555
Li2 O8 2.106986 1_555
Li2 O5 2.241042 1_555
Li2 O1 2.395017 1_655
Co0 O3 1.908065 1_566
Co0 O11 1.956348 1_456
Co0 O0 1.964052 1_565
Co0 O8 1.974094 1_455
Co0 O4 2.150438 1_556
Co0 O7 2.179736 1_465
Co1 O1 2.101658 1_555
Co1 O2 2.111768 1_555
Co1 O6 2.116160 1_555
Co1 O5 2.125109 1_556
Co1 O9 2.132735 1_556
Co1 O10 2.198600 1_556
C0 O1 1.259046 1_555
C0 O3 1.307723 1_556
C0 O0 1.325659 1_555
C1 O6 1.289132 1_555
C1 O9 1.297291 1_556
C1 O7 1.312909 1_555
C2 O5 1.281745 1_555
C2 O2 1.303019 1_554
C2 O4 1.314646 1_555
C3 O10 1.254484 1_555
C3 O8 1.316856 1_554
C3 O11 1.324088 1_555
