# generated using pymatgen
data_LuGaO3
_symmetry_space_group_name_H-M   'P 1'
_cell_length_a   3.45791145
_cell_length_b   3.45791145
_cell_length_c   11.70532300
_cell_angle_alpha   90.00000000
_cell_angle_beta   90.00000000
_cell_angle_gamma   119.99998946
_symmetry_Int_Tables_number   1
_chemical_formula_structural   LuGaO3
_chemical_formula_sum   'Lu2 Ga2 O6'
_cell_volume   121.21093888
_cell_formula_units_Z   2
loop_
 _symmetry_equiv_pos_site_id
 _symmetry_equiv_pos_as_xyz
  1  'x, y, z'
loop_
 _atom_site_type_symbol
 _atom_site_label
 _atom_site_symmetry_multiplicity
 _atom_site_fract_x
 _atom_site_fract_y
 _atom_site_fract_z
 _atom_site_occupancy
  Lu  Lu0  1  0.00000000  0.00000000  0.00000000  1
  Lu  Lu1  1  0.00000000  0.00000000  0.50000000  1
  Ga  Ga0  1  0.33333300  0.66666700  0.25000000  1
  Ga  Ga1  1  0.66666700  0.33333300  0.75000000  1
  O  O0  1  0.33333300  0.66666700  0.08559700  1
  O  O1  1  0.00000000  0.00000000  0.25000000  1
  O  O2  1  0.33333300  0.66666700  0.41440300  1
  O  O3  1  0.00000000  0.00000000  0.75000000  1
  O  O4  1  0.66666700  0.33333300  0.91440300  1
  O  O5  1  0.66666700  0.33333300  0.58559700  1
loop_
_geom_bond_atom_site_label_1
_geom_bond_atom_site_label_2
_geom_bond_distance
_geom_bond_site_symmetry_2
Lu0 O0 2.233740 1_545
Lu0 O4 2.233740 1_454
Lu0 O0 2.233743 1_445
Lu0 O0 2.233743 1_555
Lu0 O4 2.233743 1_554
Lu0 O4 2.233743 1_444
Lu1 O5 2.233740 1_455
Lu1 O2 2.233740 1_545
Lu1 O5 2.233743 1_555
Lu1 O5 2.233743 1_445
Lu1 O2 2.233743 1_555
Lu1 O2 2.233743 1_445
Ga0 O2 1.924390 1_555
Ga0 O0 1.924390 1_555
Ga0 O1 1.996424 1_565
Ga0 O1 1.996427 1_665
Ga0 O1 1.996427 1_555
Ga1 O4 1.924390 1_555
Ga1 O5 1.924390 1_555
Ga1 O3 1.996424 1_655
Ga1 O3 1.996427 1_555
Ga1 O3 1.996427 1_665
