# generated using pymatgen
data_Be2P2O7
_symmetry_space_group_name_H-M   'P 1'
_cell_length_a   4.61241600
_cell_length_b   13.22929300
_cell_length_c   15.95900300
_cell_angle_alpha   90.00000000
_cell_angle_beta   90.00000000
_cell_angle_gamma   90.00000000
_symmetry_Int_Tables_number   1
_chemical_formula_structural   Be2P2O7
_chemical_formula_sum   'Be16 P16 O56'
_cell_volume   973.80244718
_cell_formula_units_Z   8
loop_
 _symmetry_equiv_pos_site_id
 _symmetry_equiv_pos_as_xyz
  1  'x, y, z'
loop_
 _atom_site_type_symbol
 _atom_site_label
 _atom_site_symmetry_multiplicity
 _atom_site_fract_x
 _atom_site_fract_y
 _atom_site_fract_z
 _atom_site_occupancy
  Be  Be0  1  0.15455700  0.46647900  0.07273900  1
  Be  Be1  1  0.15455700  0.03352100  0.57273900  1
  Be  Be2  1  0.15455700  0.46647900  0.42726100  1
  Be  Be3  1  0.15455700  0.03352100  0.92726100  1
  Be  Be4  1  0.24514400  0.19628700  0.17630900  1
  Be  Be5  1  0.24514400  0.19628700  0.32369100  1
  Be  Be6  1  0.24514400  0.30371300  0.67630900  1
  Be  Be7  1  0.24514400  0.30371300  0.82369100  1
  Be  Be8  1  0.75485600  0.69628700  0.17630900  1
  Be  Be9  1  0.75485600  0.69628700  0.32369100  1
  Be  Be10  1  0.75485600  0.80371300  0.67630900  1
  Be  Be11  1  0.75485600  0.80371300  0.82369100  1
  Be  Be12  1  0.84544300  0.96647900  0.07273900  1
  Be  Be13  1  0.84544300  0.96647900  0.42726100  1
  Be  Be14  1  0.84544300  0.53352100  0.57273900  1
  Be  Be15  1  0.84544300  0.53352100  0.92726100  1
  P  P0  1  0.03201000  0.99994300  0.25000000  1
  P  P1  1  0.03201000  0.50005700  0.75000000  1
  P  P2  1  0.22070000  0.79258300  0.25000000  1
  P  P3  1  0.22070000  0.70741700  0.75000000  1
  P  P4  1  0.44365100  0.64404400  0.01697900  1
  P  P5  1  0.44365100  0.64404400  0.48302100  1
  P  P6  1  0.44365100  0.85595600  0.51697900  1
  P  P7  1  0.44365100  0.85595600  0.98302100  1
  P  P8  1  0.55634900  0.14404400  0.01697900  1
  P  P9  1  0.55634900  0.14404400  0.48302100  1
  P  P10  1  0.55634900  0.35595600  0.51697900  1
  P  P11  1  0.55634900  0.35595600  0.98302100  1
  P  P12  1  0.77930000  0.29258300  0.25000000  1
  P  P13  1  0.77930000  0.20741700  0.75000000  1
  P  P14  1  0.96799000  0.49994300  0.25000000  1
  P  P15  1  0.96799000  0.00005700  0.75000000  1
  O  O0  1  0.05494500  0.76197200  0.17108800  1
  O  O1  1  0.05494500  0.76197200  0.32891200  1
  O  O2  1  0.05494500  0.73802800  0.67108800  1
  O  O3  1  0.05494500  0.73802800  0.82891200  1
  O  O4  1  0.13184600  0.48720000  0.16897500  1
  O  O5  1  0.13184600  0.48720000  0.33102500  1
  O  O6  1  0.13184600  0.01280000  0.66897500  1
  O  O7  1  0.13184600  0.01280000  0.83102500  1
  O  O8  1  0.19557000  0.93501500  0.98666100  1
  O  O9  1  0.19557000  0.56498500  0.48666100  1
  O  O10  1  0.19557000  0.93501500  0.51333900  1
  O  O11  1  0.19557000  0.56498500  0.01333900  1
  O  O12  1  0.18327000  0.10433500  0.25000000  1
  O  O13  1  0.18327000  0.39566500  0.75000000  1
  O  O14  1  0.27924200  0.58666700  0.75000000  1
  O  O15  1  0.27924200  0.91333300  0.25000000  1
  O  O16  1  0.28519300  0.75000000  0.00000000  1
  O  O17  1  0.28519300  0.75000000  0.50000000  1
  O  O18  1  0.40637000  0.14730300  0.10102100  1
  O  O19  1  0.40637000  0.14730300  0.39897900  1
  O  O20  1  0.40637000  0.35269700  0.60102100  1
  O  O21  1  0.40637000  0.35269700  0.89897900  1
  O  O22  1  0.34524800  0.12812200  0.55524600  1
  O  O23  1  0.34524800  0.37187800  0.05524600  1
  O  O24  1  0.34524800  0.12812200  0.94475400  1
  O  O25  1  0.34524800  0.37187800  0.44475400  1
  O  O26  1  0.53887800  0.75397000  0.25000000  1
  O  O27  1  0.53887800  0.74603000  0.75000000  1
  O  O28  1  0.46112200  0.24603000  0.75000000  1
  O  O29  1  0.46112200  0.25397000  0.25000000  1
  O  O30  1  0.65475200  0.62812200  0.55524600  1
  O  O31  1  0.65475200  0.87187800  0.05524600  1
  O  O32  1  0.65475200  0.62812200  0.94475400  1
  O  O33  1  0.65475200  0.87187800  0.44475400  1
  O  O34  1  0.59363000  0.64730300  0.10102100  1
  O  O35  1  0.59363000  0.64730300  0.39897900  1
  O  O36  1  0.59363000  0.85269700  0.60102100  1
  O  O37  1  0.59363000  0.85269700  0.89897900  1
  O  O38  1  0.71480700  0.25000000  0.00000000  1
  O  O39  1  0.71480700  0.25000000  0.50000000  1
  O  O40  1  0.72075800  0.08666700  0.75000000  1
  O  O41  1  0.72075800  0.41333300  0.25000000  1
  O  O42  1  0.81673000  0.60433500  0.25000000  1
  O  O43  1  0.81673000  0.89566500  0.75000000  1
  O  O44  1  0.80443000  0.43501500  0.98666100  1
  O  O45  1  0.80443000  0.06498500  0.48666100  1
  O  O46  1  0.80443000  0.06498500  0.01333900  1
  O  O47  1  0.80443000  0.43501500  0.51333900  1
  O  O48  1  0.86815400  0.98720000  0.16897500  1
  O  O49  1  0.86815400  0.98720000  0.33102500  1
  O  O50  1  0.86815400  0.51280000  0.66897500  1
  O  O51  1  0.86815400  0.51280000  0.83102500  1
  O  O52  1  0.94505500  0.26197200  0.17108800  1
  O  O53  1  0.94505500  0.26197200  0.32891200  1
  O  O54  1  0.94505500  0.23802800  0.67108800  1
  O  O55  1  0.94505500  0.23802800  0.82891200  1
loop_
_geom_bond_atom_site_label_1
_geom_bond_atom_site_label_2
_geom_bond_distance
_geom_bond_site_symmetry_2
Be0 O23 1.554928 1_555
Be0 O4 1.563615 1_555
Be0 O11 1.622548 1_555
Be0 O44 2.160641 1_454
Be1 O22 1.554928 1_555
Be1 O6 1.563615 1_555
Be1 O10 1.622548 1_545
Be1 O45 2.160641 1_455
Be2 O25 1.554928 1_555
Be2 O5 1.563615 1_555
Be2 O9 1.622548 1_555
Be2 O47 2.160641 1_455
Be3 O24 1.554928 1_555
Be3 O7 1.563615 1_555
Be3 O8 1.622548 1_545
Be3 O46 2.160641 1_456
Be4 O18 1.554539 1_555
Be4 O52 1.636421 1_455
Be4 O12 1.715890 1_555
Be4 O29 1.719815 1_555
Be5 O19 1.554539 1_555
Be5 O53 1.636421 1_455
Be5 O12 1.715890 1_555
Be5 O29 1.719815 1_555
Be6 O20 1.554539 1_555
Be6 O54 1.636421 1_455
Be6 O13 1.715890 1_555
Be6 O28 1.719815 1_555
Be7 O21 1.554539 1_555
Be7 O55 1.636421 1_455
Be7 O13 1.715890 1_555
Be7 O28 1.719815 1_555
Be8 O34 1.554539 1_555
Be8 O0 1.636421 1_655
Be8 O42 1.715890 1_555
Be8 O26 1.719815 1_555
Be9 O35 1.554539 1_555
Be9 O1 1.636421 1_655
Be9 O42 1.715890 1_555
Be9 O26 1.719815 1_555
Be10 O36 1.554539 1_555
Be10 O2 1.636421 1_655
Be10 O43 1.715890 1_555
Be10 O27 1.719815 1_555
Be11 O37 1.554539 1_555
Be11 O3 1.636421 1_655
Be11 O43 1.715890 1_555
Be11 O27 1.719815 1_555
Be12 O31 1.554928 1_555
Be12 O48 1.563615 1_555
Be12 O46 1.622548 1_565
Be12 O8 2.160641 1_654
Be13 O33 1.554928 1_555
Be13 O49 1.563615 1_555
Be13 O45 1.622548 1_565
Be13 O10 2.160641 1_655
Be14 O30 1.554928 1_555
Be14 O50 1.563615 1_555
Be14 O47 1.622548 1_555
Be14 O9 2.160641 1_655
Be15 O32 1.554928 1_555
Be15 O51 1.563615 1_555
Be15 O44 1.622548 1_555
Be15 O11 2.160641 1_656
O0 P2 1.527901 1_555
O1 P2 1.527901 1_555
O2 P3 1.527901 1_555
O3 P3 1.527901 1_555
O4 P14 1.507203 1_455
O5 P14 1.507203 1_455
O6 P15 1.507203 1_455
O7 P15 1.507203 1_455
O8 P7 1.551317 1_555
O9 P5 1.551317 1_555
O10 P6 1.551317 1_555
O11 P4 1.551317 1_555
O12 P0 1.547255 1_545
O13 P1 1.547255 1_555
O14 P1 1.616540 1_555
O14 P3 1.620098 1_555
O15 P0 1.616540 1_555
O15 P2 1.620098 1_555
O16 P7 1.603879 1_554
O16 P4 1.603879 1_555
O17 P6 1.603879 1_555
O17 P5 1.603879 1_555
O18 P8 1.509731 1_555
O19 P9 1.509731 1_555
O20 P10 1.509731 1_555
O21 P11 1.509731 1_555
O22 P9 1.523486 1_555
O23 P11 1.523486 1_554
O24 P8 1.523486 1_556
O25 P10 1.523486 1_555
O26 P2 1.553930 1_555
O27 P3 1.553930 1_555
O28 P13 1.553930 1_555
O29 P12 1.553930 1_555
O30 P5 1.523486 1_555
O31 P7 1.523486 1_554
O32 P4 1.523486 1_556
O33 P6 1.523486 1_555
O34 P4 1.509731 1_555
O35 P5 1.509731 1_555
O36 P6 1.509731 1_555
O37 P7 1.509731 1_555
O38 P8 1.603879 1_555
O38 P11 1.603879 1_554
O39 P10 1.603879 1_555
O39 P9 1.603879 1_555
O40 P15 1.616540 1_555
O40 P13 1.620098 1_555
O41 P14 1.616540 1_555
O41 P12 1.620098 1_555
O42 P14 1.547255 1_555
O43 P15 1.547255 1_565
O44 P11 1.551317 1_555
O45 P9 1.551317 1_555
O46 P8 1.551317 1_555
O47 P10 1.551317 1_555
O48 P0 1.507203 1_655
O49 P0 1.507203 1_655
O50 P1 1.507203 1_655
O51 P1 1.507203 1_655
O52 P12 1.527901 1_555
O53 P12 1.527901 1_555
O54 P13 1.527901 1_555
O55 P13 1.527901 1_555
