# generated using pymatgen
data_SnS
_symmetry_space_group_name_H-M   'P 1'
_cell_length_a   4.08662758
_cell_length_b   4.08916110
_cell_length_c   10.95624501
_cell_angle_alpha   98.06629781
_cell_angle_beta   90.65620060
_cell_angle_gamma   89.99108584
_symmetry_Int_Tables_number   1
_chemical_formula_structural   SnS
_chemical_formula_sum   'Sn2 S2'
_cell_volume   181.26498554
_cell_formula_units_Z   2
loop_
 _symmetry_equiv_pos_site_id
 _symmetry_equiv_pos_as_xyz
  1  'x, y, z'
loop_
 _atom_site_type_symbol
 _atom_site_label
 _atom_site_symmetry_multiplicity
 _atom_site_fract_x
 _atom_site_fract_y
 _atom_site_fract_z
 _atom_site_occupancy
  Sn  Sn0  1  0.74229024  0.69623983  0.36562182  1
  Sn  Sn1  1  0.25770976  0.30376017  0.63437818  1
  S  S0  1  0.75308840  0.78764570  0.60038195  1
  S  S1  1  0.24691160  0.21235430  0.39961805  1
loop_
_geom_bond_atom_site_label_1
_geom_bond_atom_site_label_2
_geom_bond_distance
_geom_bond_site_symmetry_2
S0 Sn0 2.546548 1_555
S0 Sn1 2.894407 1_555
S0 Sn1 2.913157 1_565
S0 Sn1 2.914544 1_655
S0 Sn1 2.934052 1_665
S1 Sn1 2.546548 1_555
S1 Sn0 2.894407 1_555
S1 Sn0 2.913157 1_545
S1 Sn0 2.914544 1_455
S1 Sn0 2.934052 1_445
