# generated using pymatgen
data_LiFeSiO4
_symmetry_space_group_name_H-M   'P 1'
_cell_length_a   5.21243000
_cell_length_b   8.43028700
_cell_length_c   8.55500264
_cell_angle_alpha   72.25926021
_cell_angle_beta   90.00000000
_cell_angle_gamma   90.00000000
_symmetry_Int_Tables_number   1
_chemical_formula_structural   LiFeSiO4
_chemical_formula_sum   'Li4 Fe4 Si4 O16'
_cell_volume   358.04917470
_cell_formula_units_Z   4
loop_
 _symmetry_equiv_pos_site_id
 _symmetry_equiv_pos_as_xyz
  1  'x, y, z'
loop_
 _atom_site_type_symbol
 _atom_site_label
 _atom_site_symmetry_multiplicity
 _atom_site_fract_x
 _atom_site_fract_y
 _atom_site_fract_z
 _atom_site_occupancy
  Li  Li0  1  0.33547900  0.09445400  0.01977600  1
  Li  Li1  1  0.82323700  0.26673900  0.49927700  1
  Li  Li2  1  0.66452100  0.59445400  0.01977600  1
  Li  Li3  1  0.17676300  0.76673900  0.49927700  1
  Fe  Fe0  1  0.17181000  0.00007500  0.74968900  1
  Fe  Fe1  1  0.32730000  0.33186300  0.26335500  1
  Fe  Fe2  1  0.82819000  0.50007500  0.74968900  1
  Fe  Fe3  1  0.67270000  0.83186300  0.26335500  1
  Si  Si0  1  0.82301200  0.22011300  0.13497700  1
  Si  Si1  1  0.31989700  0.37229200  0.63032200  1
  Si  Si2  1  0.17698800  0.72011300  0.13497700  1
  Si  Si3  1  0.68010300  0.87229200  0.63032200  1
  O  O0  1  0.68470600  0.05225800  0.11534800  1
  O  O1  1  0.83762700  0.03072600  0.65732400  1
  O  O2  1  0.13206100  0.19136400  0.17097900  1
  O  O3  1  0.68036400  0.26976300  0.28704400  1
  O  O4  1  0.26950200  0.20421300  0.78627900  1
  O  O5  1  0.19868300  0.32772500  0.47015000  1
  O  O6  1  0.31529400  0.55225800  0.11534800  1
  O  O7  1  0.62743500  0.41448400  0.60608700  1
  O  O8  1  0.77091400  0.37772100  0.97062000  1
  O  O9  1  0.16237300  0.53072600  0.65732400  1
  O  O10  1  0.86793900  0.69136400  0.17097900  1
  O  O11  1  0.31963600  0.76976300  0.28704400  1
  O  O12  1  0.73049800  0.70421300  0.78627900  1
  O  O13  1  0.80131700  0.82772500  0.47015000  1
  O  O14  1  0.37256500  0.91448400  0.60608700  1
  O  O15  1  0.22908600  0.87772100  0.97062000  1
loop_
_geom_bond_atom_site_label_1
_geom_bond_atom_site_label_2
_geom_bond_distance
_geom_bond_site_symmetry_2
Li0 O4 1.959158 1_554
Li0 O0 1.982766 1_555
Li0 O2 2.027062 1_555
Li0 O15 2.071477 1_544
Li1 O3 1.955413 1_555
Li1 O5 2.019441 1_655
Li1 O7 2.030156 1_555
Li1 O1 2.037904 1_555
Li2 O12 1.959158 1_554
Li2 O6 1.982766 1_555
Li2 O10 2.027062 1_555
Li2 O8 2.071477 1_554
Li3 O11 1.955413 1_555
Li3 O13 2.019441 1_455
Li3 O14 2.030156 1_555
Li3 O9 2.037904 1_555
Fe0 O15 1.880777 1_545
Fe0 O1 1.897620 1_455
Fe0 O4 1.909770 1_555
Fe0 O14 1.914447 1_545
Fe1 O5 1.882254 1_555
Fe1 O6 1.904101 1_555
Fe1 O2 1.906186 1_555
Fe1 O3 1.907163 1_555
Fe2 O8 1.880777 1_555
Fe2 O9 1.897620 1_655
Fe2 O12 1.909770 1_555
Fe2 O7 1.914447 1_555
Fe3 O13 1.882254 1_555
Fe3 O0 1.904101 1_565
Fe3 O10 1.906186 1_555
Fe3 O11 1.907163 1_555
O0 Si0 1.641687 1_555
O1 Si3 1.643019 1_545
O2 Si0 1.644110 1_455
O3 Si0 1.659013 1_555
O4 Si1 1.644616 1_555
O5 Si1 1.652800 1_555
O6 Si2 1.641687 1_555
O7 Si1 1.641412 1_555
O8 Si0 1.636352 1_556
O9 Si1 1.643019 1_555
O10 Si2 1.644110 1_655
O11 Si2 1.659013 1_555
O12 Si3 1.644616 1_555
O13 Si3 1.652800 1_555
O14 Si3 1.641412 1_555
O15 Si2 1.636352 1_556
