# generated using pymatgen
data_Na2CoO3
_symmetry_space_group_name_H-M   'P 1'
_cell_length_a   5.92755671
_cell_length_b   5.92755671
_cell_length_c   11.29524300
_cell_angle_alpha   90.00000000
_cell_angle_beta   90.00000000
_cell_angle_gamma   123.49008387
_symmetry_Int_Tables_number   1
_chemical_formula_structural   Na2CoO3
_chemical_formula_sum   'Na8 Co4 O12'
_cell_volume   330.98121298
_cell_formula_units_Z   4
loop_
 _symmetry_equiv_pos_site_id
 _symmetry_equiv_pos_as_xyz
  1  'x, y, z'
loop_
 _atom_site_type_symbol
 _atom_site_label
 _atom_site_symmetry_multiplicity
 _atom_site_fract_x
 _atom_site_fract_y
 _atom_site_fract_z
 _atom_site_occupancy
  Na  Na0  1  0.96367500  0.03632500  0.14495000  1
  Na  Na1  1  0.63364000  0.36636000  0.07854700  1
  Na  Na2  1  0.86636000  0.13364000  0.57854700  1
  Na  Na3  1  0.53632500  0.46367500  0.64495000  1
  Na  Na4  1  0.46367500  0.53632500  0.35505000  1
  Na  Na5  1  0.13364000  0.86636000  0.42145300  1
  Na  Na6  1  0.03632500  0.96367500  0.85505000  1
  Na  Na7  1  0.36636000  0.63364000  0.92145300  1
  Co  Co0  1  0.75480900  0.24519100  0.34109500  1
  Co  Co1  1  0.74519100  0.25480900  0.84109500  1
  Co  Co2  1  0.25480900  0.74519100  0.15890500  1
  Co  Co3  1  0.24519100  0.75480900  0.65890500  1
  O  O0  1  0.44326700  0.05673300  0.25000000  1
  O  O1  1  0.66253400  0.33746600  0.47132200  1
  O  O2  1  0.92085000  0.07915000  0.36106300  1
  O  O3  1  0.83746600  0.16253400  0.97132200  1
  O  O4  1  0.57915000  0.42085000  0.86106300  1
  O  O5  1  0.94326700  0.55673300  0.25000000  1
  O  O6  1  0.05673300  0.44326700  0.75000000  1
  O  O7  1  0.16253400  0.83746600  0.02867800  1
  O  O8  1  0.07915000  0.92085000  0.63893700  1
  O  O9  1  0.42085000  0.57915000  0.13893700  1
  O  O10  1  0.33746600  0.66253400  0.52867800  1
  O  O11  1  0.55673300  0.94326700  0.75000000  1
loop_
_geom_bond_atom_site_label_1
_geom_bond_atom_site_label_2
_geom_bond_distance
_geom_bond_site_symmetry_2
Na0 O3 2.362874 1_554
Na0 O7 2.457047 1_645
Na0 O2 2.481675 1_555
Na0 O9 2.842304 1_545
Na0 O9 2.842304 1_655
Na1 O9 2.324415 1_555
Na1 O3 2.448922 1_554
Na1 O5 2.471166 1_555
Na1 O0 2.471166 1_555
Na1 O4 2.521575 1_554
Na1 O7 2.877919 1_655
Na1 O7 2.877919 1_545
Na2 O8 2.324415 1_645
Na2 O1 2.448922 1_555
Na2 O6 2.471166 1_655
Na2 O11 2.471166 1_545
Na2 O2 2.521575 1_555
Na2 O10 2.877919 1_655
Na2 O10 2.877919 1_545
Na3 O1 2.362874 1_555
Na3 O10 2.457047 1_555
Na3 O4 2.481675 1_555
Na3 O8 2.842304 1_545
Na3 O8 2.842304 1_655
Na4 O10 2.362874 1_555
Na4 O1 2.457047 1_555
Na4 O9 2.481675 1_555
Na4 O2 2.842304 1_455
Na4 O2 2.842304 1_565
Na5 O2 2.324415 1_465
Na5 O10 2.448922 1_555
Na5 O0 2.471166 1_565
Na5 O5 2.471166 1_455
Na5 O8 2.521575 1_555
Na5 O1 2.877919 1_455
Na5 O1 2.877919 1_565
Na6 O7 2.362874 1_556
Na6 O3 2.457047 1_465
Na6 O8 2.481675 1_555
Na6 O4 2.842304 1_455
Na6 O4 2.842304 1_565
Na7 O4 2.324415 1_555
Na7 O7 2.448922 1_556
Na7 O11 2.471166 1_555
Na7 O6 2.471166 1_555
Na7 O9 2.521575 1_556
Na7 O3 2.877919 1_565
Na7 O3 2.877919 1_455
Co0 O2 1.748503 1_555
Co0 O1 1.758461 1_555
Co0 O5 1.854791 1_555
Co0 O0 1.854791 1_555
Co1 O4 1.748503 1_555
Co1 O3 1.758461 1_555
Co1 O11 1.854791 1_545
Co1 O6 1.854791 1_655
Co2 O9 1.748503 1_555
Co2 O7 1.758461 1_555
Co2 O5 1.854791 1_455
Co2 O0 1.854791 1_565
Co3 O8 1.748503 1_555
Co3 O10 1.758461 1_555
Co3 O11 1.854791 1_555
Co3 O6 1.854791 1_555
