# generated using pymatgen
data_Na3SiBSbO7
_symmetry_space_group_name_H-M   'P 1'
_cell_length_a   6.83999800
_cell_length_b   5.32460200
_cell_length_c   9.18799377
_cell_angle_alpha   89.41325637
_cell_angle_beta   90.00000000
_cell_angle_gamma   90.00000000
_symmetry_Int_Tables_number   1
_chemical_formula_structural   Na3SiBSbO7
_chemical_formula_sum   'Na6 Si2 B2 Sb2 O14'
_cell_volume   334.61164039
_cell_formula_units_Z   2
loop_
 _symmetry_equiv_pos_site_id
 _symmetry_equiv_pos_as_xyz
  1  'x, y, z'
loop_
 _atom_site_type_symbol
 _atom_site_label
 _atom_site_symmetry_multiplicity
 _atom_site_fract_x
 _atom_site_fract_y
 _atom_site_fract_z
 _atom_site_occupancy
  Na  Na0  1  0.25000000  0.75946700  0.92369100  1
  Na  Na1  1  0.00759300  0.25354500  0.75084100  1
  Na  Na2  1  0.49240700  0.25354500  0.75084100  1
  Na  Na3  1  0.50759300  0.74645500  0.24915900  1
  Na  Na4  1  0.99240700  0.74645500  0.24915900  1
  Na  Na5  1  0.75000000  0.24053300  0.07630900  1
  Si  Si0  1  0.25000000  0.70703400  0.58268800  1
  Si  Si1  1  0.75000000  0.29296600  0.41731200  1
  B  B0  1  0.75000000  0.73267400  0.94080400  1
  B  B1  1  0.25000000  0.26732600  0.05919600  1
  Sb  Sb0  1  0.75000000  0.78316400  0.65817300  1
  Sb  Sb1  1  0.25000000  0.21683600  0.34182700  1
  O  O0  1  0.25000000  0.28724000  0.91425300  1
  O  O1  1  0.75000000  0.96486100  0.86295900  1
  O  O2  1  0.75000000  0.52436700  0.84595500  1
  O  O3  1  0.06184600  0.79369100  0.68402600  1
  O  O4  1  0.43815400  0.79369100  0.68402600  1
  O  O5  1  0.25000000  0.39834700  0.56339200  1
  O  O6  1  0.75000000  0.16133200  0.58086000  1
  O  O7  1  0.25000000  0.83866800  0.41914000  1
  O  O8  1  0.75000000  0.60165300  0.43660800  1
  O  O9  1  0.56184600  0.20630900  0.31597400  1
  O  O10  1  0.93815400  0.20630900  0.31597400  1
  O  O11  1  0.25000000  0.47563300  0.15404500  1
  O  O12  1  0.25000000  0.03513900  0.13704100  1
  O  O13  1  0.75000000  0.71276000  0.08574700  1
loop_
_geom_bond_atom_site_label_1
_geom_bond_atom_site_label_2
_geom_bond_distance
_geom_bond_site_symmetry_2
Na0 O12 2.460916 1_566
Na0 O0 2.516803 1_555
Na0 O3 2.555439 1_555
Na0 O4 2.555439 1_555
Na0 O11 2.588061 1_556
Na0 O0 2.810631 1_565
Na1 O0 2.245254 1_555
Na1 O6 2.408396 1_455
Na1 O2 2.444046 1_455
Na1 O5 2.506529 1_555
Na1 O1 2.548712 1_445
Na1 O3 2.557481 1_545
Na2 O0 2.245254 1_555
Na2 O6 2.408396 1_555
Na2 O2 2.444046 1_555
Na2 O5 2.506529 1_555
Na2 O1 2.548712 1_545
Na2 O4 2.557481 1_545
Na3 O13 2.245254 1_555
Na3 O7 2.408396 1_555
Na3 O11 2.444046 1_555
Na3 O8 2.506529 1_555
Na3 O12 2.548712 1_565
Na3 O9 2.557481 1_565
Na4 O13 2.245254 1_555
Na4 O7 2.408396 1_655
Na4 O11 2.444046 1_655
Na4 O8 2.506529 1_555
Na4 O12 2.548712 1_665
Na4 O10 2.557481 1_565
Na5 O1 2.460916 1_544
Na5 O13 2.516803 1_555
Na5 O10 2.555439 1_555
Na5 O9 2.555439 1_555
Na5 O2 2.588061 1_554
Na5 O13 2.810631 1_545
B0 O13 1.334867 1_556
B0 O2 1.417561 1_555
B0 O1 1.421936 1_555
B1 O0 1.334867 1_554
B1 O11 1.417561 1_555
B1 O12 1.421936 1_555
O1 Sb0 2.124520 1_555
O2 Sb0 2.197035 1_555
O3 Si0 1.656785 1_555
O3 Sb0 2.147007 1_455
O4 Si0 1.656785 1_555
O4 Sb0 2.147007 1_555
O5 Si0 1.654974 1_555
O5 Sb1 2.262431 1_555
O6 Si1 1.651584 1_555
O6 Sb0 2.128348 1_545
O7 Si0 1.651584 1_555
O7 Sb1 2.128348 1_565
O8 Si1 1.654974 1_555
O8 Sb0 2.262431 1_555
O9 Si1 1.656785 1_555
O9 Sb1 2.147007 1_555
O10 Si1 1.656785 1_555
O10 Sb1 2.147007 1_655
O11 Sb1 2.197035 1_555
O12 Sb1 2.124520 1_555
