# generated using pymatgen
data_K2I2ClO6
_symmetry_space_group_name_H-M   'P 1'
_cell_length_a   6.59970700
_cell_length_b   8.73620700
_cell_length_c   15.34819800
_cell_angle_alpha   90.00000000
_cell_angle_beta   90.00000000
_cell_angle_gamma   90.00000000
_symmetry_Int_Tables_number   1
_chemical_formula_structural   K2I2ClO6
_chemical_formula_sum   'K8 I8 Cl4 O24'
_cell_volume   884.92194280
_cell_formula_units_Z   4
loop_
 _symmetry_equiv_pos_site_id
 _symmetry_equiv_pos_as_xyz
  1  'x, y, z'
loop_
 _atom_site_type_symbol
 _atom_site_label
 _atom_site_symmetry_multiplicity
 _atom_site_fract_x
 _atom_site_fract_y
 _atom_site_fract_z
 _atom_site_occupancy
  K  K0  1  0.97611100  0.47862500  0.98430300  1
  K  K1  1  0.02388900  0.97862500  0.01569700  1
  K  K2  1  0.97611100  0.97862500  0.51569700  1
  K  K3  1  0.02388900  0.47862500  0.48430300  1
  K  K4  1  0.55435600  0.98928600  0.23521700  1
  K  K5  1  0.44564400  0.48928600  0.76478300  1
  K  K6  1  0.55435600  0.48928600  0.26478300  1
  K  K7  1  0.44564400  0.98928600  0.73521700  1
  I  I0  1  0.93028000  0.24750400  0.71689900  1
  I  I1  1  0.06972000  0.74750400  0.28310100  1
  I  I2  1  0.93028000  0.74750400  0.78310100  1
  I  I3  1  0.06972000  0.24750400  0.21689900  1
  I  I4  1  0.51855400  0.23401700  0.03242900  1
  I  I5  1  0.48144600  0.73401700  0.96757100  1
  I  I6  1  0.51855400  0.73401700  0.46757100  1
  I  I7  1  0.48144600  0.23401700  0.53242900  1
  Cl  Cl0  1  0.77693000  0.72057500  0.12421400  1
  Cl  Cl1  1  0.22307000  0.22057500  0.87578600  1
  Cl  Cl2  1  0.77693000  0.22057500  0.37578600  1
  Cl  Cl3  1  0.22307000  0.72057500  0.62421400  1
  O  O0  1  0.82408800  0.31626600  0.61178100  1
  O  O1  1  0.17591200  0.81626600  0.38821900  1
  O  O2  1  0.82408800  0.81626600  0.88821900  1
  O  O3  1  0.17591200  0.31626600  0.11178100  1
  O  O4  1  0.70251100  0.23371100  0.78070000  1
  O  O5  1  0.29748900  0.73371100  0.21930000  1
  O  O6  1  0.70251100  0.73371100  0.71930000  1
  O  O7  1  0.29748900  0.23371100  0.28070000  1
  O  O8  1  0.98936800  0.04756900  0.69300800  1
  O  O9  1  0.01063200  0.54756900  0.30699200  1
  O  O10  1  0.98936800  0.54756900  0.80699200  1
  O  O11  1  0.01063200  0.04756900  0.19300800  1
  O  O12  1  0.73616500  0.20243000  0.96313700  1
  O  O13  1  0.26383500  0.70243000  0.03686300  1
  O  O14  1  0.73616500  0.70243000  0.53686300  1
  O  O15  1  0.26383500  0.20243000  0.46313700  1
  O  O16  1  0.65114200  0.29455300  0.13163400  1
  O  O17  1  0.34885800  0.79455300  0.86836600  1
  O  O18  1  0.65114200  0.79455300  0.36836600  1
  O  O19  1  0.34885800  0.29455300  0.63163400  1
  O  O20  1  0.44313900  0.03726400  0.05806000  1
  O  O21  1  0.55686100  0.53726400  0.94194000  1
  O  O22  1  0.44313900  0.53726400  0.44194000  1
  O  O23  1  0.55686100  0.03726400  0.55806000  1
loop_
_geom_bond_atom_site_label_1
_geom_bond_atom_site_label_2
_geom_bond_distance
_geom_bond_site_symmetry_2
K0 O3 2.752955 1_656
K0 O10 2.788633 1_555
K0 O13 2.842428 1_656
K0 O21 2.888092 1_555
K0 O12 2.904360 1_555
K1 O2 2.752955 1_454
K1 O11 2.788633 1_565
K1 O12 2.842428 1_464
K1 O20 2.888092 1_565
K1 O13 2.904360 1_555
K2 O1 2.752955 1_655
K2 O8 2.788633 1_565
K2 O15 2.842428 1_665
K2 O23 2.888092 1_565
K2 O14 2.904360 1_555
K3 O0 2.752955 1_455
K3 O9 2.788633 1_555
K3 O14 2.842428 1_455
K3 O22 2.888092 1_555
K3 O15 2.904360 1_555
K4 O18 2.734681 1_555
K4 O5 2.814026 1_555
K4 O7 2.814407 1_565
K4 O20 2.847388 1_565
K4 O11 3.121986 1_665
K4 O16 3.169817 1_565
K5 O19 2.734681 1_555
K5 O4 2.814026 1_555
K5 O6 2.814407 1_555
K5 O21 2.847388 1_555
K5 O10 3.121986 1_455
K5 O17 3.169817 1_555
K6 O16 2.734681 1_555
K6 O7 2.814026 1_555
K6 O5 2.814407 1_555
K6 O22 2.847388 1_555
K6 O9 3.121986 1_655
K6 O18 3.169817 1_555
K7 O17 2.734681 1_555
K7 O6 2.814026 1_555
K7 O4 2.814407 1_565
K7 O23 2.847388 1_565
K7 O8 3.121986 1_465
K7 O19 3.169817 1_565
I0 O4 1.798068 1_555
I0 O8 1.826854 1_555
I0 O0 1.858764 1_555
I1 O5 1.798068 1_555
I1 O9 1.826854 1_555
I1 O1 1.858764 1_555
I2 O6 1.798068 1_555
I2 O10 1.826854 1_555
I2 O2 1.858764 1_555
I3 O7 1.798068 1_555
I3 O11 1.826854 1_555
I3 O3 1.858764 1_555
I4 O12 1.808253 1_554
I4 O20 1.832214 1_555
I4 O16 1.834053 1_555
I4 O3 2.667069 1_555
I5 O13 1.808253 1_556
I5 O21 1.832214 1_555
I5 O17 1.834053 1_555
I5 O2 2.667069 1_555
I6 O14 1.808253 1_555
I6 O22 1.832214 1_555
I6 O18 1.834053 1_555
I6 O1 2.667069 1_555
I7 O15 1.808253 1_555
I7 O23 1.832214 1_555
I7 O19 1.834053 1_555
I7 O0 2.667069 1_555
Cl0 I5 3.097875 1_554
Cl0 I1 3.120280 1_655
Cl0 K1 3.242326 1_655
Cl0 K4 3.251329 1_555
Cl0 K0 3.287414 1_554
Cl0 K6 3.300793 1_555
Cl1 I4 3.097875 1_556
Cl1 I0 3.120280 1_455
Cl1 K0 3.242326 1_455
Cl1 K5 3.251329 1_555
Cl1 K1 3.287414 1_546
Cl1 K7 3.300793 1_545
Cl2 I7 3.097875 1_555
Cl2 I3 3.120280 1_655
Cl2 K3 3.242326 1_655
Cl2 K6 3.251329 1_555
Cl2 K2 3.287414 1_545
Cl2 K4 3.300793 1_545
Cl3 I6 3.097875 1_555
Cl3 I2 3.120280 1_455
Cl3 K2 3.242326 1_455
Cl3 K7 3.251329 1_555
Cl3 K3 3.287414 1_555
Cl3 K5 3.300793 1_555
