# generated using pymatgen
data_Ti(PO3)4
_symmetry_space_group_name_H-M   'P 1'
_cell_length_a   6.98694259
_cell_length_b   6.98694259
_cell_length_c   9.59577545
_cell_angle_alpha   87.77517545
_cell_angle_beta   87.77517545
_cell_angle_gamma   107.54299835
_symmetry_Int_Tables_number   1
_chemical_formula_structural   Ti(PO3)4
_chemical_formula_sum   'Ti2 P8 O24'
_cell_volume   445.68918373
_cell_formula_units_Z   2
loop_
 _symmetry_equiv_pos_site_id
 _symmetry_equiv_pos_as_xyz
  1  'x, y, z'
loop_
 _atom_site_type_symbol
 _atom_site_label
 _atom_site_symmetry_multiplicity
 _atom_site_fract_x
 _atom_site_fract_y
 _atom_site_fract_z
 _atom_site_occupancy
  Ti  Ti0  1  0.89304200  0.10695800  0.75000000  1
  Ti  Ti1  1  0.10695800  0.89304200  0.25000000  1
  P  P0  1  0.78264900  0.72414000  0.53438900  1
  P  P1  1  0.72414000  0.78264900  0.03438900  1
  P  P2  1  0.71899800  0.34797900  0.97385200  1
  P  P3  1  0.65202100  0.28100200  0.52614800  1
  P  P4  1  0.34797900  0.71899800  0.47385200  1
  P  P5  1  0.28100200  0.65202100  0.02614800  1
  P  P6  1  0.27586000  0.21735100  0.96561100  1
  P  P7  1  0.21735100  0.27586000  0.46561100  1
  O  O0  1  0.92940300  0.74728400  0.40985600  1
  O  O1  1  0.85919600  0.85280300  0.65524400  1
  O  O2  1  0.76619200  0.58893500  0.97790700  1
  O  O3  1  0.85280300  0.85919600  0.15524400  1
  O  O4  1  0.74728400  0.92940300  0.90985600  1
  O  O5  1  0.86308000  0.33039800  0.85329200  1
  O  O6  1  0.58893500  0.76619200  0.47790700  1
  O  O7  1  0.75743900  0.28352500  0.39087400  1
  O  O8  1  0.71647500  0.24256100  0.10912600  1
  O  O9  1  0.66960200  0.13692000  0.64670800  1
  O  O10  1  0.49964300  0.71254800  0.09708600  1
  O  O11  1  0.71254800  0.49964300  0.59708600  1
  O  O12  1  0.28745200  0.50035700  0.40291400  1
  O  O13  1  0.50035700  0.28745200  0.90291400  1
  O  O14  1  0.33039800  0.86308000  0.35329200  1
  O  O15  1  0.28352500  0.75743900  0.89087400  1
  O  O16  1  0.24256100  0.71647500  0.60912600  1
  O  O17  1  0.41106500  0.23380800  0.52209300  1
  O  O18  1  0.13692000  0.66960200  0.14670800  1
  O  O19  1  0.25271600  0.07059700  0.09014400  1
  O  O20  1  0.14719700  0.14080400  0.84475600  1
  O  O21  1  0.23380800  0.41106500  0.02209300  1
  O  O22  1  0.14080400  0.14719700  0.34475600  1
  O  O23  1  0.07059700  0.25271600  0.59014400  1
loop_
_geom_bond_atom_site_label_1
_geom_bond_atom_site_label_2
_geom_bond_distance
_geom_bond_site_symmetry_2
O0 P0 1.515066 1_555
O0 Ti1 1.974452 1_655
O1 P0 1.509414 1_555
O1 Ti0 1.981141 1_565
O2 P1 1.579962 1_556
O2 P2 1.617403 1_555
O3 P1 1.509414 1_555
O3 Ti1 1.981141 1_655
O4 P1 1.515066 1_556
O4 Ti0 1.974452 1_565
O5 P2 1.536886 1_555
O5 Ti0 1.940236 1_555
O6 P0 1.579962 1_555
O6 P4 1.617403 1_555
O7 P3 1.464219 1_555
O8 P2 1.464219 1_554
O9 P3 1.536886 1_555
O9 Ti0 1.940236 1_555
O10 P1 1.582057 1_555
O10 P5 1.639967 1_555
O11 P0 1.582057 1_555
O11 P3 1.639967 1_555
O12 P7 1.582057 1_555
O12 P4 1.639967 1_555
O13 P6 1.582057 1_555
O13 P2 1.639967 1_555
O14 P4 1.536886 1_555
O14 Ti1 1.940236 1_555
O15 P5 1.464219 1_556
O16 P4 1.464219 1_555
O17 P7 1.579962 1_555
O17 P3 1.617403 1_555
O18 P5 1.536886 1_555
O18 Ti1 1.940236 1_555
O19 P6 1.515066 1_554
O19 Ti1 1.974452 1_545
O20 P6 1.509414 1_555
O20 Ti0 1.981141 1_455
O21 P6 1.579962 1_554
O21 P5 1.617403 1_555
O22 P7 1.509414 1_555
O22 Ti1 1.981141 1_545
O23 P7 1.515066 1_555
O23 Ti0 1.974452 1_455
