# generated using pymatgen
data_LiTiMnO4
_symmetry_space_group_name_H-M   'P 1'
_cell_length_a   6.30650300
_cell_length_b   6.30642000
_cell_length_c   7.23323100
_cell_angle_alpha   89.99967012
_cell_angle_beta   90.00027886
_cell_angle_gamma   89.99994549
_symmetry_Int_Tables_number   1
_chemical_formula_structural   LiTiMnO4
_chemical_formula_sum   'Li4 Ti4 Mn4 O16'
_cell_volume   287.67613315
_cell_formula_units_Z   4
loop_
 _symmetry_equiv_pos_site_id
 _symmetry_equiv_pos_as_xyz
  1  'x, y, z'
loop_
 _atom_site_type_symbol
 _atom_site_label
 _atom_site_symmetry_multiplicity
 _atom_site_fract_x
 _atom_site_fract_y
 _atom_site_fract_z
 _atom_site_occupancy
  Li  Li0  1  0.99999200  0.22055500  0.00000300  1
  Li  Li1  1  0.99999800  0.77944500  0.49999600  1
  Li  Li2  1  0.22053300  0.00000400  0.24999800  1
  Li  Li3  1  0.77945100  0.99999600  0.75000100  1
  Ti  Ti0  1  0.21643700  0.49998800  0.24999700  1
  Ti  Ti1  1  0.50001700  0.21640200  0.00001100  1
  Ti  Ti2  1  0.49997900  0.78359300  0.49999600  1
  Ti  Ti3  1  0.78354900  0.50001600  0.74999700  1
  Mn  Mn0  1  0.25829600  0.25832200  0.62508500  1
  Mn  Mn1  1  0.25830200  0.74169700  0.87496100  1
  Mn  Mn2  1  0.74170800  0.25828500  0.37500700  1
  Mn  Mn3  1  0.74170500  0.74168200  0.12505100  1
  O  O0  1  0.03336500  0.26989600  0.28785600  1
  O  O1  1  0.03337300  0.73010300  0.21212900  1
  O  O2  1  0.26987700  0.03337500  0.96210200  1
  O  O3  1  0.26987900  0.96664700  0.53788600  1
  O  O4  1  0.26562900  0.45881600  0.98394900  1
  O  O5  1  0.26563300  0.54118300  0.51603800  1
  O  O6  1  0.45882000  0.26563000  0.26602000  1
  O  O7  1  0.45880100  0.73437700  0.23397100  1
  O  O8  1  0.54120600  0.26563100  0.73397600  1
  O  O9  1  0.54119500  0.73437300  0.76601600  1
  O  O10  1  0.73437200  0.54118600  0.48395100  1
  O  O11  1  0.73436700  0.45881800  0.01603600  1
  O  O12  1  0.73012700  0.03335800  0.03787700  1
  O  O13  1  0.73013600  0.96661700  0.46210900  1
  O  O14  1  0.96662000  0.26989600  0.71211700  1
  O  O15  1  0.96663400  0.73010800  0.78786400  1
loop_
_geom_bond_atom_site_label_1
_geom_bond_atom_site_label_2
_geom_bond_distance
_geom_bond_site_symmetry_2
Li0 O12 2.089310 1_555
Li0 O2 2.089377 1_654
Li0 O0 2.115725 1_655
Li0 O14 2.115956 1_554
Li0 O11 2.253307 1_555
Li0 O4 2.253364 1_654
Li1 O13 2.089213 1_555
Li1 O3 2.089424 1_655
Li1 O15 2.115821 1_555
Li1 O1 2.115829 1_655
Li1 O10 2.253300 1_555
Li1 O5 2.253351 1_655
Li2 O0 2.089320 1_555
Li2 O1 2.089349 1_545
Li2 O3 2.115966 1_545
Li2 O2 2.116033 1_554
Li2 O7 2.253332 1_545
Li2 O6 2.253407 1_555
Li3 O15 2.089354 1_555
Li3 O14 2.089389 1_565
Li3 O12 2.115869 1_566
Li3 O13 2.115982 1_555
Li3 O9 2.253259 1_555
Li3 O8 2.253270 1_565
Mn0 O14 1.945568 1_455
Mn0 O3 1.945933 1_545
Mn0 O8 1.950833 1_555
Mn0 O5 1.950989 1_555
Mn1 O15 1.945670 1_455
Mn1 O2 1.945813 1_565
Mn1 O9 1.950902 1_555
Mn1 O4 1.950930 1_555
Mn2 O13 1.945655 1_545
Mn2 O0 1.945742 1_655
Mn2 O10 1.950926 1_555
Mn2 O6 1.950992 1_555
Mn3 O1 1.945623 1_655
Mn3 O12 1.945872 1_565
Mn3 O7 1.950890 1_555
Mn3 O11 1.950921 1_555
O0 Ti0 1.874441 1_555
O1 Ti0 1.874529 1_555
O2 Ti1 1.874559 1_556
O3 Ti2 1.874449 1_555
O4 Ti0 1.966452 1_556
O4 Ti1 2.129693 1_556
O5 Ti0 1.966423 1_555
O5 Ti2 2.129486 1_555
O6 Ti1 1.966233 1_555
O6 Ti0 2.129407 1_555
O7 Ti2 1.966316 1_555
O7 Ti0 2.129461 1_555
O8 Ti1 1.966408 1_556
O8 Ti3 2.129346 1_555
O9 Ti2 1.966313 1_555
O9 Ti3 2.129272 1_555
O10 Ti3 1.966416 1_555
O10 Ti2 2.129678 1_555
O11 Ti3 1.966397 1_554
O11 Ti1 2.129524 1_555
O12 Ti1 1.874430 1_555
O13 Ti2 1.874608 1_555
O14 Ti3 1.874597 1_555
O15 Ti3 1.874501 1_555
