# generated using pymatgen
data_Lu2Co2O7
_symmetry_space_group_name_H-M   'P 1'
_cell_length_a   6.82078113
_cell_length_b   6.82765085
_cell_length_c   6.83218906
_cell_angle_alpha   60.03433326
_cell_angle_beta   60.06081594
_cell_angle_gamma   59.99679736
_symmetry_Int_Tables_number   1
_chemical_formula_structural   Lu2Co2O7
_chemical_formula_sum   'Lu4 Co4 O14'
_cell_volume   225.13947271
_cell_formula_units_Z   2
loop_
 _symmetry_equiv_pos_site_id
 _symmetry_equiv_pos_as_xyz
  1  'x, y, z'
loop_
 _atom_site_type_symbol
 _atom_site_label
 _atom_site_symmetry_multiplicity
 _atom_site_fract_x
 _atom_site_fract_y
 _atom_site_fract_z
 _atom_site_occupancy
  Lu  Lu0  1  0.62498899  0.62500093  0.12502541  1
  Lu  Lu1  1  0.62500240  0.62496843  0.62501603  1
  Lu  Lu2  1  0.62498816  0.12503715  0.62496785  1
  Lu  Lu3  1  0.12501993  0.62498373  0.62500376  1
  Co  Co0  1  0.12499897  0.12500022  0.12499706  1
  Co  Co1  1  0.62500260  0.12499915  0.12499862  1
  Co  Co2  1  0.12500105  0.12499782  0.62499813  1
  Co  Co3  1  0.12499852  0.62500442  0.12499763  1
  O  O0  1  0.04213216  0.45872197  0.45155057  1
  O  O1  1  0.79235070  0.79891834  0.20188524  1
  O  O2  1  0.79814038  0.20250729  0.20702531  1
  O  O3  1  0.45574443  0.04361310  0.45622548  1
  O  O4  1  0.74961150  0.74984376  0.75061905  1
  O  O5  1  0.04368746  0.45583931  0.04494691  1
  O  O6  1  0.04732253  0.04147992  0.45840103  1
  O  O7  1  0.20631095  0.79416492  0.20505274  1
  O  O8  1  0.20267857  0.20852405  0.79159747  1
  O  O9  1  0.79425308  0.20638458  0.79377487  1
  O  O10  1  0.50039111  0.50014800  0.49938206  1
  O  O11  1  0.45185812  0.04750111  0.04296899  1
  O  O12  1  0.45764996  0.45108568  0.04811559  1
  O  O13  1  0.20786742  0.79127712  0.79845222  1
loop_
_geom_bond_atom_site_label_1
_geom_bond_atom_site_label_2
_geom_bond_distance
_geom_bond_site_symmetry_2
Lu0 O10 2.089850 1_555
Lu0 O4 2.090128 1_554
Lu0 O7 2.358331 1_555
Lu0 O5 2.358405 1_655
Lu0 O1 2.359192 1_555
Lu0 O12 2.359293 1_555
Lu0 O11 2.380893 1_565
Lu0 O2 2.380903 1_555
Lu1 O10 2.090184 1_555
Lu1 O4 2.090305 1_555
Lu1 O0 2.352912 1_655
Lu1 O13 2.352964 1_555
Lu1 O9 2.359483 1_555
Lu1 O3 2.359817 1_565
Lu1 O12 2.387880 1_556
Lu1 O1 2.388091 1_555
Lu2 O10 2.091329 1_555
Lu2 O4 2.091790 1_545
Lu2 O2 2.361789 1_555
Lu2 O11 2.362068 1_556
Lu2 O3 2.362470 1_555
Lu2 O9 2.362589 1_555
Lu2 O8 2.377201 1_555
Lu2 O6 2.377287 1_655
Lu3 O10 2.091235 1_555
Lu3 O4 2.091442 1_455
Lu3 O8 2.350251 1_555
Lu3 O6 2.350427 1_565
Lu3 O5 2.369674 1_556
Lu3 O7 2.369755 1_555
Lu3 O13 2.380523 1_555
Lu3 O0 2.380567 1_555
Co0 O2 1.853025 1_455
Co0 O11 1.853037 1_555
Co0 O7 1.877434 1_545
Co0 O5 1.877464 1_555
Co0 O8 1.895891 1_554
Co0 O6 1.895925 1_555
Co1 O1 1.850466 1_545
Co1 O12 1.850500 1_555
Co1 O9 1.881566 1_554
Co1 O3 1.881591 1_555
Co1 O2 1.889606 1_555
Co1 O11 1.889612 1_555
Co2 O6 1.858471 1_555
Co2 O8 1.858523 1_555
Co2 O3 1.875497 1_555
Co2 O9 1.875525 1_455
Co2 O13 1.897035 1_545
Co2 O0 1.897045 1_555
Co3 O13 1.854349 1_554
Co3 O0 1.854398 1_555
Co3 O5 1.874879 1_555
Co3 O7 1.874880 1_555
Co3 O1 1.890215 1_455
Co3 O12 1.890239 1_555
