# generated using pymatgen
data_LiMnSbO4
_symmetry_space_group_name_H-M   'P 1'
_cell_length_a   6.24298504
_cell_length_b   6.27182700
_cell_length_c   9.04641139
_cell_angle_alpha   90.00003286
_cell_angle_beta   89.99999936
_cell_angle_gamma   89.99998773
_symmetry_Int_Tables_number   1
_chemical_formula_structural   LiMnSbO4
_chemical_formula_sum   'Li4 Mn4 Sb4 O16'
_cell_volume   354.21153311
_cell_formula_units_Z   4
loop_
 _symmetry_equiv_pos_site_id
 _symmetry_equiv_pos_as_xyz
  1  'x, y, z'
loop_
 _atom_site_type_symbol
 _atom_site_label
 _atom_site_symmetry_multiplicity
 _atom_site_fract_x
 _atom_site_fract_y
 _atom_site_fract_z
 _atom_site_occupancy
  Li  Li0  1  0.00000000  0.25000200  0.09758700  1
  Li  Li1  1  0.50000000  0.74999600  0.59758900  1
  Li  Li2  1  0.00000100  0.74999600  0.90241300  1
  Li  Li3  1  0.50000100  0.25000100  0.40241100  1
  Mn  Mn0  1  0.49998700  0.00000900  0.00000400  1
  Mn  Mn1  1  0.99999200  0.00000700  0.49999900  1
  Mn  Mn2  1  0.99998900  0.50000900  0.50000100  1
  Mn  Mn3  1  0.50001800  0.50000200  0.99999900  1
  Sb  Sb0  1  0.25000100  0.74999200  0.24999900  1
  Sb  Sb1  1  0.75000100  0.25000300  0.74999900  1
  Sb  Sb2  1  0.75000000  0.74999300  0.25000000  1
  Sb  Sb3  1  0.25000000  0.25000400  0.75000000  1
  O  O0  1  0.00000100  0.53071300  0.24923700  1
  O  O1  1  0.50000000  0.03072200  0.74923500  1
  O  O2  1  0.00000100  0.96927600  0.24923400  1
  O  O3  1  0.50000000  0.46928400  0.74923700  1
  O  O4  1  0.00000000  0.03072100  0.75076500  1
  O  O5  1  0.50000000  0.53071300  0.25076200  1
  O  O6  1  0.00000100  0.46928400  0.75076200  1
  O  O7  1  0.50000100  0.96927600  0.25076500  1
  O  O8  1  0.23787300  0.74999200  0.46765900  1
  O  O9  1  0.73787200  0.25000700  0.96765900  1
  O  O10  1  0.76212900  0.74999000  0.46765800  1
  O  O11  1  0.26212800  0.25000900  0.96765900  1
  O  O12  1  0.76213000  0.25000600  0.53234100  1
  O  O13  1  0.26212900  0.74999000  0.03234100  1
  O  O14  1  0.23787300  0.25000500  0.53234100  1
  O  O15  1  0.73787100  0.74999300  0.03234100  1
loop_
_geom_bond_atom_site_label_1
_geom_bond_atom_site_label_2
_geom_bond_distance
_geom_bond_site_symmetry_2
Li0 O11 2.014827 1_554
Li0 O9 2.014827 1_454
Li0 O0 2.231969 1_555
Li0 O2 2.232027 1_545
Li1 O8 2.014833 1_555
Li1 O10 2.014848 1_555
Li1 O3 2.231964 1_555
Li1 O1 2.232021 1_565
Li2 O13 2.014827 1_556
Li2 O15 2.014837 1_456
Li2 O6 2.231979 1_555
Li2 O4 2.232028 1_565
Li3 O14 2.014838 1_555
Li3 O12 2.014843 1_555
Li3 O5 2.231969 1_555
Li3 O7 2.232016 1_545
Mn0 O11 2.179262 1_554
Mn0 O13 2.179334 1_545
Mn0 O9 2.179364 1_554
Mn0 O15 2.179431 1_545
Mn0 O7 2.276662 1_545
Mn0 O1 2.276723 1_554
Mn1 O12 2.179266 1_555
Mn1 O14 2.179343 1_655
Mn1 O10 2.179351 1_545
Mn1 O8 2.179417 1_645
Mn1 O4 2.276696 1_655
Mn1 O2 2.276696 1_645
Mn2 O10 2.179178 1_555
Mn2 O12 2.179270 1_555
Mn2 O8 2.179289 1_655
Mn2 O14 2.179380 1_655
Mn2 O6 2.276657 1_655
Mn2 O0 2.276673 1_655
Mn3 O15 2.179193 1_556
Mn3 O9 2.179212 1_555
Mn3 O13 2.179332 1_556
Mn3 O11 2.179357 1_555
Mn3 O3 2.276662 1_555
Mn3 O5 2.276668 1_556
O0 Sb0 2.080234 1_555
O0 Sb2 2.080242 1_455
O1 Sb3 2.080246 1_555
O1 Sb1 2.080247 1_555
O2 Sb0 2.080254 1_555
O2 Sb2 2.080255 1_455
O3 Sb3 2.080238 1_555
O3 Sb1 2.080246 1_555
O4 Sb1 2.080241 1_455
O4 Sb3 2.080250 1_555
O5 Sb0 2.080229 1_555
O5 Sb2 2.080238 1_555
O6 Sb3 2.080233 1_555
O6 Sb1 2.080242 1_455
O7 Sb2 2.080245 1_555
O7 Sb0 2.080255 1_555
O8 Sb0 1.970497 1_555
O9 Sb1 1.970497 1_555
O10 Sb2 1.970479 1_555
O11 Sb3 1.970488 1_555
O12 Sb1 1.970479 1_555
O13 Sb0 1.970479 1_555
O14 Sb3 1.970488 1_555
O15 Sb2 1.970488 1_555
