# generated using pymatgen
data_CuSb(PO4)2
_symmetry_space_group_name_H-M   'P 1'
_cell_length_a   6.23269900
_cell_length_b   5.01770500
_cell_length_c   10.00091503
_cell_angle_alpha   87.16465138
_cell_angle_beta   90.00000000
_cell_angle_gamma   90.00000000
_symmetry_Int_Tables_number   1
_chemical_formula_structural   CuSb(PO4)2
_chemical_formula_sum   'Cu2 Sb2 P4 O16'
_cell_volume   312.38417924
_cell_formula_units_Z   2
loop_
 _symmetry_equiv_pos_site_id
 _symmetry_equiv_pos_as_xyz
  1  'x, y, z'
loop_
 _atom_site_type_symbol
 _atom_site_label
 _atom_site_symmetry_multiplicity
 _atom_site_fract_x
 _atom_site_fract_y
 _atom_site_fract_z
 _atom_site_occupancy
  Cu  Cu0  1  0.25000000  0.91226900  0.71506200  1
  Cu  Cu1  1  0.75000000  0.08773100  0.28493800  1
  Sb  Sb0  1  0.75000000  0.46254400  0.77924400  1
  Sb  Sb1  1  0.25000000  0.53745600  0.22075600  1
  P  P0  1  0.25000000  0.40955700  0.89951800  1
  P  P1  1  0.75000000  0.91563100  0.59283600  1
  P  P2  1  0.25000000  0.08436900  0.40716400  1
  P  P3  1  0.75000000  0.59044300  0.10048200  1
  O  O0  1  0.75000000  0.68501100  0.94915500  1
  O  O1  1  0.25000000  0.71289200  0.88511700  1
  O  O2  1  0.05053100  0.27812600  0.83059800  1
  O  O3  1  0.44946900  0.27812600  0.83059800  1
  O  O4  1  0.94036300  0.76251200  0.67142400  1
  O  O5  1  0.55963700  0.76251200  0.67142400  1
  O  O6  1  0.75000000  0.21944900  0.61439700  1
  O  O7  1  0.25000000  0.13619800  0.55429900  1
  O  O8  1  0.75000000  0.86380200  0.44570100  1
  O  O9  1  0.25000000  0.78055100  0.38560300  1
  O  O10  1  0.05963700  0.23748800  0.32857600  1
  O  O11  1  0.44036300  0.23748800  0.32857600  1
  O  O12  1  0.55053100  0.72187400  0.16940200  1
  O  O13  1  0.94946900  0.72187400  0.16940200  1
  O  O14  1  0.75000000  0.28710800  0.11488300  1
  O  O15  1  0.25000000  0.31498900  0.05084500  1
loop_
_geom_bond_atom_site_label_1
_geom_bond_atom_site_label_2
_geom_bond_distance
_geom_bond_site_symmetry_2
Cu0 O7 1.915391 1_565
Cu0 O1 1.930001 1_555
Cu0 O5 2.124142 1_555
Cu0 O4 2.124142 1_455
Cu0 O3 2.541770 1_565
Cu0 O2 2.541770 1_565
Cu1 O8 1.915391 1_545
Cu1 O14 1.930001 1_555
Cu1 O10 2.124142 1_655
Cu1 O11 2.124142 1_555
Cu1 O12 2.541770 1_545
Cu1 O13 2.541770 1_545
O0 P3 1.563497 1_556
O0 Sb0 2.078757 1_555
O1 P0 1.521735 1_555
O2 P0 1.581326 1_555
O2 Sb0 2.140470 1_455
O3 P0 1.581326 1_555
O3 Sb0 2.140470 1_555
O4 P1 1.598749 1_555
O4 Sb0 2.162259 1_555
O5 P1 1.598749 1_555
O5 Sb0 2.162259 1_555
O6 P1 1.550169 1_545
O6 Sb0 2.098752 1_555
O7 P2 1.506904 1_555
O8 P1 1.506904 1_555
O9 P2 1.550169 1_565
O9 Sb1 2.098752 1_555
O10 P2 1.598749 1_555
O10 Sb1 2.162259 1_555
O11 P2 1.598749 1_555
O11 Sb1 2.162259 1_555
O12 P3 1.581326 1_555
O12 Sb1 2.140470 1_555
O13 P3 1.581326 1_555
O13 Sb1 2.140470 1_655
O14 P3 1.521735 1_555
O15 P0 1.563497 1_554
O15 Sb1 2.078757 1_555
