# generated using pymatgen
data_Li3V3(BO5)2
_symmetry_space_group_name_H-M   'P 1'
_cell_length_a   3.11792900
_cell_length_b   9.11917700
_cell_length_c   12.27952956
_cell_angle_alpha   89.97111305
_cell_angle_beta   90.00000000
_cell_angle_gamma   90.00000000
_symmetry_Int_Tables_number   1
_chemical_formula_structural   Li3V3(BO5)2
_chemical_formula_sum   'Li6 V6 B4 O20'
_cell_volume   349.14316174
_cell_formula_units_Z   2
loop_
 _symmetry_equiv_pos_site_id
 _symmetry_equiv_pos_as_xyz
  1  'x, y, z'
loop_
 _atom_site_type_symbol
 _atom_site_label
 _atom_site_symmetry_multiplicity
 _atom_site_fract_x
 _atom_site_fract_y
 _atom_site_fract_z
 _atom_site_occupancy
  Li  Li0  1  0.00000000  0.01072000  0.49746500  1
  Li  Li1  1  0.00000000  0.74888400  0.11671400  1
  Li  Li2  1  0.50000000  0.47768400  0.49084400  1
  Li  Li3  1  0.00000000  0.50673000  0.00771000  1
  Li  Li4  1  0.00000000  0.27911300  0.38503800  1
  Li  Li5  1  0.00000000  0.24252400  0.88890200  1
  V  V0  1  0.50000000  0.99659600  0.00187700  1
  V  V1  1  0.50000000  0.00544800  0.29154700  1
  V  V2  1  0.00000000  0.73724600  0.60957800  1
  V  V3  1  0.50000000  0.49301100  0.79190100  1
  V  V4  1  0.50000000  0.50025700  0.21353900  1
  V  V5  1  0.50000000  0.00948600  0.71413300  1
  B  B0  1  0.00000000  0.77826600  0.85905400  1
  B  B1  1  0.00000000  0.71872400  0.35949900  1
  B  B2  1  0.00000000  0.28654600  0.63637200  1
  B  B3  1  0.00000000  0.21727600  0.14150500  1
  O  O0  1  0.50000000  0.92385500  0.13937300  1
  O  O1  1  0.50000000  0.88341800  0.58464800  1
  O  O2  1  0.00000000  0.87404700  0.34362900  1
  O  O3  1  0.00000000  0.85586900  0.76099900  1
  O  O4  1  0.00000000  0.85477600  0.95741200  1
  O  O5  1  0.00000000  0.65690900  0.45996900  1
  O  O6  1  0.00000000  0.63793800  0.26419700  1
  O  O7  1  0.00000000  0.62730200  0.85562800  1
  O  O8  1  0.50000000  0.60501500  0.08774100  1
  O  O9  1  0.50000000  0.61098300  0.66175100  1
  O  O10  1  0.50000000  0.40249900  0.33651500  1
  O  O11  1  0.50000000  0.39388300  0.91264900  1
  O  O12  1  0.00000000  0.36706500  0.14283900  1
  O  O13  1  0.00000000  0.36929700  0.73560500  1
  O  O14  1  0.00000000  0.34545500  0.53905100  1
  O  O15  1  0.00000000  0.13994300  0.04221700  1
  O  O16  1  0.00000000  0.13592100  0.23753900  1
  O  O17  1  0.00000000  0.13096600  0.65527300  1
  O  O18  1  0.50000000  0.09958400  0.41202000  1
  O  O19  1  0.50000000  0.07676800  0.86526600  1
loop_
_geom_bond_atom_site_label_1
_geom_bond_atom_site_label_2
_geom_bond_distance
_geom_bond_site_symmetry_2
Li0 O18 2.046235 1_455
Li0 O18 2.046235 1_555
Li0 O1 2.218759 1_545
Li0 O1 2.218759 1_445
Li0 O17 2.227028 1_555
Li0 O2 2.263669 1_545
Li1 O8 2.068496 1_555
Li1 O8 2.068496 1_455
Li1 O6 2.074021 1_555
Li1 O4 2.181080 1_554
Li1 O0 2.248143 1_455
Li1 O0 2.248143 1_555
Li2 O10 2.015626 1_555
Li2 O14 2.057685 1_555
Li2 O14 2.057685 1_655
Li2 O5 2.290131 1_555
Li2 O5 2.290131 1_655
Li2 O9 2.425812 1_555
Li3 O8 2.049477 1_455
Li3 O8 2.049477 1_555
Li3 O12 2.091255 1_555
Li3 O7 2.166658 1_554
Li3 O11 2.202991 1_454
Li3 O11 2.202991 1_554
Li4 O14 1.985906 1_555
Li4 O10 2.012647 1_455
Li4 O10 2.012647 1_555
Li4 O16 2.233381 1_555
Li4 O18 2.284706 1_455
Li4 O18 2.284706 1_555
Li5 O15 2.101813 1_556
Li5 O11 2.102606 1_555
Li5 O11 2.102606 1_455
Li5 O19 2.190858 1_455
Li5 O19 2.190858 1_555
Li5 O13 2.208570 1_555
B0 O7 1.377331 1_555
B0 O4 1.395136 1_555
B0 O3 1.396327 1_555
B1 O5 1.356147 1_555
B1 O6 1.383154 1_555
B1 O2 1.429664 1_555
B2 O14 1.309999 1_555
B2 O13 1.433599 1_555
B2 O17 1.437505 1_555
B3 O12 1.366059 1_555
B3 O16 1.392895 1_555
B3 O15 1.408782 1_555
O0 V0 1.813708 1_555
O0 V1 2.011663 1_565
O1 V5 1.962563 1_565
O1 V2 2.073759 1_655
O1 V2 2.073759 1_555
O2 V1 2.067477 1_465
O2 V1 2.067477 1_565
O3 V2 2.151624 1_555
O3 V5 2.173283 1_565
O3 V5 2.173283 1_465
O4 V0 2.098043 1_556
O4 V0 2.098043 1_456
O5 V2 1.978158 1_555
O6 V4 2.096303 1_555
O6 V4 2.096303 1_455
O7 V3 2.131526 1_455
O7 V3 2.131526 1_555
O8 V4 1.815859 1_555
O9 V3 1.926087 1_555
O9 V2 2.041036 1_555
O9 V2 2.041036 1_655
O10 V4 1.753206 1_555
O11 V3 1.736170 1_555
O12 V4 2.158795 1_455
O12 V4 2.158795 1_555
O13 V3 2.044946 1_555
O13 V3 2.044946 1_455
O15 V0 2.094085 1_545
O15 V0 2.094085 1_445
O16 V1 2.070033 1_555
O16 V1 2.070033 1_455
O17 V5 2.044304 1_555
O17 V5 2.044304 1_455
O18 V1 1.710756 1_555
O19 V0 1.829575 1_546
O19 V5 1.954930 1_555
