# generated using pymatgen
data_Li3V4O5F7
_symmetry_space_group_name_H-M   'P 1'
_cell_length_a   5.77351800
_cell_length_b   5.86359620
_cell_length_c   6.17363151
_cell_angle_alpha   100.26414255
_cell_angle_beta   98.18051142
_cell_angle_gamma   98.08076472
_symmetry_Int_Tables_number   1
_chemical_formula_structural   Li3V4O5F7
_chemical_formula_sum   'Li3 V4 O5 F7'
_cell_volume   200.58671195
_cell_formula_units_Z   1
loop_
 _symmetry_equiv_pos_site_id
 _symmetry_equiv_pos_as_xyz
  1  'x, y, z'
loop_
 _atom_site_type_symbol
 _atom_site_label
 _atom_site_symmetry_multiplicity
 _atom_site_fract_x
 _atom_site_fract_y
 _atom_site_fract_z
 _atom_site_occupancy
  Li  Li0  1  0.59263900  0.32495400  0.14114800  1
  Li  Li1  1  0.13376500  0.58976800  0.32095900  1
  Li  Li2  1  0.66390300  0.85152600  0.37664300  1
  V  V0  1  0.29944300  0.14540100  0.62714300  1
  V  V1  1  0.84908700  0.39474900  0.66263500  1
  V  V2  1  0.38125900  0.69163600  0.85902600  1
  V  V3  1  0.02183600  0.99325200  0.98611500  1
  O  O0  1  0.33499300  0.05773600  0.93621200  1
  O  O1  1  0.95037300  0.10117200  0.71077400  1
  O  O2  1  0.59118900  0.42415000  0.79795200  1
  O  O3  1  0.02749900  0.68340500  0.89092600  1
  O  O4  1  0.17517400  0.43631600  0.59914500  1
  F  F0  1  0.58889900  0.17965800  0.41960200  1
  F  F1  1  0.80962200  0.59767900  0.44292500  1
  F  F2  1  0.43633600  0.83068100  0.58627900  1
  F  F3  1  0.94404300  0.28676600  0.12850500  1
  F  F4  1  0.39151700  0.57935700  0.15436400  1
  F  F5  1  0.11409400  0.96021800  0.31472600  1
  F  F6  1  0.69432800  0.87157700  0.04492200  1
loop_
_geom_bond_atom_site_label_1
_geom_bond_atom_site_label_2
_geom_bond_distance
_geom_bond_site_symmetry_2
Li0 O0 2.090737 1_554
Li0 O2 2.294135 1_554
Li1 O4 2.076203 1_555
Li2 O1 2.530961 1_565
O0 V3 1.874739 1_545
O0 V0 2.053013 1_555
O0 V2 2.177033 1_545
O1 V3 1.928035 1_645
O1 V1 1.951776 1_555
O1 V0 2.142992 1_655
O2 V1 1.821949 1_555
O2 V2 2.127184 1_555
O2 V0 2.174162 1_555
O3 V3 1.813538 1_555
O3 V1 2.039302 1_455
O3 V2 2.074324 1_555
O4 V0 1.966794 1_555
O4 V1 1.967875 1_455
O4 V2 2.081125 1_555
F0 Li2 2.011178 1_545
F0 Li0 2.051544 1_555
F0 V1 2.061554 1_555
F0 V0 2.254237 1_555
F1 Li2 1.887298 1_555
F1 V1 1.967504 1_555
F1 Li1 2.117642 1_655
F1 Li0 2.304018 1_555
F2 Li2 1.977702 1_555
F2 V2 2.042030 1_555
F2 V0 2.096342 1_565
F2 Li1 2.323248 1_555
F3 V3 1.930544 1_644
F3 Li1 2.024429 1_655
F3 Li0 2.083019 1_555
F4 Li1 1.927385 1_555
F4 Li0 2.012655 1_555
F4 V2 2.041914 1_554
F4 Li2 2.191563 1_555
F5 V3 2.073277 1_554
F5 V0 2.093765 1_565
F5 Li1 2.197862 1_555
F6 V3 2.030918 1_654
F6 V2 2.034554 1_554
F6 Li2 2.102628 1_555
