# generated using pymatgen
data_P2H10N2O7
_symmetry_space_group_name_H-M   'P 1'
_cell_length_a   11.45753700
_cell_length_b   8.32676000
_cell_length_c   9.31244533
_cell_angle_alpha   74.11632697
_cell_angle_beta   90.00000000
_cell_angle_gamma   90.00000000
_symmetry_Int_Tables_number   1
_chemical_formula_structural   P2H10N2O7
_chemical_formula_sum   'P8 H40 N8 O28'
_cell_volume   854.52457374
_cell_formula_units_Z   4
loop_
 _symmetry_equiv_pos_site_id
 _symmetry_equiv_pos_as_xyz
  1  'x, y, z'
loop_
 _atom_site_type_symbol
 _atom_site_label
 _atom_site_symmetry_multiplicity
 _atom_site_fract_x
 _atom_site_fract_y
 _atom_site_fract_z
 _atom_site_occupancy
  P  P0  1  0.48116500  0.25175200  0.18367400  1
  P  P1  1  0.98116500  0.74824800  0.31632600  1
  P  P2  1  0.51883500  0.74824800  0.81632600  1
  P  P3  1  0.01883500  0.25175200  0.68367400  1
  P  P4  1  0.50627600  0.86505500  0.30667700  1
  P  P5  1  0.00627600  0.13494500  0.19332300  1
  P  P6  1  0.49372400  0.13494500  0.69332300  1
  P  P7  1  0.99372400  0.86505500  0.80667700  1
  H  H0  1  0.81995900  0.98765400  0.55039900  1
  H  H1  1  0.31995900  0.01234600  0.94960100  1
  H  H2  1  0.18004100  0.01234600  0.44960100  1
  H  H3  1  0.68004100  0.98765400  0.05039900  1
  H  H4  1  0.78814800  0.12844700  0.03860400  1
  H  H5  1  0.28814800  0.87155300  0.46139600  1
  H  H6  1  0.21185200  0.87155300  0.96139600  1
  H  H7  1  0.71185200  0.12844700  0.53860400  1
  H  H8  1  0.19548500  0.03028600  0.03914800  1
  H  H9  1  0.69548500  0.96971400  0.46085200  1
  H  H10  1  0.80451500  0.96971400  0.96085200  1
  H  H11  1  0.30451500  0.03028600  0.53914800  1
  H  H12  1  0.70700000  0.12043700  0.88043900  1
  H  H13  1  0.20700000  0.87956300  0.61956100  1
  H  H14  1  0.29300000  0.87956300  0.11956100  1
  H  H15  1  0.79300000  0.12043700  0.38043900  1
  H  H16  1  0.37405300  0.52339600  0.73128500  1
  H  H17  1  0.87405300  0.47660400  0.76871500  1
  H  H18  1  0.62594700  0.47660400  0.26871500  1
  H  H19  1  0.12594700  0.52339600  0.23128500  1
  H  H20  1  0.24499000  0.39876000  0.98060000  1
  H  H21  1  0.74499000  0.60124000  0.51940000  1
  H  H22  1  0.75501000  0.60124000  0.01940000  1
  H  H23  1  0.25501000  0.39876000  0.48060000  1
  H  H24  1  0.70189700  0.42250600  0.63180100  1
  H  H25  1  0.20189700  0.57749400  0.86819900  1
  H  H26  1  0.29810300  0.57749400  0.36819900  1
  H  H27  1  0.79810300  0.42250600  0.13180100  1
  H  H28  1  0.70425900  0.68026600  0.77907300  1
  H  H29  1  0.20425900  0.31973400  0.72092700  1
  H  H30  1  0.29574100  0.31973400  0.22092700  1
  H  H31  1  0.79574100  0.68026600  0.27907300  1
  H  H32  1  0.11056200  0.27097300  0.32163600  1
  H  H33  1  0.61056200  0.72902700  0.17836400  1
  H  H34  1  0.88943800  0.72902700  0.67836400  1
  H  H35  1  0.38943800  0.27097300  0.82163600  1
  H  H36  1  0.52135300  0.69855900  0.58762700  1
  H  H37  1  0.02135300  0.30144100  0.91237300  1
  H  H38  1  0.47864700  0.30144100  0.41237300  1
  H  H39  1  0.97864700  0.69855900  0.08762700  1
  N  N0  1  0.75499800  0.05451000  0.48116500  1
  N  N1  1  0.25499800  0.94549000  0.01883500  1
  N  N2  1  0.24500200  0.94549000  0.51883500  1
  N  N3  1  0.74500200  0.05451000  0.98116500  1
  N  N4  1  0.77460100  0.49517700  0.59540900  1
  N  N5  1  0.27460100  0.50482300  0.90459100  1
  N  N6  1  0.22539900  0.50482300  0.40459100  1
  N  N7  1  0.72539900  0.49517700  0.09540900  1
  O  O0  1  0.52594700  0.06032100  0.28726800  1
  O  O1  1  0.02594700  0.93967900  0.21273200  1
  O  O2  1  0.47405300  0.93967900  0.71273200  1
  O  O3  1  0.97405300  0.06032100  0.78726800  1
  O  O4  1  0.69140200  0.55576400  0.22335300  1
  O  O5  1  0.19140200  0.44423600  0.27664700  1
  O  O6  1  0.30859800  0.44423600  0.77664700  1
  O  O7  1  0.80859800  0.55576400  0.72335300  1
  O  O8  1  0.51385700  0.35345500  0.30473500  1
  O  O9  1  0.01385700  0.64654500  0.19526500  1
  O  O10  1  0.48614300  0.64654500  0.69526500  1
  O  O11  1  0.98614300  0.35345500  0.80473500  1
  O  O12  1  0.34063200  0.22024100  0.21218700  1
  O  O13  1  0.84063200  0.77975900  0.28781300  1
  O  O14  1  0.65936800  0.77975900  0.78781300  1
  O  O15  1  0.15936800  0.22024100  0.71218700  1
  O  O16  1  0.56983000  0.84070000  0.15980800  1
  O  O17  1  0.06983000  0.15930000  0.34019200  1
  O  O18  1  0.43017000  0.15930000  0.84019200  1
  O  O19  1  0.93017000  0.84070000  0.65980800  1
  O  O20  1  0.57708300  0.77529100  0.44340500  1
  O  O21  1  0.07708300  0.22470900  0.05659500  1
  O  O22  1  0.42291700  0.22470900  0.55659500  1
  O  O23  1  0.92291700  0.77529100  0.94340500  1
  O  O24  1  0.37803900  0.82150200  0.30639100  1
  O  O25  1  0.87803900  0.17849800  0.19360900  1
  O  O26  1  0.62196100  0.17849800  0.69360900  1
  O  O27  1  0.12196100  0.82150200  0.80639100  1
loop_
_geom_bond_atom_site_label_1
_geom_bond_atom_site_label_2
_geom_bond_distance
_geom_bond_site_symmetry_2
H0 N0 1.040723 1_565
H1 N1 1.040723 1_546
H2 N2 1.040723 1_545
H3 N3 1.040723 1_564
H4 N3 1.043926 1_554
H5 N2 1.043926 1_555
H6 N1 1.043926 1_556
H7 N0 1.043926 1_555
H8 N1 1.035560 1_545
H9 N0 1.035560 1_565
H10 N3 1.035560 1_565
H11 N2 1.035560 1_545
H12 N3 1.043521 1_555
H13 N2 1.043521 1_555
H14 N1 1.043521 1_555
H15 N0 1.043521 1_555
H16 O6 1.011405 1_555
H16 O10 1.620220 1_555
H17 O7 1.011405 1_555
H17 O11 1.620220 1_555
H18 O4 1.011405 1_555
H18 O8 1.620220 1_555
H19 O5 1.011405 1_555
H19 O9 1.620220 1_555
H20 N5 1.026608 1_555
H21 N4 1.026608 1_555
H22 N7 1.026608 1_555
H23 N6 1.026608 1_555
H24 N4 1.030858 1_555
H25 N5 1.030858 1_555
H26 N6 1.030858 1_555
H27 N7 1.030858 1_555
H28 O14 0.997204 1_555
H29 O15 0.997204 1_555
H30 O12 0.997204 1_555
H31 O13 0.997204 1_555
H32 O17 1.012112 1_555
H32 O5 1.668535 1_555
H33 O16 1.012112 1_555
H33 O4 1.668535 1_555
H34 O19 1.012112 1_555
H34 O7 1.668535 1_555
H35 O18 1.012112 1_555
H35 O6 1.668535 1_555
H36 O10 1.057094 1_555
H36 O20 1.466304 1_555
H37 O11 1.057094 1_455
H37 O21 1.466304 1_556
H38 O8 1.057094 1_555
H38 O22 1.466304 1_555
H39 O9 1.057094 1_655
H39 O23 1.466304 1_554
N4 O7 1.467945 1_555
N5 O6 1.467945 1_555
N6 O5 1.467945 1_555
N7 O4 1.467945 1_555
O0 P4 1.601956 1_545
O0 P0 1.700897 1_555
O1 P5 1.601956 1_565
O1 P1 1.700897 1_455
O2 P6 1.601956 1_565
O2 P2 1.700897 1_555
O3 P7 1.601956 1_545
O3 P3 1.700897 1_655
O8 P0 1.628198 1_555
O9 P1 1.628198 1_455
O10 P2 1.628198 1_555
O11 P3 1.628198 1_655
O12 P0 1.641291 1_555
O13 P1 1.641291 1_555
O14 P2 1.641291 1_555
O15 P3 1.641291 1_555
O16 P4 1.610533 1_555
O17 P5 1.610533 1_555
O18 P6 1.610533 1_555
O19 P7 1.610533 1_555
O20 P4 1.522211 1_555
O21 P5 1.522211 1_555
O22 P6 1.522211 1_555
O23 P7 1.522211 1_555
O24 P4 1.513552 1_555
O25 P5 1.513552 1_655
O26 P6 1.513552 1_555
O27 P7 1.513552 1_455
