# generated using pymatgen
data_Li2FePCO7
_symmetry_space_group_name_H-M   'P 1'
_cell_length_a   6.48879700
_cell_length_b   8.32042100
_cell_length_c   10.16795008
_cell_angle_alpha   85.26873105
_cell_angle_beta   90.00000000
_cell_angle_gamma   90.00000000
_symmetry_Int_Tables_number   1
_chemical_formula_structural   Li2FePCO7
_chemical_formula_sum   'Li8 Fe4 P4 C4 O28'
_cell_volume   547.09219360
_cell_formula_units_Z   4
loop_
 _symmetry_equiv_pos_site_id
 _symmetry_equiv_pos_as_xyz
  1  'x, y, z'
loop_
 _atom_site_type_symbol
 _atom_site_label
 _atom_site_symmetry_multiplicity
 _atom_site_fract_x
 _atom_site_fract_y
 _atom_site_fract_z
 _atom_site_occupancy
  Li  Li0  1  0.75375300  0.90346600  0.61849500  1
  Li  Li1  1  0.74624700  0.90346600  0.11849500  1
  Li  Li2  1  0.96567500  0.72531700  0.87439000  1
  Li  Li3  1  0.53432500  0.72531700  0.37439000  1
  Li  Li4  1  0.46567500  0.27468300  0.62561000  1
  Li  Li5  1  0.03432500  0.27468300  0.12561000  1
  Li  Li6  1  0.25375300  0.09653400  0.88150500  1
  Li  Li7  1  0.24624700  0.09653400  0.38150500  1
  Fe  Fe0  1  0.24218200  0.67013500  0.60012700  1
  Fe  Fe1  1  0.25781800  0.67013500  0.10012700  1
  Fe  Fe2  1  0.74218200  0.32986500  0.89987300  1
  Fe  Fe3  1  0.75781800  0.32986500  0.39987300  1
  P  P0  1  0.74511800  0.57964400  0.63927500  1
  P  P1  1  0.75488200  0.57964400  0.13927500  1
  P  P2  1  0.24511800  0.42035600  0.86072500  1
  P  P3  1  0.25488200  0.42035600  0.36072500  1
  C  C0  1  0.25544700  0.96009200  0.64899300  1
  C  C1  1  0.24455300  0.96009200  0.14899300  1
  C  C2  1  0.75544700  0.03990800  0.85100700  1
  C  C3  1  0.74455300  0.03990800  0.35100700  1
  O  O0  1  0.25978800  0.92308700  0.52584800  1
  O  O1  1  0.78000300  0.89781300  0.81624100  1
  O  O2  1  0.24021200  0.92308700  0.02584800  1
  O  O3  1  0.22624800  0.83770000  0.73673800  1
  O  O4  1  0.71999700  0.89781300  0.31624100  1
  O  O5  1  0.27375200  0.83770000  0.23673800  1
  O  O6  1  0.93650900  0.68188400  0.59643900  1
  O  O7  1  0.56295900  0.69562900  0.59823000  1
  O  O8  1  0.93704100  0.69562900  0.09823000  1
  O  O9  1  0.56349100  0.68188400  0.09643900  1
  O  O10  1  0.22250700  0.57991800  0.92708300  1
  O  O11  1  0.75763200  0.53883300  0.79146100  1
  O  O12  1  0.27749300  0.57991800  0.42708300  1
  O  O13  1  0.74236800  0.53883300  0.29146100  1
  O  O14  1  0.25763200  0.46116700  0.70853900  1
  O  O15  1  0.72250700  0.42008200  0.57291700  1
  O  O16  1  0.24236800  0.46116700  0.20853900  1
  O  O17  1  0.77749300  0.42008200  0.07291700  1
  O  O18  1  0.43650900  0.31811600  0.90356100  1
  O  O19  1  0.06295900  0.30437100  0.90177000  1
  O  O20  1  0.43704100  0.30437100  0.40177000  1
  O  O21  1  0.06349100  0.31811600  0.40356100  1
  O  O22  1  0.72624800  0.16230000  0.76326200  1
  O  O23  1  0.28000300  0.10218700  0.68375900  1
  O  O24  1  0.77375200  0.16230000  0.26326200  1
  O  O25  1  0.75978800  0.07691300  0.97415200  1
  O  O26  1  0.21999700  0.10218700  0.18375900  1
  O  O27  1  0.74021200  0.07691300  0.47415200  1
loop_
_geom_bond_atom_site_label_1
_geom_bond_atom_site_label_2
_geom_bond_distance
_geom_bond_site_symmetry_2
Li0 O27 1.973591 1_565
Li0 O1 2.014553 1_555
Li0 O7 2.150440 1_555
Li0 O6 2.218974 1_555
Li1 O25 1.973591 1_564
Li1 O4 2.014553 1_555
Li1 O8 2.150440 1_555
Li1 O9 2.218974 1_555
Li2 O1 1.928995 1_555
Li2 O10 2.102624 1_655
Li2 O11 2.270848 1_555
Li2 O8 2.276608 1_556
Li2 O3 2.340144 1_655
Li3 O4 1.928995 1_555
Li3 O12 2.102624 1_555
Li3 O13 2.270848 1_555
Li3 O7 2.276608 1_555
Li3 O5 2.340144 1_555
Li4 O23 1.928995 1_555
Li4 O15 2.102624 1_555
Li4 O14 2.270848 1_555
Li4 O20 2.276608 1_555
Li4 O22 2.340144 1_555
Li5 O26 1.928995 1_555
Li5 O17 2.102624 1_455
Li5 O16 2.270848 1_555
Li5 O19 2.276608 1_554
Li5 O24 2.340144 1_455
Li6 O2 1.973591 1_546
Li6 O23 2.014553 1_555
Li6 O19 2.150440 1_555
Li6 O18 2.218974 1_555
Li7 O0 1.973591 1_545
Li7 O26 2.014553 1_555
Li7 O20 2.150440 1_555
Li7 O21 2.218974 1_555
Fe0 O12 1.982345 1_555
Fe0 O14 1.982949 1_555
Fe0 O6 1.986059 1_455
Fe0 O3 2.050235 1_555
Fe0 O7 2.092165 1_555
Fe0 O0 2.179650 1_555
Fe1 O10 1.982345 1_554
Fe1 O16 1.982949 1_555
Fe1 O9 1.986059 1_555
Fe1 O5 2.050235 1_555
Fe1 O8 2.092165 1_455
Fe1 O2 2.179650 1_555
Fe2 O17 1.982345 1_556
Fe2 O11 1.982949 1_555
Fe2 O18 1.986059 1_555
Fe2 O22 2.050235 1_555
Fe2 O19 2.092165 1_655
Fe2 O25 2.179650 1_555
Fe3 O15 1.982345 1_555
Fe3 O13 1.982949 1_555
Fe3 O21 1.986059 1_655
Fe3 O24 2.050235 1_555
Fe3 O20 2.092165 1_555
Fe3 O27 2.179650 1_555
C0 O23 1.271655 1_565
C0 O3 1.311128 1_555
C0 O0 1.314164 1_555
C1 O26 1.271655 1_565
C1 O5 1.311128 1_555
C1 O2 1.314164 1_555
C2 O1 1.271655 1_545
C2 O22 1.311128 1_555
C2 O25 1.314164 1_555
C3 O4 1.271655 1_545
C3 O24 1.311128 1_555
C3 O27 1.314164 1_555
O6 P0 1.547434 1_555
O7 P0 1.560818 1_555
O8 P1 1.560818 1_555
O9 P1 1.547434 1_555
O10 P2 1.545036 1_555
O11 P0 1.558757 1_555
O12 P3 1.545036 1_555
O13 P1 1.558757 1_555
O14 P2 1.558757 1_555
O15 P0 1.545036 1_555
O16 P3 1.558757 1_555
O17 P1 1.545036 1_555
O18 P2 1.547434 1_555
O19 P2 1.560818 1_555
O20 P3 1.560818 1_555
O21 P3 1.547434 1_555
