# generated using pymatgen
data_Li10Ti11Nb6O42
_symmetry_space_group_name_H-M   'P 1'
_cell_length_a   5.17763797
_cell_length_b   5.17763797
_cell_length_c   33.00673600
_cell_angle_alpha   90.00000000
_cell_angle_beta   90.00000000
_cell_angle_gamma   119.99999956
_symmetry_Int_Tables_number   1
_chemical_formula_structural   Li10Ti11Nb6O42
_chemical_formula_sum   'Li10 Ti11 Nb6 O42'
_cell_volume   766.29602618
_cell_formula_units_Z   1
loop_
 _symmetry_equiv_pos_site_id
 _symmetry_equiv_pos_as_xyz
  1  'x, y, z'
loop_
 _atom_site_type_symbol
 _atom_site_label
 _atom_site_symmetry_multiplicity
 _atom_site_fract_x
 _atom_site_fract_y
 _atom_site_fract_z
 _atom_site_occupancy
  Li  Li0  1  0.66666700  0.33333300  0.19301200  1
  Li  Li1  1  0.33333300  0.66666700  0.05548600  1
  Li  Li2  1  0.33333300  0.66666700  0.55440900  1
  Li  Li3  1  0.33333300  0.66666700  0.74021900  1
  Li  Li4  1  0.33333300  0.66666700  0.94685800  1
  Li  Li5  1  0.66666700  0.33333300  0.87425700  1
  Li  Li6  1  0.66666700  0.33333300  0.69391800  1
  Li  Li7  1  0.00000000  0.00000000  0.80459100  1
  Li  Li8  1  0.00000000  0.00000000  0.62766600  1
  Li  Li9  1  0.00000000  0.00000000  0.12702400  1
  Ti  Ti0  1  0.66666700  0.33333300  0.99012500  1
  Ti  Ti1  1  0.66666700  0.33333300  0.08167400  1
  Ti  Ti2  1  0.66666700  0.33333300  0.49065500  1
  Ti  Ti3  1  0.66666700  0.33333300  0.58186900  1
  Ti  Ti4  1  0.66666700  0.33333300  0.27837100  1
  Ti  Ti5  1  0.66666700  0.33333300  0.36922200  1
  Ti  Ti6  1  0.00000000  0.00000000  0.71523300  1
  Ti  Ti7  1  0.00000000  0.00000000  0.51101200  1
  Ti  Ti8  1  0.00000000  0.00000000  0.42555700  1
  Ti  Ti9  1  0.00000000  0.00000000  0.01047500  1
  Ti  Ti10  1  0.00000000  0.00000000  0.92044900  1
  Nb  Nb0  1  0.33333300  0.66666700  0.64652900  1
  Nb  Nb1  1  0.33333300  0.66666700  0.14708100  1
  Nb  Nb2  1  0.33333300  0.66666700  0.85567300  1
  Nb  Nb3  1  0.33333300  0.66666700  0.35157500  1
  Nb  Nb4  1  0.66666700  0.33333300  0.78404300  1
  Nb  Nb5  1  0.00000000  0.00000000  0.21842400  1
  O  O0  1  0.37212500  0.37716500  0.10729200  1
  O  O1  1  0.34414700  0.28906500  0.24930400  1
  O  O2  1  0.37477200  0.36843200  0.82150700  1
  O  O3  1  0.35581800  0.29848000  0.53410600  1
  O  O4  1  0.62620300  0.63035400  0.60713800  1
  O  O5  1  0.32988700  0.04464400  0.74911800  1
  O  O6  1  0.61524800  0.59063600  0.32550900  1
  O  O7  1  0.35538500  0.05661600  0.03386100  1
  O  O8  1  0.36964600  0.99584900  0.60713800  1
  O  O9  1  0.40936400  0.02461100  0.32550900  1
  O  O10  1  0.70123100  0.64461500  0.03386100  1
  O  O11  1  0.94266200  0.64418200  0.53410600  1
  O  O12  1  0.63156800  0.00634000  0.82150700  1
  O  O13  1  0.62283500  0.99496000  0.10729200  1
  O  O14  1  0.67177200  0.99816900  0.39187600  1
  O  O15  1  0.70152000  0.05733800  0.53410600  1
  O  O16  1  0.99366000  0.62522800  0.82150700  1
  O  O17  1  0.71093500  0.05508200  0.24930400  1
  O  O18  1  0.67247300  0.95811200  0.67906700  1
  O  O19  1  0.00504000  0.62787500  0.10729200  1
  O  O20  1  0.72461300  0.03630300  0.96483300  1
  O  O21  1  0.94338400  0.29876900  0.03386100  1
  O  O22  1  0.66286700  0.70486100  0.89257300  1
  O  O23  1  0.97538900  0.38475200  0.32550900  1
  O  O24  1  0.95535600  0.28524400  0.74911800  1
  O  O25  1  0.67759800  0.71032600  0.17797500  1
  O  O26  1  0.93796200  0.24902200  0.46406800  1
  O  O27  1  0.00415100  0.37379700  0.60713800  1
  O  O28  1  0.04199400  0.33713300  0.89257300  1
  O  O29  1  0.71475600  0.67011300  0.74911800  1
  O  O30  1  0.03272800  0.32240200  0.17797500  1
  O  O31  1  0.75097800  0.68894100  0.46406800  1
  O  O32  1  0.96369700  0.68831000  0.96483300  1
  O  O33  1  0.28563900  0.32752700  0.67906700  1
  O  O34  1  0.94491800  0.65585300  0.24930400  1
  O  O35  1  0.32639700  0.32822800  0.39187600  1
  O  O36  1  0.31169000  0.27538700  0.96483300  1
  O  O37  1  0.04188800  0.71436100  0.67906700  1
  O  O38  1  0.00183100  0.67360300  0.39187600  1
  O  O39  1  0.31105900  0.06203800  0.46406800  1
  O  O40  1  0.28967400  0.96727200  0.17797500  1
  O  O41  1  0.29513900  0.95800600  0.89257300  1
loop_
_geom_bond_atom_site_label_1
_geom_bond_atom_site_label_2
_geom_bond_distance
_geom_bond_site_symmetry_2
Li0 O30 1.987232 1_655
Li0 O40 1.987234 1_545
Li0 O25 1.987237 1_555
Li0 O17 2.431159 1_555
Li0 O34 2.431161 1_555
Li0 O1 2.431162 1_555
Li1 O7 2.090072 1_565
Li1 O21 2.090074 1_455
Li1 O10 2.090077 1_555
Li1 O19 2.347790 1_555
Li1 O13 2.347791 1_555
Li1 O0 2.347793 1_555
Li2 O11 2.078143 1_455
Li2 O15 2.078145 1_565
Li2 O3 2.078148 1_555
Li2 O8 2.376734 1_555
Li2 O27 2.376735 1_555
Li2 O4 2.376737 1_555
Li3 O5 1.987831 1_565
Li3 O29 1.987831 1_555
Li3 O24 1.987831 1_455
Li3 O37 2.604753 1_555
Li3 O18 2.604755 1_555
Li3 O33 2.604756 1_555
Li4 O32 2.059566 1_455
Li4 O20 2.059568 1_565
Li4 O36 2.059571 1_555
Li4 O41 2.413145 1_555
Li4 O28 2.413147 1_555
Li4 O22 2.413148 1_555
Li5 O28 2.025852 1_655
Li5 O41 2.025855 1_545
Li5 O22 2.025857 1_555
Li5 O12 2.371333 1_555
Li5 O16 2.371334 1_555
Li5 O2 2.371336 1_555
Li6 O18 2.018389 1_545
Li6 O37 2.018392 1_655
Li6 O33 2.018394 1_555
Li6 O24 2.447030 1_555
Li6 O5 2.447034 1_555
Li6 O29 2.447036 1_555
Li7 O12 2.003599 1_455
Li7 O16 2.003599 1_445
Li7 O2 2.003599 1_555
Li7 O5 2.434851 1_555
Li7 O29 2.434852 1_445
Li7 O24 2.434855 1_455
Li8 O8 2.040508 1_545
Li8 O27 2.040508 1_555
Li8 O4 2.040508 1_445
Li8 O37 2.330970 1_545
Li8 O18 2.330970 1_445
Li8 O33 2.330970 1_555
Li9 O19 2.046319 1_545
Li9 O13 2.046319 1_445
Li9 O0 2.046319 1_555
Li9 O40 2.315286 1_545
Li9 O30 2.315286 1_555
Li9 O25 2.315286 1_445
Nb0 O37 1.965733 1_555
Nb0 O18 1.965735 1_555
Nb0 O33 1.965737 1_555
Nb0 O8 2.076118 1_555
Nb0 O27 2.076120 1_555
Nb0 O4 2.076122 1_555
Nb1 O40 1.966009 1_555
Nb1 O30 1.966012 1_555
Nb1 O25 1.966014 1_555
Nb1 O19 2.076769 1_555
Nb1 O13 2.076770 1_555
Nb1 O0 2.076773 1_555
Nb2 O16 2.008347 1_455
Nb2 O12 2.008349 1_565
Nb2 O2 2.008351 1_555
Nb2 O41 2.023913 1_555
Nb2 O28 2.023915 1_555
Nb2 O22 2.023917 1_555
Nb3 O9 1.897456 1_565
Nb3 O23 1.897459 1_455
Nb3 O6 1.897465 1_555
Nb3 O38 2.185954 1_555
Nb3 O14 2.185956 1_555
Nb3 O35 2.185958 1_555
Nb4 O24 1.999307 1_555
Nb4 O5 1.999312 1_555
Nb4 O29 1.999315 1_555
Nb4 O12 2.029991 1_555
Nb4 O16 2.029992 1_555
Nb4 O2 2.029995 1_555
Nb5 O17 1.946042 1_455
Nb5 O34 1.946042 1_445
Nb5 O1 1.946042 1_555
Nb5 O40 2.077212 1_545
Nb5 O30 2.077212 1_555
Nb5 O25 2.077212 1_445
O0 Ti1 1.854268 1_555
O1 Ti4 1.838148 1_555
O3 Ti7 1.875179 1_555
O3 Ti2 2.095080 1_555
O3 Ti3 2.194961 1_555
O4 Ti3 1.851151 1_555
O5 Ti6 1.956245 1_555
O6 Ti5 2.069326 1_555
O6 Ti4 2.149676 1_555
O7 Ti9 1.878341 1_555
O7 Ti0 2.103596 1_554
O7 Ti1 2.198123 1_555
O8 Ti3 1.851148 1_565
O9 Ti5 2.069326 1_555
O9 Ti4 2.149676 1_555
O10 Ti9 1.878341 1_665
O10 Ti0 2.103597 1_554
O10 Ti1 2.198125 1_555
O11 Ti7 1.875179 1_665
O11 Ti2 2.095078 1_555
O11 Ti3 2.194960 1_555
O13 Ti1 1.854263 1_565
O14 Ti5 1.901878 1_565
O14 Ti8 2.026813 1_665
O15 Ti7 1.875179 1_655
O15 Ti2 2.095076 1_555
O15 Ti3 2.194958 1_555
O17 Ti4 1.838144 1_555
O18 Ti6 1.994997 1_665
O19 Ti1 1.854265 1_455
O20 Ti0 1.900922 1_555
O20 Ti10 2.117201 1_655
O20 Ti9 2.146141 1_656
O21 Ti9 1.878341 1_655
O21 Ti0 2.103593 1_554
O21 Ti1 2.198121 1_555
O22 Ti10 1.887133 1_665
O23 Ti5 2.069326 1_555
O23 Ti4 2.149676 1_555
O24 Ti6 1.956249 1_655
O26 Ti2 1.883329 1_555
O26 Ti8 1.948202 1_655
O26 Ti7 2.140232 1_655
O27 Ti3 1.851146 1_455
O28 Ti10 1.887133 1_555
O29 Ti6 1.956247 1_665
O31 Ti2 1.883337 1_555
O31 Ti8 1.948200 1_665
O31 Ti7 2.140229 1_665
O32 Ti0 1.900925 1_555
O32 Ti10 2.117201 1_665
O32 Ti9 2.146141 1_666
O33 Ti6 1.994997 1_555
O34 Ti4 1.838147 1_555
O35 Ti5 1.901883 1_555
O35 Ti8 2.026813 1_555
O36 Ti0 1.900927 1_555
O36 Ti10 2.117201 1_555
O36 Ti9 2.146141 1_556
O37 Ti6 1.994997 1_565
O38 Ti5 1.901881 1_455
O38 Ti8 2.026813 1_565
O39 Ti2 1.883335 1_555
O39 Ti8 1.948198 1_555
O39 Ti7 2.140228 1_555
O41 Ti10 1.887133 1_565
