# generated using pymatgen
data_Li3LaNiO4
_symmetry_space_group_name_H-M   'P 1'
_cell_length_a   10.28679858
_cell_length_b   10.28679858
_cell_length_c   10.28679858
_cell_angle_alpha   112.98396339
_cell_angle_beta   112.98396339
_cell_angle_gamma   102.65342056
_symmetry_Int_Tables_number   1
_chemical_formula_structural   Li3LaNiO4
_chemical_formula_sum   'Li24 La8 Ni8 O32'
_cell_volume   829.19959968
_cell_formula_units_Z   8
loop_
 _symmetry_equiv_pos_site_id
 _symmetry_equiv_pos_as_xyz
  1  'x, y, z'
loop_
 _atom_site_type_symbol
 _atom_site_label
 _atom_site_symmetry_multiplicity
 _atom_site_fract_x
 _atom_site_fract_y
 _atom_site_fract_z
 _atom_site_occupancy
  Li  Li0  1  0.92107600  0.10114300  0.14293900  1
  Li  Li1  1  0.82892400  0.14885700  0.35706100  1
  Li  Li2  1  0.89885700  0.04179700  0.81993300  1
  Li  Li3  1  0.52813600  0.17107600  0.31993300  1
  Li  Li4  1  0.46701300  0.31860400  0.15793400  1
  Li  Li5  1  0.72625100  0.57962100  0.17446100  1
  Li  Li6  1  0.22186400  0.07892400  0.18006700  1
  Li  Li7  1  0.85114300  0.20820300  0.68006700  1
  Li  Li8  1  0.68139600  0.83933000  0.14840900  1
  Li  Li9  1  0.42037900  0.59484000  0.14663000  1
  Li  Li10  1  0.79179700  0.47186400  0.64293900  1
  Li  Li11  1  0.95820300  0.77813600  0.85706100  1
  Li  Li12  1  0.44821000  0.27374900  0.85337000  1
  Li  Li13  1  0.32962100  0.65516000  0.35337000  1
  Li  Li14  1  0.06860400  0.41067000  0.35159100  1
  Li  Li15  1  0.69092100  0.53298700  0.85159100  1
  Li  Li16  1  0.02374900  0.67037900  0.32553900  1
  Li  Li17  1  0.40516000  0.55179000  0.82553900  1
  Li  Li18  1  0.58933000  0.94092100  0.65793400  1
  Li  Li19  1  0.28298700  0.93139600  0.34206600  1
  Li  Li20  1  0.16067000  0.30907900  0.84206600  1
  Li  Li21  1  0.34484000  0.69821000  0.67446100  1
  Li  Li22  1  0.05907900  0.71701300  0.64840900  1
  Li  Li23  1  0.30179000  0.97625100  0.64663000  1
  La  La0  1  0.56072000  0.03424200  0.99788200  1
  La  La1  1  0.43716100  0.43928000  0.47352200  1
  La  La2  1  0.78424200  0.28636100  0.97352200  1
  La  La3  1  0.71363900  0.68716100  0.49788200  1
  La  La4  1  0.18928000  0.21575800  0.50211800  1
  La  La5  1  0.96575800  0.96363900  0.52647800  1
  La  La6  1  0.31283900  0.81072000  0.02647800  1
  La  La7  1  0.03636100  0.56283900  0.00211800  1
  Ni  Ni0  1  0.77300000  0.40739400  0.31074800  1
  Ni  Ni1  1  0.53774800  0.22700000  0.63439400  1
  Ni  Ni2  1  0.15739400  0.34664600  0.13439400  1
  Ni  Ni3  1  0.59260600  0.90335400  0.36560600  1
  Ni  Ni4  1  0.65335400  0.78774800  0.81074800  1
  Ni  Ni5  1  0.97700000  0.84260600  0.18925200  1
  Ni  Ni6  1  0.09664600  0.46225200  0.68925200  1
  Ni  Ni7  1  0.21225200  0.02300000  0.86560600  1
  O  O0  1  0.84183200  0.25323700  0.22937600  1
  O  O1  1  0.36245600  0.09183200  0.08859600  1
  O  O2  1  0.61421300  0.34381400  0.07794800  1
  O  O3  1  0.85693900  0.61260300  0.08217900  1
  O  O4  1  0.89306100  0.63739700  0.41782100  1
  O  O5  1  0.64037900  0.40240700  0.40899100  1
  O  O6  1  0.38754400  0.15816800  0.41140400  1
  O  O7  1  0.38739700  0.46957600  0.24433600  1
  O  O8  1  0.52476000  0.10693900  0.74433600  1
  O  O9  1  0.90816800  0.99676300  0.27062400  1
  O  O10  1  0.15240700  0.24341600  0.26202800  1
  O  O11  1  0.76861200  0.35962100  0.76202800  1
  O  O12  1  0.65618600  0.73413400  0.27039900  1
  O  O13  1  0.09381400  0.51586600  0.22960100  1
  O  O14  1  0.46373500  0.38578700  0.72960100  1
  O  O15  1  0.59759300  0.00658400  0.23797200  1
  O  O16  1  0.72613900  0.63754400  0.72937600  1
  O  O17  1  0.22524000  0.14306100  0.75566400  1
  O  O18  1  0.36260300  0.78042400  0.25566400  1
  O  O19  1  0.74676300  0.97613900  0.58859600  1
  O  O20  1  0.48413400  0.71373500  0.57794800  1
  O  O21  1  0.99341600  0.23138800  0.59100900  1
  O  O22  1  0.10962100  0.84759300  0.09100900  1
  O  O23  1  0.21957600  0.47524000  0.58217900  1
  O  O24  1  0.53042400  0.77476000  0.91782100  1
  O  O25  1  0.75658400  0.01861200  0.90899100  1
  O  O26  1  0.26586600  0.53626500  0.92205200  1
  O  O27  1  0.13578700  0.90618600  0.42205200  1
  O  O28  1  0.00323700  0.27386100  0.91140400  1
  O  O29  1  0.02386100  0.61245600  0.77062400  1
  O  O30  1  0.28626500  0.86421300  0.77039900  1
  O  O31  1  0.98138800  0.89037900  0.73797200  1
loop_
_geom_bond_atom_site_label_1
_geom_bond_atom_site_label_2
_geom_bond_distance
_geom_bond_site_symmetry_2
Li0 O0 1.985279 1_555
Li0 O25 1.992607 1_554
Li0 O9 2.017639 1_545
Li0 O10 2.025555 1_655
Li1 O9 1.985279 1_545
Li1 O21 1.992607 1_555
Li1 O0 2.017639 1_555
Li1 O15 2.025555 1_555
Li2 O19 1.985268 1_545
Li2 O31 1.992614 1_545
Li2 O28 2.017632 1_655
Li2 O25 2.025556 1_555
Li3 O1 1.985269 1_555
Li3 O15 1.992614 1_555
Li3 O6 2.017622 1_555
Li3 O5 2.025556 1_555
Li4 O7 1.979981 1_555
Li4 O2 2.001171 1_555
Li4 O1 2.027216 1_555
Li4 O5 2.141091 1_555
Li5 O12 1.962686 1_555
Li5 O3 1.967712 1_555
Li5 O2 2.049117 1_555
Li5 O4 2.145052 1_555
Li6 O6 1.985269 1_555
Li6 O10 1.992614 1_555
Li6 O1 2.017622 1_555
Li6 O22 2.025556 1_545
Li7 O28 1.985268 1_655
Li7 O11 1.992614 1_555
Li7 O19 2.017632 1_545
Li7 O21 2.025556 1_555
Li8 O24 1.979981 1_554
Li8 O12 2.001171 1_555
Li8 O9 2.027213 1_555
Li8 O15 2.141091 1_565
Li9 O26 1.962686 1_554
Li9 O7 1.967712 1_555
Li9 O12 2.049117 1_555
Li9 O18 2.145052 1_555
Li10 O16 1.985279 1_555
Li10 O5 1.992606 1_555
Li10 O29 2.017629 1_655
Li10 O11 2.025565 1_555
Li11 O29 1.985279 1_655
Li11 O22 1.992606 1_656
Li11 O16 2.017629 1_555
Li11 O31 2.025565 1_555
Li12 O2 1.962686 1_556
Li12 O17 1.967712 1_555
Li12 O14 2.049117 1_555
Li12 O8 2.145052 1_555
Li13 O20 1.962686 1_555
Li13 O18 1.967712 1_555
Li13 O13 2.049117 1_555
Li13 O7 2.145052 1_555
Li14 O23 1.979981 1_555
Li14 O13 2.001171 1_555
Li14 O0 2.027213 1_455
Li14 O10 2.141091 1_555
Li15 O3 1.979981 1_556
Li15 O14 2.001171 1_555
Li15 O16 2.027213 1_555
Li15 O11 2.141091 1_555
Li16 O13 1.962686 1_555
Li16 O4 1.967712 1_455
Li16 O27 2.049117 1_555
Li16 O3 2.145052 1_455
Li17 O14 1.962686 1_555
Li17 O24 1.967712 1_555
Li17 O26 2.049117 1_555
Li17 O23 2.145052 1_555
Li18 O8 1.979981 1_565
Li18 O20 2.001171 1_555
Li18 O19 2.027206 1_555
Li18 O25 2.141091 1_565
Li19 O18 1.979981 1_555
Li19 O27 2.001171 1_555
Li19 O6 2.027216 1_565
Li19 O22 2.141091 1_555
Li20 O17 1.979981 1_555
Li20 O26 2.001171 1_555
Li20 O28 2.027206 1_555
Li20 O21 2.141091 1_455
Li21 O30 1.962686 1_555
Li21 O23 1.967712 1_555
Li21 O20 2.049117 1_555
Li21 O24 2.145052 1_555
Li22 O4 1.979981 1_455
Li22 O30 2.001171 1_555
Li22 O29 2.027213 1_555
Li22 O31 2.141091 1_455
Li23 O27 1.962686 1_555
Li23 O8 1.967712 1_565
Li23 O30 2.049117 1_555
Li23 O17 2.145052 1_565
La0 O24 2.370355 1_545
La0 O30 2.446789 1_545
La0 O15 2.487764 1_556
La0 O25 2.527320 1_555
La0 O0 2.585854 1_556
La0 O1 2.639166 1_556
La0 O2 2.819979 1_556
La0 O8 2.896478 1_555
La1 O7 2.370356 1_555
La1 O20 2.446786 1_555
La1 O5 2.487774 1_555
La1 O10 2.527313 1_555
La1 O6 2.585853 1_555
La1 O16 2.639166 1_555
La1 O14 2.819977 1_555
La1 O23 2.896468 1_555
La2 O8 2.370356 1_555
La2 O2 2.446786 1_556
La2 O25 2.487774 1_555
La2 O11 2.527313 1_555
La2 O28 2.585861 1_655
La2 O0 2.639166 1_556
La2 O13 2.819977 1_656
La2 O3 2.896468 1_556
La3 O4 2.370362 1_555
La3 O12 2.446796 1_555
La3 O31 2.487772 1_555
La3 O5 2.527311 1_555
La3 O16 2.585846 1_555
La3 O19 2.639166 1_555
La3 O20 2.819971 1_555
La3 O7 2.896470 1_555
La4 O23 2.370355 1_555
La4 O14 2.446789 1_555
La4 O10 2.487764 1_555
La4 O21 2.527320 1_455
La4 O9 2.585854 1_445
La4 O6 2.639166 1_555
La4 O27 2.819979 1_545
La4 O17 2.896478 1_555
La5 O17 2.370356 1_665
La5 O27 2.446786 1_655
La5 O21 2.487774 1_565
La5 O31 2.527313 1_555
La5 O19 2.585861 1_555
La5 O9 2.639166 1_555
La5 O12 2.819977 1_555
La5 O4 2.896468 1_555
La6 O18 2.370356 1_555
La6 O26 2.446786 1_554
La6 O22 2.487774 1_555
La6 O15 2.527313 1_565
La6 O1 2.585853 1_565
La6 O29 2.639166 1_554
La6 O30 2.819977 1_554
La6 O24 2.896468 1_554
La7 O3 2.370362 1_455
La7 O13 2.446796 1_555
La7 O11 2.487772 1_454
La7 O22 2.527311 1_555
La7 O29 2.585846 1_554
La7 O28 2.639166 1_554
La7 O26 2.819971 1_554
La7 O18 2.896470 1_555
Ni0 O0 1.906535 1_555
Ni0 O4 1.989661 1_555
Ni0 O5 1.992900 1_555
Ni0 O2 2.021069 1_555
Ni1 O6 1.906542 1_555
Ni1 O8 1.989661 1_555
Ni1 O11 1.992900 1_555
Ni1 O14 2.021069 1_555
Ni2 O28 1.906542 1_554
Ni2 O7 1.989661 1_555
Ni2 O10 1.992900 1_555
Ni2 O13 2.021069 1_555
Ni3 O19 1.906542 1_555
Ni3 O18 1.989661 1_555
Ni3 O15 1.992900 1_565
Ni3 O12 2.021069 1_555
Ni4 O16 1.906535 1_555
Ni4 O24 1.989661 1_555
Ni4 O25 1.992900 1_565
Ni4 O20 2.021069 1_555
Ni5 O9 1.906535 1_555
Ni5 O3 1.989661 1_555
Ni5 O22 1.992900 1_655
Ni5 O27 2.021069 1_655
Ni6 O29 1.906535 1_555
Ni6 O23 1.989661 1_555
Ni6 O21 1.992900 1_455
Ni6 O26 2.021069 1_555
Ni7 O1 1.906542 1_556
Ni7 O17 1.989661 1_555
Ni7 O31 1.992900 1_445
Ni7 O30 2.021069 1_545
