# generated using pymatgen
data_CeNiO3
_symmetry_space_group_name_H-M   'P 1'
_cell_length_a   5.31928400
_cell_length_b   5.71972700
_cell_length_c   7.67100000
_cell_angle_alpha   90.00000000
_cell_angle_beta   90.00000000
_cell_angle_gamma   90.00000000
_symmetry_Int_Tables_number   1
_chemical_formula_structural   CeNiO3
_chemical_formula_sum   'Ce4 Ni4 O12'
_cell_volume   233.38904211
_cell_formula_units_Z   4
loop_
 _symmetry_equiv_pos_site_id
 _symmetry_equiv_pos_as_xyz
  1  'x, y, z'
loop_
 _atom_site_type_symbol
 _atom_site_label
 _atom_site_symmetry_multiplicity
 _atom_site_fract_x
 _atom_site_fract_y
 _atom_site_fract_z
 _atom_site_occupancy
  Ce  Ce0  1  0.02406700  0.42337300  0.25000000  1
  Ce  Ce1  1  0.47593300  0.92337300  0.25000000  1
  Ce  Ce2  1  0.52406700  0.07662700  0.75000000  1
  Ce  Ce3  1  0.97593300  0.57662700  0.75000000  1
  Ni  Ni0  1  0.00000000  0.00000000  0.50000000  1
  Ni  Ni1  1  0.00000000  0.00000000  0.00000000  1
  Ni  Ni2  1  0.50000000  0.50000000  0.50000000  1
  Ni  Ni3  1  0.50000000  0.50000000  0.00000000  1
  O  O0  1  0.12724500  0.95252200  0.75000000  1
  O  O1  1  0.18209700  0.68785700  0.06433300  1
  O  O2  1  0.18209700  0.68785700  0.43566700  1
  O  O3  1  0.31790300  0.18785700  0.06433300  1
  O  O4  1  0.31790300  0.18785700  0.43566700  1
  O  O5  1  0.37275500  0.45252200  0.75000000  1
  O  O6  1  0.62724500  0.54747800  0.25000000  1
  O  O7  1  0.68209700  0.81214300  0.56433300  1
  O  O8  1  0.68209700  0.81214300  0.93566700  1
  O  O9  1  0.81790300  0.31214300  0.56433300  1
  O  O10  1  0.81790300  0.31214300  0.93566700  1
  O  O11  1  0.87275500  0.04747800  0.25000000  1
loop_
_geom_bond_atom_site_label_1
_geom_bond_atom_site_label_2
_geom_bond_distance
_geom_bond_site_symmetry_2
Ce0 O6 2.226970 1_455
Ce0 O2 2.241340 1_555
Ce0 O1 2.241340 1_555
Ce0 O11 2.295733 1_455
Ce0 O4 2.507209 1_555
Ce0 O3 2.507209 1_555
Ce0 O9 2.724244 1_455
Ce0 O10 2.724244 1_454
Ce1 O11 2.226970 1_565
Ce1 O4 2.241340 1_565
Ce1 O3 2.241340 1_565
Ce1 O6 2.295733 1_555
Ce1 O2 2.507209 1_555
Ce1 O1 2.507209 1_555
Ce1 O7 2.724244 1_555
Ce1 O8 2.724244 1_554
Ce2 O0 2.226970 1_545
Ce2 O8 2.241340 1_545
Ce2 O7 2.241340 1_545
Ce2 O5 2.295733 1_555
Ce2 O10 2.507209 1_555
Ce2 O9 2.507209 1_555
Ce2 O3 2.724244 1_556
Ce2 O4 2.724244 1_555
Ce3 O5 2.226970 1_655
Ce3 O10 2.241340 1_555
Ce3 O9 2.241340 1_555
Ce3 O0 2.295733 1_655
Ce3 O8 2.507209 1_555
Ce3 O7 2.507209 1_555
Ce3 O1 2.724244 1_656
Ce3 O2 2.724244 1_655
Ni0 O0 2.051741 1_545
Ni0 O11 2.051741 1_455
Ni0 O7 2.063397 1_445
Ni0 O4 2.063397 1_555
Ni0 O9 2.090295 1_455
Ni0 O2 2.090295 1_545
Ni1 O0 2.051741 1_544
Ni1 O11 2.051741 1_455
Ni1 O3 2.063397 1_555
Ni1 O8 2.063397 1_444
Ni1 O1 2.090295 1_545
Ni1 O10 2.090295 1_454
Ni2 O6 2.051741 1_555
Ni2 O5 2.051741 1_555
Ni2 O9 2.063397 1_555
Ni2 O2 2.063397 1_555
Ni2 O7 2.090295 1_555
Ni2 O4 2.090295 1_555
Ni3 O6 2.051741 1_555
Ni3 O5 2.051741 1_554
Ni3 O10 2.063397 1_554
Ni3 O1 2.063397 1_555
Ni3 O3 2.090295 1_555
Ni3 O8 2.090295 1_554
