# generated using pymatgen
data_LiMn7O7F
_symmetry_space_group_name_H-M   'P 1'
_cell_length_a   3.48212637
_cell_length_b   3.48212637
_cell_length_c   21.50007400
_cell_angle_alpha   90.00000000
_cell_angle_beta   90.00000000
_cell_angle_gamma   120.00000699
_symmetry_Int_Tables_number   1
_chemical_formula_structural   LiMn7O7F
_chemical_formula_sum   'Li1 Mn7 O7 F1'
_cell_volume   225.76655777
_cell_formula_units_Z   1
loop_
 _symmetry_equiv_pos_site_id
 _symmetry_equiv_pos_as_xyz
  1  'x, y, z'
loop_
 _atom_site_type_symbol
 _atom_site_label
 _atom_site_symmetry_multiplicity
 _atom_site_fract_x
 _atom_site_fract_y
 _atom_site_fract_z
 _atom_site_occupancy
  Li  Li0  1  0.66666700  0.33333300  0.96423400  1
  Mn  Mn0  1  0.33333300  0.66666700  0.34707900  1
  Mn  Mn1  1  0.33333300  0.66666700  0.09661100  1
  Mn  Mn2  1  0.33333300  0.66666700  0.59775600  1
  Mn  Mn3  1  0.33333300  0.66666700  0.84993300  1
  Mn  Mn4  1  0.66666700  0.33333300  0.22178800  1
  Mn  Mn5  1  0.66666700  0.33333300  0.72398500  1
  Mn  Mn6  1  0.66666700  0.33333300  0.47229800  1
  O  O0  1  0.33333300  0.66666700  0.24732600  1
  O  O1  1  0.33333300  0.66666700  0.75020200  1
  O  O2  1  0.33333300  0.66666700  0.49830700  1
  O  O3  1  0.66666700  0.33333300  0.37287200  1
  O  O4  1  0.66666700  0.33333300  0.12130900  1
  O  O5  1  0.66666700  0.33333300  0.87569500  1
  O  O6  1  0.66666700  0.33333300  0.62419800  1
  F  F0  1  0.33333300  0.66666700  0.99726500  1
loop_
_geom_bond_atom_site_label_1
_geom_bond_atom_site_label_2
_geom_bond_distance
_geom_bond_site_symmetry_2
Li0 O5 1.903595 1_555
Mn0 O3 2.085486 1_455
Mn0 O3 2.085486 1_565
Mn0 O3 2.085492 1_555
Mn0 O0 2.144697 1_555
Mn1 O4 2.079350 1_455
Mn1 O4 2.079350 1_565
Mn1 O4 2.079356 1_555
Mn2 O6 2.089240 1_455
Mn2 O6 2.089240 1_565
Mn2 O6 2.089246 1_555
Mn2 O2 2.138161 1_555
Mn3 O5 2.085309 1_455
Mn3 O5 2.085309 1_565
Mn3 O5 2.085315 1_555
Mn3 O1 2.144224 1_555
Mn4 O0 2.084035 1_545
Mn4 O0 2.084035 1_655
Mn4 O0 2.084041 1_555
Mn4 O4 2.160306 1_555
Mn5 O1 2.087929 1_545
Mn5 O1 2.087929 1_655
Mn5 O1 2.087935 1_555
Mn5 O6 2.145428 1_555
Mn6 O2 2.086726 1_545
Mn6 O2 2.086726 1_655
Mn6 O2 2.086732 1_555
Mn6 O3 2.137666 1_555
F0 Li0 2.132151 1_455
F0 Li0 2.132151 1_565
F0 Li0 2.132156 1_555
F0 Mn1 2.135946 1_556
