# generated using pymatgen
data_Li3Fe3CuO8
_symmetry_space_group_name_H-M   'P 1'
_cell_length_a   5.97086390
_cell_length_b   5.97086390
_cell_length_c   5.97086477
_cell_angle_alpha   59.42059231
_cell_angle_beta   59.42059231
_cell_angle_gamma   59.42058676
_symmetry_Int_Tables_number   1
_chemical_formula_structural   Li3Fe3CuO8
_chemical_formula_sum   'Li3 Fe3 Cu1 O8'
_cell_volume   148.53640717
_cell_formula_units_Z   1
loop_
 _symmetry_equiv_pos_site_id
 _symmetry_equiv_pos_as_xyz
  1  'x, y, z'
loop_
 _atom_site_type_symbol
 _atom_site_label
 _atom_site_symmetry_multiplicity
 _atom_site_fract_x
 _atom_site_fract_y
 _atom_site_fract_z
 _atom_site_occupancy
  Li  Li0  1  0.00000000  0.50000000  0.00000000  1
  Li  Li1  1  0.00000000  0.00000000  0.50000000  1
  Li  Li2  1  0.50000000  0.00000000  0.00000000  1
  Fe  Fe0  1  0.50000000  0.00000000  0.50000000  1
  Fe  Fe1  1  0.50000000  0.50000000  0.00000000  1
  Fe  Fe2  1  0.00000000  0.50000000  0.50000000  1
  Cu  Cu0  1  0.00000000  0.00000000  0.00000000  1
  O  O0  1  0.25774400  0.25774400  0.25774400  1
  O  O1  1  0.76162100  0.25301400  0.76162100  1
  O  O2  1  0.76162100  0.76162100  0.25301400  1
  O  O3  1  0.74225600  0.74225600  0.74225600  1
  O  O4  1  0.25301400  0.76162100  0.76162100  1
  O  O5  1  0.23837900  0.74698600  0.23837900  1
  O  O6  1  0.23837900  0.23837900  0.74698600  1
  O  O7  1  0.74698600  0.23837900  0.23837900  1
loop_
_geom_bond_atom_site_label_1
_geom_bond_atom_site_label_2
_geom_bond_distance
_geom_bond_site_symmetry_2
Li0 O6 2.167805 1_554
Li0 O2 2.167805 1_455
Li0 O7 2.167805 1_455
Li0 O4 2.167805 1_554
Li0 O3 2.170005 1_454
Li0 O0 2.170005 1_555
Li1 O4 2.167805 1_545
Li1 O7 2.167805 1_455
Li1 O1 2.167805 1_455
Li1 O5 2.167805 1_545
Li1 O3 2.170005 1_445
Li1 O0 2.170005 1_555
Li2 O6 2.167805 1_554
Li2 O2 2.167805 1_545
Li2 O5 2.167805 1_545
Li2 O1 2.167805 1_554
Li2 O0 2.170005 1_555
Li2 O3 2.170005 1_544
Fe0 O3 2.037630 1_545
Fe0 O0 2.037630 1_555
Fe0 O6 2.042152 1_555
Fe0 O2 2.042152 1_545
Fe0 O4 2.042152 1_545
Fe0 O7 2.042152 1_555
Fe1 O0 2.037630 1_555
Fe1 O3 2.037630 1_554
Fe1 O1 2.042152 1_554
Fe1 O4 2.042152 1_554
Fe1 O7 2.042152 1_555
Fe1 O5 2.042152 1_555
Fe2 O3 2.037630 1_455
Fe2 O0 2.037630 1_555
Fe2 O6 2.042152 1_555
Fe2 O2 2.042152 1_455
Fe2 O1 2.042152 1_455
Fe2 O5 2.042152 1_555
Cu0 O1 2.004904 1_454
Cu0 O4 2.004904 1_544
Cu0 O7 2.004904 1_455
Cu0 O5 2.004904 1_545
Cu0 O2 2.004904 1_445
Cu0 O6 2.004904 1_554
