# generated using pymatgen
data_LiBH2OF4
_symmetry_space_group_name_H-M   'P 1'
_cell_length_a   5.18254100
_cell_length_b   10.32920500
_cell_length_c   13.46477600
_cell_angle_alpha   90.00000000
_cell_angle_beta   90.00000000
_cell_angle_gamma   90.00000000
_symmetry_Int_Tables_number   1
_chemical_formula_structural   LiBH2OF4
_chemical_formula_sum   'Li8 B8 H16 O8 F32'
_cell_volume   720.79003898
_cell_formula_units_Z   8
loop_
 _symmetry_equiv_pos_site_id
 _symmetry_equiv_pos_as_xyz
  1  'x, y, z'
loop_
 _atom_site_type_symbol
 _atom_site_label
 _atom_site_symmetry_multiplicity
 _atom_site_fract_x
 _atom_site_fract_y
 _atom_site_fract_z
 _atom_site_occupancy
  Li  Li0  1  0.03072300  0.75000000  0.00000000  1
  Li  Li1  1  0.46927700  0.75000000  0.50000000  1
  Li  Li2  1  0.96927700  0.25000000  0.00000000  1
  Li  Li3  1  0.53072300  0.25000000  0.50000000  1
  Li  Li4  1  0.25000000  0.86760600  0.25000000  1
  Li  Li5  1  0.25000000  0.63239400  0.75000000  1
  Li  Li6  1  0.75000000  0.13239400  0.75000000  1
  Li  Li7  1  0.75000000  0.36760600  0.25000000  1
  B  B0  1  0.51035700  0.62890200  0.12555000  1
  B  B1  1  0.51035700  0.87109800  0.87445000  1
  B  B2  1  0.98964300  0.62890200  0.37445000  1
  B  B3  1  0.98964300  0.87109800  0.62555000  1
  B  B4  1  0.48964300  0.37109800  0.87445000  1
  B  B5  1  0.48964300  0.12890200  0.12555000  1
  B  B6  1  0.01035700  0.37109800  0.62555000  1
  B  B7  1  0.01035700  0.12890200  0.37445000  1
  H  H0  1  0.83083500  0.63248400  0.85607200  1
  H  H1  1  0.83083500  0.86751600  0.14392800  1
  H  H2  1  0.66916500  0.63248400  0.64392800  1
  H  H3  1  0.66916500  0.86751600  0.35607200  1
  H  H4  1  0.16916500  0.36751600  0.14392800  1
  H  H5  1  0.16916500  0.13248400  0.85607200  1
  H  H6  1  0.33083500  0.36751600  0.35607200  1
  H  H7  1  0.33083500  0.13248400  0.64392800  1
  H  H8  1  0.04007600  0.53914400  0.89865600  1
  H  H9  1  0.04007600  0.96085600  0.10134400  1
  H  H10  1  0.45992400  0.53914400  0.60134400  1
  H  H11  1  0.45992400  0.96085600  0.39865600  1
  H  H12  1  0.95992400  0.46085600  0.10134400  1
  H  H13  1  0.95992400  0.03914400  0.89865600  1
  H  H14  1  0.54007600  0.46085600  0.39865600  1
  H  H15  1  0.54007600  0.03914400  0.60134400  1
  O  O0  1  0.01265300  0.62799300  0.87605200  1
  O  O1  1  0.01265300  0.87200700  0.12394800  1
  O  O2  1  0.48734700  0.62799300  0.62394800  1
  O  O3  1  0.48734700  0.87200700  0.37605200  1
  O  O4  1  0.98734700  0.37200700  0.12394800  1
  O  O5  1  0.98734700  0.12799300  0.87605200  1
  O  O6  1  0.51265300  0.37200700  0.37605200  1
  O  O7  1  0.51265300  0.12799300  0.62394800  1
  F  F0  1  0.29430200  0.62761600  0.06138700  1
  F  F1  1  0.29430200  0.87238400  0.93861300  1
  F  F2  1  0.20569800  0.62761600  0.43861300  1
  F  F3  1  0.20569800  0.87238400  0.56138700  1
  F  F4  1  0.70569800  0.37238400  0.93861300  1
  F  F5  1  0.70569800  0.12761600  0.06138700  1
  F  F6  1  0.79430200  0.37238400  0.56138700  1
  F  F7  1  0.79430200  0.12761600  0.43861300  1
  F  F8  1  0.50974700  0.51510000  0.18408500  1
  F  F9  1  0.50974700  0.98490000  0.81591500  1
  F  F10  1  0.99025300  0.51510000  0.31591500  1
  F  F11  1  0.99025300  0.98490000  0.68408500  1
  F  F12  1  0.49025300  0.48490000  0.81591500  1
  F  F13  1  0.49025300  0.01510000  0.18408500  1
  F  F14  1  0.00974700  0.48490000  0.68408500  1
  F  F15  1  0.00974700  0.01510000  0.31591500  1
  F  F16  1  0.74176200  0.63273900  0.06863600  1
  F  F17  1  0.74176200  0.86726100  0.93136400  1
  F  F18  1  0.75823800  0.63273900  0.43136400  1
  F  F19  1  0.75823800  0.86726100  0.56863600  1
  F  F20  1  0.25823800  0.36726100  0.93136400  1
  F  F21  1  0.25823800  0.13273900  0.06863600  1
  F  F22  1  0.24176200  0.36726100  0.56863600  1
  F  F23  1  0.24176200  0.13273900  0.43136400  1
  F  F24  1  0.50129000  0.73999400  0.18743700  1
  F  F25  1  0.50129000  0.76000600  0.81256300  1
  F  F26  1  0.99871000  0.73999400  0.31256300  1
  F  F27  1  0.99871000  0.76000600  0.68743700  1
  F  F28  1  0.49871000  0.26000600  0.81256300  1
  F  F29  1  0.49871000  0.23999400  0.18743700  1
  F  F30  1  0.00129000  0.26000600  0.68743700  1
  F  F31  1  0.00129000  0.23999400  0.31256300  1
loop_
_geom_bond_atom_site_label_1
_geom_bond_atom_site_label_2
_geom_bond_distance
_geom_bond_site_symmetry_2
Li0 O0 2.093394 1_554
Li0 O1 2.093394 1_555
Li1 O2 2.093394 1_555
Li1 O3 2.093394 1_555
Li2 O5 2.093394 1_554
Li2 O4 2.093394 1_555
Li3 O7 2.093394 1_555
Li3 O6 2.093394 1_555
Li4 O3 2.096620 1_555
Li4 O1 2.096620 1_555
Li5 O2 2.096620 1_555
Li5 O0 2.096620 1_555
Li6 O5 2.096620 1_555
Li6 O7 2.096620 1_555
Li7 O6 2.096620 1_555
Li7 O4 2.096620 1_555
B0 F0 1.414330 1_555
B0 F8 1.415263 1_555
B0 F24 1.418917 1_555
B0 F16 1.423755 1_555
B1 F1 1.414330 1_555
B1 F9 1.415263 1_555
B1 F25 1.418917 1_555
B1 F17 1.423755 1_555
B2 F2 1.414330 1_655
B2 F10 1.415263 1_555
B2 F26 1.418917 1_555
B2 F18 1.423755 1_555
B3 F3 1.414330 1_655
B3 F11 1.415263 1_555
B3 F27 1.418917 1_555
B3 F19 1.423755 1_555
B4 F4 1.414330 1_555
B4 F12 1.415263 1_555
B4 F28 1.418917 1_555
B4 F20 1.423755 1_555
B5 F5 1.414330 1_555
B5 F13 1.415263 1_555
B5 F29 1.418917 1_555
B5 F21 1.423755 1_555
B6 F6 1.414330 1_455
B6 F14 1.415263 1_555
B6 F30 1.418917 1_555
B6 F22 1.423755 1_555
B7 F7 1.414330 1_455
B7 F15 1.415263 1_555
B7 F31 1.418917 1_555
B7 F23 1.423755 1_555
H0 O0 0.981029 1_655
H1 O1 0.981029 1_655
H2 O2 0.981029 1_555
H3 O3 0.981029 1_555
H4 O4 0.981029 1_455
H5 O5 0.981029 1_455
H6 O6 0.981029 1_555
H7 O7 0.981029 1_555
H8 O0 0.977281 1_555
H9 O1 0.977281 1_555
H10 O2 0.977281 1_555
H11 O3 0.977281 1_555
H12 O4 0.977281 1_555
H13 O5 0.977281 1_555
H14 O6 0.977281 1_555
H15 O7 0.977281 1_555
F0 Li0 2.036470 1_555
F1 Li0 2.036470 1_556
F2 Li1 2.036470 1_555
F3 Li1 2.036470 1_555
F4 Li2 2.036470 1_556
F5 Li2 2.036470 1_555
F6 Li3 2.036470 1_555
F7 Li3 2.036470 1_555
F8 Li7 2.158489 1_555
F9 Li6 2.158489 1_565
F10 Li7 2.158489 1_555
F11 Li6 2.158489 1_565
F12 Li5 2.158489 1_555
F13 Li4 2.158489 1_545
F14 Li5 2.158489 1_555
F15 Li4 2.158489 1_545
F16 Li0 2.136302 1_655
F17 Li0 2.136302 1_656
F18 Li1 2.136302 1_555
F19 Li1 2.136302 1_555
F20 Li2 2.136302 1_456
F21 Li2 2.136302 1_455
F22 Li3 2.136302 1_555
F23 Li3 2.136302 1_555
F24 Li4 2.035470 1_555
F25 Li5 2.035470 1_555
F26 Li4 2.035470 1_655
F27 Li5 2.035470 1_655
F28 Li6 2.035470 1_555
F29 Li7 2.035470 1_555
F30 Li6 2.035470 1_455
F31 Li7 2.035470 1_455
