# generated using pymatgen
data_Li4Fe3NiO8
_symmetry_space_group_name_H-M   'P 1'
_cell_length_a   5.97270165
_cell_length_b   5.97270165
_cell_length_c   5.97270131
_cell_angle_alpha   59.35521247
_cell_angle_beta   59.35521247
_cell_angle_gamma   59.35521580
_symmetry_Int_Tables_number   1
_chemical_formula_structural   Li4Fe3NiO8
_chemical_formula_sum   'Li4 Fe3 Ni1 O8'
_cell_volume   148.44858678
_cell_formula_units_Z   1
loop_
 _symmetry_equiv_pos_site_id
 _symmetry_equiv_pos_as_xyz
  1  'x, y, z'
loop_
 _atom_site_type_symbol
 _atom_site_label
 _atom_site_symmetry_multiplicity
 _atom_site_fract_x
 _atom_site_fract_y
 _atom_site_fract_z
 _atom_site_occupancy
  Li  Li0  1  0.50000000  0.50000000  0.50000000  1
  Li  Li1  1  0.50000000  0.00000000  0.00000000  1
  Li  Li2  1  0.00000000  0.00000000  0.50000000  1
  Li  Li3  1  0.00000000  0.50000000  0.00000000  1
  Fe  Fe0  1  0.00000000  0.50000000  0.50000000  1
  Fe  Fe1  1  0.50000000  0.50000000  0.00000000  1
  Fe  Fe2  1  0.50000000  0.00000000  0.50000000  1
  Ni  Ni0  1  0.00000000  0.00000000  0.00000000  1
  O  O0  1  0.74410500  0.74410500  0.74410500  1
  O  O1  1  0.74256000  0.24164000  0.24164000  1
  O  O2  1  0.24164000  0.24164000  0.74256000  1
  O  O3  1  0.25589500  0.25589500  0.25589500  1
  O  O4  1  0.24164000  0.74256000  0.24164000  1
  O  O5  1  0.25744000  0.75836000  0.75836000  1
  O  O6  1  0.75836000  0.75836000  0.25744000  1
  O  O7  1  0.75836000  0.25744000  0.75836000  1
loop_
_geom_bond_atom_site_label_1
_geom_bond_atom_site_label_2
_geom_bond_distance
_geom_bond_site_symmetry_2
Li0 O2 2.175008 1_555
Li0 O6 2.175008 1_555
Li0 O4 2.175008 1_555
Li0 O1 2.175008 1_555
Li0 O5 2.175008 1_555
Li0 O7 2.175008 1_555
Li1 O0 2.153062 1_544
Li1 O3 2.153062 1_555
Li1 O4 2.171306 1_545
Li1 O7 2.171306 1_554
Li1 O2 2.171306 1_554
Li1 O6 2.171306 1_545
Li2 O0 2.153062 1_445
Li2 O3 2.153062 1_555
Li2 O4 2.171306 1_545
Li2 O1 2.171306 1_455
Li2 O7 2.171306 1_455
Li2 O5 2.171306 1_545
Li3 O0 2.153062 1_454
Li3 O3 2.153062 1_555
Li3 O1 2.171306 1_455
Li3 O5 2.171306 1_554
Li3 O2 2.171306 1_554
Li3 O6 2.171306 1_455
Fe0 O7 2.035962 1_455
Fe0 O4 2.035962 1_555
Fe0 O6 2.035962 1_455
Fe0 O2 2.035962 1_555
Fe0 O0 2.052073 1_455
Fe0 O3 2.052073 1_555
Fe1 O5 2.035962 1_554
Fe1 O7 2.035962 1_554
Fe1 O4 2.035962 1_555
Fe1 O1 2.035962 1_555
Fe1 O0 2.052073 1_554
Fe1 O3 2.052073 1_555
Fe2 O5 2.035962 1_545
Fe2 O1 2.035962 1_555
Fe2 O6 2.035962 1_545
Fe2 O2 2.035962 1_555
Fe2 O0 2.052073 1_545
Fe2 O3 2.052073 1_555
Ni0 O6 2.032006 1_445
Ni0 O2 2.032006 1_554
Ni0 O5 2.032006 1_544
Ni0 O7 2.032006 1_454
Ni0 O4 2.032006 1_545
Ni0 O1 2.032006 1_455
