# generated using pymatgen
data_K8Li9Mn4O16
_symmetry_space_group_name_H-M   'P 1'
_cell_length_a   5.62044600
_cell_length_b   8.75360362
_cell_length_c   10.67364457
_cell_angle_alpha   88.99112495
_cell_angle_beta   78.56536325
_cell_angle_gamma   89.63193036
_symmetry_Int_Tables_number   1
_chemical_formula_structural   K8Li9Mn4O16
_chemical_formula_sum   'K8 Li9 Mn4 O16'
_cell_volume   514.62908843
_cell_formula_units_Z   1
loop_
 _symmetry_equiv_pos_site_id
 _symmetry_equiv_pos_as_xyz
  1  'x, y, z'
loop_
 _atom_site_type_symbol
 _atom_site_label
 _atom_site_symmetry_multiplicity
 _atom_site_fract_x
 _atom_site_fract_y
 _atom_site_fract_z
 _atom_site_occupancy
  K  K0  1  0.86443300  0.01051400  0.85069800  1
  K  K1  1  0.87947600  0.27963600  0.39679400  1
  K  K2  1  0.67027000  0.47043200  0.64468300  1
  K  K3  1  0.38249800  0.21903500  0.90084800  1
  K  K4  1  0.60459800  0.78253000  0.10205900  1
  K  K5  1  0.34213900  0.50846700  0.34472600  1
  K  K6  1  0.12806100  0.71548400  0.59959000  1
  K  K7  1  0.15346200  0.99865800  0.15188500  1
  Li  Li0  1  0.69725100  0.50933900  0.92750200  1
  Li  Li1  1  0.79931000  0.00980500  0.57482200  1
  Li  Li2  1  0.90194100  0.55232500  0.20289200  1
  Li  Li3  1  0.58522800  0.73188200  0.79701400  1
  Li  Li4  1  0.60397600  0.04920300  0.29835100  1
  Li  Li5  1  0.38947400  0.95567400  0.69936100  1
  Li  Li6  1  0.10624400  0.45784800  0.79613400  1
  Li  Li7  1  0.19767100  0.98738800  0.42906700  1
  Li  Li8  1  0.30619100  0.48917400  0.06914300  1
  Mn  Mn0  1  0.80703600  0.29484000  0.07741900  1
  Mn  Mn1  1  0.69417800  0.79267800  0.43022700  1
  Mn  Mn2  1  0.29938300  0.20715900  0.57359900  1
  Mn  Mn3  1  0.15285100  0.70625200  0.93422000  1
  O  O0  1  0.90093000  0.67064600  0.83943100  1
  O  O1  1  0.87267500  0.30809300  0.90388900  1
  O  O2  1  0.86804500  0.97349700  0.38743500  1
  O  O3  1  0.79770000  0.59819600  0.39940100  1
  O  O4  1  0.63351900  0.79854000  0.60843100  1
  O  O5  1  0.55207800  0.15812000  0.64690700  1
  O  O6  1  0.70282100  0.09749500  0.10706600  1
  O  O7  1  0.37761400  0.53160400  0.87614900  1
  O  O8  1  0.63572000  0.47601500  0.11648500  1
  O  O9  1  0.33002700  0.89208200  0.88051500  1
  O  O10  1  0.44699600  0.84562400  0.35388800  1
  O  O11  1  0.36529200  0.19551700  0.40164900  1
  O  O12  1  0.19793400  0.40351300  0.60499300  1
  O  O13  1  0.12721500  0.02495200  0.61405300  1
  O  O14  1  0.14653500  0.69060200  0.10833200  1
  O  O15  1  0.05835400  0.34198600  0.15024500  1
loop_
_geom_bond_atom_site_label_1
_geom_bond_atom_site_label_2
_geom_bond_distance
_geom_bond_site_symmetry_2
K0 O13 2.662580 1_655
K0 O1 2.678428 1_555
K0 O6 2.823391 1_556
K0 O9 2.882303 1_645
K0 O0 2.983715 1_545
K0 O9 3.137998 1_545
K1 O15 2.672321 1_655
K1 O2 2.685093 1_545
K1 O3 2.822980 1_555
K1 O11 2.833630 1_655
K1 O11 2.977126 1_555
K2 O7 2.742275 1_555
K2 O3 2.789567 1_555
K2 O5 2.816133 1_555
K2 O12 2.836351 1_555
K2 O4 2.902833 1_555
K2 O12 2.967539 1_655
K3 O7 2.744636 1_555
K3 O5 2.749452 1_555
K3 O1 2.874515 1_555
K3 O9 2.895394 1_545
K3 O1 2.958853 1_455
K3 O15 3.117104 1_556
K3 O6 3.268362 1_556
K4 O14 2.690082 1_555
K4 O8 2.691373 1_555
K4 O10 2.723343 1_555
K4 O6 2.818785 1_565
K5 O8 2.676335 1_555
K5 O11 2.803350 1_555
K5 O3 2.854449 1_555
K5 O12 2.871442 1_555
K5 O10 3.020373 1_555
K5 O3 3.098105 1_455
K6 O0 2.648108 1_455
K6 O13 2.715988 1_565
K6 O12 2.757691 1_555
K6 O4 2.852336 1_455
K6 O4 2.956932 1_555
K6 O10 3.073399 1_555
K6 O3 3.277536 1_455
K7 O2 2.707185 1_455
K7 O14 2.746259 1_555
K7 O6 2.798244 1_465
K7 O9 3.031248 1_554
K7 O15 3.049498 1_565
K7 O6 3.153571 1_565
Li0 O0 1.932692 1_555
Li0 O7 1.986963 1_555
Li0 O8 1.994371 1_556
Li0 O1 2.008423 1_555
Li1 O5 1.948460 1_555
Li1 O13 1.974981 1_655
Li1 O2 1.991257 1_545
Li1 O4 2.069598 1_545
Li2 O14 1.949844 1_655
Li2 O8 2.029128 1_555
Li2 O15 2.073278 1_655
Li2 O3 2.107901 1_555
Li3 O0 1.984570 1_555
Li3 O4 2.051787 1_555
Li3 O9 2.080746 1_555
Li3 O7 2.175306 1_555
Li4 O2 2.017629 1_545
Li4 O10 2.020190 1_545
Li4 O11 2.024074 1_555
Li4 O6 2.044210 1_555
Li5 O9 1.966861 1_555
Li5 O13 1.967436 1_565
Li5 O5 2.017952 1_565
Li5 O4 2.051896 1_555
Li6 O7 2.005267 1_555
Li6 O1 2.033462 1_455
Li6 O12 2.065973 1_555
Li6 O0 2.192321 1_455
Li7 O10 1.927281 1_555
Li7 O13 1.968415 1_565
Li7 O2 1.993930 1_455
Li7 O11 2.046071 1_565
Li8 O15 1.963516 1_555
Li8 O14 1.986441 1_555
Li8 O8 2.016227 1_555
Li8 O7 2.046847 1_554
Mn0 O15 1.795519 1_655
Mn0 O1 1.817208 1_554
Mn0 O6 1.829663 1_555
Mn0 O8 1.860283 1_555
Mn1 O10 1.798909 1_555
Mn1 O3 1.810005 1_555
Mn1 O4 1.866250 1_555
Mn1 O2 1.867167 1_555
Mn2 O5 1.798506 1_555
Mn2 O11 1.803493 1_555
Mn2 O12 1.823081 1_555
Mn2 O13 1.869931 1_555
Mn3 O14 1.854361 1_556
Mn3 O0 1.926225 1_455
Mn3 O9 1.930793 1_555
Mn3 O7 2.003835 1_555
