# generated using pymatgen
data_Li5Fe2Co5O12
_symmetry_space_group_name_H-M   'P 1'
_cell_length_a   5.11441515
_cell_length_b   5.11441515
_cell_length_c   9.84056987
_cell_angle_alpha   84.50950389
_cell_angle_beta   84.50950389
_cell_angle_gamma   120.82563203
_symmetry_Int_Tables_number   1
_chemical_formula_structural   Li5Fe2Co5O12
_chemical_formula_sum   'Li5 Fe2 Co5 O12'
_cell_volume   216.84916067
_cell_formula_units_Z   1
loop_
 _symmetry_equiv_pos_site_id
 _symmetry_equiv_pos_as_xyz
  1  'x, y, z'
loop_
 _atom_site_type_symbol
 _atom_site_label
 _atom_site_symmetry_multiplicity
 _atom_site_fract_x
 _atom_site_fract_y
 _atom_site_fract_z
 _atom_site_occupancy
  Li  Li0  1  0.82436800  0.66640600  0.75906800  1
  Li  Li1  1  0.67039600  0.82762500  0.23925100  1
  Li  Li2  1  0.33359400  0.17563200  0.24093200  1
  Li  Li3  1  0.17237500  0.32960400  0.76074900  1
  Li  Li4  1  0.08393800  0.91606200  0.00000000  1
  Fe  Fe0  1  0.24892500  0.75107500  0.50000000  1
  Fe  Fe1  1  0.74887500  0.25112500  0.00000000  1
  Co  Co0  1  0.91060000  0.08940000  0.50000000  1
  Co  Co1  1  0.00226900  0.51012200  0.24133200  1
  Co  Co2  1  0.48987800  0.99773100  0.75866800  1
  Co  Co3  1  0.58435200  0.41564800  0.50000000  1
  Co  Co4  1  0.41925400  0.58074600  0.00000000  1
  O  O0  1  0.85133700  0.37135700  0.62555100  1
  O  O1  1  0.69573600  0.53120700  0.11456400  1
  O  O2  1  0.62864300  0.14866300  0.37444900  1
  O  O3  1  0.95232200  0.77010800  0.38748300  1
  O  O4  1  0.46879300  0.30426400  0.88543600  1
  O  O5  1  0.76445500  0.94922300  0.88113700  1
  O  O6  1  0.22989200  0.04767800  0.61251700  1
  O  O7  1  0.52538700  0.70918900  0.61286700  1
  O  O8  1  0.38417200  0.85716600  0.11695400  1
  O  O9  1  0.05077700  0.23554500  0.11886300  1
  O  O10  1  0.29081100  0.47461300  0.38713300  1
  O  O11  1  0.14283400  0.61582800  0.88304600  1
loop_
_geom_bond_atom_site_label_1
_geom_bond_atom_site_label_2
_geom_bond_distance
_geom_bond_site_symmetry_2
Li0 O4 1.989604 1_555
Li0 O5 2.084546 1_555
Li0 O0 2.140196 1_555
Li0 O6 2.220010 1_665
Li0 O11 2.227082 1_655
Li0 O7 2.271468 1_555
Li1 O8 2.035456 1_555
Li1 O1 2.085055 1_555
Li1 O9 2.113560 1_665
Li1 O10 2.123843 1_555
Li1 O3 2.246866 1_555
Li1 O2 2.287909 1_565
Li2 O1 1.989604 1_555
Li2 O9 2.084546 1_555
Li2 O2 2.140196 1_555
Li2 O3 2.220010 1_445
Li2 O8 2.227082 1_545
Li2 O10 2.271468 1_555
Li3 O11 2.035456 1_555
Li3 O4 2.085055 1_555
Li3 O5 2.113560 1_445
Li3 O7 2.123843 1_555
Li3 O6 2.246866 1_555
Li3 O0 2.287909 1_455
Li4 O4 2.056479 1_564
Li4 O1 2.056479 1_455
Li4 O11 2.125789 1_554
Li4 O8 2.125789 1_555
Li4 O5 2.162995 1_454
Li4 O9 2.162995 1_565
Fe0 O10 1.960647 1_555
Fe0 O7 1.960647 1_555
Fe0 O6 1.997173 1_565
Fe0 O3 1.997173 1_455
Fe0 O0 2.108492 1_455
Fe0 O2 2.108492 1_565
Fe1 O1 2.011504 1_555
Fe1 O4 2.011504 1_554
Fe1 O8 2.038925 1_545
Fe1 O11 2.038925 1_654
Fe1 O5 2.052428 1_544
Fe1 O9 2.052428 1_655
Co0 O10 2.034221 1_655
Co0 O7 2.034221 1_545
Co0 O0 2.101196 1_555
Co0 O2 2.101196 1_555
Co0 O3 2.143842 1_545
Co0 O6 2.143842 1_655
Co1 O8 2.009301 1_555
Co1 O9 2.027247 1_555
Co1 O2 2.054792 1_455
Co1 O3 2.132016 1_455
Co1 O1 2.132457 1_455
Co1 O10 2.213429 1_555
Co2 O11 2.009301 1_555
Co2 O5 2.027247 1_555
Co2 O0 2.054792 1_565
Co2 O6 2.132016 1_565
Co2 O4 2.132457 1_565
Co2 O7 2.213429 1_555
Co3 O3 1.942881 1_555
Co3 O6 1.942881 1_555
Co3 O0 2.007124 1_555
Co3 O2 2.007124 1_555
Co3 O7 2.073019 1_555
Co3 O10 2.073019 1_555
Co4 O9 1.951870 1_555
Co4 O5 1.951870 1_554
Co4 O8 1.971591 1_555
Co4 O11 1.971591 1_554
Co4 O4 1.988029 1_554
Co4 O1 1.988029 1_555
