# generated using pymatgen
data_Li4Fe2Cu3Sb3O16
_symmetry_space_group_name_H-M   'P 1'
_cell_length_a   6.14499485
_cell_length_b   6.14499485
_cell_length_c   9.70462869
_cell_angle_alpha   88.32052506
_cell_angle_beta   88.32052506
_cell_angle_gamma   58.87051800
_symmetry_Int_Tables_number   1
_chemical_formula_structural   Li4Fe2Cu3Sb3O16
_chemical_formula_sum   'Li4 Fe2 Cu3 Sb3 O16'
_cell_volume   313.50919499
_cell_formula_units_Z   1
loop_
 _symmetry_equiv_pos_site_id
 _symmetry_equiv_pos_as_xyz
  1  'x, y, z'
loop_
 _atom_site_type_symbol
 _atom_site_label
 _atom_site_symmetry_multiplicity
 _atom_site_fract_x
 _atom_site_fract_y
 _atom_site_fract_z
 _atom_site_occupancy
  Li  Li0  1  0.67119100  0.67119100  0.89866800  1
  Li  Li1  1  0.00906200  0.00906200  0.00646900  1
  Li  Li2  1  0.02029200  0.02029200  0.48532100  1
  Li  Li3  1  0.33702800  0.33702800  0.38352200  1
  Fe  Fe0  1  0.64902600  0.64902600  0.47650000  1
  Fe  Fe1  1  0.32193800  0.32193800  0.00503200  1
  Cu  Cu0  1  0.82950700  0.33697700  0.21139500  1
  Cu  Cu1  1  0.33697700  0.82950700  0.21139500  1
  Cu  Cu2  1  0.16968500  0.16968500  0.71762600  1
  Sb  Sb0  1  0.82701400  0.82701400  0.21657400  1
  Sb  Sb1  1  0.66195300  0.16955400  0.71447700  1
  Sb  Sb2  1  0.16955400  0.66195300  0.71447700  1
  O  O0  1  0.83299300  0.32135600  0.60231500  1
  O  O1  1  0.52042700  0.52042700  0.33895700  1
  O  O2  1  0.66868500  0.66868500  0.10825500  1
  O  O3  1  0.99578500  0.99578500  0.30184200  1
  O  O4  1  0.98526300  0.98526300  0.82248700  1
  O  O5  1  0.32135600  0.83299300  0.60231500  1
  O  O6  1  0.96622500  0.52870200  0.35004600  1
  O  O7  1  0.52870200  0.96622500  0.35004600  1
  O  O8  1  0.16328800  0.16328800  0.09854500  1
  O  O9  1  0.84690400  0.84690400  0.60017100  1
  O  O10  1  0.48441200  0.04028500  0.83548200  1
  O  O11  1  0.04028500  0.48441200  0.83548200  1
  O  O12  1  0.35197100  0.35197100  0.59523600  1
  O  O13  1  0.66417900  0.14617400  0.09439600  1
  O  O14  1  0.48485900  0.48485900  0.83632000  1
  O  O15  1  0.14617400  0.66417900  0.09439600  1
loop_
_geom_bond_atom_site_label_1
_geom_bond_atom_site_label_2
_geom_bond_distance
_geom_bond_site_symmetry_2
Li0 O10 2.026253 1_565
Li0 O11 2.026253 1_655
Li0 O2 2.033238 1_556
Li0 O14 2.103561 1_555
Li1 O4 1.812023 1_444
Li1 O8 1.903348 1_555
Li1 O13 2.004835 1_455
Li1 O15 2.004835 1_545
Li2 O3 1.808525 1_445
Li2 O5 1.970116 1_545
Li2 O0 1.970116 1_455
Li2 O9 2.132433 1_445
Li3 O6 1.982633 1_455
Li3 O7 1.982633 1_545
Li3 O1 1.995824 1_555
Li3 O12 2.066181 1_555
Fe0 O1 1.949358 1_555
Fe0 O7 2.067573 1_555
Fe0 O6 2.067573 1_555
Fe0 O5 2.099136 1_555
Fe0 O0 2.099136 1_555
Fe0 O9 2.469288 1_555
Fe1 O8 1.898270 1_555
Fe1 O15 2.011217 1_555
Fe1 O13 2.011217 1_555
Fe1 O11 2.232423 1_554
Fe1 O10 2.232423 1_554
Fe1 O14 2.351482 1_554
Cu0 O3 1.984944 1_545
Cu0 O2 1.997240 1_555
Cu0 O1 2.034907 1_555
Cu0 O8 2.053989 1_655
Cu0 O13 2.252402 1_555
Cu0 O6 2.255430 1_555
Cu1 O3 1.984944 1_455
Cu1 O2 1.997240 1_555
Cu1 O1 2.034907 1_555
Cu1 O8 2.053989 1_565
Cu1 O15 2.252402 1_555
Cu1 O7 2.255430 1_555
Cu2 O10 2.041344 1_555
Cu2 O11 2.041344 1_555
Cu2 O0 2.117161 1_455
Cu2 O5 2.117161 1_545
Cu2 O4 2.190183 1_445
Cu2 O12 2.249790 1_555
O0 Sb1 2.011665 1_555
O2 Sb0 2.024063 1_555
O3 Sb0 2.012108 1_555
O4 Sb2 2.013584 1_655
O4 Sb1 2.013584 1_565
O5 Sb2 2.011665 1_555
O6 Sb0 2.018495 1_555
O7 Sb0 2.018495 1_555
O9 Sb2 2.044117 1_655
O9 Sb1 2.044117 1_565
O10 Sb1 1.991617 1_555
O11 Sb2 1.991617 1_555
O12 Sb1 2.017296 1_555
O12 Sb2 2.017296 1_555
O13 Sb0 2.039048 1_545
O14 Sb1 2.053118 1_555
O14 Sb2 2.053118 1_555
O15 Sb0 2.039048 1_455
