# generated using pymatgen
data_Na2FePCO7
_symmetry_space_group_name_H-M   'P 1'
_cell_length_a   6.54783900
_cell_length_b   10.35370943
_cell_length_c   10.39842459
_cell_angle_alpha   60.64408856
_cell_angle_beta   89.47581116
_cell_angle_gamma   89.27039871
_symmetry_Int_Tables_number   1
_chemical_formula_structural   Na2FePCO7
_chemical_formula_sum   'Na8 Fe4 P4 C4 O28'
_cell_volume   614.37957727
_cell_formula_units_Z   4
loop_
 _symmetry_equiv_pos_site_id
 _symmetry_equiv_pos_as_xyz
  1  'x, y, z'
loop_
 _atom_site_type_symbol
 _atom_site_label
 _atom_site_symmetry_multiplicity
 _atom_site_fract_x
 _atom_site_fract_y
 _atom_site_fract_z
 _atom_site_occupancy
  Na  Na0  1  0.25895300  0.34072900  0.57794800  1
  Na  Na1  1  0.26155700  0.84195300  0.07705400  1
  Na  Na2  1  0.01284000  0.99461300  0.74176400  1
  Na  Na3  1  0.48568300  0.49523200  0.24110900  1
  Na  Na4  1  0.98952600  0.50652500  0.75660500  1
  Na  Na5  1  0.98914200  0.00637300  0.25642100  1
  Na  Na6  1  0.72307000  0.15857200  0.92152500  1
  Na  Na7  1  0.74112100  0.65886400  0.42252500  1
  Fe  Fe0  1  0.74576600  0.71922200  0.93476000  1
  Fe  Fe1  1  0.75385000  0.21892100  0.43501000  1
  Fe  Fe2  1  0.26444200  0.78055200  0.56532300  1
  Fe  Fe3  1  0.26429300  0.28067400  0.06531000  1
  P  P0  1  0.24821300  0.64220900  0.93349100  1
  P  P1  1  0.25071100  0.14242300  0.43334300  1
  P  P2  1  0.75321600  0.85719400  0.56680000  1
  P  P3  1  0.75467100  0.35731200  0.06665700  1
  C  C0  1  0.75077900  0.33315500  0.60275800  1
  C  C1  1  0.75563100  0.83294300  0.10305200  1
  C  C2  1  0.23833600  0.16732800  0.89762400  1
  C  C3  1  0.24666800  0.66735500  0.39747500  1
  O  O0  1  0.23380400  0.11042600  0.81354400  1
  O  O1  1  0.25823600  0.61071100  0.31323000  1
  O  O2  1  0.76338100  0.91392000  0.95821300  1
  O  O3  1  0.72822900  0.41370700  0.45880500  1
  O  O4  1  0.75601400  0.18946700  0.65343100  1
  O  O5  1  0.73464800  0.69029200  0.15318400  1
  O  O6  1  0.06224800  0.72838400  0.94921000  1
  O  O7  1  0.43898600  0.71459000  0.95904900  1
  O  O8  1  0.06182500  0.21716800  0.46307400  1
  O  O9  1  0.43849600  0.22583900  0.44524700  1
  O  O10  1  0.75450900  0.84995600  0.71888500  1
  O  O11  1  0.74478500  0.34969000  0.21886900  1
  O  O12  1  0.25061200  0.97601200  0.55462800  1
  O  O13  1  0.24832200  0.47597700  0.05498900  1
  O  O14  1  0.76445200  0.52353500  0.94508600  1
  O  O15  1  0.76317400  0.02338100  0.44507200  1
  O  O16  1  0.24610100  0.65045300  0.78109700  1
  O  O17  1  0.24012800  0.15110000  0.28099100  1
  O  O18  1  0.56491900  0.78127700  0.54515600  1
  O  O19  1  0.94067700  0.77381500  0.54804200  1
  O  O20  1  0.94180600  0.27328700  0.04992700  1
  O  O21  1  0.56570900  0.28237500  0.04290800  1
  O  O22  1  0.24368300  0.31072400  0.84674200  1
  O  O23  1  0.24321000  0.81082200  0.34681000  1
  O  O24  1  0.24231300  0.58586100  0.54207900  1
  O  O25  1  0.24416400  0.08604100  0.04221700  1
  O  O26  1  0.76610700  0.39017700  0.68572800  1
  O  O27  1  0.76607400  0.88886400  0.18723400  1
loop_
_geom_bond_atom_site_label_1
_geom_bond_atom_site_label_2
_geom_bond_distance
_geom_bond_site_symmetry_2
Na0 O24 2.378680 1_555
Na0 O0 2.447386 1_555
Na0 O9 2.499042 1_555
Na0 O8 2.509608 1_555
Na0 O22 2.657640 1_555
Na0 O1 2.801173 1_555
Na1 O25 2.372096 1_565
Na1 O1 2.449352 1_555
Na1 O7 2.473000 1_554
Na1 O6 2.540960 1_554
Na1 O23 2.663628 1_555
Na1 O0 2.792171 1_564
Na2 O0 2.242708 1_565
Na2 O10 2.362681 1_455
Na2 O4 2.422142 1_465
Na2 O6 2.552659 1_555
Na2 O12 2.559684 1_555
Na2 O2 2.560399 1_455
Na2 O8 2.695404 1_565
Na3 O1 2.241272 1_555
Na3 O11 2.339216 1_555
Na3 O5 2.412122 1_555
Na3 O3 2.552888 1_555
Na3 O9 2.566320 1_555
Na3 O13 2.577229 1_555
Na3 O7 2.705849 1_554
Na4 O26 2.251561 1_555
Na4 O16 2.356195 1_655
Na4 O22 2.416075 1_655
Na4 O14 2.514587 1_555
Na4 O24 2.561465 1_655
Na4 O19 2.563198 1_555
Na4 O20 2.830612 1_556
Na5 O27 2.248092 1_545
Na5 O17 2.336073 1_655
Na5 O23 2.413979 1_645
Na5 O15 2.519394 1_555
Na5 O20 2.552674 1_555
Na5 O25 2.568198 1_655
Na5 O19 2.817230 1_545
Na6 O2 2.380949 1_545
Na6 O21 2.413862 1_556
Na6 O26 2.466042 1_555
Na6 O20 2.622573 1_556
Na6 O4 2.652709 1_555
Na6 O27 2.817902 1_546
Na7 O3 2.378725 1_555
Na7 O27 2.444119 1_555
Na7 O18 2.466579 1_555
Na7 O19 2.534010 1_555
Na7 O5 2.657066 1_555
Na7 O26 2.790683 1_555
Fe0 O10 1.973554 1_555
Fe0 O14 1.977916 1_555
Fe0 O7 2.020506 1_555
Fe0 O6 2.085802 1_655
Fe0 O5 2.141067 1_556
Fe0 O2 2.150549 1_555
Fe1 O15 1.975554 1_555
Fe1 O11 1.976075 1_555
Fe1 O8 2.038796 1_655
Fe1 O9 2.068794 1_555
Fe1 O4 2.138477 1_555
Fe1 O3 2.153268 1_555
Fe2 O12 1.972543 1_555
Fe2 O16 1.974593 1_555
Fe2 O18 1.976430 1_555
Fe2 O19 2.134108 1_455
Fe2 O23 2.141696 1_555
Fe2 O24 2.151403 1_555
Fe3 O13 1.973177 1_555
Fe3 O17 1.975761 1_555
Fe3 O21 1.984493 1_555
Fe3 O20 2.124276 1_455
Fe3 O22 2.142825 1_554
Fe3 O25 2.148896 1_555
C0 O26 1.267079 1_555
C0 O4 1.312450 1_555
C0 O3 1.317162 1_555
C1 O27 1.266960 1_555
C1 O5 1.311876 1_555
C1 O2 1.317369 1_554
C2 O0 1.272133 1_555
C2 O22 1.310052 1_555
C2 O25 1.315277 1_556
C3 O1 1.272193 1_555
C3 O23 1.310193 1_555
C3 O24 1.315146 1_555
O6 P0 1.554731 1_555
O7 P0 1.554933 1_555
O8 P1 1.557995 1_555
O9 P1 1.551699 1_555
O10 P2 1.546184 1_555
O11 P3 1.546400 1_555
O12 P1 1.558423 1_565
O13 P0 1.557696 1_554
O14 P3 1.559580 1_556
O15 P2 1.559813 1_545
O16 P0 1.544788 1_555
O17 P1 1.544323 1_555
O18 P2 1.546554 1_555
O19 P2 1.556824 1_555
O20 P3 1.551092 1_555
O21 P3 1.552985 1_555
