# generated using pymatgen
data_CaP2(HO2)4
_symmetry_space_group_name_H-M   'P 1'
_cell_length_a   5.63537100
_cell_length_b   7.88772317
_cell_length_c   8.17319023
_cell_angle_alpha   107.95101441
_cell_angle_beta   107.17990750
_cell_angle_gamma   95.90102182
_symmetry_Int_Tables_number   1
_chemical_formula_structural   CaP2(HO2)4
_chemical_formula_sum   'Ca2 P4 H8 O16'
_cell_volume   322.59689041
_cell_formula_units_Z   2
loop_
 _symmetry_equiv_pos_site_id
 _symmetry_equiv_pos_as_xyz
  1  'x, y, z'
loop_
 _atom_site_type_symbol
 _atom_site_label
 _atom_site_symmetry_multiplicity
 _atom_site_fract_x
 _atom_site_fract_y
 _atom_site_fract_z
 _atom_site_occupancy
  Ca  Ca0  1  0.20028100  0.32100100  0.44962400  1
  Ca  Ca1  1  0.79971900  0.67899900  0.55037600  1
  P  P0  1  0.80295300  0.27693800  0.68842300  1
  P  P1  1  0.46463700  0.26282100  0.14210600  1
  P  P2  1  0.53536300  0.73717900  0.85789400  1
  P  P3  1  0.19704700  0.72306200  0.31157700  1
  H  H0  1  0.82622500  0.98452900  0.94592400  1
  H  H1  1  0.12428700  0.14884400  0.75970500  1
  H  H2  1  0.59581300  0.33834500  0.93741600  1
  H  H3  1  0.50000000  0.00000000  0.00000000  1
  H  H4  1  0.00000000  0.50000000  0.00000000  1
  H  H5  1  0.40418700  0.66165500  0.06258400  1
  H  H6  1  0.87571300  0.85115600  0.24029500  1
  H  H7  1  0.17377500  0.01547100  0.05407600  1
  O  O0  1  0.94532800  0.10555700  0.67711100  1
  O  O1  1  0.42616200  0.31209900  0.96576600  1
  O  O2  1  0.52785600  0.20044600  0.57325400  1
  O  O3  1  0.83201200  0.36795500  0.89716100  1
  O  O4  1  0.19007100  0.14751100  0.11244100  1
  O  O5  1  0.64215400  0.12515500  0.13937300  1
  O  O6  1  0.95227900  0.41087900  0.63225400  1
  O  O7  1  0.48335700  0.58056100  0.68332700  1
  O  O8  1  0.51664300  0.41943900  0.31667300  1
  O  O9  1  0.04772100  0.58912100  0.36774600  1
  O  O10  1  0.35784600  0.87484500  0.86062700  1
  O  O11  1  0.80992900  0.85248900  0.88755900  1
  O  O12  1  0.16798800  0.63204500  0.10283900  1
  O  O13  1  0.47214400  0.79955400  0.42674600  1
  O  O14  1  0.57383800  0.68790100  0.03423400  1
  O  O15  1  0.05467200  0.89444300  0.32288900  1
loop_
_geom_bond_atom_site_label_1
_geom_bond_atom_site_label_2
_geom_bond_distance
_geom_bond_site_symmetry_2
Ca0 O2 2.276898 1_555
Ca0 O6 2.338312 1_455
Ca0 O7 2.345789 1_555
Ca0 O8 2.518325 1_555
Ca0 O9 2.562413 1_555
Ca0 O4 2.652590 1_555
Ca1 O13 2.276898 1_555
Ca1 O9 2.338312 1_655
Ca1 O8 2.345789 1_555
Ca1 O7 2.518325 1_555
Ca1 O6 2.562413 1_555
Ca1 O11 2.652590 1_555
H0 O11 0.984333 1_555
H1 O0 0.987065 1_455
H2 O1 1.063160 1_555
H2 O3 1.475363 1_555
H3 O5 1.232489 1_555
H3 O10 1.232489 1_544
H4 O12 1.214514 1_555
H4 O3 1.214514 1_454
H5 O14 1.063160 1_555
H5 O12 1.475363 1_555
H6 O15 0.987065 1_655
H7 O4 0.984333 1_555
O0 P0 1.633851 1_555
O1 P1 1.566321 1_556
O2 P0 1.499652 1_555
O3 P0 1.583872 1_555
O4 P1 1.622712 1_555
O5 P1 1.549830 1_555
O6 P0 1.542542 1_555
O7 P2 1.496579 1_555
O8 P1 1.496579 1_555
O9 P3 1.542542 1_555
O10 P2 1.549830 1_555
O11 P2 1.622712 1_555
O12 P3 1.583872 1_555
O13 P3 1.499652 1_555
O14 P2 1.566321 1_554
O15 P3 1.633851 1_555
