# generated using pymatgen
data_LiFe2(SiO4)2
_symmetry_space_group_name_H-M   'P 1'
_cell_length_a   8.77183900
_cell_length_b   8.78566741
_cell_length_c   8.78976415
_cell_angle_alpha   108.59114563
_cell_angle_beta   107.98943500
_cell_angle_gamma   107.43207628
_symmetry_Int_Tables_number   1
_chemical_formula_structural   LiFe2(SiO4)2
_chemical_formula_sum   'Li3 Fe6 Si6 O24'
_cell_volume   547.91085710
_cell_formula_units_Z   3
loop_
 _symmetry_equiv_pos_site_id
 _symmetry_equiv_pos_as_xyz
  1  'x, y, z'
loop_
 _atom_site_type_symbol
 _atom_site_label
 _atom_site_symmetry_multiplicity
 _atom_site_fract_x
 _atom_site_fract_y
 _atom_site_fract_z
 _atom_site_occupancy
  Li  Li0  1  0.06130300  0.45758000  0.23210100  1
  Li  Li1  1  0.23292500  0.05632300  0.45590600  1
  Li  Li2  1  0.53723400  0.77260600  0.93897700  1
  Fe  Fe0  1  0.89266100  0.71877300  0.13004600  1
  Fe  Fe1  1  0.43459800  0.62179500  0.21683000  1
  Fe  Fe2  1  0.62073000  0.21107100  0.42874100  1
  Fe  Fe3  1  0.13646500  0.90184300  0.72976700  1
  Fe  Fe4  1  0.20085100  0.42849900  0.61322200  1
  Fe  Fe5  1  0.72155000  0.13372600  0.89770300  1
  Si  Si0  1  0.27867200  0.86850900  0.10546300  1
  Si  Si1  1  0.79885200  0.57226800  0.38380200  1
  Si  Si2  1  0.87308500  0.09956600  0.27046500  1
  Si  Si3  1  0.37914800  0.78967300  0.57353400  1
  Si  Si4  1  0.56454700  0.38711800  0.78634500  1
  Si  Si5  1  0.09831700  0.28333400  0.87549200  1
  O  O0  1  0.96353100  0.96233800  0.28775600  1
  O  O1  1  0.39690300  0.75315400  0.08841800  1
  O  O2  1  0.07742900  0.74279000  0.06477900  1
  O  O3  1  0.90155600  0.57687900  0.25499900  1
  O  O4  1  0.30228800  0.38742900  0.03982900  1
  O  O5  1  0.73833200  0.02964000  0.05911500  1
  O  O6  1  0.66572400  0.66552200  0.34412500  1
  O  O7  1  0.67488800  0.36646900  0.33373900  1
  O  O8  1  0.31647400  0.65446000  0.36453500  1
  O  O9  1  0.94554200  0.67492000  0.59486200  1
  O  O10  1  0.74737400  0.08591700  0.37646400  1
  O  O11  1  0.58872600  0.93671900  0.67189300  1
  O  O12  1  0.37861600  0.03641700  0.31116000  1
  O  O13  1  0.25792400  0.90202100  0.58291400  1
  O  O14  1  0.03380500  0.30478100  0.36410400  1
  O  O15  1  0.66473100  0.34993000  0.65896500  1
  O  O16  1  0.35034100  0.67010000  0.68344800  1
  O  O17  1  0.35364800  0.31482400  0.65033500  1
  O  O18  1  0.65607700  0.60079300  0.93328500  1
  O  O19  1  0.27877300  0.94311200  0.95801700  1
  O  O20  1  0.96134300  0.28581700  0.96816400  1
  O  O21  1  0.07930900  0.38337900  0.74672800  1
  O  O22  1  0.59423500  0.26958000  0.89589000  1
  O  O23  1  0.06101100  0.08026300  0.75532800  1
loop_
_geom_bond_atom_site_label_1
_geom_bond_atom_site_label_2
_geom_bond_distance
_geom_bond_site_symmetry_2
Li0 O3 2.005570 1_455
Li0 O8 2.035701 1_555
Li0 O20 2.036335 1_454
Li0 O14 2.044161 1_555
Li1 O13 2.030771 1_545
Li1 O17 2.041157 1_555
Li1 O12 2.068544 1_555
Li1 O0 2.084670 1_445
Li2 O16 2.023515 1_555
Li2 O5 2.066041 1_566
Li2 O1 2.070201 1_556
Li2 O18 2.072366 1_555
Fe0 O2 1.856632 1_655
Fe0 O3 1.909146 1_555
Fe0 O0 1.914791 1_555
Fe0 O18 1.929623 1_554
Fe1 O6 1.835195 1_555
Fe1 O4 1.848640 1_555
Fe1 O1 1.882526 1_555
Fe1 O8 1.900812 1_555
Fe2 O7 1.835846 1_555
Fe2 O10 1.838283 1_555
Fe2 O15 1.842175 1_555
Fe2 O12 1.900956 1_555
Fe3 O19 1.852801 1_555
Fe3 O23 1.853279 1_565
Fe3 O9 1.857699 1_455
Fe3 O13 1.910772 1_555
Fe4 O21 1.867367 1_555
Fe4 O16 1.898155 1_555
Fe4 O17 1.907865 1_555
Fe4 O14 1.915610 1_555
Fe5 O11 1.861616 1_545
Fe5 O22 1.863290 1_555
Fe5 O20 1.891326 1_555
Fe5 O5 1.910432 1_556
O0 Si2 1.649719 1_565
O1 Si0 1.659537 1_555
O2 Si0 1.629126 1_555
O3 Si1 1.653001 1_555
O4 Si5 1.644705 1_554
O5 Si2 1.645167 1_555
O6 Si1 1.631090 1_555
O7 Si1 1.632286 1_555
O8 Si3 1.637553 1_555
O9 Si1 1.635272 1_555
O10 Si2 1.650777 1_555
O11 Si3 1.636832 1_555
O12 Si0 1.661058 1_545
O13 Si3 1.656177 1_555
O14 Si2 1.652199 1_455
O15 Si4 1.636816 1_555
O16 Si3 1.655216 1_555
O17 Si4 1.643400 1_555
O18 Si4 1.657513 1_555
O19 Si0 1.628266 1_556
O20 Si5 1.648191 1_655
O21 Si5 1.639183 1_555
O22 Si4 1.643639 1_555
O23 Si5 1.625082 1_555
