# generated using pymatgen
data_Li(NiO2)2
_symmetry_space_group_name_H-M   'P 1'
_cell_length_a   5.67031500
_cell_length_b   5.67045049
_cell_length_c   9.42798000
_cell_angle_alpha   89.99920753
_cell_angle_beta   90.00017410
_cell_angle_gamma   59.99852115
_symmetry_Int_Tables_number   1
_chemical_formula_structural   Li(NiO2)2
_chemical_formula_sum   'Li4 Ni8 O16'
_cell_volume   262.52312247
_cell_formula_units_Z   4
loop_
 _symmetry_equiv_pos_site_id
 _symmetry_equiv_pos_as_xyz
  1  'x, y, z'
loop_
 _atom_site_type_symbol
 _atom_site_label
 _atom_site_symmetry_multiplicity
 _atom_site_fract_x
 _atom_site_fract_y
 _atom_site_fract_z
 _atom_site_occupancy
  Li  Li0  1  0.66668500  0.66666100  0.88881100  1
  Li  Li1  1  0.33330900  0.33336000  0.38879500  1
  Li  Li2  1  0.99998400  0.00003200  0.99693400  1
  Li  Li3  1  0.99999700  0.00000400  0.49694500  1
  Ni  Ni0  1  0.66662600  0.66668600  0.48965100  1
  Ni  Ni1  1  0.33332500  0.33333200  0.98964600  1
  Ni  Ni2  1  0.83104600  0.83108600  0.21520500  1
  Ni  Ni3  1  0.66214300  0.16892800  0.71520300  1
  Ni  Ni4  1  0.33784500  0.83108900  0.21520500  1
  Ni  Ni5  1  0.83105400  0.33787800  0.21522500  1
  Ni  Ni6  1  0.16893100  0.16894500  0.71520300  1
  Ni  Ni7  1  0.16893600  0.66214000  0.71521100  1
  O  O0  1  0.66666100  0.66667800  0.11267500  1
  O  O1  1  0.33334800  0.33333500  0.61265700  1
  O  O2  1  0.99998000  0.00000000  0.30801400  1
  O  O3  1  0.99998300  0.00000700  0.80800600  1
  O  O4  1  0.31771300  0.84114600  0.60575900  1
  O  O5  1  0.84113700  0.31771000  0.60575700  1
  O  O6  1  0.15883100  0.15887300  0.10577600  1
  O  O7  1  0.84114000  0.84116200  0.60576100  1
  O  O8  1  0.15876300  0.68236100  0.10577900  1
  O  O9  1  0.68230000  0.15885500  0.10577000  1
  O  O10  1  0.51699600  0.51701000  0.33166200  1
  O  O11  1  0.51699100  0.96601200  0.33162300  1
  O  O12  1  0.96595000  0.51703200  0.33166200  1
  O  O13  1  0.03400800  0.48299500  0.83166100  1
  O  O14  1  0.48301200  0.03399700  0.83162200  1
  O  O15  1  0.48300100  0.48298600  0.83162200  1
loop_
_geom_bond_atom_site_label_1
_geom_bond_atom_site_label_2
_geom_bond_distance
_geom_bond_site_symmetry_2
Li0 O13 1.882524 1_655
Li0 O14 1.882717 1_565
Li0 O15 1.882856 1_555
Li0 O0 2.110585 1_556
Li1 O10 1.882595 1_555
Li1 O12 1.882636 1_455
Li1 O11 1.882746 1_545
Li1 O1 2.110566 1_555
Li2 O3 1.781209 1_555
Li2 O8 1.867230 1_646
Li2 O9 1.867230 1_556
Li2 O6 1.867318 1_656
Li3 O2 1.781238 1_555
Li3 O7 1.867218 1_545
Li3 O4 1.867228 1_645
Li3 O5 1.867233 1_555
Ni0 O4 2.033208 1_555
Ni0 O5 2.033466 1_555
Ni0 O7 2.033581 1_555
Ni0 O10 2.092614 1_555
Ni0 O12 2.092646 1_555
Ni0 O11 2.092909 1_555
Ni1 O6 2.033518 1_556
Ni1 O9 2.033524 1_556
Ni1 O8 2.033855 1_556
Ni1 O13 2.092571 1_555
Ni1 O15 2.092919 1_555
Ni1 O14 2.092951 1_555
Ni2 O2 1.875685 1_565
Ni2 O0 1.881864 1_555
Ni2 O11 1.897046 1_555
Ni2 O12 1.897271 1_555
Ni2 O8 1.913506 1_655
Ni2 O9 1.913777 1_565
Ni3 O3 1.875560 1_555
Ni3 O1 1.881888 1_555
Ni3 O15 1.897099 1_555
Ni3 O14 1.897104 1_555
Ni3 O7 1.913819 1_545
Ni3 O5 1.913874 1_555
Ni4 O2 1.875713 1_465
Ni4 O0 1.881918 1_555
Ni4 O11 1.897139 1_555
Ni4 O10 1.897357 1_555
Ni4 O6 1.913799 1_565
Ni4 O8 1.913940 1_555
Ni5 O2 1.875694 1_555
Ni5 O0 1.881956 1_555
Ni5 O10 1.897162 1_555
Ni5 O12 1.897182 1_555
Ni5 O6 1.913866 1_655
Ni5 O9 1.913946 1_555
Ni6 O3 1.875814 1_455
Ni6 O1 1.881990 1_555
Ni6 O14 1.897133 1_555
Ni6 O13 1.897283 1_555
Ni6 O5 1.913906 1_455
Ni6 O4 1.913972 1_545
Ni7 O3 1.875700 1_465
Ni7 O1 1.882026 1_555
Ni7 O15 1.897032 1_555
Ni7 O13 1.897323 1_555
Ni7 O7 1.913930 1_455
Ni7 O4 1.913938 1_555
