# generated using pymatgen
data_NaLi3Ti2Cr2(PO4)6
_symmetry_space_group_name_H-M   'P 1'
_cell_length_a   8.88418246
_cell_length_b   8.88418246
_cell_length_c   8.88418259
_cell_angle_alpha   56.98487422
_cell_angle_beta   56.98487422
_cell_angle_gamma   56.98487608
_symmetry_Int_Tables_number   1
_chemical_formula_structural   NaLi3Ti2Cr2(PO4)6
_chemical_formula_sum   'Na1 Li3 Ti2 Cr2 P6 O24'
_cell_volume   461.36129979
_cell_formula_units_Z   1
loop_
 _symmetry_equiv_pos_site_id
 _symmetry_equiv_pos_as_xyz
  1  'x, y, z'
loop_
 _atom_site_type_symbol
 _atom_site_label
 _atom_site_symmetry_multiplicity
 _atom_site_fract_x
 _atom_site_fract_y
 _atom_site_fract_z
 _atom_site_occupancy
  Na  Na0  1  0.00577700  0.00577700  0.00577700  1
  Li  Li0  1  0.27504500  0.90609800  0.65301200  1
  Li  Li1  1  0.65301200  0.27504500  0.90609800  1
  Li  Li2  1  0.90609800  0.65301200  0.27504500  1
  Ti  Ti0  1  0.35843400  0.35843400  0.35843400  1
  Ti  Ti1  1  0.14422500  0.14422500  0.14422500  1
  Cr  Cr0  1  0.85439100  0.85439100  0.85439100  1
  Cr  Cr1  1  0.64967400  0.64967400  0.64967400  1
  P  P0  1  0.24610800  0.53839600  0.96898800  1
  P  P1  1  0.03365100  0.75437800  0.46007900  1
  P  P2  1  0.46007900  0.03365100  0.75437800  1
  P  P3  1  0.53839600  0.96898800  0.24610800  1
  P  P4  1  0.96898800  0.24610800  0.53839600  1
  P  P5  1  0.75437800  0.46007900  0.03365100  1
  O  O0  1  0.46431200  0.85036400  0.76586000  1
  O  O1  1  0.76586000  0.46431200  0.85036400  1
  O  O2  1  0.19028900  0.38382000  0.00097500  1
  O  O3  1  0.11439100  0.74587400  0.88338500  1
  O  O4  1  0.85036400  0.76586000  0.46431200  1
  O  O5  1  0.25925600  0.10808200  0.89799700  1
  O  O6  1  0.00427100  0.80075700  0.61663900  1
  O  O7  1  0.45456200  0.51156000  0.82714400  1
  O  O8  1  0.18652600  0.54890100  0.47061200  1
  O  O9  1  0.61663900  0.00427100  0.80075700  1
  O  O10  1  0.10808200  0.89799700  0.25925600  1
  O  O11  1  0.47061200  0.18652600  0.54890100  1
  O  O12  1  0.51156000  0.82714400  0.45456200  1
  O  O13  1  0.88338500  0.11439100  0.74587400  1
  O  O14  1  0.38382000  0.00097500  0.19028900  1
  O  O15  1  0.82714400  0.45456200  0.51156000  1
  O  O16  1  0.54890100  0.47061200  0.18652600  1
  O  O17  1  0.00097500  0.19028900  0.38382000  1
  O  O18  1  0.74587400  0.88338500  0.11439100  1
  O  O19  1  0.16845200  0.21021700  0.52318400  1
  O  O20  1  0.89799700  0.25925600  0.10808200  1
  O  O21  1  0.80075700  0.61663900  0.00427100  1
  O  O22  1  0.21021700  0.52318400  0.16845200  1
  O  O23  1  0.52318400  0.16845200  0.21021700  1
loop_
_geom_bond_atom_site_label_1
_geom_bond_atom_site_label_2
_geom_bond_distance
_geom_bond_site_symmetry_2
Na0 O5 2.397189 1_554
Na0 O20 2.397189 1_455
Na0 O10 2.397189 1_545
Na0 O18 2.570930 1_445
Na0 O3 2.570930 1_544
Na0 O13 2.570930 1_454
Li0 O12 1.928766 1_555
Li0 O3 2.026866 1_555
Li0 O0 2.113406 1_555
Li0 O19 2.129149 1_565
Li1 O7 1.928766 1_555
Li1 O13 2.026866 1_555
Li1 O1 2.113406 1_555
Li1 O23 2.129149 1_556
Li2 O15 1.928766 1_555
Li2 O18 2.026866 1_555
Li2 O4 2.113406 1_555
Li2 O22 2.129149 1_655
Cr0 O21 1.949891 1_556
Cr0 O6 1.949891 1_655
Cr0 O9 1.949891 1_565
Cr0 O13 2.069403 1_565
Cr0 O3 2.069403 1_655
Cr0 O18 2.069403 1_556
Cr1 O4 1.977354 1_555
Cr1 O1 1.977354 1_555
Cr1 O0 1.977354 1_555
Cr1 O7 2.056103 1_555
Cr1 O12 2.056103 1_555
Cr1 O15 2.056103 1_555
O0 P2 1.555571 1_565
O1 P5 1.555571 1_556
O2 P0 1.541383 1_554
O2 Ti1 1.935917 1_555
O3 P0 1.561111 1_555
O4 P1 1.555571 1_655
O5 P2 1.549692 1_555
O5 Ti1 1.975984 1_556
O6 P1 1.511369 1_555
O7 P0 1.541968 1_555
O8 P1 1.560891 1_555
O8 Ti0 1.884664 1_555
O9 P2 1.511369 1_555
O10 P1 1.549692 1_555
O10 Ti1 1.975984 1_565
O11 P2 1.560891 1_555
O11 Ti0 1.884664 1_555
O12 P3 1.541968 1_555
O13 P4 1.561111 1_555
O14 P3 1.541383 1_545
O14 Ti1 1.935917 1_555
O15 P4 1.541968 1_555
O16 P5 1.560891 1_555
O16 Ti0 1.884664 1_555
O17 P4 1.541383 1_455
O17 Ti1 1.935917 1_555
O18 P3 1.561111 1_555
O19 P4 1.558982 1_455
O19 Ti0 2.086773 1_555
O20 P5 1.549692 1_555
O20 Ti1 1.975984 1_655
O21 P5 1.511369 1_555
O22 P0 1.558982 1_554
O22 Ti0 2.086773 1_555
O23 P3 1.558982 1_545
O23 Ti0 2.086773 1_555
