# generated using pymatgen
data_Sr2HfO4
_symmetry_space_group_name_H-M   'P 1'
_cell_length_a   6.99508816
_cell_length_b   6.99508816
_cell_length_c   6.99508816
_cell_angle_alpha   146.10092834
_cell_angle_beta   146.10092834
_cell_angle_gamma   48.69687488
_symmetry_Int_Tables_number   1
_chemical_formula_structural   Sr2HfO4
_chemical_formula_sum   'Sr2 Hf1 O4'
_cell_volume   106.01044178
_cell_formula_units_Z   1
loop_
 _symmetry_equiv_pos_site_id
 _symmetry_equiv_pos_as_xyz
  1  'x, y, z'
loop_
 _atom_site_type_symbol
 _atom_site_label
 _atom_site_symmetry_multiplicity
 _atom_site_fract_x
 _atom_site_fract_y
 _atom_site_fract_z
 _atom_site_occupancy
  Sr  Sr0  1  0.64732453  0.64732453  0.00000000  1
  Sr  Sr1  1  0.35267547  0.35267547  -0.00000000  1
  Hf  Hf0  1  0.00000000  -0.00000000  -0.00000000  1
  O  O0  1  0.50000000  -0.00000000  0.50000000  1
  O  O1  1  0.00000000  0.50000000  0.50000000  1
  O  O2  1  0.83630069  0.83630069  0.00000000  1
  O  O3  1  0.16369931  0.16369931  -0.00000000  1
loop_
_geom_bond_atom_site_label_1
_geom_bond_atom_site_label_2
_geom_bond_distance
_geom_bond_site_symmetry_2
Hf0 O0 2.039273 1_555
Hf0 O0 2.039273 1_454
Hf0 O1 2.039273 1_555
Hf0 O1 2.039273 1_544
Hf0 O2 2.086482 1_445
Hf0 O3 2.086482 1_555
O0 Sr1 2.772123 1_556
O0 Sr0 2.772123 1_545
O0 Sr1 2.772123 1_545
O0 Sr0 2.772123 1_556
O1 Sr1 2.772123 1_556
O1 Sr0 2.772123 1_455
O1 Sr0 2.772123 1_556
O1 Sr1 2.772123 1_455
O2 Sr0 2.408656 1_555
O2 Sr1 2.891510 1_565
O2 Sr1 2.891510 1_666
O2 Sr1 2.891510 1_554
O2 Sr1 2.891510 1_655
O3 Sr1 2.408656 1_555
O3 Sr0 2.891510 1_556
O3 Sr0 2.891510 1_444
O3 Sr0 2.891510 1_545
O3 Sr0 2.891510 1_455
