# generated using pymatgen
data_KPH3O3F
_symmetry_space_group_name_H-M   'P 1'
_cell_length_a   10.94555000
_cell_length_b   6.53696000
_cell_length_c   7.92774096
_cell_angle_alpha   55.34083694
_cell_angle_beta   90.00000000
_cell_angle_gamma   90.00000000
_symmetry_Int_Tables_number   1
_chemical_formula_structural   KPH3O3F
_chemical_formula_sum   'K4 P4 H12 O12 F4'
_cell_volume   466.57874748
_cell_formula_units_Z   4
loop_
 _symmetry_equiv_pos_site_id
 _symmetry_equiv_pos_as_xyz
  1  'x, y, z'
loop_
 _atom_site_type_symbol
 _atom_site_label
 _atom_site_symmetry_multiplicity
 _atom_site_fract_x
 _atom_site_fract_y
 _atom_site_fract_z
 _atom_site_occupancy
  K  K0  1  0.32071300  0.93478100  0.44985600  1
  K  K1  1  0.82071300  0.06521900  0.05014400  1
  K  K2  1  0.67928700  0.06521900  0.55014400  1
  K  K3  1  0.17928700  0.93478100  0.94985600  1
  P  P0  1  0.04749300  0.59555900  0.70619200  1
  P  P1  1  0.54749300  0.40444100  0.79380800  1
  P  P2  1  0.95250700  0.40444100  0.29380800  1
  P  P3  1  0.45250700  0.59555900  0.20619200  1
  H  H0  1  0.94747800  0.71501400  0.72707200  1
  H  H1  1  0.44747800  0.28498600  0.77292800  1
  H  H2  1  0.05252200  0.28498600  0.27292800  1
  H  H3  1  0.55252200  0.71501400  0.22707200  1
  H  H4  1  0.03965000  0.71688100  0.37930600  1
  H  H5  1  0.53965000  0.28311900  0.12069400  1
  H  H6  1  0.96035000  0.28311900  0.62069400  1
  H  H7  1  0.46035000  0.71688100  0.87930600  1
  H  H8  1  0.22138500  0.41028800  0.94926100  1
  H  H9  1  0.72138500  0.58971200  0.55073900  1
  H  H10  1  0.77861500  0.58971200  0.05073900  1
  H  H11  1  0.27861500  0.41028800  0.44926100  1
  O  O0  1  0.01048100  0.33376100  0.77768100  1
  O  O1  1  0.51048100  0.66623900  0.72231900  1
  O  O2  1  0.98951900  0.66623900  0.22231900  1
  O  O3  1  0.48951900  0.33376100  0.27768100  1
  O  O4  1  0.08037900  0.76539000  0.46877200  1
  O  O5  1  0.58037900  0.23461000  0.03122800  1
  O  O6  1  0.91962100  0.23461000  0.53122800  1
  O  O7  1  0.41962100  0.76539000  0.96877200  1
  O  O8  1  0.15621300  0.61559600  0.81850400  1
  O  O9  1  0.65621300  0.38440400  0.68149600  1
  O  O10  1  0.84378700  0.38440400  0.18149600  1
  O  O11  1  0.34378700  0.61559600  0.31850400  1
  F  F0  1  0.27286400  0.24919900  0.04875300  1
  F  F1  1  0.77286400  0.75080100  0.45124700  1
  F  F2  1  0.72713600  0.75080100  0.95124700  1
  F  F3  1  0.22713600  0.24919900  0.54875300  1
loop_
_geom_bond_atom_site_label_1
_geom_bond_atom_site_label_2
_geom_bond_distance
_geom_bond_site_symmetry_2
K0 O1 2.783691 1_555
K0 O11 2.823624 1_555
K0 O4 2.824842 1_555
K0 O3 2.833764 1_565
K0 O8 3.033323 1_555
K1 O0 2.783691 1_654
K1 O10 2.823624 1_555
K1 O5 2.824842 1_555
K1 O2 2.833764 1_545
K1 O9 3.033323 1_554
K2 O3 2.783691 1_555
K2 O9 2.823624 1_555
K2 O6 2.824842 1_555
K2 O1 2.833764 1_545
K2 O10 3.033323 1_555
K3 O2 2.783691 1_456
K3 O8 2.823624 1_555
K3 O7 2.824842 1_555
K3 O0 2.833764 1_565
K3 O11 3.033323 1_556
H0 P0 1.408045 1_655
H1 P1 1.408045 1_555
H2 P2 1.408045 1_455
H3 P3 1.408045 1_555
H4 O4 1.028666 1_555
H4 O2 1.558265 1_455
H5 O5 1.028666 1_555
H5 O3 1.558265 1_555
H6 O6 1.028666 1_555
H6 O0 1.558265 1_655
H7 O7 1.028666 1_555
H7 O1 1.558265 1_555
H8 O8 1.342484 1_555
H9 O9 1.342484 1_555
H10 O10 1.342484 1_555
H11 O11 1.342484 1_555
O0 P0 1.520172 1_555
O1 P1 1.520172 1_555
O2 P2 1.520172 1_555
O3 P3 1.520172 1_555
O4 P0 1.589998 1_555
O5 P1 1.589998 1_554
O6 P2 1.589998 1_555
O7 P3 1.589998 1_556
O8 P0 1.535799 1_555
O9 P1 1.535799 1_555
O10 P2 1.535799 1_555
O11 P3 1.535799 1_555
F0 H8 1.050622 1_554
F0 K0 2.678906 1_545
F0 K3 2.778677 1_544
F1 H9 1.050622 1_555
F1 K1 2.678906 1_565
F1 K2 2.778677 1_565
F2 H10 1.050622 1_556
F2 K2 2.678906 1_565
F2 K1 2.778677 1_566
F3 H11 1.050622 1_555
F3 K3 2.678906 1_545
F3 K0 2.778677 1_545
