# generated using pymatgen
data_VP2O7
_symmetry_space_group_name_H-M   'P 1'
_cell_length_a   6.36737800
_cell_length_b   9.48059272
_cell_length_c   10.59635347
_cell_angle_alpha   115.32051201
_cell_angle_beta   85.42210027
_cell_angle_gamma   106.45833627
_symmetry_Int_Tables_number   1
_chemical_formula_structural   VP2O7
_chemical_formula_sum   'V4 P8 O28'
_cell_volume   553.88901835
_cell_formula_units_Z   4
loop_
 _symmetry_equiv_pos_site_id
 _symmetry_equiv_pos_as_xyz
  1  'x, y, z'
loop_
 _atom_site_type_symbol
 _atom_site_label
 _atom_site_symmetry_multiplicity
 _atom_site_fract_x
 _atom_site_fract_y
 _atom_site_fract_z
 _atom_site_occupancy
  V  V0  1  0.62733300  0.50185800  0.24248700  1
  V  V1  1  0.36964000  0.48769800  0.75111900  1
  V  V2  1  0.73064700  0.09447900  0.22156300  1
  V  V3  1  0.27145100  0.89589300  0.77591800  1
  P  P0  1  0.94457000  0.81663400  0.21990600  1
  P  P1  1  0.30960100  0.79772500  0.03385900  1
  P  P2  1  0.89131500  0.55014800  0.69886400  1
  P  P3  1  0.10632100  0.44074500  0.29609000  1
  P  P4  1  0.05571400  0.17223400  0.77573000  1
  P  P5  1  0.40794300  0.67861600  0.53898400  1
  P  P6  1  0.69238700  0.19143600  0.96231500  1
  P  P7  1  0.58958200  0.31440800  0.45589300  1
  O  O0  1  0.19063300  0.54395800  0.45871800  1
  O  O1  1  0.92530300  0.26248200  0.91377100  1
  O  O2  1  0.06544200  0.88271300  0.35431800  1
  O  O3  1  0.42673100  0.67159100  0.68204200  1
  O  O4  1  0.12545800  0.05360400  0.81728700  1
  O  O5  1  0.72767900  0.67193500  0.19561600  1
  O  O6  1  0.73093900  0.10561400  0.05147900  1
  O  O7  1  0.94141600  0.51184600  0.26578000  1
  O  O8  1  0.64142100  0.14849400  0.40813700  1
  O  O9  1  0.59745400  0.65086100  0.44477600  1
  O  O10  1  0.68299600  0.52980000  0.78032200  1
  O  O11  1  0.45351400  0.91953200  0.16241700  1
  O  O12  1  0.31392200  0.45888100  0.21350100  1
  O  O13  1  0.98982700  0.72538500  0.71859000  1
  O  O14  1  0.27043400  0.31775900  0.79761800  1
  O  O15  1  0.80553300  0.45102900  0.53592700  1
  O  O16  1  0.93293300  0.10300000  0.64148500  1
  O  O17  1  0.27139000  0.88488600  0.94579700  1
  O  O18  1  0.35665200  0.84470200  0.58846000  1
  O  O19  1  0.07626500  0.72739000  0.08230500  1
  O  O20  1  0.00948100  0.26683700  0.28059300  1
  O  O21  1  0.39355700  0.65275100  0.94216500  1
  O  O22  1  0.60524800  0.33561100  0.05204300  1
  O  O23  1  0.88104400  0.93925400  0.18041500  1
  O  O24  1  0.05508100  0.47572700  0.72571000  1
  O  O25  1  0.39872800  0.34098500  0.54905400  1
  O  O26  1  0.57042400  0.31987900  0.31251500  1
  O  O27  1  0.55109300  0.06761200  0.83322400  1
loop_
_geom_bond_atom_site_label_1
_geom_bond_atom_site_label_2
_geom_bond_distance
_geom_bond_site_symmetry_2
O0 P5 1.589326 1_555
O0 P3 1.619569 1_555
O1 P6 1.589437 1_555
O1 P4 1.642971 1_655
O2 P0 1.466948 1_455
O3 P5 1.560929 1_555
O3 V1 2.096990 1_555
O3 V3 2.390431 1_555
O4 P4 1.547219 1_555
O4 V3 1.858441 1_545
O5 P0 1.592675 1_555
O5 V0 1.818082 1_555
O6 P6 1.556501 1_554
O6 V2 1.849708 1_555
O7 P3 1.516622 1_655
O7 V0 2.005225 1_555
O8 P7 1.557537 1_555
O8 V2 1.900827 1_555
O9 P5 1.511558 1_555
O9 V0 2.030658 1_555
O10 P2 1.535052 1_555
O10 V1 1.943646 1_555
O11 P1 1.510971 1_555
O11 V2 1.971439 1_565
O12 P3 1.535593 1_555
O12 V0 1.942385 1_555
O13 P2 1.526642 1_555
O13 V3 1.972088 1_655
O14 P4 1.592038 1_555
O14 V1 1.813882 1_555
O15 P7 1.589026 1_555
O15 P2 1.623036 1_555
O16 P4 1.467535 1_655
O17 P1 1.556437 1_556
O17 V3 1.847101 1_555
O18 P5 1.555253 1_555
O18 V3 1.904757 1_555
O19 P1 1.589109 1_555
O19 P0 1.642140 1_455
O20 P3 1.527767 1_555
O20 V2 1.967913 1_455
O21 P1 1.519884 1_556
O21 V1 1.942818 1_555
O22 P6 1.521207 1_554
O22 V0 1.943044 1_555
O23 P0 1.549105 1_555
O23 V2 1.859006 1_565
O24 P2 1.517234 1_455
O24 V1 2.007034 1_555
O25 P7 1.511305 1_555
O25 V1 2.022067 1_555
O26 P7 1.557681 1_555
O26 V0 2.087192 1_555
O26 V2 2.419267 1_555
O27 P6 1.510991 1_555
O27 V3 1.968259 1_545
