# generated using pymatgen
data_Ba2YI7
_symmetry_space_group_name_H-M   'P 1'
_cell_length_a   18.83387500
_cell_length_b   8.38660200
_cell_length_c   15.63044737
_cell_angle_alpha   60.84768328
_cell_angle_beta   90.00000000
_cell_angle_gamma   90.00000000
_symmetry_Int_Tables_number   1
_chemical_formula_structural   Ba2YI7
_chemical_formula_sum   'Ba8 Y4 I28'
_cell_volume   2156.12732550
_cell_formula_units_Z   4
loop_
 _symmetry_equiv_pos_site_id
 _symmetry_equiv_pos_as_xyz
  1  'x, y, z'
loop_
 _atom_site_type_symbol
 _atom_site_label
 _atom_site_symmetry_multiplicity
 _atom_site_fract_x
 _atom_site_fract_y
 _atom_site_fract_z
 _atom_site_occupancy
  Ba  Ba0  1  0.97437500  0.00864600  0.31324200  1
  Ba  Ba1  1  0.72998700  0.78931100  0.46771800  1
  Ba  Ba2  1  0.22998700  0.21068900  0.03228200  1
  Ba  Ba3  1  0.47437500  0.99135400  0.18675800  1
  Ba  Ba4  1  0.52562500  0.00864600  0.81324200  1
  Ba  Ba5  1  0.77001300  0.78931100  0.96771800  1
  Ba  Ba6  1  0.27001300  0.21068900  0.53228200  1
  Ba  Ba7  1  0.02562500  0.99135400  0.68675800  1
  Y  Y0  1  0.65931800  0.41799300  0.85124300  1
  Y  Y1  1  0.15931800  0.58200700  0.64875700  1
  Y  Y2  1  0.84068200  0.41799300  0.35124300  1
  Y  Y3  1  0.34068200  0.58200700  0.14875700  1
  I  I0  1  0.78975700  0.19445700  0.25745600  1
  I  I1  1  0.80138600  0.40439100  0.94114300  1
  I  I2  1  0.39640900  0.41532500  0.02504100  1
  I  I3  1  0.01460100  0.55058200  0.73829800  1
  I  I4  1  0.68916000  0.79281800  0.68376100  1
  I  I5  1  0.11598800  0.96737600  0.47890200  1
  I  I6  1  0.56708000  0.93132300  0.38060800  1
  I  I7  1  0.06708000  0.06867700  0.11939200  1
  I  I8  1  0.61598800  0.03262400  0.02109800  1
  I  I9  1  0.18916000  0.20718200  0.81623900  1
  I  I10  1  0.89640900  0.58467500  0.47495900  1
  I  I11  1  0.51460100  0.44941800  0.76170200  1
  I  I12  1  0.28975700  0.80554300  0.24254400  1
  I  I13  1  0.30138600  0.59560900  0.55885700  1
  I  I14  1  0.69861400  0.40439100  0.44114300  1
  I  I15  1  0.71024300  0.19445700  0.75745600  1
  I  I16  1  0.48539900  0.55058200  0.23829800  1
  I  I17  1  0.10359100  0.41532500  0.52504100  1
  I  I18  1  0.81084000  0.79281800  0.18376100  1
  I  I19  1  0.38401200  0.96737600  0.97890200  1
  I  I20  1  0.93292000  0.93132300  0.88060800  1
  I  I21  1  0.43292000  0.06867700  0.61939200  1
  I  I22  1  0.88401200  0.03262400  0.52109800  1
  I  I23  1  0.31084000  0.20718200  0.31623900  1
  I  I24  1  0.98539900  0.44941800  0.26170200  1
  I  I25  1  0.60359100  0.58467500  0.97495900  1
  I  I26  1  0.19861400  0.59560900  0.05885700  1
  I  I27  1  0.21024300  0.80554300  0.74254400  1
loop_
_geom_bond_atom_site_label_1
_geom_bond_atom_site_label_2
_geom_bond_distance
_geom_bond_site_symmetry_2
Ba0 I7 3.316088 1_655
Ba0 I24 3.384595 1_555
Ba0 I10 3.525893 1_545
Ba0 I5 3.614536 1_645
Ba0 I0 3.735624 1_555
Ba0 I22 3.758804 1_555
Ba1 I6 3.332584 1_555
Ba1 I4 3.477354 1_555
Ba1 I14 3.499881 1_555
Ba1 I10 3.548689 1_555
Ba1 I0 3.568443 1_565
Ba1 I22 3.864448 1_565
Ba2 I7 3.332584 1_555
Ba2 I9 3.477354 1_554
Ba2 I26 3.499881 1_555
Ba2 I2 3.548689 1_555
Ba2 I12 3.568443 1_545
Ba2 I19 3.864448 1_544
Ba3 I6 3.316088 1_555
Ba3 I16 3.384595 1_555
Ba3 I2 3.525893 1_565
Ba3 I8 3.614536 1_565
Ba3 I12 3.735624 1_555
Ba3 I19 3.758804 1_554
Ba4 I21 3.316088 1_555
Ba4 I11 3.384595 1_555
Ba4 I25 3.525893 1_545
Ba4 I19 3.614536 1_545
Ba4 I15 3.735624 1_555
Ba4 I8 3.758804 1_556
Ba5 I20 3.332584 1_555
Ba5 I18 3.477354 1_556
Ba5 I1 3.499881 1_555
Ba5 I25 3.548689 1_555
Ba5 I15 3.568443 1_565
Ba5 I8 3.864448 1_566
Ba6 I21 3.332584 1_555
Ba6 I23 3.477354 1_555
Ba6 I13 3.499881 1_555
Ba6 I17 3.548689 1_555
Ba6 I27 3.568443 1_545
Ba6 I5 3.864448 1_545
Ba7 I20 3.316088 1_455
Ba7 I3 3.384595 1_555
Ba7 I17 3.525893 1_565
Ba7 I22 3.614536 1_465
Ba7 I27 3.735624 1_555
Ba7 I5 3.758804 1_555
I0 Y2 3.043166 1_555
I1 Y0 2.998448 1_555
I2 Y3 3.070605 1_555
I3 Y1 3.016236 1_555
I4 Y0 3.005518 1_555
I5 Y1 3.130534 1_555
I8 Y0 3.130534 1_554
I9 Y1 3.005518 1_555
I10 Y2 3.070605 1_555
I11 Y0 3.016236 1_555
I12 Y3 3.043166 1_555
I13 Y1 2.998448 1_555
I14 Y2 2.998448 1_555
I15 Y0 3.043166 1_555
I16 Y3 3.016236 1_555
I17 Y1 3.070605 1_555
I18 Y2 3.005518 1_555
I19 Y3 3.130534 1_556
I22 Y2 3.130534 1_555
I23 Y3 3.005518 1_555
I24 Y2 3.016236 1_555
I25 Y0 3.070605 1_555
I26 Y3 2.998448 1_555
I27 Y1 3.043166 1_555
