# generated using pymatgen
data_Li4Mn3Fe(BO3)4
_symmetry_space_group_name_H-M   'P 1'
_cell_length_a   5.24788900
_cell_length_b   5.25102486
_cell_length_c   20.87713532
_cell_angle_alpha   90.77322407
_cell_angle_beta   90.88309835
_cell_angle_gamma   119.84359601
_symmetry_Int_Tables_number   1
_chemical_formula_structural   Li4Mn3Fe(BO3)4
_chemical_formula_sum   'Li8 Mn6 Fe2 B8 O24'
_cell_volume   498.80593995
_cell_formula_units_Z   2
loop_
 _symmetry_equiv_pos_site_id
 _symmetry_equiv_pos_as_xyz
  1  'x, y, z'
loop_
 _atom_site_type_symbol
 _atom_site_label
 _atom_site_symmetry_multiplicity
 _atom_site_fract_x
 _atom_site_fract_y
 _atom_site_fract_z
 _atom_site_occupancy
  Li  Li0  1  0.67873700  0.65164000  0.33379200  1
  Li  Li1  1  0.65276500  0.67872900  0.08355600  1
  Li  Li2  1  0.67865900  0.65080100  0.83380600  1
  Li  Li3  1  0.65166900  0.67765100  0.58394000  1
  Li  Li4  1  0.34771300  0.33491200  0.20879200  1
  Li  Li5  1  0.33775400  0.34611700  0.45823500  1
  Li  Li6  1  0.34881200  0.33781500  0.70845800  1
  Li  Li7  1  0.33786800  0.34760800  0.95891600  1
  Mn  Mn0  1  0.66864700  0.00360000  0.44259400  1
  Mn  Mn1  1  0.67045500  0.00313100  0.94188500  1
  Mn  Mn2  1  0.32048100  0.00032300  0.06765200  1
  Mn  Mn3  1  0.00185600  0.32561900  0.31574200  1
  Mn  Mn4  1  0.00311000  0.32345200  0.81629900  1
  Mn  Mn5  1  0.00643500  0.67431400  0.69080200  1
  Fe  Fe0  1  0.31757100  0.00472200  0.56631300  1
  Fe  Fe1  1  0.00020000  0.67565400  0.19148100  1
  B  B0  1  0.99662200  0.34041900  0.06377800  1
  B  B1  1  0.99684000  0.33834600  0.56311900  1
  B  B2  1  0.66972100  0.00597700  0.18824800  1
  B  B3  1  0.66669000  0.00614500  0.68689700  1
  B  B4  1  0.34074700  0.99798700  0.31212300  1
  B  B5  1  0.34171900  0.99752300  0.81278000  1
  B  B6  1  0.00332000  0.66542100  0.43855100  1
  B  B7  1  0.00443700  0.66558500  0.93800800  1
  O  O0  1  0.93185100  0.25522400  0.20692000  1
  O  O1  1  0.93003200  0.24923700  0.70816000  1
  O  O2  1  0.74557800  0.06996600  0.04861700  1
  O  O3  1  0.96653300  0.57786000  0.08417000  1
  O  O4  1  0.74138500  0.07074300  0.54971300  1
  O  O5  1  0.97861300  0.58476100  0.58160700  1
  O  O6  1  0.41763400  0.02543200  0.17423100  1
  O  O7  1  0.73060700  0.64270200  0.43096500  1
  O  O8  1  0.42301500  0.03821400  0.67157700  1
  O  O9  1  0.73110400  0.64159200  0.93079400  1
  O  O10  1  0.65309900  0.73426700  0.18216500  1
  O  O11  1  0.64309500  0.73288700  0.68005300  1
  O  O12  1  0.36889600  0.27256000  0.30536100  1
  O  O13  1  0.37079500  0.27216900  0.80545500  1
  O  O14  1  0.27140100  0.36918900  0.05649900  1
  O  O15  1  0.57841600  0.96817400  0.33292300  1
  O  O16  1  0.26985300  0.35829500  0.55622900  1
  O  O17  1  0.57920400  0.96696700  0.83337400  1
  O  O18  1  0.03568500  0.42218200  0.42318700  1
  O  O19  1  0.03728700  0.42239500  0.92281800  1
  O  O20  1  0.24612500  0.92878400  0.45955200  1
  O  O21  1  0.24716700  0.92965100  0.95906900  1
  O  O22  1  0.07036700  0.74747800  0.29684000  1
  O  O23  1  0.07062800  0.74697900  0.79775400  1
loop_
_geom_bond_atom_site_label_1
_geom_bond_atom_site_label_2
_geom_bond_distance
_geom_bond_site_symmetry_2
Li0 O12 1.917173 1_555
Li0 O15 1.977781 1_555
Li0 O22 2.025420 1_655
Li0 O7 2.046988 1_555
Li1 O14 1.915514 1_555
Li1 O3 1.964594 1_555
Li1 O2 2.011302 1_565
Li1 O10 2.075178 1_555
Li2 O13 1.911889 1_555
Li2 O17 1.972664 1_555
Li2 O23 2.019131 1_655
Li2 O9 2.043708 1_555
Li3 O16 1.937939 1_555
Li3 O5 2.004747 1_555
Li3 O4 2.018878 1_565
Li3 O11 2.027934 1_555
Li4 O6 1.966256 1_555
Li4 O10 1.997254 1_555
Li4 O0 2.006869 1_455
Li4 O12 2.057008 1_555
Li5 O18 1.951965 1_555
Li5 O7 1.965828 1_555
Li5 O20 1.996893 1_545
Li5 O16 2.087611 1_555
Li6 O8 1.950836 1_555
Li6 O11 1.978174 1_555
Li6 O1 2.007097 1_455
Li6 O13 2.069796 1_555
Li7 O19 1.948919 1_555
Li7 O9 1.969168 1_555
Li7 O21 2.000955 1_545
Li7 O14 2.083249 1_556
Mn0 O20 2.087410 1_545
Mn0 O7 2.087898 1_545
Mn0 O18 2.130696 1_655
Mn0 O4 2.256032 1_555
Mn0 O15 2.317021 1_545
Mn1 O9 2.085861 1_545
Mn1 O21 2.094591 1_545
Mn1 O19 2.130831 1_655
Mn1 O2 2.248964 1_556
Mn1 O17 2.293874 1_545
Mn2 O14 2.092626 1_555
Mn2 O3 2.104665 1_445
Mn2 O2 2.118418 1_555
Mn2 O6 2.262399 1_555
Mn2 O21 2.287552 1_544
Mn3 O12 2.092880 1_555
Mn3 O22 2.104129 1_555
Mn3 O15 2.116886 1_445
Mn3 O18 2.277663 1_555
Mn3 O0 2.291189 1_455
Mn4 O13 2.091885 1_555
Mn4 O23 2.112958 1_555
Mn4 O17 2.116107 1_445
Mn4 O19 2.260800 1_555
Mn4 O1 2.279621 1_455
Mn5 O11 2.086404 1_455
Mn5 O1 2.099974 1_455
Mn5 O8 2.117035 1_565
Mn5 O23 2.251797 1_555
Mn5 O5 2.309081 1_455
Fe0 O16 2.006422 1_555
Fe0 O5 2.064349 1_445
Fe0 O4 2.108704 1_555
Fe0 O8 2.240949 1_555
Fe0 O20 2.251415 1_545
Fe1 O10 1.999816 1_455
Fe1 O6 2.083203 1_565
Fe1 O0 2.083526 1_455
Fe1 O22 2.220467 1_555
Fe1 O3 2.276075 1_455
B0 O14 1.384148 1_655
B0 O3 1.394417 1_555
B0 O2 1.401993 1_555
B1 O16 1.393485 1_655
B1 O5 1.393997 1_555
B1 O4 1.397510 1_555
B2 O10 1.389342 1_545
B2 O0 1.391068 1_555
B2 O6 1.403418 1_555
B3 O11 1.382653 1_545
B3 O1 1.395140 1_555
B3 O8 1.403245 1_555
B4 O12 1.383715 1_565
B4 O15 1.395782 1_555
B4 O22 1.400913 1_555
B5 O13 1.383542 1_565
B5 O17 1.395784 1_555
B5 O23 1.401959 1_555
B6 O7 1.382075 1_455
B6 O20 1.393178 1_555
B6 O18 1.403440 1_555
B7 O9 1.381696 1_455
B7 O21 1.395347 1_555
B7 O19 1.403876 1_555
