# generated using pymatgen
data_V3OF11
_symmetry_space_group_name_H-M   'P 1'
_cell_length_a   5.08883873
_cell_length_b   5.33798520
_cell_length_c   14.02441181
_cell_angle_alpha   99.61146881
_cell_angle_beta   90.01187227
_cell_angle_gamma   89.99798809
_symmetry_Int_Tables_number   1
_chemical_formula_structural   V3OF11
_chemical_formula_sum   'V6 O2 F22'
_cell_volume   375.61346919
_cell_formula_units_Z   2
loop_
 _symmetry_equiv_pos_site_id
 _symmetry_equiv_pos_as_xyz
  1  'x, y, z'
loop_
 _atom_site_type_symbol
 _atom_site_label
 _atom_site_symmetry_multiplicity
 _atom_site_fract_x
 _atom_site_fract_y
 _atom_site_fract_z
 _atom_site_occupancy
  V  V0  1  0.00053098  -0.00233735  -0.00005082  1
  V  V1  1  0.48647373  0.85043660  0.66576438  1
  V  V2  1  0.01323803  0.68346314  0.33329385  1
  V  V3  1  0.50023438  0.49765099  0.00008702  1
  V  V4  1  0.97032434  0.37932714  0.66972792  1
  V  V5  1  0.52946552  0.21210582  0.33701576  1
  O  O0  1  0.79285911  0.63604712  0.69335663  1
  O  O1  1  0.70662573  0.46910896  0.36024934  1
  F  F0  1  0.81061569  0.98740722  0.36241796  1
  F  F1  1  0.68920153  0.81367489  0.02778647  1
  F  F2  1  0.30693771  0.85896641  0.30657755  1
  F  F3  1  0.90145648  0.96062548  0.87954356  1
  F  F4  1  0.59685531  0.78913017  0.54663727  1
  F  F5  1  0.90354960  0.62322123  0.21400250  1
  F  F6  1  0.40300984  0.85777665  0.78662964  1
  F  F7  1  0.09493312  0.68951615  0.45430101  1
  F  F8  1  0.40306489  0.52385858  0.12020973  1
  F  F9  1  0.81155700  0.31404432  0.02774554  1
  F  F10  1  0.19090729  0.67971535  0.97193583  1
  F  F11  1  0.28304393  0.53037322  0.63674438  1
  F  F12  1  0.21630963  0.36309270  0.30430560  1
  F  F13  1  0.59885919  0.46018307  0.87966966  1
  F  F14  1  0.90213934  0.27845184  0.54740804  1
  F  F15  1  0.59593346  0.11057831  0.21461875  1
  F  F16  1  0.09938745  0.35631244  0.78338420  1
  F  F17  1  0.40241030  0.18995319  0.45099095  1
  F  F18  1  0.09666506  0.02720690  0.12030588  1
  F  F19  1  0.69017302  0.15375305  0.69525406  1
  F  F20  1  0.30953186  0.17960665  0.97161960  1
  F  F21  1  0.19370848  0.02675574  0.63846674  1
loop_
_geom_bond_atom_site_label_1
_geom_bond_atom_site_label_2
_geom_bond_distance
_geom_bond_site_symmetry_2
O0 V4 1.628401 1_555
O0 V1 2.009441 1_555
O1 V5 1.628401 1_555
O1 V2 2.007860 1_655
F0 V2 1.908174 1_655
F0 V5 1.937758 1_565
F1 V3 1.924186 1_555
F1 V0 1.937887 1_665
F2 V2 1.835589 1_555
F2 V5 2.179274 1_565
F3 V0 1.741517 1_666
F4 V1 1.741154 1_555
F5 V2 1.741796 1_655
F6 V1 1.741636 1_555
F7 V2 1.742202 1_555
F8 V3 1.738899 1_555
F9 V0 1.925910 1_655
F9 V3 1.935856 1_555
F10 V3 1.925092 1_556
F10 V0 1.936692 1_566
F11 V4 1.876565 1_455
F11 V1 1.980916 1_555
F12 V5 1.876874 1_555
F12 V2 1.981320 1_555
F13 V3 1.741101 1_556
F14 V4 1.744841 1_555
F15 V5 1.744771 1_555
F16 V4 1.747032 1_455
F17 V5 1.746589 1_555
F18 V0 1.738989 1_555
F19 V1 1.908765 1_545
F19 V4 1.937725 1_555
F20 V0 1.924304 1_556
F20 V3 1.938306 1_556
F21 V1 1.836299 1_545
F21 V4 2.179673 1_455
