# generated using pymatgen
data_Na4Sb2C4SO16
_symmetry_space_group_name_H-M   'P 1'
_cell_length_a   10.51934801
_cell_length_b   10.44594030
_cell_length_c   10.14181436
_cell_angle_alpha   61.43344288
_cell_angle_beta   60.70750997
_cell_angle_gamma   57.85904715
_symmetry_Int_Tables_number   1
_chemical_formula_structural   Na4Sb2C4SO16
_chemical_formula_sum   'Na8 Sb4 C8 S2 O32'
_cell_volume   786.33624729
_cell_formula_units_Z   2
loop_
 _symmetry_equiv_pos_site_id
 _symmetry_equiv_pos_as_xyz
  1  'x, y, z'
loop_
 _atom_site_type_symbol
 _atom_site_label
 _atom_site_symmetry_multiplicity
 _atom_site_fract_x
 _atom_site_fract_y
 _atom_site_fract_z
 _atom_site_occupancy
  Na  Na0  1  0.95228800  0.54771200  0.95228800  1
  Na  Na1  1  0.95337300  0.54662700  0.54662700  1
  Na  Na2  1  0.70337300  0.29662700  0.29662700  1
  Na  Na3  1  0.70228800  0.29771200  0.70228800  1
  Na  Na4  1  0.54771200  0.95228800  0.54771200  1
  Na  Na5  1  0.54662700  0.95337300  0.95337300  1
  Na  Na6  1  0.29662700  0.70337300  0.70337300  1
  Na  Na7  1  0.29771200  0.70228800  0.29771200  1
  Sb  Sb0  1  0.12500000  0.62500000  0.12500000  1
  Sb  Sb1  1  0.62500000  0.12500000  0.12500000  1
  Sb  Sb2  1  0.12500000  0.12500000  0.12500000  1
  Sb  Sb3  1  0.12500000  0.12500000  0.62500000  1
  C  C0  1  0.89591000  0.28274400  0.91322000  1
  C  C1  1  0.96725600  0.35409000  0.34187400  1
  C  C2  1  0.91322000  0.90812600  0.89591000  1
  C  C3  1  0.90812600  0.91322000  0.28274400  1
  C  C4  1  0.34187400  0.33678000  0.96725600  1
  C  C5  1  0.33678000  0.34187400  0.35409000  1
  C  C6  1  0.28274400  0.89591000  0.90812600  1
  C  C7  1  0.35409000  0.96725600  0.33678000  1
  S  S0  1  0.50000000  0.50000000  0.50000000  1
  S  S1  1  0.75000000  0.75000000  0.75000000  1
  O  O0  1  0.00800100  0.28972300  0.92771500  1
  O  O1  1  0.55529500  0.55396500  0.32272400  1
  O  O2  1  0.77206100  0.27159700  0.03322500  1
  O  O3  1  0.97840300  0.47793900  0.32688300  1
  O  O4  1  0.03322500  0.92311700  0.77206100  1
  O  O5  1  0.96137100  0.34079400  0.22295700  1
  O  O6  1  0.32272400  0.56801500  0.55529500  1
  O  O7  1  0.55396500  0.55529500  0.56801500  1
  O  O8  1  0.47487800  0.22295700  0.34079400  1
  O  O9  1  0.92311700  0.03322500  0.27159700  1
  O  O10  1  0.96027700  0.24199900  0.47543900  1
  O  O11  1  0.56801500  0.32272400  0.55396500  1
  O  O12  1  0.92771500  0.77456100  0.00800100  1
  O  O13  1  0.77456100  0.92771500  0.28972300  1
  O  O14  1  0.90920600  0.28862900  0.77512200  1
  O  O15  1  0.22295700  0.47487800  0.96137100  1
  O  O16  1  0.02704300  0.77512200  0.28862900  1
  O  O17  1  0.34079400  0.96137100  0.47487800  1
  O  O18  1  0.47543900  0.32228500  0.96027700  1
  O  O19  1  0.32228500  0.47543900  0.24199900  1
  O  O20  1  0.68198500  0.92727600  0.69603500  1
  O  O21  1  0.28972300  0.00800100  0.77456100  1
  O  O22  1  0.32688300  0.21677500  0.97840300  1
  O  O23  1  0.77512200  0.02704300  0.90920600  1
  O  O24  1  0.69603500  0.69470500  0.68198500  1
  O  O25  1  0.92727600  0.68198500  0.69470500  1
  O  O26  1  0.28862900  0.90920600  0.02704300  1
  O  O27  1  0.21677500  0.32688300  0.47793900  1
  O  O28  1  0.27159700  0.77206100  0.92311700  1
  O  O29  1  0.47793900  0.97840300  0.21677500  1
  O  O30  1  0.69470500  0.69603500  0.92727600  1
  O  O31  1  0.24199900  0.96027700  0.32228500  1
loop_
_geom_bond_atom_site_label_1
_geom_bond_atom_site_label_2
_geom_bond_distance
_geom_bond_site_symmetry_2
Na0 O30 2.374167 1_555
Na0 O25 2.374167 1_555
Na0 O0 2.546989 1_655
Na0 O12 2.546989 1_556
Na0 O5 2.564946 1_556
Na0 O15 2.564946 1_655
Na1 O24 2.354621 1_555
Na1 O25 2.354626 1_555
Na1 O3 2.510951 1_555
Na1 O27 2.510951 1_655
Na1 O14 2.674907 1_555
Na1 O16 2.674907 1_655
Na2 O1 2.354617 1_555
Na2 O11 2.354617 1_555
Na2 O2 2.510951 1_555
Na2 O9 2.510951 1_555
Na2 O8 2.674907 1_555
Na2 O5 2.674907 1_555
Na3 O7 2.374171 1_555
Na3 O11 2.374176 1_555
Na3 O18 2.546989 1_555
Na3 O10 2.546989 1_555
Na3 O14 2.564946 1_555
Na3 O23 2.564946 1_555
Na4 O24 2.374171 1_555
Na4 O20 2.374176 1_555
Na4 O13 2.546989 1_555
Na4 O21 2.546989 1_565
Na4 O17 2.564946 1_555
Na4 O8 2.564946 1_565
Na5 O30 2.354617 1_555
Na5 O20 2.354617 1_555
Na5 O22 2.510951 1_565
Na5 O29 2.510951 1_556
Na5 O23 2.674907 1_565
Na5 O26 2.674907 1_556
Na6 O7 2.354621 1_555
Na6 O6 2.354626 1_555
Na6 O4 2.510951 1_555
Na6 O28 2.510951 1_555
Na6 O15 2.674907 1_555
Na6 O17 2.674907 1_555
Na7 O1 2.374167 1_555
Na7 O6 2.374167 1_555
Na7 O31 2.546989 1_555
Na7 O19 2.546989 1_555
Na7 O26 2.564946 1_555
Na7 O16 2.564946 1_555
C0 O2 1.290903 1_556
C0 O0 1.299457 1_655
C0 O14 1.311504 1_555
C1 O3 1.290903 1_555
C1 O10 1.299457 1_555
C1 O5 1.311504 1_555
C2 O4 1.290903 1_655
C2 O12 1.299457 1_556
C2 O23 1.311504 1_565
C3 O9 1.290903 1_565
C3 O13 1.299457 1_555
C3 O16 1.311504 1_655
C4 O22 1.290903 1_555
C4 O18 1.299457 1_555
C4 O15 1.311504 1_555
C5 O27 1.290903 1_555
C5 O19 1.299457 1_555
C5 O8 1.311504 1_555
C6 O28 1.290903 1_555
C6 O21 1.299457 1_565
C6 O26 1.311504 1_556
C7 O29 1.290903 1_555
C7 O31 1.299457 1_555
C7 O17 1.311504 1_555
O0 Sb2 2.311419 1_556
O1 S0 1.498277 1_555
O2 Sb1 2.313657 1_555
O3 Sb0 2.313657 1_655
O4 Sb3 2.313657 1_565
O5 Sb2 2.317547 1_655
O6 S0 1.498277 1_555
O7 S0 1.498268 1_555
O8 Sb1 2.317547 1_555
O9 Sb2 2.313657 1_655
O10 Sb3 2.311419 1_655
O11 S0 1.498277 1_555
O12 Sb0 2.311419 1_655
O13 Sb1 2.311419 1_565
O14 Sb3 2.317547 1_655
O15 Sb0 2.317547 1_556
O16 Sb0 2.317547 1_555
O17 Sb3 2.317547 1_565
O18 Sb1 2.311419 1_556
O19 Sb0 2.311419 1_555
O20 S1 1.498277 1_555
O21 Sb3 2.311419 1_555
O22 Sb2 2.313657 1_556
O23 Sb1 2.317547 1_556
O24 S1 1.498268 1_555
O25 S1 1.498277 1_555
O26 Sb2 2.317547 1_565
O27 Sb3 2.313657 1_555
O28 Sb0 2.313657 1_556
O29 Sb1 2.313657 1_565
O30 S1 1.498277 1_555
O31 Sb2 2.311419 1_565
