# generated using pymatgen
data_Na5Co2P(CO4)4
_symmetry_space_group_name_H-M   'P 1'
_cell_length_a   9.97715973
_cell_length_b   9.97715973
_cell_length_c   9.85933306
_cell_angle_alpha   60.42123159
_cell_angle_beta   60.42123159
_cell_angle_gamma   90.88689782
_symmetry_Int_Tables_number   1
_chemical_formula_structural   Na5Co2P(CO4)4
_chemical_formula_sum   'Na10 Co4 P2 C8 O32'
_cell_volume   697.36899413
_cell_formula_units_Z   2
loop_
 _symmetry_equiv_pos_site_id
 _symmetry_equiv_pos_as_xyz
  1  'x, y, z'
loop_
 _atom_site_type_symbol
 _atom_site_label
 _atom_site_symmetry_multiplicity
 _atom_site_fract_x
 _atom_site_fract_y
 _atom_site_fract_z
 _atom_site_occupancy
  Na  Na0  1  0.09123800  0.34550800  0.23994200  1
  Na  Na1  1  0.34532000  0.09084400  0.32394000  1
  Na  Na2  1  0.34550800  0.09123800  0.73994200  1
  Na  Na3  1  0.09084400  0.34532000  0.82394000  1
  Na  Na4  1  0.08704500  0.91295500  0.25000000  1
  Na  Na5  1  0.91295500  0.08704500  0.75000000  1
  Na  Na6  1  0.90915600  0.65468000  0.17606000  1
  Na  Na7  1  0.65449200  0.90876200  0.26005800  1
  Na  Na8  1  0.65468000  0.90915600  0.67606000  1
  Na  Na9  1  0.90876200  0.65449200  0.76005800  1
  Co  Co0  1  0.50000000  0.00000000  0.00000000  1
  Co  Co1  1  0.50000000  0.50000000  0.00000000  1
  Co  Co2  1  0.50000000  0.50000000  0.50000000  1
  Co  Co3  1  0.00000000  0.50000000  0.50000000  1
  P  P0  1  0.87573600  0.12426400  0.25000000  1
  P  P1  1  0.12426400  0.87573600  0.75000000  1
  C  C0  1  0.28529300  0.71407200  0.07058600  1
  C  C1  1  0.28244800  0.35388400  0.43345200  1
  C  C2  1  0.64611600  0.71755200  0.06654800  1
  C  C3  1  0.28592800  0.71470700  0.42941400  1
  C  C4  1  0.35388400  0.28244800  0.93345200  1
  C  C5  1  0.71407200  0.28529300  0.57058600  1
  C  C6  1  0.71470700  0.28592800  0.92941400  1
  C  C7  1  0.71755200  0.64611600  0.56654800  1
  O  O0  1  0.34789900  0.13828900  0.04995600  1
  O  O1  1  0.14082000  0.60152900  0.20793000  1
  O  O2  1  0.31029500  0.35039400  0.29117900  1
  O  O3  1  0.59670400  0.31441500  0.03813800  1
  O  O4  1  0.13828900  0.34789900  0.54995600  1
  O  O5  1  0.68501700  0.05621700  0.37844600  1
  O  O6  1  0.94008500  0.06110400  0.11999400  1
  O  O7  1  0.39403800  0.35307900  0.46529400  1
  O  O8  1  0.31040600  0.85917800  0.03693700  1
  O  O9  1  0.64692100  0.60596200  0.03470600  1
  O  O10  1  0.14082200  0.68959400  0.46306300  1
  O  O11  1  0.93889600  0.05991500  0.38000600  1
  O  O12  1  0.94378300  0.31498300  0.12155400  1
  O  O13  1  0.35039400  0.31029500  0.79117900  1
  O  O14  1  0.60152900  0.14082000  0.70793000  1
  O  O15  1  0.31441500  0.59670400  0.53813800  1
  O  O16  1  0.68558500  0.40329600  0.46186200  1
  O  O17  1  0.64960600  0.68970500  0.20882100  1
  O  O18  1  0.39847100  0.85918000  0.29207000  1
  O  O19  1  0.06110400  0.94008500  0.61999400  1
  O  O20  1  0.05621700  0.68501700  0.87844600  1
  O  O21  1  0.85917800  0.31040600  0.53693700  1
  O  O22  1  0.35307900  0.39403800  0.96529400  1
  O  O23  1  0.68959400  0.14082200  0.96306300  1
  O  O24  1  0.60596200  0.64692100  0.53470600  1
  O  O25  1  0.05991500  0.93889600  0.88000600  1
  O  O26  1  0.31498300  0.94378300  0.62155400  1
  O  O27  1  0.86171100  0.65210100  0.45004400  1
  O  O28  1  0.40329600  0.68558500  0.96186200  1
  O  O29  1  0.68970500  0.64960600  0.70882100  1
  O  O30  1  0.85918000  0.39847100  0.79207000  1
  O  O31  1  0.65210100  0.86171100  0.95004400  1
loop_
_geom_bond_atom_site_label_1
_geom_bond_atom_site_label_2
_geom_bond_distance
_geom_bond_site_symmetry_2
Na0 O12 2.377375 1_455
Na0 O1 2.424856 1_555
Na0 O22 2.464615 1_554
Na0 O2 2.478963 1_555
Na0 O11 2.499090 1_455
Na0 O21 2.515325 1_455
Na1 O26 2.390289 1_545
Na1 O3 2.418811 1_555
Na1 O19 2.487079 1_545
Na1 O0 2.488046 1_555
Na1 O2 2.499202 1_555
Na1 O18 2.512512 1_545
Na2 O26 2.377375 1_545
Na2 O14 2.424856 1_555
Na2 O7 2.464615 1_555
Na2 O13 2.478963 1_555
Na2 O25 2.499090 1_545
Na2 O8 2.515325 1_546
Na3 O12 2.390289 1_456
Na3 O15 2.418811 1_555
Na3 O6 2.487079 1_456
Na3 O4 2.488046 1_555
Na3 O13 2.499202 1_555
Na3 O30 2.512512 1_455
Na4 O11 2.455543 1_465
Na4 O6 2.455543 1_465
Na4 O0 2.468104 1_565
Na4 O27 2.468104 1_455
Na4 O8 2.488980 1_555
Na4 O10 2.488980 1_555
Na5 O25 2.455543 1_645
Na5 O19 2.455543 1_645
Na5 O4 2.468104 1_655
Na5 O31 2.468104 1_545
Na5 O21 2.488980 1_555
Na5 O23 2.488980 1_555
Na6 O20 2.390289 1_654
Na6 O16 2.418811 1_555
Na6 O25 2.487079 1_654
Na6 O27 2.488046 1_555
Na6 O17 2.499202 1_555
Na6 O1 2.512512 1_655
Na7 O5 2.377375 1_565
Na7 O18 2.424856 1_555
Na7 O24 2.464615 1_555
Na7 O17 2.478963 1_555
Na7 O6 2.499090 1_565
Na7 O23 2.515325 1_564
Na8 O5 2.390289 1_565
Na8 O28 2.418811 1_555
Na8 O11 2.487079 1_565
Na8 O31 2.488046 1_555
Na8 O29 2.499202 1_555
Na8 O14 2.512512 1_565
Na9 O20 2.377375 1_655
Na9 O30 2.424856 1_555
Na9 O9 2.464615 1_556
Na9 O29 2.478963 1_555
Na9 O19 2.499090 1_655
Na9 O10 2.515325 1_655
Co0 O18 2.091479 1_545
Co0 O14 2.091479 1_554
Co0 O23 2.101749 1_554
Co0 O8 2.101749 1_545
Co0 O31 2.108785 1_544
Co0 O0 2.108785 1_555
Co1 O9 2.046418 1_555
Co1 O22 2.046418 1_554
Co1 O28 2.055935 1_554
Co1 O3 2.055935 1_555
Co1 O2 2.090405 1_555
Co1 O29 2.090405 1_554
Co2 O24 2.046418 1_555
Co2 O7 2.046418 1_555
Co2 O15 2.055935 1_555
Co2 O16 2.055935 1_555
Co2 O13 2.090405 1_555
Co2 O17 2.090405 1_555
Co3 O30 2.091479 1_455
Co3 O1 2.091479 1_555
Co3 O10 2.101749 1_555
Co3 O21 2.101749 1_455
Co3 O27 2.108785 1_455
Co3 O4 2.108785 1_555
C0 O28 1.296600 1_554
C0 O1 1.301547 1_555
C0 O8 1.304356 1_555
C1 O7 1.296545 1_555
C1 O4 1.300105 1_555
C1 O2 1.307589 1_555
C2 O9 1.296545 1_555
C2 O31 1.300105 1_554
C2 O17 1.307589 1_555
C3 O15 1.296600 1_555
C3 O18 1.301547 1_555
C3 O10 1.304356 1_555
C4 O22 1.296545 1_555
C4 O0 1.300105 1_556
C4 O13 1.307589 1_555
C5 O16 1.296600 1_555
C5 O14 1.301547 1_555
C5 O21 1.304356 1_555
C6 O3 1.296600 1_556
C6 O30 1.301547 1_555
C6 O23 1.304356 1_555
C7 O24 1.296545 1_555
C7 O27 1.300105 1_555
C7 O29 1.307589 1_555
O5 P0 1.554887 1_555
O6 P0 1.565165 1_555
O11 P0 1.565165 1_555
O12 P0 1.554887 1_555
O19 P1 1.565165 1_555
O20 P1 1.554887 1_555
O25 P1 1.565165 1_555
O26 P1 1.554887 1_555
