# generated using pymatgen
data_Li2V3(P2O7)2
_symmetry_space_group_name_H-M   'P 1'
_cell_length_a   5.33850700
_cell_length_b   6.62527347
_cell_length_c   16.03223444
_cell_angle_alpha   81.67600264
_cell_angle_beta   83.46847737
_cell_angle_gamma   72.26610188
_symmetry_Int_Tables_number   1
_chemical_formula_structural   Li2V3(P2O7)2
_chemical_formula_sum   'Li4 V6 P8 O28'
_cell_volume   532.94867932
_cell_formula_units_Z   2
loop_
 _symmetry_equiv_pos_site_id
 _symmetry_equiv_pos_as_xyz
  1  'x, y, z'
loop_
 _atom_site_type_symbol
 _atom_site_label
 _atom_site_symmetry_multiplicity
 _atom_site_fract_x
 _atom_site_fract_y
 _atom_site_fract_z
 _atom_site_occupancy
  Li  Li0  1  0.07285300  0.21531800  0.99288100  1
  Li  Li1  1  0.36161400  0.68321300  0.11993300  1
  Li  Li2  1  0.63838600  0.31678700  0.88006700  1
  Li  Li3  1  0.92714700  0.78468200  0.00711900  1
  V  V0  1  0.16058900  0.28608800  0.57841200  1
  V  V1  1  0.03527700  0.62186900  0.81517400  1
  V  V2  1  0.25125500  0.97011800  0.33237200  1
  V  V3  1  0.74874500  0.02988200  0.66762800  1
  V  V4  1  0.96472300  0.37813100  0.18482600  1
  V  V5  1  0.83941100  0.71391200  0.42158800  1
  P  P0  1  0.16715300  0.09543200  0.78988400  1
  P  P1  1  0.37408300  0.44457200  0.31763100  1
  P  P2  1  0.56133400  0.24278700  0.07340700  1
  P  P3  1  0.27757400  0.78434400  0.53894400  1
  P  P4  1  0.72242600  0.21565600  0.46105600  1
  P  P5  1  0.43866600  0.75721300  0.92659300  1
  P  P6  1  0.62591700  0.55542800  0.68236900  1
  P  P7  1  0.83284700  0.90456800  0.21011600  1
  O  O0  1  0.02339600  0.03479000  0.21691800  1
  O  O1  1  0.25994500  0.32097300  0.07199600  1
  O  O2  1  0.21777200  0.30681000  0.29063000  1
  O  O3  1  0.02438100  0.28807500  0.83951100  1
  O  O4  1  0.18951000  0.66192100  0.33911800  1
  O  O5  1  0.12398100  0.62540900  0.53368500  1
  O  O6  1  0.32435600  0.14386800  0.70757000  1
  O  O7  1  0.60316800  0.05161100  0.15096500  1
  O  O8  1  0.10983100  0.97376200  0.58503100  1
  O  O9  1  0.71271100  0.14214700  0.99460000  1
  O  O10  1  0.47012100  0.32762600  0.40807000  1
  O  O11  1  0.32502300  0.58317000  0.90743400  1
  O  O12  1  0.58303200  0.15026000  0.54534600  1
  O  O13  1  0.60055300  0.47056800  0.25714400  1
  O  O14  1  0.39944700  0.52943200  0.74285600  1
  O  O15  1  0.41696800  0.84974000  0.45465400  1
  O  O16  1  0.67497700  0.41683000  0.09256600  1
  O  O17  1  0.52987900  0.67237400  0.59193000  1
  O  O18  1  0.28728900  0.85785300  0.00540000  1
  O  O19  1  0.89016900  0.02623800  0.41496900  1
  O  O20  1  0.39683200  0.94838900  0.84903500  1
  O  O21  1  0.67564400  0.85613200  0.29243000  1
  O  O22  1  0.87601900  0.37459100  0.46631500  1
  O  O23  1  0.81049000  0.33807900  0.66088200  1
  O  O24  1  0.97561900  0.71192500  0.16048900  1
  O  O25  1  0.78222800  0.69319000  0.70937000  1
  O  O26  1  0.74005500  0.67902700  0.92800400  1
  O  O27  1  0.97660400  0.96521000  0.78308200  1
loop_
_geom_bond_atom_site_label_1
_geom_bond_atom_site_label_2
_geom_bond_distance
_geom_bond_site_symmetry_2
Li0 O1 2.016826 1_556
Li0 O9 2.117572 1_455
Li0 O18 2.285314 1_546
Li0 O3 2.463922 1_555
Li1 O18 2.034404 1_555
Li1 O24 2.048751 1_455
Li1 O16 2.089121 1_555
Li2 O9 2.034404 1_555
Li2 O3 2.048751 1_655
Li2 O11 2.089121 1_555
Li3 O26 2.016826 1_554
Li3 O18 2.117572 1_655
Li3 O9 2.285314 1_564
Li3 O24 2.463922 1_555
O0 P7 1.542129 1_445
O0 V4 2.191109 1_455
O0 V2 2.248226 1_545
O1 P2 1.534526 1_555
O1 V4 2.255143 1_455
O2 P1 1.541857 1_555
O2 V2 2.192670 1_545
O2 V4 2.196802 1_455
O3 P0 1.551251 1_555
O3 V1 2.206721 1_555
O4 P1 1.537918 1_555
O4 V5 2.130135 1_455
O4 V2 2.151194 1_555
O5 P3 1.534808 1_555
O5 V0 2.214451 1_555
O5 V5 2.377998 1_455
O6 P0 1.529156 1_555
O6 V3 2.209296 1_555
O6 V0 2.298919 1_555
O7 P7 1.618999 1_545
O7 P2 1.623299 1_555
O8 P3 1.534954 1_555
O8 V0 2.153583 1_565
O8 V3 2.175516 1_465
O9 P2 1.541863 1_556
O10 P4 1.598531 1_555
O10 P1 1.602295 1_555
O11 P5 1.537245 1_555
O11 V1 2.194379 1_555
O12 P4 1.538104 1_555
O12 V3 2.184972 1_555
O12 V0 2.192407 1_555
O13 P1 1.497844 1_555
O13 V4 2.113387 1_555
O14 P6 1.497844 1_555
O14 V1 2.113387 1_555
O15 P3 1.538104 1_555
O15 V2 2.184972 1_555
O15 V5 2.192407 1_555
O16 P2 1.537245 1_555
O16 V4 2.194379 1_555
O17 P3 1.598531 1_555
O17 P6 1.602295 1_555
O18 P5 1.541863 1_554
O19 P4 1.534954 1_555
O19 V5 2.153583 1_545
O19 V2 2.175516 1_645
O20 P0 1.618999 1_565
O20 P5 1.623299 1_555
O21 P7 1.529156 1_555
O21 V2 2.209296 1_555
O21 V5 2.298919 1_555
O22 P4 1.534808 1_555
O22 V5 2.214451 1_555
O22 V0 2.377998 1_655
O23 P6 1.537918 1_555
O23 V0 2.130135 1_655
O23 V3 2.151194 1_555
O24 P7 1.551251 1_555
O24 V4 2.206721 1_555
O25 P6 1.541857 1_555
O25 V3 2.192670 1_565
O25 V1 2.196802 1_655
O26 P5 1.534526 1_555
O26 V1 2.255143 1_655
O27 P0 1.542129 1_665
O27 V1 2.191109 1_655
O27 V3 2.248226 1_565
