# generated using pymatgen
data_DyAlO3
_symmetry_space_group_name_H-M   'P 1'
_cell_length_a   5.23705629
_cell_length_b   5.23705629
_cell_length_c   5.23705661
_cell_angle_alpha   60.91956114
_cell_angle_beta   60.91956114
_cell_angle_gamma   60.91956644
_symmetry_Int_Tables_number   1
_chemical_formula_structural   DyAlO3
_chemical_formula_sum   'Dy2 Al2 O6'
_cell_volume   103.67050240
_cell_formula_units_Z   2
loop_
 _symmetry_equiv_pos_site_id
 _symmetry_equiv_pos_as_xyz
  1  'x, y, z'
loop_
 _atom_site_type_symbol
 _atom_site_label
 _atom_site_symmetry_multiplicity
 _atom_site_fract_x
 _atom_site_fract_y
 _atom_site_fract_z
 _atom_site_occupancy
  Dy  Dy0  1  0.25000000  0.25000000  0.25000000  1
  Dy  Dy1  1  0.75000000  0.75000000  0.75000000  1
  Al  Al0  1  0.00000000  0.00000000  0.00000000  1
  Al  Al1  1  0.50000000  0.50000000  0.50000000  1
  O  O0  1  0.32560100  0.17439900  0.75000000  1
  O  O1  1  0.75000000  0.32560100  0.17439900  1
  O  O2  1  0.82560100  0.25000000  0.67439900  1
  O  O3  1  0.17439900  0.75000000  0.32560100  1
  O  O4  1  0.25000000  0.67439900  0.82560100  1
  O  O5  1  0.67439900  0.82560100  0.25000000  1
loop_
_geom_bond_atom_site_label_1
_geom_bond_atom_site_label_2
_geom_bond_distance
_geom_bond_site_symmetry_2
Dy0 O4 2.253422 1_554
Dy0 O2 2.253422 1_455
Dy0 O5 2.253422 1_545
Dy0 O1 2.649118 1_555
Dy0 O3 2.649118 1_545
Dy0 O3 2.649118 1_555
Dy0 O1 2.649118 1_455
Dy0 O0 2.649118 1_555
Dy0 O0 2.649118 1_554
Dy1 O1 2.253422 1_556
Dy1 O3 2.253422 1_655
Dy1 O0 2.253422 1_565
Dy1 O2 2.649118 1_565
Dy1 O4 2.649118 1_555
Dy1 O2 2.649118 1_555
Dy1 O4 2.649118 1_655
Dy1 O5 2.649118 1_555
Dy1 O5 2.649118 1_556
Al0 O0 1.907184 1_554
Al0 O5 1.907184 1_445
Al0 O1 1.907184 1_455
Al0 O4 1.907184 1_544
Al0 O3 1.907184 1_545
Al0 O2 1.907184 1_454
Al1 O5 1.907184 1_555
Al1 O0 1.907184 1_555
Al1 O3 1.907184 1_555
Al1 O2 1.907184 1_555
Al1 O4 1.907184 1_555
Al1 O1 1.907184 1_555
