# generated using pymatgen
data_SrSn4
_symmetry_space_group_name_H-M   'P 1'
_cell_length_a   4.67507486
_cell_length_b   7.08627505
_cell_length_c   9.06276799
_cell_angle_alpha   90.00000000
_cell_angle_beta   104.94713273
_cell_angle_gamma   90.00000000
_symmetry_Int_Tables_number   1
_chemical_formula_structural   SrSn4
_chemical_formula_sum   'Sr2 Sn8'
_cell_volume   290.08040353
_cell_formula_units_Z   2
loop_
 _symmetry_equiv_pos_site_id
 _symmetry_equiv_pos_as_xyz
  1  'x, y, z'
loop_
 _atom_site_type_symbol
 _atom_site_label
 _atom_site_symmetry_multiplicity
 _atom_site_fract_x
 _atom_site_fract_y
 _atom_site_fract_z
 _atom_site_occupancy
  Sr  Sr0  1  0.61152563  0.25000000  0.22305125  1
  Sr  Sr1  1  0.38847437  0.75000000  0.77694875  1
  Sn  Sn0  1  0.80395395  0.04515953  0.60790791  1
  Sn  Sn1  1  0.19604605  0.95484047  0.39209209  1
  Sn  Sn2  1  0.19604605  0.54515953  0.39209209  1
  Sn  Sn3  1  0.80395395  0.45484047  0.60790791  1
  Sn  Sn4  1  0.40999988  0.25000000  0.81999876  1
  Sn  Sn5  1  0.59000012  0.75000000  0.18000124  1
  Sn  Sn6  1  -0.00000000  0.00000000  -0.00000000  1
  Sn  Sn7  1  -0.00000000  0.50000000  -0.00000000  1
loop_
_geom_bond_atom_site_label_1
_geom_bond_atom_site_label_2
_geom_bond_distance
_geom_bond_site_symmetry_2
Sn0 Sn3 2.903112 1_555
Sn0 Sn1 3.073226 1_545
Sn0 Sn1 3.073226 1_645
Sn0 Sn4 3.319621 1_555
Sn0 Sn4 3.319624 1_655
Sn0 Sn6 3.448088 1_656
Sn0 Sr1 3.468374 1_645
Sn0 Sr1 3.468374 1_545
Sn0 Sr0 3.669185 1_555
Sn1 Sn2 2.903112 1_555
Sn1 Sn5 3.319621 1_555
Sn1 Sn5 3.319624 1_455
Sn1 Sn6 3.448088 1_565
Sn1 Sr0 3.468374 1_465
Sn1 Sr0 3.468374 1_565
Sn1 Sr1 3.669185 1_555
Sn2 Sn3 3.073226 1_555
Sn2 Sn3 3.073226 1_455
Sn2 Sn5 3.319621 1_555
Sn2 Sn5 3.319624 1_455
Sn2 Sn7 3.448088 1_555
Sn2 Sr0 3.468374 1_455
Sn2 Sr0 3.468374 1_555
Sn2 Sr1 3.669185 1_555
Sn3 Sn4 3.319621 1_555
Sn3 Sn4 3.319624 1_655
Sn3 Sn7 3.448088 1_656
Sn3 Sr1 3.468374 1_655
Sn3 Sr1 3.468374 1_555
Sn3 Sr0 3.669185 1_555
Sn4 Sn6 3.329663 1_656
Sn4 Sn7 3.329663 1_656
Sn4 Sn7 3.329667 1_556
Sn4 Sn6 3.329667 1_556
Sn4 Sr0 3.529177 1_556
Sn4 Sr1 3.563133 1_545
Sn4 Sr1 3.563133 1_555
Sn5 Sn7 3.329663 1_555
Sn5 Sn6 3.329663 1_565
Sn5 Sn7 3.329667 1_655
Sn5 Sn6 3.329667 1_665
Sn5 Sr1 3.529177 1_554
Sn5 Sr0 3.563133 1_565
Sn5 Sr0 3.563133 1_555
Sn6 Sr1 3.523776 1_444
Sn6 Sr0 3.523776 1_555
Sn6 Sr1 3.523776 1_544
Sn6 Sr0 3.523776 1_455
Sn6 Sn7 3.543138 1_545
Sn6 Sn7 3.543138 1_555
Sn7 Sr1 3.523776 1_454
Sn7 Sr0 3.523776 1_555
Sn7 Sr0 3.523776 1_455
Sn7 Sr1 3.523776 1_554
