# generated using pymatgen
data_Na5Mn2P2(CO7)2
_symmetry_space_group_name_H-M   'P 1'
_cell_length_a   8.46246800
_cell_length_b   8.48063105
_cell_length_c   9.01377717
_cell_angle_alpha   90.65686804
_cell_angle_beta   90.62313041
_cell_angle_gamma   103.23119137
_symmetry_Int_Tables_number   1
_chemical_formula_structural   Na5Mn2P2(CO7)2
_chemical_formula_sum   'Na10 Mn4 P4 C4 O28'
_cell_volume   629.61831024
_cell_formula_units_Z   2
loop_
 _symmetry_equiv_pos_site_id
 _symmetry_equiv_pos_as_xyz
  1  'x, y, z'
loop_
 _atom_site_type_symbol
 _atom_site_label
 _atom_site_symmetry_multiplicity
 _atom_site_fract_x
 _atom_site_fract_y
 _atom_site_fract_z
 _atom_site_occupancy
  Na  Na0  1  0.75869600  0.00874100  0.92033200  1
  Na  Na1  1  0.61303700  0.61085700  0.76615000  1
  Na  Na2  1  0.88547800  0.38726300  0.76156600  1
  Na  Na3  1  0.36534900  0.85536200  0.74711800  1
  Na  Na4  1  0.12957800  0.13743700  0.74410700  1
  Na  Na5  1  0.87042200  0.86256300  0.25589300  1
  Na  Na6  1  0.63465100  0.14463800  0.25288200  1
  Na  Na7  1  0.38696300  0.38914300  0.23385000  1
  Na  Na8  1  0.11452200  0.61273700  0.23843400  1
  Na  Na9  1  0.24130400  0.99125900  0.07966800  1
  Mn  Mn0  1  0.51592200  0.26493200  0.64362700  1
  Mn  Mn1  1  0.01401300  0.76532900  0.64243300  1
  Mn  Mn2  1  0.48407800  0.73506800  0.35637300  1
  Mn  Mn3  1  0.98598700  0.23467100  0.35756700  1
  P  P0  1  0.72405500  0.97518000  0.58115300  1
  P  P1  1  0.22719400  0.47638300  0.57691500  1
  P  P2  1  0.77280600  0.52361700  0.42308500  1
  P  P3  1  0.27594500  0.02482000  0.41884700  1
  C  C0  1  0.99455000  0.74764500  0.93305300  1
  C  C1  1  0.48325000  0.23060500  0.93206400  1
  C  C2  1  0.51675000  0.76939500  0.06793600  1
  C  C3  1  0.00545000  0.25235500  0.06694700  1
  O  O0  1  0.52015700  0.77646400  0.92639600  1
  O  O1  1  0.00091100  0.24449500  0.92493300  1
  O  O2  1  0.59166000  0.33939000  0.86138200  1
  O  O3  1  0.10181200  0.85441300  0.85936300  1
  O  O4  1  0.88972400  0.64378700  0.85524000  1
  O  O5  1  0.38070600  0.12756200  0.84985100  1
  O  O6  1  0.85463100  0.92157500  0.67733200  1
  O  O7  1  0.36370000  0.42169800  0.66638800  1
  O  O8  1  0.66869300  0.10768500  0.67619600  1
  O  O9  1  0.17427500  0.61078400  0.66690500  1
  O  O10  1  0.57403200  0.82690500  0.55690100  1
  O  O11  1  0.71427900  0.46358300  0.57934200  1
  O  O12  1  0.21065700  0.96167300  0.57075500  1
  O  O13  1  0.07946300  0.32741100  0.55919500  1
  O  O14  1  0.92053700  0.67258900  0.44080500  1
  O  O15  1  0.78934300  0.03832700  0.42924500  1
  O  O16  1  0.28572100  0.53641700  0.42065800  1
  O  O17  1  0.42596800  0.17309500  0.44309900  1
  O  O18  1  0.82572500  0.38921600  0.33309500  1
  O  O19  1  0.63630000  0.57830200  0.33361200  1
  O  O20  1  0.33130700  0.89231500  0.32380400  1
  O  O21  1  0.14536900  0.07842500  0.32266800  1
  O  O22  1  0.61929400  0.87243800  0.15014900  1
  O  O23  1  0.11027600  0.35621300  0.14476000  1
  O  O24  1  0.89818800  0.14558700  0.14063700  1
  O  O25  1  0.40834000  0.66061000  0.13861800  1
  O  O26  1  0.99908900  0.75550500  0.07506700  1
  O  O27  1  0.47984300  0.22353600  0.07360400  1
loop_
_geom_bond_atom_site_label_1
_geom_bond_atom_site_label_2
_geom_bond_distance
_geom_bond_site_symmetry_2
Na0 O24 2.439814 1_556
Na0 O0 2.478468 1_545
Na0 O6 2.505881 1_545
Na0 O1 2.514119 1_655
Na0 O8 2.534804 1_555
Na0 O22 2.550073 1_546
Na1 O0 2.271591 1_555
Na1 O11 2.366919 1_555
Na1 O4 2.420724 1_555
Na1 O2 2.434707 1_555
Na1 O7 2.492061 1_555
Na1 O10 2.714037 1_555
Na2 O1 2.267067 1_655
Na2 O4 2.316982 1_555
Na2 O11 2.370147 1_555
Na2 O13 2.589447 1_655
Na2 O2 2.598379 1_555
Na2 O8 2.741466 1_555
Na2 O9 2.873311 1_655
Na3 O0 2.270533 1_555
Na3 O12 2.362528 1_555
Na3 O9 2.417527 1_555
Na3 O5 2.452401 1_565
Na3 O3 2.457321 1_555
Na3 O10 2.523516 1_555
Na4 O1 2.263571 1_555
Na4 O5 2.339032 1_555
Na4 O12 2.360571 1_545
Na4 O13 2.431571 1_555
Na4 O3 2.588414 1_545
Na4 O6 2.668650 1_445
Na4 O7 2.847838 1_555
Na5 O26 2.263571 1_555
Na5 O22 2.339032 1_555
Na5 O15 2.360571 1_565
Na5 O14 2.431571 1_555
Na5 O24 2.588414 1_565
Na5 O21 2.668650 1_665
Na5 O19 2.847838 1_555
Na6 O27 2.270533 1_555
Na6 O15 2.362528 1_555
Na6 O18 2.417527 1_555
Na6 O22 2.452401 1_545
Na6 O24 2.457321 1_555
Na6 O17 2.523516 1_555
Na7 O27 2.271591 1_555
Na7 O16 2.366919 1_555
Na7 O23 2.420724 1_555
Na7 O25 2.434707 1_555
Na7 O19 2.492061 1_555
Na7 O17 2.714037 1_555
Na8 O26 2.267067 1_455
Na8 O23 2.316982 1_555
Na8 O16 2.370147 1_555
Na8 O14 2.589447 1_455
Na8 O25 2.598379 1_555
Na8 O20 2.741466 1_555
Na8 O18 2.873311 1_455
Na9 O3 2.439814 1_554
Na9 O27 2.478468 1_565
Na9 O21 2.505881 1_565
Na9 O26 2.514119 1_455
Na9 O20 2.534804 1_555
Na9 O5 2.550073 1_564
Mn0 O17 2.029672 1_555
Mn0 O7 2.062145 1_555
Mn0 O8 2.079869 1_555
Mn0 O2 2.102627 1_555
Mn0 O11 2.177299 1_555
Mn0 O5 2.368031 1_555
Mn1 O14 2.049030 1_455
Mn1 O9 2.102270 1_555
Mn1 O6 2.119364 1_455
Mn1 O3 2.150304 1_555
Mn1 O12 2.176901 1_555
Mn1 O4 2.332623 1_455
Mn2 O10 2.029672 1_555
Mn2 O19 2.062145 1_555
Mn2 O20 2.079869 1_555
Mn2 O25 2.102627 1_555
Mn2 O16 2.177299 1_555
Mn2 O22 2.368031 1_555
Mn3 O13 2.049030 1_655
Mn3 O18 2.102270 1_555
Mn3 O21 2.119364 1_655
Mn3 O24 2.150304 1_555
Mn3 O15 2.176901 1_555
Mn3 O23 2.332623 1_655
C0 O26 1.280754 1_556
C0 O4 1.292008 1_555
C0 O3 1.317441 1_655
C1 O27 1.278233 1_556
C1 O5 1.299950 1_555
C1 O2 1.318121 1_555
C2 O0 1.278233 1_554
C2 O22 1.299950 1_555
C2 O25 1.318121 1_555
C3 O1 1.280754 1_554
C3 O23 1.292008 1_555
C3 O24 1.317441 1_455
O6 P0 1.548356 1_555
O7 P1 1.559963 1_555
O8 P0 1.563276 1_545
O9 P1 1.542085 1_555
O10 P0 1.580404 1_555
O11 P2 1.550637 1_555
O12 P3 1.537776 1_565
O13 P1 1.566071 1_555
O14 P2 1.566071 1_555
O15 P0 1.537776 1_545
O16 P1 1.550637 1_555
O17 P3 1.580404 1_555
O18 P2 1.542085 1_555
O19 P2 1.559963 1_555
O20 P3 1.563276 1_565
O21 P3 1.548356 1_555
