# generated using pymatgen
data_LiNiPO4
_symmetry_space_group_name_H-M   'P 1'
_cell_length_a   8.37773223
_cell_length_b   8.37773223
_cell_length_c   7.48371100
_cell_angle_alpha   90.00000000
_cell_angle_beta   90.00000000
_cell_angle_gamma   120.00000179
_symmetry_Int_Tables_number   1
_chemical_formula_structural   LiNiPO4
_chemical_formula_sum   'Li6 Ni6 P6 O24'
_cell_volume   454.88391693
_cell_formula_units_Z   6
loop_
 _symmetry_equiv_pos_site_id
 _symmetry_equiv_pos_as_xyz
  1  'x, y, z'
loop_
 _atom_site_type_symbol
 _atom_site_label
 _atom_site_symmetry_multiplicity
 _atom_site_fract_x
 _atom_site_fract_y
 _atom_site_fract_z
 _atom_site_occupancy
  Li  Li0  1  0.01414900  0.68238700  0.40187800  1
  Li  Li1  1  0.31761300  0.33176200  0.40187800  1
  Li  Li2  1  0.66823800  0.98585100  0.40187800  1
  Li  Li3  1  0.33176200  0.01414900  0.90187800  1
  Li  Li4  1  0.68238700  0.66823800  0.90187800  1
  Li  Li5  1  0.98585100  0.31761300  0.90187800  1
  Ni  Ni0  1  0.33333300  0.66666700  0.30115700  1
  Ni  Ni1  1  0.33333300  0.66666700  0.69834700  1
  Ni  Ni2  1  0.00000000  0.00000000  0.13303800  1
  Ni  Ni3  1  0.00000000  0.00000000  0.63303800  1
  Ni  Ni4  1  0.66666700  0.33333300  0.80115700  1
  Ni  Ni5  1  0.66666700  0.33333300  0.19834700  1
  P  P0  1  0.03825600  0.67471300  0.00517800  1
  P  P1  1  0.32528700  0.36354300  0.00517800  1
  P  P2  1  0.63645700  0.96174400  0.00517800  1
  P  P3  1  0.36354300  0.03825600  0.50517800  1
  P  P4  1  0.67471300  0.63645700  0.50517800  1
  P  P5  1  0.96174400  0.32528700  0.50517800  1
  O  O0  1  0.14828400  0.92867100  0.50146200  1
  O  O1  1  0.14711600  0.72207700  0.18157900  1
  O  O2  1  0.17330500  0.74069900  0.84673500  1
  O  O3  1  0.11179600  0.53336600  0.49736100  1
  O  O4  1  0.42157000  0.88820400  0.49736100  1
  O  O5  1  0.07132900  0.21961300  0.50146200  1
  O  O6  1  0.25930100  0.43260600  0.84673500  1
  O  O7  1  0.27792300  0.42503900  0.18157900  1
  O  O8  1  0.21961300  0.14828400  0.00146200  1
  O  O9  1  0.57496100  0.85288400  0.18157900  1
  O  O10  1  0.56739400  0.82669500  0.84673500  1
  O  O11  1  0.46663400  0.57843000  0.49736100  1
  O  O12  1  0.53336600  0.42157000  0.99736100  1
  O  O13  1  0.43260600  0.17330500  0.34673500  1
  O  O14  1  0.42503900  0.14711600  0.68157900  1
  O  O15  1  0.78038700  0.85171600  0.50146200  1
  O  O16  1  0.72207700  0.57496100  0.68157900  1
  O  O17  1  0.74069900  0.56739400  0.34673500  1
  O  O18  1  0.92867100  0.78038700  0.00146200  1
  O  O19  1  0.57843000  0.11179600  0.99736100  1
  O  O20  1  0.88820400  0.46663400  0.99736100  1
  O  O21  1  0.82669500  0.25930100  0.34673500  1
  O  O22  1  0.85288400  0.27792300  0.68157900  1
  O  O23  1  0.85171600  0.07132900  0.00146200  1
loop_
_geom_bond_atom_site_label_1
_geom_bond_atom_site_label_2
_geom_bond_distance
_geom_bond_site_symmetry_2
Li0 O1 1.923312 1_555
Li0 O0 1.938247 1_555
Li0 O3 1.939018 1_555
Li0 O17 2.034597 1_455
Li1 O7 1.923312 1_555
Li1 O5 1.938247 1_555
Li1 O11 1.939018 1_555
Li1 O13 2.034597 1_555
Li2 O9 1.923312 1_555
Li2 O15 1.938247 1_555
Li2 O4 1.939018 1_555
Li2 O21 2.034597 1_565
Li3 O14 1.923312 1_555
Li3 O8 1.938247 1_556
Li3 O19 1.939018 1_555
Li3 O2 2.034597 1_545
Li4 O16 1.923312 1_555
Li4 O18 1.938247 1_556
Li4 O12 1.939018 1_555
Li4 O10 2.034597 1_555
Li5 O22 1.923312 1_555
Li5 O23 1.938247 1_556
Li5 O20 1.939018 1_555
Li5 O6 2.034597 1_655
Ni0 O1 2.043124 1_555
Ni0 O9 2.043129 1_555
Ni0 O7 2.043131 1_555
Ni0 O4 2.185206 1_555
Ni0 O3 2.185207 1_555
Ni0 O11 2.185212 1_555
Ni1 O2 2.060772 1_555
Ni1 O10 2.060777 1_555
Ni1 O6 2.060778 1_555
Ni1 O4 2.209412 1_555
Ni1 O3 2.209413 1_555
Ni1 O11 2.209418 1_555
Ni2 O8 1.900608 1_555
Ni2 O18 1.900608 1_445
Ni2 O23 1.900608 1_455
Ni3 O15 1.900608 1_445
Ni3 O5 1.900608 1_555
Ni3 O0 1.900608 1_545
Ni4 O22 2.043124 1_555
Ni4 O14 2.043129 1_555
Ni4 O16 2.043131 1_555
Ni4 O19 2.185206 1_555
Ni4 O20 2.185207 1_555
Ni4 O12 2.185212 1_555
Ni5 O21 2.060772 1_555
Ni5 O13 2.060777 1_555
Ni5 O17 2.060778 1_555
Ni5 O19 2.209412 1_554
Ni5 O20 2.209413 1_554
Ni5 O12 2.209418 1_554
O0 P3 1.562108 1_565
O1 P0 1.539502 1_555
O2 P0 1.538248 1_556
O3 P5 1.559216 1_455
O4 P3 1.559216 1_565
O5 P5 1.562108 1_455
O6 P1 1.538248 1_556
O7 P1 1.539502 1_555
O8 P1 1.562108 1_555
O9 P2 1.539502 1_555
O10 P2 1.538248 1_556
O11 P4 1.559216 1_555
O12 P1 1.559216 1_556
O13 P3 1.538248 1_555
O14 P3 1.539502 1_555
O15 P4 1.562108 1_555
O16 P4 1.539502 1_555
O17 P4 1.538248 1_555
O18 P0 1.562108 1_655
O19 P2 1.559216 1_546
O20 P0 1.559216 1_656
O21 P5 1.538248 1_555
O22 P5 1.539502 1_555
O23 P2 1.562108 1_545
