# generated using pymatgen
data_Ba8LiTa7O24
_symmetry_space_group_name_H-M   'P 1'
_cell_length_a   5.89823222
_cell_length_b   5.89823222
_cell_length_c   19.14726800
_cell_angle_alpha   90.00000000
_cell_angle_beta   90.00000000
_cell_angle_gamma   120.00000243
_symmetry_Int_Tables_number   1
_chemical_formula_structural   Ba8LiTa7O24
_chemical_formula_sum   'Ba8 Li1 Ta7 O24'
_cell_volume   576.87427303
_cell_formula_units_Z   1
loop_
 _symmetry_equiv_pos_site_id
 _symmetry_equiv_pos_as_xyz
  1  'x, y, z'
loop_
 _atom_site_type_symbol
 _atom_site_label
 _atom_site_symmetry_multiplicity
 _atom_site_fract_x
 _atom_site_fract_y
 _atom_site_fract_z
 _atom_site_occupancy
  Ba  Ba0  1  0.33333300  0.66666700  0.24989700  1
  Ba  Ba1  1  0.33333300  0.66666700  0.85455100  1
  Ba  Ba2  1  0.00000000  0.00000000  0.99371500  1
  Ba  Ba3  1  0.00000000  0.00000000  0.50051800  1
  Ba  Ba4  1  0.33333300  0.66666700  0.63438300  1
  Ba  Ba5  1  0.66666700  0.33333300  0.13235800  1
  Ba  Ba6  1  0.66666700  0.33333300  0.75368100  1
  Ba  Ba7  1  0.66666700  0.33333300  0.36495000  1
  Li  Li0  1  0.00000000  0.00000000  0.83284200  1
  Ta  Ta0  1  0.33333300  0.66666700  0.06084700  1
  Ta  Ta1  1  0.00000000  0.00000000  0.18210200  1
  Ta  Ta2  1  0.00000000  0.00000000  0.31798700  1
  Ta  Ta3  1  0.00000000  0.00000000  0.68870800  1
  Ta  Ta4  1  0.33333300  0.66666700  0.43921200  1
  Ta  Ta5  1  0.66666700  0.33333300  0.56009300  1
  Ta  Ta6  1  0.66666700  0.33333300  0.93607900  1
  O  O0  1  0.15810300  0.84189700  0.74260300  1
  O  O1  1  0.00064000  0.50032000  0.00490600  1
  O  O2  1  0.99850300  0.49925100  0.49886900  1
  O  O3  1  0.16987000  0.83013000  0.12445000  1
  O  O4  1  0.16919000  0.83081000  0.37671000  1
  O  O5  1  0.16987000  0.33974000  0.12445000  1
  O  O6  1  0.16919000  0.33838000  0.37671000  1
  O  O7  1  0.15810300  0.31620600  0.74260300  1
  O  O8  1  0.32178700  0.16089400  0.24966100  1
  O  O9  1  0.66162000  0.83081000  0.37671000  1
  O  O10  1  0.66026000  0.83013000  0.12445000  1
  O  O11  1  0.49968000  0.50032000  0.00490600  1
  O  O12  1  0.50074900  0.49925100  0.49886900  1
  O  O13  1  0.33648200  0.16824100  0.61991800  1
  O  O14  1  0.34884000  0.17442000  0.88229300  1
  O  O15  1  0.68379400  0.84189700  0.74260300  1
  O  O16  1  0.83175900  0.66351800  0.61991800  1
  O  O17  1  0.49968000  0.99936000  0.00490600  1
  O  O18  1  0.50074900  0.00149700  0.49886900  1
  O  O19  1  0.82558000  0.65116000  0.88229300  1
  O  O20  1  0.83910600  0.67821300  0.24966100  1
  O  O21  1  0.82558000  0.17442000  0.88229300  1
  O  O22  1  0.83175900  0.16824100  0.61991800  1
  O  O23  1  0.83910600  0.16089400  0.24966100  1
loop_
_geom_bond_atom_site_label_1
_geom_bond_atom_site_label_2
_geom_bond_distance
_geom_bond_site_symmetry_2
Ba0 O3 2.925433 1_555
Ba0 O5 2.925436 1_555
Ba0 O10 2.925436 1_555
Ba0 O23 2.949709 1_455
Ba0 O23 2.949709 1_565
Ba0 O20 2.949709 1_555
Ba0 O8 2.949709 1_555
Ba0 O20 2.949709 1_455
Ba0 O8 2.949709 1_565
Ba0 O4 2.950888 1_555
Ba0 O6 2.950891 1_555
Ba0 O9 2.950891 1_555
Ba1 O0 2.792713 1_555
Ba1 O7 2.792716 1_555
Ba1 O15 2.792716 1_555
Ba1 O19 2.997615 1_455
Ba1 O14 2.997615 1_565
Ba1 O21 2.997618 1_565
Ba1 O21 2.997618 1_455
Ba1 O14 2.997621 1_555
Ba1 O19 2.997621 1_555
Ba1 O1 3.343047 1_556
Ba1 O17 3.343047 1_556
Ba1 O11 3.343049 1_556
Ba2 O14 2.779678 1_555
Ba2 O19 2.779678 1_445
Ba2 O21 2.779678 1_455
Ba2 O11 2.956892 1_446
Ba2 O11 2.956892 1_556
Ba2 O17 2.956892 1_446
Ba2 O1 2.956892 1_556
Ba2 O1 2.956892 1_546
Ba2 O17 2.956892 1_546
Ba2 O5 3.045933 1_556
Ba2 O10 3.045933 1_446
Ba2 O3 3.045933 1_546
Ba3 O16 2.860203 1_445
Ba3 O13 2.860203 1_555
Ba3 O22 2.860203 1_455
Ba3 O6 2.933806 1_555
Ba3 O9 2.933806 1_445
Ba3 O4 2.933806 1_545
Ba3 O2 2.949292 1_455
Ba3 O18 2.949292 1_455
Ba3 O12 2.949295 1_555
Ba3 O12 2.949295 1_445
Ba3 O18 2.949298 1_555
Ba3 O2 2.949298 1_445
Ba4 O0 2.738308 1_555
Ba4 O7 2.738311 1_555
Ba4 O15 2.738311 1_555
Ba4 O16 2.962134 1_455
Ba4 O13 2.962134 1_565
Ba4 O22 2.962137 1_455
Ba4 O22 2.962137 1_565
Ba4 O16 2.962140 1_555
Ba4 O13 2.962140 1_555
Ba4 O2 3.107696 1_455
Ba4 O18 3.107696 1_565
Ba4 O12 3.107702 1_555
Ba5 O23 2.854478 1_555
Ba5 O20 2.854485 1_555
Ba5 O8 2.854485 1_555
Ba5 O5 2.953179 1_655
Ba5 O10 2.953179 1_545
Ba5 O3 2.953182 1_655
Ba5 O3 2.953182 1_545
Ba5 O5 2.953185 1_555
Ba5 O10 2.953185 1_555
Ba5 O17 2.977512 1_545
Ba5 O1 2.977512 1_655
Ba5 O11 2.977515 1_555
Ba6 O21 2.949554 1_555
Ba6 O14 2.949557 1_555
Ba6 O19 2.949557 1_555
Ba6 O15 2.958025 1_545
Ba6 O7 2.958025 1_655
Ba6 O0 2.958028 1_545
Ba6 O0 2.958028 1_655
Ba6 O7 2.958031 1_555
Ba6 O15 2.958031 1_555
Ba6 O22 3.066643 1_555
Ba6 O16 3.066646 1_555
Ba6 O13 3.066646 1_555
Ba7 O23 2.824236 1_555
Ba7 O20 2.824242 1_555
Ba7 O8 2.824242 1_555
Ba7 O9 2.957809 1_545
Ba7 O6 2.957809 1_655
Ba7 O4 2.957812 1_655
Ba7 O4 2.957812 1_545
Ba7 O6 2.957815 1_555
Ba7 O9 2.957815 1_555
Ba7 O18 3.073783 1_555
Ba7 O2 3.073783 1_555
Ba7 O12 3.073783 1_555
Li0 O14 2.017828 1_555
Li0 O19 2.017828 1_445
Li0 O21 2.017828 1_455
Li0 O7 2.365211 1_555
Li0 O15 2.365211 1_445
Li0 O0 2.365211 1_545
O0 Ta3 1.916698 1_565
O1 Ta0 2.008796 1_555
O1 Ta6 2.155681 1_454
O2 Ta4 2.056688 1_655
O2 Ta5 2.060905 1_555
O3 Ta1 2.056734 1_565
O3 Ta0 2.066835 1_555
O4 Ta4 2.060135 1_555
O4 Ta2 2.061986 1_565
O5 Ta1 2.056734 1_555
O5 Ta0 2.066839 1_555
O6 Ta4 2.060139 1_555
O6 Ta2 2.061986 1_555
O7 Ta3 1.916698 1_555
O8 Ta1 2.091663 1_555
O8 Ta2 2.100777 1_555
O9 Ta4 2.060139 1_555
O9 Ta2 2.061986 1_665
O10 Ta1 2.056734 1_665
O10 Ta0 2.066839 1_555
O11 Ta0 2.008800 1_555
O11 Ta6 2.155685 1_554
O12 Ta4 2.056696 1_555
O12 Ta5 2.060905 1_555
O13 Ta5 2.038805 1_555
O13 Ta3 2.165406 1_555
O14 Ta6 1.922562 1_555
O15 Ta3 1.916698 1_665
O16 Ta5 2.038805 1_555
O16 Ta3 2.165406 1_665
O17 Ta0 2.008796 1_555
O17 Ta6 2.155681 1_564
O18 Ta4 2.056688 1_545
O18 Ta5 2.060905 1_555
O19 Ta6 1.922562 1_555
O20 Ta1 2.091663 1_665
O20 Ta2 2.100777 1_665
O21 Ta6 1.922558 1_555
O22 Ta5 2.038801 1_555
O22 Ta3 2.165406 1_655
O23 Ta1 2.091667 1_655
O23 Ta2 2.100781 1_655
