# generated using pymatgen
data_FeOF
_symmetry_space_group_name_H-M   'P 1'
_cell_length_a   3.11267100
_cell_length_b   4.92189500
_cell_length_c   14.51425479
_cell_angle_alpha   89.95347020
_cell_angle_beta   90.00000000
_cell_angle_gamma   90.00000000
_symmetry_Int_Tables_number   1
_chemical_formula_structural   FeOF
_chemical_formula_sum   'Fe6 O6 F6'
_cell_volume   222.36179098
_cell_formula_units_Z   6
loop_
 _symmetry_equiv_pos_site_id
 _symmetry_equiv_pos_as_xyz
  1  'x, y, z'
loop_
 _atom_site_type_symbol
 _atom_site_label
 _atom_site_symmetry_multiplicity
 _atom_site_fract_x
 _atom_site_fract_y
 _atom_site_fract_z
 _atom_site_occupancy
  Fe  Fe0  1  0.00000000  0.97316300  0.99381800  1
  Fe  Fe1  1  0.00000000  0.97980300  0.66346800  1
  Fe  Fe2  1  0.00000000  0.96805900  0.33192300  1
  Fe  Fe3  1  0.50000000  0.48297200  0.85140700  1
  Fe  Fe4  1  0.50000000  0.55243200  0.50124800  1
  Fe  Fe5  1  0.50000000  0.55243900  0.16385500  1
  O  O0  1  0.50000000  0.81618200  0.39363900  1
  O  O1  1  0.50000000  0.81543900  0.06189000  1
  O  O2  1  0.00000000  0.66126800  0.89949800  1
  O  O3  1  0.00000000  0.71361900  0.22489600  1
  O  O4  1  0.00000000  0.69414900  0.56460100  1
  O  O5  1  0.50000000  0.17051300  0.93714900  1
  F  F0  1  0.50000000  0.78547800  0.73890300  1
  F  F1  1  0.00000000  0.28427500  0.76724300  1
  F  F2  1  0.00000000  0.31200900  0.43489600  1
  F  F3  1  0.00000000  0.31897800  0.10358900  1
  F  F4  1  0.50000000  0.20529900  0.60072400  1
  F  F5  1  0.50000000  0.21392500  0.26725500  1
loop_
_geom_bond_atom_site_label_1
_geom_bond_atom_site_label_2
_geom_bond_distance
_geom_bond_site_symmetry_2
Fe0 O1 1.999937 1_456
Fe0 O1 1.999937 1_556
Fe0 O5 2.010198 1_565
Fe0 O5 2.010198 1_465
Fe0 O2 2.057695 1_555
Fe1 O4 2.009768 1_555
Fe2 O0 1.944806 1_555
Fe2 O0 1.944806 1_455
Fe2 O3 1.996143 1_555
Fe3 O2 1.918460 1_555
Fe3 O2 1.918460 1_655
Fe3 O5 1.977557 1_555
Fe4 O4 1.937852 1_555
Fe4 O4 1.937852 1_655
Fe4 O0 2.030104 1_555
Fe5 O3 1.958979 1_555
Fe5 O3 1.958979 1_655
Fe5 O1 1.965388 1_555
F0 Fe1 2.129328 1_655
F0 Fe1 2.129328 1_555
F0 Fe3 2.208910 1_555
F1 Fe1 2.125581 1_545
F1 Fe3 2.207440 1_555
F1 Fe3 2.207440 1_455
F2 Fe4 2.179858 1_455
F2 Fe4 2.179858 1_555
F2 Fe2 2.259144 1_545
F3 Fe5 2.123512 1_555
F3 Fe5 2.123512 1_455
F3 Fe0 2.332350 1_544
F4 Fe1 2.117000 1_545
F4 Fe1 2.117000 1_645
F4 Fe4 2.236014 1_555
F5 Fe2 2.183054 1_645
F5 Fe2 2.183054 1_545
F5 Fe5 2.241484 1_555
