# generated using pymatgen
data_Nd4O3F7
_symmetry_space_group_name_H-M   'P 1'
_cell_length_a   5.85216800
_cell_length_b   5.51608900
_cell_length_c   5.86685331
_cell_angle_alpha   88.89942935
_cell_angle_beta   90.00000000
_cell_angle_gamma   90.00000000
_symmetry_Int_Tables_number   1
_chemical_formula_structural   Nd4O3F7
_chemical_formula_sum   'Nd4 O3 F7'
_cell_volume   189.35342016
_cell_formula_units_Z   1
loop_
 _symmetry_equiv_pos_site_id
 _symmetry_equiv_pos_as_xyz
  1  'x, y, z'
loop_
 _atom_site_type_symbol
 _atom_site_label
 _atom_site_symmetry_multiplicity
 _atom_site_fract_x
 _atom_site_fract_y
 _atom_site_fract_z
 _atom_site_occupancy
  Nd  Nd0  1  0.27504400  0.27220900  0.75110100  1
  Nd  Nd1  1  0.79610400  0.76099900  0.74810200  1
  Nd  Nd2  1  0.79610400  0.23900100  0.25189800  1
  Nd  Nd3  1  0.27504400  0.72779100  0.24889900  1
  O  O0  1  0.04015600  0.50000000  0.00000000  1
  O  O1  1  0.02568200  0.00000000  0.00000000  1
  O  O2  1  0.99614300  0.50000000  0.50000000  1
  F  F0  1  0.56001000  0.50000000  0.00000000  1
  F  F1  1  0.39962200  0.68395300  0.64622000  1
  F  F2  1  0.49440900  0.00000000  0.00000000  1
  F  F3  1  0.39962200  0.31604700  0.35378000  1
  F  F4  1  0.67983100  0.82505900  0.34675300  1
  F  F5  1  0.67983100  0.17494100  0.65324700  1
  F  F6  1  0.08039600  0.00000000  0.50000000  1
loop_
_geom_bond_atom_site_label_1
_geom_bond_atom_site_label_2
_geom_bond_distance
_geom_bond_site_symmetry_2
Nd0 O0 2.381427 1_556
Nd0 O2 2.518324 1_455
Nd0 O1 2.536195 1_556
Nd1 O2 2.375369 1_555
Nd1 O1 2.408734 1_666
Nd1 O0 2.492964 1_656
Nd2 O2 2.375369 1_555
Nd2 O1 2.408734 1_655
Nd2 O0 2.492964 1_655
Nd3 O0 2.381427 1_555
Nd3 O2 2.518324 1_455
Nd3 O1 2.536195 1_565
F0 Nd1 2.466579 1_554
F0 Nd2 2.466579 1_555
F0 Nd0 2.561792 1_554
F0 Nd3 2.561792 1_555
F1 Nd1 2.435436 1_555
F1 Nd3 2.449900 1_555
F1 Nd0 2.452524 1_555
F2 Nd0 2.439415 1_554
F2 Nd3 2.439415 1_545
F2 Nd1 2.667240 1_544
F2 Nd2 2.667240 1_555
F3 Nd2 2.435436 1_555
F3 Nd0 2.449900 1_555
F3 Nd3 2.452524 1_555
F4 Nd2 2.436706 1_565
F4 Nd1 2.469882 1_555
F4 Nd3 2.498178 1_555
F5 Nd1 2.436706 1_545
F5 Nd2 2.469882 1_555
F5 Nd0 2.498178 1_555
F6 Nd0 2.409850 1_555
F6 Nd3 2.409850 1_545
F6 Nd2 2.559496 1_455
F6 Nd1 2.559496 1_445
