# generated using pymatgen
data_LiTi11O20
_symmetry_space_group_name_H-M   'P 1'
_cell_length_a   7.26148500
_cell_length_b   7.69494626
_cell_length_c   13.24645331
_cell_angle_alpha   90.42437985
_cell_angle_beta   92.73453623
_cell_angle_gamma   104.09049257
_symmetry_Int_Tables_number   1
_chemical_formula_structural   LiTi11O20
_chemical_formula_sum   'Li2 Ti22 O40'
_cell_volume   716.94300811
_cell_formula_units_Z   2
loop_
 _symmetry_equiv_pos_site_id
 _symmetry_equiv_pos_as_xyz
  1  'x, y, z'
loop_
 _atom_site_type_symbol
 _atom_site_label
 _atom_site_symmetry_multiplicity
 _atom_site_fract_x
 _atom_site_fract_y
 _atom_site_fract_z
 _atom_site_occupancy
  Li  Li0  1  0.39325200  0.94915200  0.77837100  1
  Li  Li1  1  0.60674800  0.05084800  0.22162900  1
  Ti  Ti0  1  0.01268600  0.92868000  0.20115400  1
  Ti  Ti1  1  0.03716900  0.43545800  0.70901100  1
  Ti  Ti2  1  0.00362400  0.29840300  0.12668100  1
  Ti  Ti3  1  0.00695000  0.20701200  0.36931200  1
  Ti  Ti4  1  0.32036100  0.94262300  0.42612900  1
  Ti  Ti5  1  0.31194000  0.71375400  0.08088800  1
  Ti  Ti6  1  0.32536300  0.57402400  0.51380400  1
  Ti  Ti7  1  0.33635100  0.43384100  0.92703600  1
  Ti  Ti8  1  0.35657100  0.63181400  0.28807900  1
  Ti  Ti9  1  0.30291600  0.20372900  0.58632400  1
  Ti  Ti10  1  0.32085500  0.08280000  0.00712800  1
  Ti  Ti11  1  0.67914500  0.91720000  0.99287200  1
  Ti  Ti12  1  0.69708400  0.79627100  0.41367600  1
  Ti  Ti13  1  0.64342900  0.36818600  0.71192100  1
  Ti  Ti14  1  0.66364900  0.56615900  0.07296400  1
  Ti  Ti15  1  0.67463700  0.42597600  0.48619600  1
  Ti  Ti16  1  0.68806000  0.28624600  0.91911200  1
  Ti  Ti17  1  0.67963900  0.05737700  0.57387100  1
  Ti  Ti18  1  0.99305000  0.79298800  0.63068800  1
  Ti  Ti19  1  0.99637600  0.70159700  0.87331900  1
  Ti  Ti20  1  0.96283100  0.56454200  0.29098900  1
  Ti  Ti21  1  0.98731400  0.07132000  0.79884600  1
  O  O0  1  0.11995800  0.88344000  0.76627900  1
  O  O1  1  0.17200000  0.82394300  0.97675200  1
  O  O2  1  0.17133800  0.95432700  0.54910200  1
  O  O3  1  0.16303400  0.73972000  0.20152200  1
  O  O4  1  0.16111700  0.54092100  0.83490200  1
  O  O5  1  0.16507600  0.61715800  0.62053300  1
  O  O6  1  0.18569900  0.67870300  0.40396600  1
  O  O7  1  0.14334400  0.40417200  0.26799300  1
  O  O8  1  0.15170200  0.23653200  0.69510100  1
  O  O9  1  0.17393700  0.17897700  0.90178400  1
  O  O10  1  0.18006700  0.32733100  0.47797600  1
  O  O11  1  0.17558300  0.46270000  0.04671100  1
  O  O12  1  0.16373100  0.03831400  0.33582100  1
  O  O13  1  0.16199900  0.11310600  0.11883700  1
  O  O14  1  0.48461100  0.95355900  0.09450800  1
  O  O15  1  0.49675200  0.67971600  0.97035000  1
  O  O16  1  0.49897400  0.88255400  0.32852600  1
  O  O17  1  0.50333400  0.82665200  0.52483900  1
  O  O18  1  0.49013000  0.45362400  0.60352000  1
  O  O19  1  0.49122400  0.60416700  0.17290700  1
  O  O20  1  0.50877600  0.39583300  0.82709300  1
  O  O21  1  0.50987000  0.54637600  0.39648000  1
  O  O22  1  0.49666600  0.17334800  0.47516100  1
  O  O23  1  0.50102600  0.11744600  0.67147400  1
  O  O24  1  0.50324800  0.32028400  0.02965000  1
  O  O25  1  0.51538900  0.04644100  0.90549200  1
  O  O26  1  0.83800100  0.88689400  0.88116300  1
  O  O27  1  0.83626900  0.96168600  0.66417900  1
  O  O28  1  0.82441700  0.53730000  0.95328900  1
  O  O29  1  0.81993300  0.67266900  0.52202400  1
  O  O30  1  0.82606300  0.82102300  0.09821600  1
  O  O31  1  0.84829800  0.76346800  0.30489900  1
  O  O32  1  0.85665600  0.59582800  0.73200700  1
  O  O33  1  0.81430100  0.32129700  0.59603400  1
  O  O34  1  0.83492400  0.38284200  0.37946700  1
  O  O35  1  0.83888300  0.45907900  0.16509800  1
  O  O36  1  0.83696600  0.26028000  0.79847800  1
  O  O37  1  0.82866200  0.04567300  0.45089800  1
  O  O38  1  0.82800000  0.17605700  0.02324800  1
  O  O39  1  0.88004200  0.11656000  0.23372100  1
loop_
_geom_bond_atom_site_label_1
_geom_bond_atom_site_label_2
_geom_bond_distance
_geom_bond_site_symmetry_2
Li0 O25 1.923045 1_565
Li0 O0 1.923416 1_555
Li0 O23 1.983438 1_565
Li1 O14 1.923045 1_545
Li1 O39 1.923416 1_555
Li1 O16 1.983438 1_545
O0 Ti21 1.977979 1_465
O0 Ti18 2.017647 1_455
O0 Ti19 2.076801 1_455
O1 Ti19 1.902497 1_455
O1 Ti5 1.989340 1_556
O1 Ti10 2.048459 1_566
O2 Ti18 1.938075 1_455
O2 Ti9 1.971622 1_565
O2 Ti4 2.011489 1_555
O3 Ti5 2.006972 1_555
O3 Ti0 2.019580 1_555
O3 Ti8 2.099445 1_555
O3 Ti20 2.137500 1_455
O4 Ti1 1.931497 1_555
O4 Ti19 1.996901 1_455
O4 Ti7 2.040786 1_555
O5 Ti1 1.920159 1_555
O5 Ti6 1.949826 1_555
O5 Ti18 2.060435 1_455
O6 Ti6 2.017080 1_555
O6 Ti4 2.040483 1_555
O6 Ti8 2.101846 1_555
O6 Ti20 2.165091 1_455
O7 Ti20 2.038126 1_455
O7 Ti8 2.042003 1_555
O7 Ti3 2.123507 1_555
O7 Ti2 2.142399 1_555
O8 Ti9 1.904246 1_555
O8 Ti1 1.923298 1_555
O8 Ti21 2.091218 1_455
O9 Ti21 1.908498 1_455
O9 Ti10 1.972509 1_556
O9 Ti7 2.043384 1_555
O10 Ti3 1.936563 1_555
O10 Ti6 1.976257 1_555
O10 Ti9 2.017782 1_555
O11 Ti2 1.912352 1_555
O11 Ti5 1.982498 1_555
O11 Ti7 2.054957 1_554
O12 Ti4 1.886223 1_545
O12 Ti3 1.984257 1_555
O12 Ti0 2.106500 1_545
O13 Ti0 1.940378 1_545
O13 Ti10 1.965556 1_555
O13 Ti2 2.043052 1_555
O14 Ti5 1.963845 1_555
O14 Ti10 2.050439 1_565
O14 Ti11 2.062673 1_554
O15 Ti11 1.989571 1_555
O15 Ti7 2.027964 1_555
O15 Ti5 2.089628 1_556
O15 Ti14 2.110916 1_556
O16 Ti4 2.002619 1_555
O16 Ti8 2.009828 1_555
O16 Ti12 2.025803 1_555
O17 Ti17 2.002453 1_565
O17 Ti6 2.055481 1_555
O17 Ti12 2.134264 1_555
O17 Ti4 2.168001 1_555
O18 Ti13 1.987736 1_555
O18 Ti6 2.030407 1_555
O18 Ti9 2.070935 1_555
O18 Ti15 2.142007 1_555
O19 Ti8 1.888821 1_555
O19 Ti14 1.933031 1_555
O19 Ti5 2.071252 1_555
O20 Ti13 1.888821 1_555
O20 Ti7 1.933031 1_555
O20 Ti16 2.071252 1_555
O21 Ti8 1.987736 1_555
O21 Ti15 2.030407 1_555
O21 Ti12 2.070935 1_555
O21 Ti6 2.142007 1_555
O22 Ti4 2.002453 1_545
O22 Ti15 2.055481 1_555
O22 Ti9 2.134264 1_555
O22 Ti17 2.168001 1_555
O23 Ti17 2.002619 1_555
O23 Ti13 2.009828 1_555
O23 Ti9 2.025803 1_555
O24 Ti10 1.989571 1_555
O24 Ti14 2.027964 1_555
O24 Ti16 2.089628 1_554
O24 Ti7 2.110916 1_554
O25 Ti16 1.963845 1_555
O25 Ti11 2.050439 1_545
O25 Ti10 2.062673 1_556
O26 Ti21 1.940378 1_565
O26 Ti11 1.965556 1_555
O26 Ti19 2.043052 1_555
O27 Ti17 1.886223 1_565
O27 Ti18 1.984257 1_555
O27 Ti21 2.106500 1_565
O28 Ti19 1.912352 1_555
O28 Ti16 1.982498 1_555
O28 Ti14 2.054957 1_556
O29 Ti18 1.936563 1_555
O29 Ti15 1.976257 1_555
O29 Ti12 2.017782 1_555
O30 Ti0 1.908498 1_655
O30 Ti11 1.972509 1_554
O30 Ti14 2.043384 1_555
O31 Ti12 1.904246 1_555
O31 Ti20 1.923298 1_555
O31 Ti0 2.091218 1_655
O32 Ti1 2.038126 1_655
O32 Ti13 2.042003 1_555
O32 Ti18 2.123507 1_555
O32 Ti19 2.142399 1_555
O33 Ti15 2.017080 1_555
O33 Ti17 2.040483 1_555
O33 Ti13 2.101846 1_555
O33 Ti1 2.165091 1_655
O34 Ti20 1.920159 1_555
O34 Ti15 1.949826 1_555
O34 Ti3 2.060435 1_655
O35 Ti20 1.931497 1_555
O35 Ti2 1.996901 1_655
O35 Ti14 2.040786 1_555
O36 Ti16 2.006972 1_555
O36 Ti21 2.019580 1_555
O36 Ti13 2.099445 1_555
O36 Ti1 2.137500 1_655
O37 Ti3 1.938075 1_655
O37 Ti12 1.971622 1_545
O37 Ti17 2.011489 1_555
O38 Ti2 1.902497 1_655
O38 Ti16 1.989340 1_554
O38 Ti11 2.048459 1_544
O39 Ti0 1.977979 1_645
O39 Ti3 2.017647 1_655
O39 Ti2 2.076801 1_655
