# generated using pymatgen
data_Li4(NiO2)5
_symmetry_space_group_name_H-M   'P 1'
_cell_length_a   5.02153554
_cell_length_b   5.74008312
_cell_length_c   6.33715856
_cell_angle_alpha   104.37271514
_cell_angle_beta   96.74851950
_cell_angle_gamma   107.56723947
_symmetry_Int_Tables_number   1
_chemical_formula_structural   Li4(NiO2)5
_chemical_formula_sum   'Li4 Ni5 O10'
_cell_volume   164.99051501
_cell_formula_units_Z   1
loop_
 _symmetry_equiv_pos_site_id
 _symmetry_equiv_pos_as_xyz
  1  'x, y, z'
loop_
 _atom_site_type_symbol
 _atom_site_label
 _atom_site_symmetry_multiplicity
 _atom_site_fract_x
 _atom_site_fract_y
 _atom_site_fract_z
 _atom_site_occupancy
  Li  Li0  1  0.59875958  0.19343759  0.18913395  1
  Li  Li1  1  0.40124042  0.80656241  0.81086605  1
  Li  Li2  1  0.19530125  0.38730657  0.38935930  1
  Li  Li3  1  0.80469875  0.61269343  0.61064070  1
  Ni  Ni0  1  0.60516685  0.70291276  0.20227890  1
  Ni  Ni1  1  0.20314208  0.90310695  0.39903769  1
  Ni  Ni2  1  0.39483315  0.29708724  0.79772110  1
  Ni  Ni3  1  0.00000000  0.50000000  -0.00000000  1
  Ni  Ni4  1  0.79685792  0.09689305  0.60096231  1
  O  O0  1  0.67019065  0.62567647  0.90888925  1
  O  O1  1  0.48038230  0.23771929  0.51229981  1
  O  O2  1  0.67666724  0.16397588  0.87429679  1
  O  O3  1  0.51961770  0.76228071  0.48770019  1
  O  O4  1  0.32980935  0.37432353  0.09111075  1
  O  O5  1  0.32333276  0.83602412  0.12570321  1
  O  O6  1  0.10186635  0.41932961  0.70181287  1
  O  O7  1  0.87742650  0.03528559  0.31762101  1
  O  O8  1  0.12257350  0.96471441  0.68237899  1
  O  O9  1  0.89813365  0.58067039  0.29818713  1
loop_
_geom_bond_atom_site_label_1
_geom_bond_atom_site_label_2
_geom_bond_distance
_geom_bond_site_symmetry_2
Li0 O5 2.007617 1_545
Li0 O2 2.053835 1_554
Li0 O4 2.063352 1_555
Li0 O7 2.076357 1_555
Li0 O9 2.157382 1_555
Li0 O1 2.175078 1_555
Li1 O2 2.007617 1_565
Li1 O5 2.053835 1_556
Li1 O0 2.063352 1_555
Li1 O8 2.076357 1_555
Li1 O6 2.157382 1_555
Li1 O3 2.175078 1_555
Li2 O1 2.050747 1_555
Li2 O7 2.064932 1_455
Li2 O6 2.065019 1_555
Li2 O4 2.072328 1_555
Li2 O3 2.157064 1_555
Li2 O9 2.215417 1_455
Li3 O3 2.050747 1_555
Li3 O8 2.064932 1_655
Li3 O9 2.065019 1_555
Li3 O0 2.072328 1_555
Li3 O1 2.157064 1_555
Li3 O6 2.215417 1_655
Ni0 O5 1.870192 1_555
Ni0 O4 1.871571 1_555
Ni0 O3 1.880763 1_555
Ni0 O7 1.881909 1_565
Ni0 O0 1.892311 1_554
Ni0 O9 1.910690 1_555
Ni1 O8 1.858683 1_555
Ni1 O5 1.888858 1_555
Ni1 O1 1.899744 1_565
Ni1 O9 1.910842 1_455
Ni1 O7 2.064492 1_465
Ni1 O3 2.070209 1_555
Ni2 O2 1.870192 1_555
Ni2 O0 1.871571 1_555
Ni2 O1 1.880763 1_555
Ni2 O8 1.881909 1_545
Ni2 O4 1.892311 1_556
Ni2 O6 1.910690 1_555
Ni3 O6 1.995655 1_554
Ni3 O9 1.995655 1_455
Ni3 O5 2.008439 1_555
Ni3 O2 2.008439 1_454
Ni3 O4 2.073610 1_555
Ni3 O0 2.073610 1_454
Ni4 O7 1.858683 1_555
Ni4 O2 1.888858 1_555
Ni4 O3 1.899744 1_545
Ni4 O6 1.910842 1_655
Ni4 O8 2.064492 1_645
Ni4 O1 2.070209 1_555
