# generated using pymatgen
data_Mn2Hg2O7
_symmetry_space_group_name_H-M   'P 1'
_cell_length_a   7.17682553
_cell_length_b   7.17663250
_cell_length_c   7.17693301
_cell_angle_alpha   59.99746754
_cell_angle_beta   59.99822047
_cell_angle_gamma   59.99645063
_symmetry_Int_Tables_number   1
_chemical_formula_structural   Mn2Hg2O7
_chemical_formula_sum   'Mn4 Hg4 O14'
_cell_volume   261.36726124
_cell_formula_units_Z   2
loop_
 _symmetry_equiv_pos_site_id
 _symmetry_equiv_pos_as_xyz
  1  'x, y, z'
loop_
 _atom_site_type_symbol
 _atom_site_label
 _atom_site_symmetry_multiplicity
 _atom_site_fract_x
 _atom_site_fract_y
 _atom_site_fract_z
 _atom_site_occupancy
  Mn  Mn0  1  0.00000100  0.99999600  0.00000200  1
  Mn  Mn1  1  0.49999800  0.00000500  0.99999400  1
  Mn  Mn2  1  0.99999700  0.00000100  0.50000000  1
  Mn  Mn3  1  0.00000900  0.49999700  0.99999800  1
  Hg  Hg0  1  0.49999800  0.00000000  0.50000100  1
  Hg  Hg1  1  0.50000100  0.50000100  0.00000000  1
  Hg  Hg2  1  0.99999900  0.49999900  0.50000200  1
  Hg  Hg3  1  0.50000000  0.50000200  0.49999800  1
  O  O0  1  0.67888000  0.07110300  0.07110800  1
  O  O1  1  0.92891000  0.32111200  0.32111500  1
  O  O2  1  0.07109100  0.07111100  0.67889300  1
  O  O3  1  0.67887800  0.67889300  0.07110300  1
  O  O4  1  0.37496800  0.37499900  0.37500400  1
  O  O5  1  0.67886800  0.07111100  0.67888300  1
  O  O6  1  0.07108700  0.67889600  0.07111000  1
  O  O7  1  0.32112600  0.92889300  0.32111600  1
  O  O8  1  0.92890500  0.92888600  0.32111200  1
  O  O9  1  0.32112900  0.32111000  0.92889200  1
  O  O10  1  0.62503100  0.62500100  0.62499600  1
  O  O11  1  0.92891600  0.32109900  0.92889300  1
  O  O12  1  0.07108900  0.67889000  0.67888300  1
  O  O13  1  0.32111600  0.92889700  0.92889400  1
loop_
_geom_bond_atom_site_label_1
_geom_bond_atom_site_label_2
_geom_bond_distance
_geom_bond_site_symmetry_2
Mn0 O6 1.933788 1_555
Mn0 O11 1.933808 1_464
Mn0 O13 1.933938 1_554
Mn0 O2 1.933946 1_564
Mn0 O8 1.933951 1_455
Mn0 O0 1.933969 1_465
Mn1 O9 1.933731 1_555
Mn1 O3 1.933783 1_546
Mn1 O13 1.933840 1_545
Mn1 O0 1.933861 1_556
Mn1 O5 1.933884 1_555
Mn1 O7 1.933944 1_546
Mn2 O12 1.933800 1_645
Mn2 O1 1.933803 1_555
Mn2 O8 1.933884 1_545
Mn2 O2 1.933902 1_655
Mn2 O5 1.933961 1_555
Mn2 O7 1.933962 1_645
Mn3 O6 1.933840 1_556
Mn3 O11 1.933875 1_455
Mn3 O9 1.933884 1_555
Mn3 O1 1.933919 1_456
Mn3 O12 1.933920 1_555
Mn3 O3 1.933954 1_456
Hg0 O4 2.197289 1_555
Hg0 O10 2.197289 1_545
Hg0 O5 2.552484 1_555
Hg0 O7 2.552494 1_545
Hg0 O13 2.552619 1_545
Hg0 O0 2.552619 1_555
Hg0 O8 2.552640 1_545
Hg0 O2 2.552643 1_555
Hg1 O10 2.197449 1_554
Hg1 O4 2.197449 1_555
Hg1 O13 2.552472 1_554
Hg1 O0 2.552483 1_555
Hg1 O9 2.552516 1_554
Hg1 O3 2.552527 1_555
Hg1 O6 2.552659 1_555
Hg1 O11 2.552668 1_554
Hg2 O10 2.197183 1_555
Hg2 O4 2.197189 1_655
Hg2 O8 2.552446 1_555
Hg2 O2 2.552454 1_655
Hg2 O12 2.552485 1_655
Hg2 O1 2.552492 1_555
Hg2 O11 2.552616 1_555
Hg2 O6 2.552616 1_655
Hg3 O10 2.197644 1_555
Hg3 O4 2.197650 1_555
Hg3 O5 2.552398 1_555
Hg3 O7 2.552402 1_555
Hg3 O9 2.552565 1_555
Hg3 O3 2.552577 1_555
Hg3 O1 2.552594 1_555
Hg3 O12 2.552599 1_555
