# generated using pymatgen
data_ZrH11C4NOF5
_symmetry_space_group_name_H-M   'P 1'
_cell_length_a   9.86683400
_cell_length_b   10.16048500
_cell_length_c   19.31917100
_cell_angle_alpha   90.00000000
_cell_angle_beta   90.00000000
_cell_angle_gamma   90.00000000
_symmetry_Int_Tables_number   1
_chemical_formula_structural   ZrH11C4NOF5
_chemical_formula_sum   'Zr8 H88 C32 N8 O8 F40'
_cell_volume   1936.78203151
_cell_formula_units_Z   8
loop_
 _symmetry_equiv_pos_site_id
 _symmetry_equiv_pos_as_xyz
  1  'x, y, z'
loop_
 _atom_site_type_symbol
 _atom_site_label
 _atom_site_symmetry_multiplicity
 _atom_site_fract_x
 _atom_site_fract_y
 _atom_site_fract_z
 _atom_site_occupancy
  Zr  Zr0  1  0.09120300  0.53151600  0.41957300  1
  Zr  Zr1  1  0.59120300  0.46848400  0.08042700  1
  Zr  Zr2  1  0.90879700  0.96848400  0.91957300  1
  Zr  Zr3  1  0.40879700  0.03151600  0.58042700  1
  Zr  Zr4  1  0.90879700  0.46848400  0.58042700  1
  Zr  Zr5  1  0.40879700  0.53151600  0.91957300  1
  Zr  Zr6  1  0.09120300  0.03151600  0.08042700  1
  Zr  Zr7  1  0.59120300  0.96848400  0.41957300  1
  H  H0  1  0.14382900  0.01148000  0.44445200  1
  H  H1  1  0.64382900  0.98852000  0.05554800  1
  H  H2  1  0.85617100  0.48852000  0.94445200  1
  H  H3  1  0.35617100  0.51148000  0.55554800  1
  H  H4  1  0.85617100  0.98852000  0.55554800  1
  H  H5  1  0.35617100  0.01148000  0.94445200  1
  H  H6  1  0.14382900  0.51148000  0.05554800  1
  H  H7  1  0.64382900  0.48852000  0.44445200  1
  H  H8  1  0.96798600  0.97165900  0.42515900  1
  H  H9  1  0.46798600  0.02834100  0.07484100  1
  H  H10  1  0.03201400  0.52834100  0.92515900  1
  H  H11  1  0.53201400  0.47165900  0.57484100  1
  H  H12  1  0.03201400  0.02834100  0.57484100  1
  H  H13  1  0.53201400  0.97165900  0.92515900  1
  H  H14  1  0.96798600  0.47165900  0.07484100  1
  H  H15  1  0.46798600  0.52834100  0.42515900  1
  H  H16  1  0.01915800  0.14053000  0.43500500  1
  H  H17  1  0.51915800  0.85947000  0.06499500  1
  H  H18  1  0.98084200  0.35947000  0.93500500  1
  H  H19  1  0.48084200  0.64053000  0.56499500  1
  H  H20  1  0.98084200  0.85947000  0.56499500  1
  H  H21  1  0.48084200  0.14053000  0.93500500  1
  H  H22  1  0.01915800  0.64053000  0.06499500  1
  H  H23  1  0.51915800  0.35947000  0.43500500  1
  H  H24  1  0.22315500  0.14072700  0.27375200  1
  H  H25  1  0.72315500  0.85927300  0.22624800  1
  H  H26  1  0.77684500  0.35927300  0.77375200  1
  H  H27  1  0.27684500  0.64072700  0.72624800  1
  H  H28  1  0.77684500  0.85927300  0.72624800  1
  H  H29  1  0.27684500  0.14072700  0.77375200  1
  H  H30  1  0.22315500  0.64072700  0.22624800  1
  H  H31  1  0.72315500  0.35927300  0.27375200  1
  H  H32  1  0.29264400  0.09362700  0.35637500  1
  H  H33  1  0.79264400  0.90637300  0.14362500  1
  H  H34  1  0.70735600  0.40637300  0.85637500  1
  H  H35  1  0.20735600  0.59362700  0.64362500  1
  H  H36  1  0.70735600  0.90637300  0.64362500  1
  H  H37  1  0.20735600  0.09362700  0.85637500  1
  H  H38  1  0.29264400  0.59362700  0.14362500  1
  H  H39  1  0.79264400  0.40637300  0.35637500  1
  H  H40  1  0.18095500  0.23338700  0.35053800  1
  H  H41  1  0.68095500  0.76661300  0.14946200  1
  H  H42  1  0.81904500  0.26661300  0.85053800  1
  H  H43  1  0.31904500  0.73338700  0.64946200  1
  H  H44  1  0.81904500  0.76661300  0.64946200  1
  H  H45  1  0.31904500  0.23338700  0.85053800  1
  H  H46  1  0.18095500  0.73338700  0.14946200  1
  H  H47  1  0.68095500  0.26661300  0.35053800  1
  H  H48  1  0.13734200  0.91751500  0.26008700  1
  H  H49  1  0.63734200  0.08248500  0.23991300  1
  H  H50  1  0.86265800  0.58248500  0.76008700  1
  H  H51  1  0.36265800  0.41751500  0.73991300  1
  H  H52  1  0.86265800  0.08248500  0.73991300  1
  H  H53  1  0.36265800  0.91751500  0.76008700  1
  H  H54  1  0.13734200  0.41751500  0.23991300  1
  H  H55  1  0.63734200  0.58248500  0.26008700  1
  H  H56  1  0.02655700  0.84854600  0.32521500  1
  H  H57  1  0.52655700  0.15145400  0.17478500  1
  H  H58  1  0.97344300  0.65145400  0.82521500  1
  H  H59  1  0.47344300  0.34854600  0.67478500  1
  H  H60  1  0.97344300  0.15145400  0.67478500  1
  H  H61  1  0.47344300  0.84854600  0.82521500  1
  H  H62  1  0.02655700  0.34854600  0.17478500  1
  H  H63  1  0.52655700  0.65145400  0.32521500  1
  H  H64  1  0.20187600  0.87325400  0.34490600  1
  H  H65  1  0.70187600  0.12674600  0.15509400  1
  H  H66  1  0.79812400  0.62674600  0.84490600  1
  H  H67  1  0.29812400  0.37325400  0.65509400  1
  H  H68  1  0.79812400  0.12674600  0.65509400  1
  H  H69  1  0.29812400  0.87325400  0.84490600  1
  H  H70  1  0.20187600  0.37325400  0.15509400  1
  H  H71  1  0.70187600  0.62674600  0.34490600  1
  H  H72  1  0.96431900  0.20909200  0.30347800  1
  H  H73  1  0.46431900  0.79090800  0.19652200  1
  H  H74  1  0.03568100  0.29090800  0.80347800  1
  H  H75  1  0.53568100  0.70909200  0.69652200  1
  H  H76  1  0.03568100  0.79090800  0.69652200  1
  H  H77  1  0.53568100  0.20909200  0.80347800  1
  H  H78  1  0.96431900  0.70909200  0.19652200  1
  H  H79  1  0.46431900  0.29090800  0.30347800  1
  H  H80  1  0.87942300  0.03712800  0.30135700  1
  H  H81  1  0.37942300  0.96287200  0.19864300  1
  H  H82  1  0.12057700  0.46287200  0.80135700  1
  H  H83  1  0.62057700  0.53712800  0.69864300  1
  H  H84  1  0.12057700  0.96287200  0.69864300  1
  H  H85  1  0.62057700  0.03712800  0.80135700  1
  H  H86  1  0.87942300  0.53712800  0.19864300  1
  H  H87  1  0.37942300  0.46287200  0.30135700  1
  C  C0  1  0.05062000  0.04257200  0.41802200  1
  C  C1  1  0.55062000  0.95742800  0.08197800  1
  C  C2  1  0.94938000  0.45742800  0.91802200  1
  C  C3  1  0.44938000  0.54257200  0.58197800  1
  C  C4  1  0.94938000  0.95742800  0.58197800  1
  C  C5  1  0.44938000  0.04257200  0.91802200  1
  C  C6  1  0.05062000  0.54257200  0.08197800  1
  C  C7  1  0.55062000  0.45742800  0.41802200  1
  C  C8  1  0.20511000  0.13571700  0.32963700  1
  C  C9  1  0.70511000  0.86428300  0.17036300  1
  C  C10  1  0.79489000  0.36428300  0.82963700  1
  C  C11  1  0.29489000  0.63571700  0.67036300  1
  C  C12  1  0.79489000  0.86428300  0.67036300  1
  C  C13  1  0.29489000  0.13571700  0.82963700  1
  C  C14  1  0.20511000  0.63571700  0.17036300  1
  C  C15  1  0.70511000  0.36428300  0.32963700  1
  C  C16  1  0.11500700  0.91078700  0.31576300  1
  C  C17  1  0.61500700  0.08921300  0.18423700  1
  C  C18  1  0.88499300  0.58921300  0.81576300  1
  C  C19  1  0.38499300  0.41078700  0.68423700  1
  C  C20  1  0.88499300  0.08921300  0.68423700  1
  C  C21  1  0.38499300  0.91078700  0.81576300  1
  C  C22  1  0.11500700  0.41078700  0.18423700  1
  C  C23  1  0.61500700  0.58921300  0.31576300  1
  C  C24  1  0.96620200  0.10227300  0.30754700  1
  C  C25  1  0.46620200  0.89772700  0.19245300  1
  C  C26  1  0.03379800  0.39772700  0.80754700  1
  C  C27  1  0.53379800  0.60227300  0.69245300  1
  C  C28  1  0.03379800  0.89772700  0.69245300  1
  C  C29  1  0.53379800  0.10227300  0.80754700  1
  C  C30  1  0.96620200  0.60227300  0.19245300  1
  C  C31  1  0.46620200  0.39772700  0.30754700  1
  N  N0  1  0.08437700  0.04802800  0.34120800  1
  N  N1  1  0.58437700  0.95197200  0.15879200  1
  N  N2  1  0.91562300  0.45197200  0.84120800  1
  N  N3  1  0.41562300  0.54802800  0.65879200  1
  N  N4  1  0.91562300  0.95197200  0.65879200  1
  N  N5  1  0.41562300  0.04802800  0.84120800  1
  N  N6  1  0.08437700  0.54802800  0.15879200  1
  N  N7  1  0.58437700  0.45197200  0.34120800  1
  O  O0  1  0.24091700  0.68940800  0.45014400  1
  O  O1  1  0.74091700  0.31059200  0.04985600  1
  O  O2  1  0.75908300  0.81059200  0.95014400  1
  O  O3  1  0.25908300  0.18940800  0.54985600  1
  O  O4  1  0.75908300  0.31059200  0.54985600  1
  O  O5  1  0.25908300  0.68940800  0.95014400  1
  O  O6  1  0.24091700  0.18940800  0.04985600  1
  O  O7  1  0.74091700  0.81059200  0.45014400  1
  F  F0  1  0.93786500  0.41222300  0.47132800  1
  F  F1  1  0.43786500  0.58777700  0.02867200  1
  F  F2  1  0.06213500  0.08777700  0.97132800  1
  F  F3  1  0.56213500  0.91222300  0.52867200  1
  F  F4  1  0.06213500  0.58777700  0.52867200  1
  F  F5  1  0.56213500  0.41222300  0.97132800  1
  F  F6  1  0.93786500  0.91222300  0.02867200  1
  F  F7  1  0.43786500  0.08777700  0.47132800  1
  F  F8  1  0.22206200  0.59451400  0.34069700  1
  F  F9  1  0.72206200  0.40548600  0.15930300  1
  F  F10  1  0.77793800  0.90548600  0.84069700  1
  F  F11  1  0.27793800  0.09451400  0.65930300  1
  F  F12  1  0.77793800  0.40548600  0.65930300  1
  F  F13  1  0.27793800  0.59451400  0.84069700  1
  F  F14  1  0.22206200  0.09451400  0.15930300  1
  F  F15  1  0.72206200  0.90548600  0.34069700  1
  F  F16  1  0.96055700  0.67235900  0.39171600  1
  F  F17  1  0.46055700  0.32764100  0.10828400  1
  F  F18  1  0.03944300  0.82764100  0.89171600  1
  F  F19  1  0.53944300  0.17235900  0.60828400  1
  F  F20  1  0.03944300  0.32764100  0.60828400  1
  F  F21  1  0.53944300  0.67235900  0.89171600  1
  F  F22  1  0.96055700  0.17235900  0.10828400  1
  F  F23  1  0.46055700  0.82764100  0.39171600  1
  F  F24  1  0.24761300  0.42189000  0.45535700  1
  F  F25  1  0.74761300  0.57811000  0.04464300  1
  F  F26  1  0.75238700  0.07811000  0.95535700  1
  F  F27  1  0.25238700  0.92189000  0.54464300  1
  F  F28  1  0.75238700  0.57811000  0.54464300  1
  F  F29  1  0.25238700  0.42189000  0.95535700  1
  F  F30  1  0.24761300  0.92189000  0.04464300  1
  F  F31  1  0.74761300  0.07811000  0.45535700  1
  F  F32  1  0.03451500  0.40245900  0.34424200  1
  F  F33  1  0.53451500  0.59754100  0.15575800  1
  F  F34  1  0.96548500  0.09754100  0.84424200  1
  F  F35  1  0.46548500  0.90245900  0.65575800  1
  F  F36  1  0.96548500  0.59754100  0.65575800  1
  F  F37  1  0.46548500  0.40245900  0.84424200  1
  F  F38  1  0.03451500  0.90245900  0.15575800  1
  F  F39  1  0.53451500  0.09754100  0.34424200  1
loop_
_geom_bond_atom_site_label_1
_geom_bond_atom_site_label_2
_geom_bond_distance
_geom_bond_site_symmetry_2
C0 H16 1.092995 1_555
C0 H8 1.096777 1_445
C0 H0 1.098328 1_555
C0 N0 1.521912 1_555
C1 H17 1.092995 1_555
C1 H9 1.096777 1_565
C1 H1 1.098328 1_555
C1 N1 1.521912 1_555
C2 H18 1.092995 1_555
C2 H10 1.096777 1_655
C2 H2 1.098328 1_555
C2 N2 1.521912 1_555
C3 H19 1.092995 1_555
C3 H11 1.096777 1_555
C3 H3 1.098328 1_555
C3 N3 1.521912 1_555
C4 H20 1.092995 1_555
C4 H12 1.096777 1_665
C4 H4 1.098328 1_555
C4 N4 1.521912 1_555
C5 H21 1.092995 1_555
C5 H13 1.096777 1_545
C5 H5 1.098328 1_555
C5 N5 1.521912 1_555
C6 H22 1.092995 1_555
C6 H14 1.096777 1_455
C6 H6 1.098328 1_555
C6 N6 1.521912 1_555
C7 H23 1.092995 1_555
C7 H15 1.096777 1_555
C7 H7 1.098328 1_555
C7 N7 1.521912 1_555
C8 H32 1.093466 1_555
C8 H24 1.095418 1_555
C8 H40 1.097568 1_555
C8 N0 1.504283 1_555
C9 H33 1.093466 1_555
C9 H25 1.095418 1_555
C9 H41 1.097568 1_555
C9 N1 1.504283 1_555
C10 H34 1.093466 1_555
C10 H26 1.095418 1_555
C10 H42 1.097568 1_555
C10 N2 1.504283 1_555
C11 H35 1.093466 1_555
C11 H27 1.095418 1_555
C11 H43 1.097568 1_555
C11 N3 1.504283 1_555
C12 H36 1.093466 1_555
C12 H28 1.095418 1_555
C12 H44 1.097568 1_555
C12 N4 1.504283 1_555
C13 H37 1.093466 1_555
C13 H29 1.095418 1_555
C13 H45 1.097568 1_555
C13 N5 1.504283 1_555
C14 H38 1.093466 1_555
C14 H30 1.095418 1_555
C14 H46 1.097568 1_555
C14 N6 1.504283 1_555
C15 H39 1.093466 1_555
C15 H31 1.095418 1_555
C15 H47 1.097568 1_555
C15 N7 1.504283 1_555
C16 H56 1.093122 1_555
C16 H64 1.094111 1_555
C16 H48 1.100084 1_555
C16 N0 1.509117 1_565
C17 H57 1.093122 1_555
C17 H65 1.094111 1_555
C17 H49 1.100084 1_555
C17 N1 1.509117 1_545
C18 H58 1.093122 1_555
C18 H66 1.094111 1_555
C18 H50 1.100084 1_555
C18 N2 1.509117 1_555
C19 H59 1.093122 1_555
C19 H67 1.094111 1_555
C19 H51 1.100084 1_555
C19 N3 1.509117 1_555
C20 H60 1.093122 1_555
C20 H68 1.094111 1_555
C20 H52 1.100084 1_555
C20 N4 1.509117 1_545
C21 H61 1.093122 1_555
C21 H69 1.094111 1_555
C21 H53 1.100084 1_555
C21 N5 1.509117 1_565
C22 H62 1.093122 1_555
C22 H70 1.094111 1_555
C22 H54 1.100084 1_555
C22 N6 1.509117 1_555
C23 H63 1.093122 1_555
C23 H71 1.094111 1_555
C23 H55 1.100084 1_555
C23 N7 1.509117 1_555
C24 H72 1.088335 1_555
C24 H80 1.088832 1_555
C24 N0 1.444387 1_655
C25 H73 1.088335 1_555
C25 H81 1.088832 1_555
C25 N1 1.444387 1_555
C26 H74 1.088335 1_555
C26 H82 1.088832 1_555
C26 N2 1.444387 1_455
C27 H75 1.088335 1_555
C27 H83 1.088832 1_555
C27 N3 1.444387 1_555
C28 H76 1.088335 1_555
C28 H84 1.088832 1_555
C28 N4 1.444387 1_455
C29 H77 1.088335 1_555
C29 H85 1.088832 1_555
C29 N5 1.444387 1_555
C30 H78 1.088335 1_555
C30 H86 1.088832 1_555
C30 N6 1.444387 1_655
C31 H79 1.088335 1_555
C31 H87 1.088832 1_555
C31 N7 1.444387 1_555
O0 Zr0 2.259335 1_555
O1 Zr1 2.259335 1_555
O2 Zr2 2.259335 1_555
O3 Zr3 2.259335 1_555
O4 Zr4 2.259335 1_555
O5 Zr5 2.259335 1_555
O6 Zr6 2.259335 1_555
O7 Zr7 2.259335 1_555
F0 Zr0 2.181262 1_655
F0 Zr4 2.202598 1_555
F1 Zr1 2.181262 1_555
F1 Zr5 2.202598 1_554
F2 Zr2 2.181262 1_445
F2 Zr6 2.202598 1_556
F3 Zr3 2.181262 1_565
F3 Zr7 2.202598 1_555
F4 Zr4 2.181262 1_455
F4 Zr0 2.202598 1_555
F5 Zr5 2.181262 1_555
F5 Zr1 2.202598 1_556
F6 Zr6 2.181262 1_665
F6 Zr2 2.202598 1_554
F7 Zr7 2.181262 1_545
F7 Zr3 2.202598 1_555
F8 Zr0 2.097342 1_555
F9 Zr1 2.097342 1_555
F10 Zr2 2.097342 1_555
F11 Zr3 2.097342 1_555
F12 Zr4 2.097342 1_555
F13 Zr5 2.097342 1_555
F14 Zr6 2.097342 1_555
F15 Zr7 2.097342 1_555
F16 Zr0 1.999792 1_655
F17 Zr1 1.999792 1_555
F18 Zr2 1.999792 1_455
F19 Zr3 1.999792 1_555
F20 Zr4 1.999792 1_455
F21 Zr5 1.999792 1_555
F22 Zr6 1.999792 1_655
F23 Zr7 1.999792 1_555
F24 Zr0 2.024914 1_555
F25 Zr1 2.024914 1_555
F26 Zr2 2.024914 1_545
F27 Zr3 2.024914 1_565
F28 Zr4 2.024914 1_555
F29 Zr5 2.024914 1_555
F30 Zr6 2.024914 1_565
F31 Zr7 2.024914 1_545
F32 Zr0 2.037229 1_555
F33 Zr1 2.037229 1_555
F34 Zr2 2.037229 1_545
F35 Zr3 2.037229 1_565
F36 Zr4 2.037229 1_555
F37 Zr5 2.037229 1_555
F38 Zr6 2.037229 1_565
F39 Zr7 2.037229 1_545
