# generated using pymatgen
data_SrMoAsH3O8
_symmetry_space_group_name_H-M   'P 1'
_cell_length_a   9.39048338
_cell_length_b   9.39048338
_cell_length_c   9.91700649
_cell_angle_alpha   64.78643638
_cell_angle_beta   64.78643638
_cell_angle_gamma   67.29509301
_symmetry_Int_Tables_number   1
_chemical_formula_structural   SrMoAsH3O8
_chemical_formula_sum   'Sr4 Mo4 As4 H12 O32'
_cell_volume   693.09562471
_cell_formula_units_Z   4
loop_
 _symmetry_equiv_pos_site_id
 _symmetry_equiv_pos_as_xyz
  1  'x, y, z'
loop_
 _atom_site_type_symbol
 _atom_site_label
 _atom_site_symmetry_multiplicity
 _atom_site_fract_x
 _atom_site_fract_y
 _atom_site_fract_z
 _atom_site_occupancy
  Sr  Sr0  1  0.63979100  0.18042500  0.12526000  1
  Sr  Sr1  1  0.81957500  0.36020900  0.37474000  1
  Sr  Sr2  1  0.36020900  0.81957500  0.87474000  1
  Sr  Sr3  1  0.18042500  0.63979100  0.62526000  1
  Mo  Mo0  1  0.06009500  0.24406800  0.72805000  1
  Mo  Mo1  1  0.75593200  0.93990500  0.77195000  1
  Mo  Mo2  1  0.93990500  0.75593200  0.27195000  1
  Mo  Mo3  1  0.24406800  0.06009500  0.22805000  1
  As  As0  1  0.22952100  0.39441600  0.32282000  1
  As  As1  1  0.60558400  0.77047900  0.17718000  1
  As  As2  1  0.77047900  0.60558400  0.67718000  1
  As  As3  1  0.39441600  0.22952100  0.82282000  1
  H  H0  1  0.36804000  0.59941800  0.17898300  1
  H  H1  1  0.40058200  0.63196000  0.32101700  1
  H  H2  1  0.63196000  0.40058200  0.82101700  1
  H  H3  1  0.59941800  0.36804000  0.67898300  1
  H  H4  1  0.74950800  0.52152200  0.03574700  1
  H  H5  1  0.47847800  0.25049200  0.46425300  1
  H  H6  1  0.25049200  0.47847800  0.96425300  1
  H  H7  1  0.52152200  0.74950800  0.53574700  1
  H  H8  1  0.88824700  0.36136100  0.02747800  1
  H  H9  1  0.63863900  0.11175300  0.47252200  1
  H  H10  1  0.11175300  0.63863900  0.97252200  1
  H  H11  1  0.36136100  0.88824700  0.52747800  1
  O  O0  1  0.24366900  0.38742900  0.49161900  1
  O  O1  1  0.61257100  0.75633100  0.00838100  1
  O  O2  1  0.75633100  0.61257100  0.50838100  1
  O  O3  1  0.38742900  0.24366900  0.99161900  1
  O  O4  1  0.05170300  0.49151400  0.28011300  1
  O  O5  1  0.50848600  0.94829700  0.21988700  1
  O  O6  1  0.94829700  0.50848600  0.71988700  1
  O  O7  1  0.49151400  0.05170300  0.78011300  1
  O  O8  1  0.32072600  0.20943100  0.29239800  1
  O  O9  1  0.79056900  0.67927400  0.20760200  1
  O  O10  1  0.67927400  0.79056900  0.70760200  1
  O  O11  1  0.20943100  0.32072600  0.79239800  1
  O  O12  1  0.37830300  0.50065200  0.16234900  1
  O  O13  1  0.49934800  0.62169700  0.33765100  1
  O  O14  1  0.62169700  0.49934800  0.83765100  1
  O  O15  1  0.50065200  0.37830300  0.66234900  1
  O  O16  1  0.94610000  0.27972800  0.60737400  1
  O  O17  1  0.72027200  0.05390000  0.89262600  1
  O  O18  1  0.05390000  0.72027200  0.39262600  1
  O  O19  1  0.27972800  0.94610000  0.10737400  1
  O  O20  1  0.20823300  0.06029100  0.71349500  1
  O  O21  1  0.93970900  0.79176700  0.78650500  1
  O  O22  1  0.79176700  0.93970900  0.28650500  1
  O  O23  1  0.06029100  0.20823300  0.21349500  1
  O  O24  1  0.92598100  0.19221600  0.92123400  1
  O  O25  1  0.80778400  0.07401900  0.57876600  1
  O  O26  1  0.07401900  0.80778400  0.07876600  1
  O  O27  1  0.19221600  0.92598100  0.42123400  1
  O  O28  1  0.78598900  0.40806500  0.09741400  1
  O  O29  1  0.59193500  0.21401100  0.40258600  1
  O  O30  1  0.21401100  0.59193500  0.90258600  1
  O  O31  1  0.40806500  0.78598900  0.59741400  1
loop_
_geom_bond_atom_site_label_1
_geom_bond_atom_site_label_2
_geom_bond_distance
_geom_bond_site_symmetry_2
Mo0 O24 1.765351 1_455
Mo0 O20 1.766945 1_555
Mo0 O16 1.778635 1_455
Mo0 O11 2.196602 1_555
Mo0 O6 2.272197 1_455
Mo0 O0 2.437239 1_555
Mo1 O25 1.765351 1_565
Mo1 O21 1.766945 1_555
Mo1 O17 1.778635 1_565
Mo1 O10 2.196602 1_555
Mo1 O7 2.272197 1_565
Mo1 O1 2.437239 1_556
Mo2 O26 1.765351 1_655
Mo2 O22 1.766945 1_555
Mo2 O18 1.778635 1_655
Mo2 O9 2.196602 1_555
Mo2 O4 2.272197 1_655
Mo2 O2 2.437239 1_555
Mo3 O27 1.765351 1_545
Mo3 O23 1.766945 1_555
Mo3 O19 1.778635 1_545
Mo3 O8 2.196602 1_555
Mo3 O5 2.272197 1_545
Mo3 O3 2.437239 1_554
As0 O4 1.702101 1_555
As0 O0 1.706852 1_555
As0 O8 1.708775 1_555
As0 O12 1.819011 1_555
As1 O5 1.702101 1_555
As1 O1 1.706852 1_555
As1 O9 1.708775 1_555
As1 O13 1.819011 1_555
As2 O6 1.702101 1_555
As2 O2 1.706852 1_555
As2 O10 1.708775 1_555
As2 O14 1.819011 1_555
As3 O7 1.702101 1_555
As3 O3 1.706852 1_555
As3 O11 1.708775 1_555
As3 O15 1.819011 1_555
H0 O12 0.971846 1_555
H0 Sr2 2.853088 1_554
H1 O13 0.971846 1_555
H1 Sr3 2.853088 1_555
H2 O14 0.971846 1_555
H2 Sr0 2.853088 1_556
H3 O15 0.971846 1_555
H3 Sr1 2.853088 1_555
H4 O28 0.983912 1_555
H5 O29 0.983912 1_555
H6 O30 0.983912 1_555
H7 O31 0.983912 1_555
H8 O28 0.980858 1_555
H9 O29 0.980858 1_555
H10 O30 0.980858 1_555
H11 O31 0.980858 1_555
O0 Sr3 2.940057 1_555
O1 Sr2 2.940057 1_554
O2 Sr1 2.940057 1_555
O3 Sr0 2.940057 1_556
O4 Sr1 2.549254 1_455
O5 Sr0 2.549254 1_565
O6 Sr3 2.549254 1_655
O7 Sr2 2.549254 1_545
O8 Sr0 2.705939 1_555
O9 Sr1 2.705939 1_555
O10 Sr2 2.705939 1_555
O11 Sr3 2.705939 1_555
O12 Sr0 3.111275 1_555
O13 Sr1 3.111275 1_555
O14 Sr2 3.111275 1_555
O15 Sr3 3.111275 1_555
O16 Sr1 2.731648 1_555
O17 Sr0 2.731648 1_556
O18 Sr3 2.731648 1_555
O19 Sr2 2.731648 1_554
O20 Sr2 2.465295 1_545
O21 Sr3 2.465295 1_655
O22 Sr0 2.465295 1_565
O23 Sr1 2.465295 1_455
O24 Sr0 2.595117 1_556
O25 Sr1 2.595117 1_555
O26 Sr2 2.595117 1_554
O27 Sr3 2.595117 1_555
O28 Sr1 2.727977 1_555
O28 Sr0 2.823145 1_555
O29 Sr0 2.727977 1_555
O29 Sr1 2.823145 1_555
O30 Sr3 2.727977 1_555
O30 Sr2 2.823145 1_555
O31 Sr2 2.727977 1_555
O31 Sr3 2.823145 1_555
