# generated using pymatgen
data_LiAgF2
_symmetry_space_group_name_H-M   'P 1'
_cell_length_a   5.67655035
_cell_length_b   5.67655035
_cell_length_c   5.67655035
_cell_angle_alpha   130.92374267
_cell_angle_beta   130.92374267
_cell_angle_gamma   71.93426396
_symmetry_Int_Tables_number   1
_chemical_formula_structural   LiAgF2
_chemical_formula_sum   'Li2 Ag2 F4'
_cell_volume   102.13466469
_cell_formula_units_Z   2
loop_
 _symmetry_equiv_pos_site_id
 _symmetry_equiv_pos_as_xyz
  1  'x, y, z'
loop_
 _atom_site_type_symbol
 _atom_site_label
 _atom_site_symmetry_multiplicity
 _atom_site_fract_x
 _atom_site_fract_y
 _atom_site_fract_z
 _atom_site_occupancy
  Li  Li0  1  0.25000000  0.75000000  0.50000000  1
  Li  Li1  1  0.50000000  0.50000000  0.00000000  1
  Ag  Ag0  1  0.00000000  0.00000000  0.00000000  1
  Ag  Ag1  1  0.75000000  0.25000000  0.50000000  1
  F  F0  1  0.46019700  0.96019700  0.50000000  1
  F  F1  1  0.71019700  0.71019700  0.00000000  1
  F  F2  1  0.03980300  0.53980300  0.50000000  1
  F  F3  1  0.28980300  0.28980300  0.00000000  1
loop_
_geom_bond_atom_site_label_1
_geom_bond_atom_site_label_2
_geom_bond_distance
_geom_bond_site_symmetry_2
Ag0 F2 2.385666 1_555
Ag0 F0 2.385666 1_545
Ag0 F2 2.385666 1_544
Ag0 F0 2.385666 1_444
Ag0 F3 2.662906 1_555
Ag0 F1 2.662906 1_445
Ag1 F3 2.385666 1_555
Ag1 F1 2.385666 1_556
Ag1 F3 2.385666 1_656
Ag1 F1 2.385666 1_545
Ag1 F2 2.662906 1_655
Ag1 F0 2.662906 1_545
F0 Li0 1.931433 1_555
F0 Li1 2.385666 1_566
F0 Li1 2.385666 1_555
F1 Li1 1.931433 1_555
F1 Li0 2.385666 1_554
F1 Li0 2.385666 1_655
F2 Li0 1.931433 1_555
F2 Li1 2.385666 1_556
F2 Li1 2.385666 1_455
F3 Li1 1.931433 1_555
F3 Li0 2.385666 1_544
F3 Li0 2.385666 1_555
