# generated using pymatgen
data_MgO
_symmetry_space_group_name_H-M   'P 1'
_cell_length_a   3.25921014
_cell_length_b   3.25916582
_cell_length_c   15.46054298
_cell_angle_alpha   90.01737923
_cell_angle_beta   89.98568035
_cell_angle_gamma   120.02951487
_symmetry_Int_Tables_number   1
_chemical_formula_structural   MgO
_chemical_formula_sum   'Mg6 O6'
_cell_volume   142.18210235
_cell_formula_units_Z   6
loop_
 _symmetry_equiv_pos_site_id
 _symmetry_equiv_pos_as_xyz
  1  'x, y, z'
loop_
 _atom_site_type_symbol
 _atom_site_label
 _atom_site_symmetry_multiplicity
 _atom_site_fract_x
 _atom_site_fract_y
 _atom_site_fract_z
 _atom_site_occupancy
  Mg  Mg0  1  0.33307216  0.66694627  0.35199978  1
  Mg  Mg1  1  0.33339127  0.66658014  0.02079814  1
  Mg  Mg2  1  -0.00006051  0.99995700  0.18622464  1
  Mg  Mg3  1  0.99905471  0.00144787  0.51789529  1
  Mg  Mg4  1  0.00102909  0.99872205  0.85256789  1
  Mg  Mg5  1  0.66673608  0.33323184  0.68610545  1
  O  O0  1  0.33324822  0.66668358  0.14839227  1
  O  O1  1  0.33245309  0.66787157  0.47958076  1
  O  O2  1  0.00023667  0.99970232  0.98158602  1
  O  O3  1  0.99987796  0.00010372  0.31400082  1
  O  O4  1  0.99993277  -0.00000027  0.64689181  1
  O  O5  1  0.66762850  0.33215393  0.81392813  1
loop_
_geom_bond_atom_site_label_1
_geom_bond_atom_site_label_2
_geom_bond_distance
_geom_bond_site_symmetry_2
Mg0 O3 1.970868 1_465
Mg0 O3 1.971060 1_565
Mg0 O3 1.971083 1_455
Mg0 O1 1.972475 1_555
Mg1 O0 1.972674 1_555
Mg1 O2 1.976344 1_554
Mg1 O2 1.976836 1_654
Mg1 O2 1.976845 1_544
Mg2 O0 1.970112 1_455
Mg2 O0 1.970234 1_565
Mg2 O0 1.970365 1_555
Mg2 O3 1.975489 1_465
Mg3 O1 1.971646 1_655
Mg3 O1 1.972097 1_545
Mg3 O1 1.973646 1_645
Mg3 O4 1.994369 1_555
Mg4 O5 1.973318 1_455
Mg4 O5 1.973479 1_565
Mg4 O5 1.975140 1_465
Mg4 O2 1.994695 1_555
Mg5 O5 1.976218 1_555
Mg5 O4 1.976391 1_555
Mg5 O4 1.976795 1_565
Mg5 O4 1.976861 1_455
