# generated using pymatgen
data_K2TeH10(NO7)2
_symmetry_space_group_name_H-M   'P 1'
_cell_length_a   7.19623000
_cell_length_b   7.05519100
_cell_length_c   13.34935804
_cell_angle_alpha   80.03349000
_cell_angle_beta   90.00000000
_cell_angle_gamma   90.00000000
_symmetry_Int_Tables_number   1
_chemical_formula_structural   K2TeH10(NO7)2
_chemical_formula_sum   'K4 Te2 H20 N4 O28'
_cell_volume   667.52930371
_cell_formula_units_Z   2
loop_
 _symmetry_equiv_pos_site_id
 _symmetry_equiv_pos_as_xyz
  1  'x, y, z'
loop_
 _atom_site_type_symbol
 _atom_site_label
 _atom_site_symmetry_multiplicity
 _atom_site_fract_x
 _atom_site_fract_y
 _atom_site_fract_z
 _atom_site_occupancy
  K  K0  1  0.51876700  0.48949000  0.34018600  1
  K  K1  1  0.01876700  0.51051000  0.15981400  1
  K  K2  1  0.48123300  0.51051000  0.65981400  1
  K  K3  1  0.98123300  0.48949000  0.84018600  1
  Te  Te0  1  0.50000000  0.00000000  0.50000000  1
  Te  Te1  1  0.00000000  0.00000000  0.00000000  1
  H  H0  1  0.19615800  0.81909300  0.50854100  1
  H  H1  1  0.69615800  0.18090700  0.99145900  1
  H  H2  1  0.80384200  0.18090700  0.49145900  1
  H  H3  1  0.30384200  0.81909300  0.00854100  1
  H  H4  1  0.23770500  0.24460200  0.03133000  1
  H  H5  1  0.73770500  0.75539800  0.46867000  1
  H  H6  1  0.76229500  0.75539800  0.96867000  1
  H  H7  1  0.26229500  0.24460200  0.53133000  1
  H  H8  1  0.43353700  0.98118900  0.31800100  1
  H  H9  1  0.93353700  0.01881100  0.18199900  1
  H  H10  1  0.56646300  0.01881100  0.68199900  1
  H  H11  1  0.06646300  0.98118900  0.81800100  1
  H  H12  1  0.11800900  0.11914900  0.31481800  1
  H  H13  1  0.61800900  0.88085100  0.18518200  1
  H  H14  1  0.88199100  0.88085100  0.68518200  1
  H  H15  1  0.38199100  0.11914900  0.81481800  1
  H  H16  1  0.40256200  0.87026500  0.16531900  1
  H  H17  1  0.90256200  0.12973500  0.33468100  1
  H  H18  1  0.59743800  0.12973500  0.83468100  1
  H  H19  1  0.09743800  0.87026500  0.66531900  1
  N  N0  1  0.51277700  0.34197900  0.11928800  1
  N  N1  1  0.01277700  0.65802100  0.38071200  1
  N  N2  1  0.48722300  0.65802100  0.88071200  1
  N  N3  1  0.98722300  0.34197900  0.61928800  1
  O  O0  1  0.21966600  0.86002800  0.06060700  1
  O  O1  1  0.71966600  0.13997200  0.43939300  1
  O  O2  1  0.78033400  0.13997200  0.93939300  1
  O  O3  1  0.28033400  0.86002800  0.56060700  1
  O  O4  1  0.09823900  0.24542100  0.02580000  1
  O  O5  1  0.59823900  0.75457900  0.47420000  1
  O  O6  1  0.90176100  0.75457900  0.97420000  1
  O  O7  1  0.40176100  0.24542100  0.52580000  1
  O  O8  1  0.38067100  0.06082500  0.36658700  1
  O  O9  1  0.88067100  0.93917500  0.13341300  1
  O  O10  1  0.61932900  0.93917500  0.63341300  1
  O  O11  1  0.11932900  0.06082500  0.86658700  1
  O  O12  1  0.37614700  0.40308600  0.16248200  1
  O  O13  1  0.87614700  0.59691400  0.33751800  1
  O  O14  1  0.62385300  0.59691400  0.83751800  1
  O  O15  1  0.12385300  0.40308600  0.66248200  1
  O  O16  1  0.17546000  0.64075200  0.34966100  1
  O  O17  1  0.67546000  0.35924800  0.15033900  1
  O  O18  1  0.82454000  0.35924800  0.65033900  1
  O  O19  1  0.32454000  0.64075200  0.84966100  1
  O  O20  1  0.98475100  0.74208700  0.45805500  1
  O  O21  1  0.48475100  0.25791300  0.04194500  1
  O  O22  1  0.01524900  0.25791300  0.54194500  1
  O  O23  1  0.51524900  0.74208700  0.95805500  1
  O  O24  1  0.49708500  0.85841700  0.21994900  1
  O  O25  1  0.99708500  0.14158300  0.28005100  1
  O  O26  1  0.50291500  0.14158300  0.78005100  1
  O  O27  1  0.00291500  0.85841700  0.71994900  1
loop_
_geom_bond_atom_site_label_1
_geom_bond_atom_site_label_2
_geom_bond_distance
_geom_bond_site_symmetry_2
K0 O13 2.679632 1_555
K0 O16 2.702786 1_555
K0 O12 2.748274 1_555
K0 O24 2.815911 1_555
K0 O5 2.860700 1_555
K0 O7 2.887356 1_555
K0 O1 2.965522 1_555
K0 O17 3.056921 1_555
K0 O8 3.144728 1_555
K1 O12 2.679632 1_555
K1 O17 2.702786 1_455
K1 O13 2.748274 1_455
K1 O25 2.815911 1_455
K1 O4 2.860700 1_555
K1 O6 2.887356 1_454
K1 O0 2.965522 1_555
K1 O16 3.056921 1_555
K1 O9 3.144728 1_455
K2 O15 2.679632 1_555
K2 O18 2.702786 1_555
K2 O14 2.748274 1_555
K2 O26 2.815911 1_555
K2 O7 2.860700 1_555
K2 O5 2.887356 1_555
K2 O3 2.965522 1_555
K2 O19 3.056921 1_555
K2 O10 3.144728 1_555
K3 O14 2.679632 1_555
K3 O19 2.702786 1_655
K3 O15 2.748274 1_655
K3 O27 2.815911 1_655
K3 O6 2.860700 1_555
K3 O4 2.887356 1_656
K3 O2 2.965522 1_555
K3 O18 3.056921 1_555
K3 O11 3.144728 1_655
H0 O3 1.001456 1_555
H1 O2 1.001456 1_555
H2 O1 1.001456 1_555
H3 O0 1.001456 1_555
H4 O4 1.006284 1_555
H5 O5 1.006284 1_555
H6 O6 1.006284 1_555
H7 O7 1.006284 1_555
H8 O8 1.003600 1_565
H9 O9 1.003600 1_545
H10 O10 1.003600 1_545
H11 O11 1.003600 1_565
H12 O25 0.986038 1_455
H13 O24 0.986038 1_555
H14 O27 0.986038 1_655
H15 O26 0.986038 1_555
H16 O24 0.990158 1_555
H17 O25 0.990158 1_555
H18 O26 0.990158 1_555
H19 O27 0.990158 1_555
N0 O12 1.253443 1_555
N0 O17 1.254868 1_555
N0 O21 1.292450 1_555
N1 O13 1.253443 1_455
N1 O16 1.254868 1_555
N1 O20 1.292450 1_455
N2 O14 1.253443 1_555
N2 O19 1.254868 1_555
N2 O23 1.292450 1_555
N3 O15 1.253443 1_655
N3 O18 1.254868 1_555
N3 O22 1.292450 1_655
O0 Te1 1.962667 1_565
O1 Te0 1.962667 1_555
O2 Te1 1.962667 1_656
O3 Te0 1.962667 1_565
O4 Te1 1.955221 1_555
O5 Te0 1.955221 1_565
O6 Te1 1.955221 1_666
O7 Te0 1.955221 1_555
O8 Te0 1.956754 1_555
O9 Te1 1.956754 1_665
O10 Te0 1.956754 1_565
O11 Te1 1.956754 1_556
