# generated using pymatgen
data_Rb2NaAl3F12
_symmetry_space_group_name_H-M   'P 1'
_cell_length_a   7.10707400
_cell_length_b   7.20736800
_cell_length_c   10.02867022
_cell_angle_alpha   88.95680380
_cell_angle_beta   90.00000000
_cell_angle_gamma   90.00000000
_symmetry_Int_Tables_number   1
_chemical_formula_structural   Rb2NaAl3F12
_chemical_formula_sum   'Rb4 Na2 Al6 F24'
_cell_volume   513.61641604
_cell_formula_units_Z   2
loop_
 _symmetry_equiv_pos_site_id
 _symmetry_equiv_pos_as_xyz
  1  'x, y, z'
loop_
 _atom_site_type_symbol
 _atom_site_label
 _atom_site_symmetry_multiplicity
 _atom_site_fract_x
 _atom_site_fract_y
 _atom_site_fract_z
 _atom_site_occupancy
  Rb  Rb0  1  0.25141400  0.99017300  0.88088600  1
  Rb  Rb1  1  0.74498000  0.00859800  0.11504200  1
  Rb  Rb2  1  0.75212900  0.52298100  0.35758000  1
  Rb  Rb3  1  0.25364800  0.48476400  0.64085400  1
  Na  Na0  1  0.25441900  0.77849400  0.24809000  1
  Na  Na1  1  0.74701600  0.22246600  0.75161200  1
  Al  Al0  1  0.49366300  0.99886800  0.49800700  1
  Al  Al1  1  0.99502800  0.99725900  0.49711000  1
  Al  Al2  1  0.00569900  0.50397400  0.00057200  1
  Al  Al3  1  0.50139000  0.50671900  0.99915100  1
  Al  Al4  1  0.25668900  0.28801300  0.26954800  1
  Al  Al5  1  0.74985700  0.71048400  0.72406800  1
  F  F0  1  0.25016900  0.92775100  0.50659000  1
  F  F1  1  0.75256600  0.08325500  0.48977500  1
  F  F2  1  0.25518500  0.50450400  0.36200600  1
  F  F3  1  0.75538200  0.50409900  0.64013800  1
  F  F4  1  0.74611400  0.50622100  0.05229600  1
  F  F5  1  0.24515400  0.49329500  0.93996800  1
  F  F6  1  0.74853200  0.91753000  0.81828500  1
  F  F7  1  0.25566600  0.08331200  0.17444500  1
  F  F8  1  0.02629100  0.14327800  0.64260800  1
  F  F9  1  0.52855000  0.85891900  0.36431100  1
  F  F10  1  0.96296800  0.85832700  0.36244700  1
  F  F11  1  0.47198500  0.14647300  0.64353500  1
  F  F12  1  0.06852000  0.20262500  0.38561400  1
  F  F13  1  0.56992500  0.80446800  0.61413500  1
  F  F14  1  0.93906200  0.80381100  0.61920300  1
  F  F15  1  0.44218000  0.19399800  0.38651900  1
  F  F16  1  0.96598900  0.28107900  0.93465800  1
  F  F17  1  0.46303400  0.72629400  0.07328800  1
  F  F18  1  0.03191000  0.72521200  0.06630900  1
  F  F19  1  0.53514400  0.27493500  0.93496500  1
  F  F20  1  0.55420100  0.60842200  0.83482300  1
  F  F21  1  0.06266900  0.38443500  0.15973500  1
  F  F22  1  0.44471000  0.38314500  0.16278500  1
  F  F23  1  0.93544400  0.60867300  0.83984600  1
loop_
_geom_bond_atom_site_label_1
_geom_bond_atom_site_label_2
_geom_bond_distance
_geom_bond_site_symmetry_2
Al0 F9 1.710512 1_555
Al0 F0 1.806450 1_555
Al0 F15 1.817857 1_565
Al0 F11 1.828124 1_565
Al0 F13 1.885147 1_555
Al0 F1 1.939243 1_565
Al1 F10 1.711038 1_555
Al1 F8 1.828108 1_665
Al1 F1 1.832297 1_565
Al1 F14 1.881279 1_555
Al1 F0 1.883176 1_655
Al1 F12 1.911455 1_665
Al2 F18 1.746472 1_555
Al2 F16 1.770897 1_454
Al2 F5 1.809206 1_554
Al2 F23 1.836454 1_454
Al2 F21 1.844988 1_555
Al2 F4 1.916575 1_455
Al3 F17 1.781693 1_556
Al3 F19 1.817085 1_555
Al3 F4 1.819085 1_556
Al3 F20 1.830319 1_555
Al3 F22 1.896123 1_556
Al3 F5 1.918356 1_555
Al4 F7 1.771331 1_555
Al4 F2 1.829531 1_555
Al4 F22 1.837228 1_555
Al4 F12 1.869755 1_555
Al4 F15 1.882601 1_555
Al4 F21 1.889261 1_555
Al5 F3 1.722857 1_555
Al5 F6 1.780742 1_555
Al5 F13 1.811744 1_555
Al5 F14 1.827805 1_555
Al5 F23 1.896124 1_555
Al5 F20 1.917986 1_555
F2 Na0 2.263326 1_555
F2 Rb3 2.797525 1_555
F3 Na1 2.300198 1_555
F3 Rb2 2.834565 1_555
F4 Rb2 3.066469 1_555
F5 Rb3 3.002072 1_555
F6 Na1 2.285597 1_565
F6 Rb1 3.059349 1_566
F7 Na0 2.304994 1_545
F7 Rb0 3.031612 1_544
F8 Na1 2.341583 1_455
F8 Rb3 2.944021 1_555
F8 Rb0 3.064604 1_545
F9 Na0 2.348369 1_555
F9 Rb2 2.897888 1_555
F9 Rb1 3.111396 1_565
F10 Na0 2.441497 1_655
F10 Rb2 2.844948 1_555
F10 Rb1 3.103455 1_565
F11 Na1 2.305882 1_555
F11 Rb3 2.889807 1_555
F11 Rb0 3.048722 1_545
F12 Rb2 3.231532 1_455
F13 Rb3 3.226669 1_555
F14 Rb3 3.211753 1_655
F15 Rb2 3.245575 1_555
F16 Na1 2.449175 1_555
F16 Rb0 2.973709 1_645
F16 Rb1 3.076871 1_556
F17 Na0 2.331718 1_555
F17 Rb1 2.891626 1_565
F17 Rb0 3.077112 1_554
F18 Na0 2.448910 1_555
F18 Rb1 2.933487 1_465
F18 Rb0 3.067434 1_554
F19 Na1 2.411818 1_555
F19 Rb0 2.934822 1_545
F19 Rb1 3.007328 1_556
F20 Rb3 3.033838 1_555
F21 Rb2 3.142765 1_455
F22 Rb2 3.110839 1_555
F23 Rb3 3.155843 1_655
