# generated using pymatgen
data_Ca2In2O5
_symmetry_space_group_name_H-M   'P 1'
_cell_length_a   5.89627400
_cell_length_b   5.91809800
_cell_length_c   15.16024100
_cell_angle_alpha   90.00000000
_cell_angle_beta   90.00000000
_cell_angle_gamma   90.00000000
_symmetry_Int_Tables_number   1
_chemical_formula_structural   Ca2In2O5
_chemical_formula_sum   'Ca8 In8 O20'
_cell_volume   529.01247651
_cell_formula_units_Z   4
loop_
 _symmetry_equiv_pos_site_id
 _symmetry_equiv_pos_as_xyz
  1  'x, y, z'
loop_
 _atom_site_type_symbol
 _atom_site_label
 _atom_site_symmetry_multiplicity
 _atom_site_fract_x
 _atom_site_fract_y
 _atom_site_fract_z
 _atom_site_occupancy
  Ca  Ca0  1  0.98057200  0.44177700  0.61154700  1
  Ca  Ca1  1  0.98057200  0.44177700  0.88845300  1
  Ca  Ca2  1  0.51942800  0.94177700  0.61154700  1
  Ca  Ca3  1  0.51942800  0.94177700  0.88845300  1
  Ca  Ca4  1  0.48057200  0.05822300  0.11154700  1
  Ca  Ca5  1  0.48057200  0.05822300  0.38845300  1
  Ca  Ca6  1  0.01942800  0.55822300  0.11154700  1
  Ca  Ca7  1  0.01942800  0.55822300  0.38845300  1
  In  In0  1  0.00000000  0.00000000  0.50000000  1
  In  In1  1  0.00000000  0.00000000  0.00000000  1
  In  In2  1  0.95240500  0.07038900  0.25000000  1
  In  In3  1  0.54759500  0.57038900  0.25000000  1
  In  In4  1  0.50000000  0.50000000  0.50000000  1
  In  In5  1  0.50000000  0.50000000  0.00000000  1
  In  In6  1  0.45240500  0.42961100  0.75000000  1
  In  In7  1  0.04759500  0.92961100  0.75000000  1
  O  O0  1  0.88698300  0.05954000  0.64015400  1
  O  O1  1  0.88698300  0.05954000  0.85984600  1
  O  O2  1  0.88194800  0.42453800  0.25000000  1
  O  O3  1  0.80611500  0.30252800  0.03031300  1
  O  O4  1  0.80611500  0.30252800  0.46968700  1
  O  O5  1  0.69388500  0.80252800  0.03031300  1
  O  O6  1  0.69388500  0.80252800  0.46968700  1
  O  O7  1  0.61805200  0.92453800  0.25000000  1
  O  O8  1  0.61301700  0.55954000  0.64015400  1
  O  O9  1  0.61301700  0.55954000  0.85984600  1
  O  O10  1  0.38698300  0.44046000  0.14015400  1
  O  O11  1  0.38698300  0.44046000  0.35984600  1
  O  O12  1  0.38194800  0.07546200  0.75000000  1
  O  O13  1  0.30611500  0.19747200  0.53031300  1
  O  O14  1  0.30611500  0.19747200  0.96968700  1
  O  O15  1  0.19388500  0.69747200  0.96968700  1
  O  O16  1  0.19388500  0.69747200  0.53031300  1
  O  O17  1  0.11805200  0.57546200  0.75000000  1
  O  O18  1  0.11301700  0.94046000  0.14015400  1
  O  O19  1  0.11301700  0.94046000  0.35984600  1
loop_
_geom_bond_atom_site_label_1
_geom_bond_atom_site_label_2
_geom_bond_distance
_geom_bond_site_symmetry_2
Ca0 O8 2.317451 1_555
Ca0 O16 2.321305 1_655
Ca0 O0 2.368495 1_555
Ca0 O17 2.385112 1_655
Ca0 O4 2.522390 1_555
Ca0 O13 2.700278 1_655
Ca1 O9 2.317451 1_555
Ca1 O15 2.321305 1_655
Ca1 O1 2.368495 1_555
Ca1 O17 2.385112 1_655
Ca1 O3 2.522390 1_556
Ca1 O14 2.700278 1_655
Ca2 O0 2.317451 1_565
Ca2 O13 2.321305 1_565
Ca2 O8 2.368495 1_555
Ca2 O12 2.385112 1_565
Ca2 O6 2.522390 1_555
Ca2 O16 2.700278 1_555
Ca3 O1 2.317451 1_565
Ca3 O14 2.321305 1_565
Ca3 O9 2.368495 1_555
Ca3 O12 2.385112 1_565
Ca3 O5 2.522390 1_556
Ca3 O15 2.700278 1_555
Ca4 O18 2.317451 1_545
Ca4 O5 2.321305 1_545
Ca4 O10 2.368495 1_555
Ca4 O7 2.385112 1_545
Ca4 O14 2.522390 1_554
Ca4 O3 2.700278 1_555
Ca5 O19 2.317451 1_545
Ca5 O6 2.321305 1_545
Ca5 O11 2.368495 1_555
Ca5 O7 2.385112 1_545
Ca5 O13 2.522390 1_555
Ca5 O4 2.700278 1_555
Ca6 O10 2.317451 1_555
Ca6 O3 2.321305 1_455
Ca6 O18 2.368495 1_555
Ca6 O2 2.385112 1_455
Ca6 O15 2.522390 1_554
Ca6 O5 2.700278 1_455
Ca7 O11 2.317451 1_555
Ca7 O4 2.321305 1_455
Ca7 O19 2.368495 1_555
Ca7 O2 2.385112 1_455
Ca7 O16 2.522390 1_555
Ca7 O6 2.700278 1_455
In0 O4 2.173382 1_455
In0 O16 2.173382 1_545
In0 O6 2.198807 1_445
In0 O13 2.198807 1_555
In0 O19 2.254520 1_545
In0 O0 2.254520 1_455
In1 O3 2.173382 1_455
In1 O15 2.173382 1_544
In1 O5 2.198807 1_445
In1 O14 2.198807 1_554
In1 O18 2.254520 1_545
In1 O1 2.254520 1_454
In2 O18 2.064288 1_645
In2 O19 2.064288 1_645
In2 O2 2.136664 1_555
In2 O7 2.152117 1_545
In3 O10 2.064288 1_555
In3 O11 2.064288 1_555
In3 O7 2.136664 1_555
In3 O2 2.152117 1_555
In4 O6 2.173382 1_555
In4 O13 2.173382 1_555
In4 O16 2.198807 1_555
In4 O4 2.198807 1_555
In4 O11 2.254520 1_555
In4 O8 2.254520 1_555
In5 O14 2.173382 1_554
In5 O5 2.173382 1_555
In5 O3 2.198807 1_555
In5 O15 2.198807 1_554
In5 O10 2.254520 1_555
In5 O9 2.254520 1_554
In6 O8 2.064288 1_555
In6 O9 2.064288 1_555
In6 O12 2.136664 1_555
In6 O17 2.152117 1_555
In7 O0 2.064288 1_465
In7 O1 2.064288 1_465
In7 O17 2.136664 1_555
In7 O12 2.152117 1_565
