# generated using pymatgen
data_Cr4OF11
_symmetry_space_group_name_H-M   'P 1'
_cell_length_a   5.06940212
_cell_length_b   5.34797165
_cell_length_c   16.92883974
_cell_angle_alpha   91.46320439
_cell_angle_beta   98.71765502
_cell_angle_gamma   61.83810476
_symmetry_Int_Tables_number   1
_chemical_formula_structural   Cr4OF11
_chemical_formula_sum   'Cr8 O2 F22'
_cell_volume   399.39338361
_cell_formula_units_Z   2
loop_
 _symmetry_equiv_pos_site_id
 _symmetry_equiv_pos_as_xyz
  1  'x, y, z'
loop_
 _atom_site_type_symbol
 _atom_site_label
 _atom_site_symmetry_multiplicity
 _atom_site_fract_x
 _atom_site_fract_y
 _atom_site_fract_z
 _atom_site_occupancy
  Cr  Cr0  1  0.73579600  0.62019100  0.12858100  1
  Cr  Cr1  1  0.74912100  0.12620200  0.62469300  1
  Cr  Cr2  1  0.50259900  0.74961300  0.75092000  1
  Cr  Cr3  1  0.50334000  0.26481600  0.24650300  1
  Cr  Cr4  1  0.24691600  0.88233200  0.37357600  1
  Cr  Cr5  1  0.27032400  0.36433400  0.87843000  1
  Cr  Cr6  1  0.99800300  0.50408800  0.49944200  1
  Cr  Cr7  1  0.97569500  0.00776100  0.99623300  1
  O  O0  1  0.68278600  0.47073800  0.21740600  1
  O  O1  1  0.68380100  0.15791600  0.90745100  1
  F  F0  1  0.81274600  0.78083800  0.03433300  1
  F  F1  1  0.73873000  0.94131800  0.18610900  1
  F  F2  1  0.75101800  0.81553700  0.56167100  1
  F  F3  1  0.74643000  0.31458400  0.06208000  1
  F  F4  1  0.68420300  0.97032100  0.71785400  1
  F  F5  1  0.68187300  0.66038400  0.40646300  1
  F  F6  1  0.82548400  0.58696100  0.84251500  1
  F  F7  1  0.80958100  0.09830400  0.34140000  1
  F  F8  1  0.81245900  0.28436800  0.53156000  1
  F  F9  1  0.30889700  0.84551800  0.08999800  1
  F  F10  1  0.74137800  0.43917800  0.68745300  1
  F  F11  1  0.25139000  0.56844900  0.31021900  1
  F  F12  1  0.18576800  0.90803900  0.65751600  1
  F  F13  1  0.17706100  0.40967300  0.15590700  1
  F  F14  1  0.18306200  0.72495600  0.46739100  1
  F  F15  1  0.31406300  0.53554600  0.78456200  1
  F  F16  1  0.31203400  0.34142300  0.59261500  1
  F  F17  1  0.31807100  0.03937200  0.28129500  1
  F  F18  1  0.23961200  0.68966500  0.93798500  1
  F  F19  1  0.24321400  0.19389800  0.43640900  1
  F  F20  1  0.25648300  0.06512500  0.81305400  1
  F  F21  1  0.18405000  0.21478200  0.96903000  1
loop_
_geom_bond_atom_site_label_1
_geom_bond_atom_site_label_2
_geom_bond_distance
_geom_bond_site_symmetry_2
Cr0 O0 1.832700 1_555
Cr0 F9 1.926722 1_555
Cr0 F3 1.944930 1_555
Cr0 F13 1.954773 1_655
Cr0 F1 1.957642 1_555
Cr0 F0 2.002737 1_555
Cr1 F4 1.942674 1_545
Cr1 F8 1.944812 1_555
Cr1 F16 1.946576 1_555
Cr1 F10 1.947233 1_555
Cr1 F12 1.947368 1_645
Cr1 F2 1.948382 1_545
Cr2 F4 1.941589 1_555
Cr2 F15 1.944117 1_555
Cr2 F10 1.944757 1_555
Cr2 F6 1.948273 1_555
Cr2 F12 1.952397 1_555
Cr2 F20 1.957086 1_565
Cr3 O0 1.841768 1_555
Cr3 F13 1.941742 1_555
Cr3 F1 1.947596 1_545
Cr3 F7 1.948344 1_555
Cr3 F11 1.949882 1_555
Cr3 F17 1.988837 1_555
Cr4 F5 1.942138 1_555
Cr4 F19 1.947866 1_565
Cr4 F7 1.948054 1_465
Cr4 F17 1.949291 1_565
Cr4 F14 1.953644 1_555
Cr4 F11 1.961686 1_555
Cr5 O1 1.839820 1_555
Cr5 F18 1.941681 1_555
Cr5 F21 1.944102 1_555
Cr5 F20 1.944816 1_555
Cr5 F15 1.945630 1_555
Cr5 F6 1.989862 1_455
Cr6 F16 1.944395 1_655
Cr6 F5 1.944897 1_555
Cr6 F8 1.947319 1_555
Cr6 F2 1.947675 1_555
Cr6 F19 1.949611 1_655
Cr6 F14 1.950064 1_655
Cr7 O1 1.832819 1_555
Cr7 F0 1.928445 1_546
Cr7 F3 1.945513 1_556
Cr7 F18 1.955033 1_645
Cr7 F21 1.957240 1_655
Cr7 F9 1.999949 1_646
