# generated using pymatgen
data_La6Cu6O17
_symmetry_space_group_name_H-M   'P 1'
_cell_length_a   6.75835242
_cell_length_b   6.75835242
_cell_length_c   10.46944000
_cell_angle_alpha   90.00000000
_cell_angle_beta   90.00000000
_cell_angle_gamma   120.00000407
_symmetry_Int_Tables_number   1
_chemical_formula_structural   La6Cu6O17
_chemical_formula_sum   'La6 Cu6 O17'
_cell_volume   414.12908711
_cell_formula_units_Z   1
loop_
 _symmetry_equiv_pos_site_id
 _symmetry_equiv_pos_as_xyz
  1  'x, y, z'
loop_
 _atom_site_type_symbol
 _atom_site_label
 _atom_site_symmetry_multiplicity
 _atom_site_fract_x
 _atom_site_fract_y
 _atom_site_fract_z
 _atom_site_occupancy
  La  La0  1  0.00000000  0.00000000  0.23056300  1
  La  La1  1  0.66666700  0.33333300  0.75353900  1
  La  La2  1  0.66666700  0.33333300  0.24646100  1
  La  La3  1  0.00000000  0.00000000  0.76943700  1
  La  La4  1  0.33333300  0.66666700  0.70965000  1
  La  La5  1  0.33333300  0.66666700  0.29035000  1
  Cu  Cu0  1  0.83458200  0.16541800  0.50000000  1
  Cu  Cu1  1  0.83458200  0.66916400  0.50000000  1
  Cu  Cu2  1  0.00828400  0.50414200  0.00000000  1
  Cu  Cu3  1  0.33083600  0.16541800  0.50000000  1
  Cu  Cu4  1  0.49585800  0.99171600  0.00000000  1
  Cu  Cu5  1  0.49585800  0.50414200  0.00000000  1
  O  O0  1  0.70115200  0.02973700  0.65638200  1
  O  O1  1  0.97026300  0.29884800  0.34361800  1
  O  O2  1  0.70115200  0.67141400  0.34361800  1
  O  O3  1  0.66666700  0.33333300  0.00000000  1
  O  O4  1  0.66666700  0.33333300  0.50000000  1
  O  O5  1  0.00000000  0.00000000  0.50000000  1
  O  O6  1  0.97026300  0.67141400  0.65638200  1
  O  O7  1  0.32858600  0.29884800  0.65638200  1
  O  O8  1  0.00914800  0.66454200  0.14689200  1
  O  O9  1  0.32858600  0.02973700  0.34361800  1
  O  O10  1  0.00914800  0.34460600  0.85310800  1
  O  O11  1  0.33545800  0.99085200  0.85310800  1
  O  O12  1  0.33333300  0.66666700  0.50000000  1
  O  O13  1  0.33333300  0.66666700  0.00000000  1
  O  O14  1  0.65539400  0.99085200  0.14689200  1
  O  O15  1  0.33545800  0.34460600  0.14689200  1
  O  O16  1  0.65539400  0.66454200  0.85310800  1
loop_
_geom_bond_atom_site_label_1
_geom_bond_atom_site_label_2
_geom_bond_distance
_geom_bond_site_symmetry_2
La0 O1 2.434447 1_455
La0 O2 2.434450 1_445
La0 O9 2.434453 1_555
La0 O15 2.459936 1_555
La0 O14 2.459936 1_445
La0 O8 2.459936 1_545
La0 O5 2.820855 1_555
La1 O6 2.403557 1_555
La1 O7 2.403558 1_555
La1 O0 2.403558 1_555
La1 O10 2.504702 1_655
La1 O11 2.504705 1_545
La1 O16 2.504708 1_555
La1 O3 2.580309 1_556
La1 O4 2.654411 1_555
La2 O9 2.403557 1_555
La2 O2 2.403558 1_555
La2 O1 2.403558 1_555
La2 O14 2.504702 1_545
La2 O8 2.504705 1_655
La2 O15 2.504708 1_555
La2 O3 2.580309 1_555
La2 O4 2.654411 1_555
La3 O0 2.434447 1_455
La3 O7 2.434450 1_555
La3 O6 2.434453 1_445
La3 O16 2.459936 1_445
La3 O10 2.459936 1_555
La3 O11 2.459936 1_545
La3 O5 2.820855 1_555
La4 O12 2.194918 1_555
La4 O6 2.532129 1_455
La4 O0 2.532136 1_565
La4 O7 2.532142 1_555
La4 O11 2.650436 1_555
La4 O10 2.650438 1_555
La4 O16 2.650441 1_555
La5 O12 2.194918 1_555
La5 O9 2.532129 1_565
La5 O1 2.532136 1_455
La5 O2 2.532142 1_555
La5 O8 2.650436 1_555
La5 O14 2.650438 1_555
La5 O15 2.650441 1_555
Cu0 O1 1.872875 1_555
Cu0 O0 1.872875 1_555
Cu0 O5 1.936352 1_655
Cu0 O4 1.965581 1_555
Cu1 O2 1.872874 1_555
Cu1 O6 1.872877 1_555
Cu1 O5 1.936352 1_665
Cu1 O4 1.965587 1_555
Cu2 O8 1.879870 1_555
Cu2 O10 1.879870 1_554
Cu2 O13 1.902481 1_555
Cu2 O3 1.999452 1_455
Cu3 O7 1.872874 1_555
Cu3 O9 1.872877 1_555
Cu3 O5 1.936352 1_555
Cu3 O4 1.965587 1_555
Cu4 O11 1.879870 1_554
Cu4 O14 1.879870 1_555
Cu4 O13 1.902481 1_555
Cu4 O3 1.999452 1_565
Cu5 O15 1.879870 1_555
Cu5 O16 1.879870 1_554
Cu5 O13 1.902487 1_555
Cu5 O3 1.999458 1_555
