# generated using pymatgen
data_LiVP2O7
_symmetry_space_group_name_H-M   'P 1'
_cell_length_a   6.53586813
_cell_length_b   9.07597226
_cell_length_c   8.40453448
_cell_angle_alpha   90.01451100
_cell_angle_beta   89.86449136
_cell_angle_gamma   77.24962854
_symmetry_Int_Tables_number   1
_chemical_formula_structural   LiVP2O7
_chemical_formula_sum   'Li4 V4 P8 O28'
_cell_volume   486.25623613
_cell_formula_units_Z   4
loop_
 _symmetry_equiv_pos_site_id
 _symmetry_equiv_pos_as_xyz
  1  'x, y, z'
loop_
 _atom_site_type_symbol
 _atom_site_label
 _atom_site_symmetry_multiplicity
 _atom_site_fract_x
 _atom_site_fract_y
 _atom_site_fract_z
 _atom_site_occupancy
  Li  Li0  1  0.98333000  0.49255000  0.69810500  1
  Li  Li1  1  0.48397300  0.49255200  0.19802000  1
  Li  Li2  1  0.98218800  0.99247400  0.30077500  1
  Li  Li3  1  0.48277600  0.99124000  0.80159900  1
  V  V0  1  0.50134600  0.00253100  0.17740400  1
  V  V1  1  0.00088400  0.50279200  0.32278700  1
  V  V2  1  0.00202200  0.00318300  0.67680100  1
  V  V3  1  0.50162300  0.50241800  0.82263600  1
  P  P0  1  0.28576200  0.70289700  0.50296200  1
  P  P1  1  0.78618300  0.70286600  0.00314700  1
  P  P2  1  0.28548500  0.20359700  0.49699300  1
  P  P3  1  0.78675000  0.20351200  0.99708700  1
  P  P4  1  0.71994600  0.79942400  0.49286000  1
  P  P5  1  0.22078800  0.79896500  0.99282100  1
  P  P6  1  0.72067300  0.29896300  0.50687900  1
  P  P7  1  0.22151800  0.29892600  0.00766300  1
  O  O0  1  0.30664000  0.60848300  0.65557500  1
  O  O1  1  0.80541200  0.60886700  0.15609700  1
  O  O2  1  0.30562600  0.10910400  0.34425800  1
  O  O3  1  0.80788000  0.10982700  0.84381600  1
  O  O4  1  0.25396800  0.60939100  0.35622200  1
  O  O5  1  0.75540000  0.60894400  0.85644600  1
  O  O6  1  0.25424300  0.11002500  0.64406900  1
  O  O7  1  0.75491600  0.10907800  0.14322400  1
  O  O8  1  0.11843800  0.85123200  0.51135900  1
  O  O9  1  0.61940600  0.85145900  0.01023300  1
  O  O10  1  0.11901300  0.35230100  0.49028000  1
  O  O11  1  0.61979900  0.35189300  0.99002800  1
  O  O12  1  0.99576400  0.75873800  0.98097000  1
  O  O13  1  0.49453900  0.75947500  0.47901600  1
  O  O14  1  0.99591000  0.25959100  0.02043900  1
  O  O15  1  0.49520400  0.25936700  0.51879400  1
  O  O16  1  0.87111200  0.64324400  0.50100700  1
  O  O17  1  0.37242000  0.64303000  0.00083600  1
  O  O18  1  0.87225500  0.14305800  0.49860000  1
  O  O19  1  0.37258600  0.14280300  0.99923000  1
  O  O20  1  0.72880900  0.88770800  0.33805600  1
  O  O21  1  0.22898500  0.88710900  0.83800400  1
  O  O22  1  0.72840500  0.38710400  0.66182600  1
  O  O23  1  0.22945700  0.38720700  0.16248100  1
  O  O24  1  0.73019300  0.89321700  0.64352400  1
  O  O25  1  0.23197400  0.89304400  0.14328100  1
  O  O26  1  0.73284600  0.39301200  0.35657500  1
  O  O27  1  0.23355300  0.39280300  0.85721700  1
loop_
_geom_bond_atom_site_label_1
_geom_bond_atom_site_label_2
_geom_bond_distance
_geom_bond_site_symmetry_2
Li0 O5 2.097966 1_555
Li0 O22 2.119209 1_555
Li0 O27 2.154039 1_655
Li0 O16 2.171792 1_555
Li0 O10 2.225047 1_655
Li0 O0 2.584221 1_655
Li1 O4 2.106754 1_555
Li1 O23 2.115369 1_555
Li1 O26 2.144758 1_555
Li1 O17 2.170388 1_555
Li1 O11 2.228202 1_554
Li1 O1 2.574482 1_555
Li2 O7 2.096647 1_565
Li2 O20 2.106554 1_555
Li2 O25 2.137895 1_655
Li2 O18 2.169835 1_565
Li2 O8 2.252425 1_655
Li2 O2 2.591140 1_665
Li3 O21 2.104274 1_555
Li3 O6 2.108428 1_565
Li3 O24 2.127368 1_555
Li3 O19 2.173867 1_565
Li3 O9 2.233839 1_556
Li3 O3 2.609996 1_565
O0 P0 1.532265 1_555
O0 V3 1.997445 1_555
O1 P1 1.532992 1_555
O1 V1 1.996988 1_655
O2 P2 1.532790 1_555
O2 V0 1.995778 1_555
O3 P3 1.532387 1_555
O3 V2 1.991481 1_655
O4 P0 1.537176 1_555
O4 V1 2.111775 1_555
O5 P1 1.537414 1_556
O5 V3 2.115792 1_555
O6 P2 1.538432 1_555
O6 V2 2.106437 1_555
O7 P3 1.537668 1_554
O7 V0 2.114142 1_555
O8 P0 1.537251 1_555
O8 V2 1.986226 1_565
O9 P1 1.536643 1_555
O9 V0 1.994063 1_565
O10 P2 1.536446 1_555
O10 V1 1.995973 1_555
O11 P3 1.536061 1_555
O11 V3 1.995631 1_555
O12 P1 1.572789 1_556
O12 P5 1.594976 1_655
O13 P0 1.572958 1_555
O13 P4 1.597491 1_555
O14 P3 1.573124 1_554
O14 P7 1.595273 1_655
O15 P2 1.573523 1_555
O15 P6 1.594949 1_555
O16 P4 1.540223 1_555
O16 V1 2.025760 1_655
O17 P5 1.539782 1_554
O17 V3 2.025385 1_554
O18 P6 1.539284 1_555
O18 V2 2.026270 1_655
O19 P7 1.539404 1_556
O19 V0 2.026188 1_556
O20 P4 1.535833 1_555
O20 V0 2.108461 1_565
O21 P5 1.534602 1_555
O21 V2 2.113365 1_565
O22 P6 1.534927 1_555
O22 V3 2.103335 1_555
O23 P7 1.534883 1_555
O23 V1 2.108437 1_555
O24 P4 1.535438 1_555
O24 V2 2.239568 1_665
O25 P5 1.536536 1_554
O25 V0 2.223469 1_565
O26 P6 1.536473 1_555
O26 V1 2.215999 1_655
O27 P7 1.536415 1_556
O27 V3 2.216103 1_555
