# generated using pymatgen
data_Fe4OF7
_symmetry_space_group_name_H-M   'P 1'
_cell_length_a   4.85432075
_cell_length_b   4.85432075
_cell_length_c   6.36789500
_cell_angle_alpha   90.00000000
_cell_angle_beta   90.00000000
_cell_angle_gamma   90.62538671
_symmetry_Int_Tables_number   1
_chemical_formula_structural   Fe4OF7
_chemical_formula_sum   'Fe4 O1 F7'
_cell_volume   150.04687679
_cell_formula_units_Z   1
loop_
 _symmetry_equiv_pos_site_id
 _symmetry_equiv_pos_as_xyz
  1  'x, y, z'
loop_
 _atom_site_type_symbol
 _atom_site_label
 _atom_site_symmetry_multiplicity
 _atom_site_fract_x
 _atom_site_fract_y
 _atom_site_fract_z
 _atom_site_occupancy
  Fe  Fe0  1  0.00919500  0.00919500  0.73047000  1
  Fe  Fe1  1  0.00919500  0.00919500  0.26953000  1
  Fe  Fe2  1  0.48024900  0.48024900  0.50000000  1
  Fe  Fe3  1  0.50653500  0.50653500  0.00000000  1
  O  O0  1  0.19462600  0.19462600  0.50000000  1
  F  F0  1  0.19916700  0.19916700  0.00000000  1
  F  F1  1  0.70764300  0.29397700  0.75554700  1
  F  F2  1  0.70764300  0.29397700  0.24445300  1
  F  F3  1  0.29397700  0.70764300  0.75554700  1
  F  F4  1  0.29397700  0.70764300  0.24445300  1
  F  F5  1  0.78520200  0.78520200  0.50000000  1
  F  F6  1  0.81259300  0.81259300  0.00000000  1
loop_
_geom_bond_atom_site_label_1
_geom_bond_atom_site_label_2
_geom_bond_distance
_geom_bond_site_symmetry_2
Fe0 O0 1.938220 1_555
Fe1 O0 1.938220 1_555
Fe2 O0 1.950085 1_555
F0 Fe3 2.098548 1_555
F0 Fe1 2.151303 1_555
F0 Fe0 2.151303 1_554
F1 Fe0 2.030657 1_655
F1 Fe3 2.112549 1_556
F1 Fe2 2.169326 1_555
F2 Fe1 2.030657 1_655
F2 Fe3 2.112549 1_555
F2 Fe2 2.169326 1_555
F3 Fe0 2.030657 1_565
F3 Fe3 2.112549 1_556
F3 Fe2 2.169326 1_555
F4 Fe1 2.030657 1_565
F4 Fe3 2.112549 1_555
F4 Fe2 2.169326 1_555
F5 Fe2 2.082060 1_555
F5 Fe0 2.119589 1_665
F5 Fe1 2.119589 1_665
F6 Fe3 2.089604 1_555
F6 Fe1 2.178893 1_665
F6 Fe0 2.178893 1_664
