# generated using pymatgen
data_LiCu2C2O7
_symmetry_space_group_name_H-M   'P 1'
_cell_length_a   4.81447922
_cell_length_b   4.83438746
_cell_length_c   15.24270430
_cell_angle_alpha   89.65741462
_cell_angle_beta   89.62445129
_cell_angle_gamma   60.27491077
_symmetry_Int_Tables_number   1
_chemical_formula_structural   LiCu2C2O7
_chemical_formula_sum   'Li2 Cu4 C4 O14'
_cell_volume   308.08345430
_cell_formula_units_Z   2
loop_
 _symmetry_equiv_pos_site_id
 _symmetry_equiv_pos_as_xyz
  1  'x, y, z'
loop_
 _atom_site_type_symbol
 _atom_site_label
 _atom_site_symmetry_multiplicity
 _atom_site_fract_x
 _atom_site_fract_y
 _atom_site_fract_z
 _atom_site_occupancy
  Li  Li0  1  0.00190900  0.99577100  0.49938000  1
  Li  Li1  1  0.00006500  0.00415600  0.99990500  1
  Cu  Cu0  1  0.33075500  0.33429100  0.86488200  1
  Cu  Cu1  1  0.33198200  0.33796200  0.63460500  1
  Cu  Cu2  1  0.66366200  0.66856200  0.36653600  1
  Cu  Cu3  1  0.67172200  0.65950700  0.13622600  1
  C  C0  1  0.66412900  0.66965500  0.58869300  1
  C  C1  1  0.66546100  0.66945500  0.91055000  1
  C  C2  1  0.33367000  0.33178700  0.41055600  1
  C  C3  1  0.33415300  0.32980600  0.08890400  1
  O  O0  1  0.38828700  0.92568500  0.91279000  1
  O  O1  1  0.07777800  0.60938600  0.41253800  1
  O  O2  1  0.38608300  0.68864000  0.58581200  1
  O  O3  1  0.31634400  0.60616500  0.09101700  1
  O  O4  1  0.68489700  0.92677200  0.58692600  1
  O  O5  1  0.07390300  0.31294600  0.08554800  1
  O  O6  1  0.67706800  0.67904200  0.25119500  1
  O  O7  1  0.34766400  0.30887700  0.74973000  1
  O  O8  1  0.92295400  0.69115200  0.90810700  1
  O  O9  1  0.30936300  0.07667700  0.41137200  1
  O  O10  1  0.68379400  0.39254900  0.91289000  1
  O  O11  1  0.61329100  0.30897900  0.40985400  1
  O  O12  1  0.92016000  0.39271900  0.59112700  1
  O  O13  1  0.61013600  0.07203200  0.08789600  1
loop_
_geom_bond_atom_site_label_1
_geom_bond_atom_site_label_2
_geom_bond_distance
_geom_bond_site_symmetry_2
Li0 O2 2.155562 1_555
Li0 O9 2.164596 1_565
Li0 O4 2.166627 1_455
Li0 O1 2.172881 1_555
Li0 O11 2.203371 1_465
Li0 O12 2.251461 1_465
Li1 O5 2.148176 1_556
Li1 O0 2.161242 1_545
Li1 O10 2.182824 1_455
Li1 O13 2.189107 1_456
Li1 O8 2.230397 1_445
Li1 O3 2.244935 1_546
Cu0 O7 1.758788 1_555
Cu0 O8 1.975556 1_455
Cu0 O0 1.988677 1_545
Cu0 O10 1.999320 1_555
Cu1 O7 1.758724 1_555
Cu1 O2 1.978727 1_555
Cu1 O12 1.983695 1_455
Cu1 O4 2.004573 1_545
Cu2 O6 1.760219 1_555
Cu2 O11 1.979629 1_555
Cu2 O9 1.983122 1_565
Cu2 O1 1.999717 1_655
Cu3 O6 1.756588 1_555
Cu3 O3 1.980878 1_555
Cu3 O5 1.982856 1_655
Cu3 O13 2.001690 1_565
C0 O12 1.294869 1_555
C0 O4 1.295606 1_555
C0 O2 1.296615 1_555
C1 O0 1.294989 1_555
C1 O8 1.295196 1_555
C1 O10 1.297459 1_555
C2 O11 1.295078 1_555
C2 O9 1.295301 1_555
C2 O1 1.296198 1_555
C3 O13 1.294838 1_555
C3 O3 1.296239 1_555
C3 O5 1.296671 1_555
