# generated using pymatgen
data_Li5Sn5(PO4)6
_symmetry_space_group_name_H-M   'P 1'
_cell_length_a   9.15519200
_cell_length_b   9.15616893
_cell_length_c   9.27718027
_cell_angle_alpha   61.64082704
_cell_angle_beta   61.44506370
_cell_angle_gamma   60.08990782
_symmetry_Int_Tables_number   1
_chemical_formula_structural   Li5Sn5(PO4)6
_chemical_formula_sum   'Li5 Sn5 P6 O24'
_cell_volume   562.77020891
_cell_formula_units_Z   1
loop_
 _symmetry_equiv_pos_site_id
 _symmetry_equiv_pos_as_xyz
  1  'x, y, z'
loop_
 _atom_site_type_symbol
 _atom_site_label
 _atom_site_symmetry_multiplicity
 _atom_site_fract_x
 _atom_site_fract_y
 _atom_site_fract_z
 _atom_site_occupancy
  Li  Li0  1  0.86567500  0.64942800  0.22183500  1
  Li  Li1  1  0.18034700  0.31773700  0.65650800  1
  Li  Li2  1  0.86180300  0.17255900  0.64893700  1
  Li  Li3  1  0.30800300  0.85094000  0.65893200  1
  Li  Li4  1  0.19708600  0.18677400  0.44337300  1
  Sn  Sn0  1  0.01161500  0.03317400  0.95983400  1
  Sn  Sn1  1  0.50150000  0.50105900  0.48435000  1
  Sn  Sn2  1  0.84574500  0.84449300  0.46889000  1
  Sn  Sn3  1  0.64651100  0.65320500  0.04156400  1
  Sn  Sn4  1  0.34272000  0.33188600  0.97456400  1
  P  P0  1  0.24403300  0.56265100  0.26527600  1
  P  P1  1  0.93471300  0.23906000  0.26808200  1
  P  P2  1  0.43905800  0.02983200  0.76246700  1
  P  P3  1  0.02713200  0.76122500  0.78256200  1
  P  P4  1  0.76697500  0.44536100  0.74370700  1
  P  P5  1  0.56012500  0.92966600  0.26896900  1
  O  O0  1  0.67911200  0.48193500  0.91741400  1
  O  O1  1  0.45921200  0.91004400  0.94211300  1
  O  O2  1  0.08073400  0.73320500  0.30181100  1
  O  O3  1  0.91980700  0.68562600  0.97216300  1
  O  O4  1  0.22377700  0.39547600  0.41841700  1
  O  O5  1  0.41257400  0.58615400  0.25036000  1
  O  O6  1  0.87576200  0.08418100  0.31499900  1
  O  O7  1  0.76096500  0.41452300  0.26468800  1
  O  O8  1  0.60333400  0.97219400  0.61364200  1
  O  O9  1  0.59238300  0.74244300  0.26514800  1
  O  O10  1  0.27598700  0.02236300  0.75114600  1
  O  O11  1  0.94835000  0.77762300  0.65729600  1
  O  O12  1  0.99363200  0.21376400  0.41104200  1
  O  O13  1  0.74196600  0.88334900  0.29027000  1
  O  O14  1  0.38987700  0.22787200  0.73471700  1
  O  O15  1  0.39743700  0.97148600  0.42281200  1
  O  O16  1  0.22762000  0.64930700  0.73813300  1
  O  O17  1  0.01307700  0.95002000  0.75813700  1
  O  O18  1  0.65671800  0.37754800  0.72045400  1
  O  O19  1  0.79811800  0.60755900  0.58364200  1
  O  O20  1  0.07322900  0.26104000  0.08850200  1
  O  O21  1  0.95273300  0.28934000  0.74252400  1
  O  O22  1  0.55198100  0.07206600  0.09542100  1
  O  O23  1  0.26157400  0.55882900  0.09530300  1
loop_
_geom_bond_atom_site_label_1
_geom_bond_atom_site_label_2
_geom_bond_distance
_geom_bond_site_symmetry_2
Li0 O3 2.014346 1_554
Li0 O9 2.094245 1_555
Li0 O13 2.111495 1_555
Li0 O7 2.565680 1_555
Li1 O4 1.868861 1_555
Li1 O21 1.949444 1_455
Li1 O14 2.018075 1_555
Li1 O10 2.229210 1_555
Li2 O12 1.893790 1_555
Li2 O17 1.913691 1_645
Li2 O18 1.991470 1_555
Li2 O21 2.247401 1_555
Li3 O15 1.891243 1_555
Li3 O10 1.964286 1_565
Li3 O16 2.009776 1_555
Li3 O17 2.221537 1_555
Li4 O12 1.903988 1_455
Li4 O15 1.924420 1_545
Li4 O4 1.938091 1_555
O0 P4 1.536533 1_555
O0 Sn3 2.189806 1_556
O1 P2 1.539554 1_565
O1 Sn3 2.179827 1_556
O2 P0 1.574400 1_555
O2 Sn2 2.048300 1_455
O3 P3 1.551740 1_655
O3 Sn3 2.404607 1_556
O4 P0 1.536590 1_555
O5 P0 1.595344 1_555
O5 Sn3 2.220706 1_555
O5 Sn1 2.330726 1_555
O6 P1 1.563351 1_555
O6 Sn2 2.044507 1_545
O7 P1 1.601119 1_555
O7 Sn1 2.335046 1_555
O7 Sn3 2.377197 1_555
O8 P2 1.536957 1_565
O8 Sn2 2.037272 1_555
O9 P5 1.603105 1_555
O9 Sn3 2.332210 1_555
O9 Sn1 2.378890 1_555
O10 P2 1.582132 1_555
O10 Sn0 2.253800 1_555
O11 P3 1.555903 1_655
O11 Sn2 2.071660 1_555
O12 P1 1.539840 1_555
O13 P5 1.587836 1_555
O13 Sn2 2.093616 1_555
O14 P2 1.552461 1_555
O14 Sn4 2.594072 1_555
O14 Sn1 2.730697 1_555
O15 P5 1.523218 1_555
O16 P3 1.546366 1_555
O16 Sn4 2.732708 1_555
O16 Sn1 2.769625 1_555
O17 P3 1.577982 1_555
O17 Sn0 2.323897 1_565
O18 P4 1.552892 1_555
O18 Sn1 2.667557 1_555
O18 Sn4 2.789222 1_555
O19 P4 1.553839 1_555
O19 Sn2 2.082153 1_555
O20 P1 1.529858 1_455
O20 Sn4 2.465134 1_554
O21 P4 1.583441 1_555
O21 Sn0 2.267643 1_655
O22 P5 1.523591 1_545
O22 Sn4 2.358233 1_554
O23 P0 1.522584 1_555
O23 Sn4 2.449583 1_554
