# generated using pymatgen
data_Na2LiP3H8O13
_symmetry_space_group_name_H-M   'P 1'
_cell_length_a   6.97850500
_cell_length_b   9.46257988
_cell_length_c   9.99527984
_cell_angle_alpha   94.91305848
_cell_angle_beta   104.25882989
_cell_angle_gamma   107.92012380
_symmetry_Int_Tables_number   1
_chemical_formula_structural   Na2LiP3H8O13
_chemical_formula_sum   'Na4 Li2 P6 H16 O26'
_cell_volume   599.26859196
_cell_formula_units_Z   2
loop_
 _symmetry_equiv_pos_site_id
 _symmetry_equiv_pos_as_xyz
  1  'x, y, z'
loop_
 _atom_site_type_symbol
 _atom_site_label
 _atom_site_symmetry_multiplicity
 _atom_site_fract_x
 _atom_site_fract_y
 _atom_site_fract_z
 _atom_site_occupancy
  Na  Na0  1  0.56881200  0.94670300  0.84994700  1
  Na  Na1  1  0.43118800  0.05329700  0.15005300  1
  Na  Na2  1  0.18997800  0.65968500  0.96493900  1
  Na  Na3  1  0.81002200  0.34031500  0.03506100  1
  Li  Li0  1  0.63628600  0.74830300  0.61072000  1
  Li  Li1  1  0.36371400  0.25169700  0.38928000  1
  P  P0  1  0.26708900  0.29613900  0.96464600  1
  P  P1  1  0.73291100  0.70386100  0.03535400  1
  P  P2  1  0.17716200  0.22073900  0.66075800  1
  P  P3  1  0.82283800  0.77926100  0.33924200  1
  P  P4  1  0.07723800  0.98080100  0.82117000  1
  P  P5  1  0.92276200  0.01919900  0.17883000  1
  H  H0  1  0.27197600  0.79725900  0.54541700  1
  H  H1  1  0.72802400  0.20274100  0.45458300  1
  H  H2  1  0.28093800  0.69356400  0.65657700  1
  H  H3  1  0.71906200  0.30643600  0.34342300  1
  H  H4  1  0.57029900  0.21170900  0.71516000  1
  H  H5  1  0.42970100  0.78829100  0.28484000  1
  H  H6  1  0.79558500  0.20669800  0.74423300  1
  H  H7  1  0.20441500  0.79330200  0.25576700  1
  H  H8  1  0.51519000  0.45881700  0.63339300  1
  H  H9  1  0.48481000  0.54118300  0.36660700  1
  H  H10  1  0.65695600  0.56609900  0.77489900  1
  H  H11  1  0.34304400  0.43390100  0.22510100  1
  H  H12  1  0.92258600  0.57699600  0.68037700  1
  H  H13  1  0.07741400  0.42300400  0.31962300  1
  H  H14  1  0.02687500  0.45482300  0.67729600  1
  H  H15  1  0.97312500  0.54517700  0.32270400  1
  O  O0  1  0.30383000  0.32794300  0.81272900  1
  O  O1  1  0.69617000  0.67205700  0.18727100  1
  O  O2  1  0.07986500  0.13108100  0.91585800  1
  O  O3  1  0.92013500  0.86891900  0.08414200  1
  O  O4  1  0.82614000  0.59494100  0.98245500  1
  O  O5  1  0.17386000  0.40505900  0.01754500  1
  O  O6  1  0.53643300  0.71776300  0.94524700  1
  O  O7  1  0.46356700  0.28223700  0.05475300  1
  O  O8  1  0.16144400  0.05345600  0.69388800  1
  O  O9  1  0.83855600  0.94654400  0.30611200  1
  O  O10  1  0.32842300  0.25899800  0.57417800  1
  O  O11  1  0.67157700  0.74100200  0.42582200  1
  O  O12  1  0.96303200  0.23582600  0.61343600  1
  O  O13  1  0.03696800  0.76417400  0.38656400  1
  O  O14  1  0.85071000  0.88457300  0.76469000  1
  O  O15  1  0.14929000  0.11542700  0.23531000  1
  O  O16  1  0.23723500  0.91899200  0.89868900  1
  O  O17  1  0.76276500  0.08100800  0.10131100  1
  O  O18  1  0.37263000  0.77628900  0.62263600  1
  O  O19  1  0.62737000  0.22371100  0.37736400  1
  O  O20  1  0.67991000  0.19370200  0.78706800  1
  O  O21  1  0.32009000  0.80629800  0.21293200  1
  O  O22  1  0.63282800  0.55475900  0.67266000  1
  O  O23  1  0.36717200  0.44524100  0.32734000  1
  O  O24  1  0.06053900  0.56321800  0.70890400  1
  O  O25  1  0.93946100  0.43678200  0.29109600  1
loop_
_geom_bond_atom_site_label_1
_geom_bond_atom_site_label_2
_geom_bond_distance
_geom_bond_site_symmetry_2
Na0 O6 2.410352 1_555
Na0 O20 2.415647 1_565
Na0 O16 2.421595 1_555
Na0 O18 2.473541 1_555
Na0 O14 2.528541 1_555
Na0 O17 2.545366 1_566
Na1 O7 2.410352 1_555
Na1 O21 2.415647 1_545
Na1 O17 2.421595 1_555
Na1 O19 2.473541 1_555
Na1 O15 2.528541 1_555
Na1 O16 2.545366 1_544
Na2 O6 2.370971 1_555
Na2 O4 2.476457 1_455
Na2 O24 2.480345 1_555
Na2 O5 2.484712 1_556
Na2 O21 2.533865 1_556
Na2 O16 2.540843 1_555
Na3 O7 2.370971 1_555
Na3 O5 2.476457 1_655
Na3 O25 2.480345 1_555
Na3 O4 2.484712 1_554
Na3 O20 2.533865 1_554
Na3 O17 2.540843 1_555
Li0 O14 1.899620 1_555
Li0 O11 1.921909 1_555
Li0 O18 1.967747 1_555
Li0 O22 1.977972 1_555
Li1 O15 1.899620 1_555
Li1 O10 1.921909 1_555
Li1 O19 1.967747 1_555
Li1 O23 1.977972 1_555
H0 O18 0.986620 1_555
H1 O19 0.986620 1_555
H2 O18 0.990694 1_555
H3 O19 0.990694 1_555
H4 O20 0.980350 1_555
H5 O21 0.980350 1_555
H6 O20 0.983997 1_555
H7 O21 0.983997 1_555
H8 O22 0.986811 1_555
H9 O23 0.986811 1_555
H10 O22 0.984631 1_555
H11 O23 0.984631 1_555
H12 O24 0.986655 1_655
H13 O25 0.986655 1_455
H14 O24 0.983212 1_555
H15 O25 0.983212 1_555
O0 P2 1.624989 1_555
O0 P0 1.638470 1_555
O1 P3 1.624989 1_555
O1 P1 1.638470 1_555
O2 P4 1.631913 1_545
O2 P0 1.638356 1_555
O3 P5 1.631913 1_565
O3 P1 1.638356 1_555
O4 P1 1.501289 1_556
O5 P0 1.501289 1_554
O6 P1 1.493793 1_556
O7 P0 1.493793 1_554
O8 P2 1.621167 1_555
O8 P4 1.644989 1_545
O9 P3 1.621167 1_555
O9 P5 1.644989 1_565
O10 P2 1.504225 1_555
O11 P3 1.504225 1_555
O12 P2 1.507227 1_655
O13 P3 1.507227 1_455
O14 P4 1.494445 1_655
O15 P5 1.494445 1_455
O16 P4 1.497469 1_555
O17 P5 1.497469 1_555
