# generated using pymatgen
data_Ba2Ca7I18
_symmetry_space_group_name_H-M   'P 1'
_cell_length_a   10.37157700
_cell_length_b   11.21524580
_cell_length_c   11.48205981
_cell_angle_alpha   95.69014095
_cell_angle_beta   115.89143401
_cell_angle_gamma   94.90516448
_symmetry_Int_Tables_number   1
_chemical_formula_structural   Ba2Ca7I18
_chemical_formula_sum   'Ba2 Ca7 I18'
_cell_volume   1183.16742912
_cell_formula_units_Z   1
loop_
 _symmetry_equiv_pos_site_id
 _symmetry_equiv_pos_as_xyz
  1  'x, y, z'
loop_
 _atom_site_type_symbol
 _atom_site_label
 _atom_site_symmetry_multiplicity
 _atom_site_fract_x
 _atom_site_fract_y
 _atom_site_fract_z
 _atom_site_occupancy
  Ba  Ba0  1  0.69227700  0.39009800  0.23167300  1
  Ba  Ba1  1  0.30772300  0.60990200  0.76832700  1
  Ca  Ca0  1  0.79500300  0.81828400  0.11737600  1
  Ca  Ca1  1  0.00000000  0.50000000  0.00000000  1
  Ca  Ca2  1  0.79949200  0.78948200  0.61134700  1
  Ca  Ca3  1  0.59375600  0.11348300  0.70320100  1
  Ca  Ca4  1  0.40624400  0.88651700  0.29679900  1
  Ca  Ca5  1  0.20050800  0.21051800  0.38865300  1
  Ca  Ca6  1  0.20499700  0.18171600  0.88262400  1
  I  I0  1  0.87882300  0.08715900  0.24214900  1
  I  I1  1  0.86316000  0.69846000  0.37126100  1
  I  I2  1  0.94005200  0.56067600  0.72047400  1
  I  I3  1  0.91798800  0.22242800  0.89824700  1
  I  I4  1  0.70843300  0.02932600  0.50072500  1
  I  I5  1  0.47512700  0.81792700  0.06024400  1
  I  I6  1  0.48858600  0.65897200  0.42585300  1
  I  I7  1  0.66223600  0.85730800  0.80936900  1
  I  I8  1  0.31438900  0.45940800  0.02959000  1
  I  I9  1  0.68561100  0.54059200  0.97041000  1
  I  I10  1  0.33776400  0.14269200  0.19063100  1
  I  I11  1  0.51141400  0.34102800  0.57414700  1
  I  I12  1  0.52487300  0.18207300  0.93975600  1
  I  I13  1  0.29156700  0.97067400  0.49927500  1
  I  I14  1  0.08201200  0.77757200  0.10175300  1
  I  I15  1  0.05994800  0.43932400  0.27952600  1
  I  I16  1  0.13684000  0.30154000  0.62873900  1
  I  I17  1  0.12117700  0.91284100  0.75785100  1
loop_
_geom_bond_atom_site_label_1
_geom_bond_atom_site_label_2
_geom_bond_distance
_geom_bond_site_symmetry_2
Ba0 I12 3.516599 1_554
Ba0 I9 3.563062 1_554
Ba0 I15 3.591398 1_655
Ba0 I1 3.611378 1_555
Ba0 I8 3.779623 1_555
Ba0 I0 4.037699 1_555
Ba0 I10 4.233578 1_555
Ba1 I5 3.516599 1_556
Ba1 I8 3.563062 1_556
Ba1 I2 3.591398 1_455
Ba1 I16 3.611378 1_555
Ba1 I9 3.779623 1_555
Ba1 I17 4.037699 1_555
Ba1 I7 4.233578 1_555
Ca0 I0 3.083632 1_565
Ca0 I5 3.087633 1_555
Ca0 I14 3.127963 1_655
Ca0 I1 3.153285 1_555
Ca0 I9 3.242798 1_554
Ca0 I7 3.279008 1_554
Ca1 I14 3.120508 1_555
Ca1 I3 3.120508 1_454
Ca1 I2 3.148561 1_454
Ca1 I15 3.148561 1_555
Ca1 I8 3.204985 1_555
Ca1 I9 3.204985 1_454
Ca2 I6 3.106982 1_555
Ca2 I17 3.118151 1_655
Ca2 I4 3.131326 1_565
Ca2 I2 3.156310 1_555
Ca2 I1 3.197571 1_555
Ca2 I7 3.231697 1_555
Ca3 I11 3.074905 1_555
Ca3 I12 3.139094 1_555
Ca3 I13 3.140013 1_545
Ca3 I4 3.143579 1_555
Ca3 I3 3.161388 1_555
Ca3 I7 3.245353 1_545
Ca4 I6 3.074905 1_555
Ca4 I5 3.139094 1_555
Ca4 I4 3.140013 1_565
Ca4 I13 3.143579 1_555
Ca4 I14 3.161388 1_555
Ca4 I10 3.245353 1_565
Ca5 I11 3.106982 1_555
Ca5 I0 3.118151 1_455
Ca5 I13 3.131326 1_545
Ca5 I15 3.156310 1_555
Ca5 I16 3.197571 1_555
Ca5 I10 3.231697 1_555
Ca6 I17 3.083632 1_545
Ca6 I12 3.087633 1_555
Ca6 I3 3.127963 1_455
Ca6 I16 3.153285 1_555
Ca6 I8 3.242798 1_556
Ca6 I10 3.279008 1_556
