# generated using pymatgen
data_Li3CrFe3O8
_symmetry_space_group_name_H-M   'P 1'
_cell_length_a   6.00925424
_cell_length_b   6.00925424
_cell_length_c   6.00925480
_cell_angle_alpha   59.42587321
_cell_angle_beta   59.42587321
_cell_angle_gamma   59.42588217
_symmetry_Int_Tables_number   1
_chemical_formula_structural   Li3CrFe3O8
_chemical_formula_sum   'Li3 Cr1 Fe3 O8'
_cell_volume   151.43847264
_cell_formula_units_Z   1
loop_
 _symmetry_equiv_pos_site_id
 _symmetry_equiv_pos_as_xyz
  1  'x, y, z'
loop_
 _atom_site_type_symbol
 _atom_site_label
 _atom_site_symmetry_multiplicity
 _atom_site_fract_x
 _atom_site_fract_y
 _atom_site_fract_z
 _atom_site_occupancy
  Li  Li0  1  0.00000000  0.50000000  0.00000000  1
  Li  Li1  1  0.00000000  0.00000000  0.50000000  1
  Li  Li2  1  0.50000000  0.00000000  0.00000000  1
  Cr  Cr0  1  0.00000000  0.00000000  0.00000000  1
  Fe  Fe0  1  0.50000000  0.00000000  0.50000000  1
  Fe  Fe1  1  0.50000000  0.50000000  0.00000000  1
  Fe  Fe2  1  0.00000000  0.50000000  0.50000000  1
  O  O0  1  0.25885300  0.25885300  0.25885300  1
  O  O1  1  0.76905400  0.24456400  0.76905400  1
  O  O2  1  0.76905400  0.76905400  0.24456400  1
  O  O3  1  0.74114700  0.74114700  0.74114700  1
  O  O4  1  0.24456400  0.76905400  0.76905400  1
  O  O5  1  0.23094600  0.75543600  0.23094600  1
  O  O6  1  0.23094600  0.23094600  0.75543600  1
  O  O7  1  0.75543600  0.23094600  0.23094600  1
loop_
_geom_bond_atom_site_label_1
_geom_bond_atom_site_label_2
_geom_bond_distance
_geom_bond_site_symmetry_2
Li0 O4 2.181670 1_554
Li0 O7 2.181670 1_455
Li0 O2 2.181670 1_455
Li0 O6 2.181670 1_554
Li0 O0 2.194179 1_555
Li0 O3 2.194179 1_454
Li1 O4 2.181670 1_545
Li1 O1 2.181670 1_455
Li1 O7 2.181670 1_455
Li1 O5 2.181670 1_545
Li1 O0 2.194179 1_555
Li1 O3 2.194179 1_445
Li2 O1 2.181670 1_554
Li2 O5 2.181670 1_545
Li2 O2 2.181670 1_545
Li2 O6 2.181670 1_554
Li2 O0 2.194179 1_555
Li2 O3 2.194179 1_544
Cr0 O6 1.954862 1_554
Cr0 O2 1.954862 1_445
Cr0 O5 1.954863 1_545
Cr0 O7 1.954863 1_455
Cr0 O4 1.954863 1_544
Cr0 O1 1.954863 1_454
Fe0 O0 2.041937 1_555
Fe0 O3 2.041937 1_545
Fe0 O7 2.063011 1_555
Fe0 O4 2.063011 1_545
Fe0 O6 2.063011 1_555
Fe0 O2 2.063011 1_545
Fe1 O3 2.041936 1_554
Fe1 O0 2.041936 1_555
Fe1 O7 2.063011 1_555
Fe1 O5 2.063011 1_555
Fe1 O1 2.063011 1_554
Fe1 O4 2.063011 1_554
Fe2 O0 2.041937 1_555
Fe2 O3 2.041937 1_455
Fe2 O5 2.063011 1_555
Fe2 O1 2.063011 1_455
Fe2 O6 2.063011 1_555
Fe2 O2 2.063011 1_455
