# generated using pymatgen
data_LiMn2(PO3)5
_symmetry_space_group_name_H-M   'P 1'
_cell_length_a   13.18595400
_cell_length_b   5.17412400
_cell_length_c   8.74285195
_cell_angle_alpha   76.53825297
_cell_angle_beta   90.00000000
_cell_angle_gamma   90.00000000
_symmetry_Int_Tables_number   1
_chemical_formula_structural   LiMn2(PO3)5
_chemical_formula_sum   'Li2 Mn4 P10 O30'
_cell_volume   580.09956255
_cell_formula_units_Z   2
loop_
 _symmetry_equiv_pos_site_id
 _symmetry_equiv_pos_as_xyz
  1  'x, y, z'
loop_
 _atom_site_type_symbol
 _atom_site_label
 _atom_site_symmetry_multiplicity
 _atom_site_fract_x
 _atom_site_fract_y
 _atom_site_fract_z
 _atom_site_occupancy
  Li  Li0  1  0.00000000  0.50000000  0.50000000  1
  Li  Li1  1  0.50000000  0.50000000  0.50000000  1
  Mn  Mn0  1  0.90263400  0.86924800  0.15491500  1
  Mn  Mn1  1  0.59736600  0.86924800  0.15491500  1
  Mn  Mn2  1  0.40263400  0.13075200  0.84508500  1
  Mn  Mn3  1  0.09736600  0.13075200  0.84508500  1
  P  P0  1  0.36146600  0.97167600  0.50040600  1
  P  P1  1  0.13853400  0.97167600  0.50040600  1
  P  P2  1  0.92962000  0.65680400  0.81262100  1
  P  P3  1  0.57038000  0.65680400  0.81262100  1
  P  P4  1  0.25000000  0.55934500  0.98065400  1
  P  P5  1  0.75000000  0.44065500  0.01934600  1
  P  P6  1  0.42962000  0.34319600  0.18737900  1
  P  P7  1  0.07038000  0.34319600  0.18737900  1
  P  P8  1  0.63853400  0.02832400  0.49959400  1
  P  P9  1  0.86146600  0.02832400  0.49959400  1
  O  O0  1  0.75000000  0.95364600  0.45358900  1
  O  O1  1  0.96374800  0.83373200  0.92008600  1
  O  O2  1  0.53625200  0.83373200  0.92008600  1
  O  O3  1  0.25000000  0.83365100  0.87467200  1
  O  O4  1  0.86608200  0.82536800  0.67276900  1
  O  O5  1  0.63391800  0.82536800  0.67276900  1
  O  O6  1  0.57254400  0.91912300  0.38683900  1
  O  O7  1  0.92745600  0.91912300  0.38683900  1
  O  O8  1  0.37093900  0.69325700  0.48557400  1
  O  O9  1  0.12906100  0.69325700  0.48557400  1
  O  O10  1  0.84504200  0.45215400  0.90413100  1
  O  O11  1  0.65495800  0.45215400  0.90413100  1
  O  O12  1  0.00853900  0.48955000  0.75830800  1
  O  O13  1  0.49146100  0.48955000  0.75830800  1
  O  O14  1  0.75000000  0.68074000  0.09204500  1
  O  O15  1  0.25000000  0.31926000  0.90795500  1
  O  O16  1  0.50853900  0.51045000  0.24169200  1
  O  O17  1  0.99146100  0.51045000  0.24169200  1
  O  O18  1  0.34504200  0.54784600  0.09586900  1
  O  O19  1  0.15495800  0.54784600  0.09586900  1
  O  O20  1  0.87093900  0.30674300  0.51442600  1
  O  O21  1  0.62906100  0.30674300  0.51442600  1
  O  O22  1  0.42745600  0.08087700  0.61316100  1
  O  O23  1  0.07254400  0.08087700  0.61316100  1
  O  O24  1  0.36608200  0.17463200  0.32723100  1
  O  O25  1  0.13391800  0.17463200  0.32723100  1
  O  O26  1  0.75000000  0.16634900  0.12532800  1
  O  O27  1  0.46374800  0.16626800  0.07991400  1
  O  O28  1  0.03625200  0.16626800  0.07991400  1
  O  O29  1  0.25000000  0.04635400  0.54641100  1
loop_
_geom_bond_atom_site_label_1
_geom_bond_atom_site_label_2
_geom_bond_distance
_geom_bond_site_symmetry_2
Li0 O20 1.962946 1_455
Li0 O9 1.962946 1_555
Li0 O12 2.249197 1_555
Li0 O17 2.249197 1_455
Li0 O23 2.365945 1_555
Li0 O7 2.365945 1_455
Li1 O21 1.962946 1_555
Li1 O8 1.962946 1_555
Li1 O13 2.249197 1_555
Li1 O16 2.249197 1_555
Li1 O22 2.365945 1_555
Li1 O6 2.365945 1_555
Mn0 O7 2.128103 1_555
Mn0 O17 2.176731 1_555
Mn0 O1 2.252540 1_554
Mn0 O28 2.329553 1_665
Mn0 O14 2.356637 1_555
Mn0 O26 2.509090 1_565
Mn1 O6 2.128103 1_555
Mn1 O16 2.176731 1_555
Mn1 O2 2.252540 1_554
Mn1 O27 2.329553 1_565
Mn1 O14 2.356637 1_555
Mn1 O26 2.509090 1_565
Mn2 O22 2.128103 1_555
Mn2 O13 2.176731 1_555
Mn2 O27 2.252540 1_556
Mn2 O2 2.329553 1_545
Mn2 O15 2.356637 1_555
Mn2 O3 2.509090 1_545
Mn3 O23 2.128103 1_555
Mn3 O12 2.176731 1_555
Mn3 O28 2.252540 1_556
Mn3 O1 2.329553 1_445
Mn3 O15 2.356637 1_555
Mn3 O3 2.509090 1_545
O0 P9 1.594900 1_565
O0 P8 1.594900 1_565
O1 P2 1.524391 1_555
O2 P3 1.524391 1_555
O3 P4 1.503547 1_555
O4 P2 1.568790 1_555
O4 P9 1.630499 1_565
O5 P3 1.568790 1_555
O5 P8 1.630499 1_565
O6 P8 1.519055 1_565
O7 P9 1.519055 1_565
O8 P0 1.481434 1_555
O9 P1 1.481434 1_555
O10 P5 1.600270 1_556
O10 P2 1.615753 1_555
O11 P5 1.600270 1_556
O11 P3 1.615753 1_555
O12 P2 1.499536 1_455
O13 P3 1.499536 1_555
O14 P5 1.521423 1_555
O15 P4 1.521423 1_555
O16 P6 1.499536 1_555
O17 P7 1.499536 1_655
O18 P4 1.600270 1_554
O18 P6 1.615753 1_555
O19 P4 1.600270 1_554
O19 P7 1.615753 1_555
O20 P9 1.481434 1_555
O21 P8 1.481434 1_555
O22 P0 1.519055 1_545
O23 P1 1.519055 1_545
O24 P6 1.568790 1_555
O24 P0 1.630499 1_545
O25 P7 1.568790 1_555
O25 P1 1.630499 1_545
O26 P5 1.503547 1_555
O27 P6 1.524391 1_555
O28 P7 1.524391 1_555
O29 P1 1.594900 1_545
O29 P0 1.594900 1_545
