# generated using pymatgen
data_H10S(NO2)2
_symmetry_space_group_name_H-M   'P 1'
_cell_length_a   8.12562900
_cell_length_b   6.43292200
_cell_length_c   12.41415282
_cell_angle_alpha   82.08618224
_cell_angle_beta   90.00000000
_cell_angle_gamma   90.00000000
_symmetry_Int_Tables_number   1
_chemical_formula_structural   H10S(NO2)2
_chemical_formula_sum   'H40 S4 N8 O16'
_cell_volume   642.72685318
_cell_formula_units_Z   4
loop_
 _symmetry_equiv_pos_site_id
 _symmetry_equiv_pos_as_xyz
  1  'x, y, z'
loop_
 _atom_site_type_symbol
 _atom_site_label
 _atom_site_symmetry_multiplicity
 _atom_site_fract_x
 _atom_site_fract_y
 _atom_site_fract_z
 _atom_site_occupancy
  H  H0  1  0.05113400  0.10792800  0.68101500  1
  H  H1  1  0.55113400  0.89207200  0.81898500  1
  H  H2  1  0.94886600  0.89207200  0.31898500  1
  H  H3  1  0.44886600  0.10792800  0.18101500  1
  H  H4  1  0.91343500  0.20679000  0.60035900  1
  H  H5  1  0.41343500  0.79321000  0.89964100  1
  H  H6  1  0.08656500  0.79321000  0.39964100  1
  H  H7  1  0.58656500  0.20679000  0.10035900  1
  H  H8  1  0.20548000  0.68817900  0.69798800  1
  H  H9  1  0.70548000  0.31182100  0.80201200  1
  H  H10  1  0.79452000  0.31182100  0.30201200  1
  H  H11  1  0.29452000  0.68817900  0.19798800  1
  H  H12  1  0.29213600  0.69550800  0.57015400  1
  H  H13  1  0.79213600  0.30449200  0.92984600  1
  H  H14  1  0.70786400  0.30449200  0.42984600  1
  H  H15  1  0.20786400  0.69550800  0.07015400  1
  H  H16  1  0.38457200  0.55691100  0.68034300  1
  H  H17  1  0.88457200  0.44308900  0.81965700  1
  H  H18  1  0.61542800  0.44308900  0.31965700  1
  H  H19  1  0.11542800  0.55691100  0.18034300  1
  H  H20  1  0.38845400  0.82146200  0.66341200  1
  H  H21  1  0.88845400  0.17853800  0.83658800  1
  H  H22  1  0.61154600  0.17853800  0.33658800  1
  H  H23  1  0.11154600  0.82146200  0.16341200  1
  H  H24  1  0.70814100  0.82342000  0.61538200  1
  H  H25  1  0.20814100  0.17658000  0.88461800  1
  H  H26  1  0.29185900  0.17658000  0.38461800  1
  H  H27  1  0.79185900  0.82342000  0.11538200  1
  H  H28  1  0.74867100  0.57031700  0.58950400  1
  H  H29  1  0.24867100  0.42968300  0.91049600  1
  H  H30  1  0.25132900  0.42968300  0.41049600  1
  H  H31  1  0.75132900  0.57031700  0.08950400  1
  H  H32  1  0.85340000  0.77484500  0.52043500  1
  H  H33  1  0.35340000  0.22515500  0.97956500  1
  H  H34  1  0.14660000  0.22515500  0.47956500  1
  H  H35  1  0.64660000  0.77484500  0.02043500  1
  H  H36  1  0.88504400  0.70489200  0.65694400  1
  H  H37  1  0.38504400  0.29510800  0.84305600  1
  H  H38  1  0.11495600  0.29510800  0.34305600  1
  H  H39  1  0.61495600  0.70489200  0.15694400  1
  S  S0  1  0.03810900  0.77947600  0.87714700  1
  S  S1  1  0.53810900  0.22052400  0.62285300  1
  S  S2  1  0.96189100  0.22052400  0.12285300  1
  S  S3  1  0.46189100  0.77947600  0.37714700  1
  N  N0  1  0.31486000  0.69153800  0.65359800  1
  N  N1  1  0.81486000  0.30846200  0.84640200  1
  N  N2  1  0.68514000  0.30846200  0.34640200  1
  N  N3  1  0.18514000  0.69153800  0.15359800  1
  N  N4  1  0.79796800  0.71909400  0.59493600  1
  N  N5  1  0.29796800  0.28090600  0.90506400  1
  N  N6  1  0.20203200  0.28090600  0.40506400  1
  N  N7  1  0.70203200  0.71909400  0.09493600  1
  O  O0  1  0.20836400  0.70574300  0.92450700  1
  O  O1  1  0.70836400  0.29425700  0.57549300  1
  O  O2  1  0.79163600  0.29425700  0.07549300  1
  O  O3  1  0.29163600  0.70574300  0.42450700  1
  O  O4  1  0.06267200  0.01116700  0.82663300  1
  O  O5  1  0.56267200  0.98883300  0.67336700  1
  O  O6  1  0.93732800  0.98883300  0.17336700  1
  O  O7  1  0.43732800  0.01116700  0.32663300  1
  O  O8  1  0.01660400  0.65602500  0.77885500  1
  O  O9  1  0.51660400  0.34397500  0.72114500  1
  O  O10  1  0.98339600  0.34397500  0.22114500  1
  O  O11  1  0.48339600  0.65602500  0.27885500  1
  O  O12  1  0.03219300  0.17174800  0.60502400  1
  O  O13  1  0.53219300  0.82825200  0.89497600  1
  O  O14  1  0.96780700  0.82825200  0.39497600  1
  O  O15  1  0.46780700  0.17174800  0.10502400  1
loop_
_geom_bond_atom_site_label_1
_geom_bond_atom_site_label_2
_geom_bond_distance
_geom_bond_site_symmetry_2
H0 O12 0.987687 1_555
H1 O13 0.987687 1_555
H2 O14 0.987687 1_555
H3 O15 0.987687 1_555
H4 O12 0.990842 1_655
H5 O13 0.990842 1_555
H6 O14 0.990842 1_455
H7 O15 0.990842 1_555
H8 N0 1.044410 1_555
H9 N1 1.044410 1_555
H10 N2 1.044410 1_555
H11 N3 1.044410 1_555
H12 N0 1.049058 1_555
H13 N1 1.049058 1_555
H14 N2 1.049058 1_555
H15 N3 1.049058 1_555
H16 N0 1.049743 1_555
H17 N1 1.049743 1_555
H18 N2 1.049743 1_555
H19 N3 1.049743 1_555
H20 N0 1.048346 1_555
H21 N1 1.048346 1_555
H22 N2 1.048346 1_555
H23 N3 1.048346 1_555
H24 N4 1.046179 1_555
H25 N5 1.046179 1_555
H26 N6 1.046179 1_555
H27 N7 1.046179 1_555
H28 N4 1.048217 1_555
H29 N5 1.048217 1_555
H30 N6 1.048217 1_555
H31 N7 1.048217 1_555
H32 N4 1.046682 1_555
H33 N5 1.046682 1_555
H34 N6 1.046682 1_555
H35 N7 1.046682 1_555
H36 N4 1.040269 1_555
H37 N5 1.040269 1_555
H38 N6 1.040269 1_555
H39 N7 1.040269 1_555
O0 S0 1.551686 1_555
O1 S1 1.551686 1_555
O2 S2 1.551686 1_555
O3 S3 1.551686 1_555
O4 S0 1.548272 1_545
O5 S1 1.548272 1_565
O6 S2 1.548272 1_565
O7 S3 1.548272 1_545
O8 S0 1.554660 1_555
O9 S1 1.554660 1_555
O10 S2 1.554660 1_555
O11 S3 1.554660 1_555
