# generated using pymatgen
data_Li2Cr(Si2O5)3
_symmetry_space_group_name_H-M   'P 1'
_cell_length_a   11.04215607
_cell_length_b   11.04215607
_cell_length_c   10.04982900
_cell_angle_alpha   90.00000000
_cell_angle_beta   90.00000000
_cell_angle_gamma   100.10972911
_symmetry_Int_Tables_number   1
_chemical_formula_structural   Li2Cr(Si2O5)3
_chemical_formula_sum   'Li8 Cr4 Si24 O60'
_cell_volume   1206.34190745
_cell_formula_units_Z   4
loop_
 _symmetry_equiv_pos_site_id
 _symmetry_equiv_pos_as_xyz
  1  'x, y, z'
loop_
 _atom_site_type_symbol
 _atom_site_label
 _atom_site_symmetry_multiplicity
 _atom_site_fract_x
 _atom_site_fract_y
 _atom_site_fract_z
 _atom_site_occupancy
  Li  Li0  1  0.01323400  0.48676600  0.75000000  1
  Li  Li1  1  0.24136200  0.24136200  0.00000000  1
  Li  Li2  1  0.25863800  0.25863800  0.50000000  1
  Li  Li3  1  0.51323400  0.98676600  0.75000000  1
  Li  Li4  1  0.48676600  0.01323400  0.25000000  1
  Li  Li5  1  0.74136200  0.74136200  0.50000000  1
  Li  Li6  1  0.75863800  0.75863800  0.00000000  1
  Li  Li7  1  0.98676600  0.51323400  0.25000000  1
  Cr  Cr0  1  0.16088000  0.33912000  0.25000000  1
  Cr  Cr1  1  0.33912000  0.16088000  0.75000000  1
  Cr  Cr2  1  0.66088000  0.83912000  0.25000000  1
  Cr  Cr3  1  0.83912000  0.66088000  0.75000000  1
  Si  Si0  1  0.02076500  0.75941700  0.48987500  1
  Si  Si1  1  0.07523200  0.70540600  0.95464100  1
  Si  Si2  1  0.04376900  0.18327400  0.80173200  1
  Si  Si3  1  0.24058300  0.97923500  0.48987500  1
  Si  Si4  1  0.20540600  0.57523200  0.45464100  1
  Si  Si5  1  0.29459400  0.92476800  0.95464100  1
  Si  Si6  1  0.25941700  0.52076500  0.98987500  1
  Si  Si7  1  0.18327400  0.04376900  0.19826800  1
  Si  Si8  1  0.31672600  0.45623100  0.69826800  1
  Si  Si9  1  0.42476800  0.79459400  0.45464100  1
  Si  Si10  1  0.47923500  0.74058300  0.98987500  1
  Si  Si11  1  0.45623100  0.31672600  0.30173200  1
  Si  Si12  1  0.54376900  0.68327400  0.69826800  1
  Si  Si13  1  0.52076500  0.25941700  0.01012500  1
  Si  Si14  1  0.57523200  0.20540600  0.54535900  1
  Si  Si15  1  0.68327400  0.54376900  0.30173200  1
  Si  Si16  1  0.81672600  0.95623100  0.80173200  1
  Si  Si17  1  0.74058300  0.47923500  0.01012500  1
  Si  Si18  1  0.70540600  0.07523200  0.04535900  1
  Si  Si19  1  0.79459400  0.42476800  0.54535900  1
  Si  Si20  1  0.75941700  0.02076500  0.51012500  1
  Si  Si21  1  0.95623100  0.81672600  0.19826800  1
  Si  Si22  1  0.92476800  0.29459400  0.04535900  1
  Si  Si23  1  0.97923500  0.24058300  0.51012500  1
  O  O0  1  0.05806000  0.94194000  0.19855600  1
  O  O1  1  0.00019400  0.64743800  0.82466500  1
  O  O2  1  0.10316300  0.89683700  0.50340500  1
  O  O3  1  0.01545200  0.27507600  0.92161500  1
  O  O4  1  0.03078900  0.26139200  0.66464300  1
  O  O5  1  0.10596900  0.65514800  0.51475900  1
  O  O6  1  0.16564100  0.83435900  0.91837300  1
  O  O7  1  0.15514800  0.60596900  0.01475900  1
  O  O8  1  0.09575600  0.25666700  0.41109700  1
  O  O9  1  0.14743800  0.50019400  0.32466500  1
  O  O10  1  0.15733300  0.18037000  0.16831900  1
  O  O11  1  0.22492400  0.48454800  0.57838500  1
  O  O12  1  0.18037000  0.15733300  0.83168100  1
  O  O13  1  0.23860800  0.46921100  0.83535700  1
  O  O14  1  0.35256200  0.99980600  0.82466500  1
  O  O15  1  0.24333300  0.40424400  0.08890300  1
  O  O16  1  0.34485200  0.89403100  0.51475900  1
  O  O17  1  0.33435900  0.66564100  0.41837300  1
  O  O18  1  0.39403100  0.84485200  0.01475900  1
  O  O19  1  0.25666700  0.09575600  0.58890300  1
  O  O20  1  0.26139200  0.03078900  0.33535700  1
  O  O21  1  0.31963000  0.34266700  0.33168100  1
  O  O22  1  0.27507600  0.01545200  0.07838500  1
  O  O23  1  0.39683700  0.60316300  0.00340500  1
  O  O24  1  0.34266700  0.31963000  0.66831900  1
  O  O25  1  0.49980600  0.85256200  0.32466500  1
  O  O26  1  0.44194000  0.55806000  0.69855600  1
  O  O27  1  0.40424400  0.24333300  0.91109700  1
  O  O28  1  0.51545200  0.77507600  0.57838500  1
  O  O29  1  0.53078900  0.76139200  0.83535700  1
  O  O30  1  0.46921100  0.23860800  0.16464300  1
  O  O31  1  0.48454800  0.22492400  0.42161500  1
  O  O32  1  0.59575600  0.75666700  0.08890300  1
  O  O33  1  0.55806000  0.44194000  0.30144400  1
  O  O34  1  0.50019400  0.14743800  0.67533500  1
  O  O35  1  0.65733300  0.68037000  0.33168100  1
  O  O36  1  0.60316300  0.39683700  0.99659500  1
  O  O37  1  0.72492400  0.98454800  0.92161500  1
  O  O38  1  0.68037000  0.65733300  0.66831900  1
  O  O39  1  0.73860800  0.96921100  0.66464300  1
  O  O40  1  0.74333300  0.90424400  0.41109700  1
  O  O41  1  0.60596900  0.15514800  0.98524100  1
  O  O42  1  0.66564100  0.33435900  0.58162700  1
  O  O43  1  0.65514800  0.10596900  0.48524100  1
  O  O44  1  0.75666700  0.59575600  0.91109700  1
  O  O45  1  0.64743800  0.00019400  0.17533500  1
  O  O46  1  0.76139200  0.53078900  0.16464300  1
  O  O47  1  0.81963000  0.84266700  0.16831900  1
  O  O48  1  0.77507600  0.51545200  0.42161500  1
  O  O49  1  0.84266700  0.81963000  0.83168100  1
  O  O50  1  0.85256200  0.49980600  0.67533500  1
  O  O51  1  0.90424400  0.74333300  0.58890300  1
  O  O52  1  0.84485200  0.39403100  0.98524100  1
  O  O53  1  0.83435900  0.16564100  0.08162700  1
  O  O54  1  0.89403100  0.34485200  0.48524100  1
  O  O55  1  0.96921100  0.73860800  0.33535700  1
  O  O56  1  0.98454800  0.72492400  0.07838500  1
  O  O57  1  0.89683700  0.10316300  0.49659500  1
  O  O58  1  0.99980600  0.35256200  0.17533500  1
  O  O59  1  0.94194000  0.05806000  0.80144400  1
loop_
_geom_bond_atom_site_label_1
_geom_bond_atom_site_label_2
_geom_bond_distance
_geom_bond_site_symmetry_2
Li0 O50 1.954773 1_455
Li0 O1 1.954773 1_555
Li1 O10 1.989110 1_555
Li1 O12 1.989110 1_554
Li1 O15 2.004957 1_555
Li1 O27 2.004957 1_554
Li2 O24 1.989110 1_555
Li2 O21 1.989110 1_555
Li2 O19 2.004957 1_555
Li2 O8 2.004957 1_555
Li3 O34 1.954773 1_565
Li3 O14 1.954773 1_555
Li4 O25 1.954773 1_545
Li4 O45 1.954773 1_555
Li5 O38 1.989110 1_555
Li5 O35 1.989110 1_555
Li5 O51 2.004957 1_555
Li5 O40 2.004957 1_555
Li6 O49 1.989110 1_554
Li6 O47 1.989110 1_555
Li6 O44 2.004957 1_554
Li6 O32 2.004957 1_555
Li7 O9 1.954773 1_655
Li7 O58 1.954773 1_555
Cr0 O10 1.929788 1_555
Cr0 O21 1.929788 1_555
Cr0 O15 1.933224 1_555
Cr0 O8 1.933224 1_555
Cr0 O9 1.959898 1_555
Cr0 O58 1.959898 1_455
Cr1 O12 1.929788 1_555
Cr1 O24 1.929788 1_555
Cr1 O19 1.933224 1_555
Cr1 O27 1.933224 1_555
Cr1 O14 1.959898 1_545
Cr1 O34 1.959898 1_555
Cr2 O47 1.929788 1_555
Cr2 O35 1.929788 1_555
Cr2 O32 1.933224 1_555
Cr2 O40 1.933224 1_555
Cr2 O25 1.959898 1_555
Cr2 O45 1.959898 1_565
Cr3 O38 1.929788 1_555
Cr3 O49 1.929788 1_555
Cr3 O44 1.933224 1_555
Cr3 O51 1.933224 1_555
Cr3 O1 1.959898 1_655
Cr3 O50 1.959898 1_555
O0 Si21 1.621788 1_455
O0 Si7 1.621788 1_565
O1 Si1 1.617505 1_555
O2 Si3 1.632229 1_555
O2 Si0 1.632229 1_555
O3 Si22 1.634462 1_456
O3 Si2 1.639563 1_555
O4 Si2 1.645030 1_555
O4 Si23 1.656012 1_455
O5 Si0 1.628993 1_555
O5 Si4 1.639968 1_555
O6 Si1 1.630329 1_555
O6 Si5 1.630329 1_555
O7 Si6 1.628993 1_554
O7 Si1 1.639968 1_554
O8 Si23 1.611590 1_455
O9 Si4 1.617505 1_555
O10 Si7 1.612298 1_555
O11 Si4 1.634462 1_555
O11 Si8 1.639563 1_555
O12 Si2 1.612298 1_555
O13 Si8 1.645030 1_555
O13 Si6 1.656012 1_555
O14 Si5 1.617505 1_555
O15 Si6 1.611590 1_554
O16 Si3 1.628993 1_555
O16 Si9 1.639968 1_555
O17 Si9 1.630329 1_555
O17 Si4 1.630329 1_555
O18 Si10 1.628993 1_554
O18 Si5 1.639968 1_554
O19 Si3 1.611590 1_545
O20 Si7 1.645030 1_555
O20 Si3 1.656012 1_545
O21 Si11 1.612298 1_555
O22 Si5 1.634462 1_544
O22 Si7 1.639563 1_555
O23 Si6 1.632229 1_554
O23 Si10 1.632229 1_554
O24 Si8 1.612298 1_555
O25 Si9 1.617505 1_555
O26 Si8 1.621788 1_555
O26 Si12 1.621788 1_555
O27 Si13 1.611590 1_556
O28 Si9 1.634462 1_555
O28 Si12 1.639563 1_555
O29 Si12 1.645030 1_555
O29 Si10 1.656012 1_555
O30 Si11 1.645030 1_555
O30 Si13 1.656012 1_555
O31 Si14 1.634462 1_555
O31 Si11 1.639563 1_555
O32 Si10 1.611590 1_554
O33 Si15 1.621788 1_555
O33 Si11 1.621788 1_555
O34 Si14 1.617505 1_555
O35 Si15 1.612298 1_555
O36 Si13 1.632229 1_556
O36 Si17 1.632229 1_556
O37 Si18 1.634462 1_566
O37 Si16 1.639563 1_555
O38 Si12 1.612298 1_555
O39 Si16 1.645030 1_555
O39 Si20 1.656012 1_565
O40 Si20 1.611590 1_565
O41 Si13 1.628993 1_556
O41 Si18 1.639968 1_556
O42 Si19 1.630329 1_555
O42 Si14 1.630329 1_555
O43 Si20 1.628993 1_555
O43 Si14 1.639968 1_555
O44 Si17 1.611590 1_556
O45 Si18 1.617505 1_555
O46 Si15 1.645030 1_555
O46 Si17 1.656012 1_555
O47 Si21 1.612298 1_555
O48 Si19 1.634462 1_555
O48 Si15 1.639563 1_555
O49 Si16 1.612298 1_555
O50 Si19 1.617505 1_555
O51 Si0 1.611590 1_655
O52 Si17 1.628993 1_556
O52 Si22 1.639968 1_556
O53 Si18 1.630329 1_555
O53 Si22 1.630329 1_555
O54 Si23 1.628993 1_555
O54 Si19 1.639968 1_555
O55 Si21 1.645030 1_555
O55 Si0 1.656012 1_655
O56 Si1 1.634462 1_654
O56 Si21 1.639563 1_555
O57 Si23 1.632229 1_555
O57 Si20 1.632229 1_555
O58 Si22 1.617505 1_555
O59 Si2 1.621788 1_655
O59 Si16 1.621788 1_545
