# generated using pymatgen
data_Li2Cr2Si4O11
_symmetry_space_group_name_H-M   'P 1'
_cell_length_a   7.13355600
_cell_length_b   7.82650653
_cell_length_c   8.81972806
_cell_angle_alpha   98.55050631
_cell_angle_beta   102.04142211
_cell_angle_gamma   108.53502023
_symmetry_Int_Tables_number   1
_chemical_formula_structural   Li2Cr2Si4O11
_chemical_formula_sum   'Li4 Cr4 Si8 O22'
_cell_volume   444.15559189
_cell_formula_units_Z   2
loop_
 _symmetry_equiv_pos_site_id
 _symmetry_equiv_pos_as_xyz
  1  'x, y, z'
loop_
 _atom_site_type_symbol
 _atom_site_label
 _atom_site_symmetry_multiplicity
 _atom_site_fract_x
 _atom_site_fract_y
 _atom_site_fract_z
 _atom_site_occupancy
  Li  Li0  1  0.37886500  0.21878600  0.79876500  1
  Li  Li1  1  0.84891100  0.25504200  0.84659000  1
  Li  Li2  1  0.15108900  0.74495800  0.15341000  1
  Li  Li3  1  0.62113500  0.78121400  0.20123500  1
  Cr  Cr0  1  0.11962900  0.38097000  0.61422500  1
  Cr  Cr1  1  0.63529900  0.38609400  0.59963500  1
  Cr  Cr2  1  0.36470100  0.61390600  0.40036500  1
  Cr  Cr3  1  0.88037100  0.61903000  0.38577500  1
  Si  Si0  1  0.75705300  0.61399400  0.96422800  1
  Si  Si1  1  0.04432100  0.78027000  0.76773400  1
  Si  Si2  1  0.47870500  0.78265300  0.78080200  1
  Si  Si3  1  0.22505300  0.02635000  0.39704400  1
  Si  Si4  1  0.77494700  0.97365000  0.60295600  1
  Si  Si5  1  0.52129500  0.21734700  0.21919800  1
  Si  Si6  1  0.95567900  0.21973000  0.23226600  1
  Si  Si7  1  0.24294700  0.38600600  0.03577200  1
  O  O0  1  0.18700700  0.37762600  0.84928300  1
  O  O1  1  0.60233800  0.73591200  0.93972000  1
  O  O2  1  0.67193700  0.41026000  0.84292900  1
  O  O3  1  0.97782500  0.74278800  0.93202700  1
  O  O4  1  0.29663700  0.85104700  0.82302600  1
  O  O5  1  0.63514300  0.96102100  0.73612400  1
  O  O6  1  0.34256700  0.18623300  0.55992700  1
  O  O7  1  0.39438600  0.60119100  0.63496500  1
  O  O8  1  0.83499000  0.18812500  0.59321800  1
  O  O9  1  0.98783400  0.94957900  0.70534000  1
  O  O10  1  0.92743900  0.59306000  0.62658800  1
  O  O11  1  0.07256100  0.40694000  0.37341200  1
  O  O12  1  0.01216600  0.05042100  0.29466000  1
  O  O13  1  0.16501000  0.81187500  0.40678200  1
  O  O14  1  0.60561400  0.39880900  0.36503500  1
  O  O15  1  0.65743300  0.81376700  0.44007300  1
  O  O16  1  0.36485700  0.03897900  0.26387600  1
  O  O17  1  0.70336300  0.14895300  0.17697400  1
  O  O18  1  0.02217500  0.25721200  0.06797300  1
  O  O19  1  0.32806300  0.58974000  0.15707100  1
  O  O20  1  0.39766200  0.26408800  0.06028000  1
  O  O21  1  0.81299300  0.62237400  0.15071700  1
loop_
_geom_bond_atom_site_label_1
_geom_bond_atom_site_label_2
_geom_bond_distance
_geom_bond_site_symmetry_2
Li0 O6 2.034732 1_555
Li0 O2 2.064713 1_555
Li0 O0 2.188277 1_555
Li0 O20 2.249699 1_556
Li1 O2 2.010052 1_555
Li1 O18 2.076109 1_656
Li1 O8 2.191856 1_555
Li1 O5 2.247755 1_545
Li1 O0 2.288261 1_655
Li2 O19 2.010052 1_555
Li2 O3 2.076109 1_454
Li2 O13 2.191856 1_555
Li2 O16 2.247755 1_565
Li2 O21 2.288261 1_455
Li3 O15 2.034732 1_555
Li3 O19 2.064713 1_555
Li3 O21 2.188277 1_555
Li3 O1 2.249699 1_554
Cr0 O0 2.034213 1_555
Cr0 O8 2.060751 1_455
Cr0 O7 2.110599 1_555
Cr0 O11 2.130548 1_555
Cr0 O10 2.470279 1_455
Cr0 O6 2.592909 1_555
Cr1 O14 2.056153 1_555
Cr1 O2 2.079033 1_555
Cr1 O6 2.094124 1_555
Cr1 O10 2.134480 1_555
Cr1 O8 2.417410 1_555
Cr2 O7 2.056153 1_555
Cr2 O19 2.079033 1_555
Cr2 O15 2.094124 1_555
Cr2 O11 2.134480 1_555
Cr2 O13 2.417410 1_555
Cr3 O21 2.034213 1_555
Cr3 O13 2.060751 1_655
Cr3 O14 2.110599 1_555
Cr3 O10 2.130548 1_555
Cr3 O11 2.470279 1_655
Cr3 O15 2.592909 1_555
O0 Si7 1.595707 1_556
O1 Si2 1.648633 1_555
O1 Si0 1.675296 1_555
O2 Si0 1.631529 1_555
O3 Si1 1.653918 1_655
O3 Si0 1.685075 1_555
O4 Si2 1.642136 1_555
O4 Si1 1.644353 1_555
O5 Si2 1.645009 1_555
O5 Si4 1.686539 1_555
O6 Si3 1.621233 1_555
O7 Si2 1.619910 1_555
O8 Si4 1.615431 1_545
O9 Si1 1.638557 1_655
O9 Si4 1.678535 1_555
O10 Si1 1.624672 1_655
O11 Si6 1.624672 1_455
O12 Si6 1.638557 1_455
O12 Si3 1.678535 1_555
O13 Si3 1.615431 1_565
O14 Si5 1.619910 1_555
O15 Si4 1.621233 1_555
O16 Si5 1.645009 1_555
O16 Si3 1.686539 1_555
O17 Si5 1.642136 1_555
O17 Si6 1.644353 1_555
O18 Si6 1.653918 1_455
O18 Si7 1.685075 1_555
O19 Si7 1.631529 1_555
O20 Si5 1.648633 1_555
O20 Si7 1.675296 1_555
O21 Si0 1.595707 1_554
