# generated using pymatgen
data_CePPd
_symmetry_space_group_name_H-M   'P 1'
_cell_length_a   4.23894707
_cell_length_b   4.23894710
_cell_length_c   7.89671458
_cell_angle_alpha   90.00000000
_cell_angle_beta   90.00000000
_cell_angle_gamma   120.00000809
_symmetry_Int_Tables_number   1
_chemical_formula_structural   CePPd
_chemical_formula_sum   'Ce2 P2 Pd2'
_cell_volume   122.88334592
_cell_formula_units_Z   2
loop_
 _symmetry_equiv_pos_site_id
 _symmetry_equiv_pos_as_xyz
  1  'x, y, z'
loop_
 _atom_site_type_symbol
 _atom_site_label
 _atom_site_symmetry_multiplicity
 _atom_site_fract_x
 _atom_site_fract_y
 _atom_site_fract_z
 _atom_site_occupancy
  Ce  Ce0  1  0.00000000  0.00000000  0.50000000  1
  Ce  Ce1  1  0.00000000  0.00000000  -0.00000000  1
  P  P0  1  0.33333300  0.66666700  0.75004672  1
  P  P1  1  0.66666700  0.33333300  0.24995328  1
  Pd  Pd0  1  0.33333300  0.66666700  0.24994555  1
  Pd  Pd1  1  0.66666700  0.33333300  0.75005445  1
loop_
_geom_bond_atom_site_label_1
_geom_bond_atom_site_label_2
_geom_bond_distance
_geom_bond_site_symmetry_2
Ce0 P1 3.144580 1_455
Ce0 P0 3.144580 1_545
Ce0 P1 3.144583 1_555
Ce0 P0 3.144583 1_445
Ce0 P1 3.144583 1_445
Ce0 P0 3.144583 1_555
Ce0 Pd0 3.144618 1_545
Ce0 Pd1 3.144618 1_455
Ce0 Pd0 3.144621 1_445
Ce0 Pd1 3.144621 1_555
Ce0 Pd0 3.144621 1_555
Ce0 Pd1 3.144621 1_445
Ce1 Pd1 3.144079 1_454
Ce1 Pd0 3.144079 1_545
Ce1 Pd1 3.144081 1_554
Ce1 Pd0 3.144081 1_445
Ce1 Pd1 3.144081 1_444
Ce1 Pd0 3.144081 1_555
Ce1 P0 3.144117 1_544
Ce1 P1 3.144117 1_455
Ce1 P1 3.144119 1_555
Ce1 P0 3.144119 1_444
Ce1 P0 3.144119 1_554
Ce1 P1 3.144119 1_445
P0 Pd1 2.447355 1_455
P0 Pd1 2.447355 1_565
P0 Pd1 2.447362 1_555
P1 Pd0 2.447355 1_655
P1 Pd0 2.447355 1_545
P1 Pd0 2.447362 1_555
