# generated using pymatgen
data_SrCa2I6
_symmetry_space_group_name_H-M   'P 1'
_cell_length_a   13.76119932
_cell_length_b   13.76119932
_cell_length_c   7.22463000
_cell_angle_alpha   90.00000000
_cell_angle_beta   90.00000000
_cell_angle_gamma   119.99999673
_symmetry_Int_Tables_number   1
_chemical_formula_structural   SrCa2I6
_chemical_formula_sum   'Sr3 Ca6 I18'
_cell_volume   1184.83759720
_cell_formula_units_Z   3
loop_
 _symmetry_equiv_pos_site_id
 _symmetry_equiv_pos_as_xyz
  1  'x, y, z'
loop_
 _atom_site_type_symbol
 _atom_site_label
 _atom_site_symmetry_multiplicity
 _atom_site_fract_x
 _atom_site_fract_y
 _atom_site_fract_z
 _atom_site_occupancy
  Sr  Sr0  1  0.33333300  0.66666700  0.49705400  1
  Sr  Sr1  1  0.00000000  0.00000000  0.00000000  1
  Sr  Sr2  1  0.66666700  0.33333300  0.50294600  1
  Ca  Ca0  1  0.00000000  0.65034500  0.00000000  1
  Ca  Ca1  1  0.00000000  0.31613300  0.50000000  1
  Ca  Ca2  1  0.34965500  0.34965500  0.00000000  1
  Ca  Ca3  1  0.31613300  0.00000000  0.50000000  1
  Ca  Ca4  1  0.68386700  0.68386700  0.50000000  1
  Ca  Ca5  1  0.65034500  0.00000000  0.00000000  1
  I  I0  1  0.09869500  0.86934100  0.74907000  1
  I  I1  1  0.21996300  0.78353500  0.24823100  1
  I  I2  1  0.10460300  0.53666900  0.74914100  1
  I  I3  1  0.43206600  0.89539700  0.74914100  1
  I  I4  1  0.21646500  0.43642900  0.24823100  1
  I  I5  1  0.13065900  0.22935400  0.74907000  1
  I  I6  1  0.56357100  0.78003700  0.24823100  1
  I  I7  1  0.22935400  0.13065900  0.25093000  1
  I  I8  1  0.46333100  0.56793400  0.74914100  1
  I  I9  1  0.77064600  0.90130500  0.74907000  1
  I  I10  1  0.43642900  0.21646500  0.75176900  1
  I  I11  1  0.56793400  0.46333100  0.25085900  1
  I  I12  1  0.53666900  0.10460300  0.25085900  1
  I  I13  1  0.78003700  0.56357100  0.75176900  1
  I  I14  1  0.90130500  0.77064600  0.25093000  1
  I  I15  1  0.78353500  0.21996300  0.75176900  1
  I  I16  1  0.89539700  0.43206600  0.25085900  1
  I  I17  1  0.86934100  0.09869500  0.25093000  1
loop_
_geom_bond_atom_site_label_1
_geom_bond_atom_site_label_2
_geom_bond_distance
_geom_bond_site_symmetry_2
Ca0 I2 3.171054 1_554
Ca0 I16 3.171054 1_455
Ca0 I14 3.181222 1_455
Ca0 I0 3.181222 1_554
Ca0 I13 3.192184 1_454
Ca0 I1 3.192185 1_555
Ca1 I15 3.160871 1_455
Ca1 I4 3.160872 1_555
Ca1 I5 3.169245 1_555
Ca1 I17 3.169245 1_455
Ca1 I16 3.186470 1_455
Ca1 I2 3.186470 1_555
Ca2 I8 3.171054 1_554
Ca2 I11 3.171054 1_555
Ca2 I5 3.181222 1_554
Ca2 I7 3.181222 1_555
Ca2 I4 3.192194 1_555
Ca2 I10 3.192194 1_554
Ca3 I1 3.160871 1_545
Ca3 I10 3.160872 1_555
Ca3 I7 3.169245 1_555
Ca3 I0 3.169245 1_545
Ca3 I3 3.186470 1_545
Ca3 I12 3.186470 1_555
Ca4 I13 3.160881 1_555
Ca4 I6 3.160881 1_555
Ca4 I14 3.169245 1_555
Ca4 I9 3.169245 1_555
Ca4 I8 3.186470 1_555
Ca4 I11 3.186470 1_555
Ca5 I12 3.171054 1_555
Ca5 I3 3.171054 1_544
Ca5 I9 3.181222 1_544
Ca5 I17 3.181222 1_555
Ca5 I6 3.192184 1_545
Ca5 I15 3.192185 1_554
I0 Sr1 3.287252 1_566
I1 Sr0 3.280393 1_555
I2 Sr0 3.285379 1_555
I3 Sr0 3.285378 1_555
I4 Sr0 3.280393 1_555
I5 Sr1 3.287252 1_556
I6 Sr0 3.280393 1_555
I7 Sr1 3.287252 1_555
I8 Sr0 3.285388 1_555
I9 Sr1 3.287252 1_666
I10 Sr2 3.280393 1_555
I11 Sr2 3.285388 1_555
I12 Sr2 3.285379 1_555
I13 Sr2 3.280393 1_555
I14 Sr1 3.287252 1_665
I15 Sr2 3.280393 1_555
I16 Sr2 3.285378 1_555
I17 Sr1 3.287252 1_655
