# generated using pymatgen
data_Li2AgF3
_symmetry_space_group_name_H-M   'P 1'
_cell_length_a   2.94185800
_cell_length_b   7.61015000
_cell_length_c   12.81001300
_cell_angle_alpha   90.00000000
_cell_angle_beta   90.00000000
_cell_angle_gamma   90.00000000
_symmetry_Int_Tables_number   1
_chemical_formula_structural   Li2AgF3
_chemical_formula_sum   'Li8 Ag4 F12'
_cell_volume   286.79032328
_cell_formula_units_Z   4
loop_
 _symmetry_equiv_pos_site_id
 _symmetry_equiv_pos_as_xyz
  1  'x, y, z'
loop_
 _atom_site_type_symbol
 _atom_site_label
 _atom_site_symmetry_multiplicity
 _atom_site_fract_x
 _atom_site_fract_y
 _atom_site_fract_z
 _atom_site_occupancy
  Li  Li0  1  0.75000000  0.35180100  0.50892100  1
  Li  Li1  1  0.25000000  0.03000900  0.58381400  1
  Li  Li2  1  0.75000000  0.53000900  0.91618600  1
  Li  Li3  1  0.25000000  0.85180100  0.99107900  1
  Li  Li4  1  0.75000000  0.14819900  0.00892100  1
  Li  Li5  1  0.25000000  0.46999100  0.08381400  1
  Li  Li6  1  0.75000000  0.96999100  0.41618600  1
  Li  Li7  1  0.25000000  0.64819900  0.49107900  1
  Ag  Ag0  1  0.75000000  0.83615500  0.74458900  1
  Ag  Ag1  1  0.25000000  0.33615500  0.75541100  1
  Ag  Ag2  1  0.75000000  0.66384500  0.24458900  1
  Ag  Ag3  1  0.25000000  0.16384500  0.25541100  1
  F  F0  1  0.75000000  0.84392000  0.54587300  1
  F  F1  1  0.25000000  0.45411900  0.58790300  1
  F  F2  1  0.75000000  0.12558000  0.66391600  1
  F  F3  1  0.25000000  0.62558000  0.83608400  1
  F  F4  1  0.75000000  0.95411900  0.91209700  1
  F  F5  1  0.25000000  0.34392000  0.95412700  1
  F  F6  1  0.75000000  0.65608000  0.04587300  1
  F  F7  1  0.25000000  0.04588100  0.08790300  1
  F  F8  1  0.75000000  0.37442000  0.16391600  1
  F  F9  1  0.25000000  0.87442000  0.33608400  1
  F  F10  1  0.75000000  0.54588100  0.41209700  1
  F  F11  1  0.25000000  0.15608000  0.45412700  1
loop_
_geom_bond_atom_site_label_1
_geom_bond_atom_site_label_2
_geom_bond_distance
_geom_bond_site_symmetry_2
Ag0 F4 2.326000 1_555
Ag0 F2 2.432954 1_565
Ag0 F3 2.470904 1_555
Ag0 F3 2.470904 1_655
Ag0 F0 2.546240 1_555
Ag1 F1 2.326000 1_555
Ag1 F3 2.432954 1_555
Ag1 F2 2.470904 1_455
Ag1 F2 2.470904 1_555
Ag1 F5 2.546240 1_555
Ag2 F10 2.326000 1_555
Ag2 F8 2.432954 1_555
Ag2 F9 2.470904 1_555
Ag2 F9 2.470904 1_655
Ag2 F6 2.546240 1_555
Ag3 F7 2.326000 1_555
Ag3 F9 2.432954 1_545
Ag3 F8 2.470904 1_555
Ag3 F8 2.470904 1_455
Ag3 F11 2.546240 1_555
F0 Li6 1.918431 1_555
F0 Li1 2.098899 1_565
F0 Li1 2.098899 1_665
F0 Li7 2.207900 1_555
F0 Li7 2.207900 1_655
F1 Li7 1.928691 1_555
F1 Li0 1.947715 1_555
F1 Li0 1.947715 1_455
F2 Li1 1.935332 1_555
F2 Li1 1.935332 1_655
F3 Li2 1.935332 1_455
F3 Li2 1.935332 1_555
F4 Li4 1.928691 1_566
F4 Li3 1.947715 1_555
F4 Li3 1.947715 1_655
F5 Li5 1.918431 1_556
F5 Li2 2.098899 1_555
F5 Li2 2.098899 1_455
F5 Li4 2.207900 1_456
F5 Li4 2.207900 1_556
F6 Li2 1.918431 1_554
F6 Li5 2.098899 1_655
F6 Li5 2.098899 1_555
F6 Li3 2.207900 1_654
F6 Li3 2.207900 1_554
F7 Li3 1.928691 1_544
F7 Li4 1.947715 1_555
F7 Li4 1.947715 1_455
F8 Li5 1.935332 1_655
F8 Li5 1.935332 1_555
F9 Li6 1.935332 1_555
F9 Li6 1.935332 1_455
F10 Li0 1.928691 1_555
F10 Li7 1.947715 1_555
F10 Li7 1.947715 1_655
F11 Li1 1.918431 1_555
F11 Li6 2.098899 1_445
F11 Li6 2.098899 1_545
F11 Li0 2.207900 1_455
F11 Li0 2.207900 1_555
