# generated using pymatgen
data_SrLa2Cl8
_symmetry_space_group_name_H-M   'P 1'
_cell_length_a   10.22708169
_cell_length_b   10.22708169
_cell_length_c   10.22708169
_cell_angle_alpha   97.78080784
_cell_angle_beta   97.78080784
_cell_angle_gamma   136.82209913
_symmetry_Int_Tables_number   1
_chemical_formula_structural   SrLa2Cl8
_chemical_formula_sum   'Sr2 La4 Cl16'
_cell_volume   680.59973649
_cell_formula_units_Z   2
loop_
 _symmetry_equiv_pos_site_id
 _symmetry_equiv_pos_as_xyz
  1  'x, y, z'
loop_
 _atom_site_type_symbol
 _atom_site_label
 _atom_site_symmetry_multiplicity
 _atom_site_fract_x
 _atom_site_fract_y
 _atom_site_fract_z
 _atom_site_occupancy
  Sr  Sr0  1  0.00000000  0.00000000  0.00000000  1
  Sr  Sr1  1  0.75000000  0.25000000  0.50000000  1
  La  La0  1  0.57839500  0.23604000  0.92113000  1
  La  La1  1  0.76396000  0.68509000  0.34235500  1
  La  La2  1  0.34273500  0.42160500  0.65764500  1
  La  La3  1  0.31491000  0.65726500  0.07887000  1
  Cl  Cl0  1  0.22814700  0.13276300  0.81305400  1
  Cl  Cl1  1  0.66563000  0.46962600  0.74187500  1
  Cl  Cl2  1  0.25345500  0.82380100  0.92071000  1
  Cl  Cl3  1  0.17619900  0.09690800  0.42965400  1
  Cl  Cl4  1  0.55884800  0.04470300  0.69266500  1
  Cl  Cl5  1  0.95529700  0.64796200  0.51414500  1
  Cl  Cl6  1  0.07624500  0.33437000  0.80399500  1
  Cl  Cl7  1  0.58490700  0.77185300  0.90461600  1
  Cl  Cl8  1  0.86723700  0.68029000  0.09538400  1
  Cl  Cl9  1  0.53037400  0.27224900  0.19600500  1
  Cl  Cl10  1  0.13381700  0.44115200  0.48585500  1
  Cl  Cl11  1  0.35203800  0.86618300  0.30733500  1
  Cl  Cl12  1  0.66725500  0.74654500  0.57034600  1
  Cl  Cl13  1  0.90309200  0.33274500  0.07929000  1
  Cl  Cl14  1  0.72775100  0.92375500  0.25812500  1
  Cl  Cl15  1  0.31971000  0.41509300  0.18694600  1
loop_
_geom_bond_atom_site_label_1
_geom_bond_atom_site_label_2
_geom_bond_distance
_geom_bond_site_symmetry_2
Cl0 Sr0 2.869395 1_556
Cl0 La0 2.874376 1_555
Cl0 La2 3.058158 1_555
Cl1 La0 2.895497 1_555
Cl1 La2 2.939070 1_555
Cl2 La3 2.818525 1_556
Cl2 La0 2.894059 1_565
Cl3 La2 2.818532 1_555
Cl3 La1 2.894055 1_445
Cl4 La0 2.719096 1_555
Cl4 Sr1 2.879119 1_555
Cl5 La1 2.719096 1_555
Cl5 Sr1 2.879119 1_555
Cl6 La2 2.895490 1_555
Cl6 La3 2.939078 1_556
Cl7 Sr0 2.869395 1_666
Cl7 La2 2.874376 1_555
Cl7 La3 3.058158 1_556
Cl8 Sr0 2.869404 1_665
Cl8 La1 2.874377 1_555
Cl8 La0 3.058151 1_554
Cl9 La1 2.895495 1_555
Cl9 La0 2.939080 1_554
Cl10 La2 2.719096 1_555
Cl10 Sr1 2.879119 1_455
Cl11 La3 2.719096 1_555
Cl11 Sr1 2.879119 1_565
Cl12 La1 2.818525 1_555
Cl12 La2 2.894059 1_555
Cl13 La0 2.818534 1_554
Cl13 La3 2.894052 1_655
Cl14 La3 2.895497 1_555
Cl14 La1 2.939070 1_555
Cl15 Sr0 2.869395 1_555
Cl15 La3 2.874382 1_555
Cl15 La1 3.058150 1_555
