# generated using pymatgen
data_LiFe5O8
_symmetry_space_group_name_H-M   'P 1'
_cell_length_a   5.81999510
_cell_length_b   5.81999510
_cell_length_c   5.81999510
_cell_angle_alpha   60.00000000
_cell_angle_beta   60.00000000
_cell_angle_gamma   60.00000000
_symmetry_Int_Tables_number   1
_chemical_formula_structural   LiFe5O8
_chemical_formula_sum   'Li1 Fe5 O8'
_cell_volume   139.39681748
_cell_formula_units_Z   1
loop_
 _symmetry_equiv_pos_site_id
 _symmetry_equiv_pos_as_xyz
  1  'x, y, z'
loop_
 _atom_site_type_symbol
 _atom_site_label
 _atom_site_symmetry_multiplicity
 _atom_site_fract_x
 _atom_site_fract_y
 _atom_site_fract_z
 _atom_site_occupancy
  Li  Li0  1  0.75000000  0.75000000  0.75000000  1
  Fe  Fe0  1  0.00000000  0.00000000  0.00000000  1
  Fe  Fe1  1  0.37717400  0.86847900  0.37717400  1
  Fe  Fe2  1  0.37717400  0.37717400  0.86847900  1
  Fe  Fe3  1  0.86847900  0.37717400  0.37717400  1
  Fe  Fe4  1  0.37717400  0.37717400  0.37717400  1
  O  O0  1  0.13503600  0.13503600  0.13503600  1
  O  O1  1  0.59489300  0.13503600  0.13503600  1
  O  O2  1  0.13503600  0.59489300  0.13503600  1
  O  O3  1  0.13503600  0.13503600  0.59489300  1
  O  O4  1  0.61210800  0.16367600  0.61210800  1
  O  O5  1  0.61210800  0.61210800  0.16367600  1
  O  O6  1  0.61210800  0.61210800  0.61210800  1
  O  O7  1  0.16367600  0.61210800  0.61210800  1
loop_
_geom_bond_atom_site_label_1
_geom_bond_atom_site_label_2
_geom_bond_distance
_geom_bond_site_symmetry_2
Li0 O4 1.965791 1_565
Li0 O5 1.965791 1_556
Li0 O7 1.965791 1_655
Li0 O6 1.965791 1_555
Fe0 O2 1.925071 1_545
Fe0 O1 1.925071 1_455
Fe0 O3 1.925071 1_554
Fe0 O0 1.925076 1_555
Fe1 O6 1.937696 1_555
Fe1 O7 1.937700 1_555
Fe1 O5 1.937700 1_555
Fe1 O1 1.998030 1_565
Fe1 O3 1.998030 1_565
Fe1 O0 1.998030 1_565
Fe2 O6 1.937696 1_555
Fe2 O4 1.937700 1_555
Fe2 O7 1.937700 1_555
Fe2 O2 1.998030 1_556
Fe2 O1 1.998030 1_556
Fe2 O0 1.998030 1_556
Fe3 O6 1.937696 1_555
Fe3 O5 1.937700 1_555
Fe3 O4 1.937700 1_555
Fe3 O2 1.998030 1_655
Fe3 O3 1.998030 1_655
Fe3 O0 1.998030 1_655
Fe4 O7 1.937695 1_555
Fe4 O4 1.937695 1_555
Fe4 O5 1.937695 1_555
Fe4 O2 1.998030 1_555
Fe4 O3 1.998030 1_555
Fe4 O1 1.998030 1_555
