# generated using pymatgen
data_LiVO2
_symmetry_space_group_name_H-M   'P 1'
_cell_length_a   4.25427617
_cell_length_b   7.76457906
_cell_length_c   5.26102891
_cell_angle_alpha   86.72019242
_cell_angle_beta   113.81046586
_cell_angle_gamma   74.06577110
_symmetry_Int_Tables_number   1
_chemical_formula_structural   LiVO2
_chemical_formula_sum   'Li4 V4 O8'
_cell_volume   150.07008241
_cell_formula_units_Z   4
loop_
 _symmetry_equiv_pos_site_id
 _symmetry_equiv_pos_as_xyz
  1  'x, y, z'
loop_
 _atom_site_type_symbol
 _atom_site_label
 _atom_site_symmetry_multiplicity
 _atom_site_fract_x
 _atom_site_fract_y
 _atom_site_fract_z
 _atom_site_occupancy
  Li  Li0  1  0.93497900  0.43229300  0.79157000  1
  Li  Li1  1  0.43451500  0.93241100  0.29129700  1
  Li  Li2  1  0.57410700  0.56893000  0.20792400  1
  Li  Li3  1  0.07457200  0.06881200  0.70819200  1
  V  V0  1  0.19512600  0.69205300  0.57170300  1
  V  V1  1  0.31438500  0.30950600  0.42870800  1
  V  V2  1  0.69396300  0.19207400  0.07173400  1
  V  V3  1  0.81552100  0.80949000  0.92869200  1
  O  O0  1  0.70008500  0.69735200  0.58768600  1
  O  O1  1  0.19925200  0.19735400  0.08766300  1
  O  O2  1  0.80950000  0.30423500  0.41284100  1
  O  O3  1  0.31035400  0.80423600  0.91287700  1
  O  O4  1  0.43130100  0.42901500  0.78471300  1
  O  O5  1  0.93177700  0.92899500  0.28457700  1
  O  O6  1  0.57782500  0.07263100  0.71599600  1
  O  O7  1  0.07830600  0.57260800  0.21585300  1
loop_
_geom_bond_atom_site_label_1
_geom_bond_atom_site_label_2
_geom_bond_distance
_geom_bond_site_symmetry_2
Li0 O0 2.034089 1_555
Li0 O1 2.037888 1_656
Li0 O4 2.119538 1_655
Li0 O4 2.135677 1_555
Li0 O2 2.214278 1_555
Li0 O7 2.466862 1_656
Li1 O1 2.032972 1_565
Li1 O0 2.039295 1_555
Li1 O5 2.122955 1_555
Li1 O5 2.132267 1_455
Li1 O3 2.213446 1_554
Li1 O6 2.468265 1_565
Li2 O2 2.033179 1_555
Li2 O3 2.037199 1_554
Li2 O7 2.118891 1_555
Li2 O7 2.136612 1_655
Li2 O0 2.220383 1_555
Li2 O4 2.460429 1_554
Li3 O3 2.032067 1_545
Li3 O2 2.038606 1_455
Li3 O6 2.122354 1_455
Li3 O6 2.133160 1_555
Li3 O1 2.219641 1_556
Li3 O5 2.461767 1_445
O0 V3 1.979907 1_555
O0 V0 2.127617 1_555
O0 V0 2.130722 1_655
O1 V1 1.980135 1_555
O1 V2 2.129079 1_455
O1 V2 2.129232 1_555
O2 V2 1.980450 1_555
O2 V1 2.127461 1_655
O2 V1 2.130823 1_555
O3 V0 1.980835 1_555
O3 V3 2.128721 1_555
O3 V3 2.129537 1_455
O4 V2 2.025943 1_556
O4 V0 2.034436 1_555
O4 V1 2.077623 1_555
O5 V0 2.026214 1_655
O5 V2 2.034429 1_565
O5 V3 2.077088 1_554
O6 V1 2.026245 1_555
O6 V3 2.034606 1_545
O6 V2 2.076176 1_556
O7 V3 2.025964 1_454
O7 V1 2.034614 1_555
O7 V0 2.076666 1_555
