# generated using pymatgen
data_NbCu(PO4)2
_symmetry_space_group_name_H-M   'P 1'
_cell_length_a   6.20711100
_cell_length_b   5.12146100
_cell_length_c   9.95246048
_cell_angle_alpha   88.81584428
_cell_angle_beta   90.00000000
_cell_angle_gamma   90.00000000
_symmetry_Int_Tables_number   1
_chemical_formula_structural   NbCu(PO4)2
_chemical_formula_sum   'Nb2 Cu2 P4 O16'
_cell_volume   316.31594472
_cell_formula_units_Z   2
loop_
 _symmetry_equiv_pos_site_id
 _symmetry_equiv_pos_as_xyz
  1  'x, y, z'
loop_
 _atom_site_type_symbol
 _atom_site_label
 _atom_site_symmetry_multiplicity
 _atom_site_fract_x
 _atom_site_fract_y
 _atom_site_fract_z
 _atom_site_occupancy
  Nb  Nb0  1  0.75000000  0.47046200  0.77600900  1
  Nb  Nb1  1  0.25000000  0.52953800  0.22399100  1
  Cu  Cu0  1  0.25000000  0.92968700  0.72259400  1
  Cu  Cu1  1  0.75000000  0.07031300  0.27740600  1
  P  P0  1  0.25000000  0.44440200  0.90009600  1
  P  P1  1  0.75000000  0.89620400  0.59731600  1
  P  P2  1  0.25000000  0.10379600  0.40268400  1
  P  P3  1  0.75000000  0.55559800  0.09990400  1
  O  O0  1  0.75000000  0.65608800  0.94931900  1
  O  O1  1  0.25000000  0.73866100  0.89541500  1
  O  O2  1  0.04517400  0.32179500  0.83273700  1
  O  O3  1  0.45482600  0.32179500  0.83273700  1
  O  O4  1  0.93885200  0.74071000  0.67240100  1
  O  O5  1  0.56114800  0.74071000  0.67240100  1
  O  O6  1  0.75000000  0.18494200  0.64298500  1
  O  O7  1  0.25000000  0.12942300  0.55113200  1
  O  O8  1  0.75000000  0.87057700  0.44886800  1
  O  O9  1  0.25000000  0.81505800  0.35701500  1
  O  O10  1  0.06114800  0.25929000  0.32759900  1
  O  O11  1  0.43885200  0.25929000  0.32759900  1
  O  O12  1  0.54517400  0.67820500  0.16726300  1
  O  O13  1  0.95482600  0.67820500  0.16726300  1
  O  O14  1  0.75000000  0.26133900  0.10458500  1
  O  O15  1  0.25000000  0.34391200  0.05068100  1
loop_
_geom_bond_atom_site_label_1
_geom_bond_atom_site_label_2
_geom_bond_distance
_geom_bond_site_symmetry_2
Nb0 O0 1.986632 1_555
Nb0 O6 1.992745 1_555
Nb0 O2 2.058538 1_655
Nb0 O3 2.058538 1_555
Nb0 O4 2.072206 1_555
Nb0 O5 2.072206 1_555
Nb1 O15 1.986632 1_555
Nb1 O9 1.992745 1_555
Nb1 O12 2.058538 1_555
Nb1 O13 2.058538 1_455
Nb1 O11 2.072206 1_555
Nb1 O10 2.072206 1_555
Cu0 O1 1.961113 1_555
Cu0 O7 1.971368 1_565
Cu0 O5 2.221773 1_555
Cu0 O4 2.221773 1_455
Cu0 O3 2.634722 1_565
Cu0 O2 2.634722 1_565
Cu1 O14 1.961113 1_555
Cu1 O8 1.971368 1_545
Cu1 O10 2.221773 1_655
Cu1 O11 2.221773 1_555
Cu1 O13 2.634722 1_545
Cu1 O12 2.634722 1_545
O0 P3 1.574505 1_556
O1 P0 1.506793 1_555
O2 P0 1.574012 1_555
O3 P0 1.574012 1_555
O4 P1 1.594405 1_555
O5 P1 1.594405 1_555
O6 P1 1.555988 1_545
O7 P2 1.485940 1_555
O8 P1 1.485940 1_555
O9 P2 1.555988 1_565
O10 P2 1.594405 1_555
O11 P2 1.594405 1_555
O12 P3 1.574012 1_555
O13 P3 1.574012 1_555
O14 P3 1.506793 1_555
O15 P0 1.574505 1_554
