# generated using pymatgen
data_LiMnAlO4
_symmetry_space_group_name_H-M   'P 1'
_cell_length_a   5.74843800
_cell_length_b   5.74844200
_cell_length_c   8.05224200
_cell_angle_alpha   90.00027474
_cell_angle_beta   89.99971815
_cell_angle_gamma   90.00000000
_symmetry_Int_Tables_number   1
_chemical_formula_structural   LiMnAlO4
_chemical_formula_sum   'Li4 Mn4 Al4 O16'
_cell_volume   266.08281350
_cell_formula_units_Z   4
loop_
 _symmetry_equiv_pos_site_id
 _symmetry_equiv_pos_as_xyz
  1  'x, y, z'
loop_
 _atom_site_type_symbol
 _atom_site_label
 _atom_site_symmetry_multiplicity
 _atom_site_fract_x
 _atom_site_fract_y
 _atom_site_fract_z
 _atom_site_occupancy
  Li  Li0  1  0.00000000  0.22751400  0.99999900  1
  Li  Li1  1  0.00000000  0.77248800  0.50000000  1
  Li  Li2  1  0.22751400  0.00000000  0.25000000  1
  Li  Li3  1  0.77248800  0.00000000  0.74999900  1
  Mn  Mn0  1  0.23378800  0.50000200  0.24999800  1
  Mn  Mn1  1  0.49999800  0.23378800  0.00000300  1
  Mn  Mn2  1  0.50000000  0.76621000  0.50000000  1
  Mn  Mn3  1  0.76620800  0.49999900  0.75000300  1
  Al  Al0  1  0.25620400  0.25620500  0.62500000  1
  Al  Al1  1  0.25620700  0.74379300  0.87499700  1
  Al  Al2  1  0.74379400  0.25620700  0.37500200  1
  Al  Al3  1  0.74379200  0.74379100  0.12500000  1
  O  O0  1  0.00733500  0.26763000  0.25997300  1
  O  O1  1  0.00733500  0.73237100  0.24002700  1
  O  O2  1  0.26763000  0.00733500  0.99002700  1
  O  O3  1  0.26763100  0.99266600  0.50997400  1
  O  O4  1  0.26392100  0.48848800  0.01046500  1
  O  O5  1  0.26392200  0.51151200  0.48953500  1
  O  O6  1  0.48848800  0.26392100  0.23953500  1
  O  O7  1  0.48848900  0.73607900  0.26046500  1
  O  O8  1  0.51151200  0.26392200  0.76046500  1
  O  O9  1  0.51151200  0.73607700  0.73953500  1
  O  O10  1  0.73607800  0.51151100  0.51046500  1
  O  O11  1  0.73607900  0.48848900  0.98953500  1
  O  O12  1  0.73237000  0.99266700  0.49002600  1
  O  O13  1  0.73237000  0.00733600  0.00997300  1
  O  O14  1  0.99266700  0.26763000  0.74002600  1
  O  O15  1  0.99266700  0.73237000  0.75997400  1
loop_
_geom_bond_atom_site_label_1
_geom_bond_atom_site_label_2
_geom_bond_distance
_geom_bond_site_symmetry_2
Li0 O13 1.993800 1_456
Li0 O2 1.993803 1_555
Li0 O14 2.106452 1_455
Li0 O0 2.106458 1_556
Li0 O4 2.135270 1_556
Li0 O11 2.135274 1_455
Li1 O12 1.993804 1_455
Li1 O3 1.993805 1_555
Li1 O1 2.106450 1_555
Li1 O15 2.106461 1_455
Li1 O5 2.135281 1_555
Li1 O10 2.135286 1_455
Li2 O1 1.993799 1_545
Li2 O0 1.993803 1_555
Li2 O2 2.106450 1_554
Li2 O3 2.106461 1_545
Li2 O6 2.135270 1_555
Li2 O7 2.135274 1_545
Li3 O14 1.993804 1_555
Li3 O15 1.993805 1_545
Li3 O12 2.106453 1_545
Li3 O13 2.106459 1_556
Li3 O8 2.135282 1_555
Li3 O9 2.135286 1_545
Mn0 O1 1.866885 1_555
Mn0 O0 1.866898 1_555
Mn0 O4 1.937670 1_555
Mn0 O5 1.937703 1_555
Mn0 O7 1.998109 1_555
Mn0 O6 1.998119 1_555
Mn1 O2 1.866882 1_554
Mn1 O13 1.866893 1_555
Mn1 O6 1.937661 1_555
Mn1 O8 1.937712 1_554
Mn1 O4 1.998103 1_555
Mn1 O11 1.998125 1_554
Mn2 O3 1.866897 1_555
Mn2 O12 1.866905 1_555
Mn2 O7 1.937685 1_555
Mn2 O9 1.937688 1_555
Mn2 O5 1.998100 1_555
Mn2 O10 1.998105 1_555
Mn3 O14 1.866910 1_555
Mn3 O15 1.866916 1_555
Mn3 O11 1.937660 1_555
Mn3 O10 1.937710 1_555
Mn3 O8 1.998087 1_555
Mn3 O9 1.998093 1_555
Al0 O14 1.776845 1_455
Al0 O3 1.776856 1_545
Al0 O5 1.829132 1_555
Al0 O8 1.829135 1_555
Al1 O15 1.776855 1_455
Al1 O2 1.776887 1_565
Al1 O9 1.829098 1_555
Al1 O4 1.829136 1_556
Al2 O12 1.776860 1_545
Al2 O0 1.776877 1_655
Al2 O10 1.829099 1_555
Al2 O6 1.829136 1_555
Al3 O1 1.776886 1_655
Al3 O13 1.776897 1_565
Al3 O11 1.829100 1_554
Al3 O7 1.829103 1_555
