# generated using pymatgen
data_Li2Mn3O4F3
_symmetry_space_group_name_H-M   'P 1'
_cell_length_a   6.39263300
_cell_length_b   6.51801808
_cell_length_c   8.01108448
_cell_angle_alpha   104.37764660
_cell_angle_beta   112.74383317
_cell_angle_gamma   102.15012826
_symmetry_Int_Tables_number   1
_chemical_formula_structural   Li2Mn3O4F3
_chemical_formula_sum   'Li4 Mn6 O8 F6'
_cell_volume   280.10636567
_cell_formula_units_Z   2
loop_
 _symmetry_equiv_pos_site_id
 _symmetry_equiv_pos_as_xyz
  1  'x, y, z'
loop_
 _atom_site_type_symbol
 _atom_site_label
 _atom_site_symmetry_multiplicity
 _atom_site_fract_x
 _atom_site_fract_y
 _atom_site_fract_z
 _atom_site_occupancy
  Li  Li0  1  0.23899400  0.84278600  0.53818900  1
  Li  Li1  1  0.72827200  0.26081900  0.92775900  1
  Li  Li2  1  0.22792800  0.72807100  0.08085700  1
  Li  Li3  1  0.82536800  0.17710000  0.47439000  1
  Mn  Mn0  1  0.58600100  0.56697600  0.35159600  1
  Mn  Mn1  1  0.84095700  0.84267900  0.78000800  1
  Mn  Mn2  1  0.70973900  0.73431700  0.07138500  1
  Mn  Mn3  1  0.29487400  0.27401400  0.93558000  1
  Mn  Mn4  1  0.13122600  0.14807900  0.20989900  1
  Mn  Mn5  1  0.41918500  0.41361400  0.63991600  1
  O  O0  1  0.51430300  0.68571000  0.56727800  1
  O  O1  1  0.64865900  0.46455700  0.13259700  1
  O  O2  1  0.16760500  0.98832500  0.98349800  1
  O  O3  1  0.25107000  0.42931700  0.15512400  1
  O  O4  1  0.37637300  0.16931000  0.73586700  1
  O  O5  1  0.75654500  0.57338600  0.86008400  1
  O  O6  1  0.77650600  0.00058300  0.01690300  1
  O  O7  1  0.10494500  0.29113600  0.42887200  1
  F  F0  1  0.92949800  0.70675800  0.54808000  1
  F  F1  1  0.11354300  0.84802500  0.27191500  1
  F  F2  1  0.62128000  0.87285400  0.27148700  1
  F  F3  1  0.89546600  0.14339000  0.73105600  1
  F  F4  1  0.30596900  0.57766400  0.87035100  1
  F  F5  1  0.53569500  0.26053000  0.41731000  1
loop_
_geom_bond_atom_site_label_1
_geom_bond_atom_site_label_2
_geom_bond_distance
_geom_bond_site_symmetry_2
Li0 O4 2.067061 1_565
Li0 O0 2.181698 1_555
Li1 O4 2.021226 1_555
Li1 O6 2.033156 1_556
Li1 O1 2.136199 1_556
Li1 O5 2.224085 1_555
Li2 O2 2.081938 1_554
Li2 O3 2.190057 1_555
Li3 O7 1.989717 1_655
Mn0 O3 1.936721 1_555
Mn0 O1 1.938649 1_555
Mn0 O0 1.972826 1_555
Mn1 O2 1.919356 1_655
Mn1 O0 1.947989 1_555
Mn1 O5 2.052261 1_555
Mn1 O6 2.154927 1_566
Mn2 O6 1.895556 1_565
Mn2 O5 1.922803 1_554
Mn2 O1 1.942112 1_555
Mn3 O4 1.883842 1_555
Mn3 O3 1.952534 1_556
Mn3 O1 2.057316 1_556
Mn3 O2 2.058044 1_545
Mn4 O7 1.859149 1_555
Mn4 O2 1.979413 1_544
Mn4 O6 2.022363 1_455
Mn4 O3 2.051351 1_555
Mn5 O7 1.886704 1_555
Mn5 O4 1.946410 1_555
Mn5 O5 2.011877 1_555
Mn5 O0 2.045952 1_555
F0 Mn0 1.975490 1_555
F0 Li0 2.030891 1_655
F0 Mn1 2.182695 1_555
F1 Li0 1.979788 1_555
F1 Li2 2.000103 1_555
F1 Mn4 2.125440 1_565
F1 Mn2 2.278243 1_455
F2 Mn2 1.975316 1_555
F2 Li3 1.986758 1_565
F2 Li2 2.204964 1_555
F2 Mn0 2.235105 1_555
F3 Li3 2.007561 1_555
F3 Mn1 2.077704 1_545
F3 Mn3 2.255222 1_655
F3 Li1 2.293256 1_555
F4 Li2 2.022184 1_556
F4 Mn3 2.162985 1_555
F4 Mn2 2.271191 1_556
F4 Mn5 2.335286 1_555
F5 Li3 1.956150 1_555
F5 Mn0 2.180130 1_555
F5 Mn5 2.277437 1_555
F5 Mn4 2.293252 1_555
