# generated using pymatgen
data_SiBi2O5
_symmetry_space_group_name_H-M   'P 1'
_cell_length_a   3.90032300
_cell_length_b   10.87613700
_cell_length_c   11.11020800
_cell_angle_alpha   90.00000000
_cell_angle_beta   90.00000000
_cell_angle_gamma   90.00000000
_symmetry_Int_Tables_number   1
_chemical_formula_structural   SiBi2O5
_chemical_formula_sum   'Si4 Bi8 O20'
_cell_volume   471.29999287
_cell_formula_units_Z   4
loop_
 _symmetry_equiv_pos_site_id
 _symmetry_equiv_pos_as_xyz
  1  'x, y, z'
loop_
 _atom_site_type_symbol
 _atom_site_label
 _atom_site_symmetry_multiplicity
 _atom_site_fract_x
 _atom_site_fract_y
 _atom_site_fract_z
 _atom_site_occupancy
  Si  Si0  1  0.25000000  0.20724400  0.14263200  1
  Si  Si1  1  0.75000000  0.29275600  0.64263200  1
  Si  Si2  1  0.25000000  0.70724400  0.35736800  1
  Si  Si3  1  0.75000000  0.79275600  0.85736800  1
  Bi  Bi0  1  0.25000000  0.07171400  0.78375700  1
  Bi  Bi1  1  0.25000000  0.14655000  0.45754300  1
  Bi  Bi2  1  0.75000000  0.35345000  0.95754300  1
  Bi  Bi3  1  0.75000000  0.42828600  0.28375700  1
  Bi  Bi4  1  0.25000000  0.57171400  0.71624300  1
  Bi  Bi5  1  0.25000000  0.64655000  0.04245700  1
  Bi  Bi6  1  0.75000000  0.85345000  0.54245700  1
  Bi  Bi7  1  0.75000000  0.92828600  0.21624300  1
  O  O0  1  0.25000000  0.00099600  0.60135400  1
  O  O1  1  0.25000000  0.06273800  0.18346400  1
  O  O2  1  0.75000000  0.23394100  0.13424900  1
  O  O3  1  0.75000000  0.19060700  0.75602700  1
  O  O4  1  0.25000000  0.24299400  0.99512100  1
  O  O5  1  0.75000000  0.25700600  0.49512100  1
  O  O6  1  0.25000000  0.30939300  0.25602700  1
  O  O7  1  0.25000000  0.26605900  0.63424900  1
  O  O8  1  0.75000000  0.43726200  0.68346400  1
  O  O9  1  0.75000000  0.49900400  0.10135400  1
  O  O10  1  0.25000000  0.50099600  0.89864600  1
  O  O11  1  0.25000000  0.56273800  0.31653600  1
  O  O12  1  0.75000000  0.73394100  0.36575100  1
  O  O13  1  0.75000000  0.69060700  0.74397300  1
  O  O14  1  0.25000000  0.74299400  0.50487900  1
  O  O15  1  0.75000000  0.75700600  0.00487900  1
  O  O16  1  0.25000000  0.80939300  0.24397300  1
  O  O17  1  0.25000000  0.76605900  0.86575100  1
  O  O18  1  0.75000000  0.93726200  0.81653600  1
  O  O19  1  0.75000000  0.99900400  0.39864600  1
loop_
_geom_bond_atom_site_label_1
_geom_bond_atom_site_label_2
_geom_bond_distance
_geom_bond_site_symmetry_2
Bi0 O0 2.167584 1_555
Bi0 O3 2.360116 1_455
Bi0 O3 2.360116 1_555
Bi0 O18 2.464576 1_445
Bi0 O18 2.464576 1_545
Bi0 O7 2.688301 1_555
Bi1 O0 2.249214 1_555
Bi1 O5 2.328227 1_455
Bi1 O5 2.328227 1_555
Bi1 O7 2.354524 1_555
Bi1 O19 2.608922 1_545
Bi1 O19 2.608922 1_445
Bi1 O6 2.854717 1_555
Bi2 O9 2.249214 1_556
Bi2 O4 2.328227 1_555
Bi2 O4 2.328227 1_655
Bi2 O2 2.354524 1_556
Bi2 O10 2.608922 1_555
Bi2 O10 2.608922 1_655
Bi2 O3 2.854717 1_555
Bi3 O9 2.167584 1_555
Bi3 O6 2.360116 1_655
Bi3 O6 2.360116 1_555
Bi3 O11 2.464576 1_555
Bi3 O11 2.464576 1_655
Bi3 O2 2.688301 1_555
Bi4 O10 2.167584 1_555
Bi4 O13 2.360116 1_555
Bi4 O13 2.360116 1_455
Bi4 O8 2.464576 1_455
Bi4 O8 2.464576 1_555
Bi4 O17 2.688301 1_555
Bi5 O10 2.249214 1_554
Bi5 O15 2.328227 1_555
Bi5 O15 2.328227 1_455
Bi5 O17 2.354524 1_554
Bi5 O9 2.608922 1_455
Bi5 O9 2.608922 1_555
Bi5 O16 2.854717 1_555
Bi6 O19 2.249214 1_555
Bi6 O14 2.328227 1_555
Bi6 O14 2.328227 1_655
Bi6 O12 2.354524 1_555
Bi6 O0 2.608922 1_565
Bi6 O0 2.608922 1_665
Bi6 O13 2.854717 1_555
Bi7 O19 2.167584 1_555
Bi7 O16 2.360116 1_655
Bi7 O16 2.360116 1_555
Bi7 O1 2.464576 1_565
Bi7 O1 2.464576 1_665
Bi7 O12 2.688301 1_555
O1 Si0 1.635829 1_555
O2 Si0 1.973857 1_555
O2 Si0 1.973857 1_655
O3 Si1 1.679730 1_555
O4 Si0 1.684370 1_556
O5 Si1 1.684370 1_555
O6 Si0 1.679730 1_555
O7 Si1 1.973857 1_455
O7 Si1 1.973857 1_555
O8 Si1 1.635829 1_555
O11 Si2 1.635829 1_555
O12 Si2 1.973857 1_555
O12 Si2 1.973857 1_655
O13 Si3 1.679730 1_555
O14 Si2 1.684370 1_555
O15 Si3 1.684370 1_554
O16 Si2 1.679730 1_555
O17 Si3 1.973857 1_455
O17 Si3 1.973857 1_555
O18 Si3 1.635829 1_555
