# generated using pymatgen
data_Li2Mn2P2O9
_symmetry_space_group_name_H-M   'P 1'
_cell_length_a   5.63647600
_cell_length_b   8.43213200
_cell_length_c   15.34502400
_cell_angle_alpha   90.00000000
_cell_angle_beta   90.00000000
_cell_angle_gamma   90.00000000
_symmetry_Int_Tables_number   1
_chemical_formula_structural   Li2Mn2P2O9
_chemical_formula_sum   'Li8 Mn8 P8 O36'
_cell_volume   729.31077619
_cell_formula_units_Z   4
loop_
 _symmetry_equiv_pos_site_id
 _symmetry_equiv_pos_as_xyz
  1  'x, y, z'
loop_
 _atom_site_type_symbol
 _atom_site_label
 _atom_site_symmetry_multiplicity
 _atom_site_fract_x
 _atom_site_fract_y
 _atom_site_fract_z
 _atom_site_occupancy
  Li  Li0  1  0.25000000  0.03798200  0.75988400  1
  Li  Li1  1  0.25000000  0.18906800  0.13496900  1
  Li  Li2  1  0.75000000  0.31093200  0.63496900  1
  Li  Li3  1  0.75000000  0.46201800  0.25988400  1
  Li  Li4  1  0.25000000  0.53798200  0.74011600  1
  Li  Li5  1  0.25000000  0.68906800  0.36503100  1
  Li  Li6  1  0.75000000  0.81093200  0.86503100  1
  Li  Li7  1  0.75000000  0.96201800  0.24011600  1
  Mn  Mn0  1  0.50000000  0.00000000  0.50000000  1
  Mn  Mn1  1  0.00000000  0.00000000  0.50000000  1
  Mn  Mn2  1  0.25000000  0.20480700  0.93247200  1
  Mn  Mn3  1  0.75000000  0.29519300  0.43247200  1
  Mn  Mn4  1  0.00000000  0.50000000  0.00000000  1
  Mn  Mn5  1  0.50000000  0.50000000  0.00000000  1
  Mn  Mn6  1  0.25000000  0.70480700  0.56752800  1
  Mn  Mn7  1  0.75000000  0.79519300  0.06752800  1
  P  P0  1  0.75000000  0.17305200  0.08183600  1
  P  P1  1  0.25000000  0.20201700  0.33585300  1
  P  P2  1  0.75000000  0.29798300  0.83585300  1
  P  P3  1  0.25000000  0.32694800  0.58183600  1
  P  P4  1  0.75000000  0.67305200  0.41816400  1
  P  P5  1  0.25000000  0.70201700  0.16414700  1
  P  P6  1  0.75000000  0.79798300  0.66414700  1
  P  P7  1  0.25000000  0.82694800  0.91816400  1
  O  O0  1  0.25000000  0.99084000  0.96379600  1
  O  O1  1  0.25000000  0.06726000  0.41126300  1
  O  O2  1  0.75000000  0.06813500  0.42711600  1
  O  O3  1  0.25000000  0.11680600  0.24971600  1
  O  O4  1  0.75000000  0.16463400  0.18015400  1
  O  O5  1  0.52415400  0.19401800  0.84936500  1
  O  O6  1  0.97584600  0.19401800  0.84936500  1
  O  O7  1  0.01680600  0.23989200  0.54948400  1
  O  O8  1  0.48319400  0.23989200  0.54948400  1
  O  O9  1  0.51680600  0.26010800  0.04948400  1
  O  O10  1  0.98319400  0.26010800  0.04948400  1
  O  O11  1  0.02415400  0.30598200  0.34936500  1
  O  O12  1  0.47584600  0.30598200  0.34936500  1
  O  O13  1  0.25000000  0.33536600  0.68015400  1
  O  O14  1  0.75000000  0.38319400  0.74971600  1
  O  O15  1  0.25000000  0.43186500  0.92711600  1
  O  O16  1  0.75000000  0.43274000  0.91126300  1
  O  O17  1  0.75000000  0.50916000  0.46379600  1
  O  O18  1  0.25000000  0.49084000  0.53620400  1
  O  O19  1  0.25000000  0.56726000  0.08873700  1
  O  O20  1  0.75000000  0.56813500  0.07288400  1
  O  O21  1  0.25000000  0.61680600  0.25028400  1
  O  O22  1  0.75000000  0.66463400  0.31984600  1
  O  O23  1  0.52415400  0.69401800  0.65063500  1
  O  O24  1  0.97584600  0.69401800  0.65063500  1
  O  O25  1  0.01680600  0.73989200  0.95051600  1
  O  O26  1  0.48319400  0.73989200  0.95051600  1
  O  O27  1  0.51680600  0.76010800  0.45051600  1
  O  O28  1  0.98319400  0.76010800  0.45051600  1
  O  O29  1  0.02415400  0.80598200  0.15063500  1
  O  O30  1  0.47584600  0.80598200  0.15063500  1
  O  O31  1  0.25000000  0.83536600  0.81984600  1
  O  O32  1  0.75000000  0.88319400  0.75028400  1
  O  O33  1  0.25000000  0.93186500  0.57288400  1
  O  O34  1  0.75000000  0.93274000  0.58873700  1
  O  O35  1  0.75000000  0.00916000  0.03620400  1
loop_
_geom_bond_atom_site_label_1
_geom_bond_atom_site_label_2
_geom_bond_distance
_geom_bond_site_symmetry_2
Li0 O31 1.940499 1_545
Li0 O6 2.450371 1_455
Li0 O5 2.450371 1_555
Li1 O3 1.863243 1_555
Li1 O9 2.083534 1_555
Li1 O10 2.083534 1_455
Li2 O14 1.863243 1_555
Li2 O8 2.083534 1_555
Li2 O7 2.083534 1_655
Li3 O22 1.940499 1_555
Li3 O12 2.450371 1_555
Li3 O11 2.450371 1_655
Li4 O13 1.940499 1_555
Li4 O24 2.450371 1_455
Li4 O23 2.450371 1_555
Li5 O21 1.863243 1_555
Li5 O28 2.083534 1_455
Li5 O27 2.083534 1_555
Li6 O32 1.863243 1_555
Li6 O26 2.083534 1_555
Li6 O25 2.083534 1_655
Li7 O4 1.940499 1_565
Li7 O30 2.450371 1_555
Li7 O29 2.450371 1_655
Mn0 O33 1.888525 1_545
Mn0 O2 1.888525 1_555
Mn0 O34 2.039956 1_545
Mn0 O1 2.039956 1_555
Mn0 O27 2.162703 1_545
Mn0 O8 2.162703 1_555
Mn1 O33 1.888525 1_545
Mn1 O2 1.888525 1_455
Mn1 O34 2.039956 1_445
Mn1 O1 2.039956 1_555
Mn1 O7 2.162703 1_555
Mn1 O28 2.162703 1_445
Mn2 O0 1.867129 1_545
Mn2 O15 1.916346 1_555
Mn2 O5 2.005604 1_555
Mn2 O6 2.005604 1_455
Mn2 O10 2.388095 1_456
Mn2 O9 2.388095 1_556
Mn3 O17 1.867129 1_555
Mn3 O2 1.916346 1_555
Mn3 O11 2.005604 1_655
Mn3 O12 2.005604 1_555
Mn3 O8 2.388095 1_555
Mn3 O7 2.388095 1_655
Mn4 O15 1.888525 1_554
Mn4 O20 1.888525 1_455
Mn4 O16 2.039956 1_454
Mn4 O19 2.039956 1_555
Mn4 O25 2.162703 1_554
Mn4 O10 2.162703 1_455
Mn5 O15 1.888525 1_554
Mn5 O20 1.888525 1_555
Mn5 O16 2.039956 1_554
Mn5 O19 2.039956 1_555
Mn5 O9 2.162703 1_555
Mn5 O26 2.162703 1_554
Mn6 O18 1.867129 1_555
Mn6 O33 1.916346 1_555
Mn6 O24 2.005604 1_455
Mn6 O23 2.005604 1_555
Mn6 O28 2.388095 1_455
Mn6 O27 2.388095 1_555
Mn7 O35 1.867129 1_565
Mn7 O20 1.916346 1_555
Mn7 O29 2.005604 1_655
Mn7 O30 2.005604 1_555
Mn7 O26 2.388095 1_554
Mn7 O25 2.388095 1_654
O0 P7 1.549234 1_555
O1 P1 1.621786 1_555
O3 P1 1.504442 1_555
O4 P0 1.510361 1_555
O5 P2 1.559476 1_555
O6 P2 1.559476 1_555
O7 P3 1.585225 1_555
O8 P3 1.585225 1_555
O9 P0 1.585225 1_555
O10 P0 1.585225 1_555
O11 P1 1.559476 1_555
O12 P1 1.559476 1_555
O13 P3 1.510361 1_555
O14 P2 1.504442 1_555
O16 P2 1.621786 1_555
O17 P4 1.549234 1_555
O18 P3 1.549234 1_555
O19 P5 1.621786 1_555
O21 P5 1.504442 1_555
O22 P4 1.510361 1_555
O23 P6 1.559476 1_555
O24 P6 1.559476 1_555
O25 P7 1.585225 1_555
O26 P7 1.585225 1_555
O27 P4 1.585225 1_555
O28 P4 1.585225 1_555
O29 P5 1.559476 1_555
O30 P5 1.559476 1_555
O31 P7 1.510361 1_555
O32 P6 1.504442 1_555
O34 P6 1.621786 1_555
O35 P0 1.549234 1_555
