# generated using pymatgen
data_RbPrTe4
_symmetry_space_group_name_H-M   'P 1'
_cell_length_a   7.00615980
_cell_length_b   7.00615980
_cell_length_c   9.23461387
_cell_angle_alpha   90.00000000
_cell_angle_beta   90.00000000
_cell_angle_gamma   90.00000000
_symmetry_Int_Tables_number   1
_chemical_formula_structural   RbPrTe4
_chemical_formula_sum   'Rb2 Pr2 Te8'
_cell_volume   453.29279726
_cell_formula_units_Z   2
loop_
 _symmetry_equiv_pos_site_id
 _symmetry_equiv_pos_as_xyz
  1  'x, y, z'
loop_
 _atom_site_type_symbol
 _atom_site_label
 _atom_site_symmetry_multiplicity
 _atom_site_fract_x
 _atom_site_fract_y
 _atom_site_fract_z
 _atom_site_occupancy
  Rb  Rb0  1  0.75000000  0.75000000  -0.00000000  1
  Rb  Rb1  1  0.25000000  0.25000000  -0.00000000  1
  Pr  Pr0  1  0.75000000  0.75000000  0.50000000  1
  Pr  Pr1  1  0.25000000  0.25000000  0.50000000  1
  Te  Te0  1  0.60854189  0.10854189  0.29264506  1
  Te  Te1  1  0.39145811  0.60854189  0.29264506  1
  Te  Te2  1  0.10854189  0.89145811  0.29264506  1
  Te  Te3  1  0.60854189  0.39145811  0.70735494  1
  Te  Te4  1  0.89145811  0.10854189  0.70735494  1
  Te  Te5  1  0.89145811  0.39145811  0.29264506  1
  Te  Te6  1  0.10854189  0.60854189  0.70735494  1
  Te  Te7  1  0.39145811  0.89145811  0.70735494  1
loop_
_geom_bond_atom_site_label_1
_geom_bond_atom_site_label_2
_geom_bond_distance
_geom_bond_site_symmetry_2
Rb0 Te4 3.820432 1_564
Rb0 Te6 3.820432 1_654
Rb0 Te0 3.820432 1_565
Rb0 Te2 3.820432 1_655
Rb0 Te1 3.820432 1_555
Rb0 Te3 3.820432 1_554
Rb0 Te7 3.820432 1_554
Rb0 Te5 3.820432 1_555
Rb1 Te1 3.820432 1_555
Rb1 Te7 3.820432 1_544
Rb1 Te5 3.820432 1_455
Rb1 Te6 3.820432 1_554
Rb1 Te3 3.820432 1_554
Rb1 Te2 3.820432 1_545
Rb1 Te0 3.820432 1_555
Rb1 Te4 3.820432 1_454
Pr0 Te6 3.310440 1_655
Pr0 Te4 3.310440 1_565
Pr0 Te0 3.310440 1_565
Pr0 Te2 3.310440 1_655
Pr0 Te5 3.310440 1_555
Pr0 Te3 3.310440 1_555
Pr0 Te7 3.310440 1_555
Pr0 Te1 3.310440 1_555
Pr1 Te2 3.310440 1_545
Pr1 Te6 3.310440 1_555
Pr1 Te0 3.310440 1_555
Pr1 Te4 3.310440 1_455
Pr1 Te1 3.310440 1_555
Pr1 Te7 3.310440 1_545
Pr1 Te5 3.310440 1_455
Pr1 Te3 3.310440 1_555
Te0 Te5 2.803192 1_555
Te1 Te2 2.803192 1_555
Te3 Te4 2.803192 1_555
Te6 Te7 2.803192 1_555
