# generated using pymatgen
data_Li3Cr3(NiO6)2
_symmetry_space_group_name_H-M   'P 1'
_cell_length_a   9.22655800
_cell_length_b   8.78228900
_cell_length_c   15.01561937
_cell_angle_alpha   55.60827967
_cell_angle_beta   90.00000000
_cell_angle_gamma   90.00000000
_symmetry_Int_Tables_number   1
_chemical_formula_structural   Li3Cr3(NiO6)2
_chemical_formula_sum   'Li12 Cr12 Ni8 O48'
_cell_volume   1004.03152324
_cell_formula_units_Z   4
loop_
 _symmetry_equiv_pos_site_id
 _symmetry_equiv_pos_as_xyz
  1  'x, y, z'
loop_
 _atom_site_type_symbol
 _atom_site_label
 _atom_site_symmetry_multiplicity
 _atom_site_fract_x
 _atom_site_fract_y
 _atom_site_fract_z
 _atom_site_occupancy
  Li  Li0  1  0.91243700  0.38044300  0.69780200  1
  Li  Li1  1  0.49029000  0.71916500  0.34154400  1
  Li  Li2  1  0.22959800  0.98751900  0.17894000  1
  Li  Li3  1  0.72959800  0.01248100  0.32106000  1
  Li  Li4  1  0.41243700  0.61955700  0.80219800  1
  Li  Li5  1  0.99029000  0.28083500  0.15845600  1
  Li  Li6  1  0.00971000  0.71916500  0.84154400  1
  Li  Li7  1  0.58756300  0.38044300  0.19780200  1
  Li  Li8  1  0.27040200  0.98751900  0.67894000  1
  Li  Li9  1  0.77040200  0.01248100  0.82106000  1
  Li  Li10  1  0.50971000  0.28083500  0.65845600  1
  Li  Li11  1  0.08756300  0.61955700  0.30219800  1
  Cr  Cr0  1  0.75215300  0.54971100  0.49141200  1
  Cr  Cr1  1  0.61781000  0.26491700  0.85214900  1
  Cr  Cr2  1  0.88714900  0.97113500  0.14510600  1
  Cr  Cr3  1  0.11781000  0.73508300  0.64785100  1
  Cr  Cr4  1  0.38714900  0.02886500  0.35489400  1
  Cr  Cr5  1  0.25215300  0.45028900  0.00858800  1
  Cr  Cr6  1  0.74784700  0.54971100  0.99141200  1
  Cr  Cr7  1  0.61285100  0.97113500  0.64510600  1
  Cr  Cr8  1  0.88219000  0.26491700  0.35214900  1
  Cr  Cr9  1  0.11285100  0.02886500  0.85489400  1
  Cr  Cr10  1  0.38219000  0.73508300  0.14785100  1
  Cr  Cr11  1  0.24784700  0.45028900  0.50858800  1
  Ni  Ni0  1  0.96945700  0.35706600  0.88695600  1
  Ni  Ni1  1  0.46945700  0.64293400  0.61304400  1
  Ni  Ni2  1  0.03172400  0.88010500  0.38217700  1
  Ni  Ni3  1  0.53172400  0.11989500  0.11782300  1
  Ni  Ni4  1  0.46827600  0.88010500  0.88217700  1
  Ni  Ni5  1  0.96827600  0.11989500  0.61782300  1
  Ni  Ni6  1  0.53054300  0.35706600  0.38695600  1
  Ni  Ni7  1  0.03054300  0.64293400  0.11304400  1
  O  O0  1  0.12237900  0.61318500  0.44376600  1
  O  O1  1  0.11669100  0.14974900  0.90676500  1
  O  O2  1  0.33430400  0.45354700  0.60509400  1
  O  O3  1  0.42268700  0.87850600  0.19407000  1
  O  O4  1  0.63292000  0.51196700  0.58551600  1
  O  O5  1  0.80595000  0.28044800  0.83258600  1
  O  O6  1  0.58548300  0.14724400  0.98312000  1
  O  O7  1  0.01149000  0.87634300  0.24542200  1
  O  O8  1  0.72616100  0.97966400  0.19361200  1
  O  O9  1  0.82409300  0.75885300  0.43477000  1
  O  O10  1  0.52844200  0.47095500  0.77218700  1
  O  O11  1  0.02844200  0.52904500  0.72781300  1
  O  O12  1  0.94323200  0.18811100  0.05560000  1
  O  O13  1  0.44323200  0.81188900  0.44440000  1
  O  O14  1  0.32409300  0.24114700  0.06523000  1
  O  O15  1  0.22616100  0.02033600  0.30638800  1
  O  O16  1  0.08548300  0.85275600  0.51688000  1
  O  O17  1  0.51149000  0.12365700  0.25457800  1
  O  O18  1  0.30595000  0.71955200  0.66741400  1
  O  O19  1  0.13292000  0.48803300  0.91448400  1
  O  O20  1  0.83430400  0.54645300  0.89490600  1
  O  O21  1  0.61669100  0.85025100  0.59323500  1
  O  O22  1  0.92268700  0.12149400  0.30593000  1
  O  O23  1  0.62237900  0.38681500  0.05623400  1
  O  O24  1  0.37762100  0.61318500  0.94376600  1
  O  O25  1  0.07731300  0.87850600  0.69407000  1
  O  O26  1  0.38330900  0.14974900  0.40676500  1
  O  O27  1  0.16569600  0.45354700  0.10509400  1
  O  O28  1  0.86708000  0.51196700  0.08551600  1
  O  O29  1  0.69405000  0.28044800  0.33258600  1
  O  O30  1  0.48851000  0.87634300  0.74542200  1
  O  O31  1  0.91451700  0.14724400  0.48312000  1
  O  O32  1  0.77383900  0.97966400  0.69361200  1
  O  O33  1  0.67590700  0.75885300  0.93477000  1
  O  O34  1  0.55676800  0.18811100  0.55560000  1
  O  O35  1  0.05676800  0.81188900  0.94440000  1
  O  O36  1  0.97155800  0.47095500  0.27218700  1
  O  O37  1  0.47155800  0.52904500  0.22781300  1
  O  O38  1  0.17590700  0.24114700  0.56523000  1
  O  O39  1  0.27383900  0.02033600  0.80638800  1
  O  O40  1  0.98851000  0.12365700  0.75457800  1
  O  O41  1  0.41451700  0.85275600  0.01688000  1
  O  O42  1  0.19405000  0.71955200  0.16741400  1
  O  O43  1  0.36708000  0.48803300  0.41448400  1
  O  O44  1  0.57731300  0.12149400  0.80593000  1
  O  O45  1  0.66569600  0.54645300  0.39490600  1
  O  O46  1  0.88330900  0.85025100  0.09323500  1
  O  O47  1  0.87762100  0.38681500  0.55623400  1
loop_
_geom_bond_atom_site_label_1
_geom_bond_atom_site_label_2
_geom_bond_distance
_geom_bond_site_symmetry_2
Li0 O11 1.927757 1_655
Li0 O5 1.955690 1_555
Li0 O40 2.033051 1_555
Li0 O47 2.119120 1_555
Li1 O3 1.936553 1_555
Li1 O43 2.025020 1_555
Li1 O45 2.046689 1_555
Li1 O13 2.158186 1_555
Li2 O3 1.973928 1_555
Li2 O14 2.083382 1_565
Li2 O15 2.090320 1_565
Li2 O7 2.213245 1_555
Li2 O42 2.477089 1_555
Li3 O22 1.973928 1_555
Li3 O9 2.083382 1_545
Li3 O8 2.090320 1_545
Li3 O17 2.213245 1_555
Li3 O29 2.477089 1_555
Li4 O10 1.927757 1_555
Li4 O18 1.955690 1_555
Li4 O30 2.033051 1_555
Li4 O24 2.119120 1_555
Li5 O22 1.936553 1_555
Li5 O28 2.025020 1_555
Li5 O27 2.046689 1_655
Li5 O12 2.158186 1_555
Li6 O25 1.936553 1_555
Li6 O19 2.025020 1_555
Li6 O20 2.046689 1_455
Li6 O35 2.158186 1_555
Li7 O37 1.927757 1_555
Li7 O29 1.955690 1_555
Li7 O17 2.033051 1_555
Li7 O23 2.119120 1_555
Li8 O25 1.973928 1_555
Li8 O38 2.083382 1_565
Li8 O39 2.090320 1_565
Li8 O30 2.213245 1_555
Li8 O18 2.477089 1_555
Li9 O44 1.973928 1_555
Li9 O33 2.083382 1_545
Li9 O32 2.090320 1_545
Li9 O40 2.213245 1_555
Li9 O5 2.477089 1_555
Li10 O44 1.936553 1_555
Li10 O4 2.025020 1_555
Li10 O2 2.046689 1_555
Li10 O34 2.158186 1_555
Li11 O36 1.927757 1_455
Li11 O42 1.955690 1_555
Li11 O7 2.033051 1_555
Li11 O0 2.119120 1_555
Cr0 O47 1.661649 1_555
Cr0 O9 1.665172 1_555
Cr0 O45 1.668493 1_555
Cr0 O4 1.669622 1_555
Cr1 O6 1.651834 1_555
Cr1 O10 1.715044 1_555
Cr1 O5 1.752976 1_555
Cr1 O44 1.787551 1_555
Cr2 O46 1.633739 1_555
Cr2 O8 1.674528 1_555
Cr2 O12 1.676896 1_565
Cr2 O7 1.691608 1_655
Cr3 O16 1.651834 1_555
Cr3 O11 1.715044 1_555
Cr3 O18 1.752976 1_555
Cr3 O25 1.787551 1_555
Cr4 O26 1.633739 1_555
Cr4 O15 1.674528 1_555
Cr4 O13 1.676896 1_545
Cr4 O17 1.691608 1_555
Cr5 O24 1.661649 1_554
Cr5 O14 1.665172 1_555
Cr5 O27 1.668493 1_555
Cr5 O19 1.669622 1_554
Cr6 O23 1.661649 1_556
Cr6 O33 1.665172 1_555
Cr6 O20 1.668493 1_555
Cr6 O28 1.669622 1_556
Cr7 O21 1.633739 1_555
Cr7 O32 1.674528 1_555
Cr7 O34 1.676896 1_565
Cr7 O30 1.691608 1_555
Cr8 O31 1.651834 1_555
Cr8 O36 1.715044 1_555
Cr8 O29 1.752976 1_555
Cr8 O22 1.787551 1_555
Cr9 O1 1.633739 1_555
Cr9 O39 1.674528 1_555
Cr9 O35 1.676896 1_545
Cr9 O40 1.691608 1_455
Cr10 O41 1.651834 1_555
Cr10 O37 1.715044 1_555
Cr10 O42 1.752976 1_555
Cr10 O3 1.787551 1_555
Cr11 O0 1.661649 1_555
Cr11 O38 1.665172 1_555
Cr11 O2 1.668493 1_555
Cr11 O43 1.669622 1_555
Ni0 O5 2.003936 1_555
Ni0 O11 2.051928 1_655
Ni0 O19 2.074984 1_655
Ni0 O12 2.104278 1_556
Ni0 O20 2.135406 1_555
Ni0 O1 2.153394 1_655
Ni1 O18 2.003936 1_555
Ni1 O10 2.051928 1_555
Ni1 O4 2.074984 1_555
Ni1 O13 2.104278 1_555
Ni1 O2 2.135406 1_555
Ni1 O21 2.153394 1_555
Ni2 O16 1.961123 1_555
Ni2 O22 2.018705 1_465
Ni2 O7 2.080695 1_555
Ni2 O15 2.108763 1_565
Ni2 O9 2.116027 1_455
Ni2 O0 2.144983 1_555
Ni3 O6 1.961123 1_554
Ni3 O3 2.018705 1_545
Ni3 O17 2.080695 1_555
Ni3 O8 2.108763 1_545
Ni3 O14 2.116027 1_555
Ni3 O23 2.144983 1_555
Ni4 O41 1.961123 1_556
Ni4 O44 2.018705 1_565
Ni4 O30 2.080695 1_555
Ni4 O39 2.108763 1_565
Ni4 O33 2.116027 1_555
Ni4 O24 2.144983 1_555
Ni5 O31 1.961123 1_555
Ni5 O25 2.018705 1_645
Ni5 O40 2.080695 1_555
Ni5 O32 2.108763 1_545
Ni5 O38 2.116027 1_655
Ni5 O47 2.144983 1_555
Ni6 O29 2.003936 1_555
Ni6 O37 2.051928 1_555
Ni6 O43 2.074984 1_555
Ni6 O34 2.104278 1_555
Ni6 O45 2.135406 1_555
Ni6 O26 2.153394 1_555
Ni7 O42 2.003936 1_555
Ni7 O36 2.051928 1_455
Ni7 O28 2.074984 1_455
Ni7 O35 2.104278 1_554
Ni7 O27 2.135406 1_555
Ni7 O46 2.153394 1_455
