# generated using pymatgen
data_TiV3Fe2(PO4)6
_symmetry_space_group_name_H-M   'P 1'
_cell_length_a   8.53921869
_cell_length_b   8.53921869
_cell_length_c   8.53921948
_cell_angle_alpha   61.08106982
_cell_angle_beta   61.08106982
_cell_angle_gamma   61.08106546
_symmetry_Int_Tables_number   1
_chemical_formula_structural   TiV3Fe2(PO4)6
_chemical_formula_sum   'Ti1 V3 Fe2 P6 O24'
_cell_volume   451.00622523
_cell_formula_units_Z   1
loop_
 _symmetry_equiv_pos_site_id
 _symmetry_equiv_pos_as_xyz
  1  'x, y, z'
loop_
 _atom_site_type_symbol
 _atom_site_label
 _atom_site_symmetry_multiplicity
 _atom_site_fract_x
 _atom_site_fract_y
 _atom_site_fract_z
 _atom_site_occupancy
  Ti  Ti0  1  0.85637200  0.85637200  0.85637200  1
  V  V0  1  0.35862400  0.35862400  0.35862400  1
  V  V1  1  0.14322900  0.14322900  0.14322900  1
  V  V2  1  0.64186800  0.64186800  0.64186800  1
  Fe  Fe0  1  0.00009200  0.00009200  0.00009200  1
  Fe  Fe1  1  0.50036900  0.50036900  0.50036900  1
  P  P0  1  0.74936500  0.04273000  0.45624900  1
  P  P1  1  0.04273000  0.45624900  0.74936500  1
  P  P2  1  0.45624900  0.74936500  0.04273000  1
  P  P3  1  0.54249300  0.25029600  0.95912400  1
  P  P4  1  0.95912400  0.54249300  0.25029600  1
  P  P5  1  0.25029600  0.95912400  0.54249300  1
  O  O0  1  0.88452800  0.49555300  0.68492000  1
  O  O1  1  0.49555300  0.68492000  0.88452800  1
  O  O2  1  0.68492000  0.88452800  0.49555300  1
  O  O3  1  0.91132100  0.05826100  0.26133400  1
  O  O4  1  0.81670500  0.99495200  0.61877600  1
  O  O5  1  0.59163300  0.23746100  0.44541300  1
  O  O6  1  0.05826100  0.26133400  0.91132100  1
  O  O7  1  0.23746100  0.44541300  0.59163300  1
  O  O8  1  0.38441800  0.18545400  0.99680000  1
  O  O9  1  0.44541300  0.59163300  0.23746100  1
  O  O10  1  0.73971900  0.08782200  0.94073700  1
  O  O11  1  0.99680000  0.38441800  0.18545400  1
  O  O12  1  0.99495200  0.61877600  0.81670500  1
  O  O13  1  0.26133400  0.91132100  0.05826100  1
  O  O14  1  0.56077500  0.40879600  0.76006500  1
  O  O15  1  0.61877600  0.81670500  0.99495200  1
  O  O16  1  0.76006500  0.56077500  0.40879600  1
  O  O17  1  0.94073700  0.73971900  0.08782200  1
  O  O18  1  0.40879600  0.76006500  0.56077500  1
  O  O19  1  0.18545400  0.99680000  0.38441800  1
  O  O20  1  0.08782200  0.94073700  0.73971900  1
  O  O21  1  0.31315900  0.11449200  0.50609500  1
  O  O22  1  0.50609500  0.31315900  0.11449200  1
  O  O23  1  0.11449200  0.50609500  0.31315900  1
loop_
_geom_bond_atom_site_label_1
_geom_bond_atom_site_label_2
_geom_bond_distance
_geom_bond_site_symmetry_2
Fe0 O13 2.206779 1_545
Fe0 O6 2.206779 1_554
Fe0 O3 2.206779 1_455
Fe0 O10 2.207553 1_454
Fe0 O17 2.207553 1_445
Fe0 O20 2.207553 1_544
Fe1 O18 2.198724 1_555
Fe1 O16 2.198724 1_555
Fe1 O14 2.198724 1_555
Fe1 O5 2.200190 1_555
Fe1 O7 2.200190 1_555
Fe1 O9 2.200190 1_555
O0 P1 1.530470 1_655
O0 V2 1.943845 1_555
O1 P2 1.530470 1_556
O1 V2 1.943845 1_555
O2 P0 1.530470 1_565
O2 V2 1.943845 1_555
O3 P0 1.561471 1_555
O3 V1 2.053181 1_655
O4 P0 1.555818 1_565
O4 Ti0 1.893785 1_555
O5 P0 1.547063 1_555
O5 V0 2.066943 1_555
O6 P1 1.561471 1_555
O6 V1 2.053181 1_556
O7 P1 1.547063 1_555
O7 V0 2.066943 1_555
O8 P3 1.537110 1_555
O8 V1 1.930499 1_556
O9 P2 1.547063 1_555
O9 V0 2.066943 1_555
O10 P3 1.575127 1_555
O10 Ti0 2.048503 1_545
O11 P4 1.537110 1_555
O11 V1 1.930499 1_655
O12 P1 1.555818 1_655
O12 Ti0 1.893785 1_555
O13 P2 1.561470 1_555
O13 V1 2.053181 1_565
O14 P3 1.571069 1_555
O14 V2 2.042916 1_555
O15 P2 1.555818 1_556
O15 Ti0 1.893785 1_555
O16 P4 1.571069 1_555
O16 V2 2.042916 1_555
O17 P4 1.575127 1_555
O17 Ti0 2.048503 1_554
O18 P5 1.571069 1_555
O18 V2 2.042916 1_555
O19 P5 1.537110 1_555
O19 V1 1.930499 1_565
O20 P5 1.575127 1_555
O20 Ti0 2.048503 1_455
O21 P5 1.507833 1_545
O21 V0 1.963018 1_555
O22 P3 1.507833 1_554
O22 V0 1.963018 1_555
O23 P4 1.507833 1_455
O23 V0 1.963018 1_555
