# generated using pymatgen
data_LiCoPO4
_symmetry_space_group_name_H-M   'P 1'
_cell_length_a   5.16928645
_cell_length_b   8.95288554
_cell_length_c   10.73349267
_cell_angle_alpha   114.66228795
_cell_angle_beta   103.86522565
_cell_angle_gamma   89.99571419
_symmetry_Int_Tables_number   1
_chemical_formula_structural   LiCoPO4
_chemical_formula_sum   'Li4 Co4 P4 O16'
_cell_volume   435.46123268
_cell_formula_units_Z   4
loop_
 _symmetry_equiv_pos_site_id
 _symmetry_equiv_pos_as_xyz
  1  'x, y, z'
loop_
 _atom_site_type_symbol
 _atom_site_label
 _atom_site_symmetry_multiplicity
 _atom_site_fract_x
 _atom_site_fract_y
 _atom_site_fract_z
 _atom_site_occupancy
  Li  Li0  1  0.11466100  0.11514600  0.23017500  1
  Li  Li1  1  0.61469600  0.61518700  0.23017400  1
  Li  Li2  1  0.86527200  0.86531200  0.73024900  1
  Li  Li3  1  0.36514100  0.36524600  0.73015000  1
  Co  Co0  1  0.06256500  0.39597600  0.12551700  1
  Co  Co1  1  0.31308100  0.97941200  0.62549200  1
  Co  Co2  1  0.56263500  0.89592400  0.12545000  1
  Co  Co3  1  0.81309400  0.47943600  0.62556300  1
  P  P0  1  0.38038600  0.71356900  0.76045200  1
  P  P1  1  0.88041500  0.21369400  0.76054500  1
  P  P2  1  0.63001800  0.29680200  0.26055000  1
  P  P3  1  0.13010000  0.79689300  0.26050000  1
  O  O0  1  0.46114000  0.79374400  0.92227800  1
  O  O1  1  0.96156500  0.29390500  0.92235400  1
  O  O2  1  0.71072400  0.37717000  0.42238400  1
  O  O3  1  0.21136700  0.87740700  0.42231000  1
  O  O4  1  0.21201200  0.82811900  0.70417900  1
  O  O5  1  0.71204000  0.32822900  0.70432800  1
  O  O6  1  0.63566700  0.68424200  0.70339000  1
  O  O7  1  0.13547300  0.18419300  0.70329100  1
  O  O8  1  0.74520800  0.41004100  0.20395700  1
  O  O9  1  0.24500800  0.90991700  0.20365600  1
  O  O10  1  0.20844700  0.54373000  0.70313800  1
  O  O11  1  0.70832800  0.04388600  0.70338800  1
  O  O12  1  0.31791500  0.26967800  0.20386600  1
  O  O13  1  0.81798100  0.76981100  0.20397900  1
  O  O14  1  0.74181600  0.12592200  0.20317800  1
  O  O15  1  0.24176100  0.62592700  0.20314600  1
loop_
_geom_bond_atom_site_label_1
_geom_bond_atom_site_label_2
_geom_bond_distance
_geom_bond_site_symmetry_2
Li0 O14 1.887738 1_455
Li0 O12 1.888444 1_555
Li0 O9 1.888468 1_545
Li1 O15 1.888136 1_555
Li1 O13 1.888474 1_555
Li1 O8 1.888679 1_555
Li2 O4 1.887963 1_655
Li2 O6 1.888403 1_555
Li2 O11 1.889364 1_565
Li3 O5 1.887790 1_555
Li3 O7 1.888474 1_555
Li3 O10 1.888777 1_555
Co0 O1 1.911619 1_454
Co0 O12 1.997354 1_555
Co0 O8 1.997362 1_455
Co0 O15 1.997369 1_555
Co1 O3 1.911800 1_555
Co1 O11 1.996339 1_565
Co1 O4 1.996818 1_555
Co1 O7 1.997764 1_565
Co2 O0 1.911707 1_554
Co2 O13 1.997078 1_555
Co2 O9 1.997236 1_555
Co2 O14 1.997570 1_565
Co3 O2 1.911786 1_555
Co3 O10 1.996481 1_655
Co3 O5 1.996775 1_555
Co3 O6 1.997451 1_555
O0 P0 1.522681 1_555
O1 P1 1.522522 1_555
O2 P2 1.522749 1_555
O3 P3 1.522524 1_555
O4 P0 1.561724 1_555
O5 P1 1.561300 1_555
O6 P0 1.561594 1_555
O7 P1 1.561601 1_455
O8 P2 1.561649 1_555
O9 P3 1.561422 1_555
O10 P0 1.561408 1_555
O11 P1 1.561798 1_555
O12 P2 1.561520 1_555
O13 P3 1.561466 1_655
O14 P2 1.561383 1_555
O15 P3 1.561668 1_555
