# generated using pymatgen
data_V3OF11
_symmetry_space_group_name_H-M   'P 1'
_cell_length_a   5.27029500
_cell_length_b   5.45423814
_cell_length_c   14.78977397
_cell_angle_alpha   100.28210709
_cell_angle_beta   90.00861581
_cell_angle_gamma   90.09268405
_symmetry_Int_Tables_number   1
_chemical_formula_structural   V3OF11
_chemical_formula_sum   'V6 O2 F22'
_cell_volume   418.31065602
_cell_formula_units_Z   2
loop_
 _symmetry_equiv_pos_site_id
 _symmetry_equiv_pos_as_xyz
  1  'x, y, z'
loop_
 _atom_site_type_symbol
 _atom_site_label
 _atom_site_symmetry_multiplicity
 _atom_site_fract_x
 _atom_site_fract_y
 _atom_site_fract_z
 _atom_site_occupancy
  V  V0  1  0.99099900  0.00018500  0.00630800  1
  V  V1  1  0.52471500  0.12589700  0.33037300  1
  V  V2  1  0.00003500  0.33348100  0.66708700  1
  V  V3  1  0.49602400  0.49808900  0.99872900  1
  V  V4  1  0.00805100  0.65548800  0.33438400  1
  V  V5  1  0.49987500  0.83352300  0.66711400  1
  O  O0  1  0.91832200  0.04481200  0.11422100  1
  O  O1  1  0.70517200  0.87469900  0.31087700  1
  F  F0  1  0.80091200  0.02405600  0.64226400  1
  F  F1  1  0.70791100  0.19407700  0.97391800  1
  F  F2  1  0.30120900  0.14379800  0.69161500  1
  F  F3  1  0.57256100  0.22685600  0.44941100  1
  F  F4  1  0.91254100  0.37662600  0.78420400  1
  F  F5  1  0.40795600  0.13501500  0.21846600  1
  F  F6  1  0.08377600  0.29099700  0.54949900  1
  F  F7  1  0.41781400  0.45733600  0.88148600  1
  F  F8  1  0.78941800  0.35725500  0.30882400  1
  F  F9  1  0.69883200  0.52411800  0.64201600  1
  F  F10  1  0.79701000  0.69766400  0.97422500  1
  F  F11  1  0.20182300  0.30312300  0.02442700  1
  F  F12  1  0.29270000  0.47174600  0.35690800  1
  F  F13  1  0.19901300  0.64274900  0.69111800  1
  F  F14  1  0.58758200  0.54244600  0.11552500  1
  F  F15  1  0.91212000  0.71582500  0.45073800  1
  F  F16  1  0.58685900  0.87513000  0.78419000  1
  F  F17  1  0.07634500  0.62855500  0.21558100  1
  F  F18  1  0.41421400  0.79379600  0.54969800  1
  F  F19  1  0.09004400  0.95825900  0.88499700  1
  F  F20  1  0.29260000  0.80421500  0.02449900  1
  F  F21  1  0.21356500  0.97018300  0.35730200  1
loop_
_geom_bond_atom_site_label_1
_geom_bond_atom_site_label_2
_geom_bond_distance
_geom_bond_site_symmetry_2
O0 V0 1.617098 1_555
O1 V1 1.651691 1_565
O1 V4 2.062244 1_655
F0 V2 1.964007 1_655
F0 V5 1.965548 1_545
F1 V0 1.938952 1_556
F1 V3 1.979914 1_555
F2 V2 1.964818 1_555
F2 V5 1.969373 1_545
F3 V1 1.766255 1_555
F4 V2 1.767307 1_655
F5 V1 1.774711 1_555
F6 V2 1.769080 1_555
F7 V3 1.757256 1_555
F8 V1 1.943740 1_555
F8 V4 1.972520 1_655
F9 V5 1.966564 1_555
F9 V2 1.970116 1_655
F10 V0 1.925585 1_566
F10 V3 1.991972 1_555
F11 V3 1.954100 1_554
F11 V0 1.967829 1_455
F12 V4 1.868092 1_555
F12 V1 2.225049 1_555
F13 V5 1.962056 1_555
F13 V2 1.962535 1_555
F14 V3 1.767886 1_554
F15 V4 1.767447 1_655
F16 V5 1.766067 1_555
F17 V4 1.773877 1_555
F18 V5 1.769608 1_555
F19 V0 1.843365 1_466
F20 V0 1.962009 1_465
F20 V3 1.965007 1_554
F21 V1 1.919764 1_565
F21 V4 2.005074 1_555
