# generated using pymatgen
data_GeH8N2OF6
_symmetry_space_group_name_H-M   'P 1'
_cell_length_a   7.48229600
_cell_length_b   8.95367700
_cell_length_c   9.41194500
_cell_angle_alpha   90.00000000
_cell_angle_beta   90.00000000
_cell_angle_gamma   90.00000000
_symmetry_Int_Tables_number   1
_chemical_formula_structural   GeH8N2OF6
_chemical_formula_sum   'Ge4 H32 N8 O4 F24'
_cell_volume   630.54442313
_cell_formula_units_Z   4
loop_
 _symmetry_equiv_pos_site_id
 _symmetry_equiv_pos_as_xyz
  1  'x, y, z'
loop_
 _atom_site_type_symbol
 _atom_site_label
 _atom_site_symmetry_multiplicity
 _atom_site_fract_x
 _atom_site_fract_y
 _atom_site_fract_z
 _atom_site_occupancy
  Ge  Ge0  1  0.98969700  0.15667200  0.25000000  1
  Ge  Ge1  1  0.51030300  0.65667200  0.25000000  1
  Ge  Ge2  1  0.01030300  0.84332800  0.75000000  1
  Ge  Ge3  1  0.48969700  0.34332800  0.75000000  1
  H  H0  1  0.84061200  0.43973000  0.06385000  1
  H  H1  1  0.65938800  0.93973000  0.43615000  1
  H  H2  1  0.15938800  0.56027000  0.56385000  1
  H  H3  1  0.34061200  0.06027000  0.93615000  1
  H  H4  1  0.15938800  0.56027000  0.93615000  1
  H  H5  1  0.34061200  0.06027000  0.56385000  1
  H  H6  1  0.84061200  0.43973000  0.43615000  1
  H  H7  1  0.65938800  0.93973000  0.06385000  1
  H  H8  1  0.93957900  0.60899200  0.10489600  1
  H  H9  1  0.56042100  0.10899200  0.39510400  1
  H  H10  1  0.06042100  0.39100800  0.60489600  1
  H  H11  1  0.43957900  0.89100800  0.89510400  1
  H  H12  1  0.06042100  0.39100800  0.89510400  1
  H  H13  1  0.43957900  0.89100800  0.60489600  1
  H  H14  1  0.93957900  0.60899200  0.39510400  1
  H  H15  1  0.56042100  0.10899200  0.10489600  1
  H  H16  1  0.85012800  0.57583000  0.93717700  1
  H  H17  1  0.64987200  0.07583000  0.56282300  1
  H  H18  1  0.14987200  0.42417000  0.43717700  1
  H  H19  1  0.35012800  0.92417000  0.06282300  1
  H  H20  1  0.14987200  0.42417000  0.06282300  1
  H  H21  1  0.35012800  0.92417000  0.43717700  1
  H  H22  1  0.85012800  0.57583000  0.56282300  1
  H  H23  1  0.64987200  0.07583000  0.93717700  1
  H  H24  1  0.13264500  0.74929300  0.25000000  1
  H  H25  1  0.36735500  0.24929300  0.25000000  1
  H  H26  1  0.86735500  0.25070700  0.75000000  1
  H  H27  1  0.63264500  0.75070700  0.75000000  1
  H  H28  1  0.93231900  0.80063000  0.25000000  1
  H  H29  1  0.56768100  0.30063000  0.25000000  1
  H  H30  1  0.06768100  0.19937000  0.75000000  1
  H  H31  1  0.43231900  0.69937000  0.75000000  1
  N  N0  1  0.91503100  0.52876900  0.02383500  1
  N  N1  1  0.58496900  0.02876900  0.47616500  1
  N  N2  1  0.08496900  0.47123100  0.52383500  1
  N  N3  1  0.41503100  0.97123100  0.97616500  1
  N  N4  1  0.08496900  0.47123100  0.97616500  1
  N  N5  1  0.41503100  0.97123100  0.52383500  1
  N  N6  1  0.91503100  0.52876900  0.47616500  1
  N  N7  1  0.58496900  0.02876900  0.02383500  1
  O  O0  1  0.00973200  0.71074600  0.25000000  1
  O  O1  1  0.49026800  0.21074600  0.25000000  1
  O  O2  1  0.99026800  0.28925400  0.75000000  1
  O  O3  1  0.50973200  0.78925400  0.75000000  1
  F  F0  1  0.12794600  0.33533700  0.25000000  1
  F  F1  1  0.37205400  0.83533700  0.25000000  1
  F  F2  1  0.87205400  0.66466300  0.75000000  1
  F  F3  1  0.62794600  0.16466300  0.75000000  1
  F  F4  1  0.84627900  0.99041600  0.25000000  1
  F  F5  1  0.65372100  0.49041600  0.25000000  1
  F  F6  1  0.15372100  0.00958400  0.75000000  1
  F  F7  1  0.34627900  0.50958400  0.75000000  1
  F  F8  1  0.13437000  0.08375700  0.11394500  1
  F  F9  1  0.36563000  0.58375700  0.38605500  1
  F  F10  1  0.86563000  0.91624300  0.61394500  1
  F  F11  1  0.63437000  0.41624300  0.88605500  1
  F  F12  1  0.86563000  0.91624300  0.88605500  1
  F  F13  1  0.63437000  0.41624300  0.61394500  1
  F  F14  1  0.13437000  0.08375700  0.38605500  1
  F  F15  1  0.36563000  0.58375700  0.11394500  1
  F  F16  1  0.84664800  0.24211000  0.11235200  1
  F  F17  1  0.65335200  0.74211000  0.38764800  1
  F  F18  1  0.15335200  0.75789000  0.61235200  1
  F  F19  1  0.34664800  0.25789000  0.88764800  1
  F  F20  1  0.15335200  0.75789000  0.88764800  1
  F  F21  1  0.34664800  0.25789000  0.61235200  1
  F  F22  1  0.84664800  0.24211000  0.38764800  1
  F  F23  1  0.65335200  0.74211000  0.11235200  1
loop_
_geom_bond_atom_site_label_1
_geom_bond_atom_site_label_2
_geom_bond_distance
_geom_bond_site_symmetry_2
H0 N0 1.042816 1_555
H1 N1 1.042816 1_565
H2 N2 1.042816 1_555
H3 N3 1.042816 1_545
H4 N4 1.042816 1_555
H5 N5 1.042816 1_545
H6 N6 1.042816 1_555
H7 N7 1.042816 1_565
H8 N0 1.063841 1_555
H9 N1 1.063841 1_555
H10 N2 1.063841 1_555
H11 N3 1.063841 1_555
H12 N4 1.063841 1_555
H13 N5 1.063841 1_555
H14 N6 1.063841 1_555
H15 N7 1.063841 1_555
H16 N0 1.038566 1_556
H17 N1 1.038566 1_555
H18 N2 1.038566 1_555
H19 N3 1.038566 1_554
H20 N4 1.038566 1_554
H21 N5 1.038566 1_555
H22 N6 1.038566 1_555
H23 N7 1.038566 1_556
H24 O0 0.982301 1_555
H25 O1 0.982301 1_555
H26 O2 0.982301 1_555
H27 O3 0.982301 1_555
H28 O0 0.991562 1_655
H29 O1 0.991562 1_555
H30 O2 0.991562 1_455
H31 O3 0.991562 1_555
F0 Ge0 1.905018 1_455
F1 Ge1 1.905018 1_555
F2 Ge2 1.905018 1_655
F3 Ge3 1.905018 1_555
F4 Ge0 1.835067 1_565
F5 Ge1 1.835067 1_555
F6 Ge2 1.835067 1_545
F7 Ge3 1.835067 1_555
F8 Ge0 1.799385 1_455
F9 Ge1 1.799385 1_555
F10 Ge2 1.799385 1_655
F11 Ge3 1.799385 1_555
F12 Ge2 1.799385 1_655
F13 Ge3 1.799385 1_555
F14 Ge0 1.799385 1_455
F15 Ge1 1.799385 1_555
F16 Ge0 1.846410 1_555
F17 Ge1 1.846410 1_555
F18 Ge2 1.846410 1_555
F19 Ge3 1.846410 1_555
F20 Ge2 1.846410 1_555
F21 Ge3 1.846410 1_555
F22 Ge0 1.846410 1_555
F23 Ge1 1.846410 1_555
