# generated using pymatgen
data_Ca2Al4Si8H14O31
_symmetry_space_group_name_H-M   'P 1'
_cell_length_a   8.98056900
_cell_length_b   9.29055936
_cell_length_c   9.84376887
_cell_angle_alpha   102.13491465
_cell_angle_beta   90.39377823
_cell_angle_gamma   98.03000023
_symmetry_Int_Tables_number   1
_chemical_formula_structural   Ca2Al4Si8H14O31
_chemical_formula_sum   'Ca2 Al4 Si8 H14 O31'
_cell_volume   794.52791347
_cell_formula_units_Z   1
loop_
 _symmetry_equiv_pos_site_id
 _symmetry_equiv_pos_as_xyz
  1  'x, y, z'
loop_
 _atom_site_type_symbol
 _atom_site_label
 _atom_site_symmetry_multiplicity
 _atom_site_fract_x
 _atom_site_fract_y
 _atom_site_fract_z
 _atom_site_occupancy
  Ca  Ca0  1  0.86065000  0.93698200  0.78162200  1
  Ca  Ca1  1  0.13320100  0.88491600  0.14204600  1
  Al  Al0  1  0.47768000  0.72858600  0.89473000  1
  Al  Al1  1  0.80103500  0.67780800  0.50180600  1
  Al  Al2  1  0.54535900  0.26927500  0.17783700  1
  Al  Al3  1  0.38807700  0.27497700  0.52388400  1
  Si  Si0  1  0.23432300  0.03536600  0.51857800  1
  Si  Si1  1  0.60928200  0.08553900  0.32902900  1
  Si  Si2  1  0.12738500  0.43856000  0.37122700  1
  Si  Si3  1  0.34142600  0.40240600  0.12505600  1
  Si  Si4  1  0.58987400  0.42437700  0.80747500  1
  Si  Si5  1  0.86892000  0.51220200  0.65502200  1
  Si  Si6  1  0.36420200  0.92790000  0.80163500  1
  Si  Si7  1  0.77625600  0.89619000  0.39192300  1
  H  H0  1  0.86713500  0.90628700  0.03806000  1
  H  H1  1  0.52034300  0.82508400  0.23487400  1
  H  H2  1  0.34874500  0.83573400  0.55824200  1
  H  H3  1  0.20944500  0.44588500  0.58019200  1
  H  H4  1  0.56490400  0.29976800  0.87946100  1
  H  H5  1  0.07697000  0.57967700  0.43653000  1
  H  H6  1  0.30240600  0.44650400  0.99549400  1
  H  H7  1  0.90094200  0.25598800  0.13131600  1
  H  H8  1  0.30457100  0.13510400  0.93899900  1
  H  H9  1  0.91189600  0.29558000  0.39765600  1
  H  H10  1  0.02412900  0.34677200  0.69143900  1
  H  H11  1  0.76685200  0.46497700  0.10538200  1
  H  H12  1  0.92786700  0.06014300  0.29898000  1
  H  H13  1  0.15105100  0.14232500  0.77683600  1
  O  O0  1  0.20801300  0.45641300  0.22996000  1
  O  O1  1  0.32857200  0.93061800  0.61580400  1
  O  O2  1  0.57276300  0.89367500  0.31605600  1
  O  O3  1  0.75665200  0.86766600  0.55426300  1
  O  O4  1  0.55226500  0.99724200  0.82751300  1
  O  O5  1  0.56016400  0.57778400  0.90946200  1
  O  O6  1  0.90453600  0.69449100  0.67104400  1
  O  O7  1  0.36119600  0.74605100  0.75506700  1
  O  O8  1  0.91216900  0.95087100  0.28575200  1
  O  O9  1  0.31687500  0.91629000  0.98232300  1
  O  O10  1  0.35812400  0.78525000  0.03794200  1
  O  O11  1  0.79502500  0.71368700  0.33329300  1
  O  O12  1  0.25660200  0.40996700  0.48875500  1
  O  O13  1  0.50706700  0.45894400  0.20436500  1
  O  O14  1  0.96025600  0.91633300  0.98745800  1
  O  O15  1  0.48330400  0.38625000  0.66717100  1
  O  O16  1  0.78005900  0.48163800  0.50142900  1
  O  O17  1  0.02802800  0.43749300  0.65381900  1
  O  O18  1  0.73748600  0.35783500  0.10112600  1
  O  O19  1  0.86606300  0.28623700  0.04702500  1
  O  O20  1  0.06094000  0.03197500  0.59785100  1
  O  O21  1  0.49707000  0.21450100  0.37559500  1
  O  O22  1  0.99453800  0.29358600  0.33158600  1
  O  O23  1  0.35283900  0.22188300  0.09898100  1
  O  O24  1  0.63884900  0.11342500  0.17478000  1
  O  O25  1  0.21753600  0.93334900  0.36617400  1
  O  O26  1  0.28150900  0.08305100  0.83794800  1
  O  O27  1  0.74355100  0.09020800  0.44066500  1
  O  O28  1  0.77059900  0.44614900  0.77207800  1
  O  O29  1  0.62537500  0.88132600  0.87885000  1
  O  O30  1  0.05825000  0.15629800  0.72133200  1
loop_
_geom_bond_atom_site_label_1
_geom_bond_atom_site_label_2
_geom_bond_distance
_geom_bond_site_symmetry_2
Ca0 O14 2.264711 1_555
Ca0 O3 2.343764 1_555
Ca0 O29 2.361858 1_555
Ca0 O6 2.374571 1_555
Ca1 O14 2.256993 1_454
Ca1 O25 2.260117 1_555
Ca1 O9 2.317726 1_554
Ca1 O10 2.477853 1_555
Ca1 O8 2.516103 1_455
Al0 O5 1.704857 1_555
Al0 O7 1.769797 1_555
Al0 O10 1.812185 1_556
Al0 O29 1.835120 1_555
Al1 O11 1.761227 1_555
Al1 O16 1.805087 1_555
Al1 O3 1.831154 1_555
Al1 O6 1.869024 1_555
Al2 O24 1.767485 1_555
Al2 O13 1.807933 1_555
Al2 O23 1.846841 1_555
Al2 O18 2.026502 1_555
Al2 O21 2.145470 1_555
Al3 O15 1.706726 1_555
Al3 O21 1.798063 1_555
Al3 O12 1.917538 1_555
H0 O14 0.979621 1_554
H1 O2 0.981446 1_555
H2 O1 0.983362 1_555
H3 O12 1.009604 1_555
H4 Si4 1.472146 1_555
H5 Si2 1.467171 1_555
H6 Si3 1.473392 1_556
H7 O19 0.992281 1_555
H8 O26 1.016453 1_555
H8 O23 1.636200 1_556
H9 O22 0.989730 1_555
H10 O17 0.985859 1_555
H11 O18 0.985453 1_555
H12 O8 0.985719 1_545
H13 O30 1.031370 1_555
H13 O26 1.532190 1_555
O0 Si2 1.600886 1_555
O0 Si3 1.649470 1_555
O1 Si0 1.786064 1_565
O1 Si6 1.860890 1_555
O2 Si1 1.744033 1_565
O2 Si7 1.964676 1_555
O3 Si7 1.680424 1_555
O4 Si6 1.718562 1_555
O5 Si4 1.618250 1_555
O6 Si5 1.652579 1_555
O7 Si6 1.651267 1_555
O8 Si7 1.705194 1_555
O9 Si6 1.853138 1_555
O10 O9 1.524000 1_554
O11 Si7 1.704750 1_555
O12 Si2 1.718294 1_555
O13 Si3 1.640590 1_555
O15 Si4 1.621839 1_555
O16 Si5 1.656207 1_555
O17 Si5 1.672560 1_455
O20 Si0 1.745782 1_555
O21 Si1 1.665508 1_555
O22 Si2 1.647247 1_655
O23 Si3 1.660317 1_555
O24 Si1 1.610854 1_555
O25 Si0 1.590878 1_565
O26 Si6 1.686153 1_545
O27 Si1 1.615741 1_555
O27 Si7 1.830805 1_545
O28 Si5 1.625996 1_555
O28 Si4 1.655954 1_555
O29 O4 1.505994 1_555
