# generated using pymatgen
data_MgP3NO9
_symmetry_space_group_name_H-M   'P 1'
_cell_length_a   7.30093100
_cell_length_b   9.60901700
_cell_length_c   12.15474000
_cell_angle_alpha   90.00000000
_cell_angle_beta   90.00000000
_cell_angle_gamma   90.00000000
_symmetry_Int_Tables_number   1
_chemical_formula_structural   MgP3NO9
_chemical_formula_sum   'Mg4 P12 N4 O36'
_cell_volume   852.71299026
_cell_formula_units_Z   4
loop_
 _symmetry_equiv_pos_site_id
 _symmetry_equiv_pos_as_xyz
  1  'x, y, z'
loop_
 _atom_site_type_symbol
 _atom_site_label
 _atom_site_symmetry_multiplicity
 _atom_site_fract_x
 _atom_site_fract_y
 _atom_site_fract_z
 _atom_site_occupancy
  Mg  Mg0  1  0.75000000  0.99164400  0.28590000  1
  Mg  Mg1  1  0.75000000  0.49164400  0.21410000  1
  Mg  Mg2  1  0.25000000  0.00835600  0.71410000  1
  Mg  Mg3  1  0.25000000  0.50835600  0.78590000  1
  P  P0  1  0.95512100  0.24120500  0.84637700  1
  P  P1  1  0.54487900  0.74120500  0.65362300  1
  P  P2  1  0.45512100  0.75879500  0.15362300  1
  P  P3  1  0.04487900  0.25879500  0.34637700  1
  P  P4  1  0.04487900  0.75879500  0.15362300  1
  P  P5  1  0.45512100  0.25879500  0.34637700  1
  P  P6  1  0.54487900  0.24120500  0.84637700  1
  P  P7  1  0.95512100  0.74120500  0.65362300  1
  P  P8  1  0.75000000  0.20803100  0.04985300  1
  P  P9  1  0.75000000  0.70803100  0.45014700  1
  P  P10  1  0.25000000  0.79196900  0.95014700  1
  P  P11  1  0.25000000  0.29196900  0.54985300  1
  N  N0  1  0.75000000  0.60710600  0.91476200  1
  N  N1  1  0.75000000  0.10710600  0.58523800  1
  N  N2  1  0.25000000  0.39289400  0.08523800  1
  N  N3  1  0.25000000  0.89289400  0.41476200  1
  O  O0  1  0.92093800  0.17748200  0.96721100  1
  O  O1  1  0.57906200  0.67748200  0.53278900  1
  O  O2  1  0.42093800  0.82251800  0.03278900  1
  O  O3  1  0.07906200  0.32251800  0.46721100  1
  O  O4  1  0.07906200  0.82251800  0.03278900  1
  O  O5  1  0.42093800  0.32251800  0.46721100  1
  O  O6  1  0.57906200  0.17748200  0.96721100  1
  O  O7  1  0.92093800  0.67748200  0.53278900  1
  O  O8  1  0.75000000  0.27151200  0.80258900  1
  O  O9  1  0.75000000  0.77151200  0.69741100  1
  O  O10  1  0.25000000  0.72848800  0.19741100  1
  O  O11  1  0.25000000  0.22848800  0.30258900  1
  O  O12  1  0.05444800  0.37732000  0.85331900  1
  O  O13  1  0.44555200  0.87732000  0.64668100  1
  O  O14  1  0.55444800  0.62268000  0.14668100  1
  O  O15  1  0.94555200  0.12268000  0.35331900  1
  O  O16  1  0.94555200  0.62268000  0.14668100  1
  O  O17  1  0.55444800  0.12268000  0.35331900  1
  O  O18  1  0.44555200  0.37732000  0.85331900  1
  O  O19  1  0.05444800  0.87732000  0.64668100  1
  O  O20  1  0.04084700  0.13113000  0.77640600  1
  O  O21  1  0.45915300  0.63113000  0.72359400  1
  O  O22  1  0.54084700  0.86887000  0.22359400  1
  O  O23  1  0.95915300  0.36887000  0.27640600  1
  O  O24  1  0.95915300  0.86887000  0.22359400  1
  O  O25  1  0.54084700  0.36887000  0.27640600  1
  O  O26  1  0.45915300  0.13113000  0.77640600  1
  O  O27  1  0.04084700  0.63113000  0.72359400  1
  O  O28  1  0.75000000  0.35938000  0.07919300  1
  O  O29  1  0.75000000  0.85938000  0.42080700  1
  O  O30  1  0.25000000  0.64062000  0.92080700  1
  O  O31  1  0.25000000  0.14062000  0.57919300  1
  O  O32  1  0.75000000  0.09955200  0.13683000  1
  O  O33  1  0.75000000  0.59955200  0.36317000  1
  O  O34  1  0.25000000  0.90044800  0.86317000  1
  O  O35  1  0.25000000  0.40044800  0.63683000  1
loop_
_geom_bond_atom_site_label_1
_geom_bond_atom_site_label_2
_geom_bond_distance
_geom_bond_site_symmetry_2
Mg0 O15 2.072505 1_565
Mg0 O17 2.072505 1_565
Mg0 O22 2.072937 1_555
Mg0 O24 2.072937 1_555
Mg0 O29 2.074624 1_555
Mg0 O32 2.087618 1_565
Mg1 O14 2.072505 1_555
Mg1 O16 2.072505 1_555
Mg1 O25 2.072937 1_555
Mg1 O23 2.072937 1_555
Mg1 O28 2.074624 1_555
Mg1 O33 2.087618 1_555
Mg2 O19 2.072505 1_545
Mg2 O13 2.072505 1_545
Mg2 O26 2.072937 1_555
Mg2 O20 2.072937 1_555
Mg2 O31 2.074624 1_555
Mg2 O34 2.087618 1_545
Mg3 O18 2.072505 1_555
Mg3 O12 2.072505 1_555
Mg3 O27 2.072937 1_555
Mg3 O21 2.072937 1_555
Mg3 O30 2.074624 1_555
Mg3 O35 2.087618 1_555
O0 P0 1.610687 1_555
O0 P8 1.628709 1_556
O1 P1 1.610687 1_555
O1 P9 1.628709 1_555
O2 P2 1.610687 1_555
O2 P10 1.628709 1_554
O3 P3 1.610687 1_555
O3 P11 1.628709 1_555
O4 P4 1.610687 1_555
O4 P10 1.628709 1_554
O5 P5 1.610687 1_555
O5 P11 1.628709 1_555
O6 P6 1.610687 1_555
O6 P8 1.628709 1_556
O7 P7 1.610687 1_555
O7 P9 1.628709 1_555
O8 P6 1.615800 1_555
O8 P0 1.615800 1_555
O9 P1 1.615800 1_555
O9 P7 1.615800 1_555
O10 P2 1.615800 1_555
O10 P4 1.615800 1_555
O11 P5 1.615800 1_555
O11 P3 1.615800 1_555
O12 P0 1.497895 1_455
O13 P1 1.497895 1_555
O14 P2 1.497895 1_555
O15 P3 1.497895 1_655
O16 P4 1.497895 1_655
O17 P5 1.497895 1_555
O18 P6 1.497895 1_555
O19 P7 1.497895 1_455
O20 P0 1.494589 1_455
O21 P1 1.494589 1_555
O22 P2 1.494589 1_555
O23 P3 1.494589 1_655
O24 P4 1.494589 1_655
O25 P5 1.494589 1_555
O26 P6 1.494589 1_555
O27 P7 1.494589 1_455
O28 P8 1.497401 1_555
O29 P9 1.497401 1_555
O30 P10 1.497401 1_555
O31 P11 1.497401 1_555
O32 P8 1.484650 1_555
O33 P9 1.484650 1_555
O34 P10 1.484650 1_555
O35 P11 1.484650 1_555
