# generated using pymatgen
data_Li5Mn5(SnO6)2
_symmetry_space_group_name_H-M   'P 1'
_cell_length_a   5.39193776
_cell_length_b   5.39193776
_cell_length_c   10.26167550
_cell_angle_alpha   85.10378093
_cell_angle_beta   85.10378093
_cell_angle_gamma   119.68912411
_symmetry_Int_Tables_number   1
_chemical_formula_structural   Li5Mn5(SnO6)2
_chemical_formula_sum   'Li5 Mn5 Sn2 O12'
_cell_volume   255.40526078
_cell_formula_units_Z   1
loop_
 _symmetry_equiv_pos_site_id
 _symmetry_equiv_pos_as_xyz
  1  'x, y, z'
loop_
 _atom_site_type_symbol
 _atom_site_label
 _atom_site_symmetry_multiplicity
 _atom_site_fract_x
 _atom_site_fract_y
 _atom_site_fract_z
 _atom_site_occupancy
  Li  Li0  1  0.83411500  0.67198800  0.25525300  1
  Li  Li1  1  0.67143300  0.84429500  0.74226800  1
  Li  Li2  1  0.32801200  0.16588500  0.74474700  1
  Li  Li3  1  0.15570500  0.32856700  0.25773200  1
  Li  Li4  1  0.08504200  0.91495800  0.50000000  1
  Mn  Mn0  1  0.91882300  0.08117700  0.00000000  1
  Mn  Mn1  1  0.00436700  0.51227000  0.74329400  1
  Mn  Mn2  1  0.48773000  0.99563300  0.25670600  1
  Mn  Mn3  1  0.58237900  0.41762100  0.00000000  1
  Mn  Mn4  1  0.42181200  0.57818800  0.50000000  1
  Sn  Sn0  1  0.75304000  0.24696000  0.50000000  1
  Sn  Sn1  1  0.25167800  0.74832200  0.00000000  1
  O  O0  1  0.02601300  0.21617400  0.62555000  1
  O  O1  1  0.78382600  0.97398700  0.37445000  1
  O  O2  1  0.89092000  0.39070000  0.11810600  1
  O  O3  1  0.60930000  0.10908000  0.88189400  1
  O  O4  1  0.70003900  0.52661400  0.61812000  1
  O  O5  1  0.47338600  0.29996100  0.38188000  1
  O  O6  1  0.53063600  0.71333500  0.12189300  1
  O  O7  1  0.28666500  0.46936400  0.87810700  1
  O  O8  1  0.39336100  0.87404200  0.61448600  1
  O  O9  1  0.12595800  0.60663900  0.38551400  1
  O  O10  1  0.21182800  0.02606700  0.12337200  1
  O  O11  1  0.97393300  0.78817200  0.87662800  1
loop_
_geom_bond_atom_site_label_1
_geom_bond_atom_site_label_2
_geom_bond_distance
_geom_bond_site_symmetry_2
Li0 O5 2.180399 1_555
Li0 O10 2.204769 1_665
Li0 O1 2.223053 1_555
Li0 O2 2.264016 1_555
Li0 O9 2.283646 1_655
Li0 O6 2.300358 1_555
Li1 O0 2.124161 1_665
Li1 O8 2.128636 1_555
Li1 O3 2.223632 1_565
Li1 O4 2.276300 1_555
Li1 O7 2.281395 1_555
Li1 O11 2.335488 1_555
Li2 O4 2.180399 1_555
Li2 O11 2.204769 1_445
Li2 O0 2.223053 1_555
Li2 O3 2.264016 1_555
Li2 O8 2.283646 1_545
Li2 O7 2.300358 1_555
Li3 O1 2.124161 1_445
Li3 O9 2.128636 1_555
Li3 O2 2.223632 1_455
Li3 O5 2.276300 1_555
Li3 O6 2.281395 1_555
Li3 O10 2.335488 1_555
Li4 O8 2.201141 1_555
Li4 O9 2.201141 1_555
Li4 O4 2.234832 1_455
Li4 O5 2.234832 1_565
Li4 O0 2.279964 1_565
Li4 O1 2.279964 1_455
Mn0 O2 2.199932 1_555
Mn0 O3 2.199932 1_554
Mn0 O7 2.212837 1_654
Mn0 O6 2.212837 1_545
Mn0 O11 2.220198 1_544
Mn0 O10 2.220198 1_655
Mn1 O0 2.124194 1_555
Mn1 O11 2.159404 1_455
Mn1 O4 2.194784 1_455
Mn1 O7 2.222132 1_555
Mn1 O8 2.232746 1_555
Mn1 O3 2.377882 1_455
Mn2 O1 2.124194 1_555
Mn2 O10 2.159404 1_565
Mn2 O5 2.194784 1_565
Mn2 O6 2.222132 1_555
Mn2 O9 2.232746 1_555
Mn2 O2 2.377882 1_565
Mn3 O2 2.193393 1_555
Mn3 O3 2.193393 1_554
Mn3 O6 2.215014 1_555
Mn3 O7 2.215014 1_554
Mn3 O10 2.232817 1_555
Mn3 O11 2.232817 1_554
Mn4 O5 2.112629 1_555
Mn4 O4 2.112629 1_555
Mn4 O9 2.116611 1_555
Mn4 O8 2.116611 1_555
Mn4 O1 2.235919 1_555
Mn4 O0 2.235919 1_555
O0 Sn0 2.093555 1_455
O1 Sn0 2.093555 1_565
O2 Sn1 2.110436 1_655
O3 Sn1 2.110436 1_546
O4 Sn0 2.122333 1_555
O5 Sn0 2.122333 1_555
O6 Sn1 2.103450 1_555
O7 Sn1 2.103450 1_556
O8 Sn0 2.128241 1_565
O9 Sn0 2.128241 1_455
O10 Sn1 2.118408 1_545
O11 Sn1 2.118408 1_656
