# generated using pymatgen
data_Na3Ni2P2(CO7)2
_symmetry_space_group_name_H-M   'P 1'
_cell_length_a   8.86216649
_cell_length_b   5.17153966
_cell_length_c   6.51292314
_cell_angle_alpha   90.02195037
_cell_angle_beta   89.07676735
_cell_angle_gamma   88.36052030
_symmetry_Int_Tables_number   1
_chemical_formula_structural   Na3Ni2P2(CO7)2
_chemical_formula_sum   'Na3 Ni2 P2 C2 O14'
_cell_volume   298.33304367
_cell_formula_units_Z   1
loop_
 _symmetry_equiv_pos_site_id
 _symmetry_equiv_pos_as_xyz
  1  'x, y, z'
loop_
 _atom_site_type_symbol
 _atom_site_label
 _atom_site_symmetry_multiplicity
 _atom_site_fract_x
 _atom_site_fract_y
 _atom_site_fract_z
 _atom_site_occupancy
  Na  Na0  1  0.25586400  0.24461200  0.47378400  1
  Na  Na1  1  0.74478600  0.75303000  0.51237900  1
  Na  Na2  1  0.74649100  0.75383800  0.98573200  1
  Ni  Ni0  1  0.34247400  0.78294800  0.75931300  1
  Ni  Ni1  1  0.65340200  0.22071400  0.25005300  1
  P  P0  1  0.42210700  0.71892500  0.25195000  1
  P  P1  1  0.57340900  0.28014700  0.75168200  1
  C  C0  1  0.07041000  0.71090200  0.74928400  1
  C  C1  1  0.92759900  0.28428200  0.24750900  1
  O  O0  1  0.06501800  0.32147300  0.25075200  1
  O  O1  1  0.12731900  0.93876100  0.75180500  1
  O  O2  1  0.17269600  0.52621700  0.75217800  1
  O  O3  1  0.32397800  0.78502800  0.06663300  1
  O  O4  1  0.32108800  0.78951000  0.44133600  1
  O  O5  1  0.42535700  0.13484800  0.74509600  1
  O  O6  1  0.46521800  0.42469400  0.25979200  1
  O  O7  1  0.53871200  0.57937500  0.75174400  1
  O  O8  1  0.57271400  0.86626400  0.25110500  1
  O  O9  1  0.67774700  0.21207600  0.56352900  1
  O  O10  1  0.67320400  0.20790300  0.93728600  1
  O  O11  1  0.82616200  0.47402300  0.24627100  1
  O  O12  1  0.86832900  0.05691900  0.24605800  1
  O  O13  1  0.93120600  0.67249700  0.74488600  1
loop_
_geom_bond_atom_site_label_1
_geom_bond_atom_site_label_2
_geom_bond_distance
_geom_bond_site_symmetry_2
Na0 O0 2.273695 1_555
Na0 O5 2.395491 1_555
Na0 O4 2.415769 1_545
Na0 O2 2.417680 1_555
Na0 O6 2.503706 1_555
Na0 O1 2.667800 1_545
Na0 O4 2.899898 1_555
Na1 O13 2.288597 1_555
Na1 O11 2.346076 1_555
Na1 O8 2.365853 1_555
Na1 O9 2.451941 1_565
Na1 O7 2.564234 1_555
Na1 O12 2.591620 1_565
Na1 O9 2.894781 1_555
Na2 O13 2.279150 1_555
Na2 O11 2.335367 1_556
Na2 O8 2.357795 1_556
Na2 O10 2.440369 1_565
Na2 O12 2.578963 1_566
Na2 O7 2.590665 1_555
Ni0 O5 1.983540 1_565
Ni0 O3 2.005618 1_556
Ni0 O7 2.006905 1_555
Ni0 O2 2.035993 1_555
Ni0 O1 2.049992 1_555
Ni0 O4 2.082854 1_555
Ni1 O6 1.947813 1_555
Ni1 O8 1.986532 1_545
Ni1 O10 2.042640 1_554
Ni1 O11 2.043115 1_555
Ni1 O9 2.056835 1_555
Ni1 O12 2.062093 1_555
C0 O13 1.255911 1_455
C0 O1 1.295171 1_555
C0 O2 1.298193 1_555
C1 O0 1.238861 1_655
C1 O12 1.301547 1_555
C1 O11 1.311793 1_555
O3 P0 1.531992 1_555
O4 P0 1.549678 1_555
O5 P1 1.531725 1_555
O6 P0 1.559278 1_555
O7 P1 1.569070 1_555
O8 P0 1.555643 1_555
O9 P1 1.557280 1_555
O10 P1 1.548837 1_555
