# generated using pymatgen
data_Co3SbO8
_symmetry_space_group_name_H-M   'P 1'
_cell_length_a   5.70125691
_cell_length_b   5.70125691
_cell_length_c   9.14143700
_cell_angle_alpha   90.00000000
_cell_angle_beta   90.00000000
_cell_angle_gamma   119.99998732
_symmetry_Int_Tables_number   1
_chemical_formula_structural   Co3SbO8
_chemical_formula_sum   'Co6 Sb2 O16'
_cell_volume   257.32760658
_cell_formula_units_Z   2
loop_
 _symmetry_equiv_pos_site_id
 _symmetry_equiv_pos_as_xyz
  1  'x, y, z'
loop_
 _atom_site_type_symbol
 _atom_site_label
 _atom_site_symmetry_multiplicity
 _atom_site_fract_x
 _atom_site_fract_y
 _atom_site_fract_z
 _atom_site_occupancy
  Co  Co0  1  0.17017500  0.34034900  0.21447500  1
  Co  Co1  1  0.65965100  0.82982500  0.21447500  1
  Co  Co2  1  0.17017500  0.82982500  0.21447500  1
  Co  Co3  1  0.82982500  0.17017500  0.71447500  1
  Co  Co4  1  0.34034900  0.17017500  0.71447500  1
  Co  Co5  1  0.82982500  0.65965100  0.71447500  1
  Sb  Sb0  1  0.33333300  0.66666700  0.49347800  1
  Sb  Sb1  1  0.66666700  0.33333300  0.99347800  1
  O  O0  1  0.15890200  0.31780500  0.60103700  1
  O  O1  1  0.48487400  0.51512600  0.33268000  1
  O  O2  1  0.33333300  0.66666700  0.11149000  1
  O  O3  1  0.00000000  0.00000000  0.30606300  1
  O  O4  1  0.00000000  0.00000000  0.80606300  1
  O  O5  1  0.68219500  0.84109800  0.60103700  1
  O  O6  1  0.03025200  0.51512600  0.33268000  1
  O  O7  1  0.48487400  0.96974800  0.33268000  1
  O  O8  1  0.84109800  0.15890200  0.10103700  1
  O  O9  1  0.15890200  0.84109800  0.60103700  1
  O  O10  1  0.51512600  0.03025200  0.83268000  1
  O  O11  1  0.96974800  0.48487400  0.83268000  1
  O  O12  1  0.66666700  0.33333300  0.61149000  1
  O  O13  1  0.31780500  0.15890200  0.10103700  1
  O  O14  1  0.51512600  0.48487400  0.83268000  1
  O  O15  1  0.84109800  0.68219500  0.10103700  1
loop_
_geom_bond_atom_site_label_1
_geom_bond_atom_site_label_2
_geom_bond_distance
_geom_bond_site_symmetry_2
Co0 O2 1.866058 1_555
Co0 O3 1.877470 1_555
Co0 O1 1.895205 1_555
Co0 O6 1.895208 1_555
Co0 O13 1.929921 1_555
Co0 O8 1.929921 1_455
Co1 O2 1.866058 1_555
Co1 O3 1.877470 1_665
Co1 O1 1.895205 1_555
Co1 O7 1.895208 1_555
Co1 O15 1.929921 1_555
Co1 O8 1.929921 1_565
Co2 O2 1.866049 1_555
Co2 O3 1.877475 1_565
Co2 O6 1.895205 1_555
Co2 O7 1.895205 1_555
Co2 O13 1.929921 1_565
Co2 O15 1.929921 1_455
Co3 O12 1.866049 1_555
Co3 O4 1.877475 1_655
Co3 O11 1.895205 1_555
Co3 O10 1.895205 1_555
Co3 O0 1.929921 1_655
Co3 O5 1.929921 1_545
Co4 O12 1.866058 1_555
Co4 O4 1.877470 1_555
Co4 O14 1.895205 1_555
Co4 O10 1.895208 1_555
Co4 O0 1.929921 1_555
Co4 O9 1.929921 1_545
Co5 O12 1.866058 1_555
Co5 O4 1.877470 1_665
Co5 O14 1.895205 1_555
Co5 O11 1.895208 1_555
Co5 O5 1.929921 1_555
Co5 O9 1.929921 1_655
O0 Sb0 1.983360 1_555
O1 Sb0 2.097625 1_555
O5 Sb0 1.983360 1_555
O6 Sb0 2.097622 1_555
O7 Sb0 2.097622 1_555
O8 Sb1 1.983360 1_554
O9 Sb0 1.983360 1_555
O10 Sb1 2.097622 1_555
O11 Sb1 2.097622 1_555
O13 Sb1 1.983360 1_554
O14 Sb1 2.097625 1_555
O15 Sb1 1.983360 1_554
