# generated using pymatgen
data_LiVSiO4
_symmetry_space_group_name_H-M   'P 1'
_cell_length_a   4.86206000
_cell_length_b   9.46680600
_cell_length_c   5.55035800
_cell_angle_alpha   89.99859598
_cell_angle_beta   89.99880027
_cell_angle_gamma   89.99988660
_symmetry_Int_Tables_number   1
_chemical_formula_structural   LiVSiO4
_chemical_formula_sum   'Li4 V4 Si4 O16'
_cell_volume   255.47287025
_cell_formula_units_Z   4
loop_
 _symmetry_equiv_pos_site_id
 _symmetry_equiv_pos_as_xyz
  1  'x, y, z'
loop_
 _atom_site_type_symbol
 _atom_site_label
 _atom_site_symmetry_multiplicity
 _atom_site_fract_x
 _atom_site_fract_y
 _atom_site_fract_z
 _atom_site_occupancy
  Li  Li0  1  0.05743600  0.61026700  0.25000300  1
  Li  Li1  1  0.44258000  0.11029500  0.25000000  1
  Li  Li2  1  0.55743100  0.88973000  0.74999400  1
  Li  Li3  1  0.94258500  0.38970500  0.74999900  1
  V  V0  1  0.47920000  0.22377100  0.75000300  1
  V  V1  1  0.97919500  0.27621200  0.25000000  1
  V  V2  1  0.02066900  0.72403000  0.75000000  1
  V  V3  1  0.52067000  0.77595700  0.24999400  1
  Si  Si0  1  0.00005200  0.00002500  0.00007900  1
  Si  Si1  1  0.00005600  0.00002500  0.49992500  1
  Si  Si2  1  0.50006800  0.49996800  0.50006200  1
  Si  Si3  1  0.50006400  0.49996800  0.99993400  1
  O  O0  1  0.27503700  0.43275400  0.25000400  1
  O  O1  1  0.22469900  0.93277800  0.25000000  1
  O  O2  1  0.77501600  0.06726200  0.75000800  1
  O  O3  1  0.72471700  0.56723700  0.74999300  1
  O  O4  1  0.18755000  0.92630300  0.75000800  1
  O  O5  1  0.31258000  0.42614600  0.75000000  1
  O  O6  1  0.68757800  0.57369600  0.24999200  1
  O  O7  1  0.81254500  0.07384700  0.25000100  1
  O  O8  1  0.30349400  0.65992600  0.99567600  1
  O  O9  1  0.30351200  0.65993000  0.50431500  1
  O  O10  1  0.19656100  0.15987900  0.99559200  1
  O  O11  1  0.19656300  0.15987700  0.50440400  1
  O  O12  1  0.80349200  0.84008000  0.49568600  1
  O  O13  1  0.80347500  0.84007600  0.00433000  1
  O  O14  1  0.69659100  0.34012700  0.49558800  1
  O  O15  1  0.69658500  0.34012700  0.00441000  1
loop_
_geom_bond_atom_site_label_1
_geom_bond_atom_site_label_2
_geom_bond_distance
_geom_bond_site_symmetry_2
Li0 O6 1.831296 1_455
Li0 O8 1.909132 1_554
Li0 O9 1.909189 1_555
Li0 O0 1.985787 1_555
Li1 O7 1.831586 1_555
Li1 O11 1.909160 1_555
Li1 O10 1.909207 1_554
Li1 O1 1.986548 1_545
Li2 O4 1.831408 1_555
Li2 O12 1.909058 1_555
Li2 O13 1.909151 1_556
Li2 O2 1.985902 1_565
Li3 O5 1.831718 1_655
Li3 O15 1.909112 1_556
Li3 O14 1.909147 1_555
Li3 O3 1.986631 1_555
O0 Si3 1.878378 1_554
O0 Si2 1.878397 1_555
O0 V1 2.065234 1_455
O1 Si1 1.876823 1_565
O1 Si0 1.876829 1_565
O1 V3 2.067562 1_555
O2 Si0 1.878513 1_656
O2 Si1 1.878563 1_655
O2 V0 2.064918 1_555
O3 Si3 1.876966 1_555
O3 Si2 1.876971 1_555
O3 V2 2.067312 1_655
O4 Si0 1.801287 1_566
O4 Si1 1.801331 1_565
O4 V2 2.079691 1_555
O5 Si2 1.801036 1_555
O5 Si3 1.801064 1_555
O5 V0 2.080083 1_555
O6 Si2 1.801309 1_555
O6 Si3 1.801323 1_554
O6 V3 2.079635 1_555
O7 Si0 1.801039 1_655
O7 Si1 1.801060 1_655
O7 V1 2.080055 1_555
O8 Si3 1.790827 1_555
O8 V2 2.029439 1_555
O8 V3 2.077061 1_556
O9 Si2 1.790822 1_555
O9 V2 2.029502 1_555
O9 V3 2.076941 1_555
O10 Si0 1.789856 1_556
O10 V0 2.027866 1_555
O10 V1 2.079351 1_456
O11 Si1 1.789835 1_555
O11 V0 2.027961 1_555
O11 V1 2.079344 1_455
O12 Si1 1.790710 1_665
O12 V3 2.029565 1_555
O12 V2 2.077105 1_655
O13 Si0 1.790775 1_665
O13 V3 2.029334 1_555
O13 V2 2.077194 1_654
O14 Si2 1.789785 1_555
O14 V1 2.027830 1_555
O14 V0 2.079520 1_555
O15 Si3 1.789779 1_554
O15 V1 2.027876 1_555
O15 V0 2.079542 1_554
