# generated using pymatgen
data_FeSeO4
_symmetry_space_group_name_H-M   'P 1'
_cell_length_a   5.06394133
_cell_length_b   9.39974545
_cell_length_c   6.73819000
_cell_angle_alpha   89.99814478
_cell_angle_beta   90.00123492
_cell_angle_gamma   96.94746932
_symmetry_Int_Tables_number   1
_chemical_formula_structural   FeSeO4
_chemical_formula_sum   'Fe4 Se4 O16'
_cell_volume   318.38120757
_cell_formula_units_Z   4
loop_
 _symmetry_equiv_pos_site_id
 _symmetry_equiv_pos_as_xyz
  1  'x, y, z'
loop_
 _atom_site_type_symbol
 _atom_site_label
 _atom_site_symmetry_multiplicity
 _atom_site_fract_x
 _atom_site_fract_y
 _atom_site_fract_z
 _atom_site_occupancy
  Fe  Fe0  1  0.49983000  0.49990500  0.00010400  1
  Fe  Fe1  1  0.99984600  0.99995700  0.49993800  1
  Fe  Fe2  1  0.00016300  0.00003100  0.99998600  1
  Fe  Fe3  1  0.50018500  0.50001500  0.50005900  1
  Se  Se0  1  0.52302900  0.17430600  0.25001700  1
  Se  Se1  1  0.02296000  0.67430000  0.24989600  1
  Se  Se2  1  0.97696700  0.32569500  0.75001900  1
  Se  Se3  1  0.47704400  0.82570000  0.75006200  1
  O  O0  1  0.57583500  0.35652300  0.24992400  1
  O  O1  1  0.07578500  0.85650500  0.25006200  1
  O  O2  1  0.67750100  0.39045000  0.75005900  1
  O  O3  1  0.17758200  0.89045600  0.74993000  1
  O  O4  1  0.82253500  0.10960000  0.24996200  1
  O  O5  1  0.32240300  0.60955300  0.25002400  1
  O  O6  1  0.92415800  0.14348300  0.75008400  1
  O  O7  1  0.42417100  0.64349400  0.74992200  1
  O  O8  1  0.36461100  0.12149000  0.04232700  1
  O  O9  1  0.86452200  0.62154200  0.04228100  1
  O  O10  1  0.36463600  0.12153300  0.45778500  1
  O  O11  1  0.86445500  0.62144800  0.45769400  1
  O  O12  1  0.13542000  0.37850200  0.54226400  1
  O  O13  1  0.63553600  0.87851000  0.54223900  1
  O  O14  1  0.13536900  0.37850700  0.95768800  1
  O  O15  1  0.63545700  0.87849500  0.95767100  1
loop_
_geom_bond_atom_site_label_1
_geom_bond_atom_site_label_2
_geom_bond_distance
_geom_bond_site_symmetry_2
Fe0 O14 2.068961 1_554
Fe0 O9 2.070702 1_555
Fe0 O0 2.218898 1_555
Fe0 O5 2.220275 1_555
Fe0 O2 2.220553 1_554
Fe0 O7 2.221540 1_554
Fe1 O13 2.068428 1_555
Fe1 O10 2.070835 1_665
Fe1 O1 2.219594 1_655
Fe1 O4 2.220186 1_565
Fe1 O3 2.220575 1_655
Fe1 O6 2.221099 1_565
Fe2 O8 2.069091 1_556
Fe2 O15 2.070466 1_445
Fe2 O6 2.219731 1_455
Fe2 O1 2.220580 1_546
Fe2 O3 2.220599 1_545
Fe2 O4 2.220649 1_456
Fe3 O11 2.068262 1_555
Fe3 O12 2.070516 1_555
Fe3 O7 2.219781 1_555
Fe3 O2 2.219944 1_555
Fe3 O0 2.220794 1_555
Fe3 O5 2.221081 1_555
O0 Se0 1.701284 1_555
O1 Se1 1.701176 1_555
O2 Se2 1.701030 1_555
O3 Se3 1.701015 1_555
O4 Se0 1.701005 1_555
O5 Se1 1.700886 1_555
O6 Se2 1.701238 1_555
O7 Se3 1.701194 1_555
O8 Se0 1.658960 1_555
O9 Se1 1.658448 1_655
O10 Se0 1.659251 1_555
O11 Se1 1.659854 1_655
O12 Se2 1.659390 1_455
O13 Se3 1.659872 1_555
O14 Se2 1.658795 1_455
O15 Se3 1.658440 1_555
