# generated using pymatgen
data_Li4V3Fe2Ni3O16
_symmetry_space_group_name_H-M   'P 1'
_cell_length_a   5.87215700
_cell_length_b   5.87260003
_cell_length_c   9.62342914
_cell_angle_alpha   90.42546833
_cell_angle_beta   92.20039705
_cell_angle_gamma   119.57666316
_symmetry_Int_Tables_number   1
_chemical_formula_structural   Li4V3Fe2Ni3O16
_chemical_formula_sum   'Li4 V3 Fe2 Ni3 O16'
_cell_volume   288.27365486
_cell_formula_units_Z   1
loop_
 _symmetry_equiv_pos_site_id
 _symmetry_equiv_pos_as_xyz
  1  'x, y, z'
loop_
 _atom_site_type_symbol
 _atom_site_label
 _atom_site_symmetry_multiplicity
 _atom_site_fract_x
 _atom_site_fract_y
 _atom_site_fract_z
 _atom_site_occupancy
  Li  Li0  1  0.32595500  0.66219800  0.89056400  1
  Li  Li1  1  0.98053800  0.98283000  0.98649300  1
  Li  Li2  1  0.00769900  0.00726500  0.49862000  1
  Li  Li3  1  0.63243700  0.31181200  0.40747100  1
  V  V0  1  0.12686000  0.78046200  0.23967900  1
  V  V1  1  0.20449500  0.32969700  0.19370000  1
  V  V2  1  0.34937800  0.18263300  0.72128800  1
  Fe  Fe0  1  0.34573100  0.67861100  0.50952600  1
  Fe  Fe1  1  0.70506600  0.34716000  0.97709500  1
  Ni  Ni0  1  0.65892100  0.83849800  0.21127900  1
  Ni  Ni1  1  0.83934600  0.66423000  0.70915500  1
  Ni  Ni2  1  0.83058600  0.16770300  0.71092700  1
  O  O0  1  0.18730400  0.85507100  0.60273700  1
  O  O1  1  0.99919800  0.51917300  0.34553100  1
  O  O2  1  0.29046500  0.64699800  0.11139900  1
  O  O3  1  0.02749800  0.01542700  0.30687500  1
  O  O4  1  0.01776600  0.02619200  0.80257500  1
  O  O5  1  0.20293800  0.33785400  0.60094500  1
  O  O6  1  0.44831500  0.95412200  0.32881200  1
  O  O7  1  0.44685100  0.49916900  0.33412500  1
  O  O8  1  0.34313200  0.19745700  0.09148900  1
  O  O9  1  0.68860900  0.85793700  0.59253200  1
  O  O10  1  0.51148800  0.47375500  0.84010000  1
  O  O11  1  0.49326900  0.03457500  0.84433600  1
  O  O12  1  0.64729700  0.30655800  0.60919300  1
  O  O13  1  0.85990600  0.68065700  0.10073400  1
  O  O14  1  0.96425500  0.46448400  0.83688200  1
  O  O15  1  0.86469500  0.17777100  0.10377500  1
loop_
_geom_bond_atom_site_label_1
_geom_bond_atom_site_label_2
_geom_bond_distance
_geom_bond_site_symmetry_2
Li0 O14 1.896989 1_455
Li0 O10 1.967318 1_555
Li0 O11 1.967846 1_565
Li0 O2 2.141564 1_556
Li1 O4 1.796304 1_665
Li1 O13 1.925437 1_556
Li1 O15 1.963600 1_566
Li1 O8 2.075992 1_666
Li2 O3 1.852843 1_555
Li2 O9 1.901694 1_445
Li2 O5 1.934127 1_555
Li2 O0 1.943653 1_545
Li3 O12 1.941027 1_555
Li3 O6 1.955996 1_545
Li3 O1 1.999225 1_555
Li3 O7 2.008135 1_555
Fe0 O9 1.889939 1_555
Fe0 O0 1.935444 1_555
Fe0 O5 1.976854 1_555
Fe0 O7 2.231710 1_555
Fe0 O6 2.272708 1_555
Fe0 O1 2.314900 1_455
Fe1 O14 1.936025 1_555
Fe1 O11 2.034252 1_555
Fe1 O13 2.050007 1_556
Fe1 O15 2.050643 1_556
Fe1 O10 2.077653 1_555
Fe1 O8 2.202580 1_556
Ni0 O6 2.048125 1_555
Ni0 O3 2.055047 1_665
Ni0 O15 2.061571 1_565
Ni0 O2 2.071749 1_555
Ni0 O13 2.132032 1_555
Ni0 O7 2.148883 1_555
Ni1 O4 2.031043 1_665
Ni1 O12 2.038979 1_555
Ni1 O14 2.055822 1_555
Ni1 O9 2.067320 1_555
Ni1 O0 2.096880 1_655
Ni1 O10 2.151051 1_555
Ni2 O4 1.874777 1_655
Ni2 O12 1.891881 1_555
Ni2 O14 1.915213 1_555
Ni2 O9 1.923945 1_545
Ni2 O11 2.205547 1_555
Ni2 O5 2.221736 1_655
O0 V2 1.996117 1_565
O1 V0 1.703078 1_655
O1 V1 2.502340 1_655
O2 V1 1.865029 1_555
O2 V0 1.970100 1_555
O3 V0 1.863626 1_545
O3 V1 1.973779 1_555
O4 V2 1.899856 1_555
O5 V2 1.903844 1_555
O6 V0 1.816941 1_555
O7 V1 1.810027 1_555
O8 V1 1.705175 1_555
O8 V0 2.600823 1_545
O10 V2 1.848558 1_555
O11 V2 1.880386 1_555
O12 V2 1.911425 1_555
O13 V0 1.873284 1_655
O15 V1 1.903912 1_655
