# generated using pymatgen
data_NaBeO2
_symmetry_space_group_name_H-M   'P 1'
_cell_length_a   7.58641920
_cell_length_b   7.58641920
_cell_length_c   4.39431107
_cell_angle_alpha   78.61106284
_cell_angle_beta   78.61106284
_cell_angle_gamma   134.02510726
_symmetry_Int_Tables_number   1
_chemical_formula_structural   NaBeO2
_chemical_formula_sum   'Na4 Be4 O8'
_cell_volume   156.89039630
_cell_formula_units_Z   4
loop_
 _symmetry_equiv_pos_site_id
 _symmetry_equiv_pos_as_xyz
  1  'x, y, z'
loop_
 _atom_site_type_symbol
 _atom_site_label
 _atom_site_symmetry_multiplicity
 _atom_site_fract_x
 _atom_site_fract_y
 _atom_site_fract_z
 _atom_site_occupancy
  Na  Na0  1  0.56918800  0.43081200  0.25000000  1
  Na  Na1  1  0.30873100  0.69126900  0.25000000  1
  Na  Na2  1  0.69126900  0.30873100  0.75000000  1
  Na  Na3  1  0.43081200  0.56918800  0.75000000  1
  Be  Be0  1  0.01421900  0.98578100  0.25000000  1
  Be  Be1  1  0.85462400  0.14537600  0.25000000  1
  Be  Be2  1  0.14537600  0.85462400  0.75000000  1
  Be  Be3  1  0.98578100  0.01421900  0.75000000  1
  O  O0  1  0.57862600  0.99647300  0.57933000  1
  O  O1  1  0.22780200  0.09567400  0.86565800  1
  O  O2  1  0.99647300  0.57862600  0.07933000  1
  O  O3  1  0.09567400  0.22780200  0.36565800  1
  O  O4  1  0.90432600  0.77219800  0.63434200  1
  O  O5  1  0.00352700  0.42137400  0.92067000  1
  O  O6  1  0.77219800  0.90432600  0.13434200  1
  O  O7  1  0.42137400  0.00352700  0.42067000  1
loop_
_geom_bond_atom_site_label_1
_geom_bond_atom_site_label_2
_geom_bond_distance
_geom_bond_site_symmetry_2
Na0 O1 2.419656 1_555
Na0 O4 2.419656 1_554
Na0 O2 2.446003 1_555
Na0 O7 2.446003 1_555
Na0 O3 2.610481 1_555
Na0 O6 2.610481 1_555
Na1 O7 2.246221 1_565
Na1 O2 2.246221 1_455
Na1 O6 2.510788 1_555
Na1 O3 2.510788 1_555
Na1 O0 2.563469 1_554
Na1 O5 2.563469 1_555
Na2 O5 2.246221 1_655
Na2 O0 2.246221 1_545
Na2 O4 2.510788 1_555
Na2 O1 2.510788 1_555
Na2 O2 2.563469 1_555
Na2 O7 2.563469 1_556
Na3 O6 2.419656 1_555
Na3 O3 2.419656 1_556
Na3 O0 2.446003 1_555
Na3 O5 2.446003 1_555
Na3 O1 2.610481 1_555
Na3 O4 2.610481 1_555
Be0 O1 1.630480 1_564
Be0 O4 1.630480 1_455
Be0 O3 1.710809 1_565
Be0 O6 1.710809 1_455
Be1 O0 1.620059 1_545
Be1 O5 1.620059 1_654
Be1 O6 1.701950 1_545
Be1 O3 1.701950 1_655
Be2 O2 1.620059 1_456
Be2 O7 1.620059 1_565
Be2 O4 1.701950 1_455
Be2 O1 1.701950 1_565
Be3 O3 1.630480 1_655
Be3 O6 1.630480 1_546
Be3 O1 1.710809 1_655
Be3 O4 1.710809 1_545
