# generated using pymatgen
data_Li2MnF4
_symmetry_space_group_name_H-M   'P 1'
_cell_length_a   6.68670065
_cell_length_b   6.68670065
_cell_length_c   8.28658643
_cell_angle_alpha   67.71872801
_cell_angle_beta   67.71872801
_cell_angle_gamma   33.49607757
_symmetry_Int_Tables_number   1
_chemical_formula_structural   Li2MnF4
_chemical_formula_sum   'Li4 Mn2 F8'
_cell_volume   187.76537006
_cell_formula_units_Z   2
loop_
 _symmetry_equiv_pos_site_id
 _symmetry_equiv_pos_as_xyz
  1  'x, y, z'
loop_
 _atom_site_type_symbol
 _atom_site_label
 _atom_site_symmetry_multiplicity
 _atom_site_fract_x
 _atom_site_fract_y
 _atom_site_fract_z
 _atom_site_occupancy
  Li  Li0  1  0.06458500  0.06458500  0.59080100  1
  Li  Li1  1  0.60851400  0.60851400  0.22648500  1
  Li  Li2  1  0.39148600  0.39148600  0.77351500  1
  Li  Li3  1  0.93541500  0.93541500  0.40919900  1
  Mn  Mn0  1  0.30648800  0.30648800  0.26207700  1
  Mn  Mn1  1  0.69351200  0.69351200  0.73792300  1
  F  F0  1  0.79287400  0.79287400  0.36205400  1
  F  F1  1  0.55106000  0.55106000  0.66049400  1
  F  F2  1  0.35248900  0.35248900  0.00669000  1
  F  F3  1  0.11842100  0.11842100  0.33460000  1
  F  F4  1  0.88157900  0.88157900  0.66540000  1
  F  F5  1  0.64751100  0.64751100  0.99331000  1
  F  F6  1  0.44894000  0.44894000  0.33950600  1
  F  F7  1  0.20712600  0.20712600  0.63794600  1
loop_
_geom_bond_atom_site_label_1
_geom_bond_atom_site_label_2
_geom_bond_distance
_geom_bond_site_symmetry_2
F0 Li3 2.012318 1_555
F0 Mn0 2.077300 1_565
F0 Mn0 2.077300 1_655
F1 Li2 1.880833 1_555
F1 Li0 1.999278 1_565
F1 Li0 1.999278 1_655
F1 Mn1 2.160208 1_555
F2 Li2 1.794087 1_554
F2 Mn0 1.959195 1_555
F3 Li0 1.955375 1_555
F3 Li1 2.149779 1_455
F3 Li1 2.149779 1_545
F3 Li3 2.174240 1_445
F3 Mn0 2.239513 1_555
F4 Li3 1.955375 1_555
F4 Li2 2.149779 1_565
F4 Li2 2.149779 1_655
F4 Li0 2.174240 1_665
F4 Mn1 2.239513 1_555
F5 Li1 1.794087 1_556
F5 Mn1 1.959195 1_555
F6 Li1 1.880833 1_555
F6 Li3 1.999278 1_455
F6 Li3 1.999278 1_545
F6 Mn0 2.160208 1_555
F7 Li0 2.012318 1_555
F7 Mn1 2.077300 1_455
F7 Mn1 2.077300 1_545
