# generated using pymatgen
data_Li5Fe5(NiO6)2
_symmetry_space_group_name_H-M   'P 1'
_cell_length_a   5.15512838
_cell_length_b   5.15512838
_cell_length_c   9.84090961
_cell_angle_alpha   84.99596121
_cell_angle_beta   84.99596121
_cell_angle_gamma   119.73923190
_symmetry_Int_Tables_number   1
_chemical_formula_structural   Li5Fe5(NiO6)2
_chemical_formula_sum   'Li5 Fe5 Ni2 O12'
_cell_volume   223.62596164
_cell_formula_units_Z   1
loop_
 _symmetry_equiv_pos_site_id
 _symmetry_equiv_pos_as_xyz
  1  'x, y, z'
loop_
 _atom_site_type_symbol
 _atom_site_label
 _atom_site_symmetry_multiplicity
 _atom_site_fract_x
 _atom_site_fract_y
 _atom_site_fract_z
 _atom_site_occupancy
  Li  Li0  1  0.83230800  0.65979600  0.76010400  1
  Li  Li1  1  0.68203300  0.84719300  0.23826100  1
  Li  Li2  1  0.34020400  0.16769200  0.23989600  1
  Li  Li3  1  0.15280700  0.31796700  0.76173900  1
  Li  Li4  1  0.08045000  0.91955000  0.00000000  1
  Fe  Fe0  1  0.91660600  0.08339400  0.50000000  1
  Fe  Fe1  1  0.00495600  0.51553200  0.23685400  1
  Fe  Fe2  1  0.48446800  0.99504400  0.76314600  1
  Fe  Fe3  1  0.57941300  0.42058700  0.50000000  1
  Fe  Fe4  1  0.42378900  0.57621100  0.00000000  1
  Ni  Ni0  1  0.75039400  0.24960600  0.00000000  1
  Ni  Ni1  1  0.24847400  0.75152600  0.50000000  1
  O  O0  1  0.05201900  0.23459900  0.12464200  1
  O  O1  1  0.76540100  0.94798100  0.87535800  1
  O  O2  1  0.85148100  0.35433800  0.62150200  1
  O  O3  1  0.64566200  0.14851900  0.37849800  1
  O  O4  1  0.71365500  0.54006500  0.12328900  1
  O  O5  1  0.45993500  0.28634500  0.87671100  1
  O  O6  1  0.55155100  0.72201400  0.61585300  1
  O  O7  1  0.27798600  0.44844900  0.38414700  1
  O  O8  1  0.37314700  0.85504800  0.12683300  1
  O  O9  1  0.14495200  0.62685300  0.87316700  1
  O  O10  1  0.21942300  0.05111300  0.61872800  1
  O  O11  1  0.94888700  0.78057700  0.38127200  1
loop_
_geom_bond_atom_site_label_1
_geom_bond_atom_site_label_2
_geom_bond_distance
_geom_bond_site_symmetry_2
Li0 O5 2.066874 1_555
Li0 O1 2.084841 1_555
Li0 O9 2.101400 1_655
Li0 O2 2.203490 1_555
Li0 O6 2.225392 1_555
Li0 O10 2.240460 1_665
Li1 O8 2.024962 1_555
Li1 O0 2.082280 1_665
Li1 O4 2.085639 1_555
Li1 O11 2.170986 1_555
Li1 O3 2.229459 1_565
Li1 O7 2.311003 1_555
Li2 O4 2.066874 1_555
Li2 O0 2.084841 1_555
Li2 O8 2.101400 1_545
Li2 O3 2.203490 1_555
Li2 O7 2.225392 1_555
Li2 O11 2.240460 1_445
Li3 O9 2.024962 1_555
Li3 O1 2.082280 1_445
Li3 O5 2.085639 1_555
Li3 O10 2.170986 1_555
Li3 O2 2.229459 1_455
Li3 O6 2.311003 1_555
Li4 O5 2.095314 1_564
Li4 O4 2.095314 1_455
Li4 O8 2.167745 1_555
Li4 O9 2.167745 1_554
Li4 O0 2.171657 1_565
Li4 O1 2.171657 1_454
Fe0 O6 2.022115 1_545
Fe0 O7 2.022115 1_655
Fe0 O3 2.044468 1_555
Fe0 O2 2.044468 1_555
Fe0 O10 2.090871 1_655
Fe0 O11 2.090871 1_545
Fe1 O8 1.962990 1_555
Fe1 O0 1.989104 1_555
Fe1 O4 1.994145 1_455
Fe1 O3 2.136847 1_455
Fe1 O11 2.151550 1_455
Fe1 O7 2.225550 1_555
Fe2 O9 1.962990 1_555
Fe2 O1 1.989104 1_555
Fe2 O5 1.994145 1_565
Fe2 O2 2.136847 1_565
Fe2 O10 2.151550 1_565
Fe2 O6 2.225550 1_555
Fe3 O11 2.040501 1_555
Fe3 O10 2.040501 1_555
Fe3 O2 2.051825 1_555
Fe3 O3 2.051825 1_555
Fe3 O6 2.058389 1_555
Fe3 O7 2.058389 1_555
Fe4 O0 2.035559 1_555
Fe4 O1 2.035559 1_554
Fe4 O4 2.071900 1_555
Fe4 O5 2.071900 1_554
Fe4 O8 2.078636 1_555
Fe4 O9 2.078636 1_554
Ni0 O4 2.075613 1_555
Ni0 O5 2.075613 1_554
Ni0 O0 2.088967 1_655
Ni0 O1 2.088967 1_544
Ni0 O8 2.164799 1_545
Ni0 O9 2.164799 1_654
Ni1 O6 2.068909 1_555
Ni1 O7 2.068909 1_555
Ni1 O10 2.070387 1_565
Ni1 O11 2.070387 1_455
Ni1 O2 2.190704 1_455
Ni1 O3 2.190704 1_565
