# generated using pymatgen
data_Yb
_symmetry_space_group_name_H-M   'P 1'
_cell_length_a   6.80284392
_cell_length_b   6.80284392
_cell_length_c   6.80284392
_cell_angle_alpha   109.47122063
_cell_angle_beta   109.47122063
_cell_angle_gamma   109.47122063
_symmetry_Int_Tables_number   1
_chemical_formula_structural   Yb
_chemical_formula_sum   Yb8
_cell_volume   242.35368588
_cell_formula_units_Z   8
loop_
 _symmetry_equiv_pos_site_id
 _symmetry_equiv_pos_as_xyz
  1  'x, y, z'
loop_
 _atom_site_type_symbol
 _atom_site_label
 _atom_site_symmetry_multiplicity
 _atom_site_fract_x
 _atom_site_fract_y
 _atom_site_fract_z
 _atom_site_occupancy
  Yb  Yb0_0  1  0.00000000  0.00000000  0.00000000  1
  Yb  Yb0_1  1  0.00000000  0.00000000  0.50000000  1
  Yb  Yb0_2  1  1.00000000  0.50000000  0.00000000  1
  Yb  Yb0_3  1  1.00000000  0.50000000  0.50000000  1
  Yb  Yb0_4  1  0.50000000  0.00000000  0.00000000  1
  Yb  Yb0_5  1  0.50000000  0.00000000  0.50000000  1
  Yb  Yb0_6  1  0.50000000  0.50000000  0.00000000  1
  Yb  Yb0_7  1  0.50000000  0.50000000  0.50000000  1
loop_
_geom_bond_atom_site_label_1
_geom_bond_atom_site_label_2
_geom_bond_distance
_geom_bond_site_symmetry_2
Yb0_0 Yb0_7 3.401422 1_555
Yb0_0 Yb0_1 3.401422 1_555
Yb0_0 Yb0_4 3.401422 1_555
Yb0_0 Yb0_2 3.401422 1_455
Yb0_0 Yb0_2 3.401422 1_445
Yb0_0 Yb0_7 3.401422 1_444
Yb0_0 Yb0_4 3.401422 1_455
Yb0_0 Yb0_1 3.401422 1_554
Yb0_1 Yb0_5 3.401422 1_555
Yb0_1 Yb0_6 3.401422 1_556
Yb0_1 Yb0_3 3.401422 1_445
Yb0_1 Yb0_3 3.401422 1_455
Yb0_1 Yb0_6 3.401422 1_445
Yb0_1 Yb0_5 3.401422 1_455
Yb0_2 Yb0_3 3.401422 1_555
Yb0_2 Yb0_5 3.401422 1_554
Yb0_2 Yb0_5 3.401422 1_665
Yb0_2 Yb0_6 3.401422 1_555
Yb0_2 Yb0_3 3.401422 1_554
Yb0_2 Yb0_6 3.401422 1_655
Yb0_3 Yb0_4 3.401422 1_555
Yb0_3 Yb0_4 3.401422 1_666
Yb0_3 Yb0_7 3.401422 1_555
Yb0_3 Yb0_7 3.401422 1_655
Yb0_4 Yb0_5 3.401422 1_555
Yb0_4 Yb0_5 3.401422 1_554
Yb0_4 Yb0_6 3.401422 1_555
Yb0_4 Yb0_6 3.401422 1_545
Yb0_5 Yb0_7 3.401422 1_555
Yb0_5 Yb0_7 3.401422 1_545
Yb0_6 Yb0_7 3.401422 1_555
Yb0_6 Yb0_7 3.401422 1_554
