# generated using pymatgen
data_LiFe2(BO3)2
_symmetry_space_group_name_H-M   'P 1'
_cell_length_a   5.25362200
_cell_length_b   5.27075832
_cell_length_c   20.15986901
_cell_angle_alpha   90.45727999
_cell_angle_beta   90.29283406
_cell_angle_gamma   119.56383538
_symmetry_Int_Tables_number   1
_chemical_formula_structural   LiFe2(BO3)2
_chemical_formula_sum   'Li4 Fe8 B8 O24'
_cell_volume   485.51757925
_cell_formula_units_Z   4
loop_
 _symmetry_equiv_pos_site_id
 _symmetry_equiv_pos_as_xyz
  1  'x, y, z'
loop_
 _atom_site_type_symbol
 _atom_site_label
 _atom_site_symmetry_multiplicity
 _atom_site_fract_x
 _atom_site_fract_y
 _atom_site_fract_z
 _atom_site_occupancy
  Li  Li0  1  0.67389300  0.64934800  0.32937400  1
  Li  Li1  1  0.64340100  0.67056900  0.08184300  1
  Li  Li2  1  0.66850200  0.64383000  0.83104200  1
  Li  Li3  1  0.34516000  0.35390200  0.45700100  1
  Fe  Fe0  1  0.01193000  0.67328600  0.18966200  1
  Fe  Fe1  1  0.99507100  0.67100300  0.69139300  1
  Fe  Fe2  1  0.31570800  0.01222700  0.06374600  1
  Fe  Fe3  1  0.32490100  0.99772200  0.56766700  1
  Fe  Fe4  1  0.67910000  0.00448300  0.44052500  1
  Fe  Fe5  1  0.67503700  0.01388400  0.94058900  1
  Fe  Fe6  1  0.00879300  0.31932200  0.31262200  1
  Fe  Fe7  1  0.01079700  0.31445700  0.81256100  1
  B  B0  1  0.99698700  0.34121600  0.06406300  1
  B  B1  1  0.99662200  0.33815000  0.56517400  1
  B  B2  1  0.66986600  0.00755100  0.18670100  1
  B  B3  1  0.66034800  0.00225800  0.68806700  1
  B  B4  1  0.34132100  0.99789800  0.31312700  1
  B  B5  1  0.34178500  0.99610900  0.81401200  1
  B  B6  1  0.00812200  0.66728100  0.43996600  1
  B  B7  1  0.00774400  0.66975000  0.93700100  1
  O  O0  1  0.89224400  0.27343700  0.20973100  1
  O  O1  1  0.88508200  0.27133200  0.70926600  1
  O  O2  1  0.74442100  0.08268400  0.04246300  1
  O  O3  1  0.96541000  0.57936700  0.08520200  1
  O  O4  1  0.72425900  0.10959100  0.54651100  1
  O  O5  1  0.01437900  0.59880200  0.58721200  1
  O  O6  1  0.40058500  0.97838200  0.16890700  1
  O  O7  1  0.74600400  0.66453000  0.43073500  1
  O  O8  1  0.39449500  0.98548500  0.66785400  1
  O  O9  1  0.77460700  0.71597000  0.92871600  1
  O  O10  1  0.71256300  0.77257600  0.17886900  1
  O  O11  1  0.69224400  0.76175200  0.68826600  1
  O  O12  1  0.35136500  0.26128600  0.31778100  1
  O  O13  1  0.35454700  0.25902100  0.81460700  1
  O  O14  1  0.26283700  0.35686600  0.06494400  1
  O  O15  1  0.58402000  0.97150600  0.33113400  1
  O  O16  1  0.24161500  0.30994100  0.55834700  1
  O  O17  1  0.58089100  0.96735800  0.83588600  1
  O  O18  1  0.02974500  0.42197000  0.42366200  1
  O  O19  1  0.97719000  0.40156600  0.91856200  1
  O  O20  1  0.25611400  0.91950200  0.46460100  1
  O  O21  1  0.27287700  0.88835600  0.96165900  1
  O  O22  1  0.07962100  0.74593200  0.29166900  1
  O  O23  1  0.08601500  0.74170300  0.79171600  1
loop_
_geom_bond_atom_site_label_1
_geom_bond_atom_site_label_2
_geom_bond_distance
_geom_bond_site_symmetry_2
Li0 O12 1.917727 1_555
Li0 O15 1.974286 1_555
Li0 O7 2.070041 1_555
Li0 O22 2.081439 1_655
Li1 O14 1.889244 1_555
Li1 O3 1.974683 1_555
Li1 O10 2.007568 1_555
Li1 O2 2.127079 1_565
Li2 O13 1.904353 1_555
Li2 O17 1.975230 1_555
Li2 O9 2.024925 1_555
Li2 O23 2.147938 1_655
Li3 O18 1.976221 1_555
Li3 O7 2.004658 1_555
Li3 O16 2.102022 1_555
Li3 O20 2.105717 1_545
Fe0 O10 1.898768 1_455
Fe0 O0 1.925929 1_455
Fe0 O6 1.926019 1_555
Fe0 O22 2.085101 1_555
Fe0 O3 2.144367 1_455
Fe1 O11 1.874625 1_555
Fe1 O1 1.927286 1_555
Fe1 O8 1.991609 1_655
Fe1 O23 2.063987 1_655
Fe1 O5 2.143310 1_655
Fe2 O14 1.968427 1_555
Fe2 O21 2.131048 1_544
Fe2 O2 2.140537 1_555
Fe2 O3 2.158662 1_445
Fe2 O6 2.190905 1_545
Fe3 O16 1.910363 1_565
Fe3 O4 1.929742 1_565
Fe3 O5 1.967886 1_555
Fe3 O8 2.057925 1_555
Fe3 O20 2.109370 1_555
Fe4 O7 1.997404 1_545
Fe4 O18 2.090331 1_655
Fe4 O20 2.099217 1_545
Fe4 O4 2.185122 1_555
Fe4 O15 2.245007 1_545
Fe5 O9 1.897994 1_545
Fe5 O19 1.926996 1_555
Fe5 O21 1.927780 1_545
Fe5 O2 2.081430 1_556
Fe5 O17 2.149796 1_545
Fe6 O12 1.971120 1_555
Fe6 O15 2.112471 1_445
Fe6 O22 2.136360 1_555
Fe6 O0 2.137494 1_455
Fe6 O18 2.288084 1_555
Fe7 O13 1.966876 1_555
Fe7 O23 2.131322 1_555
Fe7 O17 2.148582 1_445
Fe7 O1 2.157444 1_455
Fe7 O19 2.208345 1_455
B0 O14 1.357888 1_655
B0 O3 1.407984 1_555
B0 O2 1.416866 1_555
B1 O16 1.374046 1_655
B1 O4 1.387998 1_555
B1 O5 1.398883 1_655
B2 O10 1.371314 1_545
B2 O0 1.383068 1_555
B2 O6 1.390325 1_545
B3 O11 1.358203 1_545
B3 O1 1.385937 1_555
B3 O8 1.412931 1_545
B4 O12 1.365438 1_565
B4 O15 1.395701 1_555
B4 O22 1.422711 1_555
B5 O13 1.353874 1_565
B5 O17 1.406643 1_555
B5 O23 1.418404 1_555
B6 O7 1.381591 1_455
B6 O18 1.389698 1_555
B6 O20 1.408936 1_555
B7 O9 1.371281 1_455
B7 O21 1.383823 1_555
B7 O19 1.388930 1_455
