# generated using pymatgen
data_Li3CuF6
_symmetry_space_group_name_H-M   'P 1'
_cell_length_a   8.24155345
_cell_length_b   8.24038048
_cell_length_c   9.81728260
_cell_angle_alpha   85.51589972
_cell_angle_beta   85.51038595
_cell_angle_gamma   61.77781532
_symmetry_Int_Tables_number   1
_chemical_formula_structural   Li3CuF6
_chemical_formula_sum   'Li18 Cu6 F36'
_cell_volume   585.02015289
_cell_formula_units_Z   6
loop_
 _symmetry_equiv_pos_site_id
 _symmetry_equiv_pos_as_xyz
  1  'x, y, z'
loop_
 _atom_site_type_symbol
 _atom_site_label
 _atom_site_symmetry_multiplicity
 _atom_site_fract_x
 _atom_site_fract_y
 _atom_site_fract_z
 _atom_site_occupancy
  Li  Li0  1  0.93999479  0.65740451  0.43351542  1
  Li  Li1  1  0.99409468  0.29673344  0.23195913  1
  Li  Li2  1  0.65734990  0.94001839  0.93346045  1
  Li  Li3  1  0.86744706  0.46783850  0.95031797  1
  Li  Li4  1  0.46895117  0.86633360  0.45041686  1
  Li  Li5  1  0.67370912  0.36424716  0.46569719  1
  Li  Li6  1  0.81614956  0.18407516  0.75019315  1
  Li  Li7  1  0.63568939  0.32628364  0.03439221  1
  Li  Li8  1  0.70316406  0.00586638  0.26818943  1
  Li  Li9  1  0.29689669  0.99411541  0.73178137  1
  Li  Li10  1  0.36430668  0.67371934  0.96560514  1
  Li  Li11  1  0.18385065  0.81592764  0.24985475  1
  Li  Li12  1  0.32630427  0.63575051  0.53429237  1
  Li  Li13  1  0.53095150  0.13375254  0.54956539  1
  Li  Li14  1  0.13252763  0.53219036  0.04968532  1
  Li  Li15  1  0.34264839  0.05998412  0.06653309  1
  Li  Li16  1  0.00591373  0.70322926  0.76805452  1
  Li  Li17  1  0.06000316  0.34259338  0.56648649  1
  Cu  Cu0  1  0.00002695  -0.00002003  0.00000107  1
  Cu  Cu1  1  0.65835326  0.66494141  0.20667746  1
  Cu  Cu2  1  -0.00001335  -0.00000219  0.50000113  1
  Cu  Cu3  1  0.66507792  0.65848764  0.70674904  1
  Cu  Cu4  1  0.33491797  0.34150707  0.29323631  1
  Cu  Cu5  1  0.34165465  0.33507293  0.79332887  1
  F  F0  1  0.93226219  0.91850855  0.16846455  1
  F  F1  1  0.91864413  0.93233674  0.66850620  1
  F  F2  1  0.89439199  0.56919322  0.11550227  1
  F  F3  1  0.89851635  0.58345031  0.61221359  1
  F  F4  1  0.72565652  0.77013566  0.34477011  1
  F  F5  1  0.77036414  0.72558380  0.84485916  1
  F  F6  1  0.91494522  0.24009973  0.06411194  1
  F  F7  1  0.58344231  0.89845815  0.11214276  1
  F  F8  1  0.75409371  0.43809814  0.30577701  1
  F  F9  1  0.90537936  0.23908048  0.56587990  1
  F  F10  1  0.56936758  0.89453247  0.61553349  1
  F  F11  1  0.75223378  0.42910682  0.80515026  1
  F  F12  1  0.59027025  0.57339180  0.06255919  1
  F  F13  1  0.75979475  0.08506892  0.43609350  1
  F  F14  1  0.42907283  0.75202283  0.30506048  1
  F  F15  1  0.57334557  0.59054114  0.56259198  1
  F  F16  1  0.76092662  0.09460920  0.93413814  1
  F  F17  1  0.43813032  0.75421873  0.80574226  1
  F  F18  1  0.56187532  0.24576917  0.19426150  1
  F  F19  1  0.23909737  0.90537971  0.06587042  1
  F  F20  1  0.42665156  0.40944827  0.43739731  1
  F  F21  1  0.57092923  0.24796545  0.69495322  1
  F  F22  1  0.24018414  0.91494177  0.56389763  1
  F  F23  1  0.40972800  0.42663959  0.93744313  1
  F  F24  1  0.24778725  0.57088027  0.19484303  1
  F  F25  1  0.43059039  0.10547735  0.38445686  1
  F  F26  1  0.09459864  0.76092115  0.43411815  1
  F  F27  1  0.24590566  0.56190669  0.69420826  1
  F  F28  1  0.41655607  0.10154774  0.88784782  1
  F  F29  1  0.08509478  0.75986586  0.93589823  1
  F  F30  1  0.22962951  0.27440881  0.15514466  1
  F  F31  1  0.27434591  0.22989076  0.65522437  1
  F  F32  1  0.10148830  0.41655105  0.38779899  1
  F  F33  1  0.10561363  0.43079470  0.88451584  1
  F  F34  1  0.08134742  0.06765738  0.33151363  1
  F  F35  1  0.06777135  0.08146842  0.83151906  1
loop_
_geom_bond_atom_site_label_1
_geom_bond_atom_site_label_2
_geom_bond_distance
_geom_bond_site_symmetry_2
Cu0 F0 1.879961 1_445
Cu0 F35 1.880105 1_554
Cu0 F19 1.891021 1_545
Cu0 F16 1.891186 1_454
Cu0 F29 1.901627 1_544
Cu0 F6 1.901682 1_455
Cu1 F8 1.871933 1_555
Cu1 F14 1.886447 1_555
Cu1 F12 1.891378 1_555
Cu1 F2 1.895833 1_555
Cu1 F7 1.905818 1_555
Cu1 F4 1.911343 1_555
Cu2 F34 1.879421 1_555
Cu2 F1 1.879505 1_445
Cu2 F26 1.890761 1_545
Cu2 F9 1.890792 1_455
Cu2 F13 1.901813 1_455
Cu2 F22 1.901830 1_545
Cu3 F17 1.872162 1_555
Cu3 F11 1.887056 1_555
Cu3 F15 1.892007 1_555
Cu3 F10 1.895952 1_555
Cu3 F3 1.905289 1_555
Cu3 F5 1.911066 1_555
Cu4 F18 1.872136 1_555
Cu4 F24 1.886982 1_555
Cu4 F20 1.892020 1_555
Cu4 F25 1.895884 1_555
Cu4 F32 1.905339 1_555
Cu4 F30 1.910948 1_555
Cu5 F27 1.871971 1_555
Cu5 F21 1.886364 1_555
Cu5 F23 1.891387 1_555
Cu5 F33 1.895904 1_555
Cu5 F28 1.905817 1_555
Cu5 F31 1.911393 1_555
F0 Li8 1.891299 1_565
F0 Li11 2.036757 1_655
F1 Li16 1.890498 1_655
F1 Li6 2.038788 1_565
F2 Li14 1.904886 1_655
F2 Li3 1.954543 1_554
F2 Li1 2.241421 1_555
F3 Li17 1.859987 1_655
F3 Li0 1.871333 1_555
F3 Li16 2.317921 1_655
F4 Li0 1.817923 1_555
F4 Li8 1.955973 1_565
F4 Li4 2.092591 1_555
F5 Li2 1.817523 1_555
F5 Li16 1.955871 1_655
F5 Li3 2.098025 1_555
F6 Li1 1.983686 1_555
F6 Li3 1.992218 1_554
F6 Li7 2.100774 1_555
F7 Li15 1.859603 1_565
F7 Li2 1.871233 1_554
F7 Li8 2.319147 1_565
F8 Li5 1.828432 1_555
F8 Li1 1.876949 1_555
F9 Li17 1.838915 1_655
F9 Li5 1.987330 1_555
F9 Li6 1.999767 1_555
F10 Li13 1.909906 1_565
F10 Li4 1.953798 1_555
F10 Li9 2.240726 1_555
F11 Li3 1.898461 1_555
F11 Li6 1.940477 1_555
F12 Li7 1.927148 1_555
F12 Li10 1.938015 1_554
F12 Li3 2.250700 1_554
F13 Li8 1.984352 1_555
F13 Li13 1.996082 1_555
F13 Li5 2.099728 1_555
F14 Li4 1.899491 1_555
F14 Li11 1.943146 1_555
F15 Li12 1.927767 1_555
F15 Li5 1.939512 1_555
F15 Li4 2.241777 1_555
F16 Li2 1.839079 1_545
F16 Li7 1.987402 1_556
F16 Li6 1.998050 1_555
F17 Li10 1.828309 1_555
F17 Li9 1.876589 1_555
F18 Li7 1.828382 1_555
F18 Li8 1.876580 1_555
F19 Li15 1.839000 1_565
F19 Li10 1.987367 1_554
F19 Li11 1.998400 1_555
F20 Li5 1.927920 1_555
F20 Li12 1.939577 1_555
F20 Li13 2.241158 1_555
F21 Li13 1.899608 1_555
F21 Li6 1.943275 1_555
F22 Li9 1.984365 1_555
F22 Li4 1.995745 1_555
F22 Li12 2.099779 1_555
F23 Li10 1.926904 1_555
F23 Li7 1.937960 1_556
F23 Li14 2.250859 1_556
F24 Li14 1.898466 1_555
F24 Li11 1.940738 1_555
F25 Li4 1.909437 1_545
F25 Li13 1.953722 1_555
F25 Li8 2.241467 1_555
F26 Li0 1.838785 1_455
F26 Li12 1.987507 1_555
F26 Li11 1.999424 1_555
F27 Li12 1.828425 1_555
F27 Li16 1.876940 1_555
F28 Li2 1.859615 1_545
F28 Li15 1.871267 1_556
F28 Li9 2.319076 1_545
F29 Li16 1.983798 1_555
F29 Li14 1.991874 1_556
F29 Li10 2.100465 1_555
F30 Li15 1.817513 1_555
F30 Li1 1.955875 1_455
F30 Li14 2.098255 1_555
F31 Li17 1.817910 1_555
F31 Li9 1.956072 1_545
F31 Li13 2.092022 1_555
F32 Li0 1.859948 1_455
F32 Li17 1.871263 1_555
F32 Li1 2.318103 1_455
F33 Li3 1.904981 1_455
F33 Li14 1.954503 1_556
F33 Li16 2.241279 1_555
F34 Li1 1.890332 1_455
F34 Li11 2.038599 1_545
F35 Li9 1.891534 1_545
F35 Li6 2.036693 1_455
