# generated using pymatgen
data_Na3GaP2H2O9
_symmetry_space_group_name_H-M   'P 1'
_cell_length_a   8.59792072
_cell_length_b   8.59792072
_cell_length_c   7.14522838
_cell_angle_alpha   84.03025792
_cell_angle_beta   84.03025792
_cell_angle_gamma   49.79659779
_symmetry_Int_Tables_number   1
_chemical_formula_structural   Na3GaP2H2O9
_chemical_formula_sum   'Na6 Ga2 P4 H4 O18'
_cell_volume   400.76042880
_cell_formula_units_Z   2
loop_
 _symmetry_equiv_pos_site_id
 _symmetry_equiv_pos_as_xyz
  1  'x, y, z'
loop_
 _atom_site_type_symbol
 _atom_site_label
 _atom_site_symmetry_multiplicity
 _atom_site_fract_x
 _atom_site_fract_y
 _atom_site_fract_z
 _atom_site_occupancy
  Na  Na0  1  0.76436700  0.23563300  0.00000000  1
  Na  Na1  1  0.23563300  0.76436700  0.00000000  1
  Na  Na2  1  0.61063000  0.61063000  0.29323800  1
  Na  Na3  1  0.38937000  0.38937000  0.70676200  1
  Na  Na4  1  0.00000000  0.50000000  0.50000000  1
  Na  Na5  1  0.50000000  0.00000000  0.50000000  1
  Ga  Ga0  1  0.00000000  0.50000000  0.00000000  1
  Ga  Ga1  1  0.50000000  0.00000000  0.00000000  1
  P  P0  1  0.37889600  0.37889600  0.22706100  1
  P  P1  1  0.62110400  0.62110400  0.77293900  1
  P  P2  1  0.11812800  0.11812800  0.29658100  1
  P  P3  1  0.88187200  0.88187200  0.70341900  1
  H  H0  1  0.05881100  0.05881100  0.60360500  1
  H  H1  1  0.94118900  0.94118900  0.39639500  1
  H  H2  1  0.18811200  0.18811200  0.82332100  1
  H  H3  1  0.81188800  0.81188800  0.17667900  1
  O  O0  1  0.47708800  0.47708800  0.21828600  1
  O  O1  1  0.52291200  0.52291200  0.78171400  1
  O  O2  1  0.33268800  0.33268800  0.42828500  1
  O  O3  1  0.66731200  0.66731200  0.57171500  1
  O  O4  1  0.17506400  0.52985400  0.11712400  1
  O  O5  1  0.52985400  0.17506400  0.11712400  1
  O  O6  1  0.82493600  0.47014600  0.88287600  1
  O  O7  1  0.47014600  0.82493600  0.88287600  1
  O  O8  1  0.99097400  0.34653900  0.23376200  1
  O  O9  1  0.34653900  0.99097400  0.23376200  1
  O  O10  1  0.00902600  0.65346100  0.76623800  1
  O  O11  1  0.65346100  0.00902600  0.76623800  1
  O  O12  1  0.02643800  0.02643800  0.23960800  1
  O  O13  1  0.97356200  0.97356200  0.76039200  1
  O  O14  1  0.11677000  0.11677100  0.52233000  1
  O  O15  1  0.88323000  0.88323000  0.47767000  1
  O  O16  1  0.24160400  0.24160400  0.88160700  1
  O  O17  1  0.75839600  0.75839600  0.11839300  1
loop_
_geom_bond_atom_site_label_1
_geom_bond_atom_site_label_2
_geom_bond_distance
_geom_bond_site_symmetry_2
Na0 O5 2.439484 1_555
Na0 O6 2.439484 1_554
Na0 O1 2.468932 1_554
Na0 O0 2.468932 1_555
Na0 O12 2.484579 1_655
Na0 O13 2.484579 1_544
Na1 O7 2.439484 1_554
Na1 O4 2.439484 1_555
Na1 O1 2.468932 1_554
Na1 O0 2.468932 1_555
Na1 O12 2.484579 1_565
Na1 O13 2.484579 1_454
Na2 O0 2.209353 1_555
Na2 O3 2.268101 1_555
Na2 O17 2.492498 1_555
Na2 O8 2.521079 1_555
Na2 O9 2.521079 1_555
Na3 O1 2.209353 1_555
Na3 O2 2.268101 1_555
Na3 O16 2.492498 1_555
Na3 O10 2.521079 1_555
Na3 O11 2.521079 1_555
Na4 O3 2.247259 1_455
Na4 O2 2.247259 1_555
Na4 O10 2.459843 1_555
Na4 O8 2.459843 1_455
Na4 O14 2.746541 1_555
Na4 O15 2.746549 1_455
Na5 O2 2.247259 1_555
Na5 O3 2.247259 1_545
Na5 O9 2.459843 1_545
Na5 O11 2.459843 1_555
Na5 O14 2.746545 1_555
Na5 O15 2.746549 1_545
Ga0 O6 1.958908 1_454
Ga0 O4 1.958908 1_555
Ga0 O16 2.008461 1_554
Ga0 O17 2.008461 1_455
Ga0 O10 2.045390 1_554
Ga0 O8 2.045390 1_455
Ga1 O7 1.958908 1_544
Ga1 O5 1.958908 1_555
Ga1 O17 2.008461 1_545
Ga1 O16 2.008461 1_554
Ga1 O9 2.045390 1_545
Ga1 O11 2.045390 1_554
H0 O14 1.016918 1_555
H0 O13 1.637521 1_445
H1 O15 1.016911 1_555
H1 O12 1.637521 1_665
H2 O16 0.974301 1_555
H3 O17 0.974301 1_555
O0 P0 1.525642 1_555
O1 P1 1.525642 1_555
O2 P0 1.532666 1_555
O3 P1 1.532666 1_555
O4 P0 1.584523 1_555
O5 P0 1.584523 1_555
O6 P1 1.584523 1_555
O7 P1 1.584523 1_555
O8 P2 1.549306 1_655
O9 P2 1.549306 1_565
O10 P3 1.549306 1_455
O11 P3 1.549306 1_545
O12 P2 1.531188 1_555
O13 P3 1.531188 1_555
O14 P2 1.610738 1_555
O15 P3 1.610737 1_555
