# generated using pymatgen
data_Li8V3P8O29
_symmetry_space_group_name_H-M   'P 1'
_cell_length_a   9.87640900
_cell_length_b   9.88252018
_cell_length_c   13.83084090
_cell_angle_alpha   90.62067454
_cell_angle_beta   89.70279954
_cell_angle_gamma   119.84795424
_symmetry_Int_Tables_number   1
_chemical_formula_structural   Li8V3P8O29
_chemical_formula_sum   'Li16 V6 P16 O58'
_cell_volume   1170.80306540
_cell_formula_units_Z   2
loop_
 _symmetry_equiv_pos_site_id
 _symmetry_equiv_pos_as_xyz
  1  'x, y, z'
loop_
 _atom_site_type_symbol
 _atom_site_label
 _atom_site_symmetry_multiplicity
 _atom_site_fract_x
 _atom_site_fract_y
 _atom_site_fract_z
 _atom_site_occupancy
  Li  Li0  1  0.66569800  0.76332500  0.06234400  1
  Li  Li1  1  0.66735800  0.90373500  0.56679500  1
  Li  Li2  1  0.23531400  0.32680200  0.56469300  1
  Li  Li3  1  0.33627600  0.66849400  0.38239700  1
  Li  Li4  1  0.33401600  0.66521000  0.87914000  1
  Li  Li5  1  0.09698900  0.33161200  0.06368700  1
  Li  Li6  1  0.22983700  0.90408300  0.06146700  1
  Li  Li7  1  0.89793500  0.23590900  0.43979900  1
  Li  Li8  1  0.09348000  0.76504700  0.56452900  1
  Li  Li9  1  0.90317200  0.67575400  0.93500000  1
  Li  Li10  1  0.66846200  0.32678700  0.11514700  1
  Li  Li11  1  0.76420800  0.66289500  0.43931500  1
  Li  Li12  1  0.34016700  0.10315700  0.43863100  1
  Li  Li13  1  0.33033600  0.23465900  0.93641100  1
  Li  Li14  1  0.95211700  0.01827000  0.98966200  1
  Li  Li15  1  0.99345600  0.00338100  0.50296500  1
  V  V0  1  0.99958000  0.43463400  0.25099100  1
  V  V1  1  0.00070100  0.56340200  0.74925800  1
  V  V2  1  0.56725900  0.00475800  0.75286000  1
  V  V3  1  0.43643100  0.99957000  0.24859800  1
  V  V4  1  0.56614200  0.56536300  0.25004400  1
  V  V5  1  0.43738500  0.43633700  0.74616700  1
  P  P0  1  0.68278800  0.77744600  0.84234700  1
  P  P1  1  0.68491100  0.91256500  0.34767400  1
  P  P2  1  0.22733600  0.31730200  0.34494700  1
  P  P3  1  0.33427600  0.66489300  0.12378400  1
  P  P4  1  0.33640900  0.66934800  0.62588600  1
  P  P5  1  0.09359000  0.31524100  0.84545000  1
  P  P6  1  0.91499700  0.22307700  0.65920600  1
  P  P7  1  0.22641500  0.91154300  0.84245900  1
  P  P8  1  0.77796100  0.08534500  0.15897200  1
  P  P9  1  0.09013000  0.77421500  0.34259200  1
  P  P10  1  0.90910800  0.68023000  0.15433200  1
  P  P11  1  0.66671800  0.33450700  0.37481800  1
  P  P12  1  0.66248200  0.33384900  0.87312500  1
  P  P13  1  0.77530700  0.68889800  0.65623600  1
  P  P14  1  0.31269400  0.08369600  0.65545400  1
  P  P15  1  0.31843700  0.22775700  0.15613300  1
  O  O0  1  0.77930500  0.78161600  0.56720100  1
  O  O1  1  0.67109900  0.75154000  0.34575600  1
  O  O2  1  0.78225200  0.98600200  0.07817100  1
  O  O3  1  0.66075600  0.92012700  0.84212100  1
  O  O4  1  0.52216900  0.62953500  0.83246900  1
  O  O5  1  0.48464100  0.67322300  0.16424100  1
  O  O6  1  0.37091400  0.48151700  0.33368300  1
  O  O7  1  0.23078100  0.23188100  0.06840100  1
  O  O8  1  0.25759500  0.33365100  0.84039100  1
  O  O9  1  0.48861700  0.81326700  0.66960100  1
  O  O10  1  0.51965900  0.89431000  0.33254900  1
  O  O11  1  0.32449300  0.51473800  0.66176800  1
  O  O12  1  0.33710700  0.67008400  0.01533600  1
  O  O13  1  0.34723200  0.67687600  0.51642800  1
  O  O14  1  0.18745400  0.51650900  0.16180800  1
  O  O15  1  0.37175500  0.89099600  0.82863100  1
  O  O16  1  0.33056300  0.81576600  0.16632400  1
  O  O17  1  0.07831100  0.32918500  0.34620400  1
  O  O18  1  0.00058200  0.20614600  0.75348500  1
  O  O19  1  0.00171300  0.21293300  0.56934300  1
  O  O20  1  0.01215500  0.22907800  0.93630800  1
  O  O21  1  0.10885000  0.47742600  0.83428400  1
  O  O22  1  0.19165900  0.67884800  0.66207000  1
  O  O23  1  0.91974500  0.25007900  0.15702000  1
  O  O24  1  0.11279100  0.63123200  0.33326800  1
  O  O25  1  0.25319800  0.92356200  0.34146000  1
  O  O26  1  0.79203700  0.01036100  0.25899000  1
  O  O27  1  0.76823400  0.00246200  0.43836100  1
  O  O28  1  0.21804500  0.99522100  0.56628100  1
  O  O29  1  0.74918500  0.07900500  0.66016400  1
  O  O30  1  0.91159300  0.37446600  0.66675700  1
  O  O31  1  0.07960200  0.74988100  0.84415600  1
  O  O32  1  0.81176600  0.32640700  0.33738200  1
  O  O33  1  0.88767100  0.51559800  0.16675000  1
  O  O34  1  0.00274200  0.76573300  0.06611600  1
  O  O35  1  0.99835100  0.77273100  0.43098300  1
  O  O36  1  0.00116600  0.78470900  0.24848300  1
  O  O37  1  0.91907500  0.66872000  0.65686000  1
  O  O38  1  0.66063800  0.18554100  0.82466600  1
  O  O39  1  0.62591800  0.09716300  0.16631600  1
  O  O40  1  0.81281300  0.48220100  0.83994700  1
  O  O41  1  0.65219900  0.32071300  0.98165600  1
  O  O42  1  0.65181100  0.32693800  0.48236600  1
  O  O43  1  0.67253900  0.48363800  0.33366100  1
  O  O44  1  0.46537300  0.08036300  0.66513000  1
  O  O45  1  0.51561200  0.18274200  0.32753000  1
  O  O46  1  0.74939300  0.67054600  0.15525200  1
  O  O47  1  0.79149500  0.79408500  0.75077000  1
  O  O48  1  0.77353600  0.77868900  0.93194300  1
  O  O49  1  0.62360200  0.53406200  0.66535900  1
  O  O50  1  0.51456100  0.32991600  0.83365200  1
  O  O51  1  0.48326600  0.36955000  0.16709800  1
  O  O52  1  0.33155100  0.07755100  0.15678000  1
  O  O53  1  0.23694500  0.00489100  0.93261400  1
  O  O54  1  0.20860900  0.99961300  0.75058700  1
  O  O55  1  0.33492100  0.24811100  0.65496700  1
  O  O56  1  0.23260500  0.22796100  0.43228200  1
  O  O57  1  0.21555700  0.21476300  0.25024100  1
loop_
_geom_bond_atom_site_label_1
_geom_bond_atom_site_label_2
_geom_bond_distance
_geom_bond_site_symmetry_2
Li0 O2 1.919986 1_555
Li0 O46 1.991518 1_555
Li0 O48 2.057970 1_554
Li0 O5 2.095899 1_555
Li1 O29 1.972296 1_565
Li1 O0 2.001832 1_555
Li1 O27 2.037538 1_565
Li1 O9 2.089961 1_555
Li2 O55 1.981605 1_555
Li2 O19 2.002267 1_555
Li2 O56 2.060207 1_555
Li2 O11 2.087542 1_555
Li3 O13 1.856026 1_555
Li3 O6 2.141312 1_555
Li3 O24 2.161078 1_555
Li3 O10 2.175533 1_555
Li4 O12 1.883816 1_556
Li4 O4 2.151493 1_555
Li4 O21 2.157695 1_555
Li4 O15 2.192947 1_555
Li5 O20 1.991007 1_554
Li5 O23 1.993752 1_455
Li5 O7 2.005080 1_555
Li5 O14 2.076682 1_555
Li6 O34 1.962642 1_555
Li6 O52 1.984026 1_565
Li6 O53 2.034947 1_564
Li6 O16 2.182049 1_555
Li7 O27 2.005330 1_555
Li7 O17 2.016529 1_655
Li7 O32 2.080437 1_555
Li7 O19 2.138178 1_655
Li8 O37 1.968578 1_455
Li8 O28 1.975322 1_555
Li8 O22 2.084847 1_555
Li8 O35 2.095747 1_455
Li9 O31 1.969318 1_655
Li9 O48 1.993440 1_555
Li9 O34 2.039483 1_656
Li9 O40 2.107618 1_555
Li10 O41 1.851831 1_554
Li10 O33 2.155068 1_555
Li10 O51 2.188512 1_555
Li10 O39 2.215752 1_555
Li11 O35 2.010099 1_555
Li11 O1 2.031328 1_555
Li11 O0 2.076288 1_555
Li11 O43 2.110555 1_555
Li12 O56 1.991232 1_555
Li12 O25 2.033940 1_545
Li12 O28 2.108942 1_545
Li12 O45 2.150412 1_555
Li13 O53 1.980577 1_555
Li13 O8 1.993614 1_555
Li13 O7 2.062933 1_556
Li13 O50 2.124584 1_555
Li14 O2 1.967079 1_546
Li14 O20 2.008848 1_655
Li14 O48 2.273944 1_545
Li15 O19 2.220272 1_655
Li15 O0 2.339768 1_545
Li15 O27 2.397227 1_555
Li15 O28 2.427596 1_645
Li15 O35 2.499841 1_545
Li15 O56 2.503059 1_655
O0 P13 1.531498 1_555
O1 P1 1.527971 1_555
O1 V4 2.067644 1_555
O2 P8 1.493891 1_565
O3 P0 1.530068 1_555
O3 V2 1.969591 1_565
O4 P0 1.536745 1_555
O4 V5 2.034914 1_555
O5 P3 1.552814 1_555
O5 V4 2.020848 1_555
O6 P2 1.543134 1_555
O6 V4 2.037114 1_555
O7 P15 1.506848 1_555
O8 P5 1.538650 1_555
O8 V5 2.022907 1_555
O9 P4 1.584558 1_555
O9 V2 2.002381 1_565
O10 P1 1.565147 1_555
O10 V3 1.998286 1_555
O11 P4 1.559347 1_555
O11 V5 2.024618 1_555
O12 P3 1.500999 1_555
O13 P4 1.517131 1_555
O14 P3 1.556220 1_555
O14 V0 2.030403 1_455
O15 P7 1.557156 1_555
O15 V2 1.983485 1_565
O16 P3 1.614252 1_555
O16 V3 1.940267 1_555
O17 P2 1.533662 1_555
O17 V0 2.066812 1_455
O18 P6 1.612368 1_455
O18 P5 1.618841 1_555
O19 P6 1.536234 1_455
O20 P5 1.510657 1_555
O21 P5 1.542787 1_555
O21 V1 2.045431 1_555
O22 P4 1.558273 1_555
O22 V1 2.043801 1_555
O23 P8 1.530786 1_555
O23 V0 2.040886 1_555
O24 P9 1.540756 1_555
O24 V0 2.030482 1_455
O25 P9 1.551306 1_555
O25 V3 2.032845 1_555
O26 P1 1.597603 1_545
O26 P8 1.615182 1_555
O27 P1 1.516090 1_545
O28 P14 1.527898 1_565
O29 P6 1.545462 1_555
O29 V2 2.023522 1_555
O30 P6 1.515590 1_555
O30 V1 1.972669 1_655
O31 P7 1.532971 1_555
O31 V1 2.062740 1_555
O32 P11 1.559570 1_555
O32 V0 2.010540 1_555
O33 P10 1.544079 1_555
O33 V0 2.033016 1_555
O34 P10 1.513490 1_455
O35 P9 1.513962 1_655
O36 P9 1.606998 1_555
O36 P10 1.623926 1_455
O37 P13 1.529050 1_555
O37 V1 2.059379 1_655
O38 P12 1.596860 1_555
O38 V2 1.832957 1_555
O39 P8 1.565762 1_555
O39 V3 1.983096 1_545
O40 P12 1.550867 1_555
O40 V1 2.043553 1_655
O41 P12 1.506622 1_555
O42 P11 1.492998 1_555
O43 P11 1.559772 1_555
O43 V4 1.992895 1_555
O44 P14 1.531159 1_555
O44 V2 1.955461 1_555
O45 P11 1.632573 1_555
O45 V3 1.907124 1_545
O46 P10 1.532023 1_555
O46 V4 2.051152 1_555
O47 P0 1.612032 1_555
O47 P13 1.619554 1_555
O48 P0 1.529464 1_555
O49 P13 1.523929 1_555
O49 V5 1.948938 1_555
O50 P12 1.544400 1_555
O50 V5 1.996556 1_555
O51 P15 1.537522 1_555
O51 V4 2.028738 1_555
O52 P15 1.553066 1_555
O52 V3 2.027067 1_545
O53 P7 1.515777 1_545
O54 P7 1.606758 1_555
O54 P14 1.624150 1_565
O55 P14 1.527579 1_555
O55 V5 2.040575 1_555
O56 P2 1.520132 1_555
O57 P15 1.613408 1_555
O57 P2 1.616051 1_555
