# generated using pymatgen
data_K3Nb7O19
_symmetry_space_group_name_H-M   'P 1'
_cell_length_a   6.56703700
_cell_length_b   10.11337292
_cell_length_c   14.39054053
_cell_angle_alpha   97.35805430
_cell_angle_beta   95.69439871
_cell_angle_gamma   106.51733624
_symmetry_Int_Tables_number   1
_chemical_formula_structural   K3Nb7O19
_chemical_formula_sum   'K6 Nb14 O38'
_cell_volume   899.46736520
_cell_formula_units_Z   2
loop_
 _symmetry_equiv_pos_site_id
 _symmetry_equiv_pos_as_xyz
  1  'x, y, z'
loop_
 _atom_site_type_symbol
 _atom_site_label
 _atom_site_symmetry_multiplicity
 _atom_site_fract_x
 _atom_site_fract_y
 _atom_site_fract_z
 _atom_site_occupancy
  K  K0  1  0.00625000  0.82366100  0.90434900  1
  K  K1  1  0.58855200  0.40881900  0.78954200  1
  K  K2  1  0.35849400  0.02352700  0.63417500  1
  K  K3  1  0.64150600  0.97647300  0.36582500  1
  K  K4  1  0.41144800  0.59118100  0.21045800  1
  K  K5  1  0.99375000  0.17633900  0.09565100  1
  Nb  Nb0  1  0.22084700  0.52826500  0.96328100  1
  Nb  Nb1  1  0.56445100  0.09115100  0.88906100  1
  Nb  Nb2  1  0.00338600  0.15504700  0.81209300  1
  Nb  Nb3  1  0.38038200  0.70646200  0.74081600  1
  Nb  Nb4  1  0.17087000  0.31653500  0.58052200  1
  Nb  Nb5  1  0.84222200  0.78041900  0.65215600  1
  Nb  Nb6  1  0.36659400  0.62145200  0.50522900  1
  Nb  Nb7  1  0.63340600  0.37854800  0.49477100  1
  Nb  Nb8  1  0.15777800  0.21958100  0.34784400  1
  Nb  Nb9  1  0.82913000  0.68346500  0.41947800  1
  Nb  Nb10  1  0.61961800  0.29353800  0.25918400  1
  Nb  Nb11  1  0.99661400  0.84495300  0.18790700  1
  Nb  Nb12  1  0.43554900  0.90884900  0.11093900  1
  Nb  Nb13  1  0.77915300  0.47173500  0.03671900  1
  O  O0  1  0.50000000  0.50000000  0.00000000  1
  O  O1  1  0.67437700  0.27602400  0.96926600  1
  O  O2  1  0.50000000  0.00000000  0.00000000  1
  O  O3  1  0.88070600  0.06460600  0.91058000  1
  O  O4  1  0.12734700  0.34024100  0.87889000  1
  O  O5  1  0.91294800  0.54774900  0.93314500  1
  O  O6  1  0.29845000  0.11418000  0.84099000  1
  O  O7  1  0.28696600  0.60480500  0.83633600  1
  O  O8  1  0.71181700  0.16575300  0.77772100  1
  O  O9  1  0.46499700  0.89099100  0.80567600  1
  O  O10  1  0.10765700  0.23442700  0.68597900  1
  O  O11  1  0.67308500  0.68547700  0.74654900  1
  O  O12  1  0.09286300  0.72969100  0.68530200  1
  O  O13  1  0.93137300  0.96160900  0.71882300  1
  O  O14  1  0.28687300  0.52558400  0.62630200  1
  O  O15  1  0.47804700  0.30758600  0.59495700  1
  O  O16  1  0.50359900  0.78254300  0.60624700  1
  O  O17  1  0.89122000  0.35200300  0.53971400  1
  O  O18  1  0.68924300  0.58398500  0.54556200  1
  O  O19  1  0.09416900  0.16275800  0.47419900  1
  O  O20  1  0.90583100  0.83724200  0.52580100  1
  O  O21  1  0.31075700  0.41601500  0.45443800  1
  O  O22  1  0.10878000  0.64799700  0.46028600  1
  O  O23  1  0.49640100  0.21745700  0.39375300  1
  O  O24  1  0.52195300  0.69241400  0.40504300  1
  O  O25  1  0.71312700  0.47441600  0.37369800  1
  O  O26  1  0.06862700  0.03839100  0.28117700  1
  O  O27  1  0.90713700  0.27030900  0.31469800  1
  O  O28  1  0.32691500  0.31452300  0.25345100  1
  O  O29  1  0.89234300  0.76557300  0.31402100  1
  O  O30  1  0.53500300  0.10900900  0.19432400  1
  O  O31  1  0.28818300  0.83424700  0.22227900  1
  O  O32  1  0.71303400  0.39519500  0.16366400  1
  O  O33  1  0.70155000  0.88582000  0.15901000  1
  O  O34  1  0.08705200  0.45225100  0.06685500  1
  O  O35  1  0.87265300  0.65975900  0.12111000  1
  O  O36  1  0.11929400  0.93539400  0.08942000  1
  O  O37  1  0.32562300  0.72397600  0.03073400  1
loop_
_geom_bond_atom_site_label_1
_geom_bond_atom_site_label_2
_geom_bond_distance
_geom_bond_site_symmetry_2
K0 O36 2.698301 1_556
K0 O5 2.776306 1_455
K0 O3 2.779683 1_465
K0 O11 2.891232 1_455
K1 O5 2.731967 1_555
K1 O8 2.789037 1_555
K1 O15 2.802822 1_555
K1 O11 2.854439 1_555
K2 O8 2.847785 1_555
K2 O16 2.855690 1_545
K2 O15 2.899757 1_555
K2 O9 3.068328 1_545
K2 O6 3.097290 1_555
K2 O13 3.101327 1_445
K2 O10 3.106881 1_555
K2 O20 3.156141 1_445
K2 O12 3.206597 1_545
K3 O31 2.847785 1_555
K3 O23 2.855690 1_565
K3 O24 2.899757 1_555
K3 O30 3.068328 1_565
K3 O33 3.097290 1_555
K3 O26 3.101327 1_665
K3 O29 3.106881 1_555
K3 O19 3.156141 1_665
K3 O27 3.206597 1_565
K4 O34 2.731967 1_555
K4 O31 2.789037 1_555
K4 O24 2.802822 1_555
K4 O28 2.854439 1_555
K5 O3 2.698301 1_554
K5 O34 2.776306 1_655
K5 O36 2.779683 1_645
K5 O28 2.891232 1_655
Nb0 O34 1.937483 1_556
Nb0 O0 1.966216 1_556
Nb0 O37 1.983494 1_556
Nb0 O4 2.016035 1_555
Nb0 O5 2.095173 1_455
Nb0 O7 2.110320 1_555
Nb1 O6 1.901849 1_555
Nb1 O1 1.965573 1_555
Nb1 O2 1.966432 1_556
Nb1 O8 2.067642 1_555
Nb1 O9 2.105886 1_545
Nb1 O3 2.166103 1_555
Nb2 O4 1.900315 1_555
Nb2 O3 1.906301 1_455
Nb2 O8 1.966287 1_455
Nb2 O6 2.106634 1_555
Nb2 O13 2.127847 1_445
Nb2 O10 2.171236 1_555
Nb3 O7 1.869090 1_555
Nb3 O9 1.877222 1_555
Nb3 O11 1.987874 1_555
Nb3 O12 2.063844 1_555
Nb3 O14 2.197119 1_555
Nb3 O16 2.309869 1_555
Nb4 O10 1.848438 1_555
Nb4 O19 1.950784 1_555
Nb4 O17 2.015109 1_455
Nb4 O14 2.027808 1_555
Nb4 O15 2.036193 1_555
Nb4 O21 2.328308 1_555
Nb5 O13 1.857212 1_555
Nb5 O12 1.893929 1_655
Nb5 O11 2.006961 1_555
Nb5 O20 2.023091 1_555
Nb5 O18 2.255590 1_555
Nb5 O16 2.263017 1_555
Nb6 O22 1.855393 1_555
Nb6 O24 1.942967 1_555
Nb6 O16 1.969089 1_555
Nb6 O21 2.027317 1_555
Nb6 O14 2.138881 1_555
Nb6 O18 2.288838 1_555
Nb7 O17 1.855393 1_555
Nb7 O15 1.942967 1_555
Nb7 O23 1.969089 1_555
Nb7 O18 2.027317 1_555
Nb7 O25 2.138881 1_555
Nb7 O21 2.288838 1_555
Nb8 O26 1.857212 1_555
Nb8 O27 1.893929 1_455
Nb8 O28 2.006961 1_555
Nb8 O19 2.023091 1_555
Nb8 O21 2.255590 1_555
Nb8 O23 2.263017 1_555
Nb9 O29 1.848438 1_555
Nb9 O20 1.950784 1_555
Nb9 O22 2.015109 1_655
Nb9 O25 2.027808 1_555
Nb9 O24 2.036193 1_555
Nb9 O18 2.328308 1_555
Nb10 O32 1.869090 1_555
Nb10 O30 1.877222 1_555
Nb10 O28 1.987874 1_555
Nb10 O27 2.063844 1_555
Nb10 O25 2.197119 1_555
Nb10 O23 2.309869 1_555
Nb11 O35 1.900315 1_555
Nb11 O36 1.906301 1_655
Nb11 O31 1.966287 1_655
Nb11 O33 2.106634 1_555
Nb11 O26 2.127847 1_665
Nb11 O29 2.171236 1_555
Nb12 O33 1.901849 1_555
Nb12 O37 1.965573 1_555
Nb12 O2 1.966432 1_565
Nb12 O31 2.067642 1_555
Nb12 O30 2.105886 1_565
Nb12 O36 2.166103 1_555
Nb13 O5 1.937483 1_554
Nb13 O0 1.966216 1_555
Nb13 O1 1.983494 1_554
Nb13 O35 2.016035 1_555
Nb13 O34 2.095173 1_655
Nb13 O32 2.110320 1_555
