# generated using pymatgen
data_Li3Fe2P2(CO7)2
_symmetry_space_group_name_H-M   'P 1'
_cell_length_a   8.26249100
_cell_length_b   8.27949382
_cell_length_c   9.44364481
_cell_angle_alpha   106.58364930
_cell_angle_beta   107.26796488
_cell_angle_gamma   103.21419071
_symmetry_Int_Tables_number   1
_chemical_formula_structural   Li3Fe2P2(CO7)2
_chemical_formula_sum   'Li6 Fe4 P4 C4 O28'
_cell_volume   555.52625721
_cell_formula_units_Z   2
loop_
 _symmetry_equiv_pos_site_id
 _symmetry_equiv_pos_as_xyz
  1  'x, y, z'
loop_
 _atom_site_type_symbol
 _atom_site_label
 _atom_site_symmetry_multiplicity
 _atom_site_fract_x
 _atom_site_fract_y
 _atom_site_fract_z
 _atom_site_occupancy
  Li  Li0  1  0.93113600  0.19233200  0.89436000  1
  Li  Li1  1  0.43962300  0.69348500  0.89623000  1
  Li  Li2  1  0.71698000  0.75323400  0.71881900  1
  Li  Li3  1  0.28302000  0.24676600  0.28118100  1
  Li  Li4  1  0.06886400  0.80766800  0.10564000  1
  Li  Li5  1  0.56037700  0.30651500  0.10377000  1
  Fe  Fe0  1  0.06560300  0.80813800  0.66617200  1
  Fe  Fe1  1  0.55701100  0.30542700  0.67100000  1
  Fe  Fe2  1  0.93439700  0.19186200  0.33382800  1
  Fe  Fe3  1  0.44298900  0.69457300  0.32900000  1
  P  P0  1  0.30724100  0.54755700  0.57606300  1
  P  P1  1  0.79975000  0.05032300  0.57952600  1
  P  P2  1  0.69275900  0.45244300  0.42393700  1
  P  P3  1  0.20025000  0.94967700  0.42047400  1
  C  C0  1  0.75276200  0.50522100  0.95913800  1
  C  C1  1  0.24349300  0.00628000  0.96022200  1
  C  C2  1  0.75650700  0.99372000  0.03977800  1
  C  C3  1  0.24723800  0.49477900  0.04086200  1
  O  O0  1  0.10766800  0.86368800  0.92570200  1
  O  O1  1  0.62043100  0.36366700  0.92960500  1
  O  O2  1  0.66130700  0.87517800  0.90008400  1
  O  O3  1  0.76821300  0.52995900  0.83152100  1
  O  O4  1  0.13533300  0.38450300  0.90474000  1
  O  O5  1  0.27774900  0.02116300  0.83729400  1
  O  O6  1  0.90032700  0.96771100  0.69244500  1
  O  O7  1  0.73141100  0.17192000  0.68903200  1
  O  O8  1  0.22379100  0.65838500  0.67630400  1
  O  O9  1  0.41989200  0.48177300  0.69690100  1
  O  O10  1  0.83169500  0.60852900  0.57990300  1
  O  O11  1  0.92886000  0.16404400  0.52737000  1
  O  O12  1  0.44226600  0.66991500  0.53158700  1
  O  O13  1  0.35218400  0.09478000  0.57453600  1
  O  O14  1  0.64781600  0.90522000  0.42546400  1
  O  O15  1  0.55773400  0.33008500  0.46841300  1
  O  O16  1  0.07114000  0.83595600  0.47263000  1
  O  O17  1  0.16830500  0.39147100  0.42009700  1
  O  O18  1  0.58010800  0.51822700  0.30309900  1
  O  O19  1  0.77620900  0.34161500  0.32369600  1
  O  O20  1  0.26858900  0.82808000  0.31096800  1
  O  O21  1  0.09967300  0.03228900  0.30755500  1
  O  O22  1  0.72225100  0.97883700  0.16270600  1
  O  O23  1  0.86466700  0.61549700  0.09526000  1
  O  O24  1  0.23178700  0.47004100  0.16847900  1
  O  O25  1  0.33869300  0.12482200  0.09991600  1
  O  O26  1  0.37956900  0.63633300  0.07039500  1
  O  O27  1  0.89233200  0.13631200  0.07429800  1
loop_
_geom_bond_atom_site_label_1
_geom_bond_atom_site_label_2
_geom_bond_distance
_geom_bond_site_symmetry_2
Li0 O27 1.977575 1_556
Li0 O4 1.993291 1_655
Li0 O7 2.073026 1_555
Li0 O6 2.151864 1_545
Li1 O26 1.999191 1_556
Li1 O2 2.070928 1_555
Li1 O9 2.108598 1_555
Li1 O8 2.190399 1_555
Li2 O2 1.963282 1_555
Li2 O10 2.101186 1_555
Li2 O6 2.181030 1_555
Li2 O12 2.226999 1_555
Li2 O3 2.437765 1_555
Li3 O25 1.963282 1_555
Li3 O17 2.101186 1_555
Li3 O21 2.181030 1_555
Li3 O15 2.226999 1_555
Li3 O24 2.437765 1_555
Li4 O0 1.977575 1_554
Li4 O23 1.993291 1_455
Li4 O20 2.073026 1_555
Li4 O21 2.151864 1_565
Li5 O1 1.999191 1_554
Li5 O25 2.070928 1_555
Li5 O18 2.108598 1_555
Li5 O19 2.190399 1_555
Fe0 O16 1.918568 1_555
Fe0 O10 1.991632 1_455
Fe0 O8 1.997283 1_555
Fe0 O5 2.018087 1_565
Fe0 O6 2.123866 1_455
Fe0 O0 2.262083 1_555
Fe1 O13 1.887883 1_555
Fe1 O15 1.982695 1_555
Fe1 O7 2.004305 1_555
Fe1 O3 2.033920 1_555
Fe1 O9 2.047455 1_555
Fe1 O1 2.218971 1_555
Fe2 O11 1.918568 1_555
Fe2 O17 1.991632 1_655
Fe2 O19 1.997283 1_555
Fe2 O22 2.018087 1_545
Fe2 O21 2.123866 1_655
Fe2 O27 2.262083 1_555
Fe3 O14 1.887883 1_555
Fe3 O12 1.982695 1_555
Fe3 O20 2.004305 1_555
Fe3 O24 2.033920 1_555
Fe3 O18 2.047455 1_555
Fe3 O26 2.218971 1_555
C0 O23 1.256759 1_556
C0 O1 1.301294 1_555
C0 O3 1.315665 1_555
C1 O25 1.270529 1_556
C1 O5 1.305274 1_555
C1 O0 1.310303 1_545
C2 O2 1.270529 1_554
C2 O22 1.305274 1_555
C2 O27 1.310303 1_565
C3 O4 1.256759 1_554
C3 O26 1.301294 1_555
C3 O24 1.315665 1_555
O6 P1 1.563866 1_565
O7 P1 1.553734 1_555
O8 P0 1.547401 1_555
O9 P0 1.556022 1_555
O10 P2 1.545540 1_555
O11 P1 1.544207 1_555
O12 P0 1.565801 1_555
O13 P3 1.537664 1_545
O14 P1 1.537664 1_565
O15 P2 1.565801 1_555
O16 P3 1.544207 1_555
O17 P0 1.545540 1_555
O18 P2 1.556022 1_555
O19 P2 1.547401 1_555
O20 P3 1.553734 1_555
O21 P3 1.563866 1_545
