# generated using pymatgen
data_RbAl(H2N)4
_symmetry_space_group_name_H-M   'P 1'
_cell_length_a   7.97923300
_cell_length_b   7.97923300
_cell_length_c   5.13409500
_cell_angle_alpha   90.00000000
_cell_angle_beta   90.00000000
_cell_angle_gamma   90.00000000
_symmetry_Int_Tables_number   1
_chemical_formula_structural   RbAl(H2N)4
_chemical_formula_sum   'Rb2 Al2 H16 N8'
_cell_volume   326.87837816
_cell_formula_units_Z   2
loop_
 _symmetry_equiv_pos_site_id
 _symmetry_equiv_pos_as_xyz
  1  'x, y, z'
loop_
 _atom_site_type_symbol
 _atom_site_label
 _atom_site_symmetry_multiplicity
 _atom_site_fract_x
 _atom_site_fract_y
 _atom_site_fract_z
 _atom_site_occupancy
  Rb  Rb0  1  0.00000000  0.50000000  0.62404200  1
  Rb  Rb1  1  0.50000000  0.00000000  0.37595800  1
  Al  Al0  1  0.50000000  0.50000000  0.00000000  1
  Al  Al1  1  0.00000000  0.00000000  0.00000000  1
  H  H0  1  0.21436400  0.52667500  0.14058100  1
  H  H1  1  0.45971900  0.32989400  0.60446800  1
  H  H2  1  0.02667500  0.28563600  0.14058100  1
  H  H3  1  0.67010600  0.45971900  0.39553200  1
  H  H4  1  0.32989400  0.54028100  0.39553200  1
  H  H5  1  0.97332500  0.71436400  0.14058100  1
  H  H6  1  0.54028100  0.67010600  0.60446800  1
  H  H7  1  0.78563600  0.47332500  0.14058100  1
  H  H8  1  0.71436400  0.02667500  0.85941900  1
  H  H9  1  0.95971900  0.82989400  0.39553200  1
  H  H10  1  0.52667500  0.78563600  0.85941900  1
  H  H11  1  0.17010600  0.95971900  0.60446800  1
  H  H12  1  0.82989400  0.04028100  0.60446800  1
  H  H13  1  0.47332500  0.21436400  0.85941900  1
  H  H14  1  0.04028100  0.17010600  0.39553200  1
  H  H15  1  0.28563600  0.97332500  0.85941900  1
  N  N0  1  0.47208200  0.68374600  0.77312700  1
  N  N1  1  0.31625400  0.47208200  0.22687300  1
  N  N2  1  0.68374600  0.52791800  0.22687300  1
  N  N3  1  0.52791800  0.31625400  0.77312700  1
  N  N4  1  0.97208200  0.18374600  0.22687300  1
  N  N5  1  0.81625400  0.97208200  0.77312700  1
  N  N6  1  0.18374600  0.02791800  0.77312700  1
  N  N7  1  0.02791800  0.81625400  0.22687300  1
loop_
_geom_bond_atom_site_label_1
_geom_bond_atom_site_label_2
_geom_bond_distance
_geom_bond_site_symmetry_2
Al0 N2 1.885724 1_555
Al0 N0 1.885724 1_554
Al0 N1 1.885724 1_555
Al0 N3 1.885724 1_554
Al1 N6 1.885724 1_554
Al1 N4 1.885724 1_455
Al1 N5 1.885724 1_444
Al1 N7 1.885724 1_545
H0 N1 1.023234 1_555
H0 Rb0 3.021915 1_555
H0 Rb0 3.162890 1_554
H1 N3 1.028482 1_555
H1 Rb1 2.899775 1_555
H2 N4 1.023234 1_455
H2 Rb0 3.021915 1_555
H2 Rb0 3.162890 1_554
H3 N2 1.028482 1_555
H3 Rb0 2.899775 1_655
H4 N1 1.028482 1_555
H4 Rb0 2.899775 1_555
H5 N7 1.023234 1_655
H5 Rb0 3.021915 1_655
H5 Rb0 3.162890 1_654
H6 N0 1.028482 1_555
H6 Rb1 2.899775 1_565
H7 N2 1.023234 1_555
H7 Rb0 3.021915 1_655
H7 Rb0 3.162890 1_654
H8 N5 1.023234 1_545
H8 Rb1 3.021915 1_555
H8 Rb1 3.162890 1_556
H9 N7 1.028482 1_655
H9 Rb0 2.899775 1_655
H10 N0 1.023234 1_555
H10 Rb1 3.021915 1_565
H10 Rb1 3.162890 1_566
H11 N6 1.028482 1_565
H11 Rb1 2.899775 1_565
H12 N5 1.028482 1_545
H12 Rb1 2.899775 1_555
H13 N3 1.023234 1_555
H13 Rb1 3.021915 1_555
H13 Rb1 3.162890 1_556
H14 N4 1.028482 1_455
H14 Rb0 2.899775 1_555
H15 N6 1.023234 1_565
H15 Rb1 3.021915 1_565
H15 Rb1 3.162890 1_566
