# generated using pymatgen
data_Li3Fe7O12
_symmetry_space_group_name_H-M   'P 1'
_cell_length_a   5.19997128
_cell_length_b   5.19997128
_cell_length_c   9.85218880
_cell_angle_alpha   84.52650198
_cell_angle_beta   84.52650198
_cell_angle_gamma   121.56524009
_symmetry_Int_Tables_number   1
_chemical_formula_structural   Li3Fe7O12
_chemical_formula_sum   'Li3 Fe7 O12'
_cell_volume   222.60892249
_cell_formula_units_Z   1
loop_
 _symmetry_equiv_pos_site_id
 _symmetry_equiv_pos_as_xyz
  1  'x, y, z'
loop_
 _atom_site_type_symbol
 _atom_site_label
 _atom_site_symmetry_multiplicity
 _atom_site_fract_x
 _atom_site_fract_y
 _atom_site_fract_z
 _atom_site_occupancy
  Li  Li0  1  0.67463900  0.83494300  0.23920600  1
  Li  Li1  1  0.16505700  0.32536100  0.76079400  1
  Li  Li2  1  0.08188700  0.91811300  0.00000000  1
  Fe  Fe0  1  0.91908000  0.08092000  0.50000000  1
  Fe  Fe1  1  0.00407200  0.51314800  0.23743700  1
  Fe  Fe2  1  0.74391800  0.25608200  0.00000000  1
  Fe  Fe3  1  0.48685200  0.99592800  0.76256300  1
  Fe  Fe4  1  0.58359800  0.41640200  0.50000000  1
  Fe  Fe5  1  0.42682700  0.57317300  0.00000000  1
  Fe  Fe6  1  0.24765400  0.75234600  0.50000000  1
  O  O0  1  0.87235700  0.35882500  0.61504200  1
  O  O1  1  0.64117500  0.12764300  0.38495800  1
  O  O2  1  0.94648300  0.76334000  0.39038600  1
  O  O3  1  0.72666300  0.54746800  0.11678000  1
  O  O4  1  0.45253200  0.27333700  0.88322000  1
  O  O5  1  0.76812400  0.97344000  0.87843100  1
  O  O6  1  0.23666000  0.05351700  0.60961400  1
  O  O7  1  0.52033900  0.72195800  0.61121700  1
  O  O8  1  0.38232800  0.84893900  0.12234700  1
  O  O9  1  0.02656000  0.23187600  0.12156900  1
  O  O10  1  0.27804200  0.47966100  0.38878300  1
  O  O11  1  0.15106100  0.61767200  0.87765300  1
loop_
_geom_bond_atom_site_label_1
_geom_bond_atom_site_label_2
_geom_bond_distance
_geom_bond_site_symmetry_2
Li0 O8 2.018647 1_555
Li0 O9 2.033941 1_665
Li0 O3 2.113699 1_555
Li0 O10 2.179413 1_555
Li0 O1 2.248433 1_565
Li0 O2 2.280835 1_555
Li1 O11 2.018647 1_555
Li1 O5 2.033941 1_445
Li1 O4 2.113699 1_555
Li1 O7 2.179413 1_555
Li1 O0 2.248433 1_455
Li1 O6 2.280835 1_555
Li2 O3 1.973501 1_455
Li2 O4 1.973501 1_564
Li2 O11 2.210870 1_554
Li2 O8 2.210870 1_555
Li2 O5 2.231093 1_454
Li2 O9 2.231093 1_565
Fe0 O0 2.014814 1_555
Fe0 O1 2.014814 1_555
Fe0 O10 2.026924 1_655
Fe0 O7 2.026924 1_545
Fe0 O2 2.114461 1_545
Fe0 O6 2.114461 1_655
Fe1 O8 1.950520 1_555
Fe1 O9 1.981956 1_555
Fe1 O3 2.020391 1_455
Fe1 O1 2.156950 1_455
Fe1 O2 2.179161 1_455
Fe1 O10 2.213298 1_555
Fe2 O3 2.020600 1_555
Fe2 O4 2.020600 1_554
Fe2 O9 2.027615 1_655
Fe2 O5 2.027615 1_544
Fe2 O11 2.093743 1_654
Fe2 O8 2.093743 1_545
Fe3 O11 1.950520 1_555
Fe3 O5 1.981956 1_555
Fe3 O4 2.020391 1_565
Fe3 O0 2.156950 1_565
Fe3 O6 2.179161 1_565
Fe3 O7 2.213298 1_555
Fe4 O6 1.912375 1_555
Fe4 O2 1.912375 1_555
Fe4 O1 2.087936 1_555
Fe4 O0 2.087936 1_555
Fe4 O10 2.154979 1_555
Fe4 O7 2.154979 1_555
Fe5 O5 2.041565 1_554
Fe5 O9 2.041565 1_555
Fe5 O8 2.046144 1_555
Fe5 O11 2.046144 1_554
Fe5 O3 2.074507 1_555
Fe5 O4 2.074507 1_554
Fe6 O10 1.932391 1_555
Fe6 O7 1.932391 1_555
Fe6 O6 2.006674 1_565
Fe6 O2 2.006674 1_455
Fe6 O1 2.057952 1_565
Fe6 O0 2.057952 1_455
