# generated using pymatgen
data_Li4CoO3F
_symmetry_space_group_name_H-M   'P 1'
_cell_length_a   5.37099408
_cell_length_b   10.74545781
_cell_length_c   6.69618200
_cell_angle_alpha   90.00013482
_cell_angle_beta   90.00011697
_cell_angle_gamma   94.19040399
_symmetry_Int_Tables_number   1
_chemical_formula_structural   Li4CoO3F
_chemical_formula_sum   'Li16 Co4 O12 F4'
_cell_volume   385.42892621
_cell_formula_units_Z   4
loop_
 _symmetry_equiv_pos_site_id
 _symmetry_equiv_pos_as_xyz
  1  'x, y, z'
loop_
 _atom_site_type_symbol
 _atom_site_label
 _atom_site_symmetry_multiplicity
 _atom_site_fract_x
 _atom_site_fract_y
 _atom_site_fract_z
 _atom_site_occupancy
  Li  Li0  1  0.16725500  0.42021000  0.49512400  1
  Li  Li1  1  0.16729400  0.92026400  0.49512100  1
  Li  Li2  1  0.15977100  0.41626800  0.99497100  1
  Li  Li3  1  0.15977400  0.91625700  0.99495600  1
  Li  Li4  1  0.83271000  0.07974100  0.99512100  1
  Li  Li5  1  0.83274700  0.57978700  0.99512400  1
  Li  Li6  1  0.84023200  0.08374800  0.49495700  1
  Li  Li7  1  0.84022800  0.58373000  0.49496900  1
  Li  Li8  1  0.58316500  0.44596600  0.24005200  1
  Li  Li9  1  0.58316900  0.94594200  0.24007400  1
  Li  Li10  1  0.10817200  0.20846000  0.74025300  1
  Li  Li11  1  0.10823100  0.70846000  0.74020100  1
  Li  Li12  1  0.41683600  0.05406000  0.74007800  1
  Li  Li13  1  0.41683200  0.55402800  0.74006400  1
  Li  Li14  1  0.89176900  0.29154100  0.24019200  1
  Li  Li15  1  0.89181900  0.79153900  0.24024800  1
  Co  Co0  1  0.62207300  0.81092500  0.81766900  1
  Co  Co1  1  0.37792500  0.18907400  0.31766800  1
  Co  Co2  1  0.62202700  0.31091600  0.81770700  1
  Co  Co3  1  0.37796500  0.68908100  0.31770300  1
  O  O0  1  0.79179000  0.39573400  0.01102600  1
  O  O1  1  0.79184500  0.89572800  0.01103600  1
  O  O2  1  0.20815500  0.10427300  0.51104200  1
  O  O3  1  0.20820500  0.60426400  0.51102800  1
  O  O4  1  0.26596500  0.33681300  0.24812300  1
  O  O5  1  0.26597500  0.83682600  0.24815100  1
  O  O6  1  0.32648000  0.36691800  0.74815300  1
  O  O7  1  0.32648400  0.86694400  0.74812000  1
  O  O8  1  0.73402200  0.16317300  0.74815300  1
  O  O9  1  0.73403500  0.66318400  0.74812400  1
  O  O10  1  0.67352100  0.13305700  0.24811400  1
  O  O11  1  0.67351400  0.63307800  0.24814900  1
  F  F0  1  0.19161400  0.09562900  0.95466200  1
  F  F1  1  0.19166700  0.59564900  0.95461300  1
  F  F2  1  0.80832900  0.40435400  0.45459800  1
  F  F3  1  0.80840300  0.90437900  0.45465400  1
loop_
_geom_bond_atom_site_label_1
_geom_bond_atom_site_label_2
_geom_bond_distance
_geom_bond_site_symmetry_2
Li0 O4 1.972098 1_555
Li0 O3 1.976770 1_555
Li0 O6 2.000400 1_555
Li1 O5 1.972086 1_555
Li1 O2 1.976278 1_565
Li1 O7 2.000242 1_555
Li2 O6 1.970754 1_555
Li2 O0 1.975541 1_456
Li2 O4 1.999742 1_556
Li3 O7 1.970737 1_555
Li3 O1 1.975271 1_456
Li3 O5 1.999883 1_556
Li4 O8 1.972057 1_555
Li4 O1 1.976319 1_546
Li4 O10 2.000192 1_556
Li5 O9 1.972098 1_555
Li5 O0 1.976760 1_556
Li5 O11 2.000394 1_556
Li6 O10 1.970765 1_555
Li6 O2 1.975239 1_655
Li6 O8 1.999873 1_555
Li7 O11 1.970770 1_555
Li7 O3 1.975521 1_655
Li7 O9 1.999751 1_555
Li8 O0 1.996808 1_555
Li8 O4 1.997275 1_555
Li8 O11 2.034296 1_555
Li9 O1 1.996969 1_555
Li9 O5 1.997042 1_555
Li9 O10 2.034320 1_565
Li10 O6 1.996261 1_555
Li10 O2 1.996328 1_555
Li10 O8 2.033473 1_455
Li11 O3 1.996174 1_555
Li11 O7 1.996336 1_555
Li11 O9 2.033698 1_455
Li12 O2 1.996969 1_555
Li12 O8 1.996989 1_555
Li12 O7 2.034331 1_545
Li13 O3 1.996877 1_555
Li13 O9 1.997303 1_555
Li13 O6 2.034277 1_555
Li14 O0 1.996130 1_555
Li14 O10 1.996322 1_555
Li14 O4 2.033692 1_655
Li15 O11 1.996279 1_555
Li15 O1 1.996333 1_555
Li15 O5 2.033505 1_655
Co0 O1 1.793586 1_556
Co0 O9 1.799526 1_555
Co0 O7 1.799830 1_555
Co1 O2 1.793610 1_555
Co1 O4 1.799504 1_555
Co1 O10 1.799865 1_555
Co2 O0 1.793407 1_556
Co2 O6 1.799561 1_555
Co2 O8 1.799632 1_555
Co3 O3 1.793429 1_555
Co3 O11 1.799576 1_555
Co3 O5 1.799639 1_555
F0 Li3 1.941361 1_545
F0 Li4 1.941744 1_455
F0 Li12 1.951011 1_555
F0 Li10 1.952314 1_555
F1 Li2 1.941520 1_555
F1 Li5 1.941873 1_455
F1 Li13 1.950797 1_555
F1 Li11 1.952182 1_555
F2 Li7 1.941478 1_555
F2 Li0 1.941916 1_655
F2 Li8 1.950750 1_555
F2 Li14 1.952170 1_555
F3 Li6 1.941335 1_565
F3 Li1 1.941680 1_655
F3 Li9 1.951013 1_555
F3 Li15 1.952319 1_555
