# generated using pymatgen
data_LiTiNiO4
_symmetry_space_group_name_H-M   'P 1'
_cell_length_a   5.84333559
_cell_length_b   10.02546533
_cell_length_c   5.84333946
_cell_angle_alpha   103.91027526
_cell_angle_beta   118.12559121
_cell_angle_gamma   76.08965282
_symmetry_Int_Tables_number   1
_chemical_formula_structural   LiTiNiO4
_chemical_formula_sum   'Li4 Ti4 Ni4 O16'
_cell_volume   289.79341134
_cell_formula_units_Z   4
loop_
 _symmetry_equiv_pos_site_id
 _symmetry_equiv_pos_as_xyz
  1  'x, y, z'
loop_
 _atom_site_type_symbol
 _atom_site_label
 _atom_site_symmetry_multiplicity
 _atom_site_fract_x
 _atom_site_fract_y
 _atom_site_fract_z
 _atom_site_occupancy
  Li  Li0  1  0.31431100  0.06414200  0.18568700  1
  Li  Li1  1  0.81431300  0.56414200  0.68568900  1
  Li  Li2  1  0.18568900  0.43585800  0.31431300  1
  Li  Li3  1  0.68568700  0.93585800  0.81431100  1
  Ti  Ti0  1  0.75000000  0.25000000  0.75000000  1
  Ti  Ti1  1  0.25000000  0.75000000  0.25000000  1
  Ti  Ti2  1  0.00000200  0.00000000  0.50000100  1
  Ti  Ti3  1  0.49999800  0.50000000  0.99999800  1
  Ni  Ni0  1  0.25000300  0.75000100  0.75000500  1
  Ni  Ni1  1  0.24999600  0.25000000  0.74999500  1
  Ni  Ni2  1  0.75000300  0.25000000  0.25000400  1
  Ni  Ni3  1  0.74999800  0.75000000  0.24999800  1
  O  O0  1  0.65944000  0.13150800  0.39626900  1
  O  O1  1  0.15944500  0.63150700  0.89627700  1
  O  O2  1  0.10372300  0.13150700  0.84055500  1
  O  O3  1  0.60373100  0.63150800  0.34055900  1
  O  O4  1  0.39627700  0.36849300  0.65944500  1
  O  O5  1  0.89626900  0.86849200  0.15944000  1
  O  O6  1  0.84056000  0.36849200  0.10373000  1
  O  O7  1  0.34055500  0.86849300  0.60372300  1
  O  O8  1  0.87913600  0.35944200  0.62086400  1
  O  O9  1  0.37913600  0.85944200  0.12086400  1
  O  O10  1  0.10876100  0.13017500  0.39123500  1
  O  O11  1  0.60876400  0.63017600  0.89123900  1
  O  O12  1  0.62086400  0.14055800  0.87913600  1
  O  O13  1  0.12086400  0.64055800  0.37913600  1
  O  O14  1  0.39123900  0.36982500  0.10876500  1
  O  O15  1  0.89123500  0.86982400  0.60876100  1
loop_
_geom_bond_atom_site_label_1
_geom_bond_atom_site_label_2
_geom_bond_distance
_geom_bond_site_symmetry_2
Li0 O9 1.971370 1_545
Li0 O10 1.979650 1_555
Li0 O0 1.988221 1_555
Li0 O2 1.988233 1_554
Li1 O8 1.971370 1_555
Li1 O11 1.979655 1_555
Li1 O3 1.988226 1_555
Li1 O1 1.988233 1_655
Li2 O13 1.971370 1_555
Li2 O14 1.979650 1_555
Li2 O6 1.988222 1_455
Li2 O4 1.988233 1_555
Li3 O12 1.971370 1_565
Li3 O15 1.979650 1_555
Li3 O5 1.988221 1_556
Li3 O7 1.988233 1_555
Ni0 O1 1.907525 1_555
Ni0 O7 1.907529 1_555
Ni0 O11 2.038045 1_555
Ni0 O15 2.038068 1_455
Ni0 O9 2.045123 1_556
Ni0 O13 2.045175 1_555
Ni1 O4 1.907525 1_555
Ni1 O2 1.907528 1_555
Ni1 O10 2.038044 1_555
Ni1 O14 2.038087 1_556
Ni1 O8 2.045128 1_455
Ni1 O12 2.045163 1_555
Ni2 O0 1.907498 1_555
Ni2 O6 1.907514 1_555
Ni2 O10 2.038031 1_655
Ni2 O14 2.038059 1_555
Ni2 O8 2.045131 1_555
Ni2 O12 2.045166 1_554
Ni3 O3 1.907499 1_555
Ni3 O5 1.907505 1_555
Ni3 O11 2.038035 1_554
Ni3 O15 2.038052 1_555
Ni3 O9 2.045137 1_555
Ni3 O13 2.045155 1_655
O0 Ti2 2.012792 1_655
O0 Ti0 2.013459 1_555
O1 Ti3 2.012751 1_555
O1 Ti1 2.013430 1_556
O2 Ti2 2.012758 1_555
O2 Ti0 2.013427 1_455
O3 Ti3 2.012790 1_554
O3 Ti1 2.013457 1_555
O4 Ti3 2.012754 1_555
O4 Ti0 2.013427 1_555
O5 Ti2 2.012790 1_665
O5 Ti1 2.013456 1_655
O6 Ti3 2.012792 1_554
O6 Ti0 2.013455 1_554
O7 Ti2 2.012751 1_565
O7 Ti1 2.013430 1_555
O8 Ti0 1.917198 1_555
O9 Ti1 1.917198 1_555
O10 Ti2 1.920778 1_555
O11 Ti3 1.920787 1_555
O12 Ti0 1.917198 1_555
O13 Ti1 1.917198 1_555
O14 Ti3 1.920782 1_554
O15 Ti2 1.920794 1_665
