# generated using pymatgen
data_LiCo2OF3
_symmetry_space_group_name_H-M   'P 1'
_cell_length_a   6.21682888
_cell_length_b   6.21682888
_cell_length_c   6.21682922
_cell_angle_alpha   57.74755287
_cell_angle_beta   57.74755287
_cell_angle_gamma   57.74754137
_symmetry_Int_Tables_number   1
_chemical_formula_structural   LiCo2OF3
_chemical_formula_sum   'Li2 Co4 O2 F6'
_cell_volume   161.10907241
_cell_formula_units_Z   2
loop_
 _symmetry_equiv_pos_site_id
 _symmetry_equiv_pos_as_xyz
  1  'x, y, z'
loop_
 _atom_site_type_symbol
 _atom_site_label
 _atom_site_symmetry_multiplicity
 _atom_site_fract_x
 _atom_site_fract_y
 _atom_site_fract_z
 _atom_site_occupancy
  Li  Li0  1  0.64658700  0.64658700  0.64658700  1
  Li  Li1  1  0.35341300  0.35341300  0.35341300  1
  Co  Co0  1  0.50000000  0.00000000  0.00000000  1
  Co  Co1  1  0.00000000  0.00000000  0.00000000  1
  Co  Co2  1  0.00000000  0.00000000  0.50000000  1
  Co  Co3  1  0.00000000  0.50000000  0.00000000  1
  O  O0  1  0.77380800  0.77380800  0.77380800  1
  O  O1  1  0.22619200  0.22619200  0.22619200  1
  F  F0  1  0.23889300  0.75120700  0.23889300  1
  F  F1  1  0.23889300  0.23889300  0.75120700  1
  F  F2  1  0.24879300  0.76110700  0.76110700  1
  F  F3  1  0.75120700  0.23889300  0.23889300  1
  F  F4  1  0.76110700  0.76110700  0.24879300  1
  F  F5  1  0.76110700  0.24879300  0.76110700  1
loop_
_geom_bond_atom_site_label_1
_geom_bond_atom_site_label_2
_geom_bond_distance
_geom_bond_site_symmetry_2
Li0 O0 1.969655 1_555
Li1 O1 1.969655 1_555
Co0 O0 1.962981 1_544
Co0 O1 1.962981 1_555
Co0 F4 2.210856 1_545
Co0 F1 2.210856 1_554
Co0 F5 2.210856 1_554
Co0 F0 2.210856 1_545
Co1 F0 2.062625 1_545
Co1 F5 2.062625 1_454
Co1 F3 2.062625 1_455
Co1 F2 2.062625 1_544
Co1 F1 2.062625 1_554
Co1 F4 2.062625 1_445
Co2 O0 1.962982 1_445
Co2 O1 1.962982 1_555
Co2 F5 2.210856 1_455
Co2 F2 2.210856 1_545
Co2 F0 2.210856 1_545
Co2 F3 2.210856 1_455
Co3 O0 1.962981 1_454
Co3 O1 1.962981 1_555
Co3 F4 2.210856 1_455
Co3 F1 2.210856 1_554
Co3 F2 2.210856 1_554
Co3 F3 2.210856 1_455
F0 Li1 1.977934 1_555
F1 Li1 1.977935 1_555
F2 Li0 1.977934 1_555
F3 Li1 1.977934 1_555
F4 Li0 1.977935 1_555
F5 Li0 1.977934 1_555
