# generated using pymatgen
data_LiLa2Ti2CrO9
_symmetry_space_group_name_H-M   'P 1'
_cell_length_a   5.55451600
_cell_length_b   5.47594500
_cell_length_c   23.41397227
_cell_angle_alpha   89.98113549
_cell_angle_beta   90.00000000
_cell_angle_gamma   90.00000000
_symmetry_Int_Tables_number   1
_chemical_formula_structural   LiLa2Ti2CrO9
_chemical_formula_sum   'Li4 La8 Ti8 Cr4 O36'
_cell_volume   712.16458942
_cell_formula_units_Z   4
loop_
 _symmetry_equiv_pos_site_id
 _symmetry_equiv_pos_as_xyz
  1  'x, y, z'
loop_
 _atom_site_type_symbol
 _atom_site_label
 _atom_site_symmetry_multiplicity
 _atom_site_fract_x
 _atom_site_fract_y
 _atom_site_fract_z
 _atom_site_occupancy
  Li  Li0  1  0.41894900  0.75015100  0.49971500  1
  Li  Li1  1  0.43765600  0.75886900  0.16773700  1
  Li  Li2  1  0.93765600  0.24113100  0.83226300  1
  Li  Li3  1  0.91894900  0.24984900  0.50028500  1
  La  La0  1  0.53289600  0.75853800  0.83248700  1
  La  La1  1  0.03289600  0.24146200  0.16751300  1
  La  La2  1  0.97068800  0.25572100  0.66656100  1
  La  La3  1  0.97165100  0.25656900  0.99768700  1
  La  La4  1  0.97326000  0.25586400  0.33604700  1
  La  La5  1  0.47326000  0.74413600  0.66395300  1
  La  La6  1  0.47068800  0.74427900  0.33343900  1
  La  La7  1  0.47165100  0.74343100  0.00231300  1
  Ti  Ti0  1  0.98479800  0.75357400  0.42367600  1
  Ti  Ti1  1  0.98413400  0.75346000  0.57631200  1
  Ti  Ti2  1  0.00885900  0.74981800  0.91091200  1
  Ti  Ti3  1  0.99594200  0.75040900  0.24721000  1
  Ti  Ti4  1  0.48413400  0.24654000  0.42368800  1
  Ti  Ti5  1  0.50885900  0.25018200  0.08908800  1
  Ti  Ti6  1  0.49594200  0.24959100  0.75279000  1
  Ti  Ti7  1  0.48479800  0.24642600  0.57632400  1
  Cr  Cr0  1  0.00516500  0.74912600  0.75002500  1
  Cr  Cr1  1  0.00012100  0.74961500  0.08448800  1
  Cr  Cr2  1  0.50012100  0.25038500  0.91551200  1
  Cr  Cr3  1  0.50516500  0.25087400  0.24997500  1
  O  O0  1  0.00940300  0.64578400  0.50001500  1
  O  O1  1  0.99518400  0.65805000  0.83341500  1
  O  O2  1  0.99165900  0.68239800  0.16843500  1
  O  O3  1  0.30581200  0.96156600  0.43092100  1
  O  O4  1  0.30671200  0.95756600  0.56996700  1
  O  O5  1  0.29943900  0.96070900  0.75718100  1
  O  O6  1  0.29327800  0.95470000  0.90665400  1
  O  O7  1  0.29320500  0.96855600  0.09891400  1
  O  O8  1  0.28725900  0.96340500  0.23577700  1
  O  O9  1  0.80671200  0.04243400  0.43003300  1
  O  O10  1  0.80581200  0.03843400  0.56907900  1
  O  O11  1  0.78725900  0.03659500  0.76422300  1
  O  O12  1  0.79320500  0.03144400  0.90108600  1
  O  O13  1  0.79327800  0.04530000  0.09334600  1
  O  O14  1  0.79943900  0.03929100  0.24281900  1
  O  O15  1  0.50940300  0.35421600  0.49998500  1
  O  O16  1  0.49165900  0.31760200  0.83156500  1
  O  O17  1  0.49518400  0.34195000  0.16658500  1
  O  O18  1  0.52542200  0.18020500  0.66448300  1
  O  O19  1  0.51380900  0.17867400  0.33567200  1
  O  O20  1  0.51404200  0.18009400  0.00019600  1
  O  O21  1  0.23836900  0.46747700  0.59825900  1
  O  O22  1  0.21837200  0.46734800  0.26316000  1
  O  O23  1  0.22806000  0.47921400  0.93215800  1
  O  O24  1  0.22151900  0.46128000  0.07129400  1
  O  O25  1  0.23459800  0.47157600  0.73320900  1
  O  O26  1  0.23973900  0.47372000  0.40236600  1
  O  O27  1  0.73973900  0.52628000  0.59763400  1
  O  O28  1  0.73459800  0.52842400  0.26679100  1
  O  O29  1  0.72151900  0.53872000  0.92870600  1
  O  O30  1  0.71837200  0.53265200  0.73684000  1
  O  O31  1  0.72806000  0.52078600  0.06784200  1
  O  O32  1  0.73836900  0.53252300  0.40174100  1
  O  O33  1  0.01380900  0.82132600  0.66432800  1
  O  O34  1  0.01404200  0.81990600  0.99980400  1
  O  O35  1  0.02542200  0.81979500  0.33551700  1
loop_
_geom_bond_atom_site_label_1
_geom_bond_atom_site_label_2
_geom_bond_distance
_geom_bond_site_symmetry_2
Li0 O3 2.080489 1_555
Li0 O4 2.094167 1_555
Li0 O15 2.225579 1_555
Li0 O0 2.345532 1_555
Li1 O8 2.119299 1_555
Li1 O7 2.134870 1_555
Li1 O17 2.305446 1_555
Li1 O2 2.512492 1_455
Li2 O11 2.119299 1_555
Li2 O12 2.134870 1_555
Li2 O1 2.305446 1_555
Li2 O16 2.512492 1_555
Li3 O10 2.080489 1_555
Li3 O9 2.094167 1_555
Li3 O0 2.225579 1_655
Li3 O15 2.345532 1_555
La0 O16 2.425484 1_555
La0 O6 2.437646 1_555
La0 O5 2.452507 1_555
La0 O11 2.620616 1_565
La0 O1 2.626173 1_555
La0 O12 2.627787 1_565
La0 O30 2.758345 1_555
La0 O29 2.760480 1_555
La1 O2 2.425484 1_455
La1 O13 2.437646 1_455
La1 O14 2.452507 1_455
La1 O8 2.620616 1_545
La1 O17 2.626173 1_555
La1 O7 2.627787 1_545
La1 O22 2.758345 1_555
La1 O24 2.760480 1_555
La2 O33 2.391340 1_645
La2 O25 2.445883 1_655
La2 O21 2.472158 1_655
La2 O18 2.508044 1_555
La2 O27 2.538423 1_555
La2 O30 2.640678 1_555
La2 O10 2.732357 1_555
La2 O11 2.775765 1_555
La3 O34 2.403203 1_645
La3 O23 2.422330 1_655
La3 O24 2.480797 1_656
La3 O31 2.573665 1_556
La3 O20 2.576730 1_556
La3 O29 2.631436 1_555
La3 O13 2.708294 1_556
La3 O12 2.760399 1_555
La4 O35 2.405439 1_645
La4 O26 2.454879 1_655
La4 O22 2.471003 1_655
La4 O32 2.522866 1_555
La4 O28 2.571544 1_555
La4 O19 2.586811 1_555
La4 O9 2.657558 1_555
La4 O14 2.665543 1_555
La5 O18 2.405439 1_565
La5 O27 2.454879 1_555
La5 O30 2.471003 1_555
La5 O21 2.522866 1_555
La5 O25 2.571544 1_555
La5 O33 2.586811 1_555
La5 O4 2.657558 1_555
La5 O5 2.665543 1_555
La6 O19 2.391340 1_565
La6 O28 2.445883 1_555
La6 O32 2.472158 1_555
La6 O35 2.508044 1_555
La6 O26 2.538423 1_555
La6 O22 2.640678 1_555
La6 O3 2.732357 1_555
La6 O8 2.775765 1_555
La7 O20 2.403203 1_565
La7 O31 2.422330 1_555
La7 O29 2.480797 1_554
La7 O23 2.573665 1_554
La7 O34 2.576730 1_554
La7 O24 2.631436 1_555
La7 O6 2.708294 1_554
La7 O7 2.760399 1_555
Cr0 O30 2.009566 1_455
Cr0 O5 2.010559 1_555
Cr0 O11 2.013412 1_465
Cr0 O1 2.015783 1_455
Cr0 O25 2.022233 1_555
Cr0 O33 2.045523 1_555
Cr1 O13 1.996221 1_465
Cr1 O2 2.000133 1_455
Cr1 O31 2.001499 1_455
Cr1 O34 2.021159 1_554
Cr1 O24 2.025095 1_555
Cr1 O7 2.049860 1_555
Cr2 O6 1.996221 1_545
Cr2 O16 2.000133 1_555
Cr2 O23 2.001499 1_555
Cr2 O20 2.021159 1_556
Cr2 O29 2.025095 1_555
Cr2 O12 2.049860 1_555
Cr3 O22 2.009566 1_555
Cr3 O14 2.010559 1_555
Cr3 O8 2.013412 1_545
Cr3 O17 2.015783 1_555
Cr3 O28 2.022233 1_555
Cr3 O19 2.045523 1_555
O0 Ti1 1.886620 1_455
O0 Ti0 1.887108 1_455
O1 Ti2 1.884502 1_655
O2 Ti3 1.881930 1_555
O3 Ti4 1.856003 1_565
O3 Ti0 2.122612 1_455
O4 Ti7 1.871583 1_565
O4 Ti1 2.116973 1_455
O5 Ti6 1.924631 1_565
O6 Ti2 1.940200 1_555
O7 Ti5 1.966172 1_565
O8 Ti3 2.012502 1_455
O9 Ti0 1.871583 1_545
O9 Ti4 2.116973 1_555
O10 Ti1 1.856003 1_545
O10 Ti7 2.122612 1_555
O11 Ti6 2.012502 1_555
O12 Ti2 1.966172 1_645
O13 Ti5 1.940200 1_555
O14 Ti3 1.924631 1_545
O15 Ti4 1.886620 1_555
O15 Ti7 1.887108 1_555
O16 Ti6 1.881930 1_555
O17 Ti5 1.884502 1_555
O18 Ti7 2.107758 1_555
O18 Ti6 2.108729 1_555
O19 Ti4 2.100642 1_555
O20 Ti5 2.116726 1_555
O21 Ti7 1.898156 1_555
O21 Ti1 2.170287 1_455
O22 Ti3 2.016955 1_455
O23 Ti2 1.981208 1_555
O24 Ti5 2.014158 1_555
O25 Ti6 1.948002 1_555
O26 Ti4 1.907674 1_555
O26 Ti0 2.145500 1_455
O27 Ti1 1.907674 1_555
O27 Ti7 2.145500 1_555
O28 Ti3 1.948002 1_555
O29 Ti2 2.014158 1_655
O30 Ti6 2.016955 1_555
O31 Ti5 1.981208 1_555
O32 Ti0 1.898156 1_555
O32 Ti4 2.170287 1_555
O33 Ti1 2.100642 1_455
O34 Ti2 2.116726 1_555
O35 Ti0 2.107758 1_455
O35 Ti3 2.108729 1_455
