# generated using pymatgen
data_ScFeO3
_symmetry_space_group_name_H-M   'P 1'
_cell_length_a   5.02317448
_cell_length_b   5.39746641
_cell_length_c   7.42736828
_cell_angle_alpha   90.10703547
_cell_angle_beta   89.65309211
_cell_angle_gamma   90.02223936
_symmetry_Int_Tables_number   1
_chemical_formula_structural   ScFeO3
_chemical_formula_sum   'Sc4 Fe4 O12'
_cell_volume   201.36983822
_cell_formula_units_Z   4
loop_
 _symmetry_equiv_pos_site_id
 _symmetry_equiv_pos_as_xyz
  1  'x, y, z'
loop_
 _atom_site_type_symbol
 _atom_site_label
 _atom_site_symmetry_multiplicity
 _atom_site_fract_x
 _atom_site_fract_y
 _atom_site_fract_z
 _atom_site_occupancy
  Sc  Sc0  1  0.02922500  0.92282500  0.74965700  1
  Sc  Sc1  1  0.47068500  0.42223400  0.74916200  1
  Sc  Sc2  1  0.52931300  0.57776500  0.25083700  1
  Sc  Sc3  1  0.97077600  0.07717500  0.25034500  1
  Fe  Fe0  1  0.00000300  0.50000100  0.99999900  1
  Fe  Fe1  1  0.00000100  0.50000000  0.50000000  1
  Fe  Fe2  1  0.49999800  0.00000100  0.99999900  1
  Fe  Fe3  1  0.50000000  0.00000100  0.50000100  1
  O  O0  1  0.14050700  0.44374100  0.24106700  1
  O  O1  1  0.19333300  0.18776500  0.56835600  1
  O  O2  1  0.18042000  0.19860100  0.92961300  1
  O  O3  1  0.31926800  0.69851200  0.56943000  1
  O  O4  1  0.30609900  0.68796100  0.93085600  1
  O  O5  1  0.36049000  0.94410600  0.25850400  1
  O  O6  1  0.63951100  0.05589500  0.74149600  1
  O  O7  1  0.69389900  0.31203800  0.06914400  1
  O  O8  1  0.68073400  0.30148800  0.43056900  1
  O  O9  1  0.81957900  0.80140100  0.07038700  1
  O  O10  1  0.80666900  0.81223400  0.43164400  1
  O  O11  1  0.85949200  0.55625800  0.75893300  1
loop_
_geom_bond_atom_site_label_1
_geom_bond_atom_site_label_2
_geom_bond_distance
_geom_bond_site_symmetry_2
Fe0 O4 1.910044 1_555
Fe0 O7 1.910088 1_456
Fe0 O2 1.932179 1_555
Fe0 O9 1.932200 1_456
Fe0 O11 1.952872 1_455
Fe0 O0 1.952876 1_556
Fe1 O3 1.998133 1_555
Fe1 O8 1.998135 1_455
Fe1 O10 2.012824 1_455
Fe1 O1 2.012828 1_555
Fe1 O0 2.066531 1_555
Fe1 O11 2.066536 1_455
Fe2 O2 2.003227 1_555
Fe2 O9 2.003243 1_546
Fe2 O7 2.012594 1_556
Fe2 O4 2.012599 1_545
Fe2 O6 2.062578 1_555
Fe2 O5 2.062584 1_546
Fe3 O1 1.909874 1_555
Fe3 O10 1.909894 1_545
Fe3 O3 1.932475 1_545
Fe3 O8 1.932476 1_555
Fe3 O6 1.952540 1_555
Fe3 O5 1.952553 1_545
O0 Sc2 2.084070 1_555
O0 Sc3 2.155160 1_455
O1 Sc0 2.128520 1_545
O1 Sc1 2.315364 1_555
O1 Sc3 2.685378 1_455
O2 Sc0 2.140770 1_545
O2 Sc1 2.315220 1_555
O2 Sc3 2.681098 1_456
O3 Sc1 2.145892 1_555
O3 Sc0 2.313459 1_555
O3 Sc2 2.664943 1_555
O4 Sc1 2.131182 1_555
O4 Sc0 2.320118 1_555
O4 Sc2 2.701356 1_556
O5 Sc3 2.086727 1_465
O5 Sc2 2.152314 1_555
O6 Sc0 2.086729 1_645
O6 Sc1 2.152310 1_555
O7 Sc2 2.131177 1_555
O7 Sc3 2.320133 1_555
O7 Sc1 2.701362 1_554
O8 Sc2 2.145895 1_555
O8 Sc3 2.313443 1_555
O8 Sc1 2.664949 1_555
O9 Sc3 2.140775 1_565
O9 Sc2 2.315227 1_555
O9 Sc0 2.681086 1_654
O10 Sc3 2.128512 1_565
O10 Sc2 2.315381 1_555
O10 Sc0 2.685390 1_655
O11 Sc1 2.084075 1_555
O11 Sc0 2.155169 1_655
