# generated using pymatgen
data_Li2V3NiO8
_symmetry_space_group_name_H-M   'P 1'
_cell_length_a   5.86875000
_cell_length_b   5.86877786
_cell_length_c   9.73247900
_cell_angle_alpha   89.99949321
_cell_angle_beta   89.99955219
_cell_angle_gamma   119.99951613
_symmetry_Int_Tables_number   1
_chemical_formula_structural   Li2V3NiO8
_chemical_formula_sum   'Li4 V6 Ni2 O16'
_cell_volume   290.30165091
_cell_formula_units_Z   2
loop_
 _symmetry_equiv_pos_site_id
 _symmetry_equiv_pos_as_xyz
  1  'x, y, z'
loop_
 _atom_site_type_symbol
 _atom_site_label
 _atom_site_symmetry_multiplicity
 _atom_site_fract_x
 _atom_site_fract_y
 _atom_site_fract_z
 _atom_site_occupancy
  Li  Li0  1  0.33335200  0.66669800  0.89513500  1
  Li  Li1  1  0.99999900  0.00002600  0.99605700  1
  Li  Li2  1  0.00000600  0.00005500  0.49604400  1
  Li  Li3  1  0.66665400  0.33331600  0.39514000  1
  V  V0  1  0.14638300  0.80747400  0.21354400  1
  V  V1  1  0.19254500  0.33892700  0.21354300  1
  V  V2  1  0.85366500  0.66108000  0.71353800  1
  V  V3  1  0.66108100  0.85360700  0.21353100  1
  V  V4  1  0.33891000  0.19260800  0.71354600  1
  V  V5  1  0.80740400  0.14632900  0.71352600  1
  Ni  Ni0  1  0.33338600  0.66673600  0.49176000  1
  Ni  Ni1  1  0.66668300  0.33330700  0.99173000  1
  O  O0  1  0.17495400  0.85484900  0.60800700  1
  O  O1  1  0.03533400  0.52956400  0.33158500  1
  O  O2  1  0.33333900  0.66667200  0.10012000  1
  O  O3  1  0.99999000  0.00000500  0.31147100  1
  O  O4  1  0.99998100  0.99999300  0.81146500  1
  O  O5  1  0.14517600  0.32014700  0.60801800  1
  O  O6  1  0.49420400  0.96464800  0.33158300  1
  O  O7  1  0.47042500  0.50576900  0.33157500  1
  O  O8  1  0.32013400  0.14522300  0.10801900  1
  O  O9  1  0.67987100  0.82508000  0.60801200  1
  O  O10  1  0.50578700  0.47045700  0.83156700  1
  O  O11  1  0.52952700  0.03535600  0.83158600  1
  O  O12  1  0.66666800  0.33335100  0.60012000  1
  O  O13  1  0.82509500  0.67988400  0.10801900  1
  O  O14  1  0.96466800  0.49420900  0.83158000  1
  O  O15  1  0.85477800  0.17493000  0.10802100  1
loop_
_geom_bond_atom_site_label_1
_geom_bond_atom_site_label_2
_geom_bond_distance
_geom_bond_site_symmetry_2
Li0 O11 1.974372 1_565
Li0 O10 1.974521 1_555
Li0 O14 1.974525 1_455
Li0 O2 1.995012 1_556
Li1 O4 1.796538 1_545
Li1 O15 1.960164 1_556
Li1 O8 1.960219 1_656
Li1 O13 1.960220 1_546
Li2 O3 1.796353 1_455
Li2 O5 1.960111 1_555
Li2 O9 1.960237 1_445
Li2 O0 1.960286 1_545
Li3 O6 1.974469 1_545
Li3 O1 1.974502 1_655
Li3 O7 1.974536 1_555
Li3 O12 1.994964 1_555
Ni0 O9 2.094989 1_555
Ni0 O0 2.095187 1_555
Ni0 O5 2.095450 1_555
Ni0 O6 2.174316 1_555
Ni0 O7 2.174732 1_555
Ni0 O1 2.174822 1_555
Ni1 O15 2.095109 1_556
Ni1 O8 2.095410 1_556
Ni1 O13 2.095579 1_556
Ni1 O11 2.174247 1_555
Ni1 O14 2.174391 1_555
Ni1 O10 2.174701 1_555
O0 V2 1.938860 1_455
O0 V4 2.000725 1_565
O1 V0 1.828034 1_555
O1 V1 2.110699 1_555
O2 V3 2.002853 1_555
O2 V1 2.002914 1_555
O2 V0 2.002973 1_555
O3 V0 1.973311 1_645
O3 V3 1.973315 1_545
O3 V1 1.973317 1_655
O4 V2 1.973314 1_555
O4 V4 1.973322 1_665
O4 V5 1.973337 1_565
O5 V4 1.938765 1_555
O5 V5 2.000595 1_455
O6 V3 1.828140 1_555
O6 V0 2.110592 1_555
O7 V1 1.827882 1_555
O7 V3 2.110672 1_555
O8 V1 1.938810 1_555
O8 V0 2.000581 1_545
O9 V5 1.938611 1_565
O9 V2 2.000783 1_555
O10 V4 1.827724 1_555
O10 V2 2.110742 1_555
O11 V5 1.828047 1_555
O11 V4 2.110768 1_555
O12 V2 2.002869 1_555
O12 V5 2.002903 1_555
O12 V4 2.003001 1_555
O13 V0 1.938804 1_655
O13 V3 2.000462 1_555
O14 V2 1.827915 1_555
O14 V5 2.110915 1_555
O15 V3 1.938850 1_545
O15 V1 2.000664 1_655
