# generated using pymatgen
data_VH10S2(NO4)2
_symmetry_space_group_name_H-M   'P 1'
_cell_length_a   7.34800600
_cell_length_b   7.50767900
_cell_length_c   10.24963713
_cell_angle_alpha   54.16747519
_cell_angle_beta   90.00000000
_cell_angle_gamma   90.00000000
_symmetry_Int_Tables_number   1
_chemical_formula_structural   VH10S2(NO4)2
_chemical_formula_sum   'V2 H20 S4 N4 O16'
_cell_volume   458.41709440
_cell_formula_units_Z   2
loop_
 _symmetry_equiv_pos_site_id
 _symmetry_equiv_pos_as_xyz
  1  'x, y, z'
loop_
 _atom_site_type_symbol
 _atom_site_label
 _atom_site_symmetry_multiplicity
 _atom_site_fract_x
 _atom_site_fract_y
 _atom_site_fract_z
 _atom_site_occupancy
  V  V0  1  0.00000000  0.00000000  0.50000000  1
  V  V1  1  0.50000000  0.00000000  0.00000000  1
  H  H0  1  0.06422700  0.56857600  0.21097300  1
  H  H1  1  0.13465600  0.33213400  0.10734300  1
  H  H2  1  0.66999900  0.68824900  0.02599600  1
  H  H3  1  0.93577300  0.43142400  0.78902700  1
  H  H4  1  0.72301000  0.71960600  0.64123000  1
  H  H5  1  0.60499700  0.20720500  0.45765700  1
  H  H6  1  0.22301000  0.28039400  0.85877000  1
  H  H7  1  0.10499700  0.79279500  0.04234300  1
  H  H8  1  0.43577300  0.56857600  0.71097300  1
  H  H9  1  0.83000100  0.68824900  0.52599600  1
  H  H10  1  0.36534400  0.33213400  0.60734300  1
  H  H11  1  0.56422700  0.43142400  0.28902700  1
  H  H12  1  0.63465600  0.66786600  0.39265700  1
  H  H13  1  0.16999900  0.31175100  0.47400400  1
  H  H14  1  0.89500300  0.20720500  0.95765700  1
  H  H15  1  0.77699000  0.71960600  0.14123000  1
  H  H16  1  0.39500300  0.79279500  0.54234300  1
  H  H17  1  0.27699000  0.28039400  0.35877000  1
  H  H18  1  0.86534400  0.66786600  0.89265700  1
  H  H19  1  0.33000100  0.31175100  0.97400400  1
  S  S0  1  0.18359700  0.96845000  0.24693300  1
  S  S1  1  0.31640300  0.96845000  0.74693300  1
  S  S2  1  0.68359700  0.03155000  0.25306700  1
  S  S3  1  0.81640300  0.03155000  0.75306700  1
  N  N0  1  0.67931500  0.10661600  0.07709300  1
  N  N1  1  0.82068500  0.10661600  0.57709300  1
  N  N2  1  0.17931500  0.89338400  0.42290700  1
  N  N3  1  0.32068500  0.89338400  0.92290700  1
  O  O0  1  0.85755600  0.11731300  0.28552800  1
  O  O1  1  0.50580400  0.30039300  0.38254500  1
  O  O2  1  0.74842600  0.74670800  0.86208500  1
  O  O3  1  0.35293300  0.29824300  0.88232400  1
  O  O4  1  0.85293300  0.70175700  0.61767600  1
  O  O5  1  0.24842600  0.25329200  0.63791500  1
  O  O6  1  0.00580400  0.69960700  0.11745500  1
  O  O7  1  0.35755600  0.88268700  0.21447200  1
  O  O8  1  0.64244400  0.11731300  0.78552800  1
  O  O9  1  0.99419600  0.30039300  0.88254500  1
  O  O10  1  0.75157400  0.74670800  0.36208500  1
  O  O11  1  0.14706700  0.29824300  0.38232400  1
  O  O12  1  0.64706700  0.70175700  0.11767600  1
  O  O13  1  0.25157400  0.25329200  0.13791500  1
  O  O14  1  0.49419600  0.69960700  0.61745500  1
  O  O15  1  0.14244400  0.88268700  0.71447200  1
loop_
_geom_bond_atom_site_label_1
_geom_bond_atom_site_label_2
_geom_bond_distance
_geom_bond_site_symmetry_2
H0 O6 0.983249 1_555
H1 O13 0.984617 1_555
H2 O12 1.016497 1_555
H2 O2 1.576041 1_554
H3 O9 0.983249 1_555
H4 O4 1.012681 1_555
H5 O1 0.991359 1_555
H6 O3 1.012681 1_555
H7 O6 0.991359 1_555
H8 O14 0.983249 1_555
H9 O4 1.016497 1_555
H9 O10 1.576041 1_555
H10 O5 0.984617 1_555
H11 O1 0.983249 1_555
H12 O10 0.984617 1_555
H13 O11 1.016497 1_555
H13 O5 1.576041 1_555
H14 O9 0.991359 1_555
H15 O12 1.012681 1_555
H16 O14 0.991359 1_555
H17 O11 1.012681 1_555
H18 O2 0.984617 1_555
H19 O3 1.016497 1_555
H19 O13 1.576041 1_556
N0 S2 1.543268 1_555
N0 V1 1.934349 1_555
N1 S3 1.543268 1_555
N1 V0 1.934349 1_655
N2 S0 1.543268 1_555
N2 V0 1.934349 1_565
N3 S1 1.543268 1_555
N3 V1 1.934349 1_566
O0 S2 1.552429 1_555
O0 V0 2.106355 1_655
O2 S3 1.809278 1_565
O3 V1 2.115218 1_556
O4 V0 2.115218 1_665
O5 S1 1.809278 1_545
O7 S0 1.552429 1_555
O7 V1 2.106355 1_565
O8 S3 1.552429 1_555
O8 V1 2.106355 1_556
O10 S2 1.809278 1_565
O11 V0 2.115218 1_555
O12 V1 2.115218 1_565
O13 S0 1.809278 1_545
O15 S1 1.552429 1_555
O15 V0 2.106355 1_565
