# generated using pymatgen
data_Li3CrFe3O8
_symmetry_space_group_name_H-M   'P 1'
_cell_length_a   5.89277625
_cell_length_b   5.89277625
_cell_length_c   9.58604800
_cell_angle_alpha   90.00000000
_cell_angle_beta   90.00000000
_cell_angle_gamma   120.00000277
_symmetry_Int_Tables_number   1
_chemical_formula_structural   Li3CrFe3O8
_chemical_formula_sum   'Li6 Cr2 Fe6 O16'
_cell_volume   288.27708421
_cell_formula_units_Z   2
loop_
 _symmetry_equiv_pos_site_id
 _symmetry_equiv_pos_as_xyz
  1  'x, y, z'
loop_
 _atom_site_type_symbol
 _atom_site_label
 _atom_site_symmetry_multiplicity
 _atom_site_fract_x
 _atom_site_fract_y
 _atom_site_fract_z
 _atom_site_occupancy
  Li  Li0  1  0.65743800  0.82871900  0.05593300  1
  Li  Li1  1  0.17128100  0.34256200  0.05593300  1
  Li  Li2  1  0.17128100  0.82871900  0.05593300  1
  Li  Li3  1  0.82871900  0.17128100  0.55593300  1
  Li  Li4  1  0.82871900  0.65743800  0.55593300  1
  Li  Li5  1  0.34256200  0.17128100  0.55593300  1
  Cr  Cr0  1  0.33333300  0.66666700  0.51187000  1
  Cr  Cr1  1  0.66666700  0.33333300  0.01187000  1
  Fe  Fe0  1  0.66198200  0.83099100  0.78709000  1
  Fe  Fe1  1  0.16900900  0.33801800  0.78709000  1
  Fe  Fe2  1  0.16900900  0.83099100  0.78709000  1
  Fe  Fe3  1  0.83099100  0.16900900  0.28709000  1
  Fe  Fe4  1  0.83099100  0.66198200  0.28709000  1
  Fe  Fe5  1  0.33801800  0.16900900  0.28709000  1
  O  O0  1  0.66490700  0.83245300  0.40775800  1
  O  O1  1  0.48012400  0.51987600  0.65107100  1
  O  O2  1  0.33333300  0.66666700  0.90374500  1
  O  O3  1  0.48012400  0.96024700  0.65107100  1
  O  O4  1  0.16754700  0.33509300  0.40775800  1
  O  O5  1  0.03975300  0.51987600  0.65107100  1
  O  O6  1  0.16754700  0.83245300  0.40775800  1
  O  O7  1  0.83245300  0.16754700  0.90775800  1
  O  O8  1  0.96024700  0.48012400  0.15107100  1
  O  O9  1  0.66666700  0.33333300  0.40374500  1
  O  O10  1  0.51987600  0.03975300  0.15107100  1
  O  O11  1  0.83245300  0.66490700  0.90775800  1
  O  O12  1  0.00000000  0.00000000  0.67765500  1
  O  O13  1  0.00000000  0.00000000  0.17765500  1
  O  O14  1  0.51987600  0.48012400  0.15107100  1
  O  O15  1  0.33509300  0.16754700  0.90775800  1
loop_
_geom_bond_atom_site_label_1
_geom_bond_atom_site_label_2
_geom_bond_distance
_geom_bond_site_symmetry_2
Li0 O14 2.010816 1_555
Li0 O10 2.010821 1_565
Li0 O13 2.101829 1_665
Li0 O2 2.205462 1_554
Li0 O11 2.237982 1_554
Li0 O7 2.237986 1_564
Li1 O14 2.010816 1_555
Li1 O8 2.010821 1_455
Li1 O13 2.101829 1_555
Li1 O2 2.205462 1_554
Li1 O15 2.237982 1_554
Li1 O7 2.237986 1_454
Li2 O8 2.010816 1_455
Li2 O10 2.010816 1_565
Li2 O13 2.101829 1_565
Li2 O2 2.205458 1_554
Li2 O15 2.237986 1_564
Li2 O11 2.237986 1_454
Li3 O3 2.010816 1_545
Li3 O5 2.010816 1_655
Li3 O12 2.101829 1_655
Li3 O9 2.205458 1_555
Li3 O4 2.237986 1_655
Li3 O0 2.237986 1_545
Li4 O1 2.010816 1_555
Li4 O5 2.010821 1_655
Li4 O12 2.101829 1_665
Li4 O9 2.205462 1_555
Li4 O0 2.237982 1_555
Li4 O6 2.237986 1_655
Li5 O1 2.010816 1_555
Li5 O3 2.010821 1_545
Li5 O12 2.101829 1_555
Li5 O9 2.205462 1_555
Li5 O4 2.237982 1_555
Li5 O6 2.237986 1_545
Cr0 O6 1.964506 1_555
Cr0 O0 1.964515 1_555
Cr0 O4 1.964515 1_555
Cr0 O5 2.006307 1_555
Cr0 O3 2.006307 1_555
Cr0 O1 2.006315 1_555
Cr1 O7 1.964506 1_554
Cr1 O11 1.964515 1_554
Cr1 O15 1.964515 1_554
Cr1 O10 2.006307 1_555
Cr1 O8 2.006307 1_555
Cr1 O14 2.006315 1_555
Fe0 O2 2.015808 1_555
Fe0 O12 2.018947 1_665
Fe0 O3 2.060327 1_555
Fe0 O1 2.060331 1_555
Fe0 O11 2.070780 1_555
Fe0 O7 2.070784 1_565
Fe1 O2 2.015808 1_555
Fe1 O12 2.018947 1_555
Fe1 O5 2.060327 1_555
Fe1 O1 2.060331 1_555
Fe1 O15 2.070780 1_555
Fe1 O7 2.070784 1_455
Fe2 O2 2.015804 1_555
Fe2 O12 2.018947 1_565
Fe2 O5 2.060331 1_555
Fe2 O3 2.060331 1_555
Fe2 O11 2.070784 1_455
Fe2 O15 2.070784 1_565
Fe3 O9 2.015804 1_555
Fe3 O13 2.018947 1_655
Fe3 O10 2.060331 1_555
Fe3 O8 2.060331 1_555
Fe3 O0 2.070784 1_545
Fe3 O4 2.070784 1_655
Fe4 O9 2.015808 1_555
Fe4 O13 2.018947 1_665
Fe4 O8 2.060327 1_555
Fe4 O14 2.060331 1_555
Fe4 O0 2.070780 1_555
Fe4 O6 2.070784 1_655
Fe5 O9 2.015808 1_555
Fe5 O13 2.018947 1_555
Fe5 O10 2.060327 1_555
Fe5 O14 2.060331 1_555
Fe5 O4 2.070780 1_555
Fe5 O6 2.070784 1_545
