# generated using pymatgen
data_HfCoO3
_symmetry_space_group_name_H-M   'P 1'
_cell_length_a   5.40392000
_cell_length_b   5.43229400
_cell_length_c   7.82869300
_cell_angle_alpha   90.00007878
_cell_angle_beta   90.00026957
_cell_angle_gamma   90.00004230
_symmetry_Int_Tables_number   1
_chemical_formula_structural   HfCoO3
_chemical_formula_sum   'Hf4 Co4 O12'
_cell_volume   229.81662369
_cell_formula_units_Z   4
loop_
 _symmetry_equiv_pos_site_id
 _symmetry_equiv_pos_as_xyz
  1  'x, y, z'
loop_
 _atom_site_type_symbol
 _atom_site_label
 _atom_site_symmetry_multiplicity
 _atom_site_fract_x
 _atom_site_fract_y
 _atom_site_fract_z
 _atom_site_occupancy
  Hf  Hf0  1  0.50000700  0.99999800  0.00000000  1
  Hf  Hf1  1  0.50000100  0.99999900  0.50000000  1
  Hf  Hf2  1  0.00000100  0.50000100  0.99999900  1
  Hf  Hf3  1  0.99999500  0.50000000  0.50000000  1
  Co  Co0  1  0.48549100  0.52685300  0.25000000  1
  Co  Co1  1  0.98549400  0.97314100  0.74999800  1
  Co  Co2  1  0.01451000  0.02686800  0.24999900  1
  Co  Co3  1  0.51450800  0.47312800  0.75000100  1
  O  O0  1  0.62046900  0.08632200  0.75000000  1
  O  O1  1  0.12046700  0.41368400  0.25000000  1
  O  O2  1  0.87952300  0.58632500  0.75000100  1
  O  O3  1  0.37952700  0.91368000  0.25000100  1
  O  O4  1  0.16477600  0.16733400  0.56606900  1
  O  O5  1  0.16477500  0.16733100  0.93393200  1
  O  O6  1  0.66477500  0.33266700  0.06606900  1
  O  O7  1  0.66477500  0.33266700  0.43393000  1
  O  O8  1  0.33522600  0.66733200  0.56606700  1
  O  O9  1  0.33522600  0.66733200  0.93393400  1
  O  O10  1  0.83522700  0.83266800  0.06606600  1
  O  O11  1  0.83522800  0.83266800  0.43393500  1
loop_
_geom_bond_atom_site_label_1
_geom_bond_atom_site_label_2
_geom_bond_distance
_geom_bond_site_symmetry_2
Hf0 O6 2.079936 1_565
Hf0 O9 2.079946 1_554
Hf0 O10 2.091721 1_555
Hf0 O5 2.091788 1_564
Hf0 O0 2.115231 1_564
Hf0 O3 2.115261 1_555
Hf1 O8 2.079942 1_555
Hf1 O7 2.079950 1_565
Hf1 O11 2.091758 1_555
Hf1 O4 2.091766 1_565
Hf1 O3 2.115231 1_555
Hf1 O0 2.115233 1_565
Hf2 O10 2.079940 1_456
Hf2 O5 2.079954 1_555
Hf2 O9 2.091748 1_555
Hf2 O6 2.091769 1_456
Hf2 O1 2.115231 1_556
Hf2 O2 2.115238 1_455
Hf3 O11 2.079924 1_555
Hf3 O4 2.079954 1_655
Hf3 O7 2.091734 1_555
Hf3 O8 2.091777 1_655
Hf3 O1 2.115237 1_655
Hf3 O2 2.115255 1_555
Co0 O7 2.030961 1_555
Co0 O6 2.030971 1_555
Co0 O1 2.066139 1_555
Co0 O3 2.177981 1_555
Co1 O4 2.030975 1_665
Co1 O5 2.030984 1_665
Co1 O0 2.066165 1_565
Co1 O2 2.177933 1_555
Co2 O10 2.031011 1_445
Co2 O11 2.031034 1_445
Co2 O3 2.066135 1_545
Co2 O1 2.177913 1_555
Co3 O9 2.031027 1_555
Co3 O8 2.031029 1_555
Co3 O2 2.066138 1_555
Co3 O0 2.177867 1_555
