# generated using pymatgen
data_FeOF
_symmetry_space_group_name_H-M   'P 1'
_cell_length_a   3.11190300
_cell_length_b   9.46062500
_cell_length_c   14.24690663
_cell_angle_alpha   89.94904595
_cell_angle_beta   90.00000000
_cell_angle_gamma   90.00000000
_symmetry_Int_Tables_number   1
_chemical_formula_structural   FeOF
_chemical_formula_sum   'Fe12 O12 F12'
_cell_volume   419.43656304
_cell_formula_units_Z   12
loop_
 _symmetry_equiv_pos_site_id
 _symmetry_equiv_pos_as_xyz
  1  'x, y, z'
loop_
 _atom_site_type_symbol
 _atom_site_label
 _atom_site_symmetry_multiplicity
 _atom_site_fract_x
 _atom_site_fract_y
 _atom_site_fract_z
 _atom_site_occupancy
  Fe  Fe0  1  0.00000000  0.98103500  0.99824500  1
  Fe  Fe1  1  0.00000000  0.98738800  0.32859400  1
  Fe  Fe2  1  0.00000000  0.98107400  0.66150700  1
  Fe  Fe3  1  0.50000000  0.77249700  0.16687600  1
  Fe  Fe4  1  0.50000000  0.77189000  0.49384900  1
  Fe  Fe5  1  0.50000000  0.77285900  0.82963900  1
  Fe  Fe6  1  0.00000000  0.48051900  0.32985700  1
  Fe  Fe7  1  0.00000000  0.48464200  0.99564900  1
  Fe  Fe8  1  0.00000000  0.48385200  0.66216400  1
  Fe  Fe9  1  0.50000000  0.23804700  0.18550500  1
  Fe  Fe10  1  0.50000000  0.27032400  0.49694400  1
  Fe  Fe11  1  0.50000000  0.26936200  0.82916500  1
  O  O0  1  0.50000000  0.89977300  0.27055400  1
  O  O1  1  0.50000000  0.90434000  0.60030600  1
  O  O2  1  0.50000000  0.90293900  0.93532900  1
  O  O3  1  0.00000000  0.84756300  0.10184800  1
  O  O4  1  0.00000000  0.84845600  0.76789700  1
  O  O5  1  0.00000000  0.84878700  0.43349900  1
  O  O6  1  0.50000000  0.40458600  0.26603600  1
  O  O7  1  0.50000000  0.39984500  0.93909800  1
  O  O8  1  0.50000000  0.40484000  0.60164700  1
  O  O9  1  0.00000000  0.34871300  0.43494100  1
  O  O10  1  0.00000000  0.35082600  0.76904100  1
  O  O11  1  0.00000000  0.14715000  0.23559100  1
  F  F0  1  0.00000000  0.65220800  0.23285100  1
  F  F1  1  0.00000000  0.65308200  0.56468200  1
  F  F2  1  0.00000000  0.65024000  0.90065000  1
  F  F3  1  0.50000000  0.59202800  0.06752900  1
  F  F4  1  0.50000000  0.59812500  0.39780500  1
  F  F5  1  0.50000000  0.60044200  0.73258500  1
  F  F6  1  0.00000000  0.34443500  0.10359100  1
  F  F7  1  0.00000000  0.15300600  0.89828400  1
  F  F8  1  0.00000000  0.15426200  0.56755700  1
  F  F9  1  0.50000000  0.10286100  0.06330800  1
  F  F10  1  0.50000000  0.09877300  0.40464800  1
  F  F11  1  0.50000000  0.09923500  0.73272900  1
loop_
_geom_bond_atom_site_label_1
_geom_bond_atom_site_label_2
_geom_bond_distance
_geom_bond_site_symmetry_2
Fe0 O3 1.941600 1_556
Fe0 O2 1.942035 1_455
Fe0 O2 1.942035 1_555
Fe1 O0 1.947566 1_555
Fe1 O0 1.947566 1_455
Fe1 O5 1.987370 1_555
Fe1 O11 2.009117 1_565
Fe2 O1 1.925972 1_555
Fe2 O1 1.925972 1_455
Fe2 O4 1.966773 1_555
Fe3 O0 1.906526 1_555
Fe3 O3 1.944856 1_555
Fe3 O3 1.944856 1_655
Fe4 O5 1.920515 1_655
Fe4 O5 1.920515 1_555
Fe4 O1 1.968214 1_555
Fe5 O4 1.924870 1_655
Fe5 O4 1.924870 1_555
Fe5 O2 1.945525 1_555
Fe6 O6 1.940347 1_555
Fe6 O6 1.940347 1_455
Fe6 O9 1.947558 1_555
Fe7 O7 1.927389 1_455
Fe7 O7 1.927389 1_555
Fe8 O8 1.929831 1_455
Fe8 O8 1.929831 1_555
Fe8 O10 1.974576 1_555
Fe9 O11 1.915353 1_655
Fe9 O11 1.915353 1_555
Fe9 O6 1.949859 1_555
Fe10 O9 1.936521 1_555
Fe10 O9 1.936521 1_655
Fe10 O8 1.961645 1_555
Fe11 O10 1.935851 1_655
Fe11 O10 1.935851 1_555
Fe11 O7 1.995070 1_555
F0 Fe6 2.131744 1_555
F0 Fe3 2.144209 1_555
F0 Fe3 2.144209 1_455
F1 Fe8 2.118520 1_555
F1 Fe4 2.168116 1_455
F1 Fe4 2.168116 1_555
F2 Fe7 2.069410 1_555
F2 Fe5 2.188180 1_555
F2 Fe5 2.188180 1_455
F3 Fe7 2.122188 1_654
F3 Fe7 2.122188 1_554
F3 Fe3 2.218707 1_555
F4 Fe4 2.139817 1_555
F4 Fe6 2.144285 1_655
F4 Fe6 2.144285 1_555
F5 Fe5 2.139310 1_555
F5 Fe8 2.155497 1_555
F5 Fe8 2.155497 1_655
F6 Fe7 2.029971 1_554
F6 Fe9 2.189491 1_455
F6 Fe9 2.189491 1_555
F7 Fe11 2.144881 1_455
F7 Fe11 2.144881 1_555
F7 Fe0 2.161253 1_545
F8 Fe2 2.114769 1_545
F8 Fe10 2.153308 1_455
F8 Fe10 2.153308 1_555
F9 Fe0 2.147204 1_544
F9 Fe0 2.147204 1_644
F9 Fe9 2.161132 1_555
F10 Fe10 2.089714 1_555
F10 Fe1 2.169677 1_545
F10 Fe1 2.169677 1_645
F11 Fe11 2.117095 1_555
F11 Fe2 2.168468 1_645
F11 Fe2 2.168468 1_545
