# generated using pymatgen
data_Na5Fe11O16
_symmetry_space_group_name_H-M   'P 1'
_cell_length_a   6.16248890
_cell_length_b   6.16248890
_cell_length_c   10.82746581
_cell_angle_alpha   73.54977956
_cell_angle_beta   73.54977956
_cell_angle_gamma   59.66006234
_symmetry_Int_Tables_number   1
_chemical_formula_structural   Na5Fe11O16
_chemical_formula_sum   'Na5 Fe11 O16'
_cell_volume   335.43235484
_cell_formula_units_Z   1
loop_
 _symmetry_equiv_pos_site_id
 _symmetry_equiv_pos_as_xyz
  1  'x, y, z'
loop_
 _atom_site_type_symbol
 _atom_site_label
 _atom_site_symmetry_multiplicity
 _atom_site_fract_x
 _atom_site_fract_y
 _atom_site_fract_z
 _atom_site_occupancy
  Na  Na0  1  0.00000000  0.50000000  0.00000000  1
  Na  Na1  1  0.50000000  0.00000000  0.00000000  1
  Na  Na2  1  0.00000000  0.50000000  0.50000000  1
  Na  Na3  1  0.00000000  0.00000000  0.00000000  1
  Na  Na4  1  0.50000000  0.00000000  0.50000000  1
  Fe  Fe0  1  0.74834200  0.74834200  0.74908000  1
  Fe  Fe1  1  0.50000000  0.50000000  0.00000000  1
  Fe  Fe2  1  0.24868100  0.75223400  0.25111700  1
  Fe  Fe3  1  0.75131900  0.24776600  0.74888300  1
  Fe  Fe4  1  0.24776600  0.75131900  0.74888300  1
  Fe  Fe5  1  0.00000000  0.00000000  0.50000000  1
  Fe  Fe6  1  0.25003200  0.25003200  0.74778400  1
  Fe  Fe7  1  0.74996800  0.74996800  0.25221600  1
  Fe  Fe8  1  0.25165800  0.25165800  0.25092000  1
  Fe  Fe9  1  0.50000000  0.50000000  0.50000000  1
  Fe  Fe10  1  0.75223400  0.24868100  0.25111700  1
  O  O0  1  0.85914900  0.38942600  0.86271800  1
  O  O1  1  0.12764600  0.63536500  0.62393000  1
  O  O2  1  0.61760500  0.61760500  0.13904900  1
  O  O3  1  0.87982900  0.87982900  0.85028200  1
  O  O4  1  0.11612400  0.11612400  0.63827500  1
  O  O5  1  0.38773700  0.38773700  0.36591000  1
  O  O6  1  0.38239500  0.38239500  0.86095100  1
  O  O7  1  0.61226300  0.61226300  0.63409000  1
  O  O8  1  0.36463500  0.87235400  0.37607000  1
  O  O9  1  0.38942600  0.85914900  0.86271800  1
  O  O10  1  0.87235400  0.36463500  0.37607000  1
  O  O11  1  0.14085100  0.61057400  0.13728200  1
  O  O12  1  0.61057400  0.14085100  0.13728200  1
  O  O13  1  0.63536500  0.12764600  0.62393000  1
  O  O14  1  0.88387600  0.88387600  0.36172500  1
  O  O15  1  0.12017100  0.12017100  0.14971800  1
loop_
_geom_bond_atom_site_label_1
_geom_bond_atom_site_label_2
_geom_bond_distance
_geom_bond_site_symmetry_2
Na0 O6 2.286543 1_554
Na0 O2 2.286543 1_455
Na0 O11 2.308476 1_555
Na0 O0 2.308476 1_454
Na0 O15 2.331269 1_555
Na0 O3 2.331269 1_454
Na1 O6 2.286543 1_554
Na1 O2 2.286543 1_545
Na1 O9 2.308476 1_544
Na1 O12 2.308476 1_555
Na1 O15 2.331269 1_555
Na1 O3 2.331269 1_544
Na2 O1 2.238274 1_555
Na2 O10 2.238274 1_455
Na2 O5 2.286905 1_555
Na2 O7 2.286905 1_455
Na2 O14 2.289206 1_455
Na2 O4 2.289206 1_555
Na3 O0 2.308257 1_454
Na3 O9 2.308257 1_544
Na3 O11 2.308257 1_545
Na3 O12 2.308257 1_455
Na3 O15 2.374565 1_555
Na3 O3 2.374565 1_444
Na4 O13 2.238274 1_555
Na4 O8 2.238274 1_545
Na4 O5 2.286905 1_555
Na4 O7 2.286905 1_545
Na4 O14 2.289206 1_545
Na4 O4 2.289206 1_555
Fe0 O3 2.045202 1_555
Fe0 O0 2.069062 1_555
Fe0 O9 2.069062 1_555
Fe0 O7 2.202204 1_555
Fe0 O1 2.209287 1_655
Fe0 O13 2.209287 1_565
Fe1 O12 2.181524 1_555
Fe1 O0 2.181524 1_554
Fe1 O11 2.181524 1_555
Fe1 O9 2.181524 1_554
Fe1 O6 2.254720 1_554
Fe1 O2 2.254720 1_555
Fe2 O15 2.059648 1_565
Fe2 O14 2.080694 1_455
Fe2 O11 2.093354 1_555
Fe2 O5 2.098109 1_555
Fe2 O2 2.105146 1_555
Fe2 O8 2.130276 1_555
Fe3 O3 2.059648 1_545
Fe3 O4 2.080694 1_655
Fe3 O0 2.093354 1_555
Fe3 O7 2.098109 1_555
Fe3 O6 2.105146 1_555
Fe3 O13 2.130276 1_555
Fe4 O3 2.059648 1_455
Fe4 O4 2.080694 1_565
Fe4 O9 2.093354 1_555
Fe4 O7 2.098109 1_555
Fe4 O6 2.105146 1_555
Fe4 O1 2.130276 1_555
Fe5 O10 2.138455 1_455
Fe5 O8 2.138455 1_545
Fe5 O1 2.138455 1_545
Fe5 O13 2.138455 1_455
Fe5 O14 2.235323 1_445
Fe5 O4 2.235323 1_555
Fe6 O4 2.136375 1_555
Fe6 O6 2.153223 1_555
Fe6 O0 2.214990 1_455
Fe6 O9 2.214990 1_545
Fe6 O13 2.228434 1_555
Fe6 O1 2.228434 1_555
Fe7 O14 2.136375 1_555
Fe7 O2 2.153223 1_555
Fe7 O11 2.214990 1_655
Fe7 O12 2.214990 1_565
Fe7 O10 2.228434 1_555
Fe7 O8 2.228434 1_555
Fe8 O15 2.045202 1_555
Fe8 O11 2.069062 1_555
Fe8 O12 2.069062 1_555
Fe8 O5 2.202204 1_555
Fe8 O10 2.209287 1_455
Fe8 O8 2.209287 1_545
Fe9 O5 2.164803 1_555
Fe9 O7 2.164803 1_555
Fe9 O13 2.172109 1_555
Fe9 O8 2.172109 1_555
Fe9 O10 2.172109 1_555
Fe9 O1 2.172109 1_555
Fe10 O15 2.059648 1_655
Fe10 O14 2.080694 1_545
Fe10 O12 2.093354 1_555
Fe10 O5 2.098109 1_555
Fe10 O2 2.105146 1_555
Fe10 O10 2.130276 1_555
