# generated using pymatgen
data_Li2Co2Si2O7
_symmetry_space_group_name_H-M   'P 1'
_cell_length_a   13.10649300
_cell_length_b   5.46664500
_cell_length_c   9.95982548
_cell_angle_alpha   57.16537880
_cell_angle_beta   90.00000000
_cell_angle_gamma   90.00000000
_symmetry_Int_Tables_number   1
_chemical_formula_structural   Li2Co2Si2O7
_chemical_formula_sum   'Li8 Co8 Si8 O28'
_cell_volume   599.60051658
_cell_formula_units_Z   4
loop_
 _symmetry_equiv_pos_site_id
 _symmetry_equiv_pos_as_xyz
  1  'x, y, z'
loop_
 _atom_site_type_symbol
 _atom_site_label
 _atom_site_symmetry_multiplicity
 _atom_site_fract_x
 _atom_site_fract_y
 _atom_site_fract_z
 _atom_site_occupancy
  Li  Li0  1  0.36621300  0.73235000  0.11229100  1
  Li  Li1  1  0.74539600  0.03562400  0.16883400  1
  Li  Li2  1  0.24539600  0.96437600  0.33116600  1
  Li  Li3  1  0.86621300  0.26765000  0.38770900  1
  Li  Li4  1  0.13378700  0.73235000  0.61229100  1
  Li  Li5  1  0.75460400  0.03562400  0.66883400  1
  Li  Li6  1  0.25460400  0.96437600  0.83116600  1
  Li  Li7  1  0.63378700  0.26765000  0.88770900  1
  Co  Co0  1  0.08476000  0.54477800  0.11468100  1
  Co  Co1  1  0.49207100  0.15595000  0.20530700  1
  Co  Co2  1  0.99207100  0.84405000  0.29469300  1
  Co  Co3  1  0.58476000  0.45522200  0.38531900  1
  Co  Co4  1  0.41524000  0.54477800  0.61468100  1
  Co  Co5  1  0.00792900  0.15595000  0.70530700  1
  Co  Co6  1  0.50792900  0.84405000  0.79469300  1
  Co  Co7  1  0.91524000  0.45522200  0.88531900  1
  Si  Si0  1  0.88517200  0.77811900  0.03780900  1
  Si  Si1  1  0.66969900  0.63609200  0.04445600  1
  Si  Si2  1  0.16969900  0.36390800  0.45554400  1
  Si  Si3  1  0.38517200  0.22188100  0.46219100  1
  Si  Si4  1  0.61482800  0.77811900  0.53780900  1
  Si  Si5  1  0.83030100  0.63609200  0.54445600  1
  Si  Si6  1  0.33030100  0.36390800  0.95554400  1
  Si  Si7  1  0.11482800  0.22188100  0.96219100  1
  O  O0  1  0.79392600  0.56565900  0.03804000  1
  O  O1  1  0.16389500  0.91489200  0.00756400  1
  O  O2  1  0.03117800  0.20972400  0.09011000  1
  O  O3  1  0.61654700  0.33726700  0.07297500  1
  O  O4  1  0.36393400  0.07635100  0.12949800  1
  O  O5  1  0.65876500  0.70346600  0.18384500  1
  O  O6  1  0.94394600  0.59829800  0.21206300  1
  O  O7  1  0.44394600  0.40170200  0.28793700  1
  O  O8  1  0.15876500  0.29653400  0.31615500  1
  O  O9  1  0.86393400  0.92364900  0.37050200  1
  O  O10  1  0.11654700  0.66273300  0.42702500  1
  O  O11  1  0.53117800  0.79027600  0.40989000  1
  O  O12  1  0.66389500  0.08510800  0.49243600  1
  O  O13  1  0.29392600  0.43434100  0.46196000  1
  O  O14  1  0.70607400  0.56565900  0.53804000  1
  O  O15  1  0.33610500  0.91489200  0.50756400  1
  O  O16  1  0.46882200  0.20972400  0.59011000  1
  O  O17  1  0.88345300  0.33726700  0.57297500  1
  O  O18  1  0.13606600  0.07635100  0.62949800  1
  O  O19  1  0.84123500  0.70346600  0.68384500  1
  O  O20  1  0.55605400  0.59829800  0.71206300  1
  O  O21  1  0.05605400  0.40170200  0.78793700  1
  O  O22  1  0.34123500  0.29653400  0.81615500  1
  O  O23  1  0.63606600  0.92364900  0.87050200  1
  O  O24  1  0.38345300  0.66273300  0.92702500  1
  O  O25  1  0.96882200  0.79027600  0.90989000  1
  O  O26  1  0.83610500  0.08510800  0.99243600  1
  O  O27  1  0.20607400  0.43434100  0.96196000  1
loop_
_geom_bond_atom_site_label_1
_geom_bond_atom_site_label_2
_geom_bond_distance
_geom_bond_site_symmetry_2
Li0 O4 1.978928 1_565
Li0 O7 1.984054 1_555
Li0 O24 2.088599 1_554
Li1 O26 2.014421 1_554
Li1 O5 2.077077 1_545
Li1 O3 2.185243 1_555
Li1 O9 2.342968 1_545
Li1 O0 2.530593 1_555
Li2 O15 2.014421 1_555
Li2 O8 2.077077 1_565
Li2 O10 2.185243 1_555
Li2 O4 2.342968 1_565
Li2 O13 2.530593 1_555
Li3 O9 1.978928 1_545
Li3 O6 1.984054 1_555
Li3 O17 2.088599 1_555
Li4 O18 1.978928 1_565
Li4 O21 1.984054 1_555
Li4 O10 2.088599 1_555
Li5 O12 2.014421 1_555
Li5 O19 2.077077 1_545
Li5 O17 2.185243 1_555
Li5 O23 2.342968 1_545
Li5 O14 2.530593 1_555
Li6 O1 2.014421 1_556
Li6 O22 2.077077 1_565
Li6 O24 2.185243 1_555
Li6 O18 2.342968 1_565
Li6 O27 2.530593 1_555
Li7 O23 1.978928 1_545
Li7 O20 1.984054 1_555
Li7 O3 2.088599 1_556
Co0 O8 1.963664 1_555
Co0 O1 1.991682 1_555
Co0 O2 2.096186 1_555
Co0 O6 2.177202 1_455
Co0 O25 2.302592 1_454
Co0 O27 2.490399 1_554
Co1 O4 1.983986 1_555
Co1 O3 1.991108 1_555
Co1 O11 1.998374 1_545
Co1 O7 2.019640 1_555
Co2 O9 1.983986 1_555
Co2 O10 1.991108 1_655
Co2 O2 1.998374 1_665
Co2 O6 2.019640 1_555
Co3 O5 1.963664 1_555
Co3 O12 1.991682 1_555
Co3 O11 2.096186 1_555
Co3 O7 2.177202 1_555
Co3 O16 2.302592 1_555
Co3 O14 2.490399 1_555
Co4 O22 1.963664 1_555
Co4 O15 1.991682 1_555
Co4 O16 2.096186 1_555
Co4 O20 2.177202 1_555
Co4 O11 2.302592 1_555
Co4 O13 2.490399 1_555
Co5 O18 1.983986 1_555
Co5 O17 1.991108 1_455
Co5 O25 1.998374 1_445
Co5 O21 2.019640 1_555
Co6 O23 1.983986 1_555
Co6 O24 1.991108 1_555
Co6 O16 1.998374 1_565
Co6 O20 2.019640 1_555
Co7 O19 1.963664 1_555
Co7 O26 1.991682 1_555
Co7 O25 2.096186 1_555
Co7 O21 2.177202 1_655
Co7 O2 2.302592 1_656
Co7 O0 2.490399 1_556
O0 Si0 1.666215 1_555
O0 Si1 1.682256 1_555
O1 Si7 1.616083 1_564
O2 Si7 1.654631 1_554
O3 Si1 1.652680 1_555
O4 Si6 1.647322 1_554
O5 Si1 1.624202 1_555
O6 Si0 1.649758 1_555
O7 Si3 1.649758 1_555
O8 Si2 1.624202 1_555
O9 Si5 1.647322 1_555
O10 Si2 1.652680 1_555
O11 Si4 1.654631 1_555
O12 Si4 1.616083 1_545
O13 Si3 1.666215 1_555
O13 Si2 1.682256 1_555
O14 Si4 1.666215 1_555
O14 Si5 1.682256 1_555
O15 Si3 1.616083 1_565
O16 Si3 1.654631 1_555
O17 Si5 1.652680 1_555
O18 Si2 1.647322 1_555
O19 Si5 1.624202 1_555
O20 Si4 1.649758 1_555
O21 Si7 1.649758 1_555
O22 Si6 1.624202 1_555
O23 Si1 1.647322 1_556
O24 Si6 1.652680 1_555
O25 Si0 1.654631 1_556
O26 Si0 1.616083 1_546
O27 Si7 1.666215 1_555
O27 Si6 1.682256 1_555
