# generated using pymatgen
data_Zr2N2O
_symmetry_space_group_name_H-M   'P 1'
_cell_length_a   8.77561433
_cell_length_b   8.78341330
_cell_length_c   8.79937504
_cell_angle_alpha   109.41880898
_cell_angle_beta   109.53582297
_cell_angle_gamma   109.34695227
_symmetry_Int_Tables_number   1
_chemical_formula_structural   Zr2N2O
_chemical_formula_sum   'Zr16 N16 O8'
_cell_volume   522.84040589
_cell_formula_units_Z   8
loop_
 _symmetry_equiv_pos_site_id
 _symmetry_equiv_pos_as_xyz
  1  'x, y, z'
loop_
 _atom_site_type_symbol
 _atom_site_label
 _atom_site_symmetry_multiplicity
 _atom_site_fract_x
 _atom_site_fract_y
 _atom_site_fract_z
 _atom_site_occupancy
  Zr  Zr0  1  0.48733168  0.49937251  0.50036484  1
  Zr  Zr1  1  0.79092292  0.54035068  0.25056092  1
  Zr  Zr2  1  0.52852439  0.75191886  0.27925245  1
  Zr  Zr3  1  0.03084331  0.74369630  0.78174164  1
  Zr  Zr4  1  0.70551820  0.96454997  0.75036796  1
  Zr  Zr5  1  0.99919529  0.51069540  0.00292373  1
  Zr  Zr6  1  0.25191522  0.29123877  0.03286857  1
  Zr  Zr7  1  0.50916907  0.99901919  0.00146081  1
  Zr  Zr8  1  0.00645821  0.99604031  0.49669933  1
  Zr  Zr9  1  0.75808547  0.21747601  0.46791613  1
  Zr  Zr10  1  0.74689601  0.71289615  0.97115932  1
  Zr  Zr11  1  0.24771563  0.78560006  0.53025888  1
  Zr  Zr12  1  0.28143030  0.02988225  0.24798379  1
  Zr  Zr13  1  0.46401009  0.25137209  0.71892144  1
  Zr  Zr14  1  0.97489467  0.25048220  0.22065880  1
  Zr  Zr15  1  0.21383381  0.45705747  0.74964033  1
  N  N0  1  0.23082624  0.26116757  0.26867021  1
  N  N1  1  0.46182912  0.72784928  0.48978942  1
  N  N2  1  0.75688662  0.77121717  0.22959787  1
  N  N3  1  0.49239446  0.96099793  0.23138221  1
  N  N4  1  0.04377569  0.52771789  0.27121045  1
  N  N5  1  0.99008731  0.76204033  0.53680760  1
  N  N6  1  0.27322968  0.54093968  0.03560036  1
  N  N7  1  0.23859177  0.22489298  0.77300980  1
  N  N8  1  0.03270505  0.77431274  0.04269514  1
  N  N9  1  0.95181971  0.46859564  0.72512713  1
  N  N10  1  0.00483777  0.23609932  0.46309622  1
  N  N11  1  0.73975493  0.97008931  0.00997315  1
  N  N12  1  0.51104578  0.04288337  0.77432762  1
  N  N13  1  0.22871573  0.98834931  0.45364851  1
  N  N14  1  0.72780198  0.45441489  0.96697909  1
  N  N15  1  0.46288916  0.51308749  0.73330183  1
  O  O0  1  0.53507448  0.47974258  0.25973203  1
  O  O1  1  0.71952359  0.27211360  0.23723450  1
  O  O2  1  0.77190480  0.73599821  0.72529118  1
  O  O3  1  0.96717811  0.22239432  0.94658624  1
  O  O4  1  0.77629486  0.02083944  0.55384226  1
  O  O5  1  0.54767934  0.27708464  0.51256937  1
  O  O6  1  0.27576104  0.73332706  0.77149153  1
  O  O7  1  0.26264851  0.03219702  0.98526231  1
loop_
_geom_bond_atom_site_label_1
_geom_bond_atom_site_label_2
_geom_bond_distance
_geom_bond_site_symmetry_2
N0 Zr14 2.104993 1_455
N0 Zr0 2.138908 1_555
N0 Zr12 2.182463 1_555
N0 Zr6 2.235642 1_555
N1 Zr0 2.119869 1_555
N1 Zr2 2.173244 1_555
N1 Zr4 2.181307 1_555
N1 Zr11 2.207615 1_555
N2 Zr10 2.122241 1_554
N2 Zr2 2.155345 1_555
N2 Zr8 2.196792 1_655
N2 Zr1 2.201904 1_555
N3 Zr2 2.112172 1_555
N3 Zr12 2.163134 1_565
N3 Zr7 2.200516 1_555
N3 Zr9 2.236015 1_565
N4 Zr14 2.148837 1_455
N4 Zr11 2.163802 1_555
N4 Zr5 2.203959 1_455
N4 Zr1 2.208145 1_455
N5 Zr3 2.133684 1_655
N5 Zr8 2.165672 1_655
N5 Zr1 2.174906 1_555
N5 Zr11 2.223206 1_655
N6 Zr2 2.108294 1_555
N6 Zr6 2.129772 1_555
N6 Zr15 2.186726 1_554
N6 Zr5 2.236043 1_455
N7 Zr6 2.114662 1_556
N7 Zr13 2.142957 1_555
N7 Zr15 2.188680 1_555
N7 Zr8 2.196926 1_545
N8 Zr12 2.118174 1_565
N8 Zr5 2.124031 1_455
N8 Zr10 2.190866 1_454
N8 Zr3 2.215095 1_554
N9 Zr3 2.103801 1_655
N9 Zr9 2.121431 1_555
N9 Zr5 2.214108 1_556
N9 Zr15 2.276174 1_655
N10 Zr14 2.112407 1_455
N10 Zr9 2.132808 1_455
N10 Zr15 2.186960 1_555
N10 Zr8 2.228270 1_545
N11 Zr7 2.101627 1_555
N11 Zr4 2.183655 1_554
N11 Zr14 2.190596 1_565
N11 Zr10 2.195197 1_554
N12 Zr4 2.086279 1_545
N12 Zr7 2.161727 1_546
N12 Zr13 2.172883 1_555
N12 Zr11 2.247874 1_545
N13 Zr12 2.123498 1_565
N13 Zr8 2.125263 1_555
N13 Zr11 2.138557 1_555
N13 Zr13 2.253779 1_565
N14 Zr13 2.144912 1_555
N14 Zr5 2.151465 1_556
N14 Zr1 2.156253 1_556
N14 Zr10 2.207305 1_555
N15 Zr0 2.099706 1_555
N15 Zr15 2.141096 1_555
N15 Zr10 2.200697 1_555
N15 Zr13 2.263355 1_555
O0 Zr6 2.158656 1_555
O0 Zr1 2.165354 1_555
O0 Zr0 2.255470 1_555
O0 Zr2 2.360626 1_555
O1 Zr7 2.159022 1_545
O1 Zr1 2.178599 1_555
O1 Zr9 2.181990 1_555
O1 Zr14 2.358373 1_555
O2 Zr3 2.129750 1_655
O2 Zr4 2.232561 1_555
O2 Zr0 2.234629 1_555
O2 Zr10 2.313000 1_555
O3 Zr6 2.147234 1_656
O3 Zr4 2.164622 1_545
O3 Zr5 2.310364 1_556
O3 Zr14 2.316392 1_556
O4 Zr9 2.133220 1_555
O4 Zr4 2.168894 1_545
O4 Zr8 2.297364 1_645
O4 Zr2 2.331011 1_545
O5 Zr9 2.197002 1_555
O5 Zr0 2.211454 1_555
O5 Zr13 2.222972 1_555
O5 Zr12 2.287639 1_555
O6 Zr7 2.158039 1_556
O6 Zr3 2.211295 1_555
O6 Zr15 2.228623 1_555
O6 Zr11 2.269526 1_555
O7 Zr6 2.212651 1_556
O7 Zr3 2.212944 1_545
O7 Zr7 2.241542 1_546
O7 Zr12 2.269487 1_556
