# generated using pymatgen
data_Fe5O3F7
_symmetry_space_group_name_H-M   'P 1'
_cell_length_a   4.81066000
_cell_length_b   4.81974652
_cell_length_c   15.57649993
_cell_angle_alpha   90.13187246
_cell_angle_beta   90.22685532
_cell_angle_gamma   91.02119701
_symmetry_Int_Tables_number   1
_chemical_formula_structural   Fe5O3F7
_chemical_formula_sum   'Fe10 O6 F14'
_cell_volume   361.09803799
_cell_formula_units_Z   2
loop_
 _symmetry_equiv_pos_site_id
 _symmetry_equiv_pos_as_xyz
  1  'x, y, z'
loop_
 _atom_site_type_symbol
 _atom_site_label
 _atom_site_symmetry_multiplicity
 _atom_site_fract_x
 _atom_site_fract_y
 _atom_site_fract_z
 _atom_site_occupancy
  Fe  Fe0  1  0.95888600  0.02770900  0.99607300  1
  Fe  Fe1  1  0.00289900  0.99460600  0.80000900  1
  Fe  Fe2  1  0.02173100  0.02268900  0.59950400  1
  Fe  Fe3  1  0.02154000  0.02555000  0.40028000  1
  Fe  Fe4  1  0.04481900  0.97244800  0.20455100  1
  Fe  Fe5  1  0.53962600  0.52575000  0.90636800  1
  Fe  Fe6  1  0.48661400  0.48836300  0.49875800  1
  Fe  Fe7  1  0.47535100  0.47430800  0.70185800  1
  Fe  Fe8  1  0.47744900  0.48653200  0.29408500  1
  Fe  Fe9  1  0.49951400  0.50199200  0.10132800  1
  O  O0  1  0.17805900  0.17584600  0.70300700  1
  O  O1  1  0.18724800  0.19076100  0.50094600  1
  O  O2  1  0.18822800  0.17934700  0.29997600  1
  O  O3  1  0.30849600  0.69202300  0.19054900  1
  O  O4  1  0.67742500  0.33310800  0.00344000  1
  O  O5  1  0.80966600  0.81113700  0.89145400  1
  F  F0  1  0.21360100  0.21549900  0.89279100  1
  F  F1  1  0.19809800  0.19584400  0.10302400  1
  F  F2  1  0.29972000  0.71225300  0.00006200  1
  F  F3  1  0.30442100  0.69910000  0.80742100  1
  F  F4  1  0.28866400  0.70576800  0.60132800  1
  F  F5  1  0.28655000  0.70949600  0.39948400  1
  F  F6  1  0.70453100  0.30119300  0.80656600  1
  F  F7  1  0.70489200  0.28937300  0.60086100  1
  F  F8  1  0.70688400  0.29172900  0.39787100  1
  F  F9  1  0.71357100  0.28665800  0.19106200  1
  F  F10  1  0.79908000  0.80173400  0.50024500  1
  F  F11  1  0.79364000  0.79082200  0.69874000  1
  F  F12  1  0.80359100  0.80405300  0.10690400  1
  F  F13  1  0.80520600  0.79430800  0.30145500  1
loop_
_geom_bond_atom_site_label_1
_geom_bond_atom_site_label_2
_geom_bond_distance
_geom_bond_site_symmetry_2
Fe0 O4 2.021049 1_556
Fe0 O5 2.053450 1_545
Fe1 O5 1.913618 1_455
Fe1 O0 1.935455 1_565
Fe2 O1 1.907729 1_555
Fe2 O0 1.916987 1_555
Fe3 O2 1.904624 1_555
Fe3 O1 1.920925 1_555
Fe4 O3 1.882888 1_555
Fe4 O2 1.907942 1_565
Fe5 O5 1.890424 1_555
Fe5 O4 1.899543 1_556
Fe6 O1 2.014839 1_555
Fe7 O0 2.010476 1_555
Fe8 O2 2.016062 1_555
Fe8 O3 2.065934 1_555
Fe9 O3 1.910224 1_555
Fe9 O4 1.936336 1_555
F0 Fe1 2.047535 1_545
F0 Fe5 2.157064 1_555
F0 Fe0 2.211699 1_455
F1 Fe4 2.047618 1_545
F1 Fe9 2.050539 1_555
F1 Fe0 2.168323 1_454
F2 Fe5 2.077059 1_554
F2 Fe9 2.113989 1_555
F2 Fe0 2.256641 1_464
F3 Fe1 2.054005 1_555
F3 Fe5 2.092749 1_555
F3 Fe7 2.141959 1_555
F4 Fe2 2.013157 1_565
F4 Fe7 2.129731 1_555
F4 Fe6 2.144126 1_555
F5 Fe3 2.003786 1_565
F5 Fe6 2.117963 1_555
F5 Fe8 2.175437 1_555
F6 Fe5 2.061557 1_555
F6 Fe1 2.080921 1_645
F6 Fe7 2.143973 1_555
F7 Fe2 2.011401 1_655
F7 Fe7 2.128643 1_555
F7 Fe6 2.140457 1_555
F8 Fe3 2.001891 1_655
F8 Fe6 2.129005 1_555
F8 Fe8 2.177849 1_555
F9 Fe9 2.030910 1_555
F9 Fe8 2.199957 1_555
F9 Fe4 2.227495 1_645
F10 Fe6 2.111848 1_555
F10 Fe2 2.147199 1_665
F10 Fe3 2.171016 1_665
F11 Fe1 2.100328 1_655
F11 Fe7 2.142836 1_555
F11 Fe2 2.195429 1_665
F12 Fe9 2.046798 1_555
F12 Fe4 2.065336 1_655
F12 Fe0 2.165760 1_564
F13 Fe4 2.080557 1_655
F13 Fe8 2.148056 1_555
F13 Fe3 2.152420 1_665
