# generated using pymatgen
data_Li3Zn(Fe5O8)4
_symmetry_space_group_name_H-M   'P 1'
_cell_length_a   8.47291231
_cell_length_b   8.47291231
_cell_length_c   8.47713889
_cell_angle_alpha   89.62028683
_cell_angle_beta   89.62028683
_cell_angle_gamma   90.39309763
_symmetry_Int_Tables_number   1
_chemical_formula_structural   Li3Zn(Fe5O8)4
_chemical_formula_sum   'Li3 Zn1 Fe20 O32'
_cell_volume   608.53462523
_cell_formula_units_Z   1
loop_
 _symmetry_equiv_pos_site_id
 _symmetry_equiv_pos_as_xyz
  1  'x, y, z'
loop_
 _atom_site_type_symbol
 _atom_site_label
 _atom_site_symmetry_multiplicity
 _atom_site_fract_x
 _atom_site_fract_y
 _atom_site_fract_z
 _atom_site_occupancy
  Li  Li0  1  0.12607700  0.62756300  0.87534800  1
  Li  Li1  1  0.62472000  0.62472000  0.37388100  1
  Li  Li2  1  0.62756300  0.12607700  0.87534800  1
  Zn  Zn0  1  0.00551500  0.00551500  0.99349000  1
  Fe  Fe0  1  0.00199400  0.50691400  0.49629500  1
  Fe  Fe1  1  0.12700900  0.12700900  0.37313000  1
  Fe  Fe2  1  0.12363900  0.87233400  0.63232600  1
  Fe  Fe3  1  0.13122600  0.37849100  0.12099600  1
  Fe  Fe4  1  0.24784300  0.74715100  0.25062500  1
  Fe  Fe5  1  0.24886500  0.24886500  0.76107300  1
  Fe  Fe6  1  0.37506400  0.62536000  0.62311700  1
  Fe  Fe7  1  0.37849100  0.13122600  0.12099600  1
  Fe  Fe8  1  0.37438000  0.87677700  0.87676600  1
  Fe  Fe9  1  0.38078300  0.38078300  0.37316600  1
  Fe  Fe10  1  0.50691400  0.00199400  0.49629500  1
  Fe  Fe11  1  0.50531100  0.50531100  0.99334800  1
  Fe  Fe12  1  0.62462100  0.87746000  0.12442600  1
  Fe  Fe13  1  0.62536000  0.37506400  0.62311700  1
  Fe  Fe14  1  0.74416200  0.74416200  0.75733900  1
  Fe  Fe15  1  0.74715100  0.24784300  0.25062500  1
  Fe  Fe16  1  0.87206900  0.87206900  0.37371700  1
  Fe  Fe17  1  0.87677700  0.37438000  0.87676600  1
  Fe  Fe18  1  0.87746000  0.62462100  0.12442600  1
  Fe  Fe19  1  0.87233400  0.12363900  0.63232600  1
  O  O0  1  0.11602500  0.88747000  0.38244700  1
  O  O1  1  0.11450400  0.61475000  0.12635000  1
  O  O2  1  0.11866100  0.11866100  0.61572900  1
  O  O3  1  0.13677100  0.63547300  0.62187700  1
  O  O4  1  0.11231700  0.37592600  0.88628800  1
  O  O5  1  0.12670000  0.36522200  0.36587300  1
  O  O6  1  0.14099600  0.87237800  0.85898600  1
  O  O7  1  0.14136600  0.14136600  0.13575100  1
  O  O8  1  0.37185200  0.87206800  0.62994400  1
  O  O9  1  0.36522200  0.12670000  0.36587300  1
  O  O10  1  0.37590700  0.63653000  0.86563000  1
  O  O11  1  0.37350100  0.62937500  0.38719300  1
  O  O12  1  0.36682300  0.36682300  0.12143200  1
  O  O13  1  0.37956000  0.88820800  0.11890800  1
  O  O14  1  0.38211600  0.38211600  0.63172400  1
  O  O15  1  0.37592600  0.11231700  0.88628800  1
  O  O16  1  0.61634000  0.61634000  0.62453600  1
  O  O17  1  0.61322900  0.87797000  0.88504300  1
  O  O18  1  0.62937500  0.37350100  0.38719300  1
  O  O19  1  0.63548600  0.87727500  0.36545700  1
  O  O20  1  0.61475000  0.11450400  0.12635000  1
  O  O21  1  0.63547300  0.13677100  0.62187700  1
  O  O22  1  0.63529100  0.63529100  0.12604800  1
  O  O23  1  0.63653000  0.37590700  0.86563000  1
  O  O24  1  0.87727500  0.63548600  0.36545700  1
  O  O25  1  0.87206800  0.37185200  0.62994400  1
  O  O26  1  0.86678300  0.86678300  0.13460100  1
  O  O27  1  0.88162600  0.88162600  0.61870000  1
  O  O28  1  0.87237800  0.14099600  0.85898600  1
  O  O29  1  0.87797000  0.61322900  0.88504300  1
  O  O30  1  0.88747000  0.11602500  0.38244700  1
  O  O31  1  0.88820800  0.37956000  0.11890800  1
loop_
_geom_bond_atom_site_label_1
_geom_bond_atom_site_label_2
_geom_bond_distance
_geom_bond_site_symmetry_2
Li0 O6 2.080932 1_555
Li0 O29 2.105891 1_455
Li0 O10 2.118667 1_555
Li0 O1 2.131401 1_556
Li0 O4 2.135851 1_555
Li0 O3 2.150600 1_555
Li1 O22 2.103518 1_555
Li1 O16 2.126252 1_555
Li1 O11 2.131448 1_555
Li1 O18 2.131448 1_555
Li1 O24 2.141892 1_555
Li1 O19 2.141892 1_555
Li2 O28 2.080932 1_555
Li2 O17 2.105891 1_545
Li2 O23 2.118667 1_555
Li2 O20 2.131401 1_556
Li2 O15 2.135851 1_555
Li2 O21 2.150600 1_555
Fe0 O24 1.883858 1_455
Fe0 O3 1.907434 1_555
Fe0 O25 1.937538 1_455
Fe0 O5 1.949266 1_555
Fe1 O7 2.017978 1_555
Fe1 O9 2.018908 1_555
Fe1 O5 2.018908 1_555
Fe1 O0 2.032076 1_545
Fe1 O30 2.032076 1_455
Fe1 O2 2.058023 1_555
Fe2 O6 1.928022 1_555
Fe2 O3 2.013249 1_555
Fe2 O27 2.056587 1_455
Fe2 O2 2.091646 1_565
Fe2 O8 2.103067 1_555
Fe2 O0 2.122723 1_555
Fe3 O4 1.997400 1_554
Fe3 O12 1.999343 1_555
Fe3 O1 2.008571 1_555
Fe3 O7 2.014658 1_555
Fe3 O31 2.059345 1_455
Fe3 O5 2.078240 1_555
Fe4 O11 1.866887 1_555
Fe4 O1 1.912791 1_555
Fe4 O13 1.966770 1_555
Fe4 O0 1.982163 1_555
Fe5 O4 1.907941 1_555
Fe5 O15 1.907941 1_555
Fe5 O14 1.923906 1_555
Fe5 O2 1.992872 1_555
Fe6 O11 2.000158 1_555
Fe6 O3 2.021534 1_555
Fe6 O16 2.046374 1_555
Fe6 O10 2.058678 1_555
Fe6 O14 2.063082 1_555
Fe6 O8 2.091878 1_555
Fe7 O15 1.997400 1_554
Fe7 O12 1.999343 1_555
Fe7 O20 2.008571 1_555
Fe7 O7 2.014658 1_555
Fe7 O13 2.059345 1_545
Fe7 O9 2.078240 1_555
Fe8 O6 1.984288 1_555
Fe8 O15 1.997833 1_565
Fe8 O17 2.025386 1_555
Fe8 O10 2.038530 1_555
Fe8 O13 2.056341 1_556
Fe8 O8 2.093238 1_555
Fe9 O18 2.111740 1_555
Fe9 O11 2.111740 1_555
Fe9 O12 2.142048 1_555
Fe9 O5 2.157274 1_555
Fe9 O9 2.157274 1_555
Fe9 O14 2.192040 1_555
Fe10 O19 1.883858 1_545
Fe10 O21 1.907434 1_555
Fe10 O8 1.937538 1_545
Fe10 O9 1.949266 1_555
Fe11 O23 1.904463 1_555
Fe11 O10 1.904463 1_555
Fe11 O22 1.925461 1_556
Fe11 O12 1.969768 1_556
Fe12 O20 2.010937 1_565
Fe12 O17 2.032193 1_554
Fe12 O19 2.045926 1_555
Fe12 O22 2.054446 1_555
Fe12 O26 2.056786 1_555
Fe12 O13 2.079823 1_555
Fe13 O18 2.000158 1_555
Fe13 O21 2.021534 1_555
Fe13 O16 2.046374 1_555
Fe13 O23 2.058678 1_555
Fe13 O14 2.063082 1_555
Fe13 O25 2.091878 1_555
Fe14 O16 1.905128 1_555
Fe14 O17 1.925009 1_555
Fe14 O29 1.925009 1_555
Fe14 O27 2.009848 1_555
Fe15 O18 1.866887 1_555
Fe15 O20 1.912791 1_555
Fe15 O31 1.966770 1_555
Fe15 O30 1.982163 1_555
Fe16 O19 2.007010 1_555
Fe16 O24 2.007010 1_555
Fe16 O26 2.028595 1_555
Fe16 O30 2.072082 1_565
Fe16 O0 2.072082 1_655
Fe16 O27 2.080960 1_555
Fe17 O28 1.984288 1_555
Fe17 O4 1.997833 1_655
Fe17 O29 2.025386 1_555
Fe17 O23 2.038530 1_555
Fe17 O31 2.056341 1_556
Fe17 O25 2.093238 1_555
Fe18 O1 2.010937 1_655
Fe18 O29 2.032193 1_554
Fe18 O24 2.045926 1_555
Fe18 O22 2.054446 1_555
Fe18 O26 2.056786 1_555
Fe18 O31 2.079823 1_555
Fe19 O28 1.928022 1_555
Fe19 O21 2.013249 1_555
Fe19 O27 2.056587 1_545
Fe19 O2 2.091646 1_655
Fe19 O25 2.103067 1_555
Fe19 O30 2.122723 1_555
O6 Zn0 1.976810 1_565
O7 Zn0 2.030473 1_554
O26 Zn0 2.034240 1_664
O28 Zn0 1.976810 1_655
