# generated using pymatgen
data_Ti(SO4)2
_symmetry_space_group_name_H-M   'P 1'
_cell_length_a   8.97617240
_cell_length_b   8.97617216
_cell_length_c   8.97617331
_cell_angle_alpha   54.44084441
_cell_angle_beta   54.44083946
_cell_angle_gamma   54.44084209
_symmetry_Int_Tables_number   1
_chemical_formula_structural   Ti(SO4)2
_chemical_formula_sum   'Ti3 S6 O24'
_cell_volume   445.10362651
_cell_formula_units_Z   3
loop_
 _symmetry_equiv_pos_site_id
 _symmetry_equiv_pos_as_xyz
  1  'x, y, z'
loop_
 _atom_site_type_symbol
 _atom_site_label
 _atom_site_symmetry_multiplicity
 _atom_site_fract_x
 _atom_site_fract_y
 _atom_site_fract_z
 _atom_site_occupancy
  Ti  Ti0  1  0.14983867  0.14983867  0.14983867  1
  Ti  Ti1  1  0.64830039  0.64830039  0.64830039  1
  Ti  Ti2  1  0.84714522  0.84714522  0.84714522  1
  S  S0  1  0.04394298  0.45344580  0.75512986  1
  S  S1  1  0.45344580  0.75512986  0.04394298  1
  S  S2  1  0.75512986  0.04394298  0.45344580  1
  S  S3  1  0.25026415  0.97159195  0.53114216  1
  S  S4  1  0.53114216  0.25026415  0.97159195  1
  S  S5  1  0.97159195  0.53114216  0.25026415  1
  O  O0  1  0.13769082  0.52238299  0.24192519  1
  O  O1  1  0.24192519  0.13769082  0.52238299  1
  O  O2  1  0.01017070  0.32875330  0.97097449  1
  O  O3  1  0.52238299  0.24192519  0.13769082  1
  O  O4  1  0.01300134  0.64912942  0.72699927  1
  O  O5  1  0.23078354  0.36697702  0.63212764  1
  O  O6  1  0.36697702  0.63212764  0.23078354  1
  O  O7  1  0.32875330  0.97097449  0.01017070  1
  O  O8  1  0.63212764  0.23078354  0.36697702  1
  O  O9  1  0.06254853  0.93504755  0.67833859  1
  O  O10  1  0.28198739  0.98353748  0.34172295  1
  O  O11  1  0.34172295  0.28198739  0.98353748  1
  O  O12  1  0.64912942  0.72699927  0.01300134  1
  O  O13  1  0.72699927  0.01300134  0.64912942  1
  O  O14  1  0.97097449  0.01017070  0.32875330  1
  O  O15  1  0.41096748  0.78641665  0.59241166  1
  O  O16  1  0.67833859  0.06254853  0.93504755  1
  O  O17  1  0.59241166  0.41096748  0.78641665  1
  O  O18  1  0.78641665  0.59241166  0.41096748  1
  O  O19  1  0.98353748  0.34172295  0.28198739  1
  O  O20  1  0.48597945  0.72882122  0.87546715  1
  O  O21  1  0.93504755  0.67833859  0.06254853  1
  O  O22  1  0.72882122  0.87546715  0.48597945  1
  O  O23  1  0.87546715  0.48597945  0.72882122  1
loop_
_geom_bond_atom_site_label_1
_geom_bond_atom_site_label_2
_geom_bond_distance
_geom_bond_site_symmetry_2
O0 S5 1.405478 1_455
O1 S3 1.405478 1_545
O2 S0 1.512523 1_555
O2 Ti0 1.931054 1_556
O3 S4 1.405478 1_554
O4 S0 1.491463 1_555
O4 Ti2 1.955267 1_455
O5 S0 1.401137 1_555
O6 S1 1.401137 1_555
O7 S1 1.512523 1_555
O7 Ti0 1.931053 1_565
O8 S2 1.401137 1_555
O9 S3 1.497282 1_555
O9 Ti2 1.906110 1_455
O10 S3 1.497939 1_555
O10 Ti0 1.982014 1_565
O11 S4 1.497938 1_555
O11 Ti0 1.982013 1_556
O12 S1 1.491463 1_555
O12 Ti2 1.955267 1_554
O13 S2 1.491463 1_555
O13 Ti2 1.955268 1_545
O14 S2 1.512523 1_555
O14 Ti0 1.931053 1_655
O15 S3 1.488909 1_555
O15 Ti1 1.942892 1_555
O16 S4 1.497282 1_555
O16 Ti2 1.906110 1_545
O17 S4 1.488909 1_555
O17 Ti1 1.942891 1_555
O18 S5 1.488909 1_555
O18 Ti1 1.942892 1_555
O19 S5 1.497938 1_555
O19 Ti0 1.982013 1_655
O20 S1 1.499837 1_556
O20 Ti1 1.958819 1_555
O21 S5 1.497283 1_555
O21 Ti2 1.906110 1_554
O22 S2 1.499837 1_565
O22 Ti1 1.958819 1_555
O23 S0 1.499837 1_655
O23 Ti1 1.958819 1_555
