# generated using pymatgen
data_Li4V3P8O29
_symmetry_space_group_name_H-M   'P 1'
_cell_length_a   9.79131896
_cell_length_b   9.79131896
_cell_length_c   13.95652758
_cell_angle_alpha   89.95980798
_cell_angle_beta   89.95980798
_cell_angle_gamma   60.07319830
_symmetry_Int_Tables_number   1
_chemical_formula_structural   Li4V3P8O29
_chemical_formula_sum   'Li8 V6 P16 O58'
_cell_volume   1159.60512217
_cell_formula_units_Z   2
loop_
 _symmetry_equiv_pos_site_id
 _symmetry_equiv_pos_as_xyz
  1  'x, y, z'
loop_
 _atom_site_type_symbol
 _atom_site_label
 _atom_site_symmetry_multiplicity
 _atom_site_fract_x
 _atom_site_fract_y
 _atom_site_fract_z
 _atom_site_occupancy
  Li  Li0  1  0.31874000  0.90896700  0.69112200  1
  Li  Li1  1  0.90979600  0.77241200  0.68959800  1
  Li  Li2  1  0.77473700  0.32186900  0.69204400  1
  Li  Li3  1  0.09103300  0.68126000  0.30887800  1
  Li  Li4  1  0.90585100  0.32252400  0.18987900  1
  Li  Li5  1  0.22758800  0.09020400  0.31040200  1
  Li  Li6  1  0.67813100  0.22526300  0.30795600  1
  Li  Li7  1  0.67747600  0.09414900  0.81012100  1
  V  V0  1  0.99944700  0.56805400  0.50212300  1
  V  V1  1  0.00492700  0.43244600  0.99370000  1
  V  V2  1  0.42861500  0.57138500  0.00000000  1
  V  V3  1  0.56392900  0.43607100  0.50000000  1
  V  V4  1  0.43194600  0.00055300  0.49787700  1
  V  V5  1  0.56755400  0.99507300  0.00630000  1
  P  P0  1  0.31715300  0.91326600  0.90782200  1
  P  P1  1  0.31418300  0.76979300  0.40623000  1
  P  P2  1  0.76981700  0.91406000  0.40846900  1
  P  P3  1  0.66471300  0.66776100  0.62333000  1
  P  P4  1  0.66859100  0.66066500  0.12186000  1
  P  P5  1  0.91114500  0.77312000  0.90794400  1
  P  P6  1  0.08673400  0.68284700  0.09217800  1
  P  P7  1  0.76850400  0.31963300  0.90880700  1
  P  P8  1  0.23020700  0.68581700  0.59377000  1
  P  P9  1  0.91159600  0.32049000  0.40746200  1
  P  P10  1  0.08594000  0.23018300  0.59153100  1
  P  P11  1  0.33223900  0.33528700  0.37667000  1
  P  P12  1  0.33933500  0.33140900  0.87814000  1
  P  P13  1  0.22688000  0.08885500  0.09205600  1
  P  P14  1  0.68036700  0.23149600  0.09119300  1
  P  P15  1  0.67951000  0.08840400  0.59253800  1
  O  O0  1  0.23744000  0.00834800  0.18375700  1
  O  O1  1  0.33599200  0.91544500  0.40766400  1
  O  O2  1  0.24479200  0.76366100  0.68103800  1
  O  O3  1  0.34280900  0.74403700  0.91638800  1
  O  O4  1  0.47699200  0.90638900  0.92957600  1
  O  O5  1  0.51243700  0.81231300  0.58339700  1
  O  O6  1  0.61782200  0.90476300  0.42655000  1
  O  O7  1  0.75799400  0.00362300  0.68397100  1
  O  O8  1  0.74201400  0.91877300  0.91290900  1
  O  O9  1  0.52065600  0.66326300  0.07544800  1
  O  O10  1  0.47701400  0.61790800  0.42749700  1
  O  O11  1  0.66588900  0.81346800  0.07738200  1
  O  O12  1  0.66779000  0.65719200  0.73020000  1
  O  O13  1  0.66726900  0.66243400  0.22793000  1
  O  O14  1  0.81250200  0.67399300  0.58408900  1
  O  O15  1  0.61673200  0.47771900  0.92602800  1
  O  O16  1  0.67057900  0.51229700  0.57918500  1
  O  O17  1  0.91554700  0.74567200  0.41089000  1
  O  O18  1  0.99771700  0.79343300  0.00033500  1
  O  O19  1  0.00633700  0.75364500  0.18345400  1
  O  O20  1  0.99165200  0.76256000  0.81624300  1
  O  O21  1  0.90213300  0.61982100  0.92733800  1
  O  O22  1  0.81909400  0.51206500  0.08052800  1
  O  O23  1  0.08455500  0.66400800  0.59233600  1
  O  O24  1  0.89848200  0.48002200  0.42570700  1
  O  O25  1  0.74482600  0.33630400  0.41068400  1
  O  O26  1  0.20837200  0.79162800  0.50000000  1
  O  O27  1  0.23633900  0.75520800  0.31896200  1
  O  O28  1  0.75898700  0.24053600  0.18108200  1
  O  O29  1  0.25596300  0.65719100  0.08361200  1
  O  O30  1  0.09361100  0.52300800  0.07042400  1
  O  O31  1  0.91334000  0.34308600  0.91396600  1
  O  O32  1  0.18768700  0.48756300  0.41660300  1
  O  O33  1  0.09523700  0.38217800  0.57345000  1
  O  O34  1  0.99333500  0.23871500  0.67772400  1
  O  O35  1  0.99637700  0.24200600  0.31602900  1
  O  O36  1  0.00530800  0.20644600  0.49577900  1
  O  O37  1  0.08122700  0.25798600  0.08709100  1
  O  O38  1  0.33673700  0.47934400  0.92455200  1
  O  O39  1  0.38209200  0.52298600  0.57250300  1
  O  O40  1  0.18653200  0.33411100  0.92261800  1
  O  O41  1  0.33756600  0.33273100  0.77207000  1
  O  O42  1  0.34280800  0.33221000  0.26980000  1
  O  O43  1  0.32600700  0.18749800  0.41591100  1
  O  O44  1  0.52228100  0.38326800  0.07397200  1
  O  O45  1  0.48770300  0.32942100  0.42081500  1
  O  O46  1  0.25432800  0.08445300  0.58911000  1
  O  O47  1  0.20656700  0.00228300  0.99966500  1
  O  O48  1  0.24635500  0.99366300  0.81654600  1
  O  O49  1  0.38017900  0.09786700  0.07266200  1
  O  O50  1  0.48793500  0.18090600  0.91947200  1
  O  O51  1  0.51997800  0.10151800  0.57429300  1
  O  O52  1  0.66369600  0.25517400  0.58931600  1
  O  O53  1  0.75946400  0.24101300  0.81891800  1
  O  O54  1  0.79234800  0.20765200  0.00000000  1
  O  O55  1  0.65691400  0.08666000  0.08603400  1
  O  O56  1  0.76128500  0.00666500  0.32227600  1
  O  O57  1  0.79355400  0.99469200  0.50422100  1
loop_
_geom_bond_atom_site_label_1
_geom_bond_atom_site_label_2
_geom_bond_distance
_geom_bond_site_symmetry_2
Li0 O2 1.896447 1_555
Li0 O48 1.915221 1_555
Li0 O46 2.072122 1_565
Li0 O5 2.227119 1_555
Li1 O20 1.923648 1_555
Li1 O7 1.995730 1_565
Li1 O23 2.020830 1_655
Li1 O14 2.219110 1_555
Li2 O34 1.882771 1_555
Li2 O53 1.974936 1_555
Li2 O52 2.091898 1_555
Li2 O16 2.257964 1_555
Li3 O27 1.896447 1_555
Li3 O19 1.915221 1_555
Li3 O17 2.072122 1_455
Li3 O32 2.227119 1_555
Li4 O35 1.951910 1_555
Li4 O28 1.969656 1_555
Li4 O37 2.078715 1_655
Li4 O22 2.218064 1_555
Li5 O0 1.923648 1_555
Li5 O35 1.995730 1_455
Li5 O1 2.020830 1_545
Li5 O43 2.219110 1_555
Li6 O56 1.882771 1_555
Li6 O28 1.974936 1_555
Li6 O25 2.091898 1_555
Li6 O45 2.257964 1_555
Li7 O7 1.951910 1_555
Li7 O53 1.969656 1_555
Li7 O8 2.078715 1_545
Li7 O50 2.218064 1_555
O0 P13 1.479008 1_555
O1 P1 1.543936 1_555
O1 V4 1.986620 1_565
O2 P8 1.481523 1_555
O3 P0 1.551582 1_555
O3 V2 1.872653 1_556
O4 P0 1.562542 1_555
O4 V5 1.859514 1_556
O5 P3 1.559273 1_555
O5 V4 1.997914 1_565
O6 P2 1.556089 1_555
O6 V4 1.865080 1_565
O7 P15 1.507122 1_555
O8 P5 1.557098 1_555
O8 V5 1.974804 1_556
O9 P4 1.575705 1_555
O9 V2 1.881979 1_555
O10 P1 1.573497 1_555
O10 V3 1.845244 1_555
O11 P4 1.607392 1_555
O11 V5 1.834024 1_555
O12 P3 1.494331 1_555
O13 P4 1.480454 1_555
O14 P3 1.576248 1_555
O14 V0 1.959427 1_555
O15 P7 1.538477 1_555
O15 V2 1.900719 1_556
O16 P3 1.616789 1_555
O16 V3 1.910305 1_555
O17 P2 1.551814 1_555
O17 V0 1.973197 1_555
O18 P5 1.609623 1_554
O18 P6 1.622681 1_655
O19 P6 1.475931 1_555
O20 P5 1.479008 1_555
O21 P5 1.570223 1_555
O21 V1 1.842072 1_655
O22 P4 1.575418 1_555
O22 V1 1.992460 1_654
O23 P8 1.543936 1_555
O23 V0 1.986620 1_455
O24 P9 1.523695 1_555
O24 V0 1.926308 1_555
O25 P9 1.562044 1_555
O25 V3 1.979279 1_555
O26 P1 1.615318 1_555
O26 P8 1.615318 1_555
O27 P1 1.481523 1_555
O28 P14 1.497925 1_555
O29 P6 1.551582 1_555
O29 V2 1.872653 1_555
O30 P6 1.562542 1_555
O30 V1 1.859514 1_554
O31 P7 1.547296 1_555
O31 V1 1.895708 1_655
O32 P11 1.559273 1_555
O32 V0 1.997914 1_455
O33 P10 1.556089 1_555
O33 V0 1.865080 1_455
O34 P10 1.482991 1_655
O35 P9 1.507122 1_555
O36 P9 1.607932 1_455
O36 P10 1.627326 1_555
O37 P13 1.557098 1_555
O37 V1 1.974804 1_554
O38 P12 1.575705 1_555
O38 V2 1.881979 1_556
O39 P8 1.573497 1_555
O39 V3 1.845244 1_555
O40 P12 1.607392 1_555
O40 V1 1.834024 1_555
O41 P12 1.480454 1_555
O42 P11 1.494331 1_555
O43 P11 1.576248 1_555
O43 V4 1.959427 1_555
O44 P14 1.538477 1_555
O44 V2 1.900719 1_555
O45 P11 1.616789 1_555
O45 V3 1.910305 1_555
O46 P10 1.551814 1_555
O46 V4 1.973197 1_555
O47 P13 1.609623 1_556
O47 P0 1.622681 1_545
O48 P0 1.475931 1_555
O49 P13 1.570223 1_555
O49 V5 1.842072 1_545
O50 P12 1.575418 1_555
O50 V5 1.992460 1_546
O51 P15 1.523695 1_555
O51 V4 1.926308 1_555
O52 P15 1.562044 1_555
O52 V3 1.979279 1_555
O53 P7 1.497925 1_555
O54 P14 1.618517 1_555
O54 P7 1.618517 1_554
O55 P14 1.547296 1_555
O55 V5 1.895708 1_545
O56 P2 1.482991 1_545
O57 P15 1.607932 1_565
O57 P2 1.627326 1_555
