# generated using pymatgen
data_Li3V3P8O29
_symmetry_space_group_name_H-M   'P 1'
_cell_length_a   9.72003969
_cell_length_b   9.72003969
_cell_length_c   14.12621518
_cell_angle_alpha   89.61720830
_cell_angle_beta   89.61720830
_cell_angle_gamma   60.19577204
_symmetry_Int_Tables_number   1
_chemical_formula_structural   Li3V3P8O29
_chemical_formula_sum   'Li6 V6 P16 O58'
_cell_volume   1158.06502781
_cell_formula_units_Z   2
loop_
 _symmetry_equiv_pos_site_id
 _symmetry_equiv_pos_as_xyz
  1  'x, y, z'
loop_
 _atom_site_type_symbol
 _atom_site_label
 _atom_site_symmetry_multiplicity
 _atom_site_fract_x
 _atom_site_fract_y
 _atom_site_fract_z
 _atom_site_occupancy
  Li  Li0  1  0.76759600  0.32982800  0.94487900  1
  Li  Li1  1  0.67017200  0.23240400  0.55512100  1
  Li  Li2  1  0.32982800  0.76759600  0.44487900  1
  Li  Li3  1  0.23240400  0.67017200  0.05512100  1
  Li  Li4  1  0.00000000  0.00000000  0.00000000  1
  Li  Li5  1  0.00000000  0.00000000  0.50000000  1
  V  V0  1  0.56509900  0.43490100  0.75000000  1
  V  V1  1  0.43490100  0.56509900  0.25000000  1
  V  V2  1  0.56485800  0.99730400  0.24533100  1
  V  V3  1  0.43514200  0.00269600  0.75466900  1
  V  V4  1  0.99730400  0.56485800  0.74533100  1
  V  V5  1  0.00269600  0.43514200  0.25466900  1
  P  P0  1  0.91786700  0.77667000  0.15996000  1
  P  P1  1  0.77667000  0.91786700  0.65996000  1
  P  P2  1  0.91724500  0.30321400  0.65325300  1
  P  P3  1  0.66794500  0.66464500  0.86843000  1
  P  P4  1  0.66464500  0.66794500  0.36843000  1
  P  P5  1  0.77857300  0.31473900  0.16017800  1
  P  P6  1  0.68526100  0.22142700  0.33982200  1
  P  P7  1  0.30321400  0.91724500  0.15325300  1
  P  P8  1  0.69678600  0.08275500  0.84674700  1
  P  P9  1  0.31473900  0.77857300  0.66017800  1
  P  P10  1  0.22142700  0.68526100  0.83982200  1
  P  P11  1  0.33535500  0.33205500  0.63157000  1
  P  P12  1  0.33205500  0.33535500  0.13157000  1
  P  P13  1  0.08275500  0.69678600  0.34674700  1
  P  P14  1  0.22333000  0.08213300  0.34004000  1
  P  P15  1  0.08213300  0.22333000  0.84004000  1
  O  O0  1  0.00900700  0.79142400  0.43256100  1
  O  O1  1  0.91305500  0.74271800  0.66458300  1
  O  O2  1  0.79142400  0.00900700  0.93256100  1
  O  O3  1  0.74271800  0.91305500  0.16458300  1
  O  O4  1  0.92034400  0.61721100  0.17352300  1
  O  O5  1  0.81369600  0.66360900  0.81956300  1
  O  O6  1  0.91895900  0.46151000  0.66714500  1
  O  O7  1  0.99419300  0.21233600  0.92380800  1
  O  O8  1  0.91798500  0.34686200  0.16995600  1
  O  O9  1  0.66360900  0.81369600  0.31956300  1
  O  O10  1  0.61721100  0.92034400  0.67352300  1
  O  O11  1  0.81244100  0.52066600  0.32478500  1
  O  O12  1  0.67190900  0.65213900  0.97307300  1
  O  O13  1  0.65213900  0.67190900  0.47307300  1
  O  O14  1  0.67018100  0.51145600  0.82599100  1
  O  O15  1  0.46151000  0.91895900  0.16714500  1
  O  O16  1  0.52066600  0.81244100  0.82478500  1
  O  O17  1  0.73983700  0.34205600  0.66274900  1
  O  O18  1  0.79594500  0.20405500  0.25000000  1
  O  O19  1  0.76413100  0.21786600  0.43025600  1
  O  O20  1  0.78213400  0.23586900  0.06974400  1
  O  O21  1  0.61965500  0.47274800  0.17609300  1
  O  O22  1  0.51145600  0.67018100  0.32599100  1
  O  O23  1  0.65794400  0.26016300  0.83725100  1
  O  O24  1  0.47274800  0.61965500  0.67609300  1
  O  O25  1  0.34686200  0.91798500  0.66995600  1
  O  O26  1  0.79977200  0.99918500  0.75330100  1
  O  O27  1  0.78766400  0.00580700  0.57619200  1
  O  O28  1  0.21233600  0.99419300  0.42380800  1
  O  O29  1  0.65313800  0.08201500  0.33004400  1
  O  O30  1  0.52725200  0.38034500  0.32390700  1
  O  O31  1  0.34205600  0.73983700  0.16274900  1
  O  O32  1  0.48854400  0.32981900  0.67400900  1
  O  O33  1  0.38034500  0.52725200  0.82390700  1
  O  O34  1  0.21786600  0.76413100  0.93025600  1
  O  O35  1  0.23586900  0.78213400  0.56974400  1
  O  O36  1  0.20405500  0.79594500  0.75000000  1
  O  O37  1  0.26016300  0.65794400  0.33725100  1
  O  O38  1  0.47933400  0.18755900  0.17521500  1
  O  O39  1  0.53849000  0.08104100  0.83285500  1
  O  O40  1  0.32981900  0.48854400  0.17400900  1
  O  O41  1  0.32809100  0.34786100  0.02692700  1
  O  O42  1  0.34786100  0.32809100  0.52692700  1
  O  O43  1  0.18755900  0.47933400  0.67521500  1
  O  O44  1  0.38278900  0.07965600  0.32647700  1
  O  O45  1  0.33639100  0.18630400  0.68043700  1
  O  O46  1  0.08201500  0.65313800  0.83004400  1
  O  O47  1  0.99918500  0.79977200  0.25330100  1
  O  O48  1  0.00580700  0.78766400  0.07619200  1
  O  O49  1  0.08104100  0.53849000  0.33285500  1
  O  O50  1  0.18630400  0.33639100  0.18043700  1
  O  O51  1  0.07965600  0.38278900  0.82647700  1
  O  O52  1  0.25728200  0.08694500  0.83541700  1
  O  O53  1  0.20857600  0.99099300  0.06743900  1
  O  O54  1  0.20022800  0.00081500  0.24669900  1
  O  O55  1  0.08694500  0.25728200  0.33541700  1
  O  O56  1  0.99099300  0.20857600  0.56743900  1
  O  O57  1  0.00081500  0.20022800  0.74669900  1
loop_
_geom_bond_atom_site_label_1
_geom_bond_atom_site_label_2
_geom_bond_distance
_geom_bond_site_symmetry_2
Li0 O7 1.933727 1_555
Li0 O20 1.954177 1_556
Li0 O23 2.158448 1_555
Li0 O14 2.270181 1_555
Li1 O27 1.933727 1_555
Li1 O19 1.954177 1_555
Li1 O17 2.158448 1_555
Li1 O32 2.270181 1_555
Li2 O28 1.933727 1_555
Li2 O35 1.954177 1_555
Li2 O37 2.158448 1_555
Li2 O22 2.270181 1_555
Li3 O48 1.933727 1_555
Li3 O34 1.954177 1_554
Li3 O31 2.158448 1_555
Li3 O40 2.270181 1_555
Li4 O2 2.207643 1_454
Li4 O53 2.207643 1_545
Li4 O48 2.297103 1_545
Li4 O7 2.297103 1_454
Li4 O20 2.426401 1_455
Li4 O34 2.426401 1_544
Li5 O0 2.207643 1_545
Li5 O56 2.207643 1_455
Li5 O28 2.297103 1_545
Li5 O27 2.297103 1_455
Li5 O19 2.426401 1_455
Li5 O35 2.426401 1_545
O0 P13 1.475576 1_555
O1 P1 1.554402 1_555
O1 V4 1.881298 1_555
O2 P8 1.475576 1_555
O3 P0 1.554402 1_555
O3 V2 1.881298 1_555
O4 P0 1.548749 1_555
O4 V5 1.914044 1_655
O5 P3 1.567330 1_555
O5 V4 1.868570 1_555
O6 P2 1.560696 1_555
O6 V4 1.896152 1_555
O7 P15 1.489270 1_655
O8 P5 1.541597 1_555
O8 V5 1.890915 1_655
O9 P4 1.567330 1_555
O9 V2 1.868570 1_555
O10 P1 1.548749 1_555
O10 V3 1.914044 1_565
O11 P4 1.564876 1_555
O11 V5 1.884219 1_655
O12 P3 1.481576 1_555
O13 P4 1.481576 1_555
O14 P3 1.598934 1_555
O14 V0 1.878873 1_555
O15 P7 1.560696 1_555
O15 V2 1.896152 1_555
O16 P3 1.564876 1_555
O16 V3 1.884219 1_565
O17 P2 1.576240 1_555
O17 V0 1.918724 1_555
O18 P6 1.612443 1_555
O18 P5 1.612443 1_555
O19 P6 1.485598 1_555
O20 P5 1.485598 1_555
O21 P5 1.561111 1_555
O21 V1 1.872359 1_555
O22 P4 1.598934 1_555
O22 V1 1.878873 1_555
O23 P8 1.576240 1_555
O23 V0 1.918724 1_555
O24 P9 1.561111 1_555
O24 V0 1.872359 1_555
O25 P9 1.541597 1_555
O25 V3 1.890915 1_565
O26 P8 1.610200 1_565
O26 P1 1.614957 1_555
O27 P1 1.489270 1_545
O28 P14 1.489270 1_565
O29 P6 1.541597 1_555
O29 V2 1.890915 1_545
O30 P6 1.561111 1_555
O30 V1 1.872359 1_555
O31 P7 1.576240 1_555
O31 V1 1.918724 1_555
O32 P11 1.598934 1_555
O32 V0 1.878873 1_555
O33 P10 1.561111 1_555
O33 V0 1.872359 1_555
O34 P10 1.485598 1_555
O35 P9 1.485598 1_555
O36 P9 1.612443 1_555
O36 P10 1.612443 1_555
O37 P13 1.576240 1_555
O37 V1 1.918724 1_555
O38 P12 1.564876 1_555
O38 V2 1.884219 1_545
O39 P8 1.560696 1_555
O39 V3 1.896152 1_555
O40 P12 1.598934 1_555
O40 V1 1.878873 1_555
O41 P12 1.481576 1_555
O42 P11 1.481576 1_555
O43 P11 1.564876 1_555
O43 V4 1.884219 1_455
O44 P14 1.548749 1_555
O44 V2 1.914044 1_545
O45 P11 1.567330 1_555
O45 V3 1.868570 1_555
O46 P10 1.541597 1_555
O46 V4 1.890915 1_455
O47 P13 1.610200 1_655
O47 P0 1.614957 1_555
O48 P0 1.489270 1_455
O49 P13 1.560696 1_555
O49 V5 1.896152 1_555
O50 P12 1.567330 1_555
O50 V5 1.868570 1_555
O51 P15 1.548749 1_555
O51 V4 1.914044 1_455
O52 P15 1.554402 1_555
O52 V3 1.881298 1_555
O53 P7 1.475576 1_555
O54 P7 1.610200 1_545
O54 P14 1.614957 1_555
O55 P14 1.554402 1_555
O55 V5 1.881298 1_555
O56 P2 1.475576 1_555
O57 P2 1.610200 1_455
O57 P15 1.614957 1_555
