# generated using pymatgen
data_LiVCr(P2O7)2
_symmetry_space_group_name_H-M   'P 1'
_cell_length_a   8.05754800
_cell_length_b   9.73277448
_cell_length_c   13.30095893
_cell_angle_alpha   87.88242066
_cell_angle_beta   89.88023452
_cell_angle_gamma   89.98209208
_symmetry_Int_Tables_number   1
_chemical_formula_structural   LiVCr(P2O7)2
_chemical_formula_sum   'Li4 V4 Cr4 P16 O56'
_cell_volume   1042.37712896
_cell_formula_units_Z   4
loop_
 _symmetry_equiv_pos_site_id
 _symmetry_equiv_pos_as_xyz
  1  'x, y, z'
loop_
 _atom_site_type_symbol
 _atom_site_label
 _atom_site_symmetry_multiplicity
 _atom_site_fract_x
 _atom_site_fract_y
 _atom_site_fract_z
 _atom_site_occupancy
  Li  Li0  1  0.13550700  0.16874400  0.83730900  1
  Li  Li1  1  0.13566300  0.41890400  0.33740200  1
  Li  Li2  1  0.63823500  0.58218300  0.66474800  1
  Li  Li3  1  0.63762000  0.83209200  0.16436900  1
  V  V0  1  0.50448700  0.17378600  0.86129000  1
  V  V1  1  0.50404700  0.42190000  0.36198400  1
  V  V2  1  0.49246900  0.67607900  0.86422300  1
  V  V3  1  0.49332400  0.92779400  0.36358900  1
  Cr  Cr0  1  0.99437900  0.07310500  0.63633400  1
  Cr  Cr1  1  0.99321500  0.32405900  0.13561100  1
  Cr  Cr2  1  0.00211700  0.57670400  0.63719300  1
  Cr  Cr3  1  0.00300800  0.82560000  0.13805800  1
  P  P0  1  0.82301900  0.06974400  0.25922900  1
  P  P1  1  0.21808200  0.08701800  0.04441600  1
  P  P2  1  0.71898200  0.15972500  0.45766900  1
  P  P3  1  0.32159100  0.18297900  0.23894600  1
  P  P4  1  0.81971000  0.32141400  0.76123100  1
  P  P5  1  0.21777500  0.33557400  0.54410200  1
  P  P6  1  0.71698900  0.41356400  0.95745300  1
  P  P7  1  0.31762500  0.43024600  0.73775800  1
  P  P8  1  0.81977100  0.57118400  0.26138600  1
  P  P9  1  0.21663300  0.58565300  0.04306200  1
  P  P10  1  0.71650900  0.66418200  0.45567900  1
  P  P11  1  0.31781400  0.67974800  0.23802600  1
  P  P12  1  0.82355800  0.81921200  0.75933700  1
  P  P13  1  0.21733600  0.83715500  0.54320100  1
  P  P14  1  0.71868300  0.91065400  0.95569800  1
  P  P15  1  0.32166500  0.93256400  0.73912800  1
  O  O0  1  0.15154300  0.00131600  0.74683600  1
  O  O1  1  0.46136000  0.03147800  0.76570600  1
  O  O2  1  0.33108800  0.04805000  0.30337500  1
  O  O3  1  0.56372500  0.06719500  0.45549100  1
  O  O4  1  0.67018300  0.05975700  0.92541400  1
  O  O5  1  0.85047500  0.11108200  0.37551200  1
  O  O6  1  0.31234200  0.10081400  0.94308800  1
  O  O7  1  0.35265100  0.14295100  0.12460000  1
  O  O8  1  0.81177300  0.16077000  0.55523800  1
  O  O9  1  0.06484000  0.17945300  0.04045400  1
  O  O10  1  0.17785000  0.18779500  0.57316000  1
  O  O11  1  0.81892900  0.20171900  0.19566700  1
  O  O12  1  0.95898300  0.22004400  0.74163600  1
  O  O13  1  0.15134300  0.25153700  0.24547600  1
  O  O14  1  0.64711200  0.25371600  0.75926600  1
  O  O15  1  0.46178800  0.28134400  0.26450100  1
  O  O16  1  0.32433200  0.29609100  0.80372800  1
  O  O17  1  0.66455200  0.30899900  0.42677900  1
  O  O18  1  0.56508700  0.31681400  0.95224000  1
  O  O19  1  0.31068000  0.34769600  0.44205700  1
  O  O20  1  0.85251600  0.36405400  0.87587800  1
  O  O21  1  0.80884600  0.41173000  0.05535400  1
  O  O22  1  0.35585400  0.39095600  0.62312500  1
  O  O23  1  0.17551300  0.43726700  0.07156300  1
  O  O24  1  0.06724800  0.43113700  0.54081200  1
  O  O25  1  0.81771800  0.45169100  0.69411500  1
  O  O26  1  0.95906500  0.46996000  0.24169000  1
  O  O27  1  0.64786000  0.50301800  0.26057300  1
  O  O28  1  0.14697200  0.49316300  0.74293200  1
  O  O29  1  0.45973300  0.53007900  0.76045700  1
  O  O30  1  0.32580600  0.54570200  0.30472900  1
  O  O31  1  0.56438100  0.56754400  0.45439800  1
  O  O32  1  0.66131400  0.56017800  0.92467500  1
  O  O33  1  0.85399900  0.61339500  0.37691400  1
  O  O34  1  0.31718600  0.59383100  0.94461100  1
  O  O35  1  0.35499900  0.63966500  0.12424200  1
  O  O36  1  0.80079800  0.65662000  0.55767300  1
  O  O37  1  0.06741900  0.68103700  0.04353100  1
  O  O38  1  0.17989700  0.68728100  0.56983800  1
  O  O39  1  0.81738100  0.70173900  0.19497100  1
  O  O40  1  0.96146000  0.71945700  0.73751800  1
  O  O41  1  0.14714500  0.74275200  0.24451800  1
  O  O42  1  0.65198900  0.74509200  0.75893700  1
  O  O43  1  0.45979200  0.77997300  0.26093300  1
  O  O44  1  0.33245900  0.79811500  0.80439900  1
  O  O45  1  0.66492000  0.81094600  0.42364200  1
  O  O46  1  0.56309600  0.81774800  0.95682700  1
  O  O47  1  0.31976600  0.84592900  0.44565400  1
  O  O48  1  0.85213800  0.85942200  0.87659200  1
  O  O49  1  0.80301100  0.90462400  0.05774100  1
  O  O50  1  0.35206400  0.89190600  0.62567900  1
  O  O51  1  0.18198800  0.93764800  0.07134400  1
  O  O52  1  0.06546000  0.92955200  0.54285700  1
  O  O53  1  0.81892400  0.95174000  0.69661600  1
  O  O54  1  0.96044600  0.96941900  0.23764400  1
  O  O55  1  0.65107400  0.99550900  0.25799600  1
loop_
_geom_bond_atom_site_label_1
_geom_bond_atom_site_label_2
_geom_bond_distance
_geom_bond_site_symmetry_2
Li0 O12 1.962627 1_455
Li0 O16 2.001999 1_555
Li0 O0 2.065029 1_555
Li0 O6 2.094260 1_555
Li1 O26 1.962848 1_455
Li1 O30 2.004472 1_555
Li1 O13 2.076257 1_555
Li1 O19 2.083988 1_555
Li2 O25 1.954898 1_555
Li2 O29 1.972693 1_555
Li2 O36 2.045847 1_555
Li2 O42 2.059921 1_555
Li3 O39 1.958668 1_555
Li3 O43 1.976025 1_555
Li3 O49 2.050472 1_555
Li3 O55 2.058965 1_555
Cr0 O52 1.987684 1_645
Cr0 O53 1.990763 1_545
Cr0 O8 1.998553 1_555
Cr0 O10 2.015949 1_655
Cr0 O0 2.045347 1_655
Cr0 O12 2.057773 1_555
Cr1 O11 1.988478 1_555
Cr1 O21 2.003261 1_555
Cr1 O23 2.005933 1_655
Cr1 O9 2.010950 1_655
Cr1 O13 2.046467 1_655
Cr1 O26 2.056493 1_555
Cr2 O28 1.980711 1_555
Cr2 O38 1.984233 1_555
Cr2 O40 1.988285 1_455
Cr2 O24 2.014203 1_555
Cr2 O25 2.046852 1_455
Cr2 O36 2.073791 1_455
Cr3 O41 1.981423 1_555
Cr3 O37 1.989309 1_555
Cr3 O54 1.991555 1_455
Cr3 O51 1.995136 1_555
Cr3 O39 2.047528 1_455
Cr3 O49 2.067701 1_455
O0 P15 1.530091 1_545
O1 P15 1.531745 1_545
O1 V0 1.946216 1_555
O2 P3 1.543332 1_555
O2 V3 1.911628 1_545
O3 P2 1.542606 1_555
O3 V3 1.944928 1_545
O4 P14 1.542082 1_545
O4 V0 1.917169 1_555
O5 P2 1.604344 1_555
O5 P0 1.628033 1_555
O6 P1 1.547173 1_556
O6 V0 2.005407 1_555
O7 P3 1.603033 1_555
O7 P1 1.630225 1_555
O8 P2 1.499444 1_555
O9 P1 1.527363 1_555
O10 P5 1.510055 1_555
O11 P0 1.511814 1_555
O12 P4 1.522416 1_555
O13 P3 1.528979 1_555
O14 P4 1.539775 1_555
O14 V0 1.919216 1_555
O15 P3 1.527910 1_555
O15 V1 1.949821 1_555
O16 P7 1.546998 1_555
O16 V0 2.011602 1_555
O17 P2 1.558259 1_555
O17 V1 1.885885 1_555
O18 P6 1.547733 1_555
O18 V0 1.940882 1_555
O19 P5 1.549364 1_555
O19 V1 2.005094 1_555
O20 P4 1.617402 1_555
O20 P6 1.623371 1_555
O21 P6 1.498699 1_554
O22 P7 1.614609 1_555
O22 P5 1.637156 1_555
O23 P9 1.516093 1_555
O24 P5 1.527930 1_555
O25 P4 1.523580 1_555
O26 P8 1.521872 1_555
O27 P8 1.536284 1_555
O27 V1 1.923761 1_555
O28 P7 1.507534 1_555
O29 P7 1.539547 1_555
O29 V2 2.034793 1_555
O30 P11 1.551782 1_555
O30 V1 2.007519 1_555
O31 P10 1.545788 1_555
O31 V1 1.971881 1_555
O32 P6 1.543367 1_555
O32 V2 1.925222 1_555
O33 P10 1.613155 1_555
O33 P8 1.629288 1_555
O34 P9 1.538002 1_556
O34 V2 1.926122 1_555
O35 P11 1.604406 1_555
O35 P9 1.653052 1_555
O36 P10 1.517739 1_555
O37 P9 1.518913 1_555
O38 P13 1.518533 1_555
O39 P8 1.520665 1_555
O40 P12 1.510072 1_555
O41 P11 1.509128 1_555
O42 P12 1.559639 1_555
O42 V2 1.996972 1_555
O43 P11 1.541821 1_555
O43 V3 2.038191 1_555
O44 P15 1.545931 1_555
O44 V2 1.907790 1_555
O45 P10 1.533018 1_555
O45 V3 1.944113 1_555
O46 P14 1.545680 1_555
O46 V2 1.967511 1_555
O47 P13 1.535993 1_555
O47 V3 1.926662 1_555
O48 P14 1.595539 1_555
O48 P12 1.638663 1_555
O49 P14 1.518308 1_554
O50 P15 1.592524 1_555
O50 P13 1.647565 1_555
O51 P1 1.512516 1_565
O52 P13 1.518326 1_555
O53 P12 1.510528 1_555
O54 P0 1.510213 1_565
O55 P0 1.563130 1_565
O55 V3 1.986765 1_555
