# generated using pymatgen
data_Ca9La5Br33
_symmetry_space_group_name_H-M   'P 1'
_cell_length_a   11.81154700
_cell_length_b   11.92626434
_cell_length_c   22.24184853
_cell_angle_alpha   98.46131479
_cell_angle_beta   100.95114636
_cell_angle_gamma   110.03886668
_symmetry_Int_Tables_number   1
_chemical_formula_structural   Ca9La5Br33
_chemical_formula_sum   'Ca18 La10 Br66'
_cell_volume   2812.32762859
_cell_formula_units_Z   2
loop_
 _symmetry_equiv_pos_site_id
 _symmetry_equiv_pos_as_xyz
  1  'x, y, z'
loop_
 _atom_site_type_symbol
 _atom_site_label
 _atom_site_symmetry_multiplicity
 _atom_site_fract_x
 _atom_site_fract_y
 _atom_site_fract_z
 _atom_site_occupancy
  Ca  Ca0  1  0.91067000  0.23586700  0.92742500  1
  Ca  Ca1  1  0.31763000  0.08119000  0.97110600  1
  Ca  Ca2  1  0.47936800  0.01816700  0.19399800  1
  Ca  Ca3  1  0.86733000  0.26215700  0.33434700  1
  Ca  Ca4  1  0.23653500  0.14550700  0.38222100  1
  Ca  Ca5  1  0.68763800  0.40212000  0.54284400  1
  Ca  Ca6  1  0.06873200  0.25775200  0.56054000  1
  Ca  Ca7  1  0.76370100  0.34820000  0.11965900  1
  Ca  Ca8  1  0.13250200  0.20254300  0.15289700  1
  Ca  Ca9  1  0.86749800  0.79745700  0.84710300  1
  Ca  Ca10  1  0.23629900  0.65180000  0.88034100  1
  Ca  Ca11  1  0.93126800  0.74224800  0.43946000  1
  Ca  Ca12  1  0.31236200  0.59788000  0.45715600  1
  Ca  Ca13  1  0.76346500  0.85449300  0.61777900  1
  Ca  Ca14  1  0.13267000  0.73784300  0.66565300  1
  Ca  Ca15  1  0.52063200  0.98183300  0.80600200  1
  Ca  Ca16  1  0.68237000  0.91881000  0.02889400  1
  Ca  Ca17  1  0.08933000  0.76413300  0.07257500  1
  La  La0  1  0.37852900  0.04738300  0.58436300  1
  La  La1  1  0.17398500  0.13649000  0.76278500  1
  La  La2  1  0.86260900  0.35632700  0.73536000  1
  La  La3  1  0.63225800  0.45552800  0.93006900  1
  La  La4  1  0.46635400  0.54408700  0.68395700  1
  La  La5  1  0.53364600  0.45591300  0.31604300  1
  La  La6  1  0.36774200  0.54447200  0.06993100  1
  La  La7  1  0.13739100  0.64367300  0.26464000  1
  La  La8  1  0.82601500  0.86351000  0.23721500  1
  La  La9  1  0.62147100  0.95261700  0.41563700  1
  Br  Br0  1  0.76734800  0.13795000  0.79088300  1
  Br  Br1  1  0.93343000  0.13801600  0.66976800  1
  Br  Br2  1  0.62945700  0.19902400  0.91629800  1
  Br  Br3  1  0.73460200  0.04911000  0.19343100  1
  Br  Br4  1  0.14908800  0.99225900  0.63459400  1
  Br  Br5  1  0.04809400  0.06402100  0.87524700  1
  Br  Br6  1  0.65745100  0.19660000  0.62123500  1
  Br  Br7  1  0.44639900  0.18799600  0.73750500  1
  Br  Br8  1  0.81538500  0.22465500  0.48267800  1
  Br  Br9  1  0.59927500  0.12218900  0.33111800  1
  Br  Br10  1  0.46955900  0.11723900  0.46453400  1
  Br  Br11  1  0.14927800  0.05173400  0.48619600  1
  Br  Br12  1  0.35651300  0.27661100  0.88927900  1
  Br  Br13  1  0.88390500  0.17689100  0.05794200  1
  Br  Br14  1  0.82911500  0.45724700  0.85979000  1
  Br  Br15  1  0.55828900  0.10736600  0.07014000  1
  Br  Br16  1  0.95966700  0.44260000  0.62608000  1
  Br  Br17  1  0.25324700  0.04695800  0.09383400  1
  Br  Br18  1  0.39549600  0.30803900  0.58514500  1
  Br  Br19  1  0.97243000  0.36621800  0.22019500  1
  Br  Br20  1  0.34138700  0.19325200  0.26518000  1
  Br  Br21  1  0.66073300  0.32122500  0.23357400  1
  Br  Br22  1  0.04034600  0.13301600  0.27587500  1
  Br  Br23  1  0.23310600  0.35018600  0.69784300  1
  Br  Br24  1  0.71081600  0.50479900  0.68500400  1
  Br  Br25  1  0.09145700  0.36035100  0.82633800  1
  Br  Br26  1  0.75540700  0.46042400  0.41524700  1
  Br  Br27  1  0.58956300  0.57244600  0.82095900  1
  Br  Br28  1  0.44185800  0.38649200  0.43020300  1
  Br  Br29  1  0.81368500  0.72383000  0.97490000  1
  Br  Br30  1  0.45880200  0.60731000  0.95390900  1
  Br  Br31  1  0.11702100  0.32216500  0.43570400  1
  Br  Br32  1  0.13898900  0.53721400  0.97702300  1
  Br  Br33  1  0.86101100  0.46278600  0.02297700  1
  Br  Br34  1  0.88297900  0.67783500  0.56429600  1
  Br  Br35  1  0.54119800  0.39269000  0.04609100  1
  Br  Br36  1  0.18631500  0.27617000  0.02510000  1
  Br  Br37  1  0.55814200  0.61350800  0.56979700  1
  Br  Br38  1  0.41043700  0.42755400  0.17904100  1
  Br  Br39  1  0.24459300  0.53957600  0.58475300  1
  Br  Br40  1  0.90854300  0.63964900  0.17366200  1
  Br  Br41  1  0.28918400  0.49520100  0.31499600  1
  Br  Br42  1  0.76689400  0.64981400  0.30215700  1
  Br  Br43  1  0.95965400  0.86698400  0.72412500  1
  Br  Br44  1  0.33926700  0.67877500  0.76642600  1
  Br  Br45  1  0.65861300  0.80674800  0.73482000  1
  Br  Br46  1  0.02757000  0.63378200  0.77980500  1
  Br  Br47  1  0.60450400  0.69196100  0.41485500  1
  Br  Br48  1  0.74675300  0.95304200  0.90616600  1
  Br  Br49  1  0.04033300  0.55740000  0.37392000  1
  Br  Br50  1  0.44171100  0.89263400  0.92986000  1
  Br  Br51  1  0.17088500  0.54275300  0.14021000  1
  Br  Br52  1  0.11609500  0.82310900  0.94205800  1
  Br  Br53  1  0.64348700  0.72338900  0.11072100  1
  Br  Br54  1  0.85072200  0.94826600  0.51380400  1
  Br  Br55  1  0.53044100  0.88276100  0.53546600  1
  Br  Br56  1  0.40072500  0.87781100  0.66888200  1
  Br  Br57  1  0.18461500  0.77534500  0.51732200  1
  Br  Br58  1  0.55360100  0.81200400  0.26249500  1
  Br  Br59  1  0.34254900  0.80340000  0.37876500  1
  Br  Br60  1  0.95190600  0.93597900  0.12475300  1
  Br  Br61  1  0.85091200  0.00774100  0.36540600  1
  Br  Br62  1  0.26539800  0.95089000  0.80656900  1
  Br  Br63  1  0.37054300  0.80097600  0.08370200  1
  Br  Br64  1  0.06657000  0.86198400  0.33023200  1
  Br  Br65  1  0.23265200  0.86205000  0.20911700  1
loop_
_geom_bond_atom_site_label_1
_geom_bond_atom_site_label_2
_geom_bond_distance
_geom_bond_site_symmetry_2
Br0 Ca15 2.984950 1_545
Br0 La2 3.006704 1_555
Br0 Ca0 3.016740 1_555
Br1 Ca13 3.180610 1_545
Br1 La1 3.188538 1_655
Br1 La2 3.231943 1_555
Br1 Ca6 3.380451 1_655
Br2 Ca15 3.005003 1_545
Br2 La3 3.017327 1_555
Br2 Ca0 3.153180 1_555
Br3 Ca2 2.911734 1_555
Br3 La8 2.981036 1_545
Br3 Ca3 3.434647 1_555
Br3 Ca16 3.605523 1_545
Br4 La1 3.011011 1_565
Br4 La0 3.028255 1_565
Br4 Ca14 3.160045 1_555
Br5 Ca9 3.050970 1_445
Br5 La1 3.222347 1_555
Br5 Ca0 3.236908 1_455
Br5 Ca1 3.401330 1_555
Br6 La2 3.003428 1_555
Br6 La0 3.036332 1_555
Br6 Ca5 3.173308 1_555
Br7 La1 3.237458 1_555
Br7 Ca15 3.347772 1_545
Br7 La0 3.378924 1_555
Br8 Ca6 3.021570 1_655
Br8 La9 3.190875 1_545
Br8 Ca5 3.266399 1_555
Br8 Ca3 3.532162 1_555
Br9 Ca2 2.981198 1_555
Br9 La9 2.997906 1_545
Br9 Ca3 3.012051 1_555
Br10 Ca4 3.153415 1_555
Br10 La0 3.175199 1_555
Br10 La9 3.283948 1_545
Br10 Ca5 3.430518 1_555
Br11 Ca4 2.921956 1_555
Br11 La0 3.159989 1_555
Br11 Ca6 3.268080 1_555
Br11 Ca11 3.560231 1_445
Br12 La1 3.032982 1_555
Br12 La3 3.086902 1_555
Br12 Ca1 3.128491 1_555
Br13 Ca16 3.060538 1_545
Br13 Ca0 3.133511 1_554
Br13 Ca7 3.158699 1_555
Br13 Ca8 3.164493 1_655
Br14 La2 3.004424 1_555
Br14 La3 3.034468 1_555
Br14 Ca0 3.538785 1_555
Br15 Ca7 2.937252 1_555
Br15 Ca1 3.136880 1_554
Br15 Ca16 3.195135 1_545
Br15 Ca2 3.278455 1_555
Br16 La2 3.044169 1_555
Br16 Ca6 3.218473 1_655
Br16 Ca5 3.224626 1_555
Br16 Ca14 3.289740 1_655
Br17 Ca8 3.001813 1_555
Br17 Ca1 3.016640 1_554
Br17 Ca17 3.171254 1_545
Br17 Ca2 3.287460 1_555
Br18 La0 3.043025 1_555
Br18 La4 3.053113 1_555
Br18 Ca5 3.597492 1_555
Br18 Ca6 3.615269 1_555
Br19 Ca7 2.919851 1_555
Br19 La7 3.100031 1_655
Br19 Ca3 3.255233 1_555
Br19 Ca8 3.517154 1_655
Br20 La5 3.058689 1_555
Br20 Ca4 3.132505 1_555
Br20 Ca8 3.203786 1_555
Br20 Ca2 3.444218 1_555
Br21 Ca7 3.024025 1_555
Br21 La5 3.166954 1_555
Br21 Ca3 3.322562 1_555
Br21 Ca2 3.386518 1_555
Br22 Ca4 2.926437 1_555
Br22 La8 3.203519 1_445
Br22 Ca8 3.245639 1_555
Br22 Ca3 3.288932 1_455
Br23 La4 3.033243 1_555
Br23 La1 3.052255 1_555
Br23 Ca6 3.098488 1_555
Br24 La4 3.076111 1_555
Br24 La2 3.098508 1_555
Br24 Ca5 3.142301 1_555
Br25 La2 3.034429 1_455
Br25 Ca10 3.219747 1_555
Br25 La1 3.357487 1_555
Br25 Ca0 3.528870 1_455
Br26 La5 3.066756 1_555
Br26 Ca11 3.187389 1_555
Br26 Ca5 3.200133 1_555
Br26 Ca3 3.517180 1_555
Br27 La3 3.016753 1_555
Br27 La4 3.031843 1_555
Br27 Ca9 3.330869 1_555
Br28 Ca4 2.935627 1_555
Br28 La5 3.058999 1_555
Br28 Ca5 3.386375 1_555
Br28 Ca12 3.406017 1_555
Br29 La3 3.061921 1_555
Br29 Ca9 3.208269 1_555
Br29 Ca17 3.388761 1_656
Br29 Ca16 3.407783 1_556
Br30 Ca10 3.072975 1_555
Br30 La6 3.073912 1_556
Br30 La3 3.229146 1_555
Br30 Ca16 3.651912 1_556
Br31 Ca6 3.090956 1_555
Br31 Ca4 3.128162 1_555
Br31 Ca3 3.137668 1_455
Br31 Ca12 3.206926 1_555
Br32 Ca10 2.922367 1_555
Br32 La6 3.040363 1_556
Br32 Ca17 3.471839 1_556
Br32 Ca0 3.530846 1_455
Br33 Ca7 2.922367 1_555
Br33 La3 3.040363 1_554
Br33 Ca0 3.471839 1_554
Br33 Ca17 3.530846 1_655
Br34 Ca11 3.090956 1_555
Br34 Ca13 3.128162 1_555
Br34 Ca14 3.137668 1_655
Br34 Ca5 3.206926 1_555
Br35 Ca7 3.072975 1_555
Br35 La3 3.073912 1_554
Br35 La6 3.229146 1_555
Br35 Ca1 3.651912 1_554
Br36 La6 3.061921 1_555
Br36 Ca8 3.208269 1_555
Br36 Ca0 3.388761 1_454
Br36 Ca1 3.407783 1_554
Br37 Ca13 2.935627 1_555
Br37 La4 3.058999 1_555
Br37 Ca12 3.386375 1_555
Br37 Ca5 3.406017 1_555
Br38 La6 3.016753 1_555
Br38 La5 3.031843 1_555
Br38 Ca8 3.330869 1_555
Br39 La4 3.066756 1_555
Br39 Ca6 3.187389 1_555
Br39 Ca12 3.200133 1_555
Br39 Ca14 3.517180 1_555
Br40 La7 3.034429 1_655
Br40 Ca7 3.219747 1_555
Br40 La8 3.357487 1_555
Br40 Ca17 3.528870 1_655
Br41 La5 3.076111 1_555
Br41 La7 3.098508 1_555
Br41 Ca12 3.142301 1_555
Br42 La5 3.033243 1_555
Br42 La8 3.052255 1_555
Br42 Ca11 3.098488 1_555
Br43 Ca13 2.926437 1_555
Br43 La1 3.203519 1_665
Br43 Ca9 3.245639 1_555
Br43 Ca14 3.288932 1_655
Br44 Ca10 3.024025 1_555
Br44 La4 3.166954 1_555
Br44 Ca14 3.322562 1_555
Br44 Ca15 3.386518 1_555
Br45 La4 3.058689 1_555
Br45 Ca13 3.132505 1_555
Br45 Ca9 3.203786 1_555
Br45 Ca15 3.444218 1_555
Br46 Ca10 2.919851 1_555
Br46 La2 3.100031 1_455
Br46 Ca14 3.255233 1_555
Br46 Ca9 3.517154 1_455
Br47 La9 3.043025 1_555
Br47 La5 3.053113 1_555
Br47 Ca12 3.597492 1_555
Br47 Ca11 3.615269 1_555
Br48 Ca9 3.001813 1_555
Br48 Ca16 3.016640 1_556
Br48 Ca0 3.171254 1_565
Br48 Ca15 3.287460 1_555
Br49 La7 3.044169 1_555
Br49 Ca11 3.218473 1_455
Br49 Ca12 3.224626 1_555
Br49 Ca3 3.289740 1_455
Br50 Ca10 2.937252 1_555
Br50 Ca16 3.136880 1_556
Br50 Ca1 3.195135 1_565
Br50 Ca15 3.278455 1_555
Br51 La7 3.004424 1_555
Br51 La6 3.034468 1_555
Br51 Ca17 3.538785 1_555
Br52 Ca1 3.060538 1_565
Br52 Ca17 3.133511 1_556
Br52 Ca10 3.158699 1_555
Br52 Ca9 3.164493 1_455
Br53 La8 3.032982 1_555
Br53 La6 3.086902 1_555
Br53 Ca16 3.128491 1_555
Br54 Ca13 2.921956 1_555
Br54 La9 3.159989 1_555
Br54 Ca11 3.268080 1_555
Br54 Ca6 3.560231 1_665
Br55 Ca13 3.153415 1_555
Br55 La9 3.175199 1_555
Br55 La0 3.283948 1_565
Br55 Ca12 3.430518 1_555
Br56 Ca15 2.981198 1_555
Br56 La0 2.997906 1_565
Br56 Ca14 3.012051 1_555
Br57 Ca11 3.021570 1_455
Br57 La0 3.190875 1_565
Br57 Ca12 3.266399 1_555
Br57 Ca14 3.532162 1_555
Br58 La8 3.237458 1_555
Br58 Ca2 3.347772 1_565
Br58 La9 3.378924 1_555
Br59 La7 3.003428 1_555
Br59 La9 3.036332 1_555
Br59 Ca12 3.173308 1_555
Br60 Ca8 3.050970 1_665
Br60 La8 3.222347 1_555
Br60 Ca17 3.236908 1_655
Br60 Ca16 3.401330 1_555
Br61 La8 3.011011 1_545
Br61 La9 3.028255 1_545
Br61 Ca3 3.160045 1_555
Br62 Ca15 2.911734 1_555
Br62 La1 2.981036 1_565
Br62 Ca14 3.434647 1_555
Br62 Ca1 3.605523 1_565
Br63 Ca2 3.005003 1_565
Br63 La6 3.017327 1_555
Br63 Ca17 3.153180 1_555
Br64 Ca4 3.180610 1_565
Br64 La8 3.188538 1_455
Br64 La7 3.231943 1_555
Br64 Ca11 3.380451 1_455
Br65 Ca2 2.984950 1_565
Br65 La7 3.006704 1_555
Br65 Ca17 3.016740 1_555
