# generated using pymatgen
data_Na2Sn2H4O5
_symmetry_space_group_name_H-M   'P 1'
_cell_length_a   5.96075300
_cell_length_b   14.67833600
_cell_length_c   17.20906700
_cell_angle_alpha   90.00000000
_cell_angle_beta   90.00000000
_cell_angle_gamma   90.00000000
_symmetry_Int_Tables_number   1
_chemical_formula_structural   Na2Sn2H4O5
_chemical_formula_sum   'Na16 Sn16 H32 O40'
_cell_volume   1505.68899548
_cell_formula_units_Z   8
loop_
 _symmetry_equiv_pos_site_id
 _symmetry_equiv_pos_as_xyz
  1  'x, y, z'
loop_
 _atom_site_type_symbol
 _atom_site_label
 _atom_site_symmetry_multiplicity
 _atom_site_fract_x
 _atom_site_fract_y
 _atom_site_fract_z
 _atom_site_occupancy
  Na  Na0  1  0.26486300  0.69545800  0.53068800  1
  Na  Na1  1  0.76486300  0.80454200  0.46931200  1
  Na  Na2  1  0.73513700  0.19545800  0.96931200  1
  Na  Na3  1  0.23513700  0.30454200  0.03068800  1
  Na  Na4  1  0.23071900  0.56065500  0.01397200  1
  Na  Na5  1  0.73071900  0.93934500  0.98602800  1
  Na  Na6  1  0.76928100  0.06065500  0.48602800  1
  Na  Na7  1  0.26928100  0.43934500  0.51397200  1
  Na  Na8  1  0.73805000  0.69042600  0.98042000  1
  Na  Na9  1  0.23805000  0.80957400  0.01958000  1
  Na  Na10  1  0.26195000  0.19042600  0.51958000  1
  Na  Na11  1  0.76195000  0.30957400  0.48042000  1
  Na  Na12  1  0.74858100  0.57606800  0.53623600  1
  Na  Na13  1  0.24858100  0.92393200  0.46376400  1
  Na  Na14  1  0.25141900  0.07606800  0.96376400  1
  Na  Na15  1  0.75141900  0.42393200  0.03623600  1
  Sn  Sn0  1  0.38341300  0.53695700  0.69304500  1
  Sn  Sn1  1  0.88341300  0.96304300  0.30695500  1
  Sn  Sn2  1  0.61658700  0.03695700  0.80695500  1
  Sn  Sn3  1  0.11658700  0.46304300  0.19304500  1
  Sn  Sn4  1  0.89244500  0.51779500  0.85234500  1
  Sn  Sn5  1  0.39244500  0.98220500  0.14765500  1
  Sn  Sn6  1  0.10755500  0.01779500  0.64765500  1
  Sn  Sn7  1  0.60755500  0.48220500  0.35234500  1
  Sn  Sn8  1  0.63884500  0.76363000  0.67389500  1
  Sn  Sn9  1  0.13884500  0.73637000  0.32610500  1
  Sn  Sn10  1  0.36115500  0.26363000  0.82610500  1
  Sn  Sn11  1  0.86115500  0.23637000  0.17389500  1
  Sn  Sn12  1  0.14408300  0.73419300  0.83689400  1
  Sn  Sn13  1  0.64408300  0.76580700  0.16310600  1
  Sn  Sn14  1  0.85591700  0.23419300  0.66310600  1
  Sn  Sn15  1  0.35591700  0.26580700  0.33689400  1
  H  H0  1  0.03341500  0.59358300  0.62915100  1
  H  H1  1  0.53341500  0.90641700  0.37084900  1
  H  H2  1  0.96658500  0.09358300  0.87084900  1
  H  H3  1  0.46658500  0.40641700  0.12915100  1
  H  H4  1  0.49121600  0.55755500  0.89805800  1
  H  H5  1  0.99121600  0.94244500  0.10194200  1
  H  H6  1  0.50878400  0.05755500  0.60194200  1
  H  H7  1  0.00878400  0.44244500  0.39805800  1
  H  H8  1  0.51000600  0.80225200  0.88592400  1
  H  H9  1  0.01000600  0.69774800  0.11407600  1
  H  H10  1  0.48999400  0.30225200  0.61407600  1
  H  H11  1  0.98999400  0.19774800  0.38592400  1
  H  H12  1  0.00163100  0.79067100  0.60034700  1
  H  H13  1  0.50163100  0.70932900  0.39965300  1
  H  H14  1  0.99836900  0.29067100  0.89965300  1
  H  H15  1  0.49836900  0.20932900  0.10034700  1
  H  H16  1  0.46316200  0.89992600  0.58774500  1
  H  H17  1  0.96316200  0.60007400  0.41225500  1
  H  H18  1  0.53683800  0.39992600  0.91225500  1
  H  H19  1  0.03683800  0.10007400  0.08774500  1
  H  H20  1  0.94669900  0.88335000  0.88358200  1
  H  H21  1  0.44669900  0.61665000  0.11641800  1
  H  H22  1  0.05330100  0.38335000  0.61641800  1
  H  H23  1  0.55330100  0.11665000  0.38358200  1
  H  H24  1  0.30292500  0.93673000  0.86911900  1
  H  H25  1  0.80292500  0.56327000  0.13088100  1
  H  H26  1  0.69707500  0.43673000  0.63088100  1
  H  H27  1  0.19707500  0.06327000  0.36911900  1
  H  H28  1  0.81988400  0.91219700  0.57860800  1
  H  H29  1  0.31988400  0.58780300  0.42139200  1
  H  H30  1  0.18011600  0.41219700  0.92139200  1
  H  H31  1  0.68011600  0.08780300  0.07860800  1
  O  O0  1  0.09864900  0.53413000  0.61556400  1
  O  O1  1  0.59864900  0.96587000  0.38443600  1
  O  O2  1  0.90135100  0.03413000  0.88443600  1
  O  O3  1  0.40135100  0.46587000  0.11556400  1
  O  O4  1  0.60605400  0.52754200  0.92954000  1
  O  O5  1  0.10605400  0.97245800  0.07046000  1
  O  O6  1  0.39394600  0.02754200  0.57046000  1
  O  O7  1  0.89394600  0.47245800  0.42954000  1
  O  O8  1  0.43592400  0.74743000  0.90593500  1
  O  O9  1  0.93592400  0.75257000  0.09406500  1
  O  O10  1  0.56407600  0.24743000  0.59406500  1
  O  O11  1  0.06407600  0.25257000  0.40593500  1
  O  O12  1  0.91966400  0.73306200  0.59873100  1
  O  O13  1  0.41966400  0.76693800  0.40126900  1
  O  O14  1  0.08033600  0.23306200  0.90126900  1
  O  O15  1  0.58033600  0.26693800  0.09873100  1
  O  O16  1  0.50615200  0.64562200  0.63015600  1
  O  O17  1  0.00615200  0.85437800  0.36984400  1
  O  O18  1  0.49384800  0.14562200  0.86984400  1
  O  O19  1  0.99384800  0.35437800  0.13015600  1
  O  O20  1  0.04502600  0.62710900  0.90769800  1
  O  O21  1  0.54502600  0.87289100  0.09230200  1
  O  O22  1  0.95497400  0.12710900  0.59230200  1
  O  O23  1  0.45497400  0.37289100  0.40769800  1
  O  O24  1  0.49439900  0.83539400  0.57620300  1
  O  O25  1  0.99439900  0.66460600  0.42379700  1
  O  O26  1  0.50560100  0.33539400  0.92379700  1
  O  O27  1  0.00560100  0.16460600  0.07620300  1
  O  O28  1  0.96437800  0.82692900  0.91287500  1
  O  O29  1  0.46437800  0.67307100  0.08712500  1
  O  O30  1  0.03562200  0.32692900  0.58712500  1
  O  O31  1  0.53562200  0.17307100  0.41287500  1
  O  O32  1  0.45332200  0.94933200  0.88826500  1
  O  O33  1  0.95332200  0.55066800  0.11173500  1
  O  O34  1  0.54667800  0.44933200  0.61173500  1
  O  O35  1  0.04667800  0.05066800  0.38826500  1
  O  O36  1  0.96771100  0.93030000  0.55951000  1
  O  O37  1  0.46771100  0.56970000  0.44049000  1
  O  O38  1  0.03228900  0.43030000  0.94049000  1
  O  O39  1  0.53228900  0.06970000  0.05951000  1
loop_
_geom_bond_atom_site_label_1
_geom_bond_atom_site_label_2
_geom_bond_distance
_geom_bond_site_symmetry_2
Na0 O16 2.352404 1_555
Na0 O12 2.430990 1_455
Na0 O25 2.487550 1_455
Na0 O24 2.589311 1_555
Na0 O13 2.629182 1_555
Na1 O17 2.352404 1_655
Na1 O13 2.430990 1_555
Na1 O24 2.487550 1_555
Na1 O25 2.589311 1_555
Na1 O12 2.629182 1_555
Na2 O18 2.352404 1_555
Na2 O14 2.430990 1_655
Na2 O27 2.487550 1_656
Na2 O26 2.589311 1_555
Na2 O15 2.629182 1_556
Na3 O19 2.352404 1_455
Na3 O15 2.430990 1_555
Na3 O26 2.487550 1_554
Na3 O27 2.589311 1_555
Na3 O14 2.629182 1_554
Na4 O20 2.349771 1_554
Na4 O33 2.363480 1_455
Na4 O3 2.454939 1_555
Na4 O29 2.499485 1_555
Na4 O38 2.580539 1_554
Na4 O4 2.711615 1_554
Na5 O21 2.349771 1_556
Na5 O32 2.363480 1_555
Na5 O2 2.454939 1_565
Na5 O28 2.499485 1_555
Na5 O39 2.580539 1_566
Na5 O5 2.711615 1_656
Na6 O22 2.349771 1_555
Na6 O35 2.363480 1_655
Na6 O1 2.454939 1_545
Na6 O31 2.499485 1_555
Na6 O36 2.580539 1_545
Na6 O6 2.711615 1_555
Na7 O23 2.349771 1_555
Na7 O34 2.363480 1_555
Na7 O0 2.454939 1_555
Na7 O30 2.499485 1_555
Na7 O37 2.580539 1_555
Na7 O7 2.711615 1_455
Na8 O8 2.363556 1_555
Na8 O20 2.403780 1_655
Na8 O9 2.459285 1_556
Na8 O29 2.469409 1_556
Na8 O4 2.664950 1_555
Na8 O28 2.680622 1_555
Na9 O9 2.363556 1_455
Na9 O21 2.403780 1_555
Na9 O8 2.459285 1_554
Na9 O28 2.469409 1_454
Na9 O5 2.664950 1_555
Na9 O29 2.680622 1_555
Na10 O10 2.363556 1_555
Na10 O22 2.403780 1_455
Na10 O11 2.459285 1_555
Na10 O31 2.469409 1_555
Na10 O6 2.664950 1_555
Na10 O30 2.680622 1_555
Na11 O11 2.363556 1_655
Na11 O23 2.403780 1_555
Na11 O10 2.459285 1_555
Na11 O30 2.469409 1_655
Na11 O7 2.664950 1_555
Na11 O31 2.680622 1_555
Na12 O37 2.350869 1_555
Na12 O16 2.396426 1_555
Na12 O7 2.536750 1_555
Na12 O0 2.568422 1_655
Na12 O34 2.568484 1_555
Na12 O12 2.739877 1_555
Na12 O25 2.753186 1_555
Na13 O36 2.350869 1_455
Na13 O17 2.396426 1_555
Na13 O6 2.536750 1_565
Na13 O1 2.568422 1_555
Na13 O35 2.568484 1_565
Na13 O13 2.739877 1_555
Na13 O24 2.753186 1_555
Na14 O39 2.350869 1_556
Na14 O18 2.396426 1_555
Na14 O5 2.536750 1_546
Na14 O2 2.568422 1_455
Na14 O32 2.568484 1_545
Na14 O14 2.739877 1_555
Na14 O27 2.753186 1_556
Na15 O38 2.350869 1_654
Na15 O19 2.396426 1_555
Na15 O4 2.536750 1_554
Na15 O3 2.568422 1_555
Na15 O33 2.568484 1_555
Na15 O15 2.739877 1_555
Na15 O26 2.753186 1_554
H0 O0 0.983578 1_555
H0 Na12 2.346368 1_455
H1 O1 0.983578 1_555
H1 Na13 2.346368 1_555
H2 O2 0.983578 1_555
H2 Na14 2.346368 1_655
H3 O3 0.983578 1_555
H3 Na15 2.346368 1_555
H4 O4 0.977838 1_555
H4 Na4 2.528289 1_556
H5 O5 0.977838 1_655
H5 Na5 2.528289 1_554
H6 O6 0.977838 1_555
H6 Na6 2.528289 1_555
H7 O7 0.977838 1_455
H7 Na7 2.528289 1_555
H8 O8 0.980369 1_555
H9 O9 0.980369 1_455
H10 O10 0.980369 1_555
H11 O11 0.980369 1_655
H12 O12 0.977003 1_455
H12 Na0 2.419130 1_555
H13 O13 0.977003 1_555
H13 Na1 2.419130 1_555
H14 O14 0.977003 1_655
H14 Na2 2.419130 1_555
H15 O15 0.977003 1_555
H15 Na3 2.419130 1_555
H16 O24 0.985572 1_555
H16 Na13 2.512450 1_555
H17 O25 0.985572 1_555
H17 Na12 2.512450 1_555
H18 O26 0.985572 1_555
H18 Na15 2.512450 1_556
H19 O27 0.985572 1_555
H19 Na14 2.512450 1_554
H20 O28 0.975237 1_555
H20 Na5 2.332621 1_555
H21 O29 0.975237 1_555
H21 Na4 2.332621 1_555
H22 O30 0.975237 1_555
H22 Na7 2.332621 1_555
H23 O31 0.975237 1_555
H23 Na6 2.332621 1_555
H24 O32 0.972858 1_555
H24 Na14 2.632516 1_565
H25 O33 0.972858 1_555
H25 Na15 2.632516 1_555
H26 O34 0.972858 1_555
H26 Na12 2.632516 1_555
H27 O35 0.972858 1_555
H27 Na13 2.632516 1_545
H28 O36 0.977276 1_555
H28 Na1 2.478366 1_555
H29 O37 0.977276 1_555
H29 Na0 2.478366 1_555
H30 O38 0.977276 1_555
H30 Na3 2.478366 1_556
H31 O39 0.977276 1_555
H31 Na2 2.478366 1_554
O0 Sn0 2.158890 1_555
O1 Sn1 2.158890 1_555
O2 Sn2 2.158890 1_555
O3 Sn3 2.158890 1_555
O4 Sn4 2.167826 1_555
O5 Sn5 2.167826 1_555
O6 Sn6 2.167826 1_555
O7 Sn7 2.167826 1_555
O8 Sn12 2.115559 1_555
O9 Sn13 2.115559 1_555
O10 Sn14 2.115559 1_555
O11 Sn15 2.115559 1_555
O12 Sn8 2.162495 1_555
O13 Sn9 2.162495 1_555
O14 Sn10 2.162495 1_555
O15 Sn11 2.162495 1_555
O16 Sn8 2.047572 1_555
O16 Sn0 2.061709 1_555
O17 Sn9 2.047572 1_555
O17 Sn1 2.061709 1_455
O18 Sn10 2.047572 1_555
O18 Sn2 2.061709 1_555
O19 Sn11 2.047572 1_555
O19 Sn3 2.061709 1_655
O20 Sn12 2.074587 1_555
O20 Sn4 2.075850 1_455
O21 Sn13 2.074587 1_555
O21 Sn5 2.075850 1_555
O22 Sn14 2.074587 1_555
O22 Sn6 2.075850 1_655
O23 Sn15 2.074587 1_555
O23 Sn7 2.075850 1_555
O24 Sn8 2.162713 1_555
O25 Sn9 2.162713 1_655
O26 Sn10 2.162713 1_555
O27 Sn11 2.162713 1_455
O28 Sn12 2.170261 1_655
O29 Sn13 2.170261 1_555
O30 Sn14 2.170261 1_455
O31 Sn15 2.170261 1_555
O32 Sn2 2.135257 1_565
O33 Sn3 2.135257 1_655
O34 Sn0 2.135257 1_555
O35 Sn1 2.135257 1_445
O36 Sn6 2.155270 1_665
O37 Sn7 2.155270 1_555
O38 Sn4 2.155270 1_455
O39 Sn5 2.155270 1_545
