# generated using pymatgen
data_NaH2C2N3O
_symmetry_space_group_name_H-M   'P 1'
_cell_length_a   10.30280041
_cell_length_b   10.30280041
_cell_length_c   6.59844600
_cell_angle_alpha   90.00000000
_cell_angle_beta   90.00000000
_cell_angle_gamma   120.00000261
_symmetry_Int_Tables_number   1
_chemical_formula_structural   NaH2C2N3O
_chemical_formula_sum   'Na6 H12 C12 N18 O6'
_cell_volume   606.57269988
_cell_formula_units_Z   6
loop_
 _symmetry_equiv_pos_site_id
 _symmetry_equiv_pos_as_xyz
  1  'x, y, z'
loop_
 _atom_site_type_symbol
 _atom_site_label
 _atom_site_symmetry_multiplicity
 _atom_site_fract_x
 _atom_site_fract_y
 _atom_site_fract_z
 _atom_site_occupancy
  Na  Na0  1  0.00000000  0.59330000  0.50000000  1
  Na  Na1  1  0.00000000  0.59330000  0.00000000  1
  Na  Na2  1  0.40670000  0.40670000  0.00000000  1
  Na  Na3  1  0.40670000  0.40670000  0.50000000  1
  Na  Na4  1  0.59330000  0.00000000  0.00000000  1
  Na  Na5  1  0.59330000  0.00000000  0.50000000  1
  H  H0  1  0.17012200  0.81313200  0.75000000  1
  H  H1  1  0.30500500  0.78169400  0.75000000  1
  H  H2  1  0.21830600  0.52331100  0.75000000  1
  H  H3  1  0.18686800  0.35699100  0.75000000  1
  H  H4  1  0.47668900  0.69499500  0.75000000  1
  H  H5  1  0.64300900  0.82987800  0.75000000  1
  H  H6  1  0.35699100  0.18686800  0.25000000  1
  H  H7  1  0.52331100  0.21830600  0.25000000  1
  H  H8  1  0.69499500  0.47668900  0.25000000  1
  H  H9  1  0.82987800  0.64300900  0.25000000  1
  H  H10  1  0.78169400  0.30500500  0.25000000  1
  H  H11  1  0.81313200  0.17012200  0.25000000  1
  C  C0  1  0.06206500  0.91438700  0.25000000  1
  C  C1  1  0.26350400  0.87706700  0.25000000  1
  C  C2  1  0.12293300  0.38643700  0.25000000  1
  C  C3  1  0.08561300  0.14767800  0.25000000  1
  C  C4  1  0.14767800  0.08561300  0.75000000  1
  C  C5  1  0.61356300  0.73649600  0.25000000  1
  C  C6  1  0.38643700  0.12293300  0.75000000  1
  C  C7  1  0.85232200  0.93793500  0.25000000  1
  C  C8  1  0.73649600  0.61356300  0.75000000  1
  C  C9  1  0.93793500  0.85232200  0.75000000  1
  C  C10  1  0.87706700  0.26350400  0.75000000  1
  C  C11  1  0.91438700  0.06206500  0.75000000  1
  N  N0  1  0.08946100  0.93528700  0.75000000  1
  N  N1  1  0.11900200  0.81975800  0.25000000  1
  N  N2  1  0.08143600  0.47494700  0.25000000  1
  N  N3  1  0.39351100  0.91856400  0.25000000  1
  N  N4  1  0.06471300  0.15417300  0.75000000  1
  N  N5  1  0.18024200  0.29924400  0.25000000  1
  N  N6  1  0.15417300  0.06471300  0.25000000  1
  N  N7  1  0.29924400  0.18024200  0.75000000  1
  N  N8  1  0.52505300  0.60648900  0.25000000  1
  N  N9  1  0.70075600  0.88099800  0.25000000  1
  N  N10  1  0.60648900  0.52505300  0.75000000  1
  N  N11  1  0.84582700  0.91053900  0.75000000  1
  N  N12  1  0.47494700  0.08143600  0.75000000  1
  N  N13  1  0.91053900  0.84582700  0.25000000  1
  N  N14  1  0.88099800  0.70075600  0.75000000  1
  N  N15  1  0.91856400  0.39351100  0.75000000  1
  N  N16  1  0.81975800  0.11900200  0.75000000  1
  N  N17  1  0.93528700  0.08946100  0.25000000  1
  O  O0  1  0.19561200  0.73031200  0.75000000  1
  O  O1  1  0.26968800  0.46530000  0.75000000  1
  O  O2  1  0.53470000  0.80438800  0.75000000  1
  O  O3  1  0.46530000  0.26968800  0.25000000  1
  O  O4  1  0.80438800  0.53470000  0.25000000  1
  O  O5  1  0.73031200  0.19561200  0.25000000  1
loop_
_geom_bond_atom_site_label_1
_geom_bond_atom_site_label_2
_geom_bond_distance
_geom_bond_site_symmetry_2
Na0 O0 2.435284 1_555
Na0 O4 2.435284 1_455
Na1 O0 2.435284 1_554
Na1 O4 2.435284 1_455
Na2 O3 2.435284 1_555
Na2 O1 2.435284 1_554
Na3 O3 2.435284 1_555
Na3 O1 2.435284 1_555
Na4 O5 2.435284 1_555
Na4 O2 2.435284 1_544
Na5 O5 2.435284 1_555
Na5 O2 2.435284 1_545
H0 O0 1.010514 1_555
H1 O0 0.976655 1_555
H2 O1 0.976655 1_555
H3 O1 1.010507 1_555
H4 O2 0.976655 1_555
H5 O2 1.010504 1_555
H6 O3 1.010507 1_555
H7 O3 0.976655 1_555
H8 O4 0.976655 1_555
H9 O4 1.010504 1_555
H10 O5 0.976655 1_555
H11 O5 1.010514 1_555
C0 N6 1.352596 1_565
C0 N13 1.354024 1_455
C0 N1 1.366214 1_555
C1 N3 1.184998 1_555
C1 N1 1.298475 1_555
C2 N2 1.184998 1_555
C2 N5 1.298475 1_555
C3 N17 1.352597 1_455
C3 N6 1.354015 1_555
C3 N5 1.366213 1_555
C4 N0 1.352597 1_545
C4 N4 1.354015 1_555
C4 N7 1.366213 1_555
C5 N8 1.184998 1_555
C5 N9 1.298475 1_555
C6 N12 1.184998 1_555
C6 N7 1.298475 1_555
C7 N13 1.352588 1_555
C7 N17 1.354023 1_565
C7 N9 1.366214 1_555
C8 N10 1.184998 1_555
C8 N14 1.298475 1_555
C9 N11 1.352588 1_555
C9 N0 1.354023 1_655
C9 N14 1.366214 1_555
C10 N15 1.184998 1_555
C10 N16 1.298475 1_555
C11 N4 1.352596 1_655
C11 N11 1.354024 1_545
C11 N16 1.366214 1_555
N1 Na0 2.609110 1_555
N1 Na1 2.609110 1_555
N2 Na0 2.436206 1_555
N2 Na1 2.436206 1_555
N3 Na5 2.436206 1_565
N3 Na4 2.436206 1_565
N5 Na2 2.609110 1_555
N5 Na3 2.609110 1_555
N7 Na2 2.609110 1_556
N7 Na3 2.609110 1_555
N8 Na2 2.436206 1_555
N8 Na3 2.436206 1_555
N9 Na5 2.609110 1_565
N9 Na4 2.609110 1_565
N10 Na2 2.436206 1_556
N10 Na3 2.436206 1_555
N12 Na5 2.436206 1_555
N12 Na4 2.436206 1_556
N14 Na0 2.609110 1_655
N14 Na1 2.609110 1_656
N15 Na0 2.436206 1_655
N15 Na1 2.436206 1_656
N16 Na5 2.609110 1_555
N16 Na4 2.609110 1_556
