# generated using pymatgen
data_K4CuP6(H4O11)2
_symmetry_space_group_name_H-M   'P 1'
_cell_length_a   14.50087000
_cell_length_b   8.57523700
_cell_length_c   8.61822993
_cell_angle_alpha   83.34792104
_cell_angle_beta   90.00000000
_cell_angle_gamma   90.00000000
_symmetry_Int_Tables_number   1
_chemical_formula_structural   K4CuP6(H4O11)2
_chemical_formula_sum   'K8 Cu2 P12 H16 O44'
_cell_volume   1064.44851546
_cell_formula_units_Z   2
loop_
 _symmetry_equiv_pos_site_id
 _symmetry_equiv_pos_as_xyz
  1  'x, y, z'
loop_
 _atom_site_type_symbol
 _atom_site_label
 _atom_site_symmetry_multiplicity
 _atom_site_fract_x
 _atom_site_fract_y
 _atom_site_fract_z
 _atom_site_occupancy
  K  K0  1  0.09676500  0.05359600  0.17500500  1
  K  K1  1  0.59676500  0.94640400  0.32499500  1
  K  K2  1  0.90323500  0.94640400  0.82499500  1
  K  K3  1  0.40323500  0.05359600  0.67500500  1
  K  K4  1  0.28173400  0.66722200  0.00269500  1
  K  K5  1  0.78173400  0.33277800  0.49730500  1
  K  K6  1  0.71826600  0.33277800  0.99730500  1
  K  K7  1  0.21826600  0.66722200  0.50269500  1
  Cu  Cu0  1  0.50000000  0.50000000  0.50000000  1
  Cu  Cu1  1  0.00000000  0.50000000  0.00000000  1
  P  P0  1  0.33479000  0.99845800  0.25743500  1
  P  P1  1  0.83479000  0.00154200  0.24256500  1
  P  P2  1  0.66521000  0.00154200  0.74256500  1
  P  P3  1  0.16521000  0.99845800  0.75743500  1
  P  P4  1  0.32584700  0.32818900  0.30935900  1
  P  P5  1  0.82584700  0.67181100  0.19064100  1
  P  P6  1  0.67415300  0.67181100  0.69064100  1
  P  P7  1  0.17415300  0.32818900  0.80935900  1
  P  P8  1  0.45005500  0.23361500  0.06675100  1
  P  P9  1  0.95005500  0.76638500  0.43324900  1
  P  P10  1  0.54994500  0.76638500  0.93324900  1
  P  P11  1  0.04994500  0.23361500  0.56675100  1
  H  H0  1  0.07055400  0.65088300  0.21564600  1
  H  H1  1  0.57055400  0.34911700  0.28435400  1
  H  H2  1  0.92944600  0.34911700  0.78435400  1
  H  H3  1  0.42944600  0.65088300  0.71564600  1
  H  H4  1  0.13556200  0.50054700  0.19989300  1
  H  H5  1  0.63556200  0.49945300  0.30010700  1
  H  H6  1  0.86443800  0.49945300  0.80010700  1
  H  H7  1  0.36443800  0.50054700  0.69989300  1
  H  H8  1  0.42270800  0.74028800  0.36315900  1
  H  H9  1  0.92270800  0.25971200  0.13684100  1
  H  H10  1  0.57729200  0.25971200  0.63684100  1
  H  H11  1  0.07729200  0.74028800  0.86315900  1
  H  H12  1  0.48309200  0.66561700  0.23250800  1
  H  H13  1  0.98309200  0.33438300  0.26749200  1
  H  H14  1  0.51690800  0.33438300  0.76749200  1
  H  H15  1  0.01690800  0.66561700  0.73250800  1
  O  O0  1  0.26365800  0.88868300  0.20643000  1
  O  O1  1  0.76365800  0.11131700  0.29357000  1
  O  O2  1  0.73634200  0.11131700  0.79357000  1
  O  O3  1  0.23634200  0.88868300  0.70643000  1
  O  O4  1  0.39933400  0.93735100  0.38796100  1
  O  O5  1  0.89933400  0.06264900  0.11203900  1
  O  O6  1  0.60066600  0.06264900  0.61203900  1
  O  O7  1  0.10066600  0.93735100  0.88796100  1
  O  O8  1  0.27974200  0.15516700  0.29566600  1
  O  O9  1  0.77974200  0.84483300  0.20433400  1
  O  O10  1  0.72025800  0.84483300  0.70433400  1
  O  O11  1  0.22025800  0.15516700  0.79566600  1
  O  O12  1  0.39135400  0.30973400  0.44508000  1
  O  O13  1  0.89135400  0.69026600  0.05492000  1
  O  O14  1  0.60864600  0.69026600  0.55492000  1
  O  O15  1  0.10864600  0.30973400  0.94508000  1
  O  O16  1  0.25058300  0.44780700  0.29661600  1
  O  O17  1  0.75058300  0.55219300  0.20338400  1
  O  O18  1  0.74941700  0.55219300  0.70338400  1
  O  O19  1  0.24941700  0.44780700  0.79661600  1
  O  O20  1  0.44621300  0.27091400  0.89272100  1
  O  O21  1  0.94621300  0.72908600  0.60727900  1
  O  O22  1  0.55378700  0.72908600  0.10727900  1
  O  O23  1  0.05378700  0.27091400  0.39272100  1
  O  O24  1  0.54271200  0.22899900  0.14663500  1
  O  O25  1  0.04271200  0.77100100  0.35336500  1
  O  O26  1  0.45728800  0.77100100  0.85336500  1
  O  O27  1  0.95728800  0.22899900  0.64663500  1
  O  O28  1  0.38235400  0.35506400  0.14284600  1
  O  O29  1  0.88235400  0.64493600  0.35715400  1
  O  O30  1  0.61764600  0.64493600  0.85715400  1
  O  O31  1  0.11764600  0.35506400  0.64284600  1
  O  O32  1  0.39622100  0.06712600  0.10590300  1
  O  O33  1  0.89622100  0.93287400  0.39409700  1
  O  O34  1  0.60377900  0.93287400  0.89409700  1
  O  O35  1  0.10377900  0.06712600  0.60590300  1
  O  O36  1  0.09683600  0.58211100  0.13982300  1
  O  O37  1  0.59683600  0.41788900  0.36017700  1
  O  O38  1  0.90316400  0.41788900  0.86017700  1
  O  O39  1  0.40316400  0.58211100  0.63982300  1
  O  O40  1  0.44046100  0.63830300  0.32579200  1
  O  O41  1  0.94046100  0.36169700  0.17420800  1
  O  O42  1  0.55953900  0.36169700  0.67420800  1
  O  O43  1  0.05953900  0.63830300  0.82579200  1
loop_
_geom_bond_atom_site_label_1
_geom_bond_atom_site_label_2
_geom_bond_distance
_geom_bond_site_symmetry_2
K0 O7 2.772711 1_544
K0 O15 2.787870 1_554
K0 O0 2.800239 1_545
K0 O25 2.826067 1_545
K0 O23 2.862155 1_555
K0 O5 2.913256 1_455
K0 O8 3.014958 1_555
K1 O6 2.772711 1_565
K1 O14 2.787870 1_555
K1 O1 2.800239 1_565
K1 O24 2.826067 1_565
K1 O22 2.862155 1_555
K1 O4 2.913256 1_555
K1 O9 3.014958 1_555
K2 O5 2.772711 1_566
K2 O13 2.787870 1_556
K2 O2 2.800239 1_565
K2 O27 2.826067 1_565
K2 O21 2.862155 1_555
K2 O7 2.913256 1_655
K2 O10 3.014958 1_555
K3 O4 2.772711 1_545
K3 O12 2.787870 1_555
K3 O3 2.800239 1_545
K3 O26 2.826067 1_545
K3 O20 2.862155 1_555
K3 O6 2.913256 1_555
K3 O11 3.014958 1_555
K4 O0 2.744212 1_555
K4 O19 2.772776 1_554
K4 O26 2.943368 1_554
K4 O36 2.986341 1_555
K4 O16 3.009403 1_555
K4 O3 3.071744 1_554
K4 O28 3.162935 1_555
K5 O1 2.744212 1_555
K5 O18 2.772776 1_555
K5 O27 2.943368 1_555
K5 O37 2.986341 1_555
K5 O17 3.009403 1_555
K5 O2 3.071744 1_555
K5 O29 3.162935 1_555
K6 O2 2.744212 1_555
K6 O17 2.772776 1_556
K6 O24 2.943368 1_556
K6 O38 2.986341 1_555
K6 O18 3.009403 1_555
K6 O1 3.071744 1_556
K6 O30 3.162935 1_555
K7 O3 2.744212 1_555
K7 O16 2.772776 1_555
K7 O25 2.943368 1_555
K7 O39 2.986341 1_555
K7 O19 3.009403 1_555
K7 O0 3.071744 1_555
K7 O31 3.162935 1_555
Cu0 O42 1.998380 1_555
Cu0 O40 1.998380 1_555
Cu0 O37 2.028854 1_555
Cu0 O39 2.028854 1_555
Cu0 O14 2.355219 1_555
Cu0 O12 2.355219 1_555
Cu1 O43 1.998380 1_554
Cu1 O41 1.998380 1_455
Cu1 O36 2.028854 1_555
Cu1 O38 2.028854 1_454
Cu1 O15 2.355219 1_554
Cu1 O13 2.355219 1_455
H0 O36 1.004653 1_555
H1 O37 1.004653 1_555
H2 O38 1.004653 1_555
H3 O39 1.004653 1_555
H4 O36 0.994321 1_555
H4 K4 2.976770 1_555
H5 O37 0.994321 1_555
H5 K5 2.976770 1_555
H6 O38 0.994321 1_555
H6 K6 2.976770 1_555
H7 O39 0.994321 1_555
H7 K7 2.976770 1_555
H8 O40 1.000030 1_555
H9 O41 1.000030 1_555
H10 O42 1.000030 1_555
H11 O43 1.000030 1_555
H12 O40 1.019664 1_555
H12 O22 1.541372 1_555
H13 O41 1.019664 1_555
H13 O23 1.541372 1_655
H14 O42 1.019664 1_555
H14 O20 1.541372 1_555
H15 O43 1.019664 1_555
H15 O21 1.541372 1_455
O0 P0 1.496385 1_555
O1 P1 1.496385 1_555
O2 P2 1.496385 1_555
O3 P3 1.496385 1_555
O4 P0 1.509774 1_555
O5 P1 1.509774 1_555
O6 P2 1.509774 1_555
O7 P3 1.509774 1_555
O8 P0 1.629164 1_545
O8 P4 1.644034 1_555
O9 P1 1.629164 1_565
O9 P5 1.644034 1_555
O10 P2 1.629164 1_565
O10 P6 1.644034 1_555
O11 P3 1.629164 1_545
O11 P7 1.644034 1_555
O12 P4 1.500875 1_555
O13 P5 1.500875 1_555
O14 P6 1.500875 1_555
O15 P7 1.500875 1_555
O16 P4 1.493074 1_555
O17 P5 1.493074 1_555
O18 P6 1.493074 1_555
O19 P7 1.493074 1_555
O20 P8 1.497918 1_556
O21 P9 1.497918 1_555
O22 P10 1.497918 1_554
O23 P11 1.497918 1_555
O24 P8 1.508147 1_555
O25 P9 1.508147 1_455
O26 P10 1.508147 1_555
O27 P11 1.508147 1_655
O28 P8 1.623798 1_555
O28 P4 1.645378 1_555
O29 P9 1.623798 1_555
O29 P5 1.645378 1_555
O30 P10 1.623798 1_555
O30 P6 1.645378 1_555
O31 P11 1.623798 1_555
O31 P7 1.645378 1_555
O32 P8 1.627858 1_555
O32 P0 1.633273 1_545
O33 P9 1.627858 1_555
O33 P1 1.633273 1_565
O34 P10 1.627858 1_555
O34 P2 1.633273 1_565
O35 P11 1.627858 1_555
O35 P3 1.633273 1_545
