# generated using pymatgen
data_Ba9Rh8O27
_symmetry_space_group_name_H-M   'P 1'
_cell_length_a   10.12457000
_cell_length_b   10.12619523
_cell_length_c   15.22604062
_cell_angle_alpha   77.47906810
_cell_angle_beta   83.45982487
_cell_angle_gamma   60.27875076
_symmetry_Int_Tables_number   1
_chemical_formula_structural   Ba9Rh8O27
_chemical_formula_sum   'Ba18 Rh16 O54'
_cell_volume   1323.38865949
_cell_formula_units_Z   2
loop_
 _symmetry_equiv_pos_site_id
 _symmetry_equiv_pos_as_xyz
  1  'x, y, z'
loop_
 _atom_site_type_symbol
 _atom_site_label
 _atom_site_symmetry_multiplicity
 _atom_site_fract_x
 _atom_site_fract_y
 _atom_site_fract_z
 _atom_site_occupancy
  Ba  Ba0  1  0.01645800  0.74925900  0.75998000  1
  Ba  Ba1  1  0.32216900  0.98545200  0.07805000  1
  Ba  Ba2  1  0.33883200  0.68609700  0.92679900  1
  Ba  Ba3  1  0.00839100  0.34786900  0.92058100  1
  Ba  Ba4  1  0.64900700  0.95375900  0.25912900  1
  Ba  Ba5  1  0.33206300  0.58333300  0.25483200  1
  Ba  Ba6  1  0.67357200  0.80405400  0.57519000  1
  Ba  Ba7  1  0.34058000  0.46537800  0.58127100  1
  Ba  Ba8  1  0.00567100  0.12597900  0.59140800  1
  Ba  Ba9  1  0.65932900  0.53087300  0.41890800  1
  Ba  Ba10  1  0.32723100  0.20173100  0.42108400  1
  Ba  Ba11  1  0.99137800  0.87046400  0.41654700  1
  Ba  Ba12  1  0.70601100  0.37368700  0.76175800  1
  Ba  Ba13  1  0.32946200  0.06422400  0.75884900  1
  Ba  Ba14  1  0.66123400  0.30923700  0.09004100  1
  Ba  Ba15  1  0.98856600  0.65213500  0.07735900  1
  Ba  Ba16  1  0.67772100  0.01839100  0.91936800  1
  Ba  Ba17  1  0.96024200  0.26409200  0.26071300  1
  Rh  Rh0  1  0.00498000  0.99891500  0.98698400  1
  Rh  Rh1  1  0.31287000  0.91387300  0.32105800  1
  Rh  Rh2  1  0.33382600  0.83211400  0.49972700  1
  Rh  Rh3  1  0.99965200  0.50171800  0.49901900  1
  Rh  Rh4  1  0.36449700  0.74376500  0.67650900  1
  Rh  Rh5  1  0.01782900  0.42900100  0.67545000  1
  Rh  Rh6  1  0.33260200  0.33303600  0.99973100  1
  Rh  Rh7  1  0.66618000  0.66997100  0.99885400  1
  Rh  Rh8  1  0.68597100  0.70804300  0.81862900  1
  Rh  Rh9  1  0.35353800  0.37300200  0.82052800  1
  Rh  Rh10  1  0.98796200  0.95412000  0.17397600  1
  Rh  Rh11  1  0.30515400  0.29423900  0.17700000  1
  Rh  Rh12  1  0.64703300  0.63615200  0.17608500  1
  Rh  Rh13  1  0.97993100  0.57975200  0.32013600  1
  Rh  Rh14  1  0.66383200  0.17254400  0.48841800  1
  Rh  Rh15  1  0.67828700  0.09005200  0.67461100  1
  O  O0  1  0.00703000  0.85255100  0.92599500  1
  O  O1  1  0.22436300  0.85569200  0.76296700  1
  O  O2  1  0.13679700  0.94411800  0.25498800  1
  O  O3  1  0.00912700  0.62043700  0.58652200  1
  O  O4  1  0.34692600  0.93917900  0.59526700  1
  O  O5  1  0.19491800  0.78850900  0.59571900  1
  O  O6  1  0.14811600  0.82282300  0.08678100  1
  O  O7  1  0.52388700  0.84026400  0.89978200  1
  O  O8  1  0.19452000  0.50841800  0.90107600  1
  O  O9  1  0.47299500  0.87704900  0.40404400  1
  O  O10  1  0.14374100  0.53861900  0.40364700  1
  O  O11  1  0.32544900  0.72249500  0.40384600  1
  O  O12  1  0.69948400  0.88204800  0.73537000  1
  O  O13  1  0.20617500  0.38746500  0.73616700  1
  O  O14  1  0.02327300  0.24408600  0.74487400  1
  O  O15  1  0.55474000  0.69869000  0.73426900  1
  O  O16  1  0.38697400  0.53676400  0.73709300  1
  O  O17  1  0.46084700  0.80045100  0.22953500  1
  O  O18  1  0.12017200  0.46102000  0.22872600  1
  O  O19  1  0.82040000  0.98630800  0.57682200  1
  O  O20  1  0.50018100  0.64291900  0.57089400  1
  O  O21  1  0.15906000  0.31254400  0.57789700  1
  O  O22  1  0.16630900  0.31581400  0.07772700  1
  O  O23  1  0.84812200  0.97479000  0.08244600  1
  O  O24  1  0.65796800  0.80936500  0.07739200  1
  O  O25  1  0.32397500  0.46520900  0.08503000  1
  O  O26  1  0.50625100  0.64837200  0.08398300  1
  O  O27  1  0.33910000  0.20245600  0.91323400  1
  O  O28  1  0.82493200  0.69256200  0.91241600  1
  O  O29  1  0.67568500  0.53621400  0.91278600  1
  O  O30  1  0.49546700  0.35121600  0.91409200  1
  O  O31  1  0.17248900  0.01612300  0.92677800  1
  O  O32  1  0.17128800  0.01876000  0.42192900  1
  O  O33  1  0.84127200  0.68917000  0.41934200  1
  O  O34  1  0.49806100  0.36000700  0.43179900  1
  O  O35  1  0.52533000  0.20111800  0.76442700  1
  O  O36  1  0.88160600  0.54829300  0.76751700  1
  O  O37  1  0.78327700  0.63626200  0.26095600  1
  O  O38  1  0.97377300  0.77689000  0.25424400  1
  O  O39  1  0.44923700  0.27705000  0.25592800  1
  O  O40  1  0.27705200  0.12873100  0.26133900  1
  O  O41  1  0.63887900  0.46397400  0.25390200  1
  O  O42  1  0.66823900  0.27775700  0.59280800  1
  O  O43  1  0.51948800  0.12980200  0.58448300  1
  O  O44  1  0.85640600  0.46423000  0.59355800  1
  O  O45  1  0.80814000  0.49855100  0.09717000  1
  O  O46  1  0.47039500  0.15885100  0.09841200  1
  O  O47  1  0.84406100  0.18033700  0.92367800  1
  O  O48  1  0.98814800  0.39274300  0.40356900  1
  O  O49  1  0.66131500  0.03543400  0.42122900  1
  O  O50  1  0.82436300  0.20006500  0.42655400  1
  O  O51  1  0.84378800  0.06243700  0.74086300  1
  O  O52  1  0.82006600  0.10154000  0.23572900  1
  O  O53  1  0.99750000  0.12439100  0.08235500  1
loop_
_geom_bond_atom_site_label_1
_geom_bond_atom_site_label_2
_geom_bond_distance
_geom_bond_site_symmetry_2
Ba0 O51 2.723320 1_465
Ba0 O1 2.808380 1_555
Ba0 O12 2.832706 1_455
Ba0 O8 2.839742 1_555
Ba0 O0 2.912916 1_555
Ba0 O36 2.938814 1_455
Ba0 O5 2.988222 1_555
Ba0 O28 2.996280 1_455
Ba0 O3 3.212001 1_555
Ba0 O13 3.268414 1_555
Ba0 O16 3.293539 1_555
Ba0 O19 3.333663 1_455
Ba1 O17 2.656493 1_555
Ba1 O31 2.777835 1_564
Ba1 O53 2.862545 1_465
Ba1 O46 2.895903 1_565
Ba1 O22 2.905424 1_565
Ba1 O6 2.926484 1_555
Ba1 O24 2.954191 1_555
Ba1 O26 2.954544 1_555
Ba1 O27 3.006679 1_564
Ba1 O2 3.177071 1_555
Ba1 O40 3.303051 1_565
Ba1 O7 3.345183 1_554
Ba2 O1 2.709725 1_555
Ba2 O31 2.902342 1_565
Ba2 O0 2.917589 1_555
Ba2 O7 2.926251 1_555
Ba2 O8 2.927099 1_555
Ba2 O26 2.938127 1_556
Ba2 O25 2.957125 1_556
Ba2 O29 2.970286 1_555
Ba2 O30 2.988970 1_555
Ba2 O6 3.052690 1_556
Ba3 O36 2.691775 1_455
Ba3 O47 2.897324 1_455
Ba3 O22 2.899460 1_556
Ba3 O31 2.901449 1_555
Ba3 O27 2.913614 1_555
Ba3 O29 2.936164 1_455
Ba3 O53 2.994853 1_456
Ba3 O8 2.997251 1_555
Ba3 O28 3.014056 1_455
Ba3 O14 3.042160 1_555
Ba3 O13 3.328975 1_555
Ba3 O45 3.337322 1_456
Ba4 O52 2.750256 1_565
Ba4 O37 2.796674 1_555
Ba4 O49 2.801538 1_565
Ba4 O38 2.861407 1_555
Ba4 O39 2.863247 1_565
Ba4 O9 2.895054 1_555
Ba4 O46 2.941444 1_565
Ba4 O17 3.110237 1_555
Ba4 O33 3.161464 1_555
Ba4 O23 3.207550 1_555
Ba4 O40 3.271573 1_565
Ba4 O24 3.371761 1_555
Ba5 O39 2.713038 1_555
Ba5 O41 2.717570 1_555
Ba5 O11 2.897636 1_555
Ba5 O10 2.898552 1_555
Ba5 O17 3.007180 1_555
Ba5 O18 3.055614 1_555
Ba5 O25 3.099690 1_555
Ba5 O26 3.110428 1_555
Ba5 O6 3.132649 1_555
Ba5 O34 3.133685 1_555
Ba5 O38 3.154440 1_455
Ba5 O2 3.177518 1_555
Ba6 O12 2.797721 1_555
Ba6 O15 2.817996 1_555
Ba6 O33 2.861409 1_555
Ba6 O19 2.892265 1_555
Ba6 O4 2.892579 1_555
Ba6 O43 2.895516 1_565
Ba6 O49 2.897732 1_565
Ba6 O20 2.942990 1_555
Ba6 O44 2.954770 1_555
Ba6 O3 2.959698 1_655
Ba6 O9 3.216030 1_555
Ba7 O34 2.720233 1_555
Ba7 O13 2.750124 1_555
Ba7 O16 2.776032 1_555
Ba7 O5 2.895383 1_555
Ba7 O42 2.895539 1_555
Ba7 O3 2.915805 1_555
Ba7 O20 2.927019 1_555
Ba7 O21 2.941355 1_555
Ba7 O43 2.945407 1_555
Ba7 O10 3.275461 1_555
Ba7 O11 3.278619 1_555
Ba7 O35 3.380241 1_555
Ba8 O51 2.799983 1_455
Ba8 O19 2.903438 1_445
Ba8 O14 2.905187 1_555
Ba8 O21 2.948057 1_555
Ba8 O5 2.965191 1_545
Ba8 O42 2.970742 1_455
Ba8 O44 2.986908 1_455
Ba8 O4 3.006102 1_545
Ba8 O32 3.012198 1_555
Ba8 O50 3.016716 1_455
Ba8 O1 3.380176 1_545
Ba8 O48 3.434951 1_455
Ba9 O20 2.777618 1_555
Ba9 O41 2.794533 1_555
Ba9 O37 2.832885 1_555
Ba9 O34 2.877341 1_555
Ba9 O50 2.889987 1_555
Ba9 O48 2.905421 1_555
Ba9 O11 2.953724 1_555
Ba9 O33 2.982955 1_555
Ba9 O9 3.015679 1_555
Ba9 O42 3.235899 1_555
Ba9 O44 3.256324 1_555
Ba10 O39 2.797519 1_555
Ba10 O40 2.855522 1_555
Ba10 O21 2.863593 1_555
Ba10 O34 2.917729 1_555
Ba10 O9 2.919991 1_545
Ba10 O10 2.931713 1_555
Ba10 O49 2.937511 1_555
Ba10 O32 2.968413 1_555
Ba10 O48 2.999820 1_455
Ba10 O43 3.069340 1_555
Ba10 O4 3.267941 1_545
Ba11 O2 2.871128 1_655
Ba11 O38 2.884393 1_555
Ba11 O32 2.894692 1_665
Ba11 O33 2.898199 1_555
Ba11 O49 2.902586 1_565
Ba11 O50 2.930502 1_565
Ba11 O19 2.931453 1_555
Ba11 O11 2.945177 1_655
Ba11 O10 2.964330 1_655
Ba11 O3 3.155013 1_655
Ba11 O52 3.214600 1_565
Ba11 O5 3.313773 1_655
Ba12 O47 2.800658 1_555
Ba12 O14 2.807933 1_655
Ba12 O15 2.811174 1_555
Ba12 O51 2.820465 1_555
Ba12 O16 2.831965 1_555
Ba12 O29 3.011628 1_555
Ba12 O30 3.016855 1_555
Ba12 O44 3.032470 1_555
Ba12 O42 3.063214 1_555
Ba12 O36 3.084490 1_555
Ba12 O35 3.086044 1_555
Ba13 O14 2.712269 1_555
Ba13 O1 2.783989 1_545
Ba13 O13 2.819224 1_555
Ba13 O7 2.836964 1_545
Ba13 O31 2.933029 1_555
Ba13 O35 2.945607 1_555
Ba13 O4 2.980497 1_545
Ba13 O27 3.018095 1_555
Ba13 O43 3.244968 1_555
Ba13 O21 3.266144 1_555
Ba13 O12 3.270158 1_545
Ba13 O15 3.328386 1_545
Ba14 O52 2.714064 1_555
Ba14 O53 2.965406 1_555
Ba14 O26 2.969262 1_555
Ba14 O25 2.969750 1_555
Ba14 O23 2.971384 1_545
Ba14 O46 2.974192 1_555
Ba14 O45 2.975447 1_555
Ba14 O47 3.084833 1_554
Ba14 O41 3.153722 1_555
Ba14 O30 3.161895 1_554
Ba14 O29 3.184646 1_554
Ba14 O39 3.192897 1_555
Ba15 O18 2.653519 1_655
Ba15 O0 2.777620 1_654
Ba15 O23 2.860233 1_555
Ba15 O45 2.886995 1_555
Ba15 O24 2.907609 1_555
Ba15 O6 2.923396 1_655
Ba15 O25 2.957926 1_655
Ba15 O22 2.958713 1_655
Ba15 O28 3.008178 1_554
Ba15 O38 3.172968 1_555
Ba15 O37 3.312594 1_555
Ba15 O8 3.328670 1_654
Ba16 O35 2.734128 1_555
Ba16 O47 2.887932 1_555
Ba16 O28 2.891042 1_545
Ba16 O0 2.897925 1_645
Ba16 O24 2.900223 1_546
Ba16 O30 2.918885 1_555
Ba16 O7 2.982103 1_545
Ba16 O27 2.982937 1_555
Ba16 O23 3.013644 1_546
Ba16 O51 3.096768 1_555
Ba16 O12 3.322393 1_545
Ba16 O46 3.358310 1_556
Ba17 O52 2.753032 1_555
Ba17 O40 2.794490 1_655
Ba17 O2 2.836419 1_645
Ba17 O50 2.841183 1_555
Ba17 O41 2.854767 1_555
Ba17 O48 2.870849 1_555
Ba17 O45 2.982236 1_555
Ba17 O18 3.071902 1_655
Ba17 O32 3.170179 1_655
Ba17 O53 3.228266 1_555
Ba17 O37 3.274484 1_555
Ba17 O22 3.393579 1_655
O0 Rh0 1.902968 1_555
O1 Rh4 1.912455 1_555
O2 Rh1 2.004310 1_555
O2 Rh10 2.005093 1_455
O3 Rh3 2.016792 1_455
O3 Rh5 2.078154 1_555
O4 Rh4 2.029087 1_555
O4 Rh2 2.044382 1_555
O5 Rh4 2.033313 1_555
O5 Rh2 2.043715 1_555
O6 Rh10 2.072880 1_455
O6 Rh0 2.086425 1_554
O7 Rh8 2.022181 1_555
O7 Rh7 2.056319 1_555
O8 Rh9 2.016640 1_555
O8 Rh6 2.055399 1_555
O9 Rh1 2.006689 1_555
O9 Rh2 2.048305 1_555
O10 Rh13 2.026508 1_455
O10 Rh3 2.049197 1_455
O11 Rh1 2.023214 1_555
O11 Rh2 2.048125 1_555
O12 Rh8 1.990345 1_555
O12 Rh15 2.022494 1_565
O13 Rh9 2.008906 1_555
O13 Rh5 2.026235 1_555
O14 Rh5 1.918155 1_555
O15 Rh8 1.997611 1_555
O15 Rh4 2.007944 1_555
O16 Rh9 2.005897 1_555
O16 Rh4 2.008214 1_555
O17 Rh1 2.004454 1_555
O17 Rh12 2.027706 1_555
O18 Rh13 1.995344 1_455
O18 Rh11 2.021026 1_555
O19 Rh15 2.020447 1_565
O19 Rh14 2.074201 1_565
O20 Rh2 1.999353 1_555
O20 Rh4 2.081768 1_555
O21 Rh3 2.023656 1_455
O21 Rh5 2.060389 1_555
O22 Rh6 2.005309 1_554
O22 Rh11 2.084446 1_555
O23 Rh10 2.004931 1_555
O23 Rh0 2.097471 1_654
O24 Rh7 2.005539 1_554
O24 Rh12 2.087743 1_555
O25 Rh6 2.024280 1_554
O25 Rh11 2.051760 1_555
O26 Rh7 2.024820 1_554
O26 Rh12 2.053958 1_555
O27 Rh6 2.033799 1_555
O27 Rh9 2.035346 1_555
O28 Rh7 2.029786 1_555
O28 Rh8 2.045754 1_555
O29 Rh8 2.039055 1_555
O29 Rh7 2.042739 1_555
O30 Rh9 2.039312 1_555
O30 Rh6 2.039675 1_555
O31 Rh0 1.901731 1_545
O32 Rh2 2.018098 1_545
O32 Rh1 2.058614 1_545
O33 Rh3 2.018099 1_555
O33 Rh13 2.044602 1_555
O34 Rh14 1.903808 1_555
O35 Rh15 1.997686 1_555
O35 Rh9 2.022063 1_555
O36 Rh5 1.992060 1_655
O36 Rh8 2.040427 1_555
O37 Rh12 1.995219 1_555
O37 Rh13 2.039367 1_555
O38 Rh10 1.999940 1_555
O38 Rh13 2.004478 1_555
O39 Rh11 1.912968 1_555
O40 Rh11 1.998818 1_555
O40 Rh1 2.031487 1_545
O41 Rh12 1.917087 1_555
O42 Rh15 1.996282 1_555
O42 Rh14 2.112099 1_555
O43 Rh15 2.061927 1_555
O43 Rh14 2.080453 1_555
O44 Rh5 2.011543 1_655
O44 Rh3 2.037873 1_555
O45 Rh12 2.017849 1_555
O45 Rh7 2.051685 1_554
O46 Rh11 2.022690 1_555
O46 Rh6 2.050223 1_554
O47 Rh0 1.892248 1_645
O48 Rh13 2.007877 1_555
O48 Rh3 2.050565 1_555
O49 Rh14 1.905720 1_555
O50 Rh14 1.895548 1_555
O51 Rh15 1.923964 1_555
O52 Rh10 1.931437 1_545
O53 Rh10 2.004936 1_545
O53 Rh0 2.099606 1_644
