# generated using pymatgen
data_LiCo2OF5
_symmetry_space_group_name_H-M   'P 1'
_cell_length_a   4.49947900
_cell_length_b   8.51243040
_cell_length_c   8.62437360
_cell_angle_alpha   60.48074998
_cell_angle_beta   88.93696365
_cell_angle_gamma   88.02623600
_symmetry_Int_Tables_number   1
_chemical_formula_structural   LiCo2OF5
_chemical_formula_sum   'Li3 Co6 O3 F15'
_cell_volume   287.27583375
_cell_formula_units_Z   3
loop_
 _symmetry_equiv_pos_site_id
 _symmetry_equiv_pos_as_xyz
  1  'x, y, z'
loop_
 _atom_site_type_symbol
 _atom_site_label
 _atom_site_symmetry_multiplicity
 _atom_site_fract_x
 _atom_site_fract_y
 _atom_site_fract_z
 _atom_site_occupancy
  Li  Li0  1  0.49435100  0.33382100  0.33615200  1
  Li  Li1  1  0.00787400  0.99896700  0.00280100  1
  Li  Li2  1  0.48983400  0.66426900  0.66821900  1
  Co  Co0  1  0.98811700  0.35174500  0.00735900  1
  Co  Co1  1  0.51408600  0.67151700  0.00387500  1
  Co  Co2  1  0.98659900  0.65793300  0.35293000  1
  Co  Co3  1  0.51286900  0.98952100  0.32562400  1
  Co  Co4  1  0.51320300  0.30700400  0.68764600  1
  Co  Co5  1  0.98592400  0.00478000  0.65878100  1
  O  O0  1  0.74367600  0.46289500  0.09405700  1
  O  O1  1  0.73723700  0.78059500  0.42739900  1
  O  O2  1  0.76538500  0.11280000  0.76162000  1
  F  F0  1  0.76409600  0.11976900  0.10754800  1
  F  F1  1  0.27263100  0.21757300  0.21878400  1
  F  F2  1  0.74443100  0.10826300  0.43490200  1
  F  F3  1  0.76573800  0.77686500  0.11231500  1
  F  F4  1  0.25259900  0.56716600  0.22676100  1
  F  F5  1  0.26168600  0.21620000  0.55975200  1
  F  F6  1  0.23821100  0.88332200  0.22643900  1
  F  F7  1  0.74274900  0.43934300  0.45131700  1
  F  F8  1  0.26365200  0.53578900  0.56456800  1
  F  F9  1  0.24378600  0.89905100  0.54786400  1
  F  F10  1  0.23058200  0.23183300  0.89391900  1
  F  F11  1  0.73792100  0.43886500  0.78180500  1
  F  F12  1  0.73565100  0.78476700  0.77022600  1
  F  F13  1  0.25714900  0.56283300  0.89157500  1
  F  F14  1  0.24996300  0.88251400  0.88565800  1
loop_
_geom_bond_atom_site_label_1
_geom_bond_atom_site_label_2
_geom_bond_distance
_geom_bond_site_symmetry_2
Li0 O0 2.135995 1_555
Li1 O2 2.116870 1_464
Li2 O1 2.120569 1_555
Co0 O0 1.805251 1_555
Co0 F13 2.006994 1_654
Co0 F10 2.014217 1_654
Co0 F0 2.021233 1_555
Co0 F1 2.049821 1_655
Co0 F11 2.050241 1_554
Co1 O0 1.835259 1_555
Co1 F14 1.941950 1_554
Co1 F3 1.973994 1_555
Co1 F12 2.015222 1_554
Co1 F13 2.031918 1_554
Co1 F4 2.042995 1_555
Co2 O1 1.820718 1_555
Co2 F4 1.982411 1_655
Co2 F7 1.984030 1_555
Co2 F8 2.022767 1_655
Co2 F6 2.047951 1_655
Co2 F3 2.062937 1_555
Co3 O1 1.823035 1_555
Co3 F1 1.978826 1_565
Co3 F6 1.988573 1_555
Co3 F0 1.999229 1_565
Co3 F2 2.010769 1_565
Co3 F9 2.063051 1_555
Co4 O2 1.812669 1_555
Co4 F11 1.987103 1_555
Co4 F8 2.009181 1_555
Co4 F5 2.010364 1_555
Co4 F10 2.010385 1_555
Co4 F7 2.056561 1_555
Co5 O2 1.823448 1_555
Co5 F9 1.951035 1_645
Co5 F2 2.005132 1_555
Co5 F12 2.007663 1_545
Co5 F5 2.026751 1_655
Co5 F14 2.077861 1_645
F0 Li1 1.969169 1_645
F1 Li0 2.022770 1_555
F2 Li0 1.988310 1_555
F3 Li1 1.999389 1_655
F4 Li0 2.015285 1_555
F5 Li0 1.977829 1_555
F6 Li1 1.973852 1_555
F7 Li0 2.007991 1_555
F8 Li2 2.026030 1_555
F9 Li2 2.035507 1_555
F10 Li1 2.020616 1_546
F11 Li2 1.981926 1_555
F12 Li2 2.013184 1_555
F13 Li2 1.975026 1_555
F14 Li1 2.015330 1_556
