# generated using pymatgen
data_La(HO)3
_symmetry_space_group_name_H-M   'P 1'
_cell_length_a   11.30189600
_cell_length_b   5.47594300
_cell_length_c   6.88333162
_cell_angle_alpha   84.08654481
_cell_angle_beta   90.00000000
_cell_angle_gamma   90.00000000
_symmetry_Int_Tables_number   1
_chemical_formula_structural   La(HO)3
_chemical_formula_sum   'La4 H12 O12'
_cell_volume   423.73244076
_cell_formula_units_Z   4
loop_
 _symmetry_equiv_pos_site_id
 _symmetry_equiv_pos_as_xyz
  1  'x, y, z'
loop_
 _atom_site_type_symbol
 _atom_site_label
 _atom_site_symmetry_multiplicity
 _atom_site_fract_x
 _atom_site_fract_y
 _atom_site_fract_z
 _atom_site_occupancy
  La  La0  1  0.67034100  0.98938600  0.95873900  1
  La  La1  1  0.17034100  0.01061400  0.54126100  1
  La  La2  1  0.82965900  0.98938600  0.45873900  1
  La  La3  1  0.32965900  0.01061400  0.04126100  1
  H  H0  1  0.19461700  0.41302200  0.81518400  1
  H  H1  1  0.97457100  0.76160900  0.79240000  1
  H  H2  1  0.38092100  0.68867200  0.72965300  1
  H  H3  1  0.88092100  0.31132800  0.77034700  1
  H  H4  1  0.47457100  0.23839100  0.70760000  1
  H  H5  1  0.69461700  0.58697800  0.68481600  1
  H  H6  1  0.30538300  0.41302200  0.31518400  1
  H  H7  1  0.52542900  0.76160900  0.29240000  1
  H  H8  1  0.11907900  0.68867200  0.22965300  1
  H  H9  1  0.61907900  0.31132800  0.27034700  1
  H  H10  1  0.02542900  0.23839100  0.20760000  1
  H  H11  1  0.80538300  0.58697800  0.18481600  1
  O  O0  1  0.49265400  0.20443100  0.84561500  1
  O  O1  1  0.18714700  0.23412400  0.82663800  1
  O  O2  1  0.80720400  0.22782300  0.74509600  1
  O  O3  1  0.30720400  0.77217700  0.75490400  1
  O  O4  1  0.68714700  0.76587600  0.67336200  1
  O  O5  1  0.99265400  0.79556900  0.65438500  1
  O  O6  1  0.00734600  0.20443100  0.34561500  1
  O  O7  1  0.31285300  0.23412400  0.32663800  1
  O  O8  1  0.69279600  0.22782300  0.24509600  1
  O  O9  1  0.19279600  0.77217700  0.25490400  1
  O  O10  1  0.81285300  0.76587600  0.17336200  1
  O  O11  1  0.50734600  0.79556900  0.15438500  1
loop_
_geom_bond_atom_site_label_1
_geom_bond_atom_site_label_2
_geom_bond_distance
_geom_bond_site_symmetry_2
La0 O0 2.415975 1_565
La0 O2 2.421642 1_565
La0 O4 2.426545 1_555
La0 O10 2.429428 1_556
La0 O11 2.457444 1_556
La0 O8 2.486898 1_566
La1 O5 2.415975 1_445
La1 O3 2.421642 1_545
La1 O1 2.426545 1_555
La1 O7 2.429428 1_555
La1 O6 2.457444 1_555
La1 O9 2.486898 1_545
La2 O6 2.415975 1_665
La2 O8 2.421642 1_565
La2 O10 2.426545 1_555
La2 O4 2.429428 1_555
La2 O5 2.457444 1_555
La2 O2 2.486898 1_565
La3 O11 2.415975 1_545
La3 O9 2.421642 1_545
La3 O7 2.426545 1_555
La3 O1 2.429428 1_554
La3 O0 2.457444 1_554
La3 O3 2.486898 1_544
H0 O1 0.978322 1_555
H1 O5 0.970801 1_555
H2 O3 0.974580 1_555
H3 O2 0.974580 1_555
H4 O0 0.970801 1_555
H5 O4 0.978322 1_555
H6 O7 0.978322 1_555
H7 O11 0.970801 1_555
H8 O9 0.974580 1_555
H9 O8 0.974580 1_555
H10 O6 0.970801 1_555
H11 O10 0.978322 1_555
