# generated using pymatgen
data_KSrAs(H4O3)4
_symmetry_space_group_name_H-M   'P 1'
_cell_length_a   12.87174476
_cell_length_b   12.87174476
_cell_length_c   12.87174476
_cell_angle_alpha   147.55917269
_cell_angle_beta   147.55917269
_cell_angle_gamma   46.53654315
_symmetry_Int_Tables_number   1
_chemical_formula_structural   KSrAs(H4O3)4
_chemical_formula_sum   'K2 Sr2 As2 H32 O24'
_cell_volume   611.46942927
_cell_formula_units_Z   2
loop_
 _symmetry_equiv_pos_site_id
 _symmetry_equiv_pos_as_xyz
  1  'x, y, z'
loop_
 _atom_site_type_symbol
 _atom_site_label
 _atom_site_symmetry_multiplicity
 _atom_site_fract_x
 _atom_site_fract_y
 _atom_site_fract_z
 _atom_site_occupancy
  K  K0  1  0.33978500  0.83978500  0.50000000  1
  K  K1  1  0.58978500  0.58978500  0.00000000  1
  Sr  Sr0  1  0.50052100  0.00052100  0.50000000  1
  Sr  Sr1  1  0.75052100  0.75052100  0.00000000  1
  As  As0  1  0.92244800  0.42244800  0.50000000  1
  As  As1  1  0.17244800  0.17244800  0.00000000  1
  H  H0  1  0.30660300  0.27344600  0.74817300  1
  H  H1  1  0.52527200  0.55843000  0.25182700  1
  H  H2  1  0.30843000  0.77527200  0.75182700  1
  H  H3  1  0.02344600  0.55660300  0.24817300  1
  H  H4  1  0.30660300  0.55843000  0.03315700  1
  H  H5  1  0.52527200  0.27344600  0.96684300  1
  H  H6  1  0.30843000  0.55660300  0.53315700  1
  H  H7  1  0.02344600  0.77527200  0.46684300  1
  H  H8  1  0.08035900  0.04464400  0.25595500  1
  H  H9  1  0.78868900  0.82440400  0.74404500  1
  H  H10  1  0.57440400  0.03868900  0.24404500  1
  H  H11  1  0.79464400  0.33035900  0.75595500  1
  H  H12  1  0.08035900  0.82440400  0.03571500  1
  H  H13  1  0.78868900  0.04464400  0.96428500  1
  H  H14  1  0.57440400  0.33035900  0.53571500  1
  H  H15  1  0.79464400  0.03868900  0.46428500  1
  H  H16  1  0.18774500  0.29159000  0.44837400  1
  H  H17  1  0.84321600  0.73937000  0.55162600  1
  H  H18  1  0.48937000  0.09321600  0.05162600  1
  H  H19  1  0.04159000  0.43774500  0.94837400  1
  H  H20  1  0.18774500  0.73937000  0.89615400  1
  H  H21  1  0.84321600  0.29159000  0.10384600  1
  H  H22  1  0.48937000  0.43774500  0.39615400  1
  H  H23  1  0.04159000  0.09321600  0.60384600  1
  H  H24  1  0.25500700  0.29446400  0.39168100  1
  H  H25  1  0.90278300  0.86332500  0.60831900  1
  H  H26  1  0.61332500  0.15278300  0.10831900  1
  H  H27  1  0.04446400  0.50500700  0.89168100  1
  H  H28  1  0.25500700  0.86332500  0.96054200  1
  H  H29  1  0.90278300  0.29446400  0.03945800  1
  H  H30  1  0.61332500  0.50500700  0.46054200  1
  H  H31  1  0.04446400  0.15278300  0.53945800  1
  O  O0  1  0.68119600  0.38265800  0.29853900  1
  O  O1  1  0.08411900  0.38265800  0.70146100  1
  O  O2  1  0.13265800  0.33411900  0.20146100  1
  O  O3  1  0.13265800  0.93119600  0.79853900  1
  O  O4  1  0.96256000  0.66444400  0.70188400  1
  O  O5  1  0.96256000  0.26067500  0.29811600  1
  O  O6  1  0.01067500  0.21256000  0.79811600  1
  O  O7  1  0.41444400  0.21256000  0.20188400  1
  O  O8  1  0.42867900  0.21443200  0.78575300  1
  O  O9  1  0.42867900  0.64292500  0.21424700  1
  O  O10  1  0.39292500  0.67867900  0.71424700  1
  O  O11  1  0.96443200  0.67867900  0.28575300  1
  O  O12  1  0.14860900  0.92553700  0.22307200  1
  O  O13  1  0.70246500  0.92553700  0.77692800  1
  O  O14  1  0.67553700  0.95246500  0.27692800  1
  O  O15  1  0.67553700  0.39860900  0.72307200  1
  O  O16  1  0.30575100  0.28618200  0.49955700  1
  O  O17  1  0.78662500  0.80619400  0.50044300  1
  O  O18  1  0.55619400  0.03662500  0.00044300  1
  O  O19  1  0.03618200  0.55575100  0.99955700  1
  O  O20  1  0.30575100  0.80619400  0.01956900  1
  O  O21  1  0.78662500  0.28618200  0.98043100  1
  O  O22  1  0.55619400  0.55575100  0.51956900  1
  O  O23  1  0.03618200  0.03662500  0.48043100  1
loop_
_geom_bond_atom_site_label_1
_geom_bond_atom_site_label_2
_geom_bond_distance
_geom_bond_site_symmetry_2
K0 O22 2.747410 1_555
K0 O23 2.747410 1_565
K0 O18 2.747410 1_566
K0 O19 2.747410 1_554
K0 O12 2.842261 1_555
K0 O13 2.842261 1_555
K0 O9 2.939745 1_555
K0 O8 2.939751 1_565
K1 O17 2.747410 1_555
K1 O16 2.747410 1_554
K1 O21 2.747410 1_554
K1 O20 2.747410 1_555
K1 O15 2.842261 1_554
K1 O14 2.842261 1_555
K1 O10 2.939745 1_554
K1 O11 2.939751 1_555
As0 O1 1.727505 1_655
As0 O0 1.727515 1_555
As0 O5 1.734207 1_555
As0 O4 1.734211 1_555
As1 O2 1.727505 1_555
As1 O3 1.727515 1_544
As1 O6 1.734207 1_554
As1 O7 1.734211 1_555
H0 O8 0.987521 1_555
H1 O9 0.987511 1_555
H2 O10 0.987511 1_555
H3 O11 0.987521 1_455
H4 O9 0.987518 1_555
H5 O8 0.987523 1_555
H6 O10 0.987518 1_555
H7 O11 0.987523 1_455
H8 O12 0.990313 1_545
H9 O13 0.990313 1_555
H10 O14 0.990313 1_545
H11 O15 0.990313 1_555
H12 O12 0.990313 1_555
H13 O13 0.990313 1_545
H14 O15 0.990313 1_555
H15 O14 0.990313 1_545
H16 O16 0.994452 1_555
H17 O17 0.994463 1_555
H18 O18 0.994463 1_555
H19 O19 0.994452 1_555
H20 O20 0.994453 1_556
H21 O21 0.994463 1_554
H22 O22 0.994453 1_555
H23 O23 0.994463 1_555
H24 O16 0.994627 1_555
H25 O17 0.994619 1_555
H26 O18 0.994619 1_555
H27 O19 0.994627 1_555
H28 O20 0.994626 1_556
H29 O21 0.994619 1_554
H30 O22 0.994626 1_555
H31 O23 0.994619 1_555
O8 Sr0 2.666299 1_555
O9 Sr0 2.666310 1_565
O10 Sr1 2.666310 1_556
O11 Sr1 2.666299 1_555
O12 Sr0 2.666533 1_565
O13 Sr0 2.666533 1_565
O14 Sr1 2.666533 1_555
O15 Sr1 2.666533 1_556
O16 Sr0 2.670991 1_555
O17 Sr0 2.670991 1_565
O18 Sr1 2.670991 1_545
O19 Sr1 2.670991 1_456
O20 Sr0 2.670991 1_565
O21 Sr0 2.670991 1_555
O22 Sr1 2.670991 1_556
O23 Sr1 2.670991 1_445
