# generated using pymatgen
data_Li4CrSb(WO6)2
_symmetry_space_group_name_H-M   'P 1'
_cell_length_a   5.17304100
_cell_length_b   5.43705650
_cell_length_c   7.50392223
_cell_angle_alpha   93.92054845
_cell_angle_beta   90.03582551
_cell_angle_gamma   90.04248928
_symmetry_Int_Tables_number   1
_chemical_formula_structural   Li4CrSb(WO6)2
_chemical_formula_sum   'Li4 Cr1 Sb1 W2 O12'
_cell_volume   210.56217314
_cell_formula_units_Z   1
loop_
 _symmetry_equiv_pos_site_id
 _symmetry_equiv_pos_as_xyz
  1  'x, y, z'
loop_
 _atom_site_type_symbol
 _atom_site_label
 _atom_site_symmetry_multiplicity
 _atom_site_fract_x
 _atom_site_fract_y
 _atom_site_fract_z
 _atom_site_occupancy
  Li  Li0  1  0.00285700  0.57950400  0.73360800  1
  Li  Li1  1  0.49643100  0.06316300  0.19365500  1
  Li  Li2  1  0.99641900  0.56761100  0.20109500  1
  Li  Li3  1  0.50400400  0.01835200  0.75635000  1
  Cr  Cr0  1  0.00094000  0.00204600  0.00116900  1
  Sb  Sb0  1  0.49918300  0.50189400  0.49760000  1
  W  W0  1  0.99738200  0.00484500  0.49991100  1
  W  W1  1  0.50193300  0.49914700  0.99817400  1
  O  O0  1  0.30590500  0.80762800  0.57289900  1
  O  O1  1  0.11674500  0.99274400  0.26110900  1
  O  O2  1  0.31652300  0.19260300  0.95208900  1
  O  O3  1  0.18620000  0.30692100  0.57011800  1
  O  O4  1  0.79483600  0.30534800  0.06187900  1
  O  O5  1  0.36918300  0.48959200  0.25131000  1
  O  O6  1  0.62680300  0.48798800  0.74814300  1
  O  O7  1  0.19824700  0.68470500  0.95067300  1
  O  O8  1  0.82083300  0.68217600  0.43861300  1
  O  O9  1  0.69481600  0.79316300  0.05943600  1
  O  O10  1  0.88706600  0.98436700  0.74249200  1
  O  O11  1  0.68369300  0.17860700  0.43847600  1
loop_
_geom_bond_atom_site_label_1
_geom_bond_atom_site_label_2
_geom_bond_distance
_geom_bond_site_symmetry_2
Li0 O7 1.967638 1_555
Li0 O6 2.012483 1_455
Li0 O3 2.087102 1_555
Li0 O10 2.278318 1_455
Li0 O0 2.377888 1_555
Li0 O8 2.503105 1_455
Li1 O9 2.005983 1_545
Li1 O1 2.070565 1_545
Li1 O11 2.132270 1_555
Li1 O2 2.195589 1_554
Li1 O4 2.295981 1_555
Li1 O5 2.421046 1_555
Li2 O4 2.001196 1_555
Li2 O5 2.015569 1_655
Li2 O8 2.059304 1_555
Li2 O7 2.278519 1_654
Li2 O9 2.290663 1_555
Li2 O1 2.405894 1_655
Li3 O2 1.951525 1_555
Li3 O10 1.992448 1_545
Li3 O0 2.009648 1_545
Cr0 O2 1.981069 1_554
Cr0 O4 1.991031 1_455
Cr0 O9 2.013671 1_445
Cr0 O7 2.018926 1_544
Cr0 O10 2.024119 1_444
Cr0 O1 2.044072 1_545
O0 Sb0 1.989193 1_555
O0 W0 2.019587 1_465
O1 W0 1.892620 1_465
O2 W1 1.932823 1_555
O3 W0 1.951349 1_455
O3 Sb0 2.029465 1_555
O4 W1 1.924829 1_554
O5 Sb0 1.963116 1_555
O5 W1 2.024230 1_554
O6 W1 1.981698 1_555
O6 Sb0 1.998531 1_555
O7 W1 1.914083 1_555
O8 Sb0 1.995782 1_555
O8 W0 2.002560 1_565
O9 W1 1.912838 1_554
O10 W0 1.918464 1_565
O11 W0 1.949159 1_555
O11 Sb0 2.023328 1_555
