# generated using pymatgen
data_Mn3Cr2Sb(PO4)6
_symmetry_space_group_name_H-M   'P 1'
_cell_length_a   8.58286552
_cell_length_b   8.58286552
_cell_length_c   8.58286515
_cell_angle_alpha   61.20349391
_cell_angle_beta   61.20349391
_cell_angle_gamma   61.20348986
_symmetry_Int_Tables_number   1
_chemical_formula_structural   Mn3Cr2Sb(PO4)6
_chemical_formula_sum   'Mn3 Cr2 Sb1 P6 O24'
_cell_volume   459.17934942
_cell_formula_units_Z   1
loop_
 _symmetry_equiv_pos_site_id
 _symmetry_equiv_pos_as_xyz
  1  'x, y, z'
loop_
 _atom_site_type_symbol
 _atom_site_label
 _atom_site_symmetry_multiplicity
 _atom_site_fract_x
 _atom_site_fract_y
 _atom_site_fract_z
 _atom_site_occupancy
  Mn  Mn0  1  0.85219300  0.85219300  0.85219300  1
  Mn  Mn1  1  0.64806500  0.64806500  0.64806500  1
  Mn  Mn2  1  0.35476400  0.35476400  0.35476400  1
  Cr  Cr0  1  0.99561700  0.99561700  0.99561700  1
  Cr  Cr1  1  0.50032800  0.50032800  0.50032800  1
  Sb  Sb0  1  0.14481600  0.14481600  0.14481600  1
  P  P0  1  0.25281700  0.55042300  0.94758300  1
  P  P1  1  0.74605700  0.45536100  0.05473000  1
  P  P2  1  0.45536100  0.05473000  0.74605700  1
  P  P3  1  0.05473000  0.74605700  0.45536100  1
  P  P4  1  0.94758300  0.25281700  0.55042300  1
  P  P5  1  0.55042300  0.94758300  0.25281700  1
  O  O0  1  0.90672900  0.68364400  0.47948000  1
  O  O1  1  0.68364400  0.47948000  0.90672900  1
  O  O2  1  0.93576300  0.09242000  0.74643200  1
  O  O3  1  0.47948000  0.90672900  0.68364400  1
  O  O4  1  0.99217600  0.17873500  0.39152700  1
  O  O5  1  0.74906600  0.40041600  0.55803100  1
  O  O6  1  0.74643200  0.93576300  0.09242000  1
  O  O7  1  0.55803100  0.74906600  0.40041600  1
  O  O8  1  0.82116700  0.60198900  0.01435000  1
  O  O9  1  0.40041600  0.55803100  0.74906600  1
  O  O10  1  0.91230000  0.24794200  0.06841300  1
  O  O11  1  0.60198900  0.01435000  0.82116700  1
  O  O12  1  0.39152700  0.99217600  0.17873500  1
  O  O13  1  0.09242000  0.74643200  0.93576300  1
  O  O14  1  0.59944000  0.43256900  0.25696900  1
  O  O15  1  0.17873500  0.39152700  0.99217600  1
  O  O16  1  0.43256900  0.25696900  0.59944000  1
  O  O17  1  0.24794200  0.06841300  0.91230000  1
  O  O18  1  0.25696900  0.59944000  0.43256900  1
  O  O19  1  0.01435000  0.82116700  0.60198900  1
  O  O20  1  0.50764200  0.10025100  0.31979100  1
  O  O21  1  0.06841300  0.91230000  0.24794200  1
  O  O22  1  0.31979100  0.50764200  0.10025100  1
  O  O23  1  0.10025100  0.31979100  0.50764200  1
loop_
_geom_bond_atom_site_label_1
_geom_bond_atom_site_label_2
_geom_bond_distance
_geom_bond_site_symmetry_2
Mn0 O11 1.983439 1_565
Mn0 O19 1.983439 1_655
Mn0 O8 1.983439 1_556
Mn0 O6 2.141035 1_556
Mn0 O13 2.141035 1_655
Mn0 O2 2.141036 1_565
Mn1 O3 2.061149 1_555
Mn1 O1 2.061149 1_555
Mn1 O0 2.061149 1_555
Mn1 O7 2.242413 1_555
Mn1 O5 2.242413 1_555
Mn1 O9 2.242414 1_555
Mn2 O20 2.018537 1_555
Mn2 O22 2.018537 1_555
Mn2 O23 2.018537 1_555
Mn2 O16 2.161814 1_555
Mn2 O18 2.161814 1_555
Mn2 O14 2.161814 1_555
Cr0 O2 2.112751 1_565
Cr0 O13 2.112751 1_655
Cr0 O6 2.112751 1_556
Cr0 O21 2.230029 1_656
Cr0 O10 2.230029 1_566
Cr0 O17 2.230029 1_665
Cr1 O9 2.093827 1_555
Cr1 O5 2.093827 1_555
Cr1 O7 2.093827 1_555
Cr1 O14 2.099162 1_555
Cr1 O18 2.099162 1_555
Cr1 O16 2.099162 1_555
O0 P3 1.496259 1_655
O1 P1 1.496259 1_556
O2 P4 1.573085 1_555
O3 P2 1.496259 1_565
O4 P4 1.583909 1_555
O4 Sb0 1.959265 1_655
O5 P4 1.550880 1_555
O6 P5 1.573085 1_555
O7 P5 1.550880 1_555
O8 P1 1.505208 1_555
O9 P0 1.550880 1_555
O10 P1 1.652817 1_555
O10 Sb0 2.048398 1_655
O11 P2 1.505208 1_555
O12 P5 1.583909 1_555
O12 Sb0 1.959265 1_565
O13 P0 1.573085 1_555
O14 P1 1.562196 1_555
O15 P0 1.583909 1_555
O15 Sb0 1.959265 1_556
O16 P2 1.562196 1_555
O17 P2 1.652817 1_555
O17 Sb0 2.048398 1_556
O18 P3 1.562196 1_555
O19 P3 1.505208 1_555
O20 P5 1.496996 1_545
O21 P3 1.652817 1_555
O21 Sb0 2.048398 1_565
O22 P0 1.496996 1_554
O23 P4 1.496996 1_455
