# generated using pymatgen
data_Fe6O7F5
_symmetry_space_group_name_H-M   'P 1'
_cell_length_a   4.80281300
_cell_length_b   5.67839495
_cell_length_c   7.75241591
_cell_angle_alpha   84.12065385
_cell_angle_beta   86.21750875
_cell_angle_gamma   84.81025927
_symmetry_Int_Tables_number   1
_chemical_formula_structural   Fe6O7F5
_chemical_formula_sum   'Fe6 O7 F5'
_cell_volume   209.10829129
_cell_formula_units_Z   1
loop_
 _symmetry_equiv_pos_site_id
 _symmetry_equiv_pos_as_xyz
  1  'x, y, z'
loop_
 _atom_site_type_symbol
 _atom_site_label
 _atom_site_symmetry_multiplicity
 _atom_site_fract_x
 _atom_site_fract_y
 _atom_site_fract_z
 _atom_site_occupancy
  Fe  Fe0  1  0.49763100  0.83262800  0.66613600  1
  Fe  Fe1  1  0.53695400  0.52373900  0.01250300  1
  Fe  Fe2  1  0.49609600  0.16434800  0.33086100  1
  Fe  Fe3  1  0.00296900  0.33535400  0.66950900  1
  Fe  Fe4  1  0.98660800  0.66227900  0.32200000  1
  Fe  Fe5  1  0.98864000  0.98743200  0.00120000  1
  O  O0  1  0.81432200  0.71088600  0.10360100  1
  O  O1  1  0.69971500  0.20507000  0.10280200  1
  O  O2  1  0.69896600  0.53904600  0.76511900  1
  O  O3  1  0.69247100  0.86614600  0.43732600  1
  O  O4  1  0.30174500  0.13039700  0.56688700  1
  O  O5  1  0.30728600  0.46437100  0.23471500  1
  O  O6  1  0.30543300  0.79878900  0.89467600  1
  F  F0  1  0.80937500  0.36672100  0.43849900  1
  F  F1  1  0.80308400  0.04088900  0.76683700  1
  F  F2  1  0.19448900  0.96289600  0.23226800  1
  F  F3  1  0.18627000  0.62582000  0.55880400  1
  F  F4  1  0.17794600  0.28319200  0.89625700  1
loop_
_geom_bond_atom_site_label_1
_geom_bond_atom_site_label_2
_geom_bond_distance
_geom_bond_site_symmetry_2
Fe0 O6 1.942842 1_555
Fe0 O3 1.949983 1_555
Fe0 O2 1.961431 1_555
Fe0 O4 1.969083 1_565
Fe1 O1 1.983003 1_555
Fe1 O0 1.984108 1_555
Fe1 O5 1.998896 1_555
Fe1 O6 2.009408 1_554
Fe1 O2 2.017984 1_554
Fe2 O5 1.957001 1_555
Fe2 O1 1.965891 1_555
Fe2 O3 1.991360 1_545
Fe2 O4 1.997866 1_555
Fe3 O2 1.935550 1_455
Fe3 O4 1.945119 1_555
Fe4 O0 1.917110 1_555
Fe4 O5 1.948860 1_655
Fe4 O3 1.970959 1_555
Fe5 O0 1.921421 1_555
Fe5 O1 1.954034 1_565
Fe5 O6 1.965955 1_654
F0 Fe4 2.050221 1_555
F0 Fe3 2.056187 1_655
F0 Fe2 2.226130 1_555
F1 Fe3 2.055036 1_655
F1 Fe5 2.058912 1_546
F1 Fe0 2.194142 1_545
F2 Fe5 2.088862 1_455
F2 Fe4 2.089996 1_455
F2 Fe2 2.148506 1_565
F3 Fe3 2.026093 1_555
F3 Fe4 2.109760 1_455
F3 Fe0 2.233770 1_555
F4 Fe3 1.981716 1_555
F4 Fe5 2.051288 1_446
F4 Fe1 2.556204 1_556
