# generated using pymatgen
data_Gd2V2O7
_symmetry_space_group_name_H-M   'P 1'
_cell_length_a   7.20420895
_cell_length_b   7.20420895
_cell_length_c   7.20420895
_cell_angle_alpha   60.00000000
_cell_angle_beta   60.00000000
_cell_angle_gamma   60.00000000
_symmetry_Int_Tables_number   1
_chemical_formula_structural   Gd2V2O7
_chemical_formula_sum   'Gd4 V4 O14'
_cell_volume   264.38931730
_cell_formula_units_Z   2
loop_
 _symmetry_equiv_pos_site_id
 _symmetry_equiv_pos_as_xyz
  1  'x, y, z'
loop_
 _atom_site_type_symbol
 _atom_site_label
 _atom_site_symmetry_multiplicity
 _atom_site_fract_x
 _atom_site_fract_y
 _atom_site_fract_z
 _atom_site_occupancy
  Gd  Gd0  1  0.62500000  0.62500000  0.12500000  1
  Gd  Gd1  1  0.62500000  0.12500000  0.62500000  1
  Gd  Gd2  1  0.12500000  0.62500000  0.62500000  1
  Gd  Gd3  1  0.62500000  0.62500000  0.62500000  1
  V  V0  1  0.12500000  0.12500000  0.12500000  1
  V  V1  1  0.62500000  0.12500000  0.12500000  1
  V  V2  1  0.12500000  0.62500000  0.12500000  1
  V  V3  1  0.12500000  0.12500000  0.62500000  1
  O  O0  1  0.79571300  0.20428700  0.20428700  1
  O  O1  1  0.04571300  0.45428700  0.45428700  1
  O  O2  1  0.20428700  0.79571300  0.20428700  1
  O  O3  1  0.20428700  0.20428700  0.79571300  1
  O  O4  1  0.79571300  0.20428700  0.79571300  1
  O  O5  1  0.79571300  0.79571300  0.20428700  1
  O  O6  1  0.50000000  0.50000000  0.50000000  1
  O  O7  1  0.04571300  0.04571300  0.45428700  1
  O  O8  1  0.45428700  0.04571300  0.45428700  1
  O  O9  1  0.45428700  0.45428700  0.04571300  1
  O  O10  1  0.04571300  0.45428700  0.04571300  1
  O  O11  1  0.75000000  0.75000000  0.75000000  1
  O  O12  1  0.20428700  0.79571300  0.79571300  1
  O  O13  1  0.45428700  0.04571300  0.04571300  1
loop_
_geom_bond_atom_site_label_1
_geom_bond_atom_site_label_2
_geom_bond_distance
_geom_bond_site_symmetry_2
Gd0 O6 2.205829 1_555
Gd0 O11 2.205829 1_554
Gd0 O10 2.503769 1_655
Gd0 O13 2.503769 1_565
Gd0 O2 2.503769 1_555
Gd0 O0 2.503769 1_555
Gd0 O5 2.503769 1_555
Gd0 O9 2.503769 1_555
Gd1 O11 2.205829 1_545
Gd1 O6 2.205829 1_555
Gd1 O13 2.503769 1_556
Gd1 O7 2.503769 1_655
Gd1 O3 2.503769 1_555
Gd1 O4 2.503769 1_555
Gd1 O8 2.503769 1_555
Gd1 O0 2.503769 1_555
Gd2 O6 2.205829 1_555
Gd2 O11 2.205829 1_455
Gd2 O10 2.503769 1_556
Gd2 O7 2.503769 1_565
Gd2 O3 2.503769 1_555
Gd2 O1 2.503769 1_555
Gd2 O2 2.503769 1_555
Gd2 O12 2.503769 1_555
Gd3 O11 2.205829 1_555
Gd3 O6 2.205829 1_555
Gd3 O1 2.503769 1_655
Gd3 O9 2.503769 1_556
Gd3 O8 2.503769 1_565
Gd3 O12 2.503769 1_555
Gd3 O4 2.503769 1_555
Gd3 O5 2.503769 1_555
O0 V1 1.973912 1_555
O0 V0 1.973912 1_655
O1 V2 1.973912 1_555
O1 V3 1.973912 1_555
O2 V2 1.973912 1_555
O2 V0 1.973912 1_565
O3 V0 1.973912 1_556
O3 V3 1.973912 1_555
O4 V3 1.973912 1_655
O4 V1 1.973912 1_556
O5 V2 1.973912 1_655
O5 V1 1.973912 1_565
O7 V0 1.973912 1_555
O7 V3 1.973912 1_555
O8 V1 1.973912 1_555
O8 V3 1.973912 1_555
O9 V2 1.973912 1_555
O9 V1 1.973912 1_555
O10 V2 1.973912 1_555
O10 V0 1.973912 1_555
O12 V2 1.973912 1_556
O12 V3 1.973912 1_565
O13 V0 1.973912 1_555
O13 V1 1.973912 1_555
