# generated using pymatgen
data_Sr(BRh)2
_symmetry_space_group_name_H-M   'P 1'
_cell_length_a   5.58794574
_cell_length_b   5.58794675
_cell_length_c   6.12083032
_cell_angle_alpha   105.44413448
_cell_angle_beta   105.44414239
_cell_angle_gamma   114.62087596
_symmetry_Int_Tables_number   1
_chemical_formula_structural   Sr(BRh)2
_chemical_formula_sum   'Sr2 B4 Rh4'
_cell_volume   151.15902459
_cell_formula_units_Z   2
loop_
 _symmetry_equiv_pos_site_id
 _symmetry_equiv_pos_as_xyz
  1  'x, y, z'
loop_
 _atom_site_type_symbol
 _atom_site_label
 _atom_site_symmetry_multiplicity
 _atom_site_fract_x
 _atom_site_fract_y
 _atom_site_fract_z
 _atom_site_occupancy
  Sr  Sr0  1  0.87500000  0.12500000  0.25000000  1
  Sr  Sr1  1  0.12500000  0.87500000  0.75000000  1
  B  B0  1  0.54668920  0.45331180  0.25000000  1
  B  B1  1  0.79668920  0.20331080  0.75000000  1
  B  B2  1  0.20331080  0.79668920  0.25000000  1
  B  B3  1  0.45331180  0.54668920  0.75000000  1
  Rh  Rh0  1  0.50567479  0.75567479  0.51134859  1
  Rh  Rh1  1  0.75567479  0.50567479  0.01134859  1
  Rh  Rh2  1  0.49432521  0.24432521  0.48865141  1
  Rh  Rh3  1  0.24432521  0.49432521  0.98865141  1
loop_
_geom_bond_atom_site_label_1
_geom_bond_atom_site_label_2
_geom_bond_distance
_geom_bond_site_symmetry_2
B0 Rh1 2.105852 1_555
B0 Rh2 2.105856 1_555
B0 Rh3 2.131806 1_554
B0 Rh0 2.131806 1_555
B0 Sr0 3.088009 1_555
B0 Sr1 3.147805 1_655
B0 Sr1 3.147809 1_544
B1 Rh3 2.105848 1_655
B1 Rh0 2.105849 1_545
B1 Rh2 2.131809 1_555
B1 Rh1 2.131809 1_556
B1 Sr1 3.088004 1_645
B1 Sr0 3.147805 1_556
B1 Sr0 3.147805 1_555
B2 Rh1 2.105848 1_455
B2 Rh2 2.105849 1_565
B2 Rh0 2.131809 1_555
B2 Rh3 2.131809 1_554
B2 Sr0 3.088004 1_465
B2 Sr1 3.147805 1_554
B2 Sr1 3.147805 1_555
B3 Rh0 2.105852 1_555
B3 Rh3 2.105856 1_555
B3 Rh1 2.131806 1_556
B3 Rh2 2.131806 1_555
B3 Sr1 3.088009 1_555
B3 Sr0 3.147806 1_566
B3 Sr0 3.147808 1_455
Rh0 Sr1 3.069413 1_655
Rh0 Sr1 3.069416 1_555
Rh0 Sr0 3.323401 1_565
Rh0 Sr0 3.323407 1_455
Rh1 Sr0 3.069414 1_565
Rh1 Sr0 3.069417 1_555
Rh1 Sr1 3.323401 1_654
Rh1 Sr1 3.323407 1_544
Rh2 Sr0 3.069413 1_455
Rh2 Sr0 3.069416 1_555
Rh2 Sr1 3.323401 1_545
Rh2 Sr1 3.323407 1_655
Rh3 Sr1 3.069414 1_545
Rh3 Sr1 3.069417 1_555
Rh3 Sr0 3.323401 1_456
Rh3 Sr0 3.323407 1_566
