# generated using pymatgen
data_Li3Sb3(PO4)4
_symmetry_space_group_name_H-M   'P 1'
_cell_length_a   9.65900863
_cell_length_b   9.11802960
_cell_length_c   10.65275035
_cell_angle_alpha   107.75551572
_cell_angle_beta   106.05869129
_cell_angle_gamma   111.24097526
_symmetry_Int_Tables_number   1
_chemical_formula_structural   Li3Sb3(PO4)4
_chemical_formula_sum   'Li6 Sb6 P8 O32'
_cell_volume   749.44676529
_cell_formula_units_Z   2
loop_
 _symmetry_equiv_pos_site_id
 _symmetry_equiv_pos_as_xyz
  1  'x, y, z'
loop_
 _atom_site_type_symbol
 _atom_site_label
 _atom_site_symmetry_multiplicity
 _atom_site_fract_x
 _atom_site_fract_y
 _atom_site_fract_z
 _atom_site_occupancy
  Li  Li0  1  0.43905200  0.02209400  0.76436000  1
  Li  Li1  1  0.43314500  0.47815300  0.85139600  1
  Li  Li2  1  0.34984100  0.30570600  0.29211000  1
  Li  Li3  1  0.65015900  0.69429400  0.70789000  1
  Li  Li4  1  0.56685500  0.52184700  0.14860400  1
  Li  Li5  1  0.56094800  0.97790600  0.23564000  1
  Sb  Sb0  1  0.03393800  0.79253100  0.55387600  1
  Sb  Sb1  1  0.11907800  0.87461400  0.15260900  1
  Sb  Sb2  1  0.07025300  0.48524600  0.25006900  1
  Sb  Sb3  1  0.92974700  0.51475400  0.74993200  1
  Sb  Sb4  1  0.88092200  0.12538600  0.84739100  1
  Sb  Sb5  1  0.96606200  0.20746900  0.44612400  1
  P  P0  1  0.28155200  0.56634200  0.58500800  1
  P  P1  1  0.17622700  0.98441100  0.92209600  1
  P  P2  1  0.26996400  0.59981200  0.05853500  1
  P  P3  1  0.25271800  0.07164000  0.49274400  1
  P  P4  1  0.74728200  0.92836000  0.50725600  1
  P  P5  1  0.73003600  0.40018800  0.94146500  1
  P  P6  1  0.82377300  0.01558900  0.07790400  1
  P  P7  1  0.71844800  0.43365800  0.41499200  1
  O  O0  1  0.04307500  0.78593400  0.88026000  1
  O  O1  1  0.10424500  0.50493000  0.91721400  1
  O  O2  1  0.11796400  0.86430300  0.41219900  1
  O  O3  1  0.11755400  0.45953600  0.60323900  1
  O  O4  1  0.28343500  0.73972400  0.59778700  1
  O  O5  1  0.07829400  0.06132000  0.84923200  1
  O  O6  1  0.24516400  0.44455700  0.42348300  1
  O  O7  1  0.32067400  0.79823100  0.13617900  1
  O  O8  1  0.16208100  0.17199700  0.54475800  1
  O  O9  1  0.23015000  0.50523900  0.15845200  1
  O  O10  1  0.43042600  0.58295900  0.69914200  1
  O  O11  1  0.31606700  0.99612000  0.88376000  1
  O  O12  1  0.40014300  0.11793500  0.62138300  1
  O  O13  1  0.71747500  0.90154900  0.63943400  1
  O  O14  1  0.22724700  0.07086700  0.09416700  1
  O  O15  1  0.59646800  0.43181800  0.97215800  1
  O  O16  1  0.40353200  0.56818200  0.02784200  1
  O  O17  1  0.77275300  0.92913300  0.90583300  1
  O  O18  1  0.28252500  0.09845100  0.36056600  1
  O  O19  1  0.59985700  0.88206500  0.37861700  1
  O  O20  1  0.68393300  0.00388000  0.11624000  1
  O  O21  1  0.56957400  0.41704100  0.30085800  1
  O  O22  1  0.76985000  0.49476100  0.84154800  1
  O  O23  1  0.83791900  0.82800300  0.45524200  1
  O  O24  1  0.67932600  0.20176900  0.86382100  1
  O  O25  1  0.75483600  0.55544300  0.57651700  1
  O  O26  1  0.92170600  0.93868000  0.15076800  1
  O  O27  1  0.71656500  0.26027600  0.40221300  1
  O  O28  1  0.88244600  0.54046400  0.39676100  1
  O  O29  1  0.88203600  0.13569700  0.58780100  1
  O  O30  1  0.89575500  0.49507000  0.08278600  1
  O  O31  1  0.95692500  0.21406600  0.11974000  1
loop_
_geom_bond_atom_site_label_1
_geom_bond_atom_site_label_2
_geom_bond_distance
_geom_bond_site_symmetry_2
Li0 O11 1.975058 1_545
Li0 O12 1.989427 1_555
Li0 O24 2.004660 1_555
Li0 O4 2.229508 1_545
Li1 O16 1.953254 1_556
Li1 O15 2.003426 1_555
Li1 O10 2.117663 1_555
Li2 O21 1.953339 1_555
Li2 O14 2.112130 1_555
Li2 O18 2.176757 1_555
Li2 O6 2.283288 1_555
Li3 O10 1.953339 1_555
Li3 O17 2.112130 1_555
Li3 O13 2.176757 1_555
Li3 O25 2.283288 1_555
Li4 O15 1.953254 1_554
Li4 O16 2.003426 1_555
Li4 O21 2.117663 1_555
Li5 O20 1.975058 1_565
Li5 O19 1.989427 1_555
Li5 O7 2.004660 1_555
Li5 O27 2.229508 1_565
O0 P1 1.622437 1_555
O0 Sb3 2.084207 1_455
O0 Sb1 2.563363 1_556
O1 P2 1.563997 1_556
O1 Sb3 2.137637 1_455
O2 P3 1.616849 1_565
O2 Sb0 2.063985 1_555
O3 P0 1.631913 1_555
O3 Sb5 2.021608 1_455
O4 P0 1.537742 1_555
O4 Sb0 2.571521 1_555
O5 P1 1.547731 1_545
O5 Sb4 2.183868 1_455
O6 P0 1.592047 1_555
O6 Sb2 2.355863 1_555
O7 P2 1.555088 1_555
O7 Sb1 2.324695 1_555
O8 P3 1.565369 1_555
O8 Sb5 2.084172 1_455
O9 P2 1.603244 1_555
O9 Sb2 2.027191 1_555
O10 P0 1.526929 1_555
O11 P1 1.493281 1_555
O12 P3 1.488577 1_555
O13 P4 1.583827 1_555
O13 Sb4 2.130323 1_565
O14 P1 1.600537 1_544
O14 Sb1 2.089486 1_545
O15 P5 1.516572 1_555
O16 P2 1.516572 1_555
O17 P6 1.600537 1_566
O17 Sb4 2.089486 1_565
O18 P3 1.583827 1_555
O18 Sb1 2.130323 1_545
O19 P4 1.488577 1_555
O20 P6 1.493281 1_555
O21 P7 1.526929 1_555
O22 P5 1.603244 1_555
O22 Sb3 2.027184 1_555
O23 P4 1.565369 1_555
O23 Sb0 2.084172 1_655
O24 P5 1.555088 1_555
O24 Sb4 2.324695 1_555
O25 P7 1.592047 1_555
O25 Sb3 2.355870 1_555
O26 P6 1.547731 1_565
O26 Sb1 2.183868 1_655
O27 P7 1.537742 1_555
O27 Sb5 2.571521 1_555
O28 P7 1.631913 1_555
O28 Sb0 2.021608 1_655
O29 P4 1.616849 1_545
O29 Sb5 2.063985 1_555
O30 P5 1.563997 1_554
O30 Sb2 2.137644 1_655
O31 P6 1.622437 1_555
O31 Sb2 2.084209 1_655
O31 Sb4 2.563363 1_554
