# generated using pymatgen
data_Na2LiCuPCO7
_symmetry_space_group_name_H-M   'P 1'
_cell_length_a   6.67556000
_cell_length_b   5.20636500
_cell_length_c   8.81355977
_cell_angle_alpha   87.25678888
_cell_angle_beta   90.00000000
_cell_angle_gamma   90.00000000
_symmetry_Int_Tables_number   1
_chemical_formula_structural   Na2LiCuPCO7
_chemical_formula_sum   'Na4 Li2 Cu2 P2 C2 O14'
_cell_volume   305.96779076
_cell_formula_units_Z   2
loop_
 _symmetry_equiv_pos_site_id
 _symmetry_equiv_pos_as_xyz
  1  'x, y, z'
loop_
 _atom_site_type_symbol
 _atom_site_label
 _atom_site_symmetry_multiplicity
 _atom_site_fract_x
 _atom_site_fract_y
 _atom_site_fract_z
 _atom_site_occupancy
  Na  Na0  1  0.00441900  0.73601000  0.73993600  1
  Na  Na1  1  0.49558100  0.73601000  0.73993600  1
  Na  Na2  1  0.50441900  0.26399000  0.26006400  1
  Na  Na3  1  0.99558100  0.26399000  0.26006400  1
  Li  Li0  1  0.75000000  0.16097100  0.87855100  1
  Li  Li1  1  0.25000000  0.83902900  0.12144900  1
  Cu  Cu0  1  0.25000000  0.22033200  0.64703500  1
  Cu  Cu1  1  0.75000000  0.77966800  0.35296500  1
  P  P0  1  0.75000000  0.30685000  0.58556600  1
  P  P1  1  0.25000000  0.69315000  0.41443400  1
  C  C0  1  0.25000000  0.26769400  0.94578700  1
  C  C1  1  0.75000000  0.73230600  0.05421300  1
  O  O0  1  0.75000000  0.78439500  0.90869800  1
  O  O1  1  0.25000000  0.06949100  0.85828300  1
  O  O2  1  0.25000000  0.49815300  0.88836300  1
  O  O3  1  0.93329900  0.23274500  0.68944600  1
  O  O4  1  0.56670100  0.23274500  0.68944600  1
  O  O5  1  0.25000000  0.82529000  0.56589900  1
  O  O6  1  0.75000000  0.60760300  0.55472900  1
  O  O7  1  0.25000000  0.39239700  0.44527100  1
  O  O8  1  0.75000000  0.17471000  0.43410100  1
  O  O9  1  0.43329900  0.76725500  0.31055400  1
  O  O10  1  0.06670100  0.76725500  0.31055400  1
  O  O11  1  0.75000000  0.50184700  0.11163700  1
  O  O12  1  0.75000000  0.93050900  0.14171700  1
  O  O13  1  0.25000000  0.21560500  0.09130200  1
loop_
_geom_bond_atom_site_label_1
_geom_bond_atom_site_label_2
_geom_bond_distance
_geom_bond_site_symmetry_2
Na0 O5 2.277767 1_555
Na0 O0 2.279515 1_455
Na0 O2 2.403624 1_555
Na0 O6 2.469905 1_455
Na0 O1 2.638824 1_565
Na0 O3 2.646056 1_465
Na0 O3 2.720364 1_455
Na1 O5 2.277767 1_555
Na1 O0 2.279515 1_555
Na1 O2 2.403624 1_555
Na1 O6 2.469905 1_555
Na1 O1 2.638824 1_565
Na1 O4 2.646056 1_565
Na1 O4 2.720364 1_555
Na2 O8 2.277767 1_555
Na2 O13 2.279515 1_555
Na2 O11 2.403624 1_555
Na2 O7 2.469905 1_555
Na2 O12 2.638824 1_545
Na2 O9 2.646056 1_545
Na2 O9 2.720364 1_555
Na3 O8 2.277767 1_555
Na3 O13 2.279515 1_655
Na3 O11 2.403624 1_555
Na3 O7 2.469905 1_655
Na3 O12 2.638824 1_545
Na3 O10 2.646056 1_645
Na3 O10 2.720364 1_655
Li0 O0 1.965873 1_545
Li0 O4 2.086894 1_555
Li0 O3 2.086894 1_555
Li0 O12 2.559893 1_546
Li1 O13 1.965873 1_565
Li1 O10 2.086894 1_555
Li1 O9 2.086894 1_555
Li1 O1 2.559893 1_564
Cu0 O7 1.952496 1_555
Cu0 O1 1.985765 1_555
Cu0 O3 2.148457 1_455
Cu0 O4 2.148457 1_555
Cu0 O5 2.209591 1_545
Cu1 O6 1.952496 1_555
Cu1 O12 1.985765 1_555
Cu1 O10 2.148457 1_655
Cu1 O9 2.148457 1_555
Cu1 O8 2.209591 1_565
C0 O2 1.279715 1_555
C0 O13 1.298104 1_556
C0 O1 1.317503 1_555
C1 O11 1.279715 1_555
C1 O0 1.298104 1_554
C1 O12 1.317503 1_555
O3 P0 1.565418 1_555
O4 P0 1.565418 1_555
O5 P1 1.530781 1_555
O6 P0 1.576374 1_555
O7 P1 1.576374 1_555
O8 P0 1.530781 1_555
O9 P1 1.565418 1_555
O10 P1 1.565418 1_555
