# generated using pymatgen
data_Fe5O3F7
_symmetry_space_group_name_H-M   'P 1'
_cell_length_a   4.78920600
_cell_length_b   4.80168171
_cell_length_c   15.44140041
_cell_angle_alpha   89.83813474
_cell_angle_beta   89.84317425
_cell_angle_gamma   88.49531340
_symmetry_Int_Tables_number   1
_chemical_formula_structural   Fe5O3F7
_chemical_formula_sum   'Fe10 O6 F14'
_cell_volume   354.96907465
_cell_formula_units_Z   2
loop_
 _symmetry_equiv_pos_site_id
 _symmetry_equiv_pos_as_xyz
  1  'x, y, z'
loop_
 _atom_site_type_symbol
 _atom_site_label
 _atom_site_symmetry_multiplicity
 _atom_site_fract_x
 _atom_site_fract_y
 _atom_site_fract_z
 _atom_site_occupancy
  Fe  Fe0  1  0.00000000  0.00000000  0.00000000  1
  Fe  Fe1  1  0.03242400  0.99255100  0.80648900  1
  Fe  Fe2  1  0.02116300  0.97792500  0.60004700  1
  Fe  Fe3  1  0.97883700  0.02207500  0.39995300  1
  Fe  Fe4  1  0.96757600  0.00744900  0.19351100  1
  Fe  Fe5  1  0.46253400  0.47927300  0.89622700  1
  Fe  Fe6  1  0.50000000  0.50000000  0.50000000  1
  Fe  Fe7  1  0.48132300  0.52869500  0.69935900  1
  Fe  Fe8  1  0.51867700  0.47130500  0.30064100  1
  Fe  Fe9  1  0.53746600  0.52072700  0.10377300  1
  O  O0  1  0.82345000  0.82671200  0.09741800  1
  O  O1  1  0.68067900  0.31762500  0.40303100  1
  O  O2  1  0.69893000  0.30770300  0.20429400  1
  O  O3  1  0.30107000  0.69229700  0.79570600  1
  O  O4  1  0.31932100  0.68237500  0.59696900  1
  O  O5  1  0.17655000  0.17328800  0.90258200  1
  F  F0  1  0.79797300  0.79764100  0.90056300  1
  F  F1  1  0.80704100  0.79982400  0.70336000  1
  F  F2  1  0.79996800  0.79893800  0.50027800  1
  F  F3  1  0.79727300  0.80566300  0.29783700  1
  F  F4  1  0.69858600  0.30407900  0.99828400  1
  F  F5  1  0.69984000  0.28829900  0.79208600  1
  F  F6  1  0.70481600  0.29593300  0.60136400  1
  F  F7  1  0.30141400  0.69592100  0.00171600  1
  F  F8  1  0.29518400  0.70406700  0.39863600  1
  F  F9  1  0.30016000  0.71170100  0.20791400  1
  F  F10  1  0.20003200  0.20106200  0.49972200  1
  F  F11  1  0.20272700  0.19433700  0.70216300  1
  F  F12  1  0.20202700  0.20235900  0.09943700  1
  F  F13  1  0.19295900  0.20017600  0.29664000  1
loop_
_geom_bond_atom_site_label_1
_geom_bond_atom_site_label_2
_geom_bond_distance
_geom_bond_site_symmetry_2
Fe0 O0 1.921723 1_445
Fe0 O5 1.921723 1_554
Fe1 O5 1.864304 1_565
Fe1 O3 1.914263 1_555
Fe2 O4 1.987161 1_555
Fe3 O1 1.987161 1_555
Fe4 O0 1.864304 1_545
Fe4 O2 1.914263 1_555
Fe5 O3 2.002393 1_555
Fe5 O5 2.036747 1_555
Fe6 O1 1.928253 1_555
Fe6 O4 1.928253 1_555
Fe7 O3 1.881396 1_555
Fe7 O4 1.901644 1_555
Fe8 O2 1.881396 1_555
Fe8 O1 1.901644 1_555
Fe9 O2 2.002393 1_555
Fe9 O0 2.036747 1_555
F0 Fe1 2.070116 1_655
F0 Fe0 2.074563 1_666
F0 Fe5 2.247744 1_555
F1 Fe7 2.059057 1_555
F1 Fe2 2.087416 1_655
F1 Fe1 2.151190 1_655
F2 Fe6 2.057332 1_555
F2 Fe2 2.073270 1_655
F2 Fe3 2.076837 1_565
F3 Fe4 2.055392 1_565
F3 Fe3 2.094394 1_565
F3 Fe8 2.114584 1_555
F4 Fe0 2.026242 1_656
F4 Fe9 2.071579 1_556
F4 Fe5 2.102732 1_555
F5 Fe7 2.100763 1_555
F5 Fe1 2.117671 1_645
F5 Fe5 2.159180 1_555
F6 Fe6 2.078805 1_555
F6 Fe2 2.122723 1_645
F6 Fe7 2.149971 1_555
F7 Fe0 2.026242 1_565
F7 Fe5 2.071579 1_554
F7 Fe9 2.102732 1_555
F8 Fe6 2.078805 1_555
F8 Fe3 2.122723 1_465
F8 Fe8 2.149971 1_555
F9 Fe8 2.100763 1_555
F9 Fe4 2.117671 1_465
F9 Fe9 2.159180 1_555
F10 Fe6 2.057332 1_555
F10 Fe3 2.073270 1_455
F10 Fe2 2.076837 1_545
F11 Fe1 2.055392 1_545
F11 Fe2 2.094394 1_545
F11 Fe7 2.114584 1_555
F12 Fe4 2.070116 1_455
F12 Fe0 2.074563 1_555
F12 Fe9 2.247744 1_555
F13 Fe8 2.059057 1_555
F13 Fe3 2.087416 1_455
F13 Fe4 2.151190 1_455
