# generated using pymatgen
data_Na3Li5Mn5O9
_symmetry_space_group_name_H-M   'P 1'
_cell_length_a   6.06863200
_cell_length_b   6.07494945
_cell_length_c   8.85260748
_cell_angle_alpha   96.17395306
_cell_angle_beta   97.51074434
_cell_angle_gamma   119.87953955
_symmetry_Int_Tables_number   1
_chemical_formula_structural   Na3Li5Mn5O9
_chemical_formula_sum   'Na3 Li5 Mn5 O9'
_cell_volume   274.83799445
_cell_formula_units_Z   1
loop_
 _symmetry_equiv_pos_site_id
 _symmetry_equiv_pos_as_xyz
  1  'x, y, z'
loop_
 _atom_site_type_symbol
 _atom_site_label
 _atom_site_symmetry_multiplicity
 _atom_site_fract_x
 _atom_site_fract_y
 _atom_site_fract_z
 _atom_site_occupancy
  Na  Na0  1  0.55109500  0.55147100  0.52622300  1
  Na  Na1  1  0.14544800  0.84269200  0.52885600  1
  Na  Na2  1  0.83561100  0.13040100  0.52894500  1
  Li  Li0  1  0.25272700  0.21648100  0.91216500  1
  Li  Li1  1  0.02160000  0.36446800  0.05196400  1
  Li  Li2  1  0.64614700  0.97511100  0.92538800  1
  Li  Li3  1  0.67518800  0.67048200  0.05299200  1
  Li  Li4  1  0.00460800  0.72326400  0.91128400  1
  Mn  Mn0  1  0.09735300  0.08652300  0.24890500  1
  Mn  Mn1  1  0.25398500  0.57140200  0.75111300  1
  Mn  Mn2  1  0.41310000  0.76753500  0.24161900  1
  Mn  Mn3  1  0.59766500  0.26209800  0.75015500  1
  Mn  Mn4  1  0.73238700  0.39475800  0.24371900  1
  O  O0  1  0.97119600  0.00201300  0.01135800  1
  O  O1  1  0.25034300  0.24066800  0.68551900  1
  O  O2  1  0.33574700  0.64494200  0.99855800  1
  O  O3  1  0.10289900  0.43985300  0.29624500  1
  O  O4  1  0.53308000  0.89635000  0.69165200  1
  O  O5  1  0.76622300  0.76575500  0.31016400  1
  O  O6  1  0.44924400  0.11389800  0.33697900  1
  O  O7  1  0.68759800  0.35404200  0.99859000  1
  O  O8  1  0.90643900  0.54880900  0.68665700  1
loop_
_geom_bond_atom_site_label_1
_geom_bond_atom_site_label_2
_geom_bond_distance
_geom_bond_site_symmetry_2
Na0 O8 2.430370 1_555
Na0 O4 2.481188 1_555
Na0 O5 2.559770 1_555
Na0 O1 2.587818 1_555
Na0 O6 2.718315 1_555
Na0 O3 2.901822 1_555
Na1 O1 2.385039 1_565
Na1 O8 2.393476 1_455
Na1 O4 2.442468 1_555
Na1 O5 2.613762 1_455
Na1 O6 2.718992 1_565
Na1 O3 2.905753 1_555
Na2 O1 2.431665 1_655
Na2 O4 2.449076 1_545
Na2 O8 2.566328 1_555
Na2 O5 2.601948 1_545
Na2 O6 2.661425 1_555
Li0 O0 1.951412 1_456
Li0 O1 2.026182 1_555
Li0 O7 2.320704 1_555
Li0 O2 2.403792 1_555
Li1 O2 1.983335 1_554
Li1 O7 1.987715 1_454
Li1 O0 2.049650 1_455
Li1 O3 2.100617 1_555
Li2 O0 1.938209 1_566
Li2 O4 2.017424 1_555
Li2 O2 2.196572 1_555
Li2 O7 2.200437 1_565
Li3 O7 1.971715 1_554
Li3 O2 1.976264 1_554
Li3 O0 2.036442 1_565
Li3 O5 2.211895 1_555
Li4 O0 1.939046 1_466
Li4 O8 2.010048 1_455
Li4 O2 2.342539 1_555
Li4 O7 2.406591 1_455
Mn0 O0 2.056019 1_455
Mn0 O6 2.092583 1_555
Mn0 O3 2.124831 1_555
Mn0 O5 2.177172 1_445
Mn1 O1 2.018905 1_555
Mn1 O4 2.041545 1_555
Mn1 O8 2.042783 1_455
Mn1 O2 2.128079 1_555
Mn2 O6 2.073121 1_565
Mn2 O2 2.108992 1_554
Mn2 O3 2.109892 1_555
Mn2 O5 2.155276 1_555
Mn3 O8 2.023621 1_555
Mn3 O1 2.045075 1_555
Mn3 O4 2.047051 1_545
Mn3 O7 2.136588 1_555
Mn4 O6 2.073174 1_555
Mn4 O3 2.105365 1_655
Mn4 O7 2.123078 1_554
Mn4 O5 2.165615 1_555
