# generated using pymatgen
data_La2P4O13
_symmetry_space_group_name_H-M   'P 1'
_cell_length_a   6.99991990
_cell_length_b   6.99991990
_cell_length_c   13.35144019
_cell_angle_alpha   76.44888372
_cell_angle_beta   76.44888372
_cell_angle_gamma   60.03626176
_symmetry_Int_Tables_number   1
_chemical_formula_structural   La2P4O13
_chemical_formula_sum   'La4 P8 O26'
_cell_volume   545.61893138
_cell_formula_units_Z   2
loop_
 _symmetry_equiv_pos_site_id
 _symmetry_equiv_pos_as_xyz
  1  'x, y, z'
loop_
 _atom_site_type_symbol
 _atom_site_label
 _atom_site_symmetry_multiplicity
 _atom_site_fract_x
 _atom_site_fract_y
 _atom_site_fract_z
 _atom_site_occupancy
  La  La0  1  0.68294172  0.69017903  0.44941092  1
  La  La1  1  0.30982097  0.31705828  0.05058908  1
  La  La2  1  0.69017903  0.68294172  0.94941092  1
  La  La3  1  0.31705828  0.30982097  0.55058908  1
  P  P0  1  0.84025593  0.14475128  0.36202583  1
  P  P1  1  0.14475128  0.84025593  0.86202583  1
  P  P2  1  0.22223749  0.24436601  0.34062064  1
  P  P3  1  0.75563399  0.77776251  0.15937936  1
  P  P4  1  0.24436601  0.22223749  0.84062064  1
  P  P5  1  0.77776251  0.75563399  0.65937936  1
  P  P6  1  0.85524872  0.15974407  0.13797417  1
  P  P7  1  0.15974407  0.85524872  0.63797417  1
  O  O0  1  0.68061465  0.32024662  0.43132562  1
  O  O1  1  0.86946006  0.91590808  0.39575811  1
  O  O2  1  0.32024662  0.68061465  0.93132562  1
  O  O3  1  0.87967971  0.91908748  0.15684397  1
  O  O4  1  0.07846372  0.43714830  0.40320503  1
  O  O5  1  0.41257225  0.07933687  0.40186713  1
  O  O6  1  0.29298079  0.30786812  0.22907369  1
  O  O7  1  0.91590808  0.86946006  0.89575811  1
  O  O8  1  0.91908748  0.87967971  0.65684397  1
  O  O9  1  0.69213188  0.70701921  0.27092631  1
  O  O10  1  0.92066313  0.58742775  0.09813287  1
  O  O11  1  0.56285170  0.92153628  0.09679497  1
  O  O12  1  0.43714830  0.07846372  0.90320503  1
  O  O13  1  0.07933687  0.41257225  0.90186713  1
  O  O14  1  0.30786812  0.29298079  0.72907369  1
  O  O15  1  0.08091252  0.12032029  0.34315603  1
  O  O16  1  0.08409192  0.13053994  0.10424189  1
  O  O17  1  0.70701921  0.69213188  0.77092631  1
  O  O18  1  0.58742775  0.92066313  0.59813287  1
  O  O19  1  0.92153628  0.56285170  0.59679497  1
  O  O20  1  0.75992961  0.24007039  0.25000000  1
  O  O21  1  0.12032029  0.08091252  0.84315603  1
  O  O22  1  0.67975338  0.31938535  0.06867438  1
  O  O23  1  0.13053994  0.08409192  0.60424189  1
  O  O24  1  0.24007039  0.75992961  0.75000000  1
  O  O25  1  0.31938535  0.67975338  0.56867438  1
loop_
_geom_bond_atom_site_label_1
_geom_bond_atom_site_label_2
_geom_bond_distance
_geom_bond_site_symmetry_2
La0 O9 2.345409 1_555
La0 O1 2.409656 1_555
La0 O4 2.448721 1_655
La0 O5 2.451150 1_565
La0 O19 2.585972 1_555
La0 O18 2.606614 1_555
La0 O0 2.664782 1_555
La0 O25 2.692446 1_555
La1 O6 2.345409 1_555
La1 O16 2.409656 1_555
La1 O11 2.448721 1_545
La1 O10 2.451150 1_455
La1 O12 2.585972 1_554
La1 O13 2.606614 1_554
La1 O22 2.664782 1_555
La1 O2 2.692446 1_554
La2 O17 2.345409 1_555
La2 O7 2.409656 1_555
La2 O12 2.448721 1_565
La2 O13 2.451150 1_655
La2 O11 2.585972 1_556
La2 O10 2.606614 1_556
La2 O2 2.664782 1_555
La2 O22 2.692446 1_556
La3 O14 2.345409 1_555
La3 O23 2.409656 1_555
La3 O19 2.448721 1_455
La3 O18 2.451150 1_545
La3 O4 2.585972 1_555
La3 O5 2.606614 1_555
La3 O25 2.664782 1_555
La3 O0 2.692446 1_555
O0 P0 1.513539 1_555
O1 P0 1.479395 1_565
O2 P1 1.513539 1_555
O3 P6 1.569729 1_565
O3 P3 1.600728 1_555
O4 P2 1.519812 1_555
O5 P2 1.519447 1_555
O6 P2 1.491607 1_555
O7 P1 1.479395 1_655
O8 P7 1.569729 1_655
O8 P5 1.600728 1_555
O9 P3 1.491607 1_555
O10 P3 1.519447 1_555
O11 P3 1.519812 1_555
O12 P4 1.519812 1_555
O13 P4 1.519447 1_555
O14 P4 1.491607 1_555
O15 P0 1.569729 1_455
O15 P2 1.600728 1_555
O16 P6 1.479395 1_455
O17 P5 1.491607 1_555
O18 P5 1.519447 1_555
O19 P5 1.519812 1_555
O20 P0 1.596924 1_555
O20 P6 1.596924 1_555
O21 P1 1.569729 1_545
O21 P4 1.600728 1_555
O22 P6 1.513539 1_555
O23 P7 1.479395 1_545
O24 P1 1.596924 1_555
O24 P7 1.596924 1_555
O25 P7 1.513539 1_555
