# generated using pymatgen
data_LiCo2(SO4)3
_symmetry_space_group_name_H-M   'P 1'
_cell_length_a   8.61020456
_cell_length_b   8.61020456
_cell_length_c   8.61020383
_cell_angle_alpha   59.93091036
_cell_angle_beta   59.93091036
_cell_angle_gamma   59.93091461
_symmetry_Int_Tables_number   1
_chemical_formula_structural   LiCo2(SO4)3
_chemical_formula_sum   'Li2 Co4 S6 O24'
_cell_volume   450.65507314
_cell_formula_units_Z   2
loop_
 _symmetry_equiv_pos_site_id
 _symmetry_equiv_pos_as_xyz
  1  'x, y, z'
loop_
 _atom_site_type_symbol
 _atom_site_label
 _atom_site_symmetry_multiplicity
 _atom_site_fract_x
 _atom_site_fract_y
 _atom_site_fract_z
 _atom_site_occupancy
  Li  Li0  1  0.50000000  0.50000000  0.50000000  1
  Li  Li1  1  0.00000000  0.00000000  0.00000000  1
  Co  Co0  1  0.85605900  0.85605900  0.85605900  1
  Co  Co1  1  0.64394100  0.64394100  0.64394100  1
  Co  Co2  1  0.14394100  0.14394100  0.14394100  1
  Co  Co3  1  0.35605900  0.35605900  0.35605900  1
  S  S0  1  0.25000000  0.54473000  0.95527000  1
  S  S1  1  0.45527000  0.04473000  0.75000000  1
  S  S2  1  0.04473000  0.75000000  0.45527000  1
  S  S3  1  0.95527000  0.25000000  0.54473000  1
  S  S4  1  0.54473000  0.95527000  0.25000000  1
  S  S5  1  0.75000000  0.45527000  0.04473000  1
  O  O0  1  0.40909200  0.56028600  0.76918200  1
  O  O1  1  0.23081800  0.59090800  0.43971400  1
  O  O2  1  0.39253300  0.99279800  0.19037700  1
  O  O3  1  0.50720200  0.10746700  0.30962300  1
  O  O4  1  0.09090800  0.73081800  0.93971400  1
  O  O5  1  0.26918200  0.06028600  0.90909200  1
  O  O6  1  0.43971400  0.23081800  0.59090800  1
  O  O7  1  0.69037700  0.49279800  0.89253300  1
  O  O8  1  0.00720200  0.80962300  0.60746700  1
  O  O9  1  0.80962300  0.60746700  0.00720200  1
  O  O10  1  0.89253300  0.69037700  0.49279800  1
  O  O11  1  0.06028600  0.90909200  0.26918200  1
  O  O12  1  0.93971400  0.09090800  0.73081800  1
  O  O13  1  0.19037700  0.39253300  0.99279800  1
  O  O14  1  0.10746700  0.30962300  0.50720200  1
  O  O15  1  0.30962300  0.50720200  0.10746700  1
  O  O16  1  0.99279800  0.19037700  0.39253300  1
  O  O17  1  0.56028600  0.76918200  0.40909200  1
  O  O18  1  0.73081800  0.93971400  0.09090800  1
  O  O19  1  0.90909200  0.26918200  0.06028600  1
  O  O20  1  0.60746700  0.00720200  0.80962300  1
  O  O21  1  0.49279800  0.89253300  0.69037700  1
  O  O22  1  0.76918200  0.40909200  0.56028600  1
  O  O23  1  0.59090800  0.43971400  0.23081800  1
loop_
_geom_bond_atom_site_label_1
_geom_bond_atom_site_label_2
_geom_bond_distance
_geom_bond_site_symmetry_2
Li0 O0 2.287879 1_555
Li0 O23 2.287879 1_555
Li0 O17 2.287879 1_555
Li0 O6 2.287879 1_555
Li0 O22 2.287879 1_555
Li0 O1 2.287879 1_555
Li1 O11 2.287879 1_545
Li1 O12 2.287879 1_454
Li1 O5 2.287879 1_554
Li1 O18 2.287879 1_445
Li1 O19 2.287879 1_455
Li1 O4 2.287879 1_544
Co0 O8 1.994925 1_655
Co0 O9 1.994925 1_556
Co0 O20 1.994925 1_565
Co0 O18 2.065584 1_556
Co0 O12 2.065584 1_565
Co0 O4 2.065584 1_655
Co1 O7 1.994925 1_555
Co1 O10 1.994925 1_555
Co1 O21 1.994925 1_555
Co1 O17 2.065584 1_555
Co1 O0 2.065584 1_555
Co1 O22 2.065584 1_555
Co2 O16 1.994925 1_455
Co2 O13 1.994925 1_554
Co2 O2 1.994925 1_545
Co2 O5 2.065584 1_554
Co2 O11 2.065584 1_545
Co2 O19 2.065584 1_455
Co3 O15 1.994925 1_555
Co3 O14 1.994925 1_555
Co3 O3 1.994925 1_555
Co3 O6 2.065584 1_555
Co3 O23 2.065584 1_555
Co3 O1 2.065584 1_555
O0 S0 1.493647 1_555
O1 S2 1.493647 1_555
O2 S4 1.472692 1_555
O3 S4 1.472692 1_545
O4 S0 1.493647 1_555
O5 S1 1.493647 1_555
O6 S1 1.493647 1_555
O7 S5 1.472692 1_556
O8 S2 1.472692 1_555
O9 S5 1.472692 1_555
O10 S2 1.472692 1_655
O11 S2 1.493647 1_555
O12 S3 1.493647 1_555
O13 S0 1.472692 1_555
O14 S3 1.472692 1_455
O15 S0 1.472692 1_554
O16 S3 1.472692 1_555
O17 S4 1.493647 1_555
O18 S4 1.493647 1_555
O19 S5 1.493647 1_555
O20 S1 1.472692 1_555
O21 S1 1.472692 1_565
O22 S3 1.493647 1_555
O23 S5 1.493647 1_555
