# generated using pymatgen
data_Li7Ti16O32
_symmetry_space_group_name_H-M   'P 1'
_cell_length_a   11.41018708
_cell_length_b   11.41018708
_cell_length_c   5.08587621
_cell_angle_alpha   89.92992770
_cell_angle_beta   89.92992770
_cell_angle_gamma   62.53664427
_symmetry_Int_Tables_number   1
_chemical_formula_structural   Li7Ti16O32
_chemical_formula_sum   'Li7 Ti16 O32'
_cell_volume   587.52218966
_cell_formula_units_Z   1
loop_
 _symmetry_equiv_pos_site_id
 _symmetry_equiv_pos_as_xyz
  1  'x, y, z'
loop_
 _atom_site_type_symbol
 _atom_site_label
 _atom_site_symmetry_multiplicity
 _atom_site_fract_x
 _atom_site_fract_y
 _atom_site_fract_z
 _atom_site_occupancy
  Li  Li0  1  0.32786100  0.32786100  0.57092800  1
  Li  Li1  1  0.92650700  0.66346700  0.43750600  1
  Li  Li2  1  0.66346700  0.92650700  0.43750600  1
  Li  Li3  1  0.17350800  0.92170400  0.06378700  1
  Li  Li4  1  0.67045300  0.42094200  0.06309300  1
  Li  Li5  1  0.92170400  0.17350800  0.06378700  1
  Li  Li6  1  0.42094200  0.67045300  0.06309300  1
  Ti  Ti0  1  0.74022300  0.74022300  0.97889700  1
  Ti  Ti1  1  0.48614400  0.99956400  0.97340400  1
  Ti  Ti2  1  0.24028600  0.24028600  0.99917700  1
  Ti  Ti3  1  0.99956400  0.48614400  0.97340400  1
  Ti  Ti4  1  0.24018700  0.74177000  0.52150700  1
  Ti  Ti5  1  0.74177000  0.24018700  0.52150700  1
  Ti  Ti6  1  0.49037100  0.49037100  0.53023300  1
  Ti  Ti7  1  0.99258300  0.99258300  0.51512300  1
  Ti  Ti8  1  0.50718500  0.75788100  0.48092300  1
  Ti  Ti9  1  0.25842700  0.00924500  0.49188400  1
  Ti  Ti10  1  0.00924500  0.25842700  0.49188400  1
  Ti  Ti11  1  0.75788100  0.50718500  0.48092300  1
  Ti  Ti12  1  0.00339500  0.76109300  0.01001300  1
  Ti  Ti13  1  0.51080800  0.24970500  0.03006000  1
  Ti  Ti14  1  0.24970500  0.51080800  0.03006000  1
  Ti  Ti15  1  0.76109300  0.00339500  0.01001300  1
  O  O0  1  0.67093400  0.91652000  0.80537000  1
  O  O1  1  0.17207100  0.41701800  0.80346900  1
  O  O2  1  0.41701800  0.17207100  0.80346900  1
  O  O3  1  0.91652000  0.67093400  0.80537000  1
  O  O4  1  0.17558400  0.67178200  0.80439800  1
  O  O5  1  0.92453900  0.92453900  0.79310800  1
  O  O6  1  0.41819300  0.41819300  0.78963400  1
  O  O7  1  0.67178200  0.17558400  0.80439800  1
  O  O8  1  0.42749300  0.92090500  0.69841300  1
  O  O9  1  0.17463600  0.17463600  0.70189800  1
  O  O10  1  0.67308000  0.67308000  0.70051500  1
  O  O11  1  0.92090500  0.42749300  0.69841300  1
  O  O12  1  0.42033800  0.66842300  0.69551800  1
  O  O13  1  0.17189900  0.91926700  0.69614200  1
  O  O14  1  0.91926700  0.17189900  0.69614200  1
  O  O15  1  0.66842300  0.42033800  0.69551800  1
  O  O16  1  0.82866300  0.33119300  0.29148100  1
  O  O17  1  0.33119300  0.82866300  0.29148100  1
  O  O18  1  0.08033400  0.08033400  0.29241100  1
  O  O19  1  0.58097400  0.58097400  0.28835700  1
  O  O20  1  0.08203800  0.83043300  0.28239100  1
  O  O21  1  0.83043300  0.08203800  0.28239100  1
  O  O22  1  0.57925100  0.33306500  0.28709400  1
  O  O23  1  0.33306500  0.57925100  0.28709400  1
  O  O24  1  0.32838200  0.07201000  0.19945800  1
  O  O25  1  0.83154800  0.58147500  0.20998300  1
  O  O26  1  0.07201000  0.32838200  0.19945800  1
  O  O27  1  0.58147500  0.83154800  0.20998300  1
  O  O28  1  0.83059700  0.83059700  0.21453900  1
  O  O29  1  0.33201700  0.33201700  0.20278500  1
  O  O30  1  0.07906600  0.58346300  0.20125200  1
  O  O31  1  0.58346300  0.07906600  0.20125200  1
loop_
_geom_bond_atom_site_label_1
_geom_bond_atom_site_label_2
_geom_bond_distance
_geom_bond_site_symmetry_2
Li0 O29 1.873968 1_555
Li0 O2 1.980734 1_555
Li0 O1 1.980734 1_555
Li0 O6 2.085048 1_555
Li1 O3 1.873890 1_555
Li1 O30 1.959358 1_655
Li1 O28 2.047674 1_555
Li1 O25 2.080600 1_555
Li2 O0 1.873890 1_555
Li2 O31 1.959358 1_565
Li2 O28 2.047674 1_555
Li2 O27 2.080600 1_555
Li3 O13 1.870276 1_554
Li3 O17 1.986336 1_555
Li3 O18 1.996394 1_565
Li3 O20 2.099235 1_555
Li4 O15 1.869673 1_554
Li4 O16 1.988410 1_555
Li4 O19 1.992961 1_555
Li4 O22 2.083965 1_555
Li5 O14 1.870276 1_554
Li5 O16 1.986336 1_555
Li5 O18 1.996394 1_655
Li5 O21 2.099235 1_555
Li6 O12 1.869673 1_554
Li6 O17 1.988410 1_555
Li6 O19 1.992961 1_555
Li6 O23 2.083965 1_555
O0 Ti0 1.995209 1_555
O0 Ti15 2.017384 1_566
O0 Ti1 2.056381 1_555
O1 Ti3 1.951654 1_455
O1 Ti14 2.034173 1_556
O1 Ti2 2.052380 1_555
O2 Ti1 1.951654 1_545
O2 Ti13 2.034173 1_556
O2 Ti2 2.052380 1_555
O3 Ti0 1.995209 1_555
O3 Ti12 2.017384 1_656
O3 Ti3 2.056381 1_555
O4 Ti4 1.946442 1_555
O4 Ti14 1.992613 1_556
O4 Ti12 2.035433 1_556
O5 Ti7 1.937788 1_555
O5 Ti15 1.988521 1_566
O5 Ti12 1.988521 1_656
O6 Ti6 1.928031 1_555
O6 Ti13 2.105087 1_556
O6 Ti14 2.105087 1_556
O7 Ti5 1.946442 1_555
O7 Ti13 1.992613 1_556
O7 Ti15 2.035433 1_556
O8 Ti1 1.941326 1_555
O8 Ti8 1.988194 1_555
O8 Ti9 2.012340 1_565
O9 Ti2 1.982738 1_555
O9 Ti10 1.988591 1_555
O9 Ti9 1.988591 1_555
O10 Ti0 1.930043 1_555
O10 Ti11 2.019836 1_555
O10 Ti8 2.019836 1_555
O11 Ti3 1.941326 1_555
O11 Ti11 1.988194 1_555
O11 Ti10 2.012340 1_655
O12 Ti6 1.994429 1_555
O12 Ti4 2.030970 1_555
O12 Ti8 2.035339 1_555
O13 Ti9 2.009425 1_565
O13 Ti4 2.011188 1_555
O13 Ti7 2.039027 1_455
O14 Ti10 2.009425 1_655
O14 Ti5 2.011188 1_555
O14 Ti7 2.039027 1_545
O15 Ti6 1.994429 1_555
O15 Ti5 2.030970 1_555
O15 Ti11 2.035339 1_555
O16 Ti11 2.029770 1_555
O16 Ti5 2.091337 1_555
O16 Ti10 2.097345 1_655
O17 Ti8 2.029770 1_555
O17 Ti4 2.091337 1_555
O17 Ti9 2.097345 1_565
O18 Ti7 2.051130 1_445
O18 Ti9 2.073446 1_555
O18 Ti10 2.073446 1_555
O19 Ti11 2.043968 1_555
O19 Ti8 2.043968 1_555
O19 Ti6 2.151810 1_555
O20 Ti12 2.002681 1_555
O20 Ti4 2.019204 1_555
O20 Ti7 2.031379 1_455
O21 Ti15 2.002681 1_555
O21 Ti5 2.019204 1_555
O21 Ti7 2.031379 1_545
O22 Ti13 1.978415 1_555
O22 Ti6 2.025498 1_555
O22 Ti5 2.042747 1_555
O23 Ti14 1.978415 1_555
O23 Ti6 2.025498 1_555
O23 Ti4 2.042747 1_555
O24 Ti1 1.967283 1_544
O24 Ti9 1.970697 1_555
O24 Ti2 1.987997 1_554
O25 Ti11 1.993830 1_555
O25 Ti0 2.001230 1_554
O25 Ti3 2.092918 1_554
O26 Ti3 1.967283 1_454
O26 Ti10 1.970697 1_555
O26 Ti2 1.987997 1_554
O27 Ti8 1.993830 1_555
O27 Ti0 2.001230 1_554
O27 Ti1 2.092918 1_554
O28 Ti12 2.037925 1_655
O28 Ti15 2.037925 1_565
O28 Ti0 2.133023 1_554
O29 Ti13 2.011449 1_555
O29 Ti14 2.011449 1_555
O29 Ti2 2.068599 1_554
O30 Ti14 1.935211 1_555
O30 Ti12 2.045113 1_555
O30 Ti3 2.081728 1_454
O31 Ti13 1.935211 1_555
O31 Ti15 2.045113 1_555
O31 Ti1 2.081728 1_544
