# generated using pymatgen
data_Li2V2Cu(PO4)3
_symmetry_space_group_name_H-M   'P 1'
_cell_length_a   8.65761080
_cell_length_b   8.69565915
_cell_length_c   8.69565932
_cell_angle_alpha   60.99339550
_cell_angle_beta   61.33796156
_cell_angle_gamma   61.33796338
_symmetry_Int_Tables_number   1
_chemical_formula_structural   Li2V2Cu(PO4)3
_chemical_formula_sum   'Li4 V4 Cu2 P6 O24'
_cell_volume   475.62361098
_cell_formula_units_Z   2
loop_
 _symmetry_equiv_pos_site_id
 _symmetry_equiv_pos_as_xyz
  1  'x, y, z'
loop_
 _atom_site_type_symbol
 _atom_site_label
 _atom_site_symmetry_multiplicity
 _atom_site_fract_x
 _atom_site_fract_y
 _atom_site_fract_z
 _atom_site_occupancy
  Li  Li0  1  0.75000000  0.14999717  0.35000283  1
  Li  Li1  1  0.25000000  0.84470816  0.65529184  1
  Li  Li2  1  0.65575646  0.24823277  0.84653653  1
  Li  Li3  1  0.84424354  0.65346347  0.25176723  1
  V  V0  1  0.14359793  0.14280431  0.13991315  1
  V  V1  1  0.35640207  0.36008685  0.35719569  1
  V  V2  1  0.64748322  0.64297184  0.64868195  1
  V  V3  1  0.85251678  0.85131805  0.85702816  1
  Cu  Cu0  1  0.02989478  0.99945179  0.97984538  1
  Cu  Cu1  1  0.47010522  0.52015462  0.50054821  1
  P  P0  1  0.04832368  0.74910326  0.45432860  1
  P  P1  1  0.45167632  0.04567140  0.75089674  1
  P  P2  1  0.75000000  0.45280139  0.04719861  1
  P  P3  1  0.25000000  0.53968226  0.96031774  1
  P  P4  1  0.54503243  0.96211129  0.25257259  1
  P  P5  1  0.95496757  0.24742741  0.53788871  1
  O  O0  1  0.12355834  0.29049412  0.49615283  1
  O  O1  1  0.30881743  0.50604805  0.11573159  1
  O  O2  1  0.04946567  0.91975532  0.27292021  1
  O  O3  1  0.53160550  0.11759712  0.30051249  1
  O  O4  1  0.01941484  0.79962996  0.61550084  1
  O  O5  1  0.23704986  0.58966600  0.43035743  1
  O  O6  1  0.26295014  0.06964257  0.91033400  1
  O  O7  1  0.45053433  0.22707979  0.58024468  1
  O  O8  1  0.19118257  0.38426841  0.99395195  1
  O  O9  1  0.59399937  0.42976449  0.23850162  1
  O  O10  1  0.08934506  0.73276366  0.93567246  1
  O  O11  1  0.37644166  0.00384717  0.20950588  1
  O  O12  1  0.61093447  0.01005052  0.81122182  1
  O  O13  1  0.90600063  0.26149838  0.07023551  1
  O  O14  1  0.41065494  0.56432754  0.76723634  1
  O  O15  1  0.80716392  0.61169301  0.01504607  1
  O  O16  1  0.56695367  0.76907896  0.41574850  1
  O  O17  1  0.73396434  0.92946428  0.09162567  1
  O  O18  1  0.76603566  0.40837433  0.57053572  1
  O  O19  1  0.96839450  0.19948751  0.38240288  1
  O  O20  1  0.48058516  0.88449916  0.70037004  1
  O  O21  1  0.93304633  0.08425150  0.73092104  1
  O  O22  1  0.69283608  0.48495393  0.88830699  1
  O  O23  1  0.88906553  0.68877818  0.48994948  1
loop_
_geom_bond_atom_site_label_1
_geom_bond_atom_site_label_2
_geom_bond_distance
_geom_bond_site_symmetry_2
Li0 O13 2.121141 1_555
Li0 O9 2.121141 1_555
Li0 O19 2.291022 1_555
Li0 O3 2.291022 1_555
Li0 O7 2.415485 1_555
Li0 O2 2.415485 1_645
Li1 O10 2.137876 1_555
Li1 O14 2.137876 1_555
Li1 O4 2.409040 1_555
Li1 O20 2.409040 1_555
Li1 O16 2.532877 1_555
Li1 O21 2.532877 1_465
Li2 O18 2.108742 1_555
Li2 O21 2.144400 1_555
Li2 O22 2.437837 1_555
Li2 O12 2.456966 1_555
Li2 O14 2.550256 1_555
Li2 O17 2.557066 1_546
Li3 O17 2.108742 1_555
Li3 O16 2.144400 1_555
Li3 O15 2.437837 1_555
Li3 O23 2.456966 1_555
Li3 O10 2.550256 1_654
Li3 O18 2.557066 1_555
Cu0 O6 2.112500 1_565
Cu0 O10 2.306423 1_555
Cu0 O21 2.352038 1_465
Cu0 O13 2.354620 1_466
Cu0 O2 2.364842 1_556
Cu0 O17 2.532271 1_456
Cu1 O5 2.112500 1_555
Cu1 O14 2.306423 1_555
Cu1 O16 2.352038 1_555
Cu1 O9 2.354620 1_555
Cu1 O7 2.364842 1_555
Cu1 O18 2.532271 1_555
O0 P5 1.512205 1_455
O0 V1 2.003605 1_555
O1 P3 1.518273 1_554
O1 V1 1.983177 1_555
O2 P0 1.555460 1_555
O2 V0 2.049459 1_565
O3 P4 1.537758 1_545
O3 V1 2.052448 1_555
O4 P0 1.541132 1_555
O4 V3 2.020445 1_455
O5 P0 1.554277 1_555
O5 V1 2.019928 1_555
O6 P1 1.554277 1_555
O6 V0 2.019928 1_556
O7 P1 1.555460 1_555
O7 V1 2.049459 1_555
O8 P3 1.518273 1_555
O8 V0 1.983177 1_556
O9 P2 1.553253 1_555
O9 V1 2.053335 1_555
O10 P3 1.579951 1_555
O10 V3 2.090006 1_455
O11 P4 1.512205 1_545
O11 V0 2.003605 1_555
O12 P1 1.548787 1_555
O12 V3 1.983667 1_545
O13 P2 1.553253 1_555
O13 V0 2.053335 1_655
O14 P3 1.579951 1_555
O14 V2 2.090006 1_555
O15 P2 1.542945 1_555
O15 V3 1.968397 1_554
O16 P4 1.584221 1_555
O16 V2 2.063596 1_555
O17 P4 1.568014 1_555
O17 V3 2.084114 1_554
O18 P5 1.568014 1_555
O18 V2 2.084114 1_555
O19 P5 1.537758 1_555
O19 V0 2.052448 1_655
O20 P1 1.541132 1_565
O20 V2 2.020445 1_555
O21 P5 1.584221 1_555
O21 V3 2.063596 1_545
O22 P2 1.542945 1_556
O22 V2 1.968397 1_555
O23 P0 1.548787 1_655
O23 V2 1.983667 1_555
