# generated using pymatgen
data_V6O7F5
_symmetry_space_group_name_H-M   'P 1'
_cell_length_a   5.63474024
_cell_length_b   5.63474024
_cell_length_c   7.48984876
_cell_angle_alpha   70.84754381
_cell_angle_beta   70.84754381
_cell_angle_gamma   70.43309448
_symmetry_Int_Tables_number   1
_chemical_formula_structural   V6O7F5
_chemical_formula_sum   'V6 O7 F5'
_cell_volume   205.21036609
_cell_formula_units_Z   1
loop_
 _symmetry_equiv_pos_site_id
 _symmetry_equiv_pos_as_xyz
  1  'x, y, z'
loop_
 _atom_site_type_symbol
 _atom_site_label
 _atom_site_symmetry_multiplicity
 _atom_site_fract_x
 _atom_site_fract_y
 _atom_site_fract_z
 _atom_site_occupancy
  V  V0  1  0.69430900  0.67996000  0.84271400  1
  V  V1  1  0.33896800  0.32982100  0.67949900  1
  V  V2  1  0.67017900  0.66103200  0.32050100  1
  V  V3  1  0.32004000  0.30569100  0.15728600  1
  V  V4  1  0.00386800  0.99613200  0.50000000  1
  V  V5  1  0.97376800  0.02623200  0.00000000  1
  O  O0  1  0.64218100  0.02890000  0.66527100  1
  O  O1  1  0.97110000  0.35781900  0.33472900  1
  O  O2  1  0.22513800  0.22605100  0.96583300  1
  O  O3  1  0.77394900  0.77486200  0.03416700  1
  O  O4  1  0.67867600  0.32132400  0.00000000  1
  O  O5  1  0.04628800  0.63561500  0.66550200  1
  O  O6  1  0.36438500  0.95371200  0.33449800  1
  F  F0  1  0.57659800  0.56847600  0.63072900  1
  F  F1  1  0.89408100  0.89975500  0.29944600  1
  F  F2  1  0.10024500  0.10591900  0.70055400  1
  F  F3  1  0.43152400  0.42340200  0.36927100  1
  F  F4  1  0.29470400  0.70529600  0.00000000  1
loop_
_geom_bond_atom_site_label_1
_geom_bond_atom_site_label_2
_geom_bond_distance
_geom_bond_site_symmetry_2
O0 V1 1.965748 1_555
O0 V0 1.968031 1_545
O0 V4 1.990588 1_645
O1 V2 1.965748 1_555
O1 V3 1.968031 1_655
O1 V4 1.990588 1_645
O2 V3 1.905171 1_556
O2 V1 1.969363 1_555
O2 V5 1.995170 1_456
O3 V0 1.905171 1_554
O3 V2 1.969363 1_555
O3 V5 1.995170 1_565
O4 V5 1.917730 1_555
O4 V3 1.992067 1_555
O4 V0 1.992067 1_554
O5 V1 1.947121 1_555
O5 V0 1.978894 1_455
O5 V4 1.984250 1_555
O6 V2 1.947121 1_555
O6 V3 1.978894 1_565
O6 V4 1.984250 1_555
F0 V1 2.073043 1_555
F0 V2 2.129339 1_555
F0 V0 2.231589 1_555
F1 V5 2.060202 1_565
F1 V2 2.071948 1_555
F1 V4 2.074606 1_655
F2 V5 2.060202 1_456
F2 V1 2.071948 1_555
F2 V4 2.074606 1_545
F3 V2 2.073043 1_555
F3 V1 2.129339 1_555
F3 V3 2.231589 1_555
F4 V5 2.085683 1_465
F4 V3 2.152373 1_555
F4 V0 2.152373 1_554
