# generated using pymatgen
data_Li2P4WO13
_symmetry_space_group_name_H-M   'P 1'
_cell_length_a   5.18531600
_cell_length_b   8.05876460
_cell_length_c   13.67821657
_cell_angle_alpha   78.07331285
_cell_angle_beta   83.93490932
_cell_angle_gamma   79.99529858
_symmetry_Int_Tables_number   1
_chemical_formula_structural   Li2P4WO13
_chemical_formula_sum   'Li4 P8 W2 O26'
_cell_volume   549.28711084
_cell_formula_units_Z   2
loop_
 _symmetry_equiv_pos_site_id
 _symmetry_equiv_pos_as_xyz
  1  'x, y, z'
loop_
 _atom_site_type_symbol
 _atom_site_label
 _atom_site_symmetry_multiplicity
 _atom_site_fract_x
 _atom_site_fract_y
 _atom_site_fract_z
 _atom_site_occupancy
  Li  Li0  1  0.37661200  0.32864300  0.98222600  1
  Li  Li1  1  0.06943900  0.31722200  0.51058900  1
  Li  Li2  1  0.93056100  0.68277800  0.48941100  1
  Li  Li3  1  0.62338800  0.67135700  0.01777400  1
  P  P0  1  0.11921700  0.79529900  0.13384400  1
  P  P1  1  0.00980600  0.90362100  0.64393300  1
  P  P2  1  0.33588000  0.57182900  0.31941500  1
  P  P3  1  0.30603900  0.66188700  0.80098100  1
  P  P4  1  0.69396100  0.33811300  0.19901900  1
  P  P5  1  0.66412000  0.42817100  0.68058500  1
  P  P6  1  0.99019400  0.09637900  0.35606700  1
  P  P7  1  0.88078300  0.20470100  0.86615600  1
  W  W0  1  0.44499500  0.05324700  0.75892800  1
  W  W1  1  0.55500500  0.94675300  0.24107200  1
  O  O0  1  0.12963100  0.64624200  0.23739800  1
  O  O1  1  0.24411900  0.71492300  0.04809500  1
  O  O2  1  0.28889300  0.03188800  0.34548200  1
  O  O3  1  0.16261700  0.04454200  0.65818800  1
  O  O4  1  0.19367800  0.52404500  0.41902400  1
  O  O5  1  0.04926500  0.75121000  0.74657500  1
  O  O6  1  0.08975500  0.82093000  0.55566600  1
  O  O7  1  0.18246700  0.14365600  0.86937600  1
  O  O8  1  0.24997900  0.94104700  0.15368300  1
  O  O9  1  0.56495200  0.19803600  0.16967300  1
  O  O10  1  0.49459000  0.39958100  0.28877700  1
  O  O11  1  0.24950000  0.51951800  0.88308800  1
  O  O12  1  0.46872900  0.30259600  0.68702300  1
  O  O13  1  0.53127100  0.69740400  0.31297700  1
  O  O14  1  0.75050000  0.48048200  0.11691200  1
  O  O15  1  0.50541000  0.60041900  0.71122300  1
  O  O16  1  0.43504800  0.80196400  0.83032700  1
  O  O17  1  0.75002100  0.05895300  0.84631700  1
  O  O18  1  0.81753300  0.85634400  0.13062400  1
  O  O19  1  0.91024500  0.17907000  0.44433400  1
  O  O20  1  0.95073500  0.24879000  0.25342500  1
  O  O21  1  0.80632200  0.47595500  0.58097600  1
  O  O22  1  0.83738300  0.95545800  0.34181200  1
  O  O23  1  0.71110700  0.96811200  0.65451800  1
  O  O24  1  0.75588100  0.28507700  0.95190500  1
  O  O25  1  0.87036900  0.35375800  0.76260200  1
loop_
_geom_bond_atom_site_label_1
_geom_bond_atom_site_label_2
_geom_bond_distance
_geom_bond_site_symmetry_2
Li0 O11 1.901007 1_555
Li0 O24 1.952133 1_555
Li1 O19 1.906996 1_455
Li1 O21 2.012398 1_455
Li1 O4 2.025198 1_555
Li2 O6 1.906996 1_655
Li2 O4 2.012398 1_655
Li2 O21 2.025198 1_555
Li3 O14 1.901007 1_555
Li3 O1 1.952133 1_555
O0 P2 1.585732 1_555
O0 P0 1.656051 1_555
O1 P0 1.490777 1_555
O2 P6 1.547263 1_455
O2 W1 2.018406 1_545
O3 P1 1.546741 1_545
O3 W0 2.132976 1_555
O4 P2 1.489239 1_555
O5 P3 1.581041 1_555
O5 P1 1.667994 1_555
O6 P1 1.484713 1_555
O7 P7 1.558616 1_455
O7 W0 2.083747 1_555
O8 P0 1.536319 1_555
O8 W1 2.092858 1_555
O9 P4 1.545744 1_555
O9 W1 2.065288 1_545
O10 P2 1.596985 1_555
O10 P4 1.620699 1_555
O11 P3 1.475911 1_555
O12 P5 1.535878 1_555
O12 W0 2.064905 1_555
O13 P2 1.535878 1_555
O13 W1 2.064905 1_555
O14 P4 1.475911 1_555
O15 P5 1.596985 1_555
O15 P3 1.620699 1_555
O16 P3 1.545744 1_555
O16 W0 2.065288 1_565
O17 P7 1.536319 1_555
O17 W0 2.092858 1_555
O18 P0 1.558616 1_655
O18 W1 2.083747 1_555
O19 P6 1.484713 1_555
O20 P4 1.581041 1_555
O20 P6 1.667994 1_555
O21 P5 1.489239 1_555
O22 P6 1.546741 1_565
O22 W1 2.132976 1_555
O23 P1 1.547263 1_655
O23 W0 2.018406 1_565
O24 P7 1.490777 1_555
O25 P5 1.585732 1_555
O25 P7 1.656051 1_555
