# generated using pymatgen
data_Li24Mn7Cr5O36
_symmetry_space_group_name_H-M   'P 1'
_cell_length_a   5.00582000
_cell_length_b   9.74171228
_cell_length_c   13.27877836
_cell_angle_alpha   97.20807974
_cell_angle_beta   100.67776895
_cell_angle_gamma   94.71588435
_symmetry_Int_Tables_number   1
_chemical_formula_structural   Li24Mn7Cr5O36
_chemical_formula_sum   'Li24 Mn7 Cr5 O36'
_cell_volume   627.59712664
_cell_formula_units_Z   1
loop_
 _symmetry_equiv_pos_site_id
 _symmetry_equiv_pos_as_xyz
  1  'x, y, z'
loop_
 _atom_site_type_symbol
 _atom_site_label
 _atom_site_symmetry_multiplicity
 _atom_site_fract_x
 _atom_site_fract_y
 _atom_site_fract_z
 _atom_site_occupancy
  Li  Li0  1  0.16476500  0.00032600  0.83364100  1
  Li  Li1  1  0.05138100  0.00044800  0.61418100  1
  Li  Li2  1  0.99981300  0.74961400  0.25054300  1
  Li  Li3  1  0.33181000  0.75024900  0.91753300  1
  Li  Li4  1  0.04832700  0.50044400  0.11178400  1
  Li  Li5  1  0.38023600  0.49979000  0.77673900  1
  Li  Li6  1  0.16680100  0.50022800  0.33357700  1
  Li  Li7  1  0.50059800  0.50052500  0.00063800  1
  Li  Li8  1  0.28601800  0.50046400  0.55558100  1
  Li  Li9  1  0.33296600  0.25022700  0.41530700  1
  Li  Li10  1  0.50094500  0.99969000  0.49977100  1
  Li  Li11  1  0.28003200  0.99837300  0.05210300  1
  Li  Li12  1  0.61815500  0.99869100  0.71875200  1
  Li  Li13  1  0.38211600  0.99931000  0.28067800  1
  Li  Li14  1  0.72029300  0.00183100  0.94746500  1
  Li  Li15  1  0.66401800  0.74994300  0.58434800  1
  Li  Li16  1  0.71262400  0.49848600  0.44314800  1
  Li  Li17  1  0.83369000  0.49919100  0.66710800  1
  Li  Li18  1  0.62060600  0.50155500  0.22356900  1
  Li  Li19  1  0.95136400  0.49920200  0.88763200  1
  Li  Li20  1  0.66688100  0.24949500  0.08288100  1
  Li  Li21  1  0.83361500  0.99981100  0.16755600  1
  Li  Li22  1  0.99721900  0.25030100  0.74901000  1
  Li  Li23  1  0.95095600  0.00086300  0.38597200  1
  Mn  Mn0  1  0.10829700  0.24805300  0.97214900  1
  Mn  Mn1  1  0.22361700  0.75045700  0.69422100  1
  Mn  Mn2  1  0.44448700  0.74990200  0.13909000  1
  Mn  Mn3  1  0.55394000  0.74871900  0.35976700  1
  Mn  Mn4  1  0.77828500  0.25068400  0.30664400  1
  Mn  Mn5  1  0.89084300  0.25025000  0.52736800  1
  Mn  Mn6  1  0.89162800  0.75107900  0.02891700  1
  Cr  Cr0  1  0.10492000  0.75033600  0.47347500  1
  Cr  Cr1  1  0.22653400  0.25004000  0.19301200  1
  Cr  Cr2  1  0.44606700  0.25151500  0.63649200  1
  Cr  Cr3  1  0.55035900  0.24930500  0.86039200  1
  Cr  Cr4  1  0.77353700  0.74968200  0.80763200  1
  O  O0  1  0.00305100  0.86278900  0.93150700  1
  O  O1  1  0.06879600  0.63644700  0.78435700  1
  O  O2  1  0.00282200  0.36157600  0.42902400  1
  O  O3  1  0.13699400  0.36263100  0.64224900  1
  O  O4  1  0.26481800  0.36377400  0.88257000  1
  O  O5  1  0.33699900  0.86362100  0.59802700  1
  O  O6  1  0.06787400  0.13537300  0.28524200  1
  O  O7  1  0.19070900  0.13810800  0.52530000  1
  O  O8  1  0.40058400  0.13507600  0.95282000  1
  O  O9  1  0.14372100  0.86176700  0.14356000  1
  O  O10  1  0.26545100  0.86415200  0.38235100  1
  O  O11  1  0.48047200  0.86163200  0.80890300  1
  O  O12  1  0.34124300  0.13860000  0.73911200  1
  O  O13  1  0.19099300  0.63826500  0.02370300  1
  O  O14  1  0.40233000  0.63669300  0.45056800  1
  O  O15  1  0.51808400  0.63660900  0.68843300  1
  O  O16  1  0.33131800  0.63818600  0.23707900  1
  O  O17  1  0.67021000  0.63843900  0.90480400  1
  O  O18  1  0.33095700  0.36141100  0.09535800  1
  O  O19  1  0.66164500  0.36308800  0.75996400  1
  O  O20  1  0.48172300  0.36305000  0.31131000  1
  O  O21  1  0.59778100  0.36385400  0.54838700  1
  O  O22  1  0.81085000  0.36209300  0.97569200  1
  O  O23  1  0.66638300  0.86145000  0.26159500  1
  O  O24  1  0.52036000  0.13831300  0.19234800  1
  O  O25  1  0.74151300  0.13523900  0.61710500  1
  O  O26  1  0.85915400  0.13805000  0.85707500  1
  O  O27  1  0.59682500  0.86354000  0.04851300  1
  O  O28  1  0.81234600  0.86169000  0.47429900  1
  O  O29  1  0.93171300  0.86425200  0.71526100  1
  O  O30  1  0.66560300  0.13839300  0.40471100  1
  O  O31  1  0.73670800  0.63612600  0.11838700  1
  O  O32  1  0.85087500  0.63679200  0.35523000  1
  O  O33  1  0.00282900  0.63904700  0.57056000  1
  O  O34  1  0.93224000  0.36336700  0.21630700  1
  O  O35  1  0.99628200  0.13742400  0.06961400  1
loop_
_geom_bond_atom_site_label_1
_geom_bond_atom_site_label_2
_geom_bond_distance
_geom_bond_site_symmetry_2
Li0 O29 2.032837 1_445
Li0 O8 2.037828 1_555
Li0 O26 2.155558 1_455
Li0 O0 2.188090 1_545
Li0 O12 2.193186 1_555
Li0 O11 2.205244 1_545
Li1 O5 2.054791 1_545
Li1 O7 2.055775 1_555
Li1 O25 2.115705 1_455
Li1 O29 2.129532 1_445
Li1 O12 2.212543 1_555
Li1 O28 2.233715 1_445
Li2 O16 2.078821 1_655
Li2 O32 2.080621 1_555
Li2 O23 2.084228 1_555
Li2 O9 2.090469 1_655
Li2 O31 2.110381 1_555
Li2 O10 2.116618 1_655
Li3 O13 2.074203 1_556
Li3 O0 2.074492 1_555
Li3 O27 2.103685 1_556
Li3 O17 2.108980 1_555
Li3 O11 2.114161 1_555
Li3 O1 2.120140 1_555
Li4 O13 2.055859 1_555
Li4 O18 2.058877 1_555
Li4 O31 2.132773 1_455
Li4 O34 2.164174 1_455
Li4 O22 2.196512 1_454
Li4 O16 2.197549 1_555
Li5 O19 2.039059 1_555
Li5 O15 2.041678 1_555
Li5 O1 2.139850 1_555
Li5 O4 2.169487 1_555
Li5 O3 2.187490 1_555
Li5 O17 2.238237 1_555
Li6 O14 2.028798 1_555
Li6 O34 2.031050 1_455
Li6 O2 2.176551 1_555
Li6 O16 2.183473 1_555
Li6 O32 2.184503 1_455
Li6 O20 2.185955 1_555
Li7 O31 2.031457 1_555
Li7 O4 2.038966 1_554
Li7 O13 2.170478 1_555
Li7 O22 2.182497 1_554
Li7 O18 2.184951 1_555
Li7 O17 2.187966 1_554
Li8 O33 2.055120 1_555
Li8 O3 2.055501 1_555
Li8 O21 2.140235 1_555
Li8 O15 2.149586 1_555
Li8 O14 2.163998 1_555
Li8 O2 2.212610 1_555
Li9 O20 2.072899 1_555
Li9 O2 2.073108 1_555
Li9 O30 2.079898 1_555
Li9 O6 2.101746 1_555
Li9 O7 2.119248 1_555
Li9 O21 2.122519 1_555
Li10 O10 2.027424 1_555
Li10 O25 2.036746 1_565
Li10 O30 2.174610 1_565
Li10 O7 2.183953 1_565
Li10 O28 2.185741 1_555
Li10 O5 2.187420 1_555
Li11 O35 2.065492 1_465
Li11 O9 2.067549 1_555
Li11 O8 2.116358 1_564
Li11 O0 2.139318 1_554
Li11 O27 2.144098 1_555
Li11 O24 2.244297 1_565
Li12 O12 2.051650 1_565
Li12 O11 2.060659 1_555
Li12 O29 2.128569 1_555
Li12 O25 2.144052 1_565
Li12 O5 2.147587 1_555
Li12 O26 2.226198 1_565
Li13 O24 2.057562 1_565
Li13 O23 2.062813 1_555
Li13 O10 2.123503 1_555
Li13 O6 2.143140 1_565
Li13 O30 2.195436 1_565
Li13 O9 2.203247 1_555
Li14 O0 2.058499 1_645
Li14 O26 2.059605 1_555
Li14 O8 2.147520 1_555
Li14 O35 2.148538 1_556
Li14 O27 2.149735 1_546
Li14 O11 2.230059 1_545
Li15 O15 2.070592 1_555
Li15 O5 2.072903 1_555
Li15 O33 2.108038 1_655
Li15 O29 2.112642 1_555
Li15 O14 2.120634 1_555
Li15 O28 2.130775 1_555
Li16 O32 2.048900 1_555
Li16 O2 2.069077 1_655
Li16 O20 2.135717 1_555
Li16 O14 2.145317 1_555
Li16 O21 2.153407 1_555
Li16 O33 2.242448 1_655
Li17 O1 2.033908 1_655
Li17 O21 2.037295 1_555
Li17 O3 2.142795 1_655
Li17 O19 2.153134 1_555
Li17 O15 2.187844 1_555
Li17 O33 2.206269 1_655
Li18 O20 2.049814 1_555
Li18 O16 2.062557 1_555
Li18 O32 2.132226 1_555
Li18 O34 2.150243 1_555
Li18 O31 2.154557 1_555
Li18 O18 2.245246 1_555
Li19 O22 2.046550 1_555
Li19 O17 2.056170 1_555
Li19 O4 2.136433 1_655
Li19 O1 2.154853 1_655
Li19 O13 2.203233 1_656
Li19 O19 2.223533 1_555
Li20 O35 2.072998 1_555
Li20 O22 2.095326 1_554
Li20 O18 2.098372 1_555
Li20 O8 2.102753 1_554
Li20 O24 2.117436 1_555
Li20 O34 2.127549 1_555
Li21 O6 2.027221 1_665
Li21 O27 2.046063 1_555
Li21 O23 2.168197 1_555
Li21 O9 2.176865 1_655
Li21 O35 2.191376 1_565
Li21 O24 2.194425 1_565
Li22 O3 2.080325 1_655
Li22 O26 2.090359 1_555
Li22 O25 2.098411 1_555
Li22 O19 2.098598 1_555
Li22 O12 2.126779 1_655
Li22 O4 2.132107 1_655
Li23 O28 2.059407 1_545
Li23 O30 2.063990 1_555
Li23 O6 2.110096 1_655
Li23 O10 2.147364 1_645
Li23 O23 2.201956 1_545
Li23 O7 2.223385 1_655
Mn0 O35 1.915844 1_456
Mn0 O26 1.924011 1_455
Mn0 O22 1.933460 1_455
Mn0 O8 1.936750 1_555
Mn0 O18 1.951149 1_556
Mn0 O4 1.958647 1_555
Mn1 O5 1.920465 1_555
Mn1 O15 1.923065 1_555
Mn1 O11 1.943389 1_555
Mn1 O33 1.943923 1_555
Mn1 O29 1.944744 1_455
Mn1 O1 1.950011 1_555
Mn2 O16 1.930162 1_555
Mn2 O9 1.935079 1_555
Mn2 O23 1.936288 1_555
Mn2 O13 1.942942 1_555
Mn2 O31 1.944999 1_555
Mn2 O27 1.946497 1_555
Mn3 O32 1.919662 1_555
Mn3 O16 1.935243 1_555
Mn3 O23 1.936946 1_555
Mn3 O14 1.937488 1_555
Mn3 O10 1.944953 1_555
Mn3 O28 1.953013 1_555
Mn4 O20 1.920985 1_555
Mn4 O30 1.933588 1_555
Mn4 O2 1.937552 1_655
Mn4 O34 1.942115 1_555
Mn4 O6 1.945345 1_655
Mn4 O24 1.947642 1_555
Mn5 O3 1.925217 1_655
Mn5 O2 1.929356 1_655
Mn5 O7 1.929981 1_655
Mn5 O25 1.939432 1_555
Mn5 O30 1.945131 1_555
Mn5 O21 1.948330 1_555
Mn6 O0 1.920748 1_654
Mn6 O9 1.930046 1_655
Mn6 O13 1.936094 1_655
Mn6 O27 1.944827 1_555
Mn6 O31 1.949205 1_555
Mn6 O17 1.953969 1_554
Cr0 O28 1.893682 1_455
Cr0 O33 1.897967 1_555
Cr0 O14 1.972038 1_555
Cr0 O10 1.972243 1_555
Cr0 O32 1.974592 1_455
Cr0 O5 1.980424 1_555
Cr1 O24 1.900978 1_555
Cr1 O18 1.908618 1_555
Cr1 O34 1.958408 1_455
Cr1 O35 1.964201 1_455
Cr1 O20 1.975495 1_555
Cr1 O6 1.984029 1_555
Cr2 O21 1.912339 1_555
Cr2 O7 1.921875 1_555
Cr2 O19 1.933483 1_555
Cr2 O3 1.967160 1_555
Cr2 O25 1.969774 1_555
Cr2 O12 1.971899 1_555
Cr3 O12 1.899004 1_555
Cr3 O4 1.925873 1_555
Cr3 O8 1.962981 1_555
Cr3 O22 1.963193 1_555
Cr3 O26 1.963346 1_555
Cr3 O19 1.965214 1_555
Cr4 O11 1.899860 1_555
Cr4 O17 1.900771 1_555
Cr4 O1 1.961807 1_655
Cr4 O0 1.968880 1_655
Cr4 O15 1.983604 1_555
Cr4 O29 1.983749 1_555
