# generated using pymatgen
data_Sr3GaN3
_symmetry_space_group_name_H-M   'P 1'
_cell_length_a   7.58021642
_cell_length_b   7.58021718
_cell_length_c   5.41817207
_cell_angle_alpha   90.00000000
_cell_angle_beta   90.00000000
_cell_angle_gamma   119.99999357
_symmetry_Int_Tables_number   1
_chemical_formula_structural   Sr3GaN3
_chemical_formula_sum   'Sr6 Ga2 N6'
_cell_volume   269.61664903
_cell_formula_units_Z   2
loop_
 _symmetry_equiv_pos_site_id
 _symmetry_equiv_pos_as_xyz
  1  'x, y, z'
loop_
 _atom_site_type_symbol
 _atom_site_label
 _atom_site_symmetry_multiplicity
 _atom_site_fract_x
 _atom_site_fract_y
 _atom_site_fract_z
 _atom_site_occupancy
  Sr  Sr0  1  0.64199562  0.71399966  0.75000000  1
  Sr  Sr1  1  0.92799597  0.64199562  0.25000000  1
  Sr  Sr2  1  0.71399966  0.07200403  0.25000000  1
  Sr  Sr3  1  0.28600034  0.92799597  0.75000000  1
  Sr  Sr4  1  0.07200403  0.35800438  0.75000000  1
  Sr  Sr5  1  0.35800438  0.28600034  0.25000000  1
  Ga  Ga0  1  0.33333300  0.66666700  0.25000000  1
  Ga  Ga1  1  0.66666700  0.33333300  0.75000000  1
  N  N0  1  0.90489578  0.59765830  0.75000000  1
  N  N1  1  0.30723748  0.90489578  0.25000000  1
  N  N2  1  0.59765830  0.69276252  0.25000000  1
  N  N3  1  0.40234170  0.30723748  0.75000000  1
  N  N4  1  0.69276252  0.09510422  0.75000000  1
  N  N5  1  0.09510422  0.40234170  0.25000000  1
loop_
_geom_bond_atom_site_label_1
_geom_bond_atom_site_label_2
_geom_bond_distance
_geom_bond_site_symmetry_2
Ga0 N1 1.912419 1_555
Ga0 N5 1.912423 1_555
Ga0 N2 1.912426 1_555
Ga1 N4 1.912419 1_555
Ga1 N0 1.912423 1_555
Ga1 N3 1.912426 1_555
N0 Sr0 2.550807 1_555
N0 Sr4 2.684374 1_655
N0 Sr3 2.716960 1_655
N0 Sr1 2.724686 1_555
N0 Sr1 2.724686 1_556
N1 Sr1 2.550807 1_455
N1 Sr2 2.684374 1_565
N1 Sr5 2.716960 1_565
N1 Sr3 2.724686 1_555
N1 Sr3 2.724686 1_554
N2 Sr2 2.550808 1_565
N2 Sr5 2.684375 1_555
N2 Sr1 2.716960 1_555
N2 Sr0 2.724686 1_555
N2 Sr0 2.724686 1_554
N3 Sr3 2.550808 1_545
N3 Sr0 2.684375 1_555
N3 Sr4 2.716960 1_555
N3 Sr5 2.724686 1_555
N3 Sr5 2.724686 1_556
N4 Sr4 2.550807 1_655
N4 Sr3 2.684374 1_545
N4 Sr0 2.716960 1_545
N4 Sr2 2.724686 1_556
N4 Sr2 2.724686 1_555
N5 Sr5 2.550807 1_555
N5 Sr1 2.684374 1_455
N5 Sr2 2.716960 1_455
N5 Sr4 2.724686 1_555
N5 Sr4 2.724686 1_554
