# generated using pymatgen
data_Ti3FeSb2(PO4)6
_symmetry_space_group_name_H-M   'P 1'
_cell_length_a   8.89058467
_cell_length_b   8.89058467
_cell_length_c   8.89058493
_cell_angle_alpha   59.06686414
_cell_angle_beta   59.06686414
_cell_angle_gamma   59.06686843
_symmetry_Int_Tables_number   1
_chemical_formula_structural   Ti3FeSb2(PO4)6
_chemical_formula_sum   'Ti3 Fe1 Sb2 P6 O24'
_cell_volume   486.33532743
_cell_formula_units_Z   1
loop_
 _symmetry_equiv_pos_site_id
 _symmetry_equiv_pos_as_xyz
  1  'x, y, z'
loop_
 _atom_site_type_symbol
 _atom_site_label
 _atom_site_symmetry_multiplicity
 _atom_site_fract_x
 _atom_site_fract_y
 _atom_site_fract_z
 _atom_site_occupancy
  Ti  Ti0  1  0.14571200  0.14571200  0.14571200  1
  Ti  Ti1  1  0.35135700  0.35135700  0.35135700  1
  Ti  Ti2  1  0.64943200  0.64943200  0.64943200  1
  Fe  Fe0  1  0.84880100  0.84880100  0.84880100  1
  Sb  Sb0  1  0.99163900  0.99163900  0.99163900  1
  Sb  Sb1  1  0.49715600  0.49715600  0.49715600  1
  P  P0  1  0.95909100  0.53867100  0.25358700  1
  P  P1  1  0.25358700  0.95909100  0.53867100  1
  P  P2  1  0.53867100  0.25358700  0.95909100  1
  P  P3  1  0.45755900  0.75156700  0.04393500  1
  P  P4  1  0.75156700  0.04393500  0.45755900  1
  P  P5  1  0.04393500  0.45755900  0.75156700  1
  O  O0  1  0.49783700  0.31132900  0.11600400  1
  O  O1  1  0.11600400  0.49783700  0.31132900  1
  O  O2  1  0.26533200  0.91415500  0.06406400  1
  O  O3  1  0.31132900  0.11600400  0.49783700  1
  O  O4  1  0.60930700  0.80088300  0.01990600  1
  O  O5  1  0.43237200  0.58199700  0.23505500  1
  O  O6  1  0.91415500  0.06406400  0.26533200  1
  O  O7  1  0.58199700  0.23505500  0.43237200  1
  O  O8  1  0.99616600  0.38354300  0.19593900  1
  O  O9  1  0.23505500  0.43237200  0.58199700  1
  O  O10  1  0.94291100  0.73120700  0.09011300  1
  O  O11  1  0.19593900  0.99616600  0.38354300  1
  O  O12  1  0.80088300  0.01990600  0.60930700  1
  O  O13  1  0.06406400  0.26533200  0.91415500  1
  O  O14  1  0.76915200  0.55835900  0.41936200  1
  O  O15  1  0.01990600  0.60930700  0.80088300  1
  O  O16  1  0.41936200  0.76915200  0.55835900  1
  O  O17  1  0.09011300  0.94291100  0.73120700  1
  O  O18  1  0.55835900  0.41936200  0.76915200  1
  O  O19  1  0.38354300  0.19593900  0.99616600  1
  O  O20  1  0.69631400  0.88545700  0.49473100  1
  O  O21  1  0.73120700  0.09011300  0.94291100  1
  O  O22  1  0.88545700  0.49473100  0.69631400  1
  O  O23  1  0.49473100  0.69631400  0.88545700  1
loop_
_geom_bond_atom_site_label_1
_geom_bond_atom_site_label_2
_geom_bond_distance
_geom_bond_site_symmetry_2
Fe0 O4 1.991380 1_556
Fe0 O12 1.991380 1_565
Fe0 O15 1.991380 1_655
Fe0 O17 2.244111 1_655
Fe0 O21 2.244111 1_565
Fe0 O10 2.244111 1_556
O0 P2 1.538014 1_554
O0 Ti1 1.920543 1_555
O1 P0 1.538014 1_455
O1 Ti1 1.920543 1_555
O2 P3 1.566526 1_555
O2 Ti0 2.094738 1_565
O2 Sb0 2.498305 1_454
O3 P1 1.538014 1_545
O3 Ti1 1.920543 1_555
O4 P3 1.507829 1_555
O5 P3 1.591368 1_555
O5 Ti1 2.089393 1_555
O5 Sb1 2.335987 1_555
O6 P4 1.566526 1_555
O6 Ti0 2.094738 1_655
O6 Sb0 2.498305 1_544
O7 P4 1.591368 1_555
O7 Ti1 2.089393 1_555
O7 Sb1 2.335987 1_555
O8 P0 1.535944 1_555
O8 Ti0 1.976910 1_655
O9 P5 1.591368 1_555
O9 Ti1 2.089393 1_555
O9 Sb1 2.335986 1_555
O10 P0 1.570741 1_555
O10 Sb0 2.207374 1_554
O11 P1 1.535944 1_555
O11 Ti0 1.976910 1_565
O12 P4 1.507829 1_555
O13 P5 1.566526 1_555
O13 Ti0 2.094738 1_556
O13 Sb0 2.498305 1_445
O14 P0 1.567508 1_555
O14 Ti2 2.133262 1_555
O14 Sb1 2.422505 1_555
O15 P5 1.507829 1_555
O16 P1 1.567508 1_555
O16 Ti2 2.133262 1_555
O16 Sb1 2.422505 1_555
O17 P1 1.570741 1_555
O17 Sb0 2.207374 1_455
O18 P2 1.567508 1_555
O18 Ti2 2.133262 1_555
O18 Sb1 2.422505 1_555
O19 P2 1.535944 1_555
O19 Ti0 1.976909 1_556
O20 P4 1.549726 1_565
O20 Ti2 1.952276 1_555
O21 P2 1.570742 1_555
O21 Sb0 2.207374 1_545
O22 P5 1.549726 1_655
O22 Ti2 1.952276 1_555
O23 P3 1.549726 1_556
O23 Ti2 1.952276 1_555
