# generated using pymatgen
data_Gd2W4O15
_symmetry_space_group_name_H-M   'P 1'
_cell_length_a   12.68349600
_cell_length_b   9.05832600
_cell_length_c   13.86839319
_cell_angle_alpha   49.54194645
_cell_angle_beta   90.00000000
_cell_angle_gamma   90.00000000
_symmetry_Int_Tables_number   1
_chemical_formula_structural   Gd2W4O15
_chemical_formula_sum   'Gd8 W16 O60'
_cell_volume   1212.35535948
_cell_formula_units_Z   4
loop_
 _symmetry_equiv_pos_site_id
 _symmetry_equiv_pos_as_xyz
  1  'x, y, z'
loop_
 _atom_site_type_symbol
 _atom_site_label
 _atom_site_symmetry_multiplicity
 _atom_site_fract_x
 _atom_site_fract_y
 _atom_site_fract_z
 _atom_site_occupancy
  Gd  Gd0  1  0.35293200  0.30608900  0.77333600  1
  Gd  Gd1  1  0.12496000  0.89747400  0.25564400  1
  Gd  Gd2  1  0.62496000  0.10252600  0.24435600  1
  Gd  Gd3  1  0.85293200  0.69391100  0.72666400  1
  Gd  Gd4  1  0.14706800  0.30608900  0.27333600  1
  Gd  Gd5  1  0.37504000  0.89747400  0.75564400  1
  Gd  Gd6  1  0.87504000  0.10252600  0.74435600  1
  Gd  Gd7  1  0.64706800  0.69391100  0.22666400  1
  W  W0  1  0.40969300  0.67901500  0.39749700  1
  W  W1  1  0.84538000  0.68470800  0.44169700  1
  W  W2  1  0.66588200  0.22838600  0.90813400  1
  W  W3  1  0.05852600  0.31646200  0.87753100  1
  W  W4  1  0.55852600  0.68353800  0.62246900  1
  W  W5  1  0.16588200  0.77161400  0.59186600  1
  W  W6  1  0.34538000  0.31529200  0.05830300  1
  W  W7  1  0.90969300  0.32098500  0.10250300  1
  W  W8  1  0.09030700  0.67901500  0.89749700  1
  W  W9  1  0.65462000  0.68470800  0.94169700  1
  W  W10  1  0.83411800  0.22838600  0.40813400  1
  W  W11  1  0.44147400  0.31646200  0.37753100  1
  W  W12  1  0.94147400  0.68353800  0.12246900  1
  W  W13  1  0.33411800  0.77161400  0.09186600  1
  W  W14  1  0.15462000  0.31529200  0.55830300  1
  W  W15  1  0.59030700  0.32098500  0.60250300  1
  O  O0  1  0.27122500  0.87773500  0.15009300  1
  O  O1  1  0.14257100  0.57595800  0.45427500  1
  O  O2  1  0.16931000  0.26398000  0.82380500  1
  O  O3  1  0.65037100  0.50466100  0.60670000  1
  O  O4  1  0.51405500  0.82784400  0.28483700  1
  O  O5  1  0.94339100  0.29940600  0.80859000  1
  O  O6  1  0.45113600  0.55006000  0.56637900  1
  O  O7  1  0.72372100  0.78035800  0.34280300  1
  O  O8  1  0.95783700  0.78981200  0.33837900  1
  O  O9  1  0.63519600  0.04360100  0.07784600  1
  O  O10  1  0.05705100  0.10635600  0.04480400  1
  O  O11  1  0.54469700  0.36058400  0.81354600  1
  O  O12  1  0.30639000  0.83865800  0.35858200  1
  O  O13  1  0.35173600  0.25256400  0.95856100  1
  O  O14  1  0.25571600  0.59238300  0.62536200  1
  O  O15  1  0.75571600  0.40761700  0.87463800  1
  O  O16  1  0.85173600  0.74743600  0.54143900  1
  O  O17  1  0.80639000  0.16134200  0.14141800  1
  O  O18  1  0.04469700  0.63941600  0.68645400  1
  O  O19  1  0.55705100  0.89364400  0.45519600  1
  O  O20  1  0.13519600  0.95639900  0.42215400  1
  O  O21  1  0.45783700  0.21018800  0.16162100  1
  O  O22  1  0.22372100  0.21964200  0.15719700  1
  O  O23  1  0.95113600  0.44994000  0.93362100  1
  O  O24  1  0.44339100  0.70059400  0.69141000  1
  O  O25  1  0.15037100  0.49533900  0.89330000  1
  O  O26  1  0.01405500  0.17215600  0.21516300  1
  O  O27  1  0.66931000  0.73602000  0.67619500  1
  O  O28  1  0.64257100  0.42404200  0.04572500  1
  O  O29  1  0.77122500  0.12226500  0.34990700  1
  O  O30  1  0.22877500  0.87773500  0.65009300  1
  O  O31  1  0.35742900  0.57595800  0.95427500  1
  O  O32  1  0.33069000  0.26398000  0.32380500  1
  O  O33  1  0.98594500  0.82784400  0.78483700  1
  O  O34  1  0.84962900  0.50466100  0.10670000  1
  O  O35  1  0.55660900  0.29940600  0.30859000  1
  O  O36  1  0.04886400  0.55006000  0.06637900  1
  O  O37  1  0.77627900  0.78035800  0.84280300  1
  O  O38  1  0.54216300  0.78981200  0.83837900  1
  O  O39  1  0.86480400  0.04360100  0.57784600  1
  O  O40  1  0.44294900  0.10635600  0.54480400  1
  O  O41  1  0.95530300  0.36058400  0.31354600  1
  O  O42  1  0.19361000  0.83865800  0.85858200  1
  O  O43  1  0.14826400  0.25256400  0.45856100  1
  O  O44  1  0.24428400  0.59238300  0.12536200  1
  O  O45  1  0.74428400  0.40761700  0.37463800  1
  O  O46  1  0.64826400  0.74743600  0.04143900  1
  O  O47  1  0.69361000  0.16134200  0.64141800  1
  O  O48  1  0.45530300  0.63941600  0.18645400  1
  O  O49  1  0.94294900  0.89364400  0.95519600  1
  O  O50  1  0.36480400  0.95639900  0.92215400  1
  O  O51  1  0.04216300  0.21018800  0.66162100  1
  O  O52  1  0.27627900  0.21964200  0.65719700  1
  O  O53  1  0.54886400  0.44994000  0.43362100  1
  O  O54  1  0.05660900  0.70059400  0.19141000  1
  O  O55  1  0.48594500  0.17215600  0.71516300  1
  O  O56  1  0.34962900  0.49533900  0.39330000  1
  O  O57  1  0.83069000  0.73602000  0.17619500  1
  O  O58  1  0.85742900  0.42404200  0.54572500  1
  O  O59  1  0.72877500  0.12226500  0.84990700  1
loop_
_geom_bond_atom_site_label_1
_geom_bond_atom_site_label_2
_geom_bond_distance
_geom_bond_site_symmetry_2
Gd0 O13 2.284199 1_555
Gd0 O14 2.355937 1_555
Gd0 O2 2.390190 1_555
Gd0 O52 2.406134 1_555
Gd0 O50 2.414886 1_545
Gd0 O55 2.497837 1_555
Gd0 O6 2.538000 1_555
Gd0 O11 2.612993 1_555
Gd1 O8 2.304031 1_455
Gd1 O10 2.385740 1_565
Gd1 O1 2.389244 1_555
Gd1 O0 2.440494 1_555
Gd1 O12 2.574907 1_555
Gd1 O26 2.583018 1_565
Gd1 O22 2.603612 1_565
Gd1 O54 2.605271 1_555
Gd1 O20 2.689591 1_555
Gd2 O21 2.304031 1_555
Gd2 O19 2.385740 1_545
Gd2 O28 2.389244 1_555
Gd2 O29 2.440494 1_555
Gd2 O17 2.574907 1_555
Gd2 O4 2.583018 1_545
Gd2 O7 2.603612 1_545
Gd2 O35 2.605271 1_555
Gd2 O9 2.689591 1_555
Gd3 O16 2.284199 1_555
Gd3 O15 2.355937 1_555
Gd3 O27 2.390190 1_555
Gd3 O37 2.406134 1_555
Gd3 O39 2.414886 1_565
Gd3 O33 2.497837 1_555
Gd3 O23 2.538000 1_555
Gd3 O18 2.612993 1_655
Gd4 O43 2.284199 1_555
Gd4 O44 2.355937 1_555
Gd4 O32 2.390190 1_555
Gd4 O22 2.406134 1_555
Gd4 O20 2.414886 1_545
Gd4 O26 2.497837 1_555
Gd4 O36 2.538000 1_555
Gd4 O41 2.612993 1_455
Gd5 O38 2.304031 1_555
Gd5 O40 2.385740 1_565
Gd5 O31 2.389244 1_555
Gd5 O30 2.440494 1_555
Gd5 O42 2.574907 1_555
Gd5 O55 2.583018 1_565
Gd5 O52 2.603612 1_565
Gd5 O24 2.605271 1_555
Gd5 O50 2.689591 1_555
Gd6 O51 2.304031 1_655
Gd6 O49 2.385740 1_545
Gd6 O58 2.389244 1_555
Gd6 O59 2.440494 1_555
Gd6 O47 2.574907 1_555
Gd6 O33 2.583018 1_545
Gd6 O37 2.603612 1_545
Gd6 O5 2.605271 1_555
Gd6 O39 2.689591 1_555
Gd7 O46 2.284199 1_555
Gd7 O45 2.355937 1_555
Gd7 O57 2.390190 1_555
Gd7 O7 2.406134 1_555
Gd7 O9 2.414886 1_565
Gd7 O4 2.497837 1_555
Gd7 O53 2.538000 1_555
Gd7 O48 2.612993 1_555
O0 W13 1.794399 1_555
O1 W14 1.805297 1_555
O2 W3 1.793112 1_555
O3 W15 1.864849 1_555
O3 W4 2.119005 1_555
O4 W0 1.810289 1_555
O5 W3 1.806162 1_655
O6 W0 1.890970 1_555
O6 W4 2.267784 1_555
O6 W15 2.514654 1_555
O7 W1 1.862951 1_555
O8 W1 1.795431 1_555
O9 W2 1.838494 1_554
O10 W3 1.809489 1_554
O11 W2 1.865117 1_555
O11 W4 2.355922 1_555
O12 W0 1.756803 1_555
O13 W6 1.806325 1_556
O14 W5 1.780767 1_555
O15 W2 1.780767 1_555
O16 W1 1.806325 1_555
O17 W7 1.756803 1_555
O18 W5 1.865117 1_555
O18 W3 2.355922 1_555
O19 W4 1.809489 1_555
O20 W5 1.838494 1_555
O21 W6 1.795431 1_555
O22 W6 1.862951 1_555
O23 W7 1.890970 1_556
O23 W3 2.267784 1_655
O23 W8 2.514654 1_655
O24 W4 1.806162 1_555
O25 W8 1.864849 1_555
O25 W3 2.119005 1_555
O26 W7 1.810289 1_455
O27 W4 1.793112 1_555
O28 W9 1.805297 1_554
O29 W10 1.794399 1_555
O30 W5 1.794399 1_555
O31 W6 1.805297 1_556
O32 W11 1.793112 1_555
O33 W8 1.810289 1_655
O34 W7 1.864849 1_555
O34 W12 2.119005 1_555
O35 W11 1.806162 1_555
O36 W8 1.890970 1_554
O36 W12 2.267784 1_455
O36 W7 2.514654 1_455
O37 W9 1.862951 1_555
O38 W9 1.795431 1_555
O39 W10 1.838494 1_555
O40 W11 1.809489 1_555
O41 W10 1.865117 1_555
O41 W12 2.355922 1_555
O42 W8 1.756803 1_555
O43 W14 1.806325 1_555
O44 W13 1.780767 1_555
O45 W10 1.780767 1_555
O46 W9 1.806325 1_554
O47 W15 1.756803 1_555
O48 W13 1.865117 1_555
O48 W11 2.355922 1_555
O49 W12 1.809489 1_556
O50 W13 1.838494 1_556
O51 W14 1.795431 1_555
O52 W14 1.862951 1_555
O53 W15 1.890970 1_555
O53 W11 2.267784 1_555
O53 W0 2.514654 1_555
O54 W12 1.806162 1_455
O55 W15 1.810289 1_555
O56 W0 1.864849 1_555
O56 W11 2.119005 1_555
O57 W12 1.793112 1_555
O58 W1 1.805297 1_555
O59 W2 1.794399 1_555
