# generated using pymatgen
data_Gd4Mo7O27
_symmetry_space_group_name_H-M   'P 1'
_cell_length_a   13.82538484
_cell_length_b   13.82538484
_cell_length_c   14.56225245
_cell_angle_alpha   77.41160467
_cell_angle_beta   77.41160467
_cell_angle_gamma   65.23684473
_symmetry_Int_Tables_number   1
_chemical_formula_structural   Gd4Mo7O27
_chemical_formula_sum   'Gd16 Mo28 O108'
_cell_volume   2441.42063724
_cell_formula_units_Z   4
loop_
 _symmetry_equiv_pos_site_id
 _symmetry_equiv_pos_as_xyz
  1  'x, y, z'
loop_
 _atom_site_type_symbol
 _atom_site_label
 _atom_site_symmetry_multiplicity
 _atom_site_fract_x
 _atom_site_fract_y
 _atom_site_fract_z
 _atom_site_occupancy
  Gd  Gd0  1  0.18459800  0.57097000  0.43670400  1
  Gd  Gd1  1  0.55182800  0.67026900  0.85459100  1
  Gd  Gd2  1  0.07566000  0.68522700  0.93469800  1
  Gd  Gd3  1  0.82773500  0.94347100  0.64455100  1
  Gd  Gd4  1  0.17226500  0.05652900  0.35544900  1
  Gd  Gd5  1  0.92434000  0.31477300  0.06530200  1
  Gd  Gd6  1  0.44817200  0.32973100  0.14540900  1
  Gd  Gd7  1  0.05652900  0.17226500  0.85544900  1
  Gd  Gd8  1  0.67026900  0.55182800  0.35459100  1
  Gd  Gd9  1  0.42903000  0.81540200  0.06329600  1
  Gd  Gd10  1  0.94347100  0.82773500  0.14455100  1
  Gd  Gd11  1  0.81540200  0.42903000  0.56329600  1
  Gd  Gd12  1  0.31477300  0.92434000  0.56530200  1
  Gd  Gd13  1  0.57097000  0.18459800  0.93670400  1
  Gd  Gd14  1  0.32973100  0.44817200  0.64540900  1
  Gd  Gd15  1  0.68522700  0.07566000  0.43469800  1
  Mo  Mo0  1  0.83199600  0.63806300  0.70166500  1
  Mo  Mo1  1  0.11016300  0.35010500  0.61306400  1
  Mo  Mo2  1  0.74384200  0.13212800  0.14583000  1
  Mo  Mo3  1  0.05686000  0.45430500  0.83432500  1
  Mo  Mo4  1  0.75700200  0.36556400  0.85520600  1
  Mo  Mo5  1  0.98106900  0.88091400  0.39871100  1
  Mo  Mo6  1  0.35010500  0.11016300  0.11306400  1
  Mo  Mo7  1  0.48452500  0.37546500  0.39995700  1
  Mo  Mo8  1  0.86787200  0.25615800  0.35417000  1
  Mo  Mo9  1  0.36193700  0.16800400  0.79833500  1
  Mo  Mo10  1  0.45430500  0.05686000  0.33432500  1
  Mo  Mo11  1  0.25615800  0.86787200  0.85417000  1
  Mo  Mo12  1  0.16800400  0.36193700  0.29833500  1
  Mo  Mo13  1  0.13212800  0.74384200  0.64583000  1
  Mo  Mo14  1  0.24299800  0.63443600  0.14479400  1
  Mo  Mo15  1  0.63443600  0.24299800  0.64479400  1
  Mo  Mo16  1  0.01893100  0.11908600  0.60128900  1
  Mo  Mo17  1  0.88983700  0.64989500  0.38693600  1
  Mo  Mo18  1  0.54569500  0.94314000  0.66567500  1
  Mo  Mo19  1  0.88091400  0.98106900  0.89871100  1
  Mo  Mo20  1  0.51547500  0.62453500  0.60004300  1
  Mo  Mo21  1  0.37546500  0.48452500  0.89995700  1
  Mo  Mo22  1  0.11908600  0.01893100  0.10128900  1
  Mo  Mo23  1  0.63806300  0.83199600  0.20166500  1
  Mo  Mo24  1  0.36556400  0.75700200  0.35520600  1
  Mo  Mo25  1  0.62453500  0.51547500  0.10004300  1
  Mo  Mo26  1  0.94314000  0.54569500  0.16567500  1
  Mo  Mo27  1  0.64989500  0.88983700  0.88693600  1
  O  O0  1  0.39477300  0.44650500  0.78601600  1
  O  O1  1  0.28136700  0.68516900  0.37224000  1
  O  O2  1  0.34273100  0.26690500  0.69613900  1
  O  O3  1  0.19004700  0.43706400  0.78524300  1
  O  O4  1  0.40231200  0.20874400  0.88526600  1
  O  O5  1  0.85645700  0.95702300  0.47596100  1
  O  O6  1  0.41235300  0.57599400  0.61238700  1
  O  O7  1  0.90166200  0.29873300  0.23082100  1
  O  O8  1  0.95702300  0.85645700  0.97596100  1
  O  O9  1  0.92210900  0.68040700  0.25621500  1
  O  O10  1  0.80995300  0.56293600  0.21475700  1
  O  O11  1  0.09833800  0.70126700  0.76917900  1
  O  O12  1  0.56174100  0.81513100  0.91865300  1
  O  O13  1  0.18126200  0.22873300  0.56877700  1
  O  O14  1  0.43975000  0.98701500  0.59743300  1
  O  O15  1  0.01362300  0.58023900  0.43412400  1
  O  O16  1  0.58764700  0.42400600  0.38761300  1
  O  O17  1  0.31483100  0.71863300  0.12776000  1
  O  O18  1  0.39368800  0.80694500  0.23301200  1
  O  O19  1  0.36382900  0.45592200  0.47489400  1
  O  O20  1  0.48914600  0.66501000  0.39725100  1
  O  O21  1  0.94590500  0.25556800  0.55867500  1
  O  O22  1  0.56293600  0.80995300  0.71475700  1
  O  O23  1  0.56025000  0.01298500  0.40256700  1
  O  O24  1  0.19305500  0.60631200  0.26698800  1
  O  O25  1  0.19579600  0.62365600  0.58622900  1
  O  O26  1  0.05890900  0.11504300  0.71143500  1
  O  O27  1  0.16140000  0.98839900  0.89765000  1
  O  O28  1  0.77687900  0.19094500  0.37204600  1
  O  O29  1  0.18486900  0.43825900  0.58134700  1
  O  O30  1  0.65532600  0.95560200  0.57704100  1
  O  O31  1  0.11504300  0.05890900  0.21143500  1
  O  O32  1  0.44650500  0.39477300  0.28601600  1
  O  O33  1  0.01298500  0.56025000  0.90256700  1
  O  O34  1  0.70092100  0.12496600  0.58163500  1
  O  O35  1  0.66501000  0.48914600  0.89725100  1
  O  O36  1  0.20874400  0.40231200  0.38526600  1
  O  O37  1  0.81873800  0.77126700  0.43122300  1
  O  O38  1  0.94109100  0.88495700  0.28856500  1
  O  O39  1  0.80905500  0.22312100  0.12795400  1
  O  O40  1  0.57599400  0.41235300  0.11238700  1
  O  O41  1  0.68040700  0.92210900  0.75621500  1
  O  O42  1  0.46353600  0.76725400  0.55967700  1
  O  O43  1  0.74443200  0.05409500  0.94132500  1
  O  O44  1  0.03845500  0.46943900  0.26097000  1
  O  O45  1  0.51085400  0.33499000  0.60274900  1
  O  O46  1  0.14953500  0.24035700  0.34358500  1
  O  O47  1  0.55349500  0.60522700  0.71398400  1
  O  O48  1  0.29873300  0.90166200  0.73082100  1
  O  O49  1  0.88495700  0.94109100  0.78856500  1
  O  O50  1  0.70126700  0.09833800  0.26917900  1
  O  O51  1  0.94263900  0.07464400  0.87902600  1
  O  O52  1  0.04297700  0.14354300  0.02403900  1
  O  O53  1  0.01160100  0.83860000  0.60235000  1
  O  O54  1  0.60631200  0.19305500  0.76698800  1
  O  O55  1  0.63617100  0.54407800  0.52510600  1
  O  O56  1  0.12496600  0.70092100  0.08163500  1
  O  O57  1  0.98701500  0.43975000  0.09743300  1
  O  O58  1  0.41976100  0.98637700  0.06587600  1
  O  O59  1  0.87503400  0.29907900  0.91836500  1
  O  O60  1  0.46943900  0.03845500  0.76097000  1
  O  O61  1  0.33499000  0.51085400  0.10274900  1
  O  O62  1  0.05409500  0.74443200  0.44132500  1
  O  O63  1  0.79125600  0.59768800  0.61473400  1
  O  O64  1  0.80694500  0.39368800  0.73301200  1
  O  O65  1  0.85046500  0.75964300  0.65641500  1
  O  O66  1  0.26690500  0.34273100  0.19613900  1
  O  O67  1  0.92535600  0.05736100  0.62097400  1
  O  O68  1  0.37634400  0.80420400  0.91377100  1
  O  O69  1  0.43706400  0.19004700  0.28524300  1
  O  O70  1  0.07789100  0.31959300  0.74378500  1
  O  O71  1  0.96154500  0.53056100  0.73903000  1
  O  O72  1  0.43825900  0.18486900  0.08134700  1
  O  O73  1  0.05736100  0.92535600  0.12097400  1
  O  O74  1  0.53056100  0.96154500  0.23903000  1
  O  O75  1  0.73309500  0.65726900  0.80386100  1
  O  O76  1  0.34467400  0.04439800  0.42295900  1
  O  O77  1  0.71863300  0.31483100  0.62776000  1
  O  O78  1  0.80420400  0.37634400  0.41377100  1
  O  O79  1  0.24035700  0.14953500  0.84358500  1
  O  O80  1  0.53646400  0.23274600  0.44032300  1
  O  O81  1  0.65726900  0.73309500  0.30386100  1
  O  O82  1  0.54407800  0.63617100  0.02510600  1
  O  O83  1  0.22873300  0.18126200  0.06877700  1
  O  O84  1  0.83860000  0.01160100  0.10235000  1
  O  O85  1  0.23274600  0.53646400  0.94032300  1
  O  O86  1  0.75964300  0.85046500  0.15641500  1
  O  O87  1  0.45592200  0.36382900  0.97489400  1
  O  O88  1  0.25556800  0.94590500  0.05867500  1
  O  O89  1  0.60522700  0.55349500  0.21398400  1
  O  O90  1  0.14354300  0.04297700  0.52403900  1
  O  O91  1  0.77126700  0.81873800  0.93122300  1
  O  O92  1  0.58023900  0.01362300  0.93412400  1
  O  O93  1  0.81513100  0.56174100  0.41865300  1
  O  O94  1  0.62365600  0.19579600  0.08622900  1
  O  O95  1  0.22312100  0.80905500  0.62795400  1
  O  O96  1  0.98637700  0.41976100  0.56587600  1
  O  O97  1  0.98839900  0.16140000  0.39765000  1
  O  O98  1  0.07464400  0.94263900  0.37902600  1
  O  O99  1  0.31959300  0.07789100  0.24378500  1
  O  O100  1  0.29907900  0.87503400  0.41836500  1
  O  O101  1  0.68516900  0.28136700  0.87224000  1
  O  O102  1  0.76725400  0.46353600  0.05967700  1
  O  O103  1  0.95560200  0.65532600  0.07704100  1
  O  O104  1  0.42400600  0.58764700  0.88761300  1
  O  O105  1  0.04439800  0.34467400  0.92295900  1
  O  O106  1  0.59768800  0.79125600  0.11473400  1
  O  O107  1  0.19094500  0.77687900  0.87204600  1
loop_
_geom_bond_atom_site_label_1
_geom_bond_atom_site_label_2
_geom_bond_distance
_geom_bond_site_symmetry_2
Gd0 O15 2.321252 1_555
Gd0 O62 2.324591 1_555
Gd0 O1 2.395816 1_555
Gd0 O24 2.399165 1_555
Gd0 O19 2.427487 1_555
Gd0 O36 2.471815 1_555
Gd0 O29 2.473088 1_555
Gd0 O25 2.495687 1_555
Gd1 O35 2.359672 1_555
Gd1 O75 2.394173 1_555
Gd1 O104 2.395877 1_555
Gd1 O47 2.401306 1_555
Gd1 O82 2.411538 1_556
Gd1 O12 2.449538 1_555
Gd1 O68 2.465425 1_555
Gd1 O22 2.509499 1_555
Gd2 O85 2.283756 1_555
Gd2 O11 2.335169 1_555
Gd2 O107 2.352129 1_555
Gd2 O8 2.364982 1_455
Gd2 O33 2.395544 1_555
Gd2 O103 2.433973 1_456
Gd2 O56 2.460140 1_556
Gd3 O53 2.358291 1_655
Gd3 O5 2.378432 1_555
Gd3 O49 2.386706 1_555
Gd3 O41 2.393968 1_555
Gd3 O65 2.398122 1_555
Gd3 O67 2.400285 1_565
Gd3 O34 2.494434 1_565
Gd3 O30 2.700171 1_555
Gd4 O97 2.358291 1_455
Gd4 O90 2.378432 1_555
Gd4 O31 2.386706 1_555
Gd4 O99 2.393968 1_555
Gd4 O46 2.398122 1_555
Gd4 O98 2.400285 1_545
Gd4 O100 2.494434 1_545
Gd4 O76 2.700171 1_555
Gd5 O102 2.283756 1_555
Gd5 O7 2.335169 1_555
Gd5 O39 2.352129 1_555
Gd5 O52 2.364982 1_655
Gd5 O57 2.395544 1_555
Gd5 O105 2.433973 1_654
Gd5 O59 2.460140 1_554
Gd6 O61 2.359672 1_555
Gd6 O66 2.394173 1_555
Gd6 O40 2.395877 1_555
Gd6 O32 2.401306 1_555
Gd6 O87 2.411538 1_554
Gd6 O72 2.449538 1_555
Gd6 O94 2.465425 1_555
Gd6 O69 2.509499 1_555
Gd7 O27 2.358291 1_545
Gd7 O52 2.378432 1_556
Gd7 O26 2.386706 1_555
Gd7 O70 2.393968 1_555
Gd7 O79 2.398122 1_555
Gd7 O51 2.400285 1_455
Gd7 O59 2.494434 1_455
Gd7 O105 2.700171 1_555
Gd8 O20 2.359672 1_555
Gd8 O81 2.394173 1_555
Gd8 O16 2.395877 1_555
Gd8 O89 2.401306 1_555
Gd8 O55 2.411538 1_555
Gd8 O93 2.449538 1_555
Gd8 O78 2.465425 1_555
Gd8 O10 2.509499 1_555
Gd9 O58 2.321252 1_555
Gd9 O88 2.324591 1_555
Gd9 O17 2.395816 1_555
Gd9 O18 2.399165 1_555
Gd9 O82 2.427487 1_555
Gd9 O106 2.471815 1_555
Gd9 O12 2.473088 1_554
Gd9 O68 2.495687 1_554
Gd10 O84 2.358291 1_565
Gd10 O8 2.378432 1_554
Gd10 O38 2.386706 1_555
Gd10 O9 2.393968 1_555
Gd10 O86 2.398122 1_555
Gd10 O73 2.400285 1_655
Gd10 O56 2.494434 1_655
Gd10 O103 2.700171 1_555
Gd11 O96 2.321252 1_555
Gd11 O21 2.324591 1_555
Gd11 O77 2.395816 1_555
Gd11 O64 2.399165 1_555
Gd11 O55 2.427487 1_555
Gd11 O63 2.471815 1_555
Gd11 O93 2.473088 1_555
Gd11 O78 2.495687 1_555
Gd12 O42 2.283756 1_555
Gd12 O48 2.335169 1_555
Gd12 O95 2.352129 1_555
Gd12 O90 2.364982 1_565
Gd12 O14 2.395544 1_555
Gd12 O76 2.433973 1_565
Gd12 O100 2.460140 1_555
Gd13 O92 2.321252 1_555
Gd13 O43 2.324591 1_555
Gd13 O101 2.395816 1_555
Gd13 O54 2.399165 1_555
Gd13 O87 2.427487 1_555
Gd13 O4 2.471815 1_555
Gd13 O72 2.473088 1_556
Gd13 O94 2.495687 1_556
Gd14 O45 2.359672 1_555
Gd14 O2 2.394173 1_555
Gd14 O6 2.395877 1_555
Gd14 O0 2.401306 1_555
Gd14 O19 2.411538 1_555
Gd14 O29 2.449538 1_555
Gd14 O25 2.465425 1_555
Gd14 O3 2.509499 1_555
Gd15 O80 2.283756 1_555
Gd15 O50 2.335169 1_555
Gd15 O28 2.352129 1_555
Gd15 O5 2.364982 1_545
Gd15 O23 2.395544 1_555
Gd15 O30 2.433973 1_545
Gd15 O34 2.460140 1_555
Mo0 O63 1.764530 1_555
Mo0 O65 1.768676 1_555
Mo0 O75 1.770872 1_555
Mo0 O71 1.885521 1_555
Mo1 O13 1.735360 1_555
Mo1 O96 1.780993 1_455
Mo1 O29 1.834854 1_555
Mo1 O70 1.854215 1_555
Mo2 O84 1.778589 1_555
Mo2 O39 1.779989 1_555
Mo2 O50 1.787430 1_555
Mo2 O94 1.832869 1_555
Mo3 O3 1.758175 1_555
Mo3 O33 1.768711 1_555
Mo3 O105 1.806109 1_555
Mo3 O71 1.941460 1_455
Mo3 O70 2.396080 1_555
Mo4 O101 1.771457 1_555
Mo4 O64 1.783830 1_555
Mo4 O35 1.791027 1_555
Mo4 O59 1.839252 1_555
Mo5 O62 1.769638 1_655
Mo5 O98 1.772201 1_655
Mo5 O38 1.789642 1_555
Mo5 O5 1.869033 1_555
Mo6 O83 1.735360 1_555
Mo6 O58 1.780993 1_545
Mo6 O72 1.834854 1_555
Mo6 O99 1.854215 1_555
Mo7 O16 1.775542 1_555
Mo7 O32 1.780501 1_555
Mo7 O80 1.801645 1_555
Mo7 O19 1.842016 1_555
Mo8 O97 1.778589 1_555
Mo8 O28 1.779989 1_555
Mo8 O7 1.787430 1_555
Mo8 O78 1.832869 1_555
Mo9 O4 1.764530 1_555
Mo9 O79 1.768676 1_555
Mo9 O2 1.770872 1_555
Mo9 O60 1.885521 1_555
Mo10 O69 1.758175 1_555
Mo10 O23 1.768711 1_555
Mo10 O76 1.806109 1_555
Mo10 O74 1.941460 1_545
Mo10 O99 2.396080 1_555
Mo11 O27 1.778589 1_555
Mo11 O107 1.779989 1_555
Mo11 O48 1.787430 1_555
Mo11 O68 1.832869 1_555
Mo12 O36 1.764530 1_555
Mo12 O46 1.768676 1_555
Mo12 O66 1.770872 1_555
Mo12 O44 1.885521 1_555
Mo13 O53 1.778589 1_555
Mo13 O95 1.779989 1_555
Mo13 O11 1.787430 1_555
Mo13 O25 1.832869 1_555
Mo14 O17 1.771457 1_555
Mo14 O24 1.783830 1_555
Mo14 O61 1.791027 1_555
Mo14 O56 1.839252 1_555
Mo15 O77 1.771457 1_555
Mo15 O54 1.783830 1_555
Mo15 O45 1.791027 1_555
Mo15 O34 1.839252 1_555
Mo16 O21 1.769638 1_455
Mo16 O67 1.772201 1_455
Mo16 O26 1.789642 1_555
Mo16 O90 1.869033 1_555
Mo17 O37 1.735360 1_555
Mo17 O15 1.780993 1_655
Mo17 O93 1.834854 1_555
Mo17 O9 1.854215 1_555
Mo18 O22 1.758175 1_555
Mo18 O14 1.768711 1_555
Mo18 O30 1.806109 1_555
Mo18 O60 1.941460 1_565
Mo18 O41 2.396080 1_555
Mo19 O43 1.769638 1_565
Mo19 O51 1.772201 1_565
Mo19 O49 1.789642 1_555
Mo19 O8 1.869033 1_555
Mo20 O6 1.775542 1_555
Mo20 O47 1.780501 1_555
Mo20 O42 1.801645 1_555
Mo20 O55 1.842016 1_555
Mo21 O104 1.775542 1_555
Mo21 O0 1.780501 1_555
Mo21 O85 1.801645 1_555
Mo21 O87 1.842016 1_555
Mo22 O88 1.769638 1_545
Mo22 O73 1.772201 1_545
Mo22 O31 1.789642 1_555
Mo22 O52 1.869033 1_555
Mo23 O106 1.764530 1_555
Mo23 O86 1.768676 1_555
Mo23 O81 1.770872 1_555
Mo23 O74 1.885521 1_555
Mo24 O1 1.771457 1_555
Mo24 O18 1.783830 1_555
Mo24 O20 1.791027 1_555
Mo24 O100 1.839252 1_555
Mo25 O40 1.775542 1_555
Mo25 O89 1.780501 1_555
Mo25 O102 1.801645 1_555
Mo25 O82 1.842016 1_555
Mo26 O10 1.758175 1_555
Mo26 O57 1.768711 1_555
Mo26 O103 1.806109 1_555
Mo26 O44 1.941460 1_655
Mo26 O9 2.396080 1_555
Mo27 O91 1.735360 1_555
Mo27 O92 1.780993 1_565
Mo27 O12 1.834854 1_555
Mo27 O41 1.854215 1_555
