# generated using pymatgen
data_Li5Fe11O16
_symmetry_space_group_name_H-M   'P 1'
_cell_length_a   6.04228000
_cell_length_b   6.06178450
_cell_length_c   10.34278076
_cell_angle_alpha   74.03101492
_cell_angle_beta   74.00100702
_cell_angle_gamma   60.51765124
_symmetry_Int_Tables_number   1
_chemical_formula_structural   Li5Fe11O16
_chemical_formula_sum   'Li5 Fe11 O16'
_cell_volume   312.56284470
_cell_formula_units_Z   1
loop_
 _symmetry_equiv_pos_site_id
 _symmetry_equiv_pos_as_xyz
  1  'x, y, z'
loop_
 _atom_site_type_symbol
 _atom_site_label
 _atom_site_symmetry_multiplicity
 _atom_site_fract_x
 _atom_site_fract_y
 _atom_site_fract_z
 _atom_site_occupancy
  Li  Li0  1  0.31270800  0.81106800  0.06219500  1
  Li  Li1  1  0.81304900  0.31383500  0.06237000  1
  Li  Li2  1  0.31291000  0.81143500  0.56389000  1
  Li  Li3  1  0.81481700  0.81289400  0.06042700  1
  Li  Li4  1  0.81358600  0.31389800  0.56380200  1
  Fe  Fe0  1  0.32643700  0.31233600  0.06045000  1
  Fe  Fe1  1  0.06274200  0.06100000  0.31315200  1
  Fe  Fe2  1  0.05321400  0.56723100  0.81761600  1
  Fe  Fe3  1  0.56869400  0.06209300  0.30769000  1
  Fe  Fe4  1  0.06321300  0.56690800  0.30847700  1
  Fe  Fe5  1  0.81059900  0.81454800  0.55912400  1
  Fe  Fe6  1  0.05357900  0.05742300  0.82118600  1
  Fe  Fe7  1  0.31204400  0.30644300  0.56631900  1
  Fe  Fe8  1  0.57137100  0.56899400  0.30889000  1
  Fe  Fe9  1  0.56097200  0.56062900  0.81266900  1
  Fe  Fe10  1  0.56349100  0.05681400  0.81812300  1
  O  O0  1  0.42139800  0.94029900  0.19179900  1
  O  O1  1  0.21075300  0.68374600  0.43276000  1
  O  O2  1  0.18295300  0.21040600  0.94071500  1
  O  O3  1  0.68682100  0.68518400  0.43479500  1
  O  O4  1  0.94074600  0.93787500  0.20208100  1
  O  O5  1  0.42499100  0.42824300  0.69243300  1
  O  O6  1  0.44077400  0.44093900  0.18588500  1
  O  O7  1  0.19585700  0.19568600  0.43197300  1
  O  O8  1  0.95841200  0.43319000  0.68364100  1
  O  O9  1  0.42111800  0.95691900  0.68035300  1
  O  O10  1  0.94076400  0.41774300  0.19499900  1
  O  O11  1  0.18540700  0.66816900  0.94231800  1
  O  O12  1  0.68142600  0.18751500  0.94656500  1
  O  O13  1  0.68471800  0.20820300  0.43475800  1
  O  O14  1  0.94379000  0.91271300  0.69021800  1
  O  O15  1  0.69554500  0.68691300  0.92504200  1
loop_
_geom_bond_atom_site_label_1
_geom_bond_atom_site_label_2
_geom_bond_distance
_geom_bond_site_symmetry_2
Li0 O0 2.100305 1_555
Li0 O6 2.127620 1_555
Li0 O11 2.156790 1_554
Li0 O4 2.203256 1_455
Li0 O15 2.234858 1_554
Li0 O2 2.248225 1_564
Li1 O12 2.069445 1_554
Li1 O10 2.100315 1_555
Li1 O2 2.115726 1_654
Li1 O6 2.130025 1_555
Li1 O15 2.200897 1_554
Li1 O4 2.224616 1_545
Li2 O9 2.059699 1_555
Li2 O1 2.080603 1_555
Li2 O14 2.132051 1_455
Li2 O3 2.161077 1_555
Li2 O5 2.206900 1_555
Li2 O7 2.224616 1_565
Li3 O11 2.103367 1_654
Li3 O12 2.107959 1_564
Li3 O15 2.179373 1_554
Li3 O0 2.254624 1_555
Li3 O4 2.256573 1_555
Li3 O10 2.282349 1_555
Li4 O13 2.081493 1_555
Li4 O8 2.130464 1_555
Li4 O3 2.155602 1_555
Li4 O7 2.209085 1_655
Li4 O5 2.224186 1_555
Li4 O14 2.275266 1_545
Fe0 O12 2.015166 1_554
Fe0 O11 2.046010 1_554
Fe0 O2 2.051139 1_554
Fe0 O6 2.085373 1_555
Fe0 O0 2.175080 1_545
Fe0 O10 2.238603 1_455
Fe1 O4 1.974897 1_445
Fe1 O10 2.046111 1_455
Fe1 O0 2.062090 1_545
Fe1 O7 2.137082 1_555
Fe1 O1 2.144751 1_545
Fe1 O13 2.150139 1_455
Fe2 O15 2.001989 1_455
Fe2 O14 2.039151 1_455
Fe2 O11 2.039372 1_555
Fe2 O2 2.068808 1_555
Fe2 O8 2.103235 1_455
Fe2 O5 2.136922 1_555
Fe3 O4 2.060721 1_545
Fe3 O0 2.120296 1_545
Fe3 O7 2.136340 1_555
Fe3 O6 2.157790 1_555
Fe3 O3 2.171895 1_545
Fe3 O13 2.182351 1_555
Fe4 O4 2.065103 1_455
Fe4 O10 2.112731 1_455
Fe4 O7 2.131926 1_555
Fe4 O6 2.149129 1_555
Fe4 O3 2.160032 1_455
Fe4 O1 2.168590 1_555
Fe5 O14 2.087337 1_555
Fe5 O3 2.118991 1_555
Fe5 O8 2.182637 1_555
Fe5 O9 2.196568 1_555
Fe5 O13 2.234090 1_565
Fe5 O1 2.263631 1_655
Fe6 O12 2.137697 1_455
Fe6 O14 2.183197 1_445
Fe6 O9 2.190455 1_545
Fe6 O11 2.201179 1_545
Fe6 O2 2.208276 1_555
Fe6 O8 2.218465 1_455
Fe7 O9 1.998376 1_545
Fe7 O8 2.023906 1_455
Fe7 O5 2.056411 1_555
Fe7 O7 2.095073 1_555
Fe7 O13 2.171098 1_555
Fe7 O1 2.205345 1_555
Fe8 O3 2.041432 1_555
Fe8 O1 2.081511 1_555
Fe8 O10 2.083404 1_555
Fe8 O13 2.097015 1_555
Fe8 O0 2.109807 1_555
Fe8 O6 2.131541 1_555
Fe9 O15 2.054554 1_555
Fe9 O5 2.151029 1_555
Fe9 O11 2.172585 1_555
Fe9 O12 2.185148 1_555
Fe9 O8 2.262574 1_555
Fe9 O9 2.277736 1_555
Fe10 O15 2.061132 1_545
Fe10 O12 2.134701 1_555
Fe10 O5 2.143407 1_555
Fe10 O2 2.167180 1_555
Fe10 O14 2.185797 1_545
Fe10 O9 2.190974 1_545
