# generated using pymatgen
data_Rb(WO3)2
_symmetry_space_group_name_H-M   'P 1'
_cell_length_a   7.42152973
_cell_length_b   7.42152973
_cell_length_c   7.42152973
_cell_angle_alpha   60.00000000
_cell_angle_beta   60.00000000
_cell_angle_gamma   60.00000000
_symmetry_Int_Tables_number   1
_chemical_formula_structural   Rb(WO3)2
_chemical_formula_sum   'Rb2 W4 O12'
_cell_volume   289.04489075
_cell_formula_units_Z   2
loop_
 _symmetry_equiv_pos_site_id
 _symmetry_equiv_pos_as_xyz
  1  'x, y, z'
loop_
 _atom_site_type_symbol
 _atom_site_label
 _atom_site_symmetry_multiplicity
 _atom_site_fract_x
 _atom_site_fract_y
 _atom_site_fract_z
 _atom_site_occupancy
  Rb  Rb0  1  0.75000000  0.75000000  0.75000000  1
  Rb  Rb1  1  0.50000000  0.50000000  0.50000000  1
  W  W0  1  0.12500000  0.12500000  0.12500000  1
  W  W1  1  0.62500000  0.12500000  0.12500000  1
  W  W2  1  0.12500000  0.62500000  0.12500000  1
  W  W3  1  0.12500000  0.12500000  0.62500000  1
  O  O0  1  0.06367500  0.43632500  0.43632500  1
  O  O1  1  0.81367500  0.81367500  0.18632500  1
  O  O2  1  0.81367500  0.18632500  0.18632500  1
  O  O3  1  0.06367500  0.43632500  0.06367500  1
  O  O4  1  0.06367500  0.06367500  0.43632500  1
  O  O5  1  0.43632500  0.06367500  0.43632500  1
  O  O6  1  0.18632500  0.18632500  0.81367500  1
  O  O7  1  0.18632500  0.81367500  0.18632500  1
  O  O8  1  0.81367500  0.18632500  0.81367500  1
  O  O9  1  0.43632500  0.06367500  0.06367500  1
  O  O10  1  0.43632500  0.43632500  0.06367500  1
  O  O11  1  0.18632500  0.81367500  0.81367500  1
loop_
_geom_bond_atom_site_label_1
_geom_bond_atom_site_label_2
_geom_bond_distance
_geom_bond_site_symmetry_2
O0 W3 1.963854 1_555
O0 W2 1.963854 1_555
O0 Rb0 3.292216 1_455
O1 W1 1.963854 1_565
O1 W2 1.963854 1_655
O1 Rb1 3.292216 1_555
O2 W1 1.963854 1_555
O2 W0 1.963854 1_655
O2 Rb1 3.292216 1_555
O3 W0 1.963854 1_555
O3 W2 1.963854 1_555
O3 Rb0 3.292216 1_454
O4 W0 1.963854 1_555
O4 W3 1.963854 1_555
O4 Rb0 3.292216 1_445
O5 W3 1.963854 1_555
O5 W1 1.963854 1_555
O5 Rb0 3.292216 1_545
O6 W3 1.963854 1_555
O6 W0 1.963854 1_556
O6 Rb1 3.292216 1_555
O7 W2 1.963854 1_555
O7 W0 1.963854 1_565
O7 Rb1 3.292216 1_555
O8 W3 1.963854 1_655
O8 W1 1.963854 1_556
O8 Rb1 3.292216 1_555
O9 W0 1.963854 1_555
O9 W1 1.963854 1_555
O9 Rb0 3.292216 1_544
O10 W1 1.963854 1_555
O10 W2 1.963854 1_555
O10 Rb0 3.292216 1_554
O11 W2 1.963854 1_556
O11 W3 1.963854 1_565
O11 Rb1 3.292216 1_555
