# generated using pymatgen
data_Li5FeHO4
_symmetry_space_group_name_H-M   'P 1'
_cell_length_a   8.95424900
_cell_length_b   9.13780900
_cell_length_c   10.81370900
_cell_angle_alpha   90.00000000
_cell_angle_beta   90.00000000
_cell_angle_gamma   90.00000000
_symmetry_Int_Tables_number   1
_chemical_formula_structural   Li5FeHO4
_chemical_formula_sum   'Li40 Fe8 H8 O32'
_cell_volume   884.80164546
_cell_formula_units_Z   8
loop_
 _symmetry_equiv_pos_site_id
 _symmetry_equiv_pos_as_xyz
  1  'x, y, z'
loop_
 _atom_site_type_symbol
 _atom_site_label
 _atom_site_symmetry_multiplicity
 _atom_site_fract_x
 _atom_site_fract_y
 _atom_site_fract_z
 _atom_site_occupancy
  Li  Li0  1  0.98159200  0.58472900  0.20196600  1
  Li  Li1  1  0.98159200  0.91527100  0.20196600  1
  Li  Li2  1  0.07405700  0.06592200  0.42885500  1
  Li  Li3  1  0.07405700  0.43407800  0.42885500  1
  Li  Li4  1  0.07843200  0.75000000  0.43161200  1
  Li  Li5  1  0.11809900  0.25000000  0.97692100  1
  Li  Li6  1  0.10796300  0.56912600  0.98658500  1
  Li  Li7  1  0.10796300  0.93087400  0.98658500  1
  Li  Li8  1  0.20501800  0.58807500  0.61993700  1
  Li  Li9  1  0.20501800  0.91192500  0.61993700  1
  Li  Li10  1  0.29498200  0.08807500  0.11993700  1
  Li  Li11  1  0.29498200  0.41192500  0.11993700  1
  Li  Li12  1  0.39203700  0.06912600  0.48658500  1
  Li  Li13  1  0.39203700  0.43087400  0.48658500  1
  Li  Li14  1  0.38190100  0.75000000  0.47692100  1
  Li  Li15  1  0.42156800  0.25000000  0.93161200  1
  Li  Li16  1  0.42594300  0.56592200  0.92885500  1
  Li  Li17  1  0.42594300  0.93407800  0.92885500  1
  Li  Li18  1  0.51840800  0.08472900  0.70196600  1
  Li  Li19  1  0.51840800  0.41527100  0.70196600  1
  Li  Li20  1  0.48159200  0.58472900  0.29803400  1
  Li  Li21  1  0.48159200  0.91527100  0.29803400  1
  Li  Li22  1  0.57405700  0.06592200  0.07114500  1
  Li  Li23  1  0.57405700  0.43407800  0.07114500  1
  Li  Li24  1  0.57843200  0.75000000  0.06838800  1
  Li  Li25  1  0.61809900  0.25000000  0.52307900  1
  Li  Li26  1  0.60796300  0.56912600  0.51341500  1
  Li  Li27  1  0.60796300  0.93087400  0.51341500  1
  Li  Li28  1  0.70501800  0.58807500  0.88006300  1
  Li  Li29  1  0.70501800  0.91192500  0.88006300  1
  Li  Li30  1  0.79498200  0.08807500  0.38006300  1
  Li  Li31  1  0.79498200  0.41192500  0.38006300  1
  Li  Li32  1  0.89203700  0.06912600  0.01341500  1
  Li  Li33  1  0.89203700  0.43087400  0.01341500  1
  Li  Li34  1  0.88190100  0.75000000  0.02307900  1
  Li  Li35  1  0.92156800  0.25000000  0.56838800  1
  Li  Li36  1  0.92594300  0.93407800  0.57114500  1
  Li  Li37  1  0.92594300  0.56592200  0.57114500  1
  Li  Li38  1  0.01840800  0.08472900  0.79803400  1
  Li  Li39  1  0.01840800  0.41527100  0.79803400  1
  Fe  Fe0  1  0.02262100  0.25000000  0.21818100  1
  Fe  Fe1  1  0.21085400  0.25000000  0.62447300  1
  Fe  Fe2  1  0.28914600  0.75000000  0.12447300  1
  Fe  Fe3  1  0.47737900  0.75000000  0.71818100  1
  Fe  Fe4  1  0.52262100  0.25000000  0.28181900  1
  Fe  Fe5  1  0.71085400  0.25000000  0.87552700  1
  Fe  Fe6  1  0.78914600  0.75000000  0.37552700  1
  Fe  Fe7  1  0.97737900  0.75000000  0.78181900  1
  H  H0  1  0.22536900  0.58286000  0.31527000  1
  H  H1  1  0.22536900  0.91714000  0.31527000  1
  H  H2  1  0.27463100  0.08286000  0.81527000  1
  H  H3  1  0.27463100  0.41714000  0.81527000  1
  H  H4  1  0.72536900  0.58286000  0.18473000  1
  H  H5  1  0.72536900  0.91714000  0.18473000  1
  H  H6  1  0.77463100  0.08286000  0.68473000  1
  H  H7  1  0.77463100  0.41714000  0.68473000  1
  O  O0  1  0.05457400  0.75000000  0.61605300  1
  O  O1  1  0.07437800  0.41724700  0.12056700  1
  O  O2  1  0.07437800  0.08275300  0.12056700  1
  O  O3  1  0.07892000  0.41557800  0.61897200  1
  O  O4  1  0.07892000  0.08442200  0.61897200  1
  O  O5  1  0.07738500  0.75000000  0.10737800  1
  O  O6  1  0.24382000  0.07445200  0.90250100  1
  O  O7  1  0.24382000  0.42554800  0.90250100  1
  O  O8  1  0.25618000  0.57445200  0.40250100  1
  O  O9  1  0.25618000  0.92554800  0.40250100  1
  O  O10  1  0.42261500  0.25000000  0.60737800  1
  O  O11  1  0.42108000  0.58442200  0.11897200  1
  O  O12  1  0.42108000  0.91557800  0.11897200  1
  O  O13  1  0.42562200  0.58275300  0.62056700  1
  O  O14  1  0.42562200  0.91724700  0.62056700  1
  O  O15  1  0.44542600  0.25000000  0.11605300  1
  O  O16  1  0.55457400  0.75000000  0.88394700  1
  O  O17  1  0.57437800  0.08275300  0.37943300  1
  O  O18  1  0.57437800  0.41724700  0.37943300  1
  O  O19  1  0.57892000  0.08442200  0.88102800  1
  O  O20  1  0.57892000  0.41557800  0.88102800  1
  O  O21  1  0.57738500  0.75000000  0.39262200  1
  O  O22  1  0.74382000  0.07445200  0.59749900  1
  O  O23  1  0.74382000  0.42554800  0.59749900  1
  O  O24  1  0.75618000  0.57445200  0.09749900  1
  O  O25  1  0.75618000  0.92554800  0.09749900  1
  O  O26  1  0.92261500  0.25000000  0.89262200  1
  O  O27  1  0.92108000  0.91557800  0.38102800  1
  O  O28  1  0.92108000  0.58442200  0.38102800  1
  O  O29  1  0.92562200  0.91724700  0.87943300  1
  O  O30  1  0.92562200  0.58275300  0.87943300  1
  O  O31  1  0.94542600  0.25000000  0.38394700  1
loop_
_geom_bond_atom_site_label_1
_geom_bond_atom_site_label_2
_geom_bond_distance
_geom_bond_site_symmetry_2
Li0 O1 1.951219 1_655
Li0 O28 2.010709 1_555
Li0 O5 2.015616 1_655
Li1 O2 1.951219 1_665
Li1 O27 2.010709 1_555
Li1 O5 2.015616 1_655
Li2 O27 2.007781 1_445
Li2 O4 2.063268 1_555
Li2 O9 2.094275 1_545
Li2 O31 2.095666 1_455
Li3 O28 2.007781 1_455
Li3 O3 2.063268 1_555
Li3 O8 2.094275 1_555
Li3 O31 2.095666 1_455
Li4 O0 2.005900 1_555
Li4 O27 2.138605 1_455
Li4 O28 2.138605 1_455
Li4 O8 2.281557 1_555
Li4 O9 2.281557 1_555
Li5 O26 1.973558 1_455
Li5 O7 2.118521 1_555
Li5 O6 2.118521 1_555
Li5 O2 2.213992 1_556
Li5 O1 2.213992 1_556
Li6 O30 2.005969 1_455
Li6 O7 2.006971 1_555
Li6 O1 2.028715 1_556
Li6 O5 2.124359 1_556
Li7 O29 2.005969 1_455
Li7 O6 2.006971 1_565
Li7 O2 2.028715 1_566
Li7 O5 2.124359 1_556
Li8 O3 1.938956 1_555
Li8 O13 1.975953 1_555
Li8 O0 2.001452 1_555
Li8 O8 2.398735 1_555
Li9 O4 1.938956 1_565
Li9 O14 1.975953 1_555
Li9 O0 2.001452 1_555
Li9 O9 2.398735 1_555
Li10 O12 1.938956 1_545
Li10 O2 1.975953 1_555
Li10 O15 2.001452 1_555
Li10 O6 2.398735 1_554
Li11 O11 1.938956 1_555
Li11 O1 1.975953 1_555
Li11 O15 2.001452 1_555
Li11 O7 2.398735 1_554
Li12 O17 2.005969 1_555
Li12 O9 2.006971 1_545
Li12 O14 2.028715 1_545
Li12 O10 2.124359 1_555
Li13 O18 2.005969 1_555
Li13 O8 2.006971 1_555
Li13 O13 2.028715 1_555
Li13 O10 2.124359 1_555
Li14 O21 1.973558 1_555
Li14 O8 2.118521 1_555
Li14 O9 2.118521 1_555
Li14 O13 2.213992 1_555
Li14 O14 2.213992 1_555
Li15 O15 2.005900 1_556
Li15 O19 2.138605 1_555
Li15 O20 2.138605 1_555
Li15 O7 2.281557 1_555
Li15 O6 2.281557 1_555
Li16 O20 2.007781 1_555
Li16 O11 2.063268 1_556
Li16 O7 2.094275 1_555
Li16 O16 2.095666 1_555
Li17 O19 2.007781 1_565
Li17 O12 2.063268 1_556
Li17 O6 2.094275 1_565
Li17 O16 2.095666 1_555
Li18 O14 1.951219 1_545
Li18 O19 2.010709 1_555
Li18 O10 2.015616 1_555
Li19 O13 1.951219 1_555
Li19 O20 2.010709 1_555
Li19 O10 2.015616 1_555
Li20 O18 1.951219 1_555
Li20 O11 2.010709 1_555
Li20 O21 2.015616 1_555
Li21 O17 1.951219 1_565
Li21 O12 2.010709 1_555
Li21 O21 2.015616 1_555
Li22 O12 2.007781 1_545
Li22 O19 2.063268 1_554
Li22 O25 2.094275 1_545
Li22 O15 2.095666 1_555
Li23 O11 2.007781 1_555
Li23 O20 2.063268 1_554
Li23 O24 2.094275 1_555
Li23 O15 2.095666 1_555
Li24 O16 2.005900 1_554
Li24 O11 2.138605 1_555
Li24 O12 2.138605 1_555
Li24 O24 2.281557 1_555
Li24 O25 2.281557 1_555
Li25 O10 1.973558 1_555
Li25 O23 2.118521 1_555
Li25 O22 2.118521 1_555
Li25 O17 2.213992 1_555
Li25 O18 2.213992 1_555
Li26 O13 2.005969 1_555
Li26 O23 2.006971 1_555
Li26 O18 2.028715 1_555
Li26 O21 2.124359 1_555
Li27 O14 2.005969 1_555
Li27 O22 2.006971 1_565
Li27 O17 2.028715 1_565
Li27 O21 2.124359 1_555
Li28 O20 1.938956 1_555
Li28 O30 1.975953 1_555
Li28 O16 2.001452 1_555
Li28 O24 2.398735 1_556
Li29 O19 1.938956 1_565
Li29 O29 1.975953 1_555
Li29 O16 2.001452 1_555
Li29 O25 2.398735 1_556
Li30 O27 1.938956 1_545
Li30 O17 1.975953 1_555
Li30 O31 2.001452 1_555
Li30 O22 2.398735 1_555
Li31 O28 1.938956 1_555
Li31 O18 1.975953 1_555
Li31 O31 2.001452 1_555
Li31 O23 2.398735 1_555
Li32 O2 2.005969 1_655
Li32 O25 2.006971 1_545
Li32 O29 2.028715 1_544
Li32 O26 2.124359 1_554
Li33 O1 2.005969 1_655
Li33 O24 2.006971 1_555
Li33 O30 2.028715 1_554
Li33 O26 2.124359 1_554
Li34 O5 1.973558 1_655
Li34 O24 2.118521 1_555
Li34 O25 2.118521 1_555
Li34 O29 2.213992 1_554
Li34 O30 2.213992 1_554
Li35 O31 2.005900 1_555
Li35 O4 2.138605 1_655
Li35 O3 2.138605 1_655
Li35 O23 2.281557 1_555
Li35 O22 2.281557 1_555
Li36 O4 2.007781 1_665
Li36 O27 2.063268 1_555
Li36 O22 2.094275 1_565
Li36 O0 2.095666 1_655
Li37 O3 2.007781 1_655
Li37 O28 2.063268 1_555
Li37 O23 2.094275 1_555
Li37 O0 2.095666 1_655
Li38 O29 1.951219 1_445
Li38 O4 2.010709 1_555
Li38 O26 2.015616 1_455
Li39 O30 1.951219 1_455
Li39 O3 2.010709 1_555
Li39 O26 2.015616 1_455
Fe0 O2 1.914320 1_555
Fe0 O1 1.914320 1_555
Fe0 O31 1.921200 1_455
Fe1 O10 1.905151 1_555
Fe1 O3 1.920522 1_555
Fe1 O4 1.920522 1_555
Fe2 O5 1.905151 1_555
Fe2 O12 1.920522 1_555
Fe2 O11 1.920522 1_555
Fe3 O13 1.914320 1_555
Fe3 O14 1.914320 1_555
Fe3 O16 1.921200 1_555
Fe4 O18 1.914320 1_555
Fe4 O17 1.914320 1_555
Fe4 O15 1.921200 1_555
Fe5 O26 1.905151 1_555
Fe5 O19 1.920522 1_555
Fe5 O20 1.920522 1_555
Fe6 O21 1.905151 1_555
Fe6 O27 1.920522 1_555
Fe6 O28 1.920522 1_555
Fe7 O29 1.914320 1_555
Fe7 O30 1.914320 1_555
Fe7 O0 1.921200 1_655
H0 O8 0.985807 1_555
H1 O9 0.985807 1_555
H2 O6 0.985807 1_555
H3 O7 0.985807 1_555
H4 O24 0.985807 1_555
H5 O25 0.985807 1_555
H6 O22 0.985807 1_555
H7 O23 0.985807 1_555
