# generated using pymatgen
data_Dy3Sb5O12
_symmetry_space_group_name_H-M   'P 1'
_cell_length_a   9.31488886
_cell_length_b   9.31481968
_cell_length_c   9.31477680
_cell_angle_alpha   109.47057803
_cell_angle_beta   109.47074125
_cell_angle_gamma   109.47084780
_symmetry_Int_Tables_number   1
_chemical_formula_structural   Dy3Sb5O12
_chemical_formula_sum   'Dy6 Sb10 O24'
_cell_volume   622.17234521
_cell_formula_units_Z   2
loop_
 _symmetry_equiv_pos_site_id
 _symmetry_equiv_pos_as_xyz
  1  'x, y, z'
loop_
 _atom_site_type_symbol
 _atom_site_label
 _atom_site_symmetry_multiplicity
 _atom_site_fract_x
 _atom_site_fract_y
 _atom_site_fract_z
 _atom_site_occupancy
  Dy  Dy0  1  0.75000698  0.25000476  0.50000311  1
  Dy  Dy1  1  0.74999740  0.50001070  0.24998895  1
  Dy  Dy2  1  0.50000912  0.25002182  0.75002517  1
  Dy  Dy3  1  0.50000076  0.74998338  0.24998163  1
  Dy  Dy4  1  0.24999434  0.74999370  0.50000615  1
  Dy  Dy5  1  0.25000951  0.50000275  0.75001454  1
  Sb  Sb0  1  0.51591163  0.00001215  -0.00000211  1
  Sb  Sb1  1  0.28137497  -0.00002605  0.28138568  1
  Sb  Sb2  1  0.28139148  0.28138341  0.00000160  1
  Sb  Sb3  1  0.71862177  -0.00000243  0.71861166  1
  Sb  Sb4  1  0.71864419  0.71864499  -0.00001548  1
  Sb  Sb5  1  0.00002513  0.51592892  0.00000715  1
  Sb  Sb6  1  -0.00003181  -0.00003247  0.51588861  1
  Sb  Sb7  1  0.48409059  0.48407826  0.48410109  1
  Sb  Sb8  1  -0.00002673  0.28137220  0.28137378  1
  Sb  Sb9  1  -0.00002741  0.71863005  0.71862482  1
  O  O0  1  0.47781731  0.99998878  0.20009047  1
  O  O1  1  0.47784114  0.20012704  -0.00000388  1
  O  O2  1  0.70429485  0.50325554  -0.00000793  1
  O  O3  1  0.70431365  -0.00001036  0.50323679  1
  O  O4  1  0.79892626  0.29569684  0.29569198  1
  O  O5  1  0.49675977  0.49675157  0.20103375  1
  O  O6  1  0.49676699  0.20108440  0.49677642  1
  O  O7  1  0.50324911  0.70427651  -0.00001325  1
  O  O8  1  0.50322769  0.00000110  0.70431542  1
  O  O9  1  0.72226701  0.52216764  0.52217378  1
  O  O10  1  0.79990332  0.27773101  0.79990529  1
  O  O11  1  0.79989492  0.79988359  0.27771874  1
  O  O12  1  0.20012293  0.47783286  -0.00000150  1
  O  O13  1  0.20009685  -0.00001043  0.47782657  1
  O  O14  1  0.52216902  0.72225763  0.52216955  1
  O  O15  1  0.52215772  0.52215272  0.72226992  1
  O  O16  1  0.99998818  0.47782972  0.20009939  1
  O  O17  1  -0.00000152  0.20010564  0.47782971  1
  O  O18  1  0.29568314  0.79891598  0.29568227  1
  O  O19  1  0.29572556  0.29572467  0.79896596  1
  O  O20  1  0.20107952  0.49676334  0.49677578  1
  O  O21  1  -0.00001010  0.70430811  0.50324572  1
  O  O22  1  0.00000590  0.50325449  0.70431852  1
  O  O23  1  0.27772991  0.79990447  0.79990417  1
loop_
_geom_bond_atom_site_label_1
_geom_bond_atom_site_label_2
_geom_bond_distance
_geom_bond_site_symmetry_2
Dy0 O4 2.235941 1_555
Dy0 O6 2.236064 1_555
Dy0 O22 2.236079 1_655
Dy0 O3 2.236090 1_555
Dy0 O17 2.580595 1_655
Dy0 O9 2.580630 1_555
Dy0 O10 2.580686 1_555
Dy0 O0 2.580860 1_545
Dy1 O5 2.235871 1_555
Dy1 O2 2.235944 1_555
Dy1 O21 2.236054 1_655
Dy1 O4 2.236054 1_555
Dy1 O11 2.580415 1_555
Dy1 O16 2.580569 1_555
Dy1 O1 2.580594 1_555
Dy1 O9 2.580807 1_555
Dy2 O19 2.235837 1_555
Dy2 O2 2.235846 1_556
Dy2 O6 2.236035 1_555
Dy2 O8 2.236061 1_555
Dy2 O1 2.580342 1_556
Dy2 O15 2.580440 1_555
Dy2 O10 2.580729 1_555
Dy2 O13 2.580922 1_555
Dy3 O5 2.235881 1_555
Dy3 O7 2.235935 1_555
Dy3 O18 2.236108 1_555
Dy3 O3 2.236118 1_565
Dy3 O12 2.580536 1_555
Dy3 O11 2.580605 1_555
Dy3 O0 2.580700 1_555
Dy3 O14 2.580791 1_555
Dy4 O20 2.235952 1_555
Dy4 O8 2.236038 1_565
Dy4 O21 2.236044 1_555
Dy4 O18 2.236057 1_555
Dy4 O23 2.580591 1_555
Dy4 O13 2.580630 1_565
Dy4 O16 2.580737 1_455
Dy4 O14 2.580754 1_555
Dy5 O19 2.235865 1_555
Dy5 O7 2.235877 1_556
Dy5 O20 2.235963 1_555
Dy5 O22 2.236070 1_555
Dy5 O12 2.580434 1_556
Dy5 O15 2.580571 1_555
Dy5 O23 2.580726 1_555
Dy5 O17 2.580770 1_555
O0 Sb0 2.010186 1_565
O0 Sb1 2.201220 1_565
O1 Sb0 2.010242 1_555
O1 Sb2 2.201094 1_555
O2 Sb4 1.965829 1_555
O3 Sb3 1.965737 1_555
O4 Sb8 1.965691 1_655
O5 Sb2 1.965691 1_555
O6 Sb1 1.966045 1_555
O7 Sb4 1.965830 1_555
O8 Sb3 1.966009 1_555
O9 Sb7 2.010130 1_555
O9 Sb9 2.201152 1_655
O10 Sb5 2.010331 1_656
O10 Sb3 2.201240 1_555
O11 Sb6 2.010047 1_665
O11 Sb4 2.201366 1_555
O12 Sb5 2.010229 1_555
O12 Sb2 2.201150 1_555
O13 Sb6 2.010286 1_555
O13 Sb1 2.201092 1_555
O14 Sb7 2.010177 1_555
O14 Sb3 2.201315 1_565
O15 Sb7 2.010082 1_555
O15 Sb4 2.201290 1_556
O16 Sb5 2.010235 1_655
O16 Sb8 2.201219 1_655
O17 Sb6 2.010325 1_555
O17 Sb8 2.201138 1_555
O18 Sb1 1.965650 1_565
O19 Sb2 1.965672 1_556
O20 Sb8 1.966068 1_555
O21 Sb9 1.965827 1_555
O22 Sb9 1.965898 1_555
O23 Sb0 2.010209 1_566
O23 Sb9 2.201501 1_555
