# generated using pymatgen
data_SrTaNO2
_symmetry_space_group_name_H-M   'P 1'
_cell_length_a   5.73254073
_cell_length_b   5.73254073
_cell_length_c   8.19214288
_cell_angle_alpha   89.84763255
_cell_angle_beta   89.84763255
_cell_angle_gamma   88.93542023
_symmetry_Int_Tables_number   1
_chemical_formula_structural   SrTaNO2
_chemical_formula_sum   'Sr4 Ta4 N4 O8'
_cell_volume   269.16205208
_cell_formula_units_Z   4
loop_
 _symmetry_equiv_pos_site_id
 _symmetry_equiv_pos_as_xyz
  1  'x, y, z'
loop_
 _atom_site_type_symbol
 _atom_site_label
 _atom_site_symmetry_multiplicity
 _atom_site_fract_x
 _atom_site_fract_y
 _atom_site_fract_z
 _atom_site_occupancy
  Sr  Sr0  1  0.99564000  0.99446000  0.75009800  1
  Sr  Sr1  1  0.49717100  0.49167800  0.75008200  1
  Sr  Sr2  1  0.50832200  0.50282900  0.24991800  1
  Sr  Sr3  1  0.00554000  0.00436000  0.24990200  1
  Ta  Ta0  1  0.00926000  0.50824900  0.50794500  1
  Ta  Ta1  1  0.99381400  0.48967500  0.99075700  1
  Ta  Ta2  1  0.51032500  0.00618600  0.00924300  1
  Ta  Ta3  1  0.49175100  0.99074000  0.49205500  1
  N  N0  1  0.77188700  0.22811300  0.00000000  1
  N  N1  1  0.52115900  0.97625900  0.25008100  1
  N  N2  1  0.02374100  0.47884100  0.74991900  1
  N  N3  1  0.22749700  0.77250300  0.50000000  1
  O  O0  1  0.77574200  0.22425800  0.50000000  1
  O  O1  1  0.47629200  0.02831300  0.74960900  1
  O  O2  1  0.97168700  0.52370800  0.25039100  1
  O  O3  1  0.72315500  0.72620400  0.97582500  1
  O  O4  1  0.27529000  0.27494700  0.47596300  1
  O  O5  1  0.72505300  0.72471000  0.52403700  1
  O  O6  1  0.27379600  0.27684500  0.02417500  1
  O  O7  1  0.22288000  0.77712000  0.00000000  1
loop_
_geom_bond_atom_site_label_1
_geom_bond_atom_site_label_2
_geom_bond_distance
_geom_bond_site_symmetry_2
N0 Ta2 1.985510 1_555
N0 Ta1 1.985510 1_554
N0 Sr0 2.750864 1_544
N0 Sr3 2.750864 1_655
N0 Sr2 2.977726 1_555
N0 Sr1 2.977726 1_554
N1 Ta2 1.981008 1_565
N1 Ta3 1.990815 1_555
N1 Sr2 2.716325 1_555
N1 Sr3 2.784385 1_665
N1 Sr3 2.957207 1_565
N1 Sr2 3.018111 1_565
N2 Ta1 1.981008 1_455
N2 Ta0 1.990815 1_555
N2 Sr1 2.716325 1_555
N2 Sr0 2.784385 1_445
N2 Sr0 2.957207 1_455
N2 Sr1 3.018111 1_455
N3 Ta3 1.983329 1_555
N3 Ta0 1.983329 1_555
N3 Sr3 2.742227 1_565
N3 Sr0 2.742227 1_455
N3 Sr1 3.014212 1_555
N3 Sr2 3.014212 1_555
O0 Ta0 2.128047 1_655
O0 Ta3 2.128047 1_545
O0 Sr0 2.731266 1_545
O0 Sr3 2.731266 1_655
O0 Sr1 3.000961 1_555
O0 Sr2 3.000961 1_555
O1 Ta3 2.122903 1_545
O1 Ta2 2.139616 1_556
O1 Sr1 2.661188 1_555
O1 Sr0 2.765769 1_445
O1 Sr0 2.979914 1_545
O1 Sr1 3.076379 1_545
O2 Ta0 2.122903 1_655
O2 Ta1 2.139616 1_554
O2 Sr2 2.661188 1_555
O2 Sr3 2.765769 1_665
O2 Sr3 2.979914 1_655
O2 Sr2 3.076379 1_655
O3 Ta2 2.016763 1_566
O3 Ta1 2.045181 1_555
O3 Sr1 2.645067 1_555
O3 Sr2 2.868248 1_556
O3 Sr0 2.878020 1_555
O3 Sr3 3.215366 1_666
O4 Ta0 2.026568 1_555
O4 Ta3 2.033748 1_545
O4 Sr2 2.637997 1_555
O4 Sr1 2.879759 1_555
O4 Sr3 2.889038 1_555
O4 Sr0 3.202520 1_445
O5 Ta3 2.026568 1_555
O5 Ta0 2.033748 1_655
O5 Sr1 2.637997 1_555
O5 Sr2 2.879759 1_555
O5 Sr0 2.889038 1_555
O5 Sr3 3.202520 1_665
O6 Ta1 2.016763 1_454
O6 Ta2 2.045181 1_555
O6 Sr2 2.645067 1_555
O6 Sr1 2.868248 1_554
O6 Sr3 2.878020 1_555
O6 Sr0 3.215366 1_444
O7 Ta1 2.127640 1_454
O7 Ta2 2.127640 1_565
O7 Sr0 2.716743 1_454
O7 Sr3 2.716743 1_565
O7 Sr1 3.040836 1_554
O7 Sr2 3.040836 1_555
