# generated using pymatgen
data_Na3Zr3Fe(PO4)6
_symmetry_space_group_name_H-M   'P 1'
_cell_length_a   9.26446515
_cell_length_b   9.25113671
_cell_length_c   18.55955496
_cell_angle_alpha   57.40647720
_cell_angle_beta   57.43125630
_cell_angle_gamma   57.30888381
_symmetry_Int_Tables_number   1
_chemical_formula_structural   Na3Zr3Fe(PO4)6
_chemical_formula_sum   'Na6 Zr6 Fe2 P12 O48'
_cell_volume   1057.01647012
_cell_formula_units_Z   2
loop_
 _symmetry_equiv_pos_site_id
 _symmetry_equiv_pos_as_xyz
  1  'x, y, z'
loop_
 _atom_site_type_symbol
 _atom_site_label
 _atom_site_symmetry_multiplicity
 _atom_site_fract_x
 _atom_site_fract_y
 _atom_site_fract_z
 _atom_site_occupancy
  Na  Na0  1  0.97688500  0.00584300  0.01162000  1
  Na  Na1  1  0.00241500  0.02655400  0.48984000  1
  Na  Na2  1  0.50024000  0.50011100  0.24987200  1
  Na  Na3  1  0.49760600  0.49449800  0.75071500  1
  Na  Na4  1  0.26846400  0.91670000  0.81957000  1
  Na  Na5  1  0.91393900  0.64396100  0.63430900  1
  Zr  Zr0  1  0.14950200  0.14913100  0.06921100  1
  Zr  Zr1  1  0.35398600  0.35505800  0.17591500  1
  Zr  Zr2  1  0.14452600  0.14220200  0.57574800  1
  Zr  Zr3  1  0.64654200  0.64449700  0.32417500  1
  Zr  Zr4  1  0.85192900  0.85365000  0.42683400  1
  Zr  Zr5  1  0.84852200  0.85541200  0.92561700  1
  Fe  Fe0  1  0.35747300  0.35339800  0.67637900  1
  Fe  Fe1  1  0.65183900  0.64263400  0.82890200  1
  P  P0  1  0.04065700  0.75146200  0.22909100  1
  P  P1  1  0.45747300  0.04214300  0.37505100  1
  P  P2  1  0.74917500  0.46036100  0.01794300  1
  P  P3  1  0.25210000  0.53485300  0.48363900  1
  P  P4  1  0.54107900  0.95778200  0.12508600  1
  P  P5  1  0.04233500  0.74058900  0.73058600  1
  P  P6  1  0.96025400  0.24910600  0.26933100  1
  P  P7  1  0.45872300  0.04204900  0.87053600  1
  P  P8  1  0.74316200  0.45773700  0.52378400  1
  P  P9  1  0.25654600  0.54465800  0.97617200  1
  P  P10  1  0.54044300  0.96341700  0.62816100  1
  P  P11  1  0.96129300  0.25795900  0.76966300  1
  O  O0  1  0.12330600  0.28095100  0.25390500  1
  O  O1  1  0.28126900  0.51004200  0.06059600  1
  O  O2  1  0.06447500  0.91957200  0.14088300  1
  O  O3  1  0.50914200  0.12199200  0.14069800  1
  O  O4  1  0.21799400  0.58314600  0.21756900  1
  O  O5  1  0.00646100  0.78342400  0.31140100  1
  O  O6  1  0.28102400  0.06575000  0.45904200  1
  O  O7  1  0.43486300  0.21880300  0.29100300  1
  O  O8  1  0.58215300  0.43600000  0.10665800  1
  O  O9  1  0.22019000  0.37297600  0.49715400  1
  O  O10  1  0.07886100  0.71170900  0.47168400  1
  O  O11  1  0.37775100  0.99264600  0.10806500  1
  O  O12  1  0.62101300  0.00853900  0.39191100  1
  O  O13  1  0.13415400  0.27132000  0.75476800  1
  O  O14  1  0.91737300  0.28308000  0.03096500  1
  O  O15  1  0.78174100  0.62328700  0.00294900  1
  O  O16  1  0.41758400  0.56288100  0.39459800  1
  O  O17  1  0.26931400  0.50848000  0.56787600  1
  O  O18  1  0.56412600  0.78139300  0.20912000  1
  O  O19  1  0.06521200  0.91290800  0.64294900  1
  O  O20  1  0.71817700  0.93374600  0.04101600  1
  O  O21  1  0.50536600  0.13176400  0.64037800  1
  O  O22  1  0.21730100  0.57299400  0.71842100  1
  O  O23  1  0.99491800  0.21678400  0.18735800  1
  O  O24  1  0.00936200  0.77791200  0.81160600  1
  O  O25  1  0.78285900  0.41722100  0.28163900  1
  O  O26  1  0.49182300  0.87834800  0.35868200  1
  O  O27  1  0.28365800  0.06545700  0.95652300  1
  O  O28  1  0.93572500  0.08144700  0.35831300  1
  O  O29  1  0.43507000  0.21795700  0.78746200  1
  O  O30  1  0.71828200  0.49301800  0.43894000  1
  O  O31  1  0.57450500  0.43659600  0.61033800  1
  O  O32  1  0.22091200  0.38179300  0.99330700  1
  O  O33  1  0.08891400  0.72561500  0.96181900  1
  O  O34  1  0.87752500  0.71872700  0.24557400  1
  O  O35  1  0.37756300  0.99208700  0.61161300  1
  O  O36  1  0.62258500  0.00695100  0.88849400  1
  O  O37  1  0.91492300  0.28204800  0.53420400  1
  O  O38  1  0.77957000  0.62172400  0.50617700  1
  O  O39  1  0.42290600  0.57332800  0.88781100  1
  O  O40  1  0.56213000  0.78687300  0.71350600  1
  O  O41  1  0.72230500  0.92731400  0.54591700  1
  O  O42  1  0.99046100  0.22531200  0.68797700  1
  O  O43  1  0.78894800  0.43216600  0.77727400  1
  O  O44  1  0.48871700  0.87338200  0.85881500  1
  O  O45  1  0.93596200  0.08544100  0.85704400  1
  O  O46  1  0.71849900  0.49182200  0.93648800  1
  O  O47  1  0.87340900  0.71662800  0.74617000  1
loop_
_geom_bond_atom_site_label_1
_geom_bond_atom_site_label_2
_geom_bond_distance
_geom_bond_site_symmetry_2
Na0 O14 2.502460 1_555
Na0 O2 2.526759 1_645
Na0 O20 2.532609 1_545
Na0 O33 2.700810 1_644
Na0 O27 2.717335 1_654
Na0 O45 2.740406 1_554
Na1 O37 2.496037 1_455
Na1 O6 2.513944 1_555
Na1 O28 2.558873 1_455
Na1 O41 2.701267 1_445
Na1 O19 2.723821 1_545
Na1 O10 2.769646 1_545
Na2 O18 2.599052 1_555
Na2 O7 2.605146 1_555
Na2 O25 2.607154 1_555
Na2 O4 2.609379 1_555
Na2 O8 2.652002 1_555
Na2 O16 2.669093 1_555
Na3 O29 2.577154 1_555
Na3 O31 2.583643 1_555
Na3 O22 2.607697 1_555
Na3 O39 2.653876 1_555
Na3 O43 2.702901 1_555
Na3 O40 2.727629 1_555
Na4 O44 2.292862 1_555
Na4 O40 2.443540 1_555
Na4 O45 2.465434 1_465
Na4 O33 2.506455 1_555
Na4 O39 2.539464 1_555
Na4 O13 2.590012 1_565
Na5 O47 2.301027 1_555
Na5 O43 2.400462 1_555
Na5 O10 2.422522 1_655
Na5 O41 2.488014 1_555
Na5 O17 2.601478 1_655
Na5 O40 2.610092 1_555
Fe0 O21 1.995846 1_555
Fe0 O31 2.034608 1_555
Fe0 O17 2.042803 1_555
Fe0 O29 2.043723 1_555
Fe0 O22 2.046787 1_555
Fe0 O13 2.059092 1_555
Fe1 O46 1.926263 1_555
Fe1 O47 2.007991 1_555
Fe1 O44 2.009383 1_555
Fe1 O39 2.078945 1_555
Fe1 O43 2.085822 1_555
Fe1 O40 2.167412 1_555
O0 P6 1.541063 1_455
O0 Zr1 2.077409 1_555
O1 P9 1.541645 1_554
O1 Zr1 2.072012 1_555
O2 P0 1.544756 1_555
O2 Zr0 2.129672 1_565
O3 P4 1.541310 1_545
O3 Zr1 2.073923 1_555
O4 P0 1.544860 1_555
O4 Zr1 2.115294 1_555
O5 P0 1.544626 1_555
O5 Zr4 2.062557 1_455
O6 P1 1.545174 1_555
O6 Zr2 2.127517 1_555
O7 P1 1.543875 1_555
O7 Zr1 2.124824 1_555
O8 P2 1.545993 1_555
O8 Zr1 2.104484 1_555
O9 P3 1.544884 1_555
O9 Zr2 2.082717 1_555
O10 P3 1.567725 1_555
O10 Zr4 2.135800 1_455
O11 P4 1.539840 1_555
O11 Zr0 2.073044 1_565
O12 P1 1.544975 1_555
O12 Zr4 2.056918 1_545
O13 P11 1.535176 1_455
O14 P2 1.547304 1_555
O14 Zr0 2.116941 1_655
O15 P2 1.545711 1_555
O15 Zr5 2.052510 1_554
O16 P3 1.545549 1_555
O16 Zr3 2.111820 1_555
O17 P3 1.531222 1_555
O18 P4 1.543083 1_555
O18 Zr3 2.131663 1_555
O19 P5 1.559526 1_555
O19 Zr2 2.107573 1_565
O20 P4 1.549019 1_555
O20 Zr5 2.124345 1_554
O21 P10 1.528699 1_545
O22 P5 1.533189 1_555
O23 P6 1.538670 1_555
O23 Zr0 2.092906 1_655
O24 P5 1.557085 1_555
O24 Zr5 2.073069 1_455
O25 P6 1.545800 1_555
O25 Zr3 2.117887 1_555
O26 P1 1.536437 1_565
O26 Zr3 2.073552 1_555
O27 P7 1.559008 1_555
O27 Zr0 2.103422 1_556
O28 P6 1.549766 1_555
O28 Zr4 2.116140 1_545
O29 P7 1.532601 1_555
O30 P8 1.547588 1_555
O30 Zr3 2.060256 1_555
O31 P8 1.532813 1_555
O32 P9 1.545406 1_555
O32 Zr0 2.079208 1_556
O33 P9 1.562646 1_555
O33 Zr5 2.169412 1_455
O34 P0 1.538259 1_655
O34 Zr3 2.079951 1_555
O35 P10 1.555829 1_555
O35 Zr2 2.084548 1_565
O36 P7 1.554608 1_555
O36 Zr5 2.040512 1_545
O37 P8 1.552450 1_555
O37 Zr2 2.124003 1_655
O38 P8 1.556292 1_555
O38 Zr4 2.075660 1_555
O39 P9 1.544969 1_555
O40 P10 1.554939 1_555
O41 P10 1.566128 1_555
O41 Zr4 2.161560 1_555
O42 P11 1.557798 1_555
O42 Zr2 2.075105 1_655
O43 P11 1.545777 1_555
O44 P7 1.546449 1_565
O45 P11 1.561622 1_555
O45 Zr5 2.153803 1_545
O46 P2 1.533002 1_556
O47 P5 1.549315 1_655
