# generated using pymatgen
data_MnNi3O4
_symmetry_space_group_name_H-M   'P 1'
_cell_length_a   5.24665379
_cell_length_b   5.24665379
_cell_length_c   3.04906200
_cell_angle_alpha   90.00000000
_cell_angle_beta   90.00000000
_cell_angle_gamma   109.58149755
_symmetry_Int_Tables_number   1
_chemical_formula_structural   MnNi3O4
_chemical_formula_sum   'Mn1 Ni3 O4'
_cell_volume   79.07849114
_cell_formula_units_Z   1
loop_
 _symmetry_equiv_pos_site_id
 _symmetry_equiv_pos_as_xyz
  1  'x, y, z'
loop_
 _atom_site_type_symbol
 _atom_site_label
 _atom_site_symmetry_multiplicity
 _atom_site_fract_x
 _atom_site_fract_y
 _atom_site_fract_z
 _atom_site_occupancy
  Mn  Mn0  1  0.50000000  0.50000000  0.00000000  1
  Ni  Ni0  1  0.00000000  0.50000000  0.50000000  1
  Ni  Ni1  1  0.50000000  0.00000000  0.50000000  1
  Ni  Ni2  1  0.00000000  0.00000000  0.00000000  1
  O  O0  1  0.24442600  0.75557400  0.00000000  1
  O  O1  1  0.75990800  0.75990800  0.50000000  1
  O  O2  1  0.24009200  0.24009200  0.50000000  1
  O  O3  1  0.75557400  0.24442600  0.00000000  1
loop_
_geom_bond_atom_site_label_1
_geom_bond_atom_site_label_2
_geom_bond_distance
_geom_bond_site_symmetry_2
Mn0 O1 2.190166 1_555
Mn0 O1 2.190166 1_554
Mn0 O2 2.190166 1_554
Mn0 O2 2.190166 1_555
Mn0 O0 2.191183 1_555
Mn0 O3 2.191183 1_555
Ni0 O1 2.144232 1_455
Ni0 O2 2.144232 1_555
Ni0 O0 2.148065 1_555
Ni0 O0 2.148065 1_556
Ni0 O3 2.148065 1_455
Ni0 O3 2.148065 1_456
Ni1 O1 2.144232 1_545
Ni1 O2 2.144232 1_555
Ni1 O3 2.148065 1_555
Ni1 O3 2.148065 1_556
Ni1 O0 2.148065 1_546
Ni1 O0 2.148065 1_545
Ni2 O0 2.095605 1_545
Ni2 O3 2.095605 1_455
Ni2 O2 2.105745 1_554
Ni2 O2 2.105745 1_555
Ni2 O1 2.105745 1_445
Ni2 O1 2.105745 1_444
