# generated using pymatgen
data_Li4Nb2Fe3Sn3O16
_symmetry_space_group_name_H-M   'P 1'
_cell_length_a   6.22670007
_cell_length_b   6.22670007
_cell_length_c   9.97154250
_cell_angle_alpha   89.90687661
_cell_angle_beta   89.90687661
_cell_angle_gamma   59.64798176
_symmetry_Int_Tables_number   1
_chemical_formula_structural   Li4Nb2Fe3Sn3O16
_chemical_formula_sum   'Li4 Nb2 Fe3 Sn3 O16'
_cell_volume   333.62350182
_cell_formula_units_Z   1
loop_
 _symmetry_equiv_pos_site_id
 _symmetry_equiv_pos_as_xyz
  1  'x, y, z'
loop_
 _atom_site_type_symbol
 _atom_site_label
 _atom_site_symmetry_multiplicity
 _atom_site_fract_x
 _atom_site_fract_y
 _atom_site_fract_z
 _atom_site_occupancy
  Li  Li0  1  0.67233700  0.67233700  0.09812000  1
  Li  Li1  1  0.99329400  0.99329400  0.01509200  1
  Li  Li2  1  0.99512600  0.99512600  0.50315400  1
  Li  Li3  1  0.32951800  0.32951800  0.59489600  1
  Nb  Nb0  1  0.67590200  0.67590200  0.50304000  1
  Nb  Nb1  1  0.35185300  0.35185300  0.02269400  1
  Fe  Fe0  1  0.82843400  0.82843400  0.78792500  1
  Fe  Fe1  1  0.17243300  0.66040100  0.28650600  1
  Fe  Fe2  1  0.66040100  0.17243300  0.28650600  1
  Sn  Sn0  1  0.33713700  0.83163400  0.78501300  1
  Sn  Sn1  1  0.83163400  0.33713700  0.78501300  1
  Sn  Sn2  1  0.17125300  0.17125300  0.28509000  1
  O  O0  1  0.34296300  0.83932800  0.41255900  1
  O  O1  1  0.51310300  0.51310300  0.66085500  1
  O  O2  1  0.66306800  0.66306800  0.89751300  1
  O  O3  1  0.99663800  0.99663800  0.68840500  1
  O  O4  1  0.00038700  0.00038700  0.20042600  1
  O  O5  1  0.83932800  0.34296300  0.41255900  1
  O  O6  1  0.51101100  0.95521100  0.65197800  1
  O  O7  1  0.95521100  0.51101100  0.65197800  1
  O  O8  1  0.15814300  0.15814300  0.90258800  1
  O  O9  1  0.82872400  0.82872400  0.41650200  1
  O  O10  1  0.04071300  0.47054900  0.14620300  1
  O  O11  1  0.47054900  0.04071300  0.14620300  1
  O  O12  1  0.33365900  0.33365900  0.39008900  1
  O  O13  1  0.17396700  0.66041000  0.90930800  1
  O  O14  1  0.48728600  0.48728600  0.14162300  1
  O  O15  1  0.66041000  0.17396700  0.90930800  1
loop_
_geom_bond_atom_site_label_1
_geom_bond_atom_site_label_2
_geom_bond_distance
_geom_bond_site_symmetry_2
Li0 O2 2.003054 1_554
Li0 O11 2.039343 1_565
Li0 O10 2.039343 1_655
Li0 O14 2.045023 1_555
Li1 O4 1.849797 1_665
Li1 O15 2.078768 1_564
Li1 O13 2.078768 1_654
Li1 O8 2.103122 1_664
Li2 O3 1.847341 1_555
Li2 O9 1.996132 1_555
Li2 O5 2.078761 1_565
Li2 O0 2.078761 1_655
Li3 O12 2.042648 1_555
Li3 O6 2.090248 1_545
Li3 O7 2.090248 1_455
Li3 O1 2.090834 1_555
Nb0 O9 1.861559 1_555
Nb0 O5 2.004599 1_555
Nb0 O0 2.004599 1_555
Nb0 O7 2.117393 1_555
Nb0 O6 2.117393 1_555
Nb0 O1 2.357905 1_555
Nb1 O14 1.885178 1_555
Nb1 O15 2.010688 1_554
Nb1 O13 2.010688 1_554
Nb1 O10 2.089152 1_555
Nb1 O11 2.089152 1_555
Nb1 O8 2.413247 1_554
Fe0 O3 2.068950 1_555
Fe0 O2 2.092564 1_555
Fe0 O6 2.189922 1_555
Fe0 O7 2.189922 1_555
Fe0 O13 2.217686 1_655
Fe0 O15 2.217686 1_565
Fe1 O4 2.017711 1_565
Fe1 O12 2.036255 1_555
Fe1 O14 2.225485 1_555
Fe1 O10 2.239747 1_555
Fe1 O9 2.255571 1_455
Fe1 O0 2.270057 1_555
Fe2 O4 2.017711 1_655
Fe2 O12 2.036255 1_555
Fe2 O14 2.225485 1_555
Fe2 O11 2.239747 1_555
Fe2 O9 2.255571 1_545
Fe2 O5 2.270057 1_555
O0 Sn2 2.189298 1_565
O1 Sn1 2.115292 1_555
O1 Sn0 2.115292 1_555
O2 Sn0 2.080786 1_555
O2 Sn1 2.080786 1_555
O3 Sn1 2.068996 1_565
O3 Sn0 2.068996 1_655
O4 Sn2 2.031364 1_555
O5 Sn2 2.189298 1_655
O6 Sn0 2.087575 1_555
O7 Sn1 2.087575 1_555
O8 Sn0 2.112725 1_545
O8 Sn1 2.112725 1_455
O10 Sn2 2.125126 1_555
O11 Sn2 2.125126 1_555
O12 Sn2 2.044960 1_555
O13 Sn0 2.188942 1_555
O15 Sn1 2.188942 1_555
