# generated using pymatgen
data_VO2F
_symmetry_space_group_name_H-M   'P 1'
_cell_length_a   5.61450760
_cell_length_b   5.61450760
_cell_length_c   4.24115842
_cell_angle_alpha   70.49919349
_cell_angle_beta   70.49919349
_cell_angle_gamma   32.99228772
_symmetry_Int_Tables_number   1
_chemical_formula_structural   VO2F
_chemical_formula_sum   'V1 O2 F1'
_cell_volume   68.24478217
_cell_formula_units_Z   1
loop_
 _symmetry_equiv_pos_site_id
 _symmetry_equiv_pos_as_xyz
  1  'x, y, z'
loop_
 _atom_site_type_symbol
 _atom_site_label
 _atom_site_symmetry_multiplicity
 _atom_site_fract_x
 _atom_site_fract_y
 _atom_site_fract_z
 _atom_site_occupancy
  V  V0  1  0.01300100  0.01300100  0.96933900  1
  O  O0  1  0.01188300  0.01188300  0.58802700  1
  O  O1  1  0.58571600  0.58571600  0.01105000  1
  F  F0  1  0.84266300  0.84266300  0.21377500  1
loop_
_geom_bond_atom_site_label_1
_geom_bond_atom_site_label_2
_geom_bond_distance
_geom_bond_site_symmetry_2
O0 V0 1.621435 1_555
O1 V0 1.811710 1_564
O1 V0 1.811710 1_654
F0 V0 1.764769 1_664
