# generated using pymatgen
data_Dy2SeO2
_symmetry_space_group_name_H-M   'P 1'
_cell_length_a   3.82356494
_cell_length_b   3.82391543
_cell_length_c   6.78882494
_cell_angle_alpha   90.00505324
_cell_angle_beta   89.99940250
_cell_angle_gamma   120.01495809
_symmetry_Int_Tables_number   1
_chemical_formula_structural   Dy2SeO2
_chemical_formula_sum   'Dy2 Se1 O2'
_cell_volume   85.94814520
_cell_formula_units_Z   1
loop_
 _symmetry_equiv_pos_site_id
 _symmetry_equiv_pos_as_xyz
  1  'x, y, z'
loop_
 _atom_site_type_symbol
 _atom_site_label
 _atom_site_symmetry_multiplicity
 _atom_site_fract_x
 _atom_site_fract_y
 _atom_site_fract_z
 _atom_site_occupancy
  Dy  Dy0  1  0.33190673  0.66951908  0.29026200  1
  Dy  Dy1  1  0.66572265  0.33599444  0.70768862  1
  Se  Se0  1  0.99850108  0.00251434  0.99905794  1
  O  O0  1  0.33242650  0.66935592  0.62429991  1
  O  O1  1  0.66527804  0.33618421  0.37366553  1
loop_
_geom_bond_atom_site_label_1
_geom_bond_atom_site_label_2
_geom_bond_distance
_geom_bond_site_symmetry_2
Dy0 O0 2.267726 1_555
Dy0 O1 2.278571 1_455
Dy0 O1 2.278810 1_565
Dy0 O1 2.279411 1_555
Dy0 Se0 2.962984 1_464
Dy0 Se0 2.962988 1_564
Dy0 Se0 2.963952 1_454
Dy1 O1 2.267625 1_555
Dy1 O0 2.278700 1_545
Dy1 O0 2.278787 1_655
Dy1 O0 2.279230 1_555
Dy1 Se0 2.963382 1_555
Dy1 Se0 2.963506 1_565
Dy1 Se0 2.965283 1_455
