# generated using pymatgen
data_SrTaNO2
_symmetry_space_group_name_H-M   'P 1'
_cell_length_a   8.17919700
_cell_length_b   5.73044200
_cell_length_c   5.74053942
_cell_angle_alpha   89.17061770
_cell_angle_beta   90.00000000
_cell_angle_gamma   90.00000000
_symmetry_Int_Tables_number   1
_chemical_formula_structural   SrTaNO2
_chemical_formula_sum   'Sr4 Ta4 N4 O8'
_cell_volume   269.03327048
_cell_formula_units_Z   4
loop_
 _symmetry_equiv_pos_site_id
 _symmetry_equiv_pos_as_xyz
  1  'x, y, z'
loop_
 _atom_site_type_symbol
 _atom_site_label
 _atom_site_symmetry_multiplicity
 _atom_site_fract_x
 _atom_site_fract_y
 _atom_site_fract_z
 _atom_site_occupancy
  Sr  Sr0  1  0.00000000  0.99290400  0.99420200  1
  Sr  Sr1  1  0.00000000  0.49274000  0.48895700  1
  Sr  Sr2  1  0.50000000  0.51228000  0.49110900  1
  Sr  Sr3  1  0.50000000  0.01551000  0.99535300  1
  Ta  Ta0  1  0.24214000  0.49414500  0.98667600  1
  Ta  Ta1  1  0.75786000  0.49414500  0.98667600  1
  Ta  Ta2  1  0.25888200  0.00746600  0.50224200  1
  Ta  Ta3  1  0.74111800  0.00746600  0.50224200  1
  N  N0  1  0.50000000  0.00185400  0.46097400  1
  N  N1  1  0.26358500  0.27057800  0.73026100  1
  N  N2  1  0.73641500  0.27057800  0.73026100  1
  N  N3  1  0.00000000  0.51706200  0.96945000  1
  O  O0  1  0.50000000  0.49157300  0.05018100  1
  O  O1  1  0.77407900  0.22414700  0.22772800  1
  O  O2  1  0.22592100  0.22414700  0.22772800  1
  O  O3  1  0.23462000  0.72203300  0.28162900  1
  O  O4  1  0.76538000  0.72203300  0.28162900  1
  O  O5  1  0.00000000  0.98649200  0.53535100  1
  O  O6  1  0.27480800  0.77524900  0.77889200  1
  O  O7  1  0.72519200  0.77524900  0.77889200  1
loop_
_geom_bond_atom_site_label_1
_geom_bond_atom_site_label_2
_geom_bond_distance
_geom_bond_site_symmetry_2
N0 Ta3 1.986645 1_555
N0 Ta2 1.986645 1_555
N0 Sr3 2.672929 1_554
N0 Sr2 2.808303 1_545
N0 Sr2 2.932576 1_555
N0 Sr3 3.069754 1_555
N1 Ta0 1.973155 1_555
N1 Ta2 2.011287 1_555
N1 Sr2 2.736280 1_555
N1 Sr3 2.850782 1_555
N1 Sr1 2.852452 1_555
N1 Sr0 3.066886 1_545
N2 Ta1 1.973155 1_555
N2 Ta3 2.011287 1_555
N2 Sr2 2.736280 1_555
N2 Sr3 2.850782 1_555
N2 Sr1 2.852452 1_655
N2 Sr0 3.066886 1_645
N3 Ta1 1.987227 1_455
N3 Ta0 1.987227 1_555
N3 Sr0 2.732538 1_555
N3 Sr1 2.763822 1_555
N3 Sr1 2.983490 1_556
N3 Sr0 3.004961 1_545
O0 Ta0 2.140377 1_554
O0 Ta1 2.140377 1_554
O0 Sr2 2.535660 1_555
O0 Sr3 2.750670 1_554
O0 Sr3 3.014308 1_564
O0 Sr2 3.209851 1_554
O1 Ta3 2.010256 1_555
O1 Ta1 2.065014 1_554
O1 Sr0 2.649350 1_644
O1 Sr1 2.845904 1_655
O1 Sr3 2.877578 1_554
O1 Sr2 3.179609 1_555
O2 Ta2 2.010256 1_555
O2 Ta0 2.065014 1_554
O2 Sr0 2.649350 1_544
O2 Sr1 2.845904 1_555
O2 Sr3 2.877578 1_554
O2 Sr2 3.179609 1_555
O3 Ta2 2.092507 1_565
O3 Ta0 2.154079 1_554
O3 Sr1 2.603897 1_555
O3 Sr2 2.749630 1_555
O3 Sr0 2.956390 1_554
O3 Sr3 3.187548 1_564
O4 Ta3 2.092507 1_565
O4 Ta1 2.154079 1_554
O4 Sr1 2.603897 1_655
O4 Sr2 2.749630 1_555
O4 Sr0 2.956390 1_654
O4 Sr3 3.187548 1_564
O5 Ta2 2.129199 1_565
O5 Ta3 2.129199 1_465
O5 Sr0 2.634840 1_555
O5 Sr1 2.845759 1_555
O5 Sr1 2.909383 1_565
O5 Sr0 3.106173 1_554
O6 Ta0 2.008323 1_555
O6 Ta2 2.061236 1_565
O6 Sr3 2.623305 1_565
O6 Sr0 2.860099 1_555
O6 Sr2 2.909410 1_555
O6 Sr1 3.243642 1_555
O7 Ta1 2.008323 1_555
O7 Ta3 2.061236 1_565
O7 Sr3 2.623305 1_565
O7 Sr0 2.860099 1_655
O7 Sr2 2.909410 1_555
O7 Sr1 3.243642 1_655
