# generated using pymatgen
data_SnP2O7
_symmetry_space_group_name_H-M   'P 1'
_cell_length_a   5.11624931
_cell_length_b   8.71189286
_cell_length_c   13.55536198
_cell_angle_alpha   64.64936698
_cell_angle_beta   90.00000000
_cell_angle_gamma   90.00000000
_symmetry_Int_Tables_number   1
_chemical_formula_structural   SnP2O7
_chemical_formula_sum   'Sn4 P8 O28'
_cell_volume   546.01152012
_cell_formula_units_Z   4
loop_
 _symmetry_equiv_pos_site_id
 _symmetry_equiv_pos_as_xyz
  1  'x, y, z'
loop_
 _atom_site_type_symbol
 _atom_site_label
 _atom_site_symmetry_multiplicity
 _atom_site_fract_x
 _atom_site_fract_y
 _atom_site_fract_z
 _atom_site_occupancy
  Sn  Sn0  1  0.74708994  0.76655223  0.97337012  1
  Sn  Sn1  1  0.75291006  0.76655223  0.47337012  1
  Sn  Sn2  1  0.24708994  0.23344777  0.52662988  1
  Sn  Sn3  1  0.25291006  0.23344777  0.02662988  1
  P  P0  1  0.74252633  0.18693731  0.88115882  1
  P  P1  1  0.24360628  0.66502892  0.86107506  1
  P  P2  1  0.24252633  0.81306269  0.61884118  1
  P  P3  1  0.74360628  0.33497108  0.63892494  1
  P  P4  1  0.25639372  0.66502892  0.36107506  1
  P  P5  1  0.75747367  0.18693731  0.38115882  1
  P  P6  1  0.75639372  0.33497108  0.13892494  1
  P  P7  1  0.25747367  0.81306269  0.11884118  1
  O  O0  1  0.91595749  0.25529812  0.94279744  1
  O  O1  1  0.45780043  0.18613538  0.91312116  1
  O  O2  1  0.31080705  0.48381641  0.93358824  1
  O  O3  1  0.96115765  0.71317685  0.86594185  1
  O  O4  1  0.82587478  0.01726350  0.88608380  1
  O  O5  1  0.43320591  0.78694629  0.87669677  1
  O  O6  1  0.77864825  0.32124375  0.75857114  1
  O  O7  1  0.27864825  0.67875625  0.74142886  1
  O  O8  1  0.93320591  0.21305371  0.62330323  1
  O  O9  1  0.81080705  0.51618359  0.56641176  1
  O  O10  1  0.95780043  0.81386462  0.58687884  1
  O  O11  1  0.32587478  0.98273650  0.61391620  1
  O  O12  1  0.41595749  0.74470188  0.55720256  1
  O  O13  1  0.46115765  0.28682315  0.63405815  1
  O  O14  1  0.53884235  0.71317685  0.36594185  1
  O  O15  1  0.58404251  0.25529812  0.44279744  1
  O  O16  1  0.67412522  0.01726350  0.38608380  1
  O  O17  1  0.04219957  0.18613538  0.41312116  1
  O  O18  1  0.18919295  0.48381641  0.43358824  1
  O  O19  1  0.06679409  0.78694629  0.37669677  1
  O  O20  1  0.72135175  0.32124375  0.25857114  1
  O  O21  1  0.22135175  0.67875625  0.24142886  1
  O  O22  1  0.56679409  0.21305371  0.12330323  1
  O  O23  1  0.17412522  0.98273650  0.11391620  1
  O  O24  1  0.03884235  0.28682315  0.13405815  1
  O  O25  1  0.68919295  0.51618359  0.06641176  1
  O  O26  1  0.54219957  0.81386462  0.08687884  1
  O  O27  1  0.08404251  0.74470188  0.05720256  1
loop_
_geom_bond_atom_site_label_1
_geom_bond_atom_site_label_2
_geom_bond_distance
_geom_bond_site_symmetry_2
O0 P0 1.505402 1_555
O0 Sn3 2.028375 1_656
O1 P0 1.518957 1_555
O1 Sn3 2.044331 1_556
O2 P1 1.499295 1_555
O2 Sn3 2.019976 1_556
O3 P1 1.514016 1_655
O3 Sn0 2.028841 1_555
O4 P0 1.512221 1_555
O4 Sn0 2.029792 1_545
O5 P1 1.518729 1_555
O5 Sn0 2.031846 1_555
O6 P0 1.581003 1_555
O6 P3 1.584533 1_555
O7 P2 1.581003 1_555
O7 P1 1.584533 1_555
O8 P3 1.518729 1_555
O8 Sn2 2.031846 1_655
O9 P3 1.499295 1_555
O9 Sn1 2.019976 1_555
O10 P2 1.518957 1_655
O10 Sn1 2.044331 1_555
O11 P2 1.512221 1_555
O11 Sn2 2.029792 1_565
O12 P2 1.505402 1_555
O12 Sn1 2.028375 1_555
O13 P3 1.514016 1_555
O13 Sn2 2.028841 1_555
O14 P4 1.514016 1_555
O14 Sn1 2.028841 1_555
O15 P5 1.505402 1_555
O15 Sn2 2.028375 1_555
O16 P5 1.512221 1_555
O16 Sn1 2.029792 1_545
O17 P5 1.518957 1_455
O17 Sn2 2.044331 1_555
O18 P4 1.499295 1_555
O18 Sn2 2.019976 1_555
O19 P4 1.518729 1_555
O19 Sn1 2.031846 1_455
O20 P5 1.581003 1_555
O20 P6 1.584533 1_555
O21 P7 1.581003 1_555
O21 P4 1.584533 1_555
O22 P6 1.518729 1_555
O22 Sn3 2.031846 1_555
O23 P7 1.512221 1_555
O23 Sn3 2.029792 1_565
O24 P6 1.514016 1_455
O24 Sn3 2.028841 1_555
O25 P6 1.499295 1_555
O25 Sn0 2.019976 1_554
O26 P7 1.518957 1_555
O26 Sn0 2.044331 1_554
O27 P7 1.505402 1_555
O27 Sn0 2.028375 1_454
