# generated using pymatgen
data_BaSrI4
_symmetry_space_group_name_H-M   'P 1'
_cell_length_a   12.20986762
_cell_length_b   12.20986762
_cell_length_c   8.30069600
_cell_angle_alpha   90.00000000
_cell_angle_beta   90.00000000
_cell_angle_gamma   149.80446730
_symmetry_Int_Tables_number   1
_chemical_formula_structural   BaSrI4
_chemical_formula_sum   'Ba2 Sr2 I8'
_cell_volume   622.39119603
_cell_formula_units_Z   2
loop_
 _symmetry_equiv_pos_site_id
 _symmetry_equiv_pos_as_xyz
  1  'x, y, z'
loop_
 _atom_site_type_symbol
 _atom_site_label
 _atom_site_symmetry_multiplicity
 _atom_site_fract_x
 _atom_site_fract_y
 _atom_site_fract_z
 _atom_site_occupancy
  Ba  Ba0  1  0.81223000  0.18777000  0.10335200  1
  Ba  Ba1  1  0.18777000  0.81223000  0.60335200  1
  Sr  Sr0  1  0.58453700  0.41546300  0.00535000  1
  Sr  Sr1  1  0.41546300  0.58453700  0.50535000  1
  I  I0  1  0.90102900  0.09897100  0.44999100  1
  I  I1  1  0.54499700  0.45500300  0.62451700  1
  I  I2  1  0.67797800  0.32202200  0.31084300  1
  I  I3  1  0.70961000  0.29039000  0.79623900  1
  I  I4  1  0.09897100  0.90102900  0.94999100  1
  I  I5  1  0.29039000  0.70961000  0.29623900  1
  I  I6  1  0.45500300  0.54499700  0.12451700  1
  I  I7  1  0.32202200  0.67797800  0.81084300  1
loop_
_geom_bond_atom_site_label_1
_geom_bond_atom_site_label_2
_geom_bond_distance
_geom_bond_site_symmetry_2
Ba0 I3 3.514605 1_554
Ba0 I0 3.558409 1_555
Ba0 I5 3.597602 1_655
Ba0 I5 3.597602 1_545
Ba0 I2 3.603486 1_555
Ba0 I7 4.007831 1_654
Ba0 I7 4.007831 1_544
Ba1 I5 3.514605 1_555
Ba1 I4 3.558409 1_555
Ba1 I3 3.597602 1_565
Ba1 I3 3.597602 1_455
Ba1 I7 3.603486 1_555
Ba1 I2 4.007831 1_455
Ba1 I2 4.007831 1_565
I0 Sr1 3.231263 1_655
I0 Sr1 3.231263 1_545
I1 Sr1 3.210200 1_555
I1 Sr0 3.295770 1_556
I2 Sr0 3.359122 1_555
I3 Sr0 3.421762 1_556
I4 Sr0 3.231263 1_566
I4 Sr0 3.231263 1_456
I5 Sr1 3.421762 1_555
I6 Sr0 3.210200 1_555
I6 Sr1 3.295770 1_555
I7 Sr1 3.359122 1_555
