# generated using pymatgen
data_CoH12SO10
_symmetry_space_group_name_H-M   'P 1'
_cell_length_a   6.21037279
_cell_length_b   6.21037279
_cell_length_c   24.79430029
_cell_angle_alpha   82.78866899
_cell_angle_beta   82.78866899
_cell_angle_gamma   73.04003097
_symmetry_Int_Tables_number   1
_chemical_formula_structural   CoH12SO10
_chemical_formula_sum   'Co4 H48 S4 O40'
_cell_volume   903.46733540
_cell_formula_units_Z   4
loop_
 _symmetry_equiv_pos_site_id
 _symmetry_equiv_pos_as_xyz
  1  'x, y, z'
loop_
 _atom_site_type_symbol
 _atom_site_label
 _atom_site_symmetry_multiplicity
 _atom_site_fract_x
 _atom_site_fract_y
 _atom_site_fract_z
 _atom_site_occupancy
  Co  Co0  1  0.00000000  0.00000000  0.50000000  1
  Co  Co1  1  0.00000000  0.00000000  0.00000000  1
  Co  Co2  1  0.98368400  0.01631600  0.75000000  1
  Co  Co3  1  0.01631600  0.98368400  0.25000000  1
  H  H0  1  0.02487400  0.65842600  0.57983300  1
  H  H1  1  0.34157400  0.97512600  0.92016700  1
  H  H2  1  0.97512600  0.34157400  0.42016700  1
  H  H3  1  0.65842600  0.02487400  0.07983300  1
  H  H4  1  0.28113100  0.64822000  0.55731000  1
  H  H5  1  0.35178000  0.71886900  0.94269000  1
  H  H6  1  0.71886900  0.35178000  0.44269000  1
  H  H7  1  0.64822000  0.28113100  0.05731000  1
  H  H8  1  0.73001100  0.30687200  0.56675300  1
  H  H9  1  0.69312800  0.26998900  0.93324700  1
  H  H10  1  0.26998900  0.69312800  0.43324700  1
  H  H11  1  0.30687200  0.73001100  0.06675300  1
  H  H12  1  0.67268900  0.07261500  0.58435400  1
  H  H13  1  0.92738500  0.32731100  0.91564600  1
  H  H14  1  0.32731100  0.92738500  0.41564600  1
  H  H15  1  0.07261500  0.67268900  0.08435400  1
  H  H16  1  0.29614100  0.24696300  0.49720100  1
  H  H17  1  0.75303700  0.70385900  0.00279900  1
  H  H18  1  0.70385900  0.75303700  0.50279900  1
  H  H19  1  0.24696300  0.29614100  0.99720100  1
  H  H20  1  0.33045700  0.06825800  0.55150000  1
  H  H21  1  0.93174200  0.66954300  0.94850000  1
  H  H22  1  0.66954300  0.93174200  0.44850000  1
  H  H23  1  0.06825800  0.33045700  0.05150000  1
  H  H24  1  0.31215700  0.05349000  0.80231600  1
  H  H25  1  0.94651000  0.68784300  0.69768400  1
  H  H26  1  0.68784300  0.94651000  0.19768400  1
  H  H27  1  0.05349000  0.31215700  0.30231600  1
  H  H28  1  0.34677300  0.78942000  0.79919100  1
  H  H29  1  0.21058000  0.65322700  0.70080900  1
  H  H30  1  0.65322700  0.21058000  0.20080900  1
  H  H31  1  0.78942000  0.34677300  0.29919100  1
  H  H32  1  0.96260100  0.44825100  0.78075500  1
  H  H33  1  0.55174900  0.03739900  0.71924500  1
  H  H34  1  0.03739900  0.55174900  0.21924500  1
  H  H35  1  0.44825100  0.96260100  0.28075500  1
  H  H36  1  0.88935700  0.28318300  0.82919300  1
  H  H37  1  0.71681700  0.11064300  0.67080700  1
  H  H38  1  0.11064300  0.71681700  0.17080700  1
  H  H39  1  0.28318300  0.88935700  0.32919300  1
  H  H40  1  0.25074400  0.07698600  0.65556500  1
  H  H41  1  0.92301400  0.74925600  0.84443500  1
  H  H42  1  0.74925600  0.92301400  0.34443500  1
  H  H43  1  0.07698600  0.25074400  0.15556500  1
  H  H44  1  0.12705900  0.31473400  0.67921200  1
  H  H45  1  0.68526600  0.87294100  0.82078800  1
  H  H46  1  0.87294100  0.68526600  0.32078800  1
  H  H47  1  0.31473400  0.12705900  0.17921200  1
  S  S0  1  0.57841700  0.69128300  0.62234000  1
  S  S1  1  0.30871700  0.42158300  0.87766000  1
  S  S2  1  0.42158300  0.30871700  0.37766000  1
  S  S3  1  0.69128300  0.57841700  0.12234000  1
  O  O0  1  0.81417500  0.65087600  0.63573100  1
  O  O1  1  0.34912400  0.18582500  0.86426900  1
  O  O2  1  0.18582500  0.34912400  0.36426900  1
  O  O3  1  0.65087600  0.81417500  0.13573100  1
  O  O4  1  0.44592700  0.58872000  0.66598700  1
  O  O5  1  0.41128000  0.55407300  0.83401300  1
  O  O6  1  0.55407300  0.41128000  0.33401300  1
  O  O7  1  0.58872000  0.44592700  0.16598700  1
  O  O8  1  0.57883000  0.59907900  0.56903200  1
  O  O9  1  0.40092100  0.42117000  0.93096800  1
  O  O10  1  0.42117000  0.40092100  0.43096800  1
  O  O11  1  0.59907900  0.57883000  0.06903200  1
  O  O12  1  0.46874100  0.94621300  0.61433700  1
  O  O13  1  0.05378700  0.53125900  0.88566300  1
  O  O14  1  0.53125900  0.05378700  0.38566300  1
  O  O15  1  0.94621300  0.46874100  0.11433700  1
  O  O16  1  0.12602000  0.67993200  0.54653800  1
  O  O17  1  0.32006800  0.87398000  0.95346200  1
  O  O18  1  0.87398000  0.32006800  0.45346200  1
  O  O19  1  0.67993200  0.12602000  0.04653800  1
  O  O20  1  0.79777900  0.14000900  0.57043300  1
  O  O21  1  0.85999100  0.20222100  0.92956700  1
  O  O22  1  0.20222100  0.85999100  0.42956700  1
  O  O23  1  0.14000900  0.79777900  0.07043300  1
  O  O24  1  0.24672200  0.12389700  0.51887800  1
  O  O25  1  0.87610300  0.75327800  0.98112200  1
  O  O26  1  0.75327800  0.87610300  0.48112200  1
  O  O27  1  0.12389700  0.24672200  0.01887800  1
  O  O28  1  0.31517600  0.94136200  0.77683000  1
  O  O29  1  0.05863800  0.68482400  0.72317000  1
  O  O30  1  0.68482400  0.05863800  0.22317000  1
  O  O31  1  0.94136200  0.31517600  0.27683000  1
  O  O32  1  0.90337100  0.31634600  0.78960100  1
  O  O33  1  0.68365400  0.09662900  0.71039900  1
  O  O34  1  0.09662900  0.68365400  0.21039900  1
  O  O35  1  0.31634600  0.90337100  0.28960100  1
  O  O36  1  0.11473600  0.16277400  0.67817800  1
  O  O37  1  0.83722600  0.88526400  0.82182200  1
  O  O38  1  0.88526400  0.83722600  0.32182200  1
  O  O39  1  0.16277400  0.11473600  0.17817800  1
loop_
_geom_bond_atom_site_label_1
_geom_bond_atom_site_label_2
_geom_bond_distance
_geom_bond_site_symmetry_2
Co0 O24 2.029083 1_555
Co0 O26 2.029083 1_445
Co0 O20 2.139270 1_455
Co0 O22 2.139270 1_545
Co0 O16 2.153686 1_545
Co0 O18 2.153686 1_455
Co1 O25 2.029083 1_444
Co1 O27 2.029083 1_555
Co1 O21 2.139270 1_454
Co1 O23 2.139270 1_545
Co1 O17 2.153686 1_544
Co1 O19 2.153686 1_455
Co2 O37 2.078997 1_545
Co2 O36 2.078997 1_655
Co2 O33 2.116344 1_555
Co2 O32 2.116344 1_555
Co2 O29 2.145791 1_645
Co2 O28 2.145791 1_645
Co3 O38 2.078997 1_455
Co3 O39 2.078997 1_565
Co3 O34 2.116344 1_555
Co3 O35 2.116344 1_555
Co3 O30 2.145791 1_465
Co3 O31 2.145791 1_465
H0 O16 0.992465 1_555
H1 O17 0.992465 1_555
H2 O18 0.992465 1_555
H3 O19 0.992465 1_555
H4 O16 0.989327 1_555
H5 O17 0.989327 1_555
H6 O18 0.989327 1_555
H7 O19 0.989327 1_555
H8 O20 0.995384 1_555
H9 O21 0.995384 1_555
H10 O22 0.995384 1_555
H11 O23 0.995384 1_555
H12 O20 0.991929 1_555
H12 O12 1.723457 1_545
H13 O21 0.991929 1_555
H13 O13 1.723457 1_655
H14 O22 0.991929 1_555
H14 O14 1.723457 1_565
H15 O23 0.991929 1_555
H15 O15 1.723457 1_455
H16 O24 0.979542 1_555
H17 O25 0.979542 1_554
H18 O26 0.979542 1_555
H19 O27 0.979542 1_556
H20 O24 0.987242 1_555
H21 O25 0.987242 1_555
H22 O26 0.987242 1_555
H23 O27 0.987242 1_555
H24 O28 0.992197 1_545
H25 O29 0.992197 1_655
H26 O30 0.992197 1_565
H27 O31 0.992197 1_455
H28 O28 1.012051 1_555
H28 O5 1.571814 1_555
H29 O29 1.012051 1_555
H29 O4 1.571814 1_555
H30 O30 1.012051 1_555
H30 O7 1.571814 1_555
H31 O31 1.012051 1_555
H31 O6 1.571814 1_555
H32 O32 0.982293 1_555
H33 O33 0.982293 1_555
H34 O34 0.982293 1_555
H35 O35 0.982293 1_555
H36 O32 0.975649 1_555
H37 O33 0.975649 1_555
H38 O34 0.975649 1_555
H39 O35 0.975649 1_555
H40 O36 1.002603 1_555
H40 O12 1.660398 1_545
H41 O37 1.002603 1_555
H41 O13 1.660398 1_655
H42 O38 1.002603 1_555
H42 O14 1.660398 1_565
H43 O39 1.002603 1_555
H43 O15 1.660398 1_455
H44 O36 0.972543 1_555
H45 O37 0.972543 1_555
H46 O38 0.972543 1_555
H47 O39 0.972543 1_555
O0 S0 1.484488 1_555
O1 S1 1.484488 1_555
O2 S2 1.484488 1_555
O3 S3 1.484488 1_555
O4 S0 1.470724 1_555
O5 S1 1.470724 1_555
O6 S2 1.470724 1_555
O7 S3 1.470724 1_555
O8 S0 1.504390 1_555
O9 S1 1.504390 1_555
O10 S2 1.504390 1_555
O11 S3 1.504390 1_555
O12 S0 1.528332 1_555
O13 S1 1.528332 1_555
O14 S2 1.528332 1_555
O15 S3 1.528332 1_555
