# generated using pymatgen
data_LaP3H3O10
_symmetry_space_group_name_H-M   'P 1'
_cell_length_a   7.23778800
_cell_length_b   8.48635673
_cell_length_c   9.48007100
_cell_angle_alpha   65.38786033
_cell_angle_beta   70.34281255
_cell_angle_gamma   78.21338347
_symmetry_Int_Tables_number   1
_chemical_formula_structural   LaP3H3O10
_chemical_formula_sum   'La2 P6 H6 O20'
_cell_volume   497.13324661
_cell_formula_units_Z   2
loop_
 _symmetry_equiv_pos_site_id
 _symmetry_equiv_pos_as_xyz
  1  'x, y, z'
loop_
 _atom_site_type_symbol
 _atom_site_label
 _atom_site_symmetry_multiplicity
 _atom_site_fract_x
 _atom_site_fract_y
 _atom_site_fract_z
 _atom_site_occupancy
  La  La0  1  0.32914700  0.45602200  0.87951600  1
  La  La1  1  0.67085300  0.54397800  0.12048400  1
  P  P0  1  0.04345800  0.88937700  0.83728800  1
  P  P1  1  0.95654200  0.11062300  0.16271200  1
  P  P2  1  0.85235000  0.55211500  0.72824800  1
  P  P3  1  0.14765000  0.44788500  0.27175200  1
  P  P4  1  0.54381300  0.21155200  0.57390000  1
  P  P5  1  0.45618700  0.78844800  0.42610000  1
  H  H0  1  0.07082500  0.96207300  0.66777600  1
  H  H1  1  0.92917500  0.03792700  0.33222400  1
  H  H2  1  0.87321800  0.71305900  0.59669900  1
  H  H3  1  0.12678200  0.28694100  0.40330100  1
  H  H4  1  0.71760400  0.24548400  0.81461800  1
  H  H5  1  0.28239600  0.75451600  0.18538200  1
  O  O0  1  0.84731100  0.80560000  0.92303600  1
  O  O1  1  0.15268900  0.19440000  0.07696400  1
  O  O2  1  0.21572900  0.75823700  0.87546800  1
  O  O3  1  0.78427100  0.24176300  0.12453200  1
  O  O4  1  0.03870700  0.05768600  0.86917500  1
  O  O5  1  0.96129300  0.94231400  0.13082500  1
  O  O6  1  0.65014000  0.56229700  0.85279300  1
  O  O7  1  0.34986000  0.43770300  0.14720700  1
  O  O8  1  0.01825700  0.52242700  0.80567900  1
  O  O9  1  0.98174300  0.47757300  0.19432100  1
  O  O10  1  0.85403700  0.40969500  0.66635600  1
  O  O11  1  0.14596300  0.59030500  0.33364400  1
  O  O12  1  0.42398700  0.26562100  0.71327700  1
  O  O13  1  0.57601300  0.73437900  0.28672300  1
  O  O14  1  0.64834000  0.03805500  0.59956600  1
  O  O15  1  0.35166000  0.96194500  0.40043400  1
  O  O16  1  0.45443400  0.65361500  0.58991900  1
  O  O17  1  0.54556600  0.34638500  0.41008100  1
  O  O18  1  0.59036300  0.20408500  0.90073200  1
  O  O19  1  0.40963700  0.79591500  0.09926800  1
loop_
_geom_bond_atom_site_label_1
_geom_bond_atom_site_label_2
_geom_bond_distance
_geom_bond_site_symmetry_2
La0 O8 2.466539 1_555
La0 O1 2.480462 1_556
La0 O16 2.506600 1_555
La0 O2 2.516377 1_555
La0 O7 2.530719 1_556
La0 O18 2.536207 1_555
La0 O12 2.550647 1_555
La0 O6 2.558307 1_555
La1 O9 2.466539 1_555
La1 O0 2.480462 1_554
La1 O17 2.506600 1_555
La1 O3 2.516377 1_555
La1 O6 2.530719 1_554
La1 O19 2.536207 1_555
La1 O13 2.550647 1_555
La1 O7 2.558307 1_555
H0 P0 1.418531 1_555
H1 P1 1.418531 1_555
H2 P2 1.407950 1_555
H3 P3 1.407950 1_555
H4 O18 1.012664 1_555
H4 O10 1.699867 1_555
H5 O19 1.012664 1_555
H5 O11 1.699867 1_555
O0 P0 1.528484 1_655
O1 P1 1.528484 1_455
O2 P0 1.524935 1_555
O3 P1 1.524935 1_555
O4 P0 1.570119 1_545
O5 P1 1.570119 1_565
O6 P2 1.553780 1_555
O7 P3 1.553780 1_555
O8 P2 1.536102 1_455
O9 P3 1.536102 1_655
O10 P2 1.544354 1_555
O11 P3 1.544354 1_555
O12 P4 1.509970 1_555
O13 P5 1.509970 1_555
O14 P4 1.473015 1_555
O15 P5 1.473015 1_555
O16 P5 1.494595 1_555
O17 P4 1.494595 1_555
