# generated using pymatgen
data_LiNiPO4
_symmetry_space_group_name_H-M   'P 1'
_cell_length_a   4.97050771
_cell_length_b   4.97050771
_cell_length_c   15.40170774
_cell_angle_alpha   86.56273180
_cell_angle_beta   86.56273180
_cell_angle_gamma   74.79392637
_symmetry_Int_Tables_number   1
_chemical_formula_structural   LiNiPO4
_chemical_formula_sum   'Li4 Ni4 P4 O16'
_cell_volume   366.14432917
_cell_formula_units_Z   4
loop_
 _symmetry_equiv_pos_site_id
 _symmetry_equiv_pos_as_xyz
  1  'x, y, z'
loop_
 _atom_site_type_symbol
 _atom_site_label
 _atom_site_symmetry_multiplicity
 _atom_site_fract_x
 _atom_site_fract_y
 _atom_site_fract_z
 _atom_site_occupancy
  Li  Li0  1  0.78606500  0.66906500  0.27050400  1
  Li  Li1  1  0.66906500  0.78606500  0.77050400  1
  Li  Li2  1  0.33093500  0.21393500  0.22949600  1
  Li  Li3  1  0.21393500  0.33093500  0.72949600  1
  Ni  Ni0  1  0.92959100  0.37662700  0.08851800  1
  Ni  Ni1  1  0.62337300  0.07040900  0.41148200  1
  Ni  Ni2  1  0.37662700  0.92959100  0.58851800  1
  Ni  Ni3  1  0.07040900  0.62337300  0.91148200  1
  P  P0  1  0.29906800  0.73508500  0.37716900  1
  P  P1  1  0.26491500  0.70093200  0.12283100  1
  P  P2  1  0.73508500  0.29906800  0.87716900  1
  P  P3  1  0.70093200  0.26491500  0.62283100  1
  O  O0  1  0.43843000  0.91606000  0.31099800  1
  O  O1  1  0.91606000  0.43843000  0.81099800  1
  O  O2  1  0.20274900  0.01862600  0.13099200  1
  O  O3  1  0.56874900  0.55523100  0.14389600  1
  O  O4  1  0.37727800  0.81695900  0.46634900  1
  O  O5  1  0.01862600  0.20274900  0.63099200  1
  O  O6  1  0.55523100  0.56874900  0.64389600  1
  O  O7  1  0.81695900  0.37727800  0.96634900  1
  O  O8  1  0.18304100  0.62272200  0.03365100  1
  O  O9  1  0.44476900  0.43125100  0.35610400  1
  O  O10  1  0.98137400  0.79725100  0.36900800  1
  O  O11  1  0.62272200  0.18304100  0.53365100  1
  O  O12  1  0.43125100  0.44476900  0.85610400  1
  O  O13  1  0.79725100  0.98137400  0.86900800  1
  O  O14  1  0.08394000  0.56157000  0.18900200  1
  O  O15  1  0.56157000  0.08394000  0.68900200  1
loop_
_geom_bond_atom_site_label_1
_geom_bond_atom_site_label_2
_geom_bond_distance
_geom_bond_site_symmetry_2
Li0 O14 1.869734 1_655
Li0 O0 1.931755 1_555
Li0 O10 2.065685 1_555
Li0 O3 2.448431 1_555
Li0 O9 2.571009 1_555
Li1 O15 1.869734 1_565
Li1 O1 1.931755 1_555
Li1 O13 2.065685 1_555
Li1 O6 2.448431 1_555
Li1 O12 2.571009 1_555
Li2 O0 1.869734 1_545
Li2 O14 1.931755 1_555
Li2 O2 2.065685 1_555
Li2 O9 2.448431 1_555
Li2 O3 2.571009 1_555
Li3 O1 1.869734 1_455
Li3 O15 1.931755 1_555
Li3 O5 2.065685 1_555
Li3 O12 2.448431 1_555
Li3 O6 2.571009 1_555
Ni0 O3 1.950526 1_555
Ni0 O7 1.994624 1_554
Ni0 O2 2.034043 1_655
Ni0 O8 2.086663 1_655
Ni0 O14 2.124076 1_655
Ni1 O9 1.950526 1_555
Ni1 O11 1.994624 1_555
Ni1 O10 2.034043 1_545
Ni1 O4 2.086663 1_545
Ni1 O0 2.124076 1_545
Ni2 O6 1.950526 1_555
Ni2 O4 1.994624 1_555
Ni2 O5 2.034043 1_565
Ni2 O11 2.086663 1_565
Ni2 O15 2.124076 1_565
Ni3 O12 1.950526 1_555
Ni3 O8 1.994624 1_556
Ni3 O13 2.034043 1_455
Ni3 O7 2.086663 1_455
Ni3 O1 2.124076 1_455
O0 P0 1.568423 1_555
O1 P2 1.568423 1_555
O2 P1 1.538836 1_545
O3 P1 1.538606 1_555
O4 P0 1.554781 1_555
O5 P3 1.538836 1_455
O6 P3 1.538606 1_555
O7 P2 1.554781 1_555
O8 P1 1.554781 1_555
O9 P0 1.538606 1_555
O10 P0 1.538836 1_655
O11 P3 1.554781 1_555
O12 P2 1.538606 1_555
O13 P2 1.538836 1_565
O14 P1 1.568423 1_555
O15 P3 1.568423 1_555
