# generated using pymatgen
data_Na3MnO3
_symmetry_space_group_name_H-M   'P 1'
_cell_length_a   8.28661454
_cell_length_b   8.28661454
_cell_length_c   16.93741600
_cell_angle_alpha   90.00000000
_cell_angle_beta   90.00000000
_cell_angle_gamma   93.84594465
_symmetry_Int_Tables_number   1
_chemical_formula_structural   Na3MnO3
_chemical_formula_sum   'Na36 Mn12 O36'
_cell_volume   1160.43894935
_cell_formula_units_Z   12
loop_
 _symmetry_equiv_pos_site_id
 _symmetry_equiv_pos_as_xyz
  1  'x, y, z'
loop_
 _atom_site_type_symbol
 _atom_site_label
 _atom_site_symmetry_multiplicity
 _atom_site_fract_x
 _atom_site_fract_y
 _atom_site_fract_z
 _atom_site_occupancy
  Na  Na0  1  0.02823500  0.38766100  0.57118200  1
  Na  Na1  1  0.38766100  0.02823500  0.42881800  1
  Na  Na2  1  0.18265500  0.24190800  0.08663300  1
  Na  Na3  1  0.24190800  0.18265500  0.91336700  1
  Na  Na4  1  0.33022500  0.16977500  0.25000000  1
  Na  Na5  1  0.16977500  0.33022500  0.75000000  1
  Na  Na6  1  0.25809200  0.31734500  0.41336700  1
  Na  Na7  1  0.31734500  0.25809200  0.58663300  1
  Na  Na8  1  0.11233900  0.47176500  0.92881800  1
  Na  Na9  1  0.47176500  0.11233900  0.07118200  1
  Na  Na10  1  0.15562400  0.51177000  0.19080200  1
  Na  Na11  1  0.65562400  0.01177000  0.30919800  1
  Na  Na12  1  0.01177000  0.65562400  0.69080200  1
  Na  Na13  1  0.51177000  0.15562400  0.80919800  1
  Na  Na14  1  0.97320600  0.02679400  0.22408400  1
  Na  Na15  1  0.67340000  0.32660000  0.22478600  1
  Na  Na16  1  0.82660000  0.17340000  0.72478600  1
  Na  Na17  1  0.47320600  0.52679400  0.27591600  1
  Na  Na18  1  0.32660000  0.67340000  0.77521400  1
  Na  Na19  1  0.02679400  0.97320600  0.77591600  1
  Na  Na20  1  0.52679400  0.47320600  0.72408400  1
  Na  Na21  1  0.17340000  0.82660000  0.27521400  1
  Na  Na22  1  0.98823000  0.34437600  0.30919800  1
  Na  Na23  1  0.34437600  0.98823000  0.69080200  1
  Na  Na24  1  0.84437600  0.48823000  0.80919800  1
  Na  Na25  1  0.48823000  0.84437600  0.19080200  1
  Na  Na26  1  0.88766100  0.52823500  0.07118200  1
  Na  Na27  1  0.52823500  0.88766100  0.92881800  1
  Na  Na28  1  0.68265500  0.74190800  0.41336700  1
  Na  Na29  1  0.74190800  0.68265500  0.58663300  1
  Na  Na30  1  0.83022500  0.66977500  0.25000000  1
  Na  Na31  1  0.66977500  0.83022500  0.75000000  1
  Na  Na32  1  0.75809200  0.81734500  0.08663300  1
  Na  Na33  1  0.81734500  0.75809200  0.91336700  1
  Na  Na34  1  0.97176500  0.61233900  0.42881800  1
  Na  Na35  1  0.61233900  0.97176500  0.57118200  1
  Mn  Mn0  1  0.82715600  0.17284400  0.09228300  1
  Mn  Mn1  1  0.99848900  0.00151100  0.41424200  1
  Mn  Mn2  1  0.00151100  0.99848900  0.58575800  1
  Mn  Mn3  1  0.67284400  0.32715600  0.59228300  1
  Mn  Mn4  1  0.65268500  0.34731500  0.42030500  1
  Mn  Mn5  1  0.32715600  0.67284400  0.40771700  1
  Mn  Mn6  1  0.84731500  0.15268500  0.92030500  1
  Mn  Mn7  1  0.49848900  0.50151100  0.08575800  1
  Mn  Mn8  1  0.34731500  0.65268500  0.57969500  1
  Mn  Mn9  1  0.50151100  0.49848900  0.91424200  1
  Mn  Mn10  1  0.17284400  0.82715600  0.90771700  1
  Mn  Mn11  1  0.15268500  0.84731500  0.07969500  1
  O  O0  1  0.11705600  0.11705600  0.50000000  1
  O  O1  1  0.12563800  0.11467200  0.33753800  1
  O  O2  1  0.11467200  0.12563800  0.66246200  1
  O  O3  1  0.19715300  0.55599400  0.33129300  1
  O  O4  1  0.05599400  0.69715300  0.83129300  1
  O  O5  1  0.69715300  0.05599400  0.16870700  1
  O  O6  1  0.55599400  0.19715300  0.66870700  1
  O  O7  1  0.51856700  0.23900600  0.34491800  1
  O  O8  1  0.23900600  0.51856700  0.65508200  1
  O  O9  1  0.73900600  0.01856700  0.84491800  1
  O  O10  1  0.01856700  0.73900600  0.15508200  1
  O  O11  1  0.38532800  0.37436200  0.16246200  1
  O  O12  1  0.37436200  0.38532800  0.83753800  1
  O  O13  1  0.38294400  0.38294400  0.00000000  1
  O  O14  1  0.04705400  0.72302800  0.99286800  1
  O  O15  1  0.22302800  0.54705400  0.49286800  1
  O  O16  1  0.72302800  0.04705400  0.00713200  1
  O  O17  1  0.54705400  0.22302800  0.50713200  1
  O  O18  1  0.45294600  0.77697200  0.49286800  1
  O  O19  1  0.77697200  0.45294600  0.50713200  1
  O  O20  1  0.95294600  0.27697200  0.00713200  1
  O  O21  1  0.27697200  0.95294600  0.99286800  1
  O  O22  1  0.61705600  0.61705600  0.00000000  1
  O  O23  1  0.61467200  0.62563800  0.83753800  1
  O  O24  1  0.62563800  0.61467200  0.16246200  1
  O  O25  1  0.98143300  0.26099400  0.84491800  1
  O  O26  1  0.76099400  0.48143300  0.34491800  1
  O  O27  1  0.26099400  0.98143300  0.15508200  1
  O  O28  1  0.48143300  0.76099400  0.65508200  1
  O  O29  1  0.94400600  0.30284700  0.16870700  1
  O  O30  1  0.80284700  0.44400600  0.66870700  1
  O  O31  1  0.44400600  0.80284700  0.33129300  1
  O  O32  1  0.30284700  0.94400600  0.83129300  1
  O  O33  1  0.88532800  0.87436200  0.33753800  1
  O  O34  1  0.87436200  0.88532800  0.66246200  1
  O  O35  1  0.88294400  0.88294400  0.50000000  1
loop_
_geom_bond_atom_site_label_1
_geom_bond_atom_site_label_2
_geom_bond_distance
_geom_bond_site_symmetry_2
Na0 O15 2.413208 1_555
Na0 O19 2.440467 1_455
Na0 O8 2.447953 1_555
Na0 O30 2.559652 1_455
Na0 O0 2.691665 1_555
Na0 O2 2.797572 1_555
Na1 O17 2.413208 1_555
Na1 O18 2.440467 1_545
Na1 O7 2.447953 1_555
Na1 O31 2.559652 1_545
Na1 O0 2.691665 1_555
Na1 O1 2.797572 1_555
Na2 O11 2.329723 1_555
Na2 O20 2.365406 1_455
Na2 O13 2.452228 1_555
Na2 O29 2.496453 1_455
Na2 O27 2.571460 1_545
Na3 O12 2.329723 1_555
Na3 O21 2.365406 1_545
Na3 O13 2.452228 1_556
Na3 O32 2.496453 1_545
Na3 O25 2.571460 1_455
Na4 O1 2.275327 1_555
Na4 O11 2.275327 1_555
Na4 O27 2.286796 1_545
Na4 O7 2.286796 1_555
Na5 O2 2.275327 1_555
Na5 O12 2.275327 1_555
Na5 O25 2.286796 1_455
Na5 O8 2.286796 1_555
Na6 O1 2.329723 1_555
Na6 O15 2.365406 1_555
Na6 O0 2.452228 1_555
Na6 O3 2.496453 1_555
Na6 O7 2.571460 1_555
Na7 O2 2.329723 1_555
Na7 O17 2.365406 1_555
Na7 O0 2.452228 1_555
Na7 O6 2.496453 1_555
Na7 O8 2.571460 1_555
Na8 O20 2.413208 1_456
Na8 O14 2.440467 1_555
Na8 O25 2.447953 1_455
Na8 O4 2.559652 1_555
Na8 O13 2.691665 1_556
Na8 O12 2.797572 1_555
Na9 O21 2.413208 1_544
Na9 O16 2.440467 1_555
Na9 O27 2.447953 1_545
Na9 O5 2.559652 1_555
Na9 O13 2.691665 1_555
Na9 O11 2.797572 1_555
Na10 O11 2.332566 1_555
Na10 O10 2.342771 1_555
Na10 O29 2.409390 1_455
Na10 O3 2.428598 1_555
Na11 O33 2.332566 1_545
Na11 O7 2.342771 1_555
Na11 O31 2.409390 1_545
Na11 O5 2.428598 1_555
Na12 O34 2.332566 1_455
Na12 O8 2.342771 1_555
Na12 O30 2.409390 1_455
Na12 O4 2.428598 1_555
Na13 O12 2.332566 1_555
Na13 O9 2.342771 1_555
Na13 O32 2.409390 1_545
Na13 O6 2.428598 1_555
Na14 O33 2.386430 1_545
Na14 O1 2.386430 1_655
Na14 O5 2.499080 1_555
Na14 O29 2.499080 1_555
Na14 O27 2.704562 1_645
Na14 O10 2.704562 1_645
Na15 O29 2.455306 1_555
Na15 O5 2.455306 1_555
Na15 O7 2.487617 1_555
Na15 O26 2.487617 1_555
Na15 O11 2.663858 1_555
Na15 O24 2.663858 1_555
Na16 O30 2.455306 1_555
Na16 O6 2.455306 1_555
Na16 O25 2.487617 1_555
Na16 O9 2.487617 1_555
Na16 O34 2.663858 1_545
Na16 O2 2.663858 1_655
Na17 O11 2.386430 1_555
Na17 O24 2.386430 1_555
Na17 O3 2.499080 1_555
Na17 O31 2.499080 1_555
Na17 O7 2.704562 1_555
Na17 O26 2.704562 1_555
Na18 O32 2.455306 1_555
Na18 O4 2.455306 1_555
Na18 O28 2.487617 1_555
Na18 O8 2.487617 1_555
Na18 O12 2.663858 1_555
Na18 O23 2.663858 1_555
Na19 O34 2.386430 1_455
Na19 O2 2.386430 1_565
Na19 O4 2.499080 1_555
Na19 O32 2.499080 1_555
Na19 O25 2.704562 1_465
Na19 O9 2.704562 1_465
Na20 O12 2.386430 1_555
Na20 O23 2.386430 1_555
Na20 O6 2.499080 1_555
Na20 O30 2.499080 1_555
Na20 O8 2.704562 1_555
Na20 O28 2.704562 1_555
Na21 O31 2.455306 1_555
Na21 O3 2.455306 1_555
Na21 O27 2.487617 1_555
Na21 O10 2.487617 1_555
Na21 O33 2.663858 1_455
Na21 O1 2.663858 1_565
Na22 O1 2.332566 1_655
Na22 O26 2.342771 1_555
Na22 O3 2.409390 1_655
Na22 O29 2.428598 1_555
Na23 O2 2.332566 1_565
Na23 O28 2.342771 1_555
Na23 O6 2.409390 1_565
Na23 O32 2.428598 1_555
Na24 O23 2.332566 1_555
Na24 O25 2.342771 1_555
Na24 O4 2.409390 1_655
Na24 O30 2.428598 1_555
Na25 O24 2.332566 1_555
Na25 O27 2.342771 1_555
Na25 O5 2.409390 1_565
Na25 O31 2.428598 1_555
Na26 O14 2.413208 1_654
Na26 O20 2.440467 1_555
Na26 O10 2.447953 1_655
Na26 O29 2.559652 1_555
Na26 O22 2.691665 1_555
Na26 O24 2.797572 1_555
Na27 O16 2.413208 1_566
Na27 O21 2.440467 1_555
Na27 O9 2.447953 1_565
Na27 O32 2.559652 1_555
Na27 O22 2.691665 1_556
Na27 O23 2.797572 1_555
Na28 O33 2.329723 1_555
Na28 O18 2.365406 1_555
Na28 O35 2.452228 1_555
Na28 O31 2.496453 1_555
Na28 O26 2.571460 1_555
Na29 O34 2.329723 1_555
Na29 O19 2.365406 1_555
Na29 O35 2.452228 1_555
Na29 O30 2.496453 1_555
Na29 O28 2.571460 1_555
Na30 O33 2.275327 1_555
Na30 O24 2.275327 1_555
Na30 O10 2.286796 1_655
Na30 O26 2.286796 1_555
Na31 O34 2.275327 1_555
Na31 O23 2.275327 1_555
Na31 O9 2.286796 1_565
Na31 O28 2.286796 1_555
Na32 O24 2.329723 1_555
Na32 O16 2.365406 1_565
Na32 O22 2.452228 1_555
Na32 O5 2.496453 1_565
Na32 O10 2.571460 1_655
Na33 O23 2.329723 1_555
Na33 O14 2.365406 1_655
Na33 O22 2.452228 1_556
Na33 O4 2.496453 1_655
Na33 O9 2.571460 1_565
Na34 O19 2.413208 1_555
Na34 O15 2.440467 1_655
Na34 O26 2.447953 1_555
Na34 O3 2.559652 1_655
Na34 O35 2.691665 1_555
Na34 O33 2.797572 1_555
Na35 O18 2.413208 1_555
Na35 O17 2.440467 1_565
Na35 O28 2.447953 1_555
Na35 O6 2.559652 1_565
Na35 O35 2.691665 1_555
Na35 O34 2.797572 1_555
Mn0 O29 1.906235 1_555
Mn0 O5 1.906235 1_555
Mn0 O20 1.946915 1_555
Mn0 O16 1.946915 1_555
Mn1 O1 1.882754 1_655
Mn1 O33 1.882754 1_545
Mn1 O35 1.966143 1_545
Mn1 O0 1.966143 1_655
Mn2 O2 1.882754 1_565
Mn2 O34 1.882754 1_455
Mn2 O0 1.966143 1_565
Mn2 O35 1.966143 1_455
Mn3 O30 1.906235 1_555
Mn3 O6 1.906235 1_555
Mn3 O19 1.946915 1_555
Mn3 O17 1.946915 1_555
Mn4 O7 1.880763 1_555
Mn4 O26 1.880763 1_555
Mn4 O19 1.966907 1_555
Mn4 O17 1.966907 1_555
Mn5 O31 1.906235 1_555
Mn5 O3 1.906235 1_555
Mn5 O18 1.946915 1_555
Mn5 O15 1.946915 1_555
Mn6 O9 1.880763 1_555
Mn6 O25 1.880763 1_555
Mn6 O16 1.966907 1_556
Mn6 O20 1.966907 1_556
Mn7 O11 1.882754 1_555
Mn7 O24 1.882754 1_555
Mn7 O13 1.966143 1_555
Mn7 O22 1.966143 1_555
Mn8 O8 1.880763 1_555
Mn8 O28 1.880763 1_555
Mn8 O18 1.966907 1_555
Mn8 O15 1.966907 1_555
Mn9 O12 1.882754 1_555
Mn9 O23 1.882754 1_555
Mn9 O13 1.966143 1_556
Mn9 O22 1.966143 1_556
Mn10 O32 1.906235 1_555
Mn10 O4 1.906235 1_555
Mn10 O21 1.946915 1_555
Mn10 O14 1.946915 1_555
Mn11 O10 1.880763 1_555
Mn11 O27 1.880763 1_555
Mn11 O14 1.966907 1_554
Mn11 O21 1.966907 1_554
