# generated using pymatgen
data_Nb2Ge2O7
_symmetry_space_group_name_H-M   'P 1'
_cell_length_a   5.76306400
_cell_length_b   8.01266200
_cell_length_c   13.70092448
_cell_angle_alpha   84.16824527
_cell_angle_beta   90.00000000
_cell_angle_gamma   90.00000000
_symmetry_Int_Tables_number   1
_chemical_formula_structural   Nb2Ge2O7
_chemical_formula_sum   'Nb8 Ge8 O28'
_cell_volume   629.39984462
_cell_formula_units_Z   4
loop_
 _symmetry_equiv_pos_site_id
 _symmetry_equiv_pos_as_xyz
  1  'x, y, z'
loop_
 _atom_site_type_symbol
 _atom_site_label
 _atom_site_symmetry_multiplicity
 _atom_site_fract_x
 _atom_site_fract_y
 _atom_site_fract_z
 _atom_site_occupancy
  Nb  Nb0  1  0.27005500  0.92551200  0.32244900  1
  Nb  Nb1  1  0.78810500  0.96721500  0.11737800  1
  Nb  Nb2  1  0.76188900  0.58631200  0.68581400  1
  Nb  Nb3  1  0.29064400  0.52389100  0.88954200  1
  Nb  Nb4  1  0.79064400  0.47610900  0.11045800  1
  Nb  Nb5  1  0.26188900  0.41368800  0.31418600  1
  Nb  Nb6  1  0.28810500  0.03278500  0.88262200  1
  Nb  Nb7  1  0.77005500  0.07448800  0.67755100  1
  Ge  Ge0  1  0.23716300  0.85583200  0.56322300  1
  Ge  Ge1  1  0.87405200  0.81353800  0.89818100  1
  Ge  Ge2  1  0.33981600  0.69420900  0.14062900  1
  Ge  Ge3  1  0.73941800  0.57702600  0.42832700  1
  Ge  Ge4  1  0.23941800  0.42297400  0.57167300  1
  Ge  Ge5  1  0.83981600  0.30579100  0.85937100  1
  Ge  Ge6  1  0.37405200  0.18646200  0.10181900  1
  Ge  Ge7  1  0.73716300  0.14416800  0.43677700  1
  O  O0  1  0.53033800  0.98151800  0.39572800  1
  O  O1  1  0.46649300  0.98469500  0.18482300  1
  O  O2  1  0.71112400  0.81147100  0.69500300  1
  O  O3  1  0.22705300  0.77179900  0.89129000  1
  O  O4  1  0.09019600  0.86318700  0.43520800  1
  O  O5  1  0.98860200  0.96238300  0.00699100  1
  O  O6  1  0.98494800  0.94194800  0.22271000  1
  O  O7  1  0.05146100  0.61907800  0.60767100  1
  O  O8  1  0.94871700  0.53886700  0.81326000  1
  O  O9  1  0.68653200  0.72647300  0.11085600  1
  O  O10  1  0.33320700  0.69621000  0.29026700  1
  O  O11  1  0.58561000  0.54312000  0.56260300  1
  O  O12  1  0.51683600  0.49356000  0.98487100  1
  O  O13  1  0.47023200  0.52108000  0.77469300  1
  O  O14  1  0.97023200  0.47892000  0.22530700  1
  O  O15  1  0.01683600  0.50644000  0.01512900  1
  O  O16  1  0.08561000  0.45688000  0.43739700  1
  O  O17  1  0.83320700  0.30379000  0.70973300  1
  O  O18  1  0.18653200  0.27352700  0.88914400  1
  O  O19  1  0.44871700  0.46113300  0.18674000  1
  O  O20  1  0.55146100  0.38092200  0.39232900  1
  O  O21  1  0.48494800  0.05805200  0.77729000  1
  O  O22  1  0.48860200  0.03761700  0.99300900  1
  O  O23  1  0.59019600  0.13681300  0.56479200  1
  O  O24  1  0.72705300  0.22820100  0.10871000  1
  O  O25  1  0.21112400  0.18852900  0.30499700  1
  O  O26  1  0.96649300  0.01530500  0.81517700  1
  O  O27  1  0.03033800  0.01848200  0.60427200  1
loop_
_geom_bond_atom_site_label_1
_geom_bond_atom_site_label_2
_geom_bond_distance
_geom_bond_site_symmetry_2
Nb0 O0 1.884415 1_555
Nb0 O4 1.885138 1_555
Nb0 O10 1.966531 1_555
Nb0 O25 2.124036 1_565
Nb0 O6 2.132577 1_455
Nb0 O1 2.209136 1_555
Nb1 O6 1.830626 1_555
Nb1 O5 1.906801 1_555
Nb1 O9 2.026488 1_555
Nb1 O1 2.082104 1_555
Nb1 O24 2.111994 1_565
Nb1 O22 2.450645 1_564
Nb2 O2 1.844576 1_555
Nb2 O7 1.985705 1_655
Nb2 O11 2.029843 1_555
Nb2 O8 2.053747 1_555
Nb2 O13 2.109958 1_555
Nb2 O17 2.291320 1_555
Nb3 O12 1.843830 1_555
Nb3 O13 1.885446 1_555
Nb3 O3 2.022460 1_555
Nb3 O18 2.094427 1_555
Nb3 O8 2.228065 1_455
Nb3 O15 2.328373 1_556
Nb4 O15 1.843830 1_655
Nb4 O14 1.885446 1_555
Nb4 O24 2.022460 1_555
Nb4 O9 2.094427 1_555
Nb4 O19 2.228065 1_555
Nb4 O12 2.328373 1_554
Nb5 O25 1.844576 1_555
Nb5 O20 1.985705 1_555
Nb5 O16 2.029843 1_555
Nb5 O19 2.053747 1_555
Nb5 O14 2.109958 1_455
Nb5 O10 2.291320 1_555
Nb6 O21 1.830626 1_555
Nb6 O22 1.906801 1_555
Nb6 O18 2.026488 1_555
Nb6 O26 2.082104 1_455
Nb6 O3 2.111994 1_545
Nb6 O5 2.450645 1_446
Nb7 O27 1.884415 1_655
Nb7 O23 1.885138 1_555
Nb7 O17 1.966531 1_555
Nb7 O2 2.124036 1_545
Nb7 O21 2.132577 1_555
Nb7 O26 2.209136 1_555
Ge0 O27 1.893271 1_565
Ge0 O4 1.943217 1_555
Ge0 O7 2.209110 1_555
Ge1 O26 1.953760 1_565
Ge1 O3 2.065389 1_655
Ge1 O5 2.107606 1_556
Ge2 O19 2.010230 1_555
Ge2 O9 2.050461 1_555
Ge2 O10 2.052224 1_555
Ge3 O20 2.010749 1_555
Ge3 O11 2.035306 1_555
Ge3 O16 2.213240 1_655
Ge4 O7 2.010749 1_555
Ge4 O16 2.035306 1_555
Ge4 O11 2.213240 1_555
Ge5 O8 2.010230 1_555
Ge5 O18 2.050461 1_655
Ge5 O17 2.052224 1_555
Ge6 O1 1.953760 1_545
Ge6 O24 2.065389 1_555
Ge6 O22 2.107606 1_554
Ge7 O0 1.893271 1_545
Ge7 O23 1.943217 1_555
Ge7 O20 2.209110 1_555
