# generated using pymatgen
data_Lu2TeO6
_symmetry_space_group_name_H-M   'P 1'
_cell_length_a   9.71200415
_cell_length_b   9.71200415
_cell_length_c   5.30711846
_cell_angle_alpha   76.14369816
_cell_angle_beta   76.14369816
_cell_angle_gamma   68.66668051
_symmetry_Int_Tables_number   1
_chemical_formula_structural   Lu2TeO6
_chemical_formula_sum   'Lu8 Te4 O24'
_cell_volume   446.24319688
_cell_formula_units_Z   4
loop_
 _symmetry_equiv_pos_site_id
 _symmetry_equiv_pos_as_xyz
  1  'x, y, z'
loop_
 _atom_site_type_symbol
 _atom_site_label
 _atom_site_symmetry_multiplicity
 _atom_site_fract_x
 _atom_site_fract_y
 _atom_site_fract_z
 _atom_site_occupancy
  Lu  Lu0  1  0.93905800  0.71716800  0.38533700  1
  Lu  Lu1  1  0.71716800  0.93905800  0.88533700  1
  Lu  Lu2  1  0.37542400  0.62457600  0.25000000  1
  Lu  Lu3  1  0.89746300  0.10253700  0.25000000  1
  Lu  Lu4  1  0.10253700  0.89746300  0.75000000  1
  Lu  Lu5  1  0.62457600  0.37542400  0.75000000  1
  Lu  Lu6  1  0.28283200  0.06094200  0.11466300  1
  Lu  Lu7  1  0.06094200  0.28283200  0.61466300  1
  Te  Te0  1  0.80498000  0.50168300  0.06689900  1
  Te  Te1  1  0.50168300  0.80498000  0.56689900  1
  Te  Te2  1  0.49831700  0.19502000  0.43310100  1
  Te  Te3  1  0.19502000  0.49831700  0.93310100  1
  O  O0  1  0.89387600  0.92484600  0.07732900  1
  O  O1  1  0.92484600  0.89387600  0.57732900  1
  O  O2  1  0.52947800  0.94492600  0.25524800  1
  O  O3  1  0.78517900  0.68845900  0.15016800  1
  O  O4  1  0.94492600  0.52947800  0.75524800  1
  O  O5  1  0.68845900  0.78517900  0.65016800  1
  O  O6  1  0.82076800  0.37678300  0.40055500  1
  O  O7  1  0.37678300  0.82076800  0.90055500  1
  O  O8  1  0.60960700  0.54163500  0.01060200  1
  O  O9  1  0.31224200  0.84493800  0.42651200  1
  O  O10  1  0.54163500  0.60960700  0.51060200  1
  O  O11  1  0.84493800  0.31224200  0.92651200  1
  O  O12  1  0.15506200  0.68775800  0.07348800  1
  O  O13  1  0.45836500  0.39039300  0.48939800  1
  O  O14  1  0.68775800  0.15506200  0.57348800  1
  O  O15  1  0.39039300  0.45836500  0.98939800  1
  O  O16  1  0.62321700  0.17923200  0.09944500  1
  O  O17  1  0.17923200  0.62321700  0.59944500  1
  O  O18  1  0.31154100  0.21482100  0.34983200  1
  O  O19  1  0.05507400  0.47052200  0.24475200  1
  O  O20  1  0.21482100  0.31154100  0.84983200  1
  O  O21  1  0.47052200  0.05507400  0.74475200  1
  O  O22  1  0.07515400  0.10612400  0.42267100  1
  O  O23  1  0.10612400  0.07515400  0.92267100  1
loop_
_geom_bond_atom_site_label_1
_geom_bond_atom_site_label_2
_geom_bond_distance
_geom_bond_site_symmetry_2
Lu0 O1 2.144858 1_555
Lu0 O0 2.247926 1_555
Lu0 O3 2.287382 1_555
Lu0 O12 2.312800 1_655
Lu0 O4 2.333236 1_555
Lu0 O5 2.443712 1_555
Lu0 O19 2.460466 1_655
Lu0 O17 2.605566 1_655
Lu1 O0 2.144858 1_556
Lu1 O1 2.247926 1_555
Lu1 O5 2.287382 1_555
Lu1 O14 2.312800 1_565
Lu1 O2 2.333236 1_556
Lu1 O3 2.443712 1_556
Lu1 O21 2.460466 1_565
Lu1 O16 2.605566 1_566
Lu2 O13 2.282334 1_555
Lu2 O8 2.282334 1_555
Lu2 O10 2.311281 1_555
Lu2 O15 2.311281 1_554
Lu2 O7 2.320379 1_554
Lu2 O17 2.320379 1_555
Lu2 O9 2.358766 1_555
Lu2 O12 2.358766 1_555
Lu3 O0 2.153054 1_545
Lu3 O22 2.153054 1_655
Lu3 O1 2.310462 1_545
Lu3 O23 2.310462 1_654
Lu3 O11 2.311789 1_554
Lu3 O14 2.311789 1_555
Lu3 O16 2.752844 1_555
Lu3 O6 2.752844 1_555
Lu4 O1 2.153054 1_455
Lu4 O23 2.153054 1_565
Lu4 O0 2.310462 1_456
Lu4 O22 2.310462 1_565
Lu4 O9 2.311789 1_555
Lu4 O12 2.311789 1_556
Lu4 O17 2.752844 1_555
Lu4 O7 2.752844 1_555
Lu5 O15 2.282334 1_555
Lu5 O10 2.282334 1_555
Lu5 O8 2.311281 1_556
Lu5 O13 2.311281 1_555
Lu5 O6 2.320379 1_555
Lu5 O16 2.320379 1_556
Lu5 O11 2.358766 1_555
Lu5 O14 2.358766 1_555
Lu6 O23 2.144858 1_554
Lu6 O22 2.247926 1_555
Lu6 O18 2.287382 1_555
Lu6 O9 2.312800 1_545
Lu6 O21 2.333236 1_554
Lu6 O20 2.443712 1_554
Lu6 O2 2.460466 1_545
Lu6 O7 2.605566 1_544
Lu7 O22 2.144858 1_555
Lu7 O23 2.247926 1_555
Lu7 O20 2.287382 1_555
Lu7 O11 2.312800 1_455
Lu7 O19 2.333236 1_555
Lu7 O18 2.443712 1_555
Lu7 O4 2.460466 1_455
Lu7 O6 2.605566 1_455
O2 Te1 1.905819 1_555
O3 Te0 1.900579 1_555
O4 Te0 1.905819 1_556
O5 Te1 1.900579 1_555
O6 Te0 1.896419 1_555
O7 Te1 1.896419 1_555
O8 Te0 1.876305 1_555
O9 Te1 2.022213 1_555
O10 Te1 1.876305 1_555
O11 Te0 2.022213 1_556
O12 Te3 2.022213 1_554
O13 Te2 1.876305 1_555
O14 Te2 2.022213 1_555
O15 Te3 1.876305 1_555
O16 Te2 1.896419 1_555
O17 Te3 1.896419 1_555
O18 Te2 1.900579 1_555
O19 Te3 1.905819 1_554
O20 Te3 1.900579 1_555
O21 Te2 1.905819 1_555
