# generated using pymatgen
data_LiTeHO4
_symmetry_space_group_name_H-M   'P 1'
_cell_length_a   6.11882200
_cell_length_b   5.06262000
_cell_length_c   5.11623309
_cell_angle_alpha   78.39953716
_cell_angle_beta   90.00000000
_cell_angle_gamma   90.00000000
_symmetry_Int_Tables_number   1
_chemical_formula_structural   LiTeHO4
_chemical_formula_sum   'Li2 Te2 H2 O8'
_cell_volume   155.24962362
_cell_formula_units_Z   2
loop_
 _symmetry_equiv_pos_site_id
 _symmetry_equiv_pos_as_xyz
  1  'x, y, z'
loop_
 _atom_site_type_symbol
 _atom_site_label
 _atom_site_symmetry_multiplicity
 _atom_site_fract_x
 _atom_site_fract_y
 _atom_site_fract_z
 _atom_site_occupancy
  Li  Li0  1  0.00010700  0.39178400  0.38749400  1
  Li  Li1  1  0.50010700  0.60821600  0.61250600  1
  Te  Te0  1  0.24829700  0.00761100  0.01137900  1
  Te  Te1  1  0.74829700  0.99238900  0.98862100  1
  H  H0  1  0.74389300  0.02754800  0.45807800  1
  H  H1  1  0.24389300  0.97245200  0.54192200  1
  O  O0  1  0.75607700  0.17986400  0.28419200  1
  O  O1  1  0.24005800  0.18204000  0.29891000  1
  O  O2  1  0.99732900  0.22888000  0.82169500  1
  O  O3  1  0.49859100  0.23786100  0.83640900  1
  O  O4  1  0.49732900  0.77112000  0.17830500  1
  O  O5  1  0.99859100  0.76213900  0.16359100  1
  O  O6  1  0.74005800  0.81796000  0.70109000  1
  O  O7  1  0.25607700  0.82013600  0.71580800  1
loop_
_geom_bond_atom_site_label_1
_geom_bond_atom_site_label_2
_geom_bond_distance
_geom_bond_site_symmetry_2
Li0 O1 1.918892 1_555
Li0 O0 1.971801 1_455
Li0 O5 1.990991 1_455
Li0 O2 2.208751 1_455
Li1 O6 1.918892 1_555
Li1 O7 1.971801 1_555
Li1 O3 1.990991 1_555
Li1 O4 2.208751 1_555
H0 O0 1.056289 1_555
H0 O6 1.463442 1_545
H1 O7 1.056289 1_555
H1 O1 1.463442 1_565
O0 Te1 1.940898 1_544
O1 Te0 1.862487 1_555
O2 Te1 2.018292 1_545
O2 Te0 2.029188 1_656
O3 Te0 2.021382 1_556
O3 Te1 2.023888 1_545
O4 Te0 2.018292 1_565
O4 Te1 2.029188 1_554
O5 Te1 2.021382 1_554
O5 Te0 2.023888 1_665
O6 Te1 1.862487 1_555
O7 Te0 1.940898 1_566
