# generated using pymatgen
data_Li5Ni3O5F3
_symmetry_space_group_name_H-M   'P 1'
_cell_length_a   5.53089730
_cell_length_b   5.67321625
_cell_length_c   5.90870477
_cell_angle_alpha   118.65546173
_cell_angle_beta   117.44679740
_cell_angle_gamma   90.45680435
_symmetry_Int_Tables_number   1
_chemical_formula_structural   Li5Ni3O5F3
_chemical_formula_sum   'Li5 Ni3 O5 F3'
_cell_volume   137.99781902
_cell_formula_units_Z   1
loop_
 _symmetry_equiv_pos_site_id
 _symmetry_equiv_pos_as_xyz
  1  'x, y, z'
loop_
 _atom_site_type_symbol
 _atom_site_label
 _atom_site_symmetry_multiplicity
 _atom_site_fract_x
 _atom_site_fract_y
 _atom_site_fract_z
 _atom_site_occupancy
  Li  Li0  1  0.50154663  0.50202500  0.50280585  1
  Li  Li1  1  -0.00431374  0.00676771  0.00031196  1
  Li  Li2  1  0.99759908  0.49748277  0.00858505  1
  Li  Li3  1  0.98777882  0.48706951  0.47342235  1
  Li  Li4  1  0.50447116  0.49445339  -0.00225012  1
  Ni  Ni0  1  0.50776749  0.00847344  0.00361899  1
  Ni  Ni1  1  0.51553595  0.01559708  0.52848921  1
  Ni  Ni2  1  0.00096325  0.00056571  0.50074811  1
  O  O0  1  0.74706999  0.24789941  0.99339557  1
  O  O1  1  0.26250375  0.79307671  0.53614297  1
  O  O2  1  0.76069354  0.79013434  0.50619389  1
  O  O3  1  0.24449626  0.21420915  0.50089145  1
  O  O4  1  0.73614938  0.20528040  0.46342228  1
  F  F0  1  0.28065919  0.29203557  0.07063984  1
  F  F1  1  0.72248094  0.71220218  0.93472265  1
  F  F2  1  0.23459733  0.73272764  0.97885993  1
loop_
_geom_bond_atom_site_label_1
_geom_bond_atom_site_label_2
_geom_bond_distance
_geom_bond_site_symmetry_2
Li0 O1 2.115705 1_555
Li0 O4 2.123544 1_555
Li0 O3 2.148960 1_555
Li0 O2 2.152026 1_555
Li1 O0 1.948256 1_454
Li1 O2 2.181471 1_444
Li1 O3 2.216010 1_555
Li2 O0 1.914461 1_554
Li2 O1 2.326542 1_655
Li2 O4 2.400349 1_554
Li3 O1 2.069247 1_655
Li3 O4 2.072251 1_555
Li3 O0 2.111272 1_554
Li3 O3 2.121853 1_655
Li3 O2 2.123792 1_555
Li4 O0 1.945459 1_554
Li4 O3 2.193090 1_554
Li4 O2 2.247605 1_555
Ni0 O0 1.929820 1_554
Ni0 O4 2.031755 1_555
Ni0 O1 2.060396 1_544
Ni1 O3 1.876509 1_555
Ni1 O2 1.876896 1_545
Ni1 O4 1.898160 1_555
Ni1 O1 1.907676 1_545
Ni1 O0 2.044712 1_555
Ni2 O2 1.800891 1_445
Ni2 O3 1.804239 1_555
Ni2 O1 1.872502 1_545
Ni2 O4 1.875552 1_455
F0 Li0 1.901497 1_555
F0 Li2 1.963101 1_455
F0 Li4 1.994924 1_555
F0 Li1 1.996664 1_555
F0 Ni0 2.049968 1_555
F1 Li0 1.900380 1_555
F1 Li2 1.979148 1_556
F1 Li4 1.987486 1_556
F1 Li1 2.006230 1_666
F1 Ni0 2.054845 1_566
F2 Li2 1.984786 1_456
F2 Li4 2.022636 1_556
F2 Li1 2.043859 1_566
F2 Ni0 2.071340 1_566
F2 Li3 2.223610 1_455
F2 Ni1 2.417964 1_566
