# generated using pymatgen
data_Li6V3P8O29
_symmetry_space_group_name_H-M   'P 1'
_cell_length_a   9.76431000
_cell_length_b   9.77661549
_cell_length_c   13.94781638
_cell_angle_alpha   89.74550470
_cell_angle_beta   90.59325648
_cell_angle_gamma   119.85323667
_symmetry_Int_Tables_number   1
_chemical_formula_structural   Li6V3P8O29
_chemical_formula_sum   'Li12 V6 P16 O58'
_cell_volume   1154.73915693
_cell_formula_units_Z   2
loop_
 _symmetry_equiv_pos_site_id
 _symmetry_equiv_pos_as_xyz
  1  'x, y, z'
loop_
 _atom_site_type_symbol
 _atom_site_label
 _atom_site_symmetry_multiplicity
 _atom_site_fract_x
 _atom_site_fract_y
 _atom_site_fract_z
 _atom_site_occupancy
  Li  Li0  1  0.23576000  0.90210400  0.44149400  1
  Li  Li1  1  0.31243400  0.65760400  0.11062500  1
  Li  Li2  1  0.23227400  0.32448400  0.93873700  1
  Li  Li3  1  0.67422300  0.90620100  0.93671900  1
  Li  Li4  1  0.33634900  0.23872800  0.56210200  1
  Li  Li5  1  0.66933100  0.76637300  0.43861100  1
  Li  Li6  1  0.33477800  0.10020800  0.05931800  1
  Li  Li7  1  0.76480200  0.66198700  0.05770800  1
  Li  Li8  1  0.90319200  0.66850000  0.56270200  1
  Li  Li9  1  0.76463400  0.10227900  0.55921400  1
  Li  Li10  1  0.00249400  0.99800300  0.99950700  1
  Li  Li11  1  0.01495800  0.05542200  0.49051000  1
  V  V0  1  0.43179600  0.43371800  0.74901400  1
  V  V1  1  0.56605200  0.56379100  0.25315800  1
  V  V2  1  0.43497000  0.00026300  0.24985500  1
  V  V3  1  0.56802100  0.00182400  0.75081200  1
  V  V4  1  0.00117400  0.56405300  0.75347300  1
  V  V5  1  0.99792700  0.43346700  0.24846000  1
  P  P0  1  0.08453800  0.78194600  0.15880400  1
  P  P1  1  0.22556600  0.91266800  0.66099400  1
  P  P2  1  0.08064100  0.30585500  0.65670100  1
  P  P3  1  0.33618800  0.66622600  0.87123500  1
  P  P4  1  0.33172900  0.66811700  0.36986100  1
  P  P5  1  0.22302300  0.31395400  0.15892300  1
  P  P6  1  0.31244800  0.22517400  0.34450000  1
  P  P7  1  0.68211200  0.90457200  0.15442000  1
  P  P8  1  0.31402300  0.08801500  0.84526200  1
  P  P9  1  0.68379900  0.77268300  0.65669000  1
  P  P10  1  0.77457300  0.68477700  0.84038400  1
  P  P11  1  0.66558800  0.33409400  0.63020700  1
  P  P12  1  0.66580900  0.33588100  0.12848200  1
  P  P13  1  0.91772300  0.68725700  0.34672300  1
  P  P14  1  0.77917100  0.08569500  0.33808400  1
  P  P15  1  0.91933000  0.22151000  0.84483400  1
  O  O0  1  0.00306100  0.77435100  0.43732100  1
  O  O1  1  0.08157500  0.74471200  0.65960900  1
  O  O2  1  0.22717200  0.01510500  0.93591500  1
  O  O3  1  0.25685800  0.92491200  0.15805100  1
  O  O4  1  0.09583200  0.62966800  0.16304900  1
  O  O5  1  0.19597900  0.67486700  0.82440600  1
  O  O6  1  0.07464300  0.45946100  0.66859100  1
  O  O7  1  0.00471500  0.20137600  0.92855000  1
  O  O8  1  0.08094900  0.33862100  0.15723400  1
  O  O9  1  0.32344200  0.81574900  0.32923500  1
  O  O10  1  0.38160000  0.91012700  0.67532500  1
  O  O11  1  0.19025600  0.52333600  0.31895600  1
  O  O12  1  0.33771700  0.66293100  0.97917000  1
  O  O13  1  0.33051500  0.67237700  0.47653800  1
  O  O14  1  0.32455900  0.50924500  0.83336700  1
  O  O15  1  0.51868900  0.89156700  0.16940300  1
  O  O16  1  0.49267300  0.81075100  0.83403300  1
  O  O17  1  0.25338400  0.33878000  0.65721300  1
  O  O18  1  0.20454700  0.20652800  0.25199700  1
  O  O19  1  0.22598800  0.21353700  0.43530700  1
  O  O20  1  0.23027200  0.22761200  0.07112000  1
  O  O21  1  0.37399100  0.47774200  0.17281500  1
  O  O22  1  0.48858400  0.67702700  0.33240300  1
  O  O23  1  0.33908300  0.25843400  0.83772300  1
  O  O24  1  0.52572200  0.61970100  0.67132400  1
  O  O25  1  0.66228500  0.91899600  0.65656100  1
  O  O26  1  0.20293700  0.99786800  0.75304600  1
  O  O27  1  0.22846800  0.00207200  0.57142900  1
  O  O28  1  0.78147500  0.99988400  0.42868200  1
  O  O29  1  0.33896800  0.08184500  0.33900000  1
  O  O30  1  0.46808000  0.38231100  0.33306100  1
  O  O31  1  0.65822900  0.73531900  0.15981800  1
  O  O32  1  0.50891000  0.32111100  0.67038400  1
  O  O33  1  0.61941300  0.52980000  0.82793500  1
  O  O34  1  0.78096400  0.77462500  0.92969600  1
  O  O35  1  0.76923000  0.77033800  0.56746200  1
  O  O36  1  0.79455200  0.79578900  0.74885700  1
  O  O37  1  0.75102400  0.66943300  0.34281700  1
  O  O38  1  0.51467500  0.18663800  0.16677900  1
  O  O39  1  0.46967600  0.08880400  0.83188600  1
  O  O40  1  0.67107000  0.48740400  0.17289200  1
  O  O41  1  0.66625000  0.34523300  0.02202100  1
  O  O42  1  0.66102900  0.33006300  0.52287000  1
  O  O43  1  0.80953000  0.48907600  0.67007600  1
  O  O44  1  0.61900900  0.08128400  0.32497200  1
  O  O45  1  0.67764100  0.18862700  0.67046200  1
  O  O46  1  0.91684000  0.65727300  0.83544900  1
  O  O47  1  0.01282600  0.80120400  0.25840100  1
  O  O48  1  0.98852200  0.79580100  0.07900700  1
  O  O49  1  0.91178600  0.52974700  0.33272400  1
  O  O50  1  0.81287100  0.33682100  0.17595000  1
  O  O51  1  0.91910900  0.37710300  0.83435800  1
  O  O52  1  0.74632700  0.07976800  0.83904500  1
  O  O53  1  0.76478500  0.98205900  0.06384300  1
  O  O54  1  0.79295100  0.99349400  0.24630600  1
  O  O55  1  0.91800100  0.25225800  0.33622900  1
  O  O56  1  0.99134900  0.20377800  0.57267400  1
  O  O57  1  0.00244500  0.20111200  0.75058500  1
loop_
_geom_bond_atom_site_label_1
_geom_bond_atom_site_label_2
_geom_bond_distance
_geom_bond_site_symmetry_2
Li0 O0 1.974494 1_555
Li0 O27 2.081450 1_565
Li0 O29 2.095635 1_565
Li0 O9 2.157896 1_555
Li1 O12 1.849633 1_554
Li1 O4 2.130145 1_555
Li1 O21 2.287727 1_555
Li1 O15 2.314392 1_555
Li2 O7 1.933504 1_555
Li2 O23 2.049075 1_555
Li2 O20 2.067248 1_556
Li2 O14 2.148994 1_555
Li3 O53 1.949916 1_556
Li3 O52 2.010235 1_565
Li3 O34 2.022036 1_555
Li3 O16 2.092137 1_555
Li4 O19 2.012387 1_555
Li4 O27 2.013331 1_555
Li4 O17 2.048314 1_555
Li4 O32 2.091834 1_555
Li5 O28 1.985360 1_555
Li5 O37 2.026246 1_555
Li5 O35 2.027205 1_555
Li5 O22 2.120097 1_555
Li6 O2 1.965633 1_554
Li6 O20 1.972441 1_555
Li6 O3 2.028551 1_545
Li6 O38 2.127234 1_555
Li7 O48 1.927837 1_555
Li7 O34 2.059347 1_554
Li7 O31 2.099466 1_555
Li7 O40 2.186973 1_555
Li8 O35 2.001402 1_555
Li8 O1 2.020911 1_655
Li8 O0 2.023538 1_655
Li8 O43 2.136413 1_555
Li9 O56 1.930432 1_555
Li9 O25 2.068052 1_545
Li9 O28 2.128424 1_545
Li9 O45 2.143520 1_555
Li10 O48 2.207094 1_456
Li10 O7 2.207564 1_565
Li10 O2 2.302464 1_565
Li10 O34 2.380907 1_455
Li10 O53 2.428695 1_456
Li10 O20 2.446804 1_566
Li11 O56 1.955327 1_455
Li11 O19 2.019775 1_555
Li11 O28 2.228689 1_445
O0 P13 1.515766 1_455
O1 P1 1.541018 1_555
O1 V4 2.017473 1_555
O2 P8 1.496128 1_555
O3 P0 1.563242 1_555
O3 V2 1.973237 1_565
O4 P0 1.547454 1_555
O4 V5 2.046995 1_455
O5 P3 1.550540 1_555
O5 V4 1.920842 1_555
O6 P2 1.541477 1_555
O6 V4 1.928873 1_555
O7 P15 1.496144 1_455
O8 P5 1.521685 1_555
O8 V5 1.978940 1_455
O9 P4 1.587112 1_555
O9 V2 1.928049 1_565
O10 P1 1.546981 1_555
O10 V3 1.889372 1_565
O11 P4 1.567765 1_555
O11 V5 1.895328 1_455
O12 P3 1.505738 1_555
O13 P4 1.489014 1_555
O14 P3 1.574726 1_555
O14 V0 1.956747 1_555
O15 P7 1.552682 1_555
O15 V2 1.987744 1_565
O16 P3 1.568734 1_555
O16 V3 2.002097 1_565
O17 P2 1.551746 1_555
O17 V0 1.972410 1_555
O18 P6 1.609548 1_555
O18 P5 1.620177 1_555
O19 P6 1.501689 1_555
O20 P5 1.512556 1_555
O21 P5 1.556119 1_555
O21 V1 1.968401 1_555
O22 P4 1.584182 1_555
O22 V1 1.970106 1_555
O23 P8 1.562046 1_555
O23 V0 1.935725 1_555
O24 P9 1.538364 1_555
O24 V0 1.914253 1_555
O25 P9 1.545780 1_555
O25 V3 2.001904 1_565
O26 P1 1.609263 1_555
O26 P8 1.623908 1_565
O27 P1 1.513858 1_545
O28 P14 1.519838 1_565
O29 P6 1.548909 1_555
O29 V2 1.959118 1_555
O30 P6 1.540621 1_555
O30 V1 1.902610 1_555
O31 P7 1.553461 1_555
O31 V1 1.954337 1_555
O32 P11 1.579363 1_555
O32 V0 1.958279 1_555
O33 P10 1.527328 1_555
O33 V0 1.924669 1_555
O34 P10 1.510239 1_555
O35 P9 1.511964 1_555
O36 P9 1.613592 1_555
O36 P10 1.621035 1_555
O37 P13 1.548745 1_555
O37 V1 2.000063 1_555
O38 P12 1.567728 1_555
O38 V2 1.963819 1_555
O39 P8 1.529372 1_555
O39 V3 1.941123 1_555
O40 P12 1.585102 1_555
O40 V1 1.912114 1_555
O41 P12 1.487224 1_555
O42 P11 1.497428 1_555
O43 P11 1.565767 1_555
O43 V4 1.997231 1_655
O44 P14 1.551775 1_555
O44 V2 1.872346 1_555
O45 P11 1.584251 1_555
O45 V3 1.948735 1_555
O46 P10 1.542975 1_555
O46 V4 1.895241 1_655
O47 P13 1.613236 1_455
O47 P0 1.615314 1_555
O48 P0 1.496512 1_655
O49 P13 1.525249 1_555
O49 V5 1.947648 1_555
O50 P12 1.570871 1_555
O50 V5 1.857839 1_555
O51 P15 1.528597 1_555
O51 V4 1.948797 1_655
O52 P15 1.564637 1_555
O52 V3 1.941531 1_555
O53 P7 1.491775 1_555
O54 P14 1.613654 1_565
O54 P7 1.616812 1_555
O55 P14 1.514173 1_555
O55 V5 1.967320 1_555
O56 P2 1.500888 1_655
O57 P2 1.605221 1_555
O57 P15 1.616179 1_455
