# generated using pymatgen
data_Mn11Pd21
_symmetry_space_group_name_H-M   'P 1'
_cell_length_a   8.02752623
_cell_length_b   8.02750491
_cell_length_c   7.43249437
_cell_angle_alpha   89.99986941
_cell_angle_beta   89.99996193
_cell_angle_gamma   90.03055053
_symmetry_Int_Tables_number   1
_chemical_formula_structural   Mn11Pd21
_chemical_formula_sum   'Mn11 Pd21'
_cell_volume   478.95734733
_cell_formula_units_Z   1
loop_
 _symmetry_equiv_pos_site_id
 _symmetry_equiv_pos_as_xyz
  1  'x, y, z'
loop_
 _atom_site_type_symbol
 _atom_site_label
 _atom_site_symmetry_multiplicity
 _atom_site_fract_x
 _atom_site_fract_y
 _atom_site_fract_z
 _atom_site_occupancy
  Mn  Mn0  1  0.99999989  0.49999849  0.50000000  1
  Mn  Mn1  1  0.23970691  0.23970111  0.99999900  1
  Mn  Mn2  1  0.25339101  0.25339871  0.49999900  1
  Mn  Mn3  1  0.23972646  0.76027109  0.99999900  1
  Mn  Mn4  1  0.25341973  0.74657178  0.50000000  1
  Mn  Mn5  1  0.49999952  -0.00000227  0.49999900  1
  Mn  Mn6  1  0.49999962  0.49999467  -0.00000000  1
  Mn  Mn7  1  0.76026588  0.23972726  0.00000100  1
  Mn  Mn8  1  0.74658189  0.25343309  0.49999900  1
  Mn  Mn9  1  0.76029361  0.76029792  0.00000100  1
  Mn  Mn10  1  0.74660067  0.74659896  0.50000000  1
  Pd  Pd0  1  -0.00000077  0.99999535  -0.00000000  1
  Pd  Pd1  1  0.00000640  0.00000482  0.50000000  1
  Pd  Pd2  1  0.99999289  0.25291589  0.25941489  1
  Pd  Pd3  1  0.00000331  0.50000429  0.00000000  1
  Pd  Pd4  1  0.99999189  0.25291489  0.74058511  1
  Pd  Pd5  1  0.00000673  0.74708332  0.25942106  1
  Pd  Pd6  1  0.00000773  0.74708432  0.74057894  1
  Pd  Pd7  1  0.25291207  0.00000736  0.25941085  1
  Pd  Pd8  1  0.25291207  0.00000636  0.74058915  1
  Pd  Pd9  1  0.25068091  0.50000882  0.24557221  1
  Pd  Pd10  1  0.25067991  0.50000982  0.75442779  1
  Pd  Pd11  1  0.50000382  0.00000324  0.00000000  1
  Pd  Pd12  1  0.50001797  0.25069414  0.24557193  1
  Pd  Pd13  1  0.50001797  0.25069414  0.75442907  1
  Pd  Pd14  1  0.50000141  0.50000273  0.50000000  1
  Pd  Pd15  1  0.49998972  0.74931396  0.24556755  1
  Pd  Pd16  1  0.49998872  0.74931396  0.75443345  1
  Pd  Pd17  1  0.74708640  -0.00001253  0.25941918  1
  Pd  Pd18  1  0.74708740  -0.00001253  0.74058082  1
  Pd  Pd19  1  0.74931564  0.49998641  0.24556622  1
  Pd  Pd20  1  0.74931564  0.49998741  0.75443478  1
loop_
_geom_bond_atom_site_label_1
_geom_bond_atom_site_label_2
_geom_bond_distance
_geom_bond_site_symmetry_2
Mn0 Pd5 2.670480 1_655
Mn0 Pd6 2.670492 1_655
Mn0 Pd4 2.670503 1_555
Mn0 Pd2 2.670503 1_555
Mn0 Pd10 2.761435 1_655
Mn0 Pd9 2.761439 1_655
Mn0 Pd19 2.761491 1_555
Mn0 Pd20 2.761494 1_555
Mn0 Mn8 2.837571 1_555
Mn0 Mn4 2.837626 1_655
Mn0 Mn2 2.839122 1_655
Mn0 Mn10 2.839172 1_555
Mn1 Pd0 2.720574 1_546
Mn1 Pd7 2.726031 1_556
Mn1 Pd8 2.726032 1_555
Mn1 Pd4 2.726172 1_455
Mn1 Pd2 2.726176 1_456
Mn1 Pd10 2.775874 1_555
Mn1 Pd9 2.775884 1_556
Mn1 Pd13 2.775893 1_555
Mn1 Pd12 2.775910 1_556
Mn1 Pd11 2.841288 1_556
Mn1 Pd3 2.841356 1_556
Mn2 Pd7 2.708346 1_555
Mn2 Pd8 2.708356 1_555
Mn2 Pd2 2.708369 1_455
Mn2 Pd4 2.708383 1_455
Mn2 Pd9 2.737800 1_555
Mn2 Pd10 2.737822 1_555
Mn2 Pd12 2.737905 1_555
Mn2 Pd13 2.737922 1_555
Mn2 Pd14 2.798892 1_555
Mn2 Mn5 2.839227 1_555
Mn2 Pd1 2.875865 1_555
Mn3 Pd0 2.722241 1_556
Mn3 Pd6 2.726138 1_555
Mn3 Pd5 2.726152 1_556
Mn3 Pd8 2.726170 1_565
Mn3 Pd7 2.726192 1_566
Mn3 Pd16 2.775639 1_555
Mn3 Pd10 2.775659 1_555
Mn3 Pd15 2.775661 1_556
Mn3 Pd9 2.775669 1_556
Mn3 Pd3 2.839738 1_556
Mn3 Pd11 2.839850 1_566
Mn4 Pd6 2.708429 1_555
Mn4 Pd5 2.708437 1_555
Mn4 Pd7 2.708615 1_565
Mn4 Pd8 2.708615 1_565
Mn4 Pd10 2.737511 1_555
Mn4 Pd9 2.737523 1_555
Mn4 Pd15 2.737587 1_555
Mn4 Pd16 2.737589 1_555
Mn4 Pd14 2.800023 1_555
Mn4 Mn5 2.837697 1_565
Mn4 Pd1 2.877784 1_565
Mn5 Pd17 2.670503 1_555
Mn5 Pd18 2.670520 1_555
Mn5 Pd7 2.670549 1_555
Mn5 Pd8 2.670557 1_555
Mn5 Pd15 2.761474 1_545
Mn5 Pd16 2.761483 1_545
Mn5 Pd12 2.761520 1_555
Mn5 Pd13 2.761541 1_555
Mn5 Mn8 2.837766 1_555
Mn6 Pd12 2.708584 1_555
Mn6 Pd13 2.708585 1_554
Mn6 Pd20 2.708649 1_554
Mn6 Pd19 2.708655 1_555
Mn6 Pd16 2.708669 1_554
Mn6 Pd15 2.708680 1_555
Mn6 Pd9 2.708700 1_555
Mn6 Pd10 2.708707 1_554
Mn7 Pd0 2.722319 1_645
Mn7 Pd2 2.726153 1_555
Mn7 Pd4 2.726155 1_554
Mn7 Pd17 2.726237 1_555
Mn7 Pd18 2.726254 1_554
Mn7 Pd12 2.775581 1_555
Mn7 Pd13 2.775587 1_554
Mn7 Pd19 2.775616 1_555
Mn7 Pd20 2.775621 1_554
Mn7 Pd11 2.839715 1_555
Mn7 Pd3 2.839876 1_655
Mn8 Pd2 2.708449 1_555
Mn8 Pd4 2.708454 1_555
Mn8 Pd17 2.708636 1_555
Mn8 Pd18 2.708640 1_555
Mn8 Pd19 2.737486 1_555
Mn8 Pd20 2.737513 1_555
Mn8 Pd12 2.737526 1_555
Mn8 Pd13 2.737540 1_555
Mn8 Pd14 2.800019 1_555
Mn8 Pd1 2.877821 1_655
Mn9 Pd0 2.720515 1_655
Mn9 Pd17 2.726047 1_565
Mn9 Pd18 2.726051 1_564
Mn9 Pd5 2.726194 1_655
Mn9 Pd6 2.726209 1_654
Mn9 Pd15 2.775831 1_555
Mn9 Pd16 2.775844 1_554
Mn9 Pd19 2.775863 1_555
Mn9 Pd20 2.775868 1_554
Mn9 Pd11 2.841287 1_565
Mn9 Pd3 2.841333 1_655
Mn10 Pd17 2.708287 1_565
Mn10 Pd18 2.708293 1_565
Mn10 Pd5 2.708390 1_655
Mn10 Pd6 2.708398 1_655
Mn10 Pd15 2.737842 1_555
Mn10 Pd20 2.737850 1_555
Mn10 Pd16 2.737851 1_555
Mn10 Pd19 2.737857 1_555
Mn10 Pd14 2.798784 1_555
Mn10 Mn5 2.839173 1_565
Mn10 Pd1 2.876053 1_665
Pd1 Pd7 2.705423 1_555
Pd1 Pd8 2.705425 1_555
Pd1 Pd2 2.705430 1_455
Pd1 Pd4 2.705430 1_455
Pd1 Pd6 2.705456 1_545
Pd1 Pd18 2.705462 1_455
Pd1 Pd5 2.705468 1_545
Pd1 Pd17 2.705470 1_455
Pd2 Pd3 2.766195 1_655
Pd3 Pd9 2.716771 1_555
Pd3 Pd6 2.766179 1_554
Pd3 Pd5 2.766180 1_555
Pd3 Pd4 2.766207 1_454
Pd10 Pd3 2.716764 1_556
Pd10 Pd14 2.753496 1_555
Pd11 Pd15 2.716810 1_545
Pd11 Pd16 2.716811 1_544
Pd11 Pd13 2.716836 1_554
Pd11 Pd12 2.716847 1_555
Pd11 Pd17 2.766192 1_555
Pd11 Pd18 2.766196 1_554
Pd11 Pd7 2.766200 1_555
Pd11 Pd8 2.766202 1_554
Pd12 Pd14 2.753423 1_555
Pd13 Pd14 2.753422 1_555
Pd14 Pd15 2.753454 1_555
Pd14 Pd16 2.753466 1_555
Pd14 Pd19 2.753485 1_555
Pd14 Pd20 2.753492 1_555
Pd14 Pd9 2.753492 1_555
Pd19 Pd3 2.716800 1_655
Pd20 Pd3 2.716796 1_656
