# generated using pymatgen
data_FeOF
_symmetry_space_group_name_H-M   'P 1'
_cell_length_a   3.08963500
_cell_length_b   4.75806500
_cell_length_c   14.17047049
_cell_angle_alpha   89.77682826
_cell_angle_beta   90.00000000
_cell_angle_gamma   90.00000000
_symmetry_Int_Tables_number   1
_chemical_formula_structural   FeOF
_chemical_formula_sum   'Fe6 O6 F6'
_cell_volume   208.31403084
_cell_formula_units_Z   6
loop_
 _symmetry_equiv_pos_site_id
 _symmetry_equiv_pos_as_xyz
  1  'x, y, z'
loop_
 _atom_site_type_symbol
 _atom_site_label
 _atom_site_symmetry_multiplicity
 _atom_site_fract_x
 _atom_site_fract_y
 _atom_site_fract_z
 _atom_site_occupancy
  Fe  Fe0  1  0.00000000  0.99430600  0.99927300  1
  Fe  Fe1  1  0.00000000  0.97975800  0.67110900  1
  Fe  Fe2  1  0.00000000  0.98688500  0.33146100  1
  Fe  Fe3  1  0.50000000  0.48461700  0.81245800  1
  Fe  Fe4  1  0.50000000  0.55026300  0.50259600  1
  Fe  Fe5  1  0.50000000  0.49931400  0.18665500  1
  O  O0  1  0.50000000  0.81102700  0.73352200  1
  O  O1  1  0.50000000  0.81253900  0.39718500  1
  O  O2  1  0.00000000  0.69617200  0.22908500  1
  O  O3  1  0.00000000  0.70640400  0.56609900  1
  O  O4  1  0.00000000  0.29620200  0.76457700  1
  O  O5  1  0.50000000  0.18608300  0.27169700  1
  F  F0  1  0.50000000  0.78523400  0.06496200  1
  F  F1  1  0.00000000  0.68670300  0.90001500  1
  F  F2  1  0.00000000  0.31317900  0.43825900  1
  F  F3  1  0.00000000  0.30051900  0.09944400  1
  F  F4  1  0.50000000  0.20858000  0.93373600  1
  F  F5  1  0.50000000  0.20221500  0.59786400  1
loop_
_geom_bond_atom_site_label_1
_geom_bond_atom_site_label_2
_geom_bond_distance
_geom_bond_site_symmetry_2
Fe1 O0 1.951326 1_555
Fe1 O0 1.951326 1_455
Fe1 O3 1.980151 1_555
Fe1 O4 2.009182 1_565
Fe2 O1 1.983933 1_455
Fe2 O1 1.983933 1_555
Fe2 O5 1.998935 1_565
Fe2 O5 1.998935 1_465
Fe2 O2 2.008367 1_555
Fe3 O0 1.910419 1_555
Fe3 O4 1.911871 1_655
Fe3 O4 1.911871 1_555
Fe4 O3 1.937363 1_555
Fe4 O3 1.937363 1_655
Fe4 O1 1.942681 1_555
Fe5 O2 1.905175 1_555
Fe5 O2 1.905175 1_655
Fe5 O5 1.912969 1_555
F0 Fe0 2.057985 1_554
F0 Fe0 2.057985 1_654
F0 Fe5 2.192305 1_555
F1 Fe0 2.033834 1_555
F1 Fe3 2.204474 1_555
F1 Fe3 2.204474 1_455
F2 Fe4 2.120888 1_455
F2 Fe4 2.120888 1_555
F2 Fe2 2.172317 1_545
F3 Fe0 2.038088 1_544
F3 Fe5 2.194882 1_555
F3 Fe5 2.194882 1_455
F4 Fe0 2.069056 1_645
F4 Fe0 2.069056 1_545
F4 Fe3 2.158914 1_555
F5 Fe4 2.132490 1_555
F5 Fe1 2.139047 1_545
F5 Fe1 2.139047 1_645
