# generated using pymatgen
data_Sr11LaFe6(MoO6)6
_symmetry_space_group_name_H-M   'P 1'
_cell_length_a   5.63675600
_cell_length_b   9.79045791
_cell_length_c   15.08363034
_cell_angle_alpha   78.26031329
_cell_angle_beta   79.42433824
_cell_angle_gamma   73.57342573
_symmetry_Int_Tables_number   1
_chemical_formula_structural   Sr11LaFe6(MoO6)6
_chemical_formula_sum   'Sr11 La1 Fe6 Mo6 O36'
_cell_volume   774.66580360
_cell_formula_units_Z   1
loop_
 _symmetry_equiv_pos_site_id
 _symmetry_equiv_pos_as_xyz
  1  'x, y, z'
loop_
 _atom_site_type_symbol
 _atom_site_label
 _atom_site_symmetry_multiplicity
 _atom_site_fract_x
 _atom_site_fract_y
 _atom_site_fract_z
 _atom_site_occupancy
  Sr  Sr0  1  0.50617400  0.86580500  0.12200800  1
  Sr  Sr1  1  0.16656300  0.37893000  0.28965400  1
  Sr  Sr2  1  0.83295400  0.87616600  0.45866100  1
  Sr  Sr3  1  0.49754400  0.37394000  0.62445200  1
  Sr  Sr4  1  0.17058600  0.86830400  0.79614900  1
  Sr  Sr5  1  0.82331800  0.38860700  0.95882100  1
  Sr  Sr6  1  0.17008900  0.62609500  0.03891900  1
  Sr  Sr7  1  0.83081400  0.12936300  0.20997000  1
  Sr  Sr8  1  0.49912000  0.62280800  0.37274200  1
  Sr  Sr9  1  0.16826900  0.12539900  0.54153100  1
  Sr  Sr10  1  0.50517600  0.11599700  0.87331800  1
  La  La0  1  0.82015300  0.63200600  0.71949000  1
  Fe  Fe0  1  0.00222000  0.50069300  0.50037200  1
  Fe  Fe1  1  0.66761800  0.74751300  0.91798700  1
  Fe  Fe2  1  0.66568400  0.50095100  0.16406900  1
  Fe  Fe3  1  0.33429500  0.99881600  0.33406300  1
  Fe  Fe4  1  0.66336100  0.99868700  0.66801000  1
  Fe  Fe5  1  0.33236100  0.50265200  0.83469800  1
  Mo  Mo0  1  0.00068700  0.99909200  0.99920200  1
  Mo  Mo1  1  0.33102100  0.25169700  0.08425000  1
  Mo  Mo2  1  0.99826100  0.74877800  0.25158800  1
  Mo  Mo3  1  0.66848700  0.25057900  0.41626900  1
  Mo  Mo4  1  0.99978400  0.25274100  0.74834900  1
  Mo  Mo5  1  0.33318300  0.74841000  0.58286400  1
  O  O0  1  0.67038300  0.62401600  0.04233000  1
  O  O1  1  0.33405000  0.12842900  0.20497100  1
  O  O2  1  0.99543200  0.62525700  0.37693000  1
  O  O3  1  0.67292700  0.12227800  0.54171000  1
  O  O4  1  0.33310600  0.62293600  0.70713600  1
  O  O5  1  0.99631000  0.12951100  0.87194300  1
  O  O6  1  0.54381300  0.35670000  0.12025400  1
  O  O7  1  0.20038700  0.85877600  0.28623000  1
  O  O8  1  0.86963200  0.35616400  0.45286000  1
  O  O9  1  0.55946000  0.84903500  0.62082600  1
  O  O10  1  0.20445200  0.35672200  0.78382400  1
  O  O11  1  0.87660400  0.85947100  0.95207700  1
  O  O12  1  0.64167800  0.10730500  0.03655200  1
  O  O13  1  0.31067900  0.60974800  0.20467000  1
  O  O14  1  0.98429200  0.11092000  0.36890300  1
  O  O15  1  0.62945200  0.61122800  0.53666000  1
  O  O16  1  0.31376300  0.10900200  0.70196400  1
  O  O17  1  0.97752900  0.60624100  0.86311800  1
  O  O18  1  0.99955300  0.87162600  0.12767100  1
  O  O19  1  0.66853500  0.37596200  0.29219800  1
  O  O20  1  0.33348600  0.87586200  0.45809900  1
  O  O21  1  0.99242800  0.37913600  0.62473800  1
  O  O22  1  0.67918700  0.86786600  0.78707300  1
  O  O23  1  0.33297000  0.36912600  0.96194500  1
  O  O24  1  0.02535300  0.39169600  0.13106800  1
  O  O25  1  0.68556400  0.89479200  0.29783700  1
  O  O26  1  0.35238300  0.39008000  0.46432600  1
  O  O27  1  0.03701400  0.88599100  0.62945300  1
  O  O28  1  0.69051000  0.39890600  0.79382100  1
  O  O29  1  0.35566400  0.89353800  0.96238400  1
  O  O30  1  0.11906800  0.14246400  0.04825000  1
  O  O31  1  0.79726800  0.64237700  0.21726600  1
  O  O32  1  0.46228200  0.14593800  0.38067900  1
  O  O33  1  0.10680300  0.64260700  0.55217400  1
  O  O34  1  0.79762300  0.14516900  0.71291900  1
  O  O35  1  0.46263500  0.63909700  0.87770500  1
loop_
_geom_bond_atom_site_label_1
_geom_bond_atom_site_label_2
_geom_bond_distance
_geom_bond_site_symmetry_2
La0 O17 2.429091 1_555
La0 O28 2.569154 1_555
La0 O22 2.574040 1_555
La0 O9 2.576618 1_555
La0 O33 2.735355 1_655
La0 O4 2.812834 1_555
La0 O35 2.825624 1_555
La0 O4 2.840158 1_655
La0 O21 2.947113 1_555
La0 O27 3.042614 1_655
La0 O10 3.050135 1_655
La0 O15 3.200327 1_555
Fe0 O33 1.990624 1_555
Fe0 O26 2.000246 1_555
Fe0 O21 2.007242 1_455
Fe0 O2 2.007820 1_455
Fe0 O8 2.069240 1_455
Fe0 O15 2.102047 1_455
Fe1 O11 2.008870 1_555
Fe1 O35 2.011132 1_555
Fe1 O0 2.014220 1_556
Fe1 O29 2.029757 1_555
Fe1 O17 2.053829 1_555
Fe1 O22 2.083580 1_555
Fe2 O0 1.980947 1_555
Fe2 O6 1.999600 1_555
Fe2 O24 2.030247 1_655
Fe2 O13 2.030775 1_555
Fe2 O19 2.066574 1_555
Fe2 O31 2.088678 1_555
Fe3 O25 1.986225 1_555
Fe3 O14 2.000632 1_465
Fe3 O20 2.008211 1_555
Fe3 O7 2.039075 1_555
Fe3 O32 2.067763 1_565
Fe3 O1 2.096733 1_565
Fe4 O22 1.982885 1_555
Fe4 O16 1.990714 1_565
Fe4 O9 2.014665 1_555
Fe4 O3 2.038985 1_565
Fe4 O34 2.070185 1_565
Fe4 O27 2.118686 1_655
Fe5 O35 1.956235 1_555
Fe5 O17 1.981839 1_455
Fe5 O28 2.031161 1_555
Fe5 O4 2.041266 1_555
Fe5 O23 2.090867 1_555
Fe5 O10 2.093261 1_555
Mo0 O11 1.995405 1_455
Mo0 O29 2.009033 1_555
Mo0 O30 2.023971 1_566
Mo0 O12 2.036373 1_466
Mo0 O5 2.077922 1_465
Mo0 O18 2.080459 1_456
Mo1 O23 1.965152 1_554
Mo1 O1 1.969263 1_555
Mo1 O6 1.988504 1_555
Mo1 O24 1.989381 1_555
Mo1 O30 2.015692 1_555
Mo1 O12 2.033171 1_555
Mo2 O31 1.933650 1_555
Mo2 O7 1.967833 1_655
Mo2 O18 2.006337 1_555
Mo2 O13 2.008391 1_655
Mo2 O2 2.026472 1_555
Mo2 O25 2.041172 1_555
Mo3 O8 1.945115 1_555
Mo3 O32 1.953220 1_555
Mo3 O19 2.018501 1_555
Mo3 O14 2.025566 1_555
Mo3 O26 2.029294 1_555
Mo3 O3 2.047189 1_555
Mo4 O10 1.940654 1_655
Mo4 O34 1.955671 1_555
Mo4 O5 2.004019 1_555
Mo4 O21 2.017393 1_555
Mo4 O28 2.026556 1_555
Mo4 O16 2.034628 1_655
Mo5 O15 1.939995 1_555
Mo5 O27 1.943695 1_555
Mo5 O33 2.018696 1_555
Mo5 O4 2.021311 1_555
Mo5 O9 2.033114 1_555
Mo5 O20 2.035452 1_555
O0 Sr5 2.701998 1_554
O0 Sr0 2.723060 1_555
O0 Sr6 2.813500 1_655
O0 Sr6 2.824186 1_555
O1 Sr7 2.817588 1_555
O1 Sr7 2.821218 1_455
O1 Sr1 2.839071 1_555
O1 Sr0 2.927656 1_545
O2 Sr8 2.816824 1_555
O2 Sr2 2.817538 1_555
O2 Sr8 2.821651 1_655
O2 Sr1 2.826600 1_655
O3 Sr2 2.788017 1_545
O3 Sr9 2.800417 1_655
O3 Sr3 2.833110 1_555
O3 Sr9 2.836637 1_555
O4 Sr3 2.809324 1_555
O4 Sr4 2.833575 1_555
O5 Sr10 2.804809 1_555
O5 Sr10 2.837511 1_655
O5 Sr4 2.858086 1_645
O5 Sr5 2.930436 1_555
O6 Sr7 2.635102 1_555
O6 Sr5 2.658875 1_554
O6 Sr1 3.011345 1_555
O6 Sr6 3.064110 1_555
O7 Sr8 2.693528 1_555
O7 Sr0 2.746276 1_555
O7 Sr2 3.014403 1_455
O7 Sr7 3.033025 1_465
O8 Sr9 2.678195 1_655
O8 Sr1 2.717810 1_655
O8 Sr3 3.018679 1_555
O8 Sr8 3.032541 1_555
O9 Sr2 2.648261 1_555
O9 Sr4 3.110493 1_555
O9 Sr9 3.144930 1_565
O10 Sr3 2.659210 1_555
O10 Sr10 2.745171 1_555
O10 Sr5 3.091081 1_455
O11 Sr4 2.617794 1_655
O11 Sr6 2.666992 1_656
O11 Sr10 2.971070 1_565
O11 Sr0 2.993405 1_556
O12 Sr10 2.689721 1_554
O12 Sr0 2.693520 1_545
O12 Sr7 3.067448 1_555
O12 Sr5 3.138160 1_554
O13 Sr1 2.624324 1_555
O13 Sr6 2.719736 1_555
O13 Sr8 2.961197 1_555
O13 Sr0 2.973156 1_555
O14 Sr7 2.650433 1_555
O14 Sr2 2.694771 1_545
O14 Sr9 3.016643 1_655
O14 Sr1 3.027720 1_655
O15 Sr3 2.658405 1_555
O15 Sr8 2.677925 1_555
O15 Sr2 3.061652 1_555
O16 Sr9 2.655235 1_555
O16 Sr4 2.741410 1_545
O16 Sr10 2.997773 1_555
O16 Sr3 3.001548 1_555
O17 Sr5 2.591282 1_555
O17 Sr4 2.984702 1_655
O17 Sr6 3.103721 1_656
O18 Sr0 2.814896 1_555
O18 Sr0 2.825944 1_655
O18 Sr6 2.832838 1_655
O18 Sr7 2.880431 1_565
O19 Sr8 2.773477 1_555
O19 Sr7 2.785148 1_555
O19 Sr1 2.808768 1_655
O19 Sr1 2.828648 1_555
O20 Sr2 2.817792 1_555
O20 Sr2 2.818994 1_455
O20 Sr9 2.820244 1_565
O20 Sr8 2.866349 1_555
O21 Sr3 2.805157 1_555
O21 Sr3 2.832473 1_655
O21 Sr9 2.854538 1_655
O22 Sr4 2.799506 1_655
O22 Sr10 2.833011 1_565
O22 Sr4 2.843742 1_555
O23 Sr5 2.815107 1_555
O23 Sr6 2.830446 1_556
O23 Sr5 2.833307 1_455
O23 Sr10 2.895223 1_555
O24 Sr1 2.625275 1_555
O24 Sr6 2.684888 1_555
O24 Sr7 3.014185 1_455
O24 Sr5 3.030764 1_454
O25 Sr2 2.661225 1_555
O25 Sr7 2.669756 1_565
O25 Sr8 3.065025 1_555
O25 Sr0 3.096748 1_555
O26 Sr3 2.650482 1_555
O26 Sr8 2.673891 1_555
O26 Sr9 2.999607 1_555
O26 Sr1 3.040603 1_555
O27 Sr9 2.675028 1_565
O27 Sr4 2.713477 1_555
O27 Sr2 3.036449 1_455
O28 Sr5 2.702551 1_555
O28 Sr3 3.032127 1_555
O28 Sr10 3.166421 1_555
O29 Sr10 2.586601 1_565
O29 Sr0 2.635155 1_556
O29 Sr4 2.965572 1_555
O29 Sr6 3.026322 1_556
O30 Sr7 2.672542 1_455
O30 Sr5 2.763438 1_454
O30 Sr10 3.101199 1_554
O30 Sr0 3.107686 1_545
O31 Sr8 2.629325 1_555
O31 Sr0 2.664249 1_555
O31 Sr1 2.971474 1_655
O31 Sr6 3.096508 1_655
O32 Sr9 2.680970 1_555
O32 Sr1 2.698545 1_555
O32 Sr7 2.997957 1_555
O32 Sr2 3.040035 1_545
O33 Sr2 2.662985 1_455
O33 Sr3 3.065346 1_555
O33 Sr8 3.166547 1_555
O34 Sr3 2.669814 1_555
O34 Sr10 2.678355 1_555
O34 Sr9 3.012936 1_655
O34 Sr4 3.115177 1_645
O35 Sr4 2.605707 1_555
O35 Sr6 2.677578 1_556
O35 Sr5 2.918372 1_555
