# generated using pymatgen
data_Mg4N6O19
_symmetry_space_group_name_H-M   'P 1'
_cell_length_a   14.82664369
_cell_length_b   14.82664369
_cell_length_c   7.08602300
_cell_angle_alpha   90.00000000
_cell_angle_beta   90.00000000
_cell_angle_gamma   119.99999862
_symmetry_Int_Tables_number   1
_chemical_formula_structural   Mg4N6O19
_chemical_formula_sum   'Mg12 N18 O57'
_cell_volume   1349.02158018
_cell_formula_units_Z   3
loop_
 _symmetry_equiv_pos_site_id
 _symmetry_equiv_pos_as_xyz
  1  'x, y, z'
loop_
 _atom_site_type_symbol
 _atom_site_label
 _atom_site_symmetry_multiplicity
 _atom_site_fract_x
 _atom_site_fract_y
 _atom_site_fract_z
 _atom_site_occupancy
  Mg  Mg0  1  0.57648700  0.18911200  0.52083900  1
  Mg  Mg1  1  0.66666700  0.33333300  0.16153100  1
  Mg  Mg2  1  0.00000000  0.00000000  0.87480300  1
  Mg  Mg3  1  0.61262500  0.42351300  0.52083900  1
  Mg  Mg4  1  0.02692100  0.13652800  0.51411900  1
  Mg  Mg5  1  0.81088800  0.38737500  0.52083900  1
  Mg  Mg6  1  0.30265600  0.52861000  0.34357300  1
  Mg  Mg7  1  0.22595500  0.69734400  0.34357300  1
  Mg  Mg8  1  0.33333300  0.66666700  0.98427000  1
  Mg  Mg9  1  0.10960700  0.97307900  0.51411900  1
  Mg  Mg10  1  0.47139000  0.77404500  0.34357300  1
  Mg  Mg11  1  0.86347200  0.89039300  0.51411900  1
  N  N0  1  0.22429500  0.17887200  0.32117600  1
  N  N1  1  0.53781400  0.10960000  0.12979800  1
  N  N2  1  0.43514900  0.24501900  0.71120100  1
  N  N3  1  0.82112800  0.04542300  0.32117600  1
  N  N4  1  0.75498100  0.19012900  0.71120100  1
  N  N5  1  0.57178700  0.46218600  0.12979800  1
  N  N6  1  0.02472700  0.20750400  0.90698600  1
  N  N7  1  0.89040000  0.42821300  0.12979800  1
  N  N8  1  0.80987100  0.56485100  0.71120100  1
  N  N9  1  0.10902100  0.49197800  0.53814700  1
  N  N10  1  0.95457700  0.77570500  0.32117600  1
  N  N11  1  0.30313700  0.45665500  0.95169900  1
  N  N12  1  0.15351900  0.69686300  0.95169900  1
  N  N13  1  0.50802200  0.61704300  0.53814700  1
  N  N14  1  0.18277700  0.97527300  0.90698600  1
  N  N15  1  0.38295700  0.89097900  0.53814700  1
  N  N16  1  0.54334500  0.84648100  0.95169900  1
  N  N17  1  0.79249600  0.81722300  0.90698600  1
  O  O0  1  0.13855400  0.02715200  0.96427400  1
  O  O1  1  0.22721200  0.10740300  0.42099400  1
  O  O2  1  0.29995500  0.24250600  0.23353800  1
  O  O3  1  0.49680100  0.02738300  0.04449000  1
  O  O4  1  0.35536000  0.21333200  0.80168900  1
  O  O5  1  0.49735300  0.12204600  0.28297800  1
  O  O6  1  0.49291200  0.20239800  0.72842300  1
  O  O7  1  0.46575600  0.32187500  0.59433800  1
  O  O8  1  0.67812500  0.14388100  0.59433800  1
  O  O9  1  0.75749400  0.05744900  0.23353800  1
  O  O10  1  0.62357800  0.18900100  0.07065700  1
  O  O11  1  0.78666800  0.14202800  0.80168900  1
  O  O12  1  0.56542200  0.37642200  0.07065700  1
  O  O13  1  0.66666700  0.33333300  0.43559500  1
  O  O14  1  0.00000000  0.00000000  0.59928500  1
  O  O15  1  0.53058100  0.50319900  0.04449000  1
  O  O16  1  0.89259700  0.11980900  0.42099400  1
  O  O17  1  0.97284800  0.11140200  0.96427400  1
  O  O18  1  0.79760200  0.29051500  0.72842300  1
  O  O19  1  0.62469300  0.50264700  0.28297800  1
  O  O20  1  0.70948500  0.50708800  0.72842300  1
  O  O21  1  0.81099900  0.43457800  0.07065700  1
  O  O22  1  0.87795400  0.37530700  0.28297800  1
  O  O23  1  0.07054400  0.22478000  0.74445300  1
  O  O24  1  0.13725300  0.18034600  0.31754700  1
  O  O25  1  0.03050700  0.27797700  0.00315100  1
  O  O26  1  0.85611900  0.53424400  0.59433800  1
  O  O27  1  0.97261700  0.46941900  0.04449000  1
  O  O28  1  0.85797200  0.64464000  0.80168900  1
  O  O29  1  0.03248400  0.43193000  0.62973300  1
  O  O30  1  0.94255100  0.70004500  0.23353800  1
  O  O31  1  0.88019100  0.77278800  0.42099400  1
  O  O32  1  0.29641400  0.38617400  0.85619400  1
  O  O33  1  0.10783700  0.56188300  0.43188000  1
  O  O34  1  0.19386100  0.48695800  0.54491300  1
  O  O35  1  0.25685000  0.44030500  0.11396800  1
  O  O36  1  0.88859800  0.86144600  0.96427400  1
  O  O37  1  0.08976000  0.70358600  0.85619400  1
  O  O38  1  0.19641300  0.64328800  0.89517700  1
  O  O39  1  0.35671200  0.55312500  0.89517700  1
  O  O40  1  0.18345500  0.74315000  0.11396800  1
  O  O41  1  0.04309300  0.86274700  0.31754700  1
  O  O42  1  0.43811700  0.54595400  0.43188000  1
  O  O43  1  0.33333300  0.66666700  0.26001900  1
  O  O44  1  0.29309800  0.80613900  0.54491300  1
  O  O45  1  0.15423600  0.92945600  0.74445300  1
  O  O46  1  0.56807000  0.60055400  0.62973300  1
  O  O47  1  0.24747000  0.96949300  0.00315100  1
  O  O48  1  0.44687500  0.80358700  0.89517700  1
  O  O49  1  0.51304200  0.70690200  0.54491300  1
  O  O50  1  0.45404600  0.89216300  0.43188000  1
  O  O51  1  0.39944600  0.96751600  0.62973300  1
  O  O52  1  0.55969500  0.81654500  0.11396800  1
  O  O53  1  0.72202300  0.75253000  0.00315100  1
  O  O54  1  0.61382600  0.91024000  0.85619400  1
  O  O55  1  0.77522000  0.84576400  0.74445300  1
  O  O56  1  0.81965400  0.95690700  0.31754700  1
loop_
_geom_bond_atom_site_label_1
_geom_bond_atom_site_label_2
_geom_bond_distance
_geom_bond_site_symmetry_2
Mg0 O13 1.966197 1_555
Mg0 O6 1.995504 1_555
Mg0 O8 2.000620 1_555
Mg0 O5 2.009867 1_555
Mg1 O13 1.942024 1_555
Mg1 O10 2.008751 1_555
Mg1 O21 2.008758 1_555
Mg1 O12 2.008778 1_555
Mg2 O14 1.952327 1_555
Mg2 O17 1.989251 1_455
Mg2 O0 1.989251 1_555
Mg2 O36 1.989252 1_445
Mg3 O13 1.966208 1_555
Mg3 O20 1.995498 1_555
Mg3 O7 2.000620 1_555
Mg3 O19 2.009867 1_555
Mg4 O14 1.952726 1_555
Mg4 O23 1.986975 1_555
Mg4 O16 1.992380 1_455
Mg4 O24 1.993873 1_555
Mg5 O13 1.966195 1_555
Mg5 O18 1.995494 1_555
Mg5 O26 2.000620 1_555
Mg5 O22 2.009867 1_555
Mg6 O43 1.953533 1_555
Mg6 O35 1.983260 1_555
Mg6 O42 1.993743 1_555
Mg6 O34 2.005659 1_555
Mg7 O43 1.953506 1_555
Mg7 O40 1.983267 1_555
Mg7 O33 1.993748 1_555
Mg7 O44 2.005659 1_555
Mg8 O43 1.953964 1_556
Mg8 O38 1.983983 1_555
Mg8 O48 1.983988 1_555
Mg8 O39 1.983997 1_555
Mg9 O14 1.952726 1_565
Mg9 O45 1.986974 1_555
Mg9 O1 1.992380 1_565
Mg9 O41 1.993873 1_555
Mg10 O43 1.953525 1_555
Mg10 O52 1.983260 1_555
Mg10 O50 1.993757 1_555
Mg10 O49 2.005659 1_555
Mg11 O14 1.952726 1_665
Mg11 O55 1.986975 1_555
Mg11 O31 1.992380 1_555
Mg11 O56 1.993873 1_555
N0 O2 1.214833 1_555
N0 O1 1.292609 1_555
N0 O24 1.301860 1_555
N1 O3 1.216507 1_555
N1 O10 1.296729 1_555
N1 O5 1.297231 1_555
N2 O4 1.214730 1_555
N2 O7 1.293468 1_555
N2 O6 1.299577 1_555
N3 O9 1.214833 1_555
N3 O16 1.292609 1_555
N3 O56 1.301860 1_545
N4 O11 1.214718 1_555
N4 O8 1.293467 1_555
N4 O18 1.299604 1_555
N5 O15 1.216530 1_555
N5 O12 1.296717 1_555
N5 O19 1.297225 1_555
N6 O25 1.214048 1_556
N6 O23 1.295961 1_555
N6 O17 1.300270 1_455
N7 O27 1.216507 1_555
N7 O21 1.296745 1_555
N7 O22 1.297223 1_555
N8 O28 1.214728 1_555
N8 O26 1.293458 1_555
N8 O20 1.299601 1_555
N9 O29 1.221170 1_555
N9 O33 1.288320 1_555
N9 O34 1.297596 1_555
N10 O30 1.214833 1_555
N10 O31 1.292609 1_555
N10 O41 1.301860 1_655
N11 O32 1.206557 1_555
N11 O35 1.298275 1_556
N11 O39 1.304246 1_555
N12 O37 1.206570 1_555
N12 O40 1.298274 1_556
N12 O38 1.304234 1_555
N13 O46 1.221170 1_555
N13 O42 1.288321 1_555
N13 O49 1.297582 1_555
N14 O47 1.214048 1_556
N14 O45 1.295961 1_555
N14 O0 1.300270 1_565
N15 O51 1.221170 1_555
N15 O50 1.288320 1_555
N15 O44 1.297588 1_555
N16 O54 1.206563 1_555
N16 O52 1.298269 1_556
N16 O48 1.304247 1_555
N17 O53 1.214048 1_556
N17 O55 1.295961 1_555
N17 O36 1.300270 1_555
