# generated using pymatgen
data_LiFeSiO4
_symmetry_space_group_name_H-M   'P 1'
_cell_length_a   5.41315847
_cell_length_b   24.23483700
_cell_length_c   5.41316600
_cell_angle_alpha   90.00000236
_cell_angle_beta   120.00007940
_cell_angle_gamma   89.99997390
_symmetry_Int_Tables_number   1
_chemical_formula_structural   LiFeSiO4
_chemical_formula_sum   'Li6 Fe6 Si6 O24'
_cell_volume   614.99625898
_cell_formula_units_Z   6
loop_
 _symmetry_equiv_pos_site_id
 _symmetry_equiv_pos_as_xyz
  1  'x, y, z'
loop_
 _atom_site_type_symbol
 _atom_site_label
 _atom_site_symmetry_multiplicity
 _atom_site_fract_x
 _atom_site_fract_y
 _atom_site_fract_z
 _atom_site_occupancy
  Li  Li0  1  0.00000000  0.00000000  0.00000000  1
  Li  Li1  1  0.00000000  0.50000000  0.00000000  1
  Li  Li2  1  0.00000000  0.16666600  0.00000000  1
  Li  Li3  1  0.00000000  0.66666700  0.00000000  1
  Li  Li4  1  0.00000000  0.33333400  0.00000000  1
  Li  Li5  1  0.00000000  0.83333400  0.00000000  1
  Fe  Fe0  1  0.49999900  0.91666700  0.99999900  1
  Fe  Fe1  1  0.49999900  0.58333300  0.49999900  1
  Fe  Fe2  1  0.00000100  0.25000000  0.49999900  1
  Fe  Fe3  1  0.50000100  0.41666700  0.00000200  1
  Fe  Fe4  1  0.50000000  0.08333300  0.50000100  1
  Fe  Fe5  1  0.99999900  0.75000000  0.50000000  1
  Si  Si0  1  0.50000000  0.16666600  0.00000000  1
  Si  Si1  1  0.50000000  0.66666800  0.00000000  1
  Si  Si2  1  0.50000000  0.33333400  0.50000000  1
  Si  Si3  1  0.50000000  0.83333200  0.50000000  1
  Si  Si4  1  0.00000000  0.00000100  0.50000000  1
  Si  Si5  1  0.00000000  0.49999900  0.50000000  1
  O  O0  1  0.78821200  0.20388700  0.18506900  1
  O  O1  1  0.78822000  0.70389800  0.18509100  1
  O  O2  1  0.81490900  0.46276900  0.21177900  1
  O  O3  1  0.81493100  0.96278000  0.21178800  1
  O  O4  1  0.39687100  0.12943600  0.18509300  1
  O  O5  1  0.39686000  0.62944700  0.18507000  1
  O  O6  1  0.39687100  0.37056400  0.21177900  1
  O  O7  1  0.39686000  0.87055300  0.21178900  1
  O  O8  1  0.81490800  0.03723100  0.60312800  1
  O  O9  1  0.81493100  0.53722000  0.60314000  1
  O  O10  1  0.78821100  0.29611300  0.60314100  1
  O  O11  1  0.78821900  0.79610300  0.60312700  1
  O  O12  1  0.21178900  0.29611300  0.39685900  1
  O  O13  1  0.21178100  0.79610300  0.39687300  1
  O  O14  1  0.18509200  0.03723100  0.39687200  1
  O  O15  1  0.18506900  0.53722000  0.39686000  1
  O  O16  1  0.60312900  0.37056400  0.78822200  1
  O  O17  1  0.60314100  0.87055300  0.78821100  1
  O  O18  1  0.60312800  0.12943600  0.81490700  1
  O  O19  1  0.60314100  0.62944700  0.81493100  1
  O  O20  1  0.18509200  0.46276900  0.78822100  1
  O  O21  1  0.18506900  0.96278000  0.78821200  1
  O  O22  1  0.21178800  0.20388700  0.81493100  1
  O  O23  1  0.21178000  0.70389800  0.81490900  1
loop_
_geom_bond_atom_site_label_1
_geom_bond_atom_site_label_2
_geom_bond_distance
_geom_bond_site_symmetry_2
Li0 O21 2.068843 1_544
Li0 O3 2.068843 1_445
Li0 O8 2.069019 1_454
Li0 O14 2.069019 1_555
Li1 O9 2.068855 1_454
Li1 O15 2.068855 1_555
Li1 O2 2.069011 1_455
Li1 O20 2.069015 1_554
Li2 O0 2.068853 1_455
Li2 O22 2.068854 1_554
Li2 O4 2.069001 1_555
Li2 O18 2.069006 1_454
Li3 O19 2.068849 1_454
Li3 O5 2.068852 1_555
Li3 O1 2.069015 1_455
Li3 O23 2.069016 1_554
Li4 O12 2.068861 1_555
Li4 O10 2.068861 1_454
Li4 O16 2.069001 1_454
Li4 O6 2.069002 1_555
Li5 O17 2.068837 1_454
Li5 O7 2.068842 1_555
Li5 O13 2.069023 1_555
Li5 O11 2.069023 1_454
Fe0 O21 1.874841 1_555
Fe0 O3 1.874851 1_556
Fe0 O7 1.874858 1_556
Fe0 O17 1.874860 1_555
Fe1 O15 1.874846 1_555
Fe1 O9 1.874852 1_555
Fe1 O5 1.874858 1_555
Fe1 O19 1.874868 1_555
Fe2 O12 1.874838 1_555
Fe2 O0 1.874845 1_455
Fe2 O22 1.874849 1_555
Fe2 O10 1.874853 1_455
Fe3 O2 1.874603 1_555
Fe3 O20 1.874609 1_554
Fe3 O6 1.874617 1_555
Fe3 O16 1.874622 1_554
Fe4 O14 1.874605 1_555
Fe4 O8 1.874606 1_555
Fe4 O18 1.874614 1_555
Fe4 O4 1.874621 1_555
Fe5 O1 1.874609 1_555
Fe5 O23 1.874610 1_655
Fe5 O11 1.874618 1_555
Fe5 O13 1.874627 1_655
O0 Si0 1.639626 1_555
O1 Si1 1.639790 1_555
O2 Si5 1.639794 1_655
O3 Si4 1.639627 1_665
O4 Si0 1.639800 1_555
O5 Si1 1.639622 1_555
O6 Si2 1.639796 1_555
O7 Si3 1.639625 1_555
O8 Si4 1.639792 1_655
O9 Si5 1.639616 1_655
O10 Si2 1.639622 1_555
O11 Si3 1.639773 1_555
O12 Si2 1.639623 1_555
O13 Si3 1.639774 1_555
O14 Si4 1.639792 1_555
O15 Si5 1.639617 1_555
O16 Si2 1.639800 1_555
O17 Si3 1.639625 1_555
O18 Si0 1.639797 1_556
O19 Si1 1.639621 1_556
O20 Si5 1.639795 1_555
O21 Si4 1.639626 1_565
O22 Si0 1.639625 1_556
O23 Si1 1.639789 1_556
