# generated using pymatgen
data_Sm3TaO7
_symmetry_space_group_name_H-M   'P 1'
_cell_length_a   6.58654809
_cell_length_b   6.58654809
_cell_length_c   7.57931872
_cell_angle_alpha   90.00000000
_cell_angle_beta   90.00000000
_cell_angle_gamma   108.94841613
_symmetry_Int_Tables_number   1
_chemical_formula_structural   Sm3TaO7
_chemical_formula_sum   'Sm6 Ta2 O14'
_cell_volume   310.99285047
_cell_formula_units_Z   2
loop_
 _symmetry_equiv_pos_site_id
 _symmetry_equiv_pos_as_xyz
  1  'x, y, z'
loop_
 _atom_site_type_symbol
 _atom_site_label
 _atom_site_symmetry_multiplicity
 _atom_site_fract_x
 _atom_site_fract_y
 _atom_site_fract_z
 _atom_site_occupancy
  Sm  Sm0  1  0.46445538  0.00104462  0.25864405  1
  Sm  Sm1  1  0.99895538  0.53554462  0.24135595  1
  Sm  Sm2  1  0.46841965  0.46841965  -0.00000000  1
  Sm  Sm3  1  0.53158035  0.53158035  0.50000000  1
  Sm  Sm4  1  0.53554462  0.99895538  0.75864405  1
  Sm  Sm5  1  0.00104462  0.46445538  0.74135595  1
  Ta  Ta0  1  0.00143039  0.00143039  0.50000000  1
  Ta  Ta1  1  0.99856961  0.99856961  -0.00000000  1
  O  O0  1  0.93793046  0.06206954  0.75000000  1
  O  O1  1  0.63756941  0.36243059  0.75000000  1
  O  O2  1  0.30361955  0.05071388  0.54129708  1
  O  O3  1  0.94928612  0.69638045  0.95870292  1
  O  O4  1  0.62932086  0.37067914  0.25000000  1
  O  O5  1  0.91997896  0.67716765  0.52315821  1
  O  O6  1  0.32283235  0.08002104  0.97684179  1
  O  O7  1  0.08002104  0.32283235  0.02315821  1
  O  O8  1  0.67716765  0.91997896  0.47684179  1
  O  O9  1  0.37067914  0.62932086  0.75000000  1
  O  O10  1  0.69638045  0.94928612  0.04129708  1
  O  O11  1  0.05071388  0.30361955  0.45870292  1
  O  O12  1  0.36243059  0.63756941  0.25000000  1
  O  O13  1  0.06206954  0.93793046  0.25000000  1
loop_
_geom_bond_atom_site_label_1
_geom_bond_atom_site_label_2
_geom_bond_distance
_geom_bond_site_symmetry_2
O0 Ta0 2.008312 1_655
O0 Ta1 2.008312 1_546
O0 Sm4 2.546734 1_545
O0 Sm5 2.546734 1_655
O1 Sm5 2.267715 1_655
O1 Sm4 2.267715 1_545
O1 Sm2 2.413313 1_556
O1 Sm3 2.413313 1_555
O2 Ta0 1.935296 1_555
O2 Sm4 2.345566 1_545
O2 Sm0 2.458424 1_555
O2 Sm3 3.048846 1_555
O3 Ta1 1.935296 1_556
O3 Sm5 2.345566 1_655
O3 Sm1 2.458424 1_556
O3 Sm2 3.048846 1_556
O4 Sm1 2.322473 1_555
O4 Sm0 2.322473 1_555
O4 Sm2 2.360306 1_555
O4 Sm3 2.360306 1_555
O5 Ta0 2.033721 1_665
O5 Sm5 2.338558 1_655
O5 Sm3 2.429325 1_555
O5 Sm1 2.453116 1_555
O6 Ta1 2.033721 1_446
O6 Sm4 2.338558 1_545
O6 Sm2 2.429325 1_556
O6 Sm0 2.453116 1_556
O7 Ta1 2.033721 1_445
O7 Sm1 2.338558 1_455
O7 Sm2 2.429325 1_555
O7 Sm5 2.453116 1_554
O8 Ta0 2.033721 1_665
O8 Sm0 2.338558 1_565
O8 Sm3 2.429325 1_555
O8 Sm4 2.453116 1_555
O9 Sm4 2.322473 1_555
O9 Sm5 2.322473 1_555
O9 Sm3 2.360306 1_555
O9 Sm2 2.360306 1_556
O10 Ta1 1.935296 1_555
O10 Sm0 2.345566 1_565
O10 Sm4 2.458424 1_554
O10 Sm2 3.048846 1_555
O11 Ta0 1.935296 1_555
O11 Sm1 2.345566 1_455
O11 Sm5 2.458424 1_555
O11 Sm3 3.048846 1_555
O12 Sm1 2.267715 1_455
O12 Sm0 2.267715 1_565
O12 Sm2 2.413313 1_555
O12 Sm3 2.413313 1_555
O13 Ta0 2.008312 1_565
O13 Ta1 2.008312 1_455
O13 Sm1 2.546734 1_455
O13 Sm0 2.546734 1_565
