# generated using pymatgen
data_Li10Co3Ni7O20
_symmetry_space_group_name_H-M   'P 1'
_cell_length_a   2.78576167
_cell_length_b   11.29553724
_cell_length_c   11.31640985
_cell_angle_alpha   111.87869835
_cell_angle_beta   90.01511709
_cell_angle_gamma   97.07646026
_symmetry_Int_Tables_number   1
_chemical_formula_structural   Li10Co3Ni7O20
_chemical_formula_sum   'Li10 Co3 Ni7 O20'
_cell_volume   327.51286193
_cell_formula_units_Z   1
loop_
 _symmetry_equiv_pos_site_id
 _symmetry_equiv_pos_as_xyz
  1  'x, y, z'
loop_
 _atom_site_type_symbol
 _atom_site_label
 _atom_site_symmetry_multiplicity
 _atom_site_fract_x
 _atom_site_fract_y
 _atom_site_fract_z
 _atom_site_occupancy
  Li  Li0  1  0.30254513  0.60174349  0.35112581  1
  Li  Li1  1  0.29648850  0.60403658  0.85319390  1
  Li  Li2  1  0.10218257  0.20255793  0.95275256  1
  Li  Li3  1  0.10398071  0.19678426  0.44443688  1
  Li  Li4  1  0.49653736  0.99439178  0.74461446  1
  Li  Li5  1  0.50346264  0.00560822  0.25538554  1
  Li  Li6  1  0.69745487  0.39825651  0.64887419  1
  Li  Li7  1  0.70351150  0.39596342  0.14680610  1
  Li  Li8  1  0.89781743  0.79744207  0.04724744  1
  Li  Li9  1  0.89601929  0.80321574  0.55556312  1
  Co  Co0  1  0.10366869  0.19982160  0.19870306  1
  Co  Co1  1  0.50000000  -0.00000000  0.50000000  1
  Co  Co2  1  0.89633131  0.80017840  0.80129694  1
  Ni  Ni0  1  0.09625828  0.19332430  0.69928506  1
  Ni  Ni1  1  0.30037690  0.59986628  0.10190015  1
  Ni  Ni2  1  0.30059213  0.60423002  0.59963028  1
  Ni  Ni3  1  0.69940787  0.39576998  0.40036972  1
  Ni  Ni4  1  0.50000000  -0.00000000  -0.00000000  1
  Ni  Ni5  1  0.69962310  0.40013372  0.89809985  1
  Ni  Ni6  1  0.90374172  0.80667570  0.30071494  1
  O  O0  1  0.19898713  0.40115302  0.51717120  1
  O  O1  1  0.01223243  0.01680866  0.11961787  1
  O  O2  1  0.39538164  0.79929512  0.91668448  1
  O  O3  1  0.19706782  0.38403420  0.28107774  1
  O  O4  1  0.19857123  0.39949781  0.78353857  1
  O  O5  1  0.00193723  0.00350290  0.38673965  1
  O  O6  1  0.99806277  0.99649710  0.61326035  1
  O  O7  1  0.40843047  0.81621745  0.41826157  1
  O  O8  1  0.20048460  0.40008601  0.01153203  1
  O  O9  1  0.98776757  0.98319134  0.88038213  1
  O  O10  1  0.59859337  0.19842295  0.81416344  1
  O  O11  1  0.80293218  0.61596580  0.71892226  1
  O  O12  1  0.60385287  0.19836302  0.31306871  1
  O  O13  1  0.59156953  0.18378255  0.58173843  1
  O  O14  1  0.40140663  0.80157705  0.18583656  1
  O  O15  1  0.80101287  0.59884698  0.48282880  1
  O  O16  1  0.79951540  0.59991399  0.98846797  1
  O  O17  1  0.80142877  0.60050219  0.21646143  1
  O  O18  1  0.39614713  0.80163698  0.68693129  1
  O  O19  1  0.60461836  0.20070488  0.08331552  1
loop_
_geom_bond_atom_site_label_1
_geom_bond_atom_site_label_2
_geom_bond_distance
_geom_bond_site_symmetry_2
Li0 O15 2.048674 1_555
Li0 O15 2.049532 1_455
Li0 O17 2.060092 1_555
Li0 O17 2.061417 1_455
Li0 O7 2.232774 1_555
Li0 O3 2.265195 1_555
Li1 O2 2.031191 1_555
Li1 O16 2.073796 1_455
Li1 O16 2.092205 1_555
Li1 O11 2.101077 1_455
Li1 O11 2.103398 1_555
Li1 O4 2.126243 1_555
Li2 O19 2.030196 1_456
Li2 O19 2.042473 1_556
Li2 O8 2.058859 1_556
Li2 O10 2.082468 1_555
Li2 O10 2.087586 1_455
Li2 O9 2.281442 1_445
Li3 O5 2.014487 1_555
Li3 O12 2.040638 1_555
Li3 O12 2.043585 1_455
Li3 O13 2.121046 1_555
Li3 O0 2.123617 1_555
Li3 O13 2.143117 1_455
Li4 O18 2.008845 1_555
Li4 O6 2.042501 1_455
Li4 O6 2.044834 1_555
Li4 O9 2.106089 1_555
Li4 O9 2.118289 1_455
Li4 O10 2.120907 1_565
Li5 O12 2.008845 1_555
Li5 O5 2.042501 1_655
Li5 O5 2.044834 1_555
Li5 O1 2.106089 1_555
Li5 O1 2.118289 1_655
Li5 O14 2.120907 1_545
Li6 O0 2.048674 1_555
Li6 O0 2.049532 1_655
Li6 O4 2.060092 1_555
Li6 O4 2.061417 1_655
Li6 O13 2.232774 1_555
Li6 O11 2.265195 1_555
Li7 O19 2.031191 1_555
Li7 O8 2.073796 1_655
Li7 O8 2.092205 1_555
Li7 O3 2.101077 1_655
Li7 O3 2.103398 1_555
Li7 O17 2.126243 1_555
Li8 O2 2.030196 1_654
Li8 O2 2.042473 1_554
Li8 O16 2.058859 1_554
Li8 O14 2.082468 1_555
Li8 O14 2.087586 1_655
Li8 O1 2.281442 1_665
Li9 O6 2.014487 1_555
Li9 O18 2.040638 1_555
Li9 O18 2.043585 1_655
Li9 O7 2.121046 1_555
Li9 O15 2.123617 1_555
Li9 O7 2.143117 1_655
Co0 O12 1.903976 1_455
Co0 O1 1.905406 1_555
Co0 O12 1.907194 1_555
Co0 O19 1.910514 1_455
Co0 O19 1.913080 1_555
Co0 O3 1.920204 1_555
Co1 O5 1.902582 1_555
Co1 O6 1.902582 1_545
Co1 O5 1.903841 1_655
Co1 O6 1.903841 1_445
Co1 O7 1.915314 1_545
Co1 O13 1.915314 1_555
Co2 O18 1.903976 1_655
Co2 O9 1.905406 1_555
Co2 O18 1.907194 1_555
Co2 O2 1.910514 1_655
Co2 O2 1.913080 1_555
Co2 O11 1.920204 1_555
Ni0 O10 1.890769 1_555
Ni0 O10 1.892143 1_455
Ni0 O13 1.900675 1_455
Ni0 O13 1.901506 1_555
Ni0 O6 2.049977 1_445
Ni0 O4 2.143655 1_555
Ni1 O16 1.892737 1_554
Ni1 O16 1.895866 1_454
Ni1 O17 1.899788 1_455
Ni1 O17 1.902284 1_555
Ni1 O8 2.083461 1_555
Ni1 O14 2.098003 1_555
Ni2 O15 1.898925 1_455
Ni2 O11 1.902157 1_555
Ni2 O15 1.912100 1_555
Ni2 O11 1.916991 1_455
Ni2 O18 2.056885 1_555
Ni2 O0 2.111228 1_555
Ni3 O0 1.898925 1_655
Ni3 O3 1.902157 1_555
Ni3 O0 1.912100 1_555
Ni3 O3 1.916991 1_655
Ni3 O12 2.056885 1_555
Ni3 O15 2.111228 1_555
Ni4 O9 1.894134 1_544
Ni4 O1 1.894134 1_555
Ni4 O9 1.909265 1_444
Ni4 O1 1.909265 1_655
Ni4 O2 2.087466 1_544
Ni4 O19 2.087466 1_555
Ni5 O8 1.892737 1_556
Ni5 O8 1.895866 1_656
Ni5 O4 1.899788 1_655
Ni5 O4 1.902284 1_555
Ni5 O16 2.083461 1_555
Ni5 O10 2.098003 1_555
Ni6 O14 1.890769 1_555
Ni6 O14 1.892143 1_655
Ni6 O7 1.900675 1_655
Ni6 O7 1.901506 1_555
Ni6 O5 2.049977 1_665
Ni6 O17 2.143655 1_555
