# generated using pymatgen
data_La2Nb2N2O5
_symmetry_space_group_name_H-M   'P 1'
_cell_length_a   5.71461500
_cell_length_b   8.05266315
_cell_length_c   13.74421801
_cell_angle_alpha   98.38065952
_cell_angle_beta   91.17968068
_cell_angle_gamma   89.98901423
_symmetry_Int_Tables_number   1
_chemical_formula_structural   La2Nb2N2O5
_chemical_formula_sum   'La8 Nb8 N8 O20'
_cell_volume   625.59060726
_cell_formula_units_Z   4
loop_
 _symmetry_equiv_pos_site_id
 _symmetry_equiv_pos_as_xyz
  1  'x, y, z'
loop_
 _atom_site_type_symbol
 _atom_site_label
 _atom_site_symmetry_multiplicity
 _atom_site_fract_x
 _atom_site_fract_y
 _atom_site_fract_z
 _atom_site_occupancy
  La  La0  1  0.33924000  0.13364000  0.56763100  1
  La  La1  1  0.76522600  0.21459400  0.90964800  1
  La  La2  1  0.25304600  0.27530000  0.12226900  1
  La  La3  1  0.77284400  0.33856400  0.38143700  1
  La  La4  1  0.28686200  0.67386200  0.61628400  1
  La  La5  1  0.75180900  0.72941300  0.88055500  1
  La  La6  1  0.26502900  0.77962600  0.09309600  1
  La  La7  1  0.82986900  0.86234000  0.43233400  1
  Nb  Nb0  1  0.26319000  0.05835400  0.31210400  1
  Nb  Nb1  1  0.73957600  0.01736400  0.10907100  1
  Nb  Nb2  1  0.79385200  0.41487600  0.67345900  1
  Nb  Nb3  1  0.26467300  0.47072100  0.88244200  1
  Nb  Nb4  1  0.76630300  0.53516600  0.11828900  1
  Nb  Nb5  1  0.28423800  0.58755200  0.32645300  1
  Nb  Nb6  1  0.26431000  0.96340100  0.87523200  1
  Nb  Nb7  1  0.78640100  0.92801500  0.67635400  1
  N  N0  1  0.45645700  0.02993000  0.19011800  1
  N  N1  1  0.45507000  0.87269300  0.77269500  1
  N  N2  1  0.53948900  0.96110900  0.98634300  1
  N  N3  1  0.55754900  0.87328100  0.56923700  1
  N  N4  1  0.82088000  0.77127000  0.10875900  1
  N  N5  1  0.19278100  0.82293500  0.30378700  1
  N  N6  1  0.94091100  0.97456600  0.82178800  1
  N  N7  1  0.04592200  0.91624200  0.59006100  1
  O  O0  1  0.54058700  0.09187400  0.40933700  1
  O  O1  1  0.68802500  0.18250700  0.69609200  1
  O  O2  1  0.32131400  0.22923500  0.88974200  1
  O  O3  1  0.05315800  0.13613600  0.42999500  1
  O  O4  1  0.03950800  0.05111000  0.02570300  1
  O  O5  1  0.97277200  0.12600600  0.23037900  1
  O  O6  1  0.07869900  0.37457600  0.61419400  1
  O  O7  1  0.94357800  0.43121500  0.82076800  1
  O  O8  1  0.67365700  0.27761800  0.08639200  1
  O  O9  1  0.35249700  0.33716900  0.30448600  1
  O  O10  1  0.58685100  0.40918000  0.56080300  1
  O  O11  1  0.52385800  0.53580800  0.98072200  1
  O  O12  1  0.45393300  0.49915900  0.77461300  1
  O  O13  1  0.96298700  0.49731400  0.22805400  1
  O  O14  1  0.02968000  0.46138000  0.01941900  1
  O  O15  1  0.08056900  0.58700200  0.43663200  1
  O  O16  1  0.84700400  0.66327800  0.69505300  1
  O  O17  1  0.17413500  0.72156200  0.91237100  1
  O  O18  1  0.44498400  0.56501700  0.17843800  1
  O  O19  1  0.58165800  0.61803900  0.38736000  1
loop_
_geom_bond_atom_site_label_1
_geom_bond_atom_site_label_2
_geom_bond_distance
_geom_bond_site_symmetry_2
La0 N3 2.442107 1_545
La0 O0 2.461713 1_555
La0 O6 2.463094 1_555
La0 O3 2.476972 1_555
La0 N7 2.479742 1_545
La0 O1 2.626363 1_555
La0 O10 2.646057 1_555
La1 N6 2.360285 1_545
La1 O8 2.474936 1_556
La1 O7 2.499404 1_555
La1 O2 2.550441 1_555
La1 O4 2.691207 1_656
La1 O14 2.746397 1_656
La1 N2 2.761537 1_545
La1 O1 2.932953 1_555
La1 O11 2.977414 1_555
La1 O2 3.198858 1_655
La2 O4 2.396985 1_555
La2 O8 2.464232 1_555
La2 O14 2.532846 1_555
La2 O9 2.534002 1_555
La2 N0 2.572261 1_555
La2 O18 2.585156 1_555
La2 O5 2.614946 1_455
La2 O13 2.719947 1_455
La3 O3 2.437361 1_655
La3 O0 2.469597 1_555
La3 O19 2.492879 1_555
La3 O9 2.604004 1_555
La3 O15 2.678487 1_655
La3 O10 2.688778 1_555
La3 O5 2.758012 1_555
La3 O13 2.852986 1_555
La4 N3 2.394688 1_555
La4 N7 2.453330 1_555
La4 N1 2.649745 1_555
La4 O6 2.683981 1_555
La4 O15 2.711615 1_555
La4 O16 2.763447 1_455
La4 O10 2.764394 1_555
La4 O12 2.903872 1_555
La5 O17 2.446305 1_655
La5 N6 2.493782 1_555
La5 N2 2.519583 1_555
La5 O11 2.592899 1_555
La5 O16 2.596367 1_555
La5 N1 2.607446 1_555
La5 O7 2.665196 1_555
La5 O12 2.750982 1_555
La6 O18 2.441416 1_555
La6 N0 2.488953 1_565
La6 O17 2.503342 1_554
La6 N4 2.553393 1_455
La6 N2 2.732983 1_554
La6 O11 2.763530 1_554
La6 O4 2.799689 1_565
La6 N5 2.903866 1_555
La6 O14 2.930974 1_555
La6 N4 3.180699 1_555
La7 O19 2.423777 1_555
La7 N7 2.455199 1_655
La7 N3 2.458096 1_555
La7 O0 2.529191 1_565
La7 O3 2.552205 1_665
La7 O15 2.646783 1_655
La7 N5 2.740523 1_655
Nb0 O0 2.044382 1_555
Nb0 O3 2.059687 1_555
Nb0 O5 2.100975 1_455
Nb0 O9 2.320243 1_555
Nb1 O4 2.120462 1_655
Nb1 O5 2.192002 1_555
Nb1 O8 2.194645 1_555
Nb2 O6 1.842783 1_655
Nb2 O10 1.924260 1_555
Nb2 O16 2.001250 1_555
Nb2 O1 2.035118 1_555
Nb2 O7 2.167871 1_555
Nb2 O12 2.449999 1_555
Nb3 O12 1.893043 1_555
Nb3 O2 1.987869 1_555
Nb3 O11 2.001161 1_555
Nb3 O7 2.011042 1_455
Nb3 O17 2.069591 1_555
Nb3 O14 2.344948 1_556
Nb4 O13 1.922575 1_555
Nb4 O18 2.029115 1_555
Nb4 O14 2.076887 1_655
Nb4 O8 2.121222 1_555
Nb4 O11 2.321530 1_554
Nb5 O19 1.879225 1_555
Nb5 O15 1.929344 1_555
Nb5 O9 2.033636 1_555
Nb5 O18 2.232625 1_555
Nb5 O13 2.310656 1_455
Nb6 O2 2.145114 1_565
Nb6 O17 2.149336 1_555
Nb6 O4 2.471743 1_566
Nb7 O1 2.105519 1_565
Nb7 O16 2.210539 1_555
N0 Nb1 1.977376 1_555
N0 Nb0 2.011833 1_555
N1 Nb6 1.863032 1_555
N1 Nb7 2.410885 1_555
N2 Nb1 2.013941 1_566
N2 Nb6 2.171333 1_555
N3 Nb7 1.950355 1_555
N4 Nb4 1.950319 1_555
N4 Nb1 2.034779 1_565
N5 Nb0 1.924593 1_565
N5 Nb5 2.031751 1_555
N6 Nb6 1.981517 1_655
N6 Nb7 2.150509 1_555
N7 Nb7 1.911734 1_455
