# generated using pymatgen
data_Cd(BO2)2
_symmetry_space_group_name_H-M   'P 1'
_cell_length_a   6.46109500
_cell_length_b   11.35028100
_cell_length_c   11.37281800
_cell_angle_alpha   90.00000000
_cell_angle_beta   90.00000000
_cell_angle_gamma   90.00000000
_symmetry_Int_Tables_number   1
_chemical_formula_structural   Cd(BO2)2
_chemical_formula_sum   'Cd12 B24 O48'
_cell_volume   834.02838092
_cell_formula_units_Z   12
loop_
 _symmetry_equiv_pos_site_id
 _symmetry_equiv_pos_as_xyz
  1  'x, y, z'
loop_
 _atom_site_type_symbol
 _atom_site_label
 _atom_site_symmetry_multiplicity
 _atom_site_fract_x
 _atom_site_fract_y
 _atom_site_fract_z
 _atom_site_occupancy
  Cd  Cd0  1  0.65440500  0.03229800  0.23293000  1
  Cd  Cd1  1  0.04875500  0.07264700  0.00333200  1
  Cd  Cd2  1  0.61431700  0.24679800  0.77469100  1
  Cd  Cd3  1  0.11431700  0.25320200  0.27469100  1
  Cd  Cd4  1  0.54875500  0.42735300  0.50333200  1
  Cd  Cd5  1  0.15440500  0.46770200  0.73293000  1
  Cd  Cd6  1  0.84559500  0.53229800  0.23293000  1
  Cd  Cd7  1  0.45124500  0.57264700  0.00333200  1
  Cd  Cd8  1  0.88568300  0.74679800  0.77469100  1
  Cd  Cd9  1  0.38568300  0.75320200  0.27469100  1
  Cd  Cd10  1  0.95124500  0.92735300  0.50333200  1
  Cd  Cd11  1  0.34559500  0.96770200  0.73293000  1
  B  B0  1  0.87517500  0.02577900  0.75134100  1
  B  B1  1  0.52028700  0.03735200  0.98026900  1
  B  B2  1  0.24895500  0.13791200  0.53822500  1
  B  B3  1  0.59627600  0.17651800  0.44321600  1
  B  B4  1  0.11673100  0.21208000  0.74076300  1
  B  B5  1  0.91970200  0.24870100  0.54893400  1
  B  B6  1  0.41970200  0.25129900  0.04893400  1
  B  B7  1  0.61673100  0.28792000  0.24076300  1
  B  B8  1  0.09627600  0.32348200  0.94321600  1
  B  B9  1  0.74895500  0.36208800  0.03822500  1
  B  B10  1  0.02028700  0.46264800  0.48026900  1
  B  B11  1  0.37517500  0.47422100  0.25134100  1
  B  B12  1  0.62482500  0.52577900  0.75134100  1
  B  B13  1  0.97971300  0.53735200  0.98026900  1
  B  B14  1  0.25104500  0.63791200  0.53822500  1
  B  B15  1  0.90372400  0.67651800  0.44321600  1
  B  B16  1  0.38326900  0.71208000  0.74076300  1
  B  B17  1  0.58029800  0.74870100  0.54893400  1
  B  B18  1  0.08029800  0.75129900  0.04893400  1
  B  B19  1  0.88326900  0.78792000  0.24076300  1
  B  B20  1  0.40372400  0.82348200  0.94321600  1
  B  B21  1  0.75104500  0.86208800  0.03822500  1
  B  B22  1  0.47971300  0.96264800  0.48026900  1
  B  B23  1  0.12482500  0.97422100  0.25134100  1
  O  O0  1  0.29748000  0.00387800  0.53001500  1
  O  O1  1  0.63487500  0.04140700  0.45025500  1
  O  O2  1  0.67173700  0.05263300  0.75554000  1
  O  O3  1  0.03747500  0.07479100  0.20306100  1
  O  O4  1  0.02344700  0.10458200  0.80340900  1
  O  O5  1  0.02914000  0.14180200  0.51251200  1
  O  O6  1  0.48839400  0.15451300  0.96708900  1
  O  O7  1  0.28953600  0.17038100  0.66449500  1
  O  O8  1  0.37290800  0.19833400  0.44901800  1
  O  O9  1  0.69699800  0.20794300  0.33025200  1
  O  O10  1  0.46305800  0.22110400  0.17286100  1
  O  O11  1  0.69389000  0.23863600  0.53990600  1
  O  O12  1  0.19389000  0.26136400  0.03990600  1
  O  O13  1  0.96305800  0.27889600  0.67286100  1
  O  O14  1  0.19699800  0.29205700  0.83025200  1
  O  O15  1  0.87290800  0.30166600  0.94901800  1
  O  O16  1  0.78953600  0.32961900  0.16449500  1
  O  O17  1  0.98839400  0.34548700  0.46708900  1
  O  O18  1  0.52914000  0.35819800  0.01251200  1
  O  O19  1  0.52344700  0.39541800  0.30340900  1
  O  O20  1  0.53747500  0.42520900  0.70306100  1
  O  O21  1  0.17173700  0.44736700  0.25554000  1
  O  O22  1  0.13487500  0.45859300  0.95025500  1
  O  O23  1  0.79748000  0.49612200  0.03001500  1
  O  O24  1  0.20252000  0.50387800  0.53001500  1
  O  O25  1  0.86512500  0.54140700  0.45025500  1
  O  O26  1  0.82826300  0.55263300  0.75554000  1
  O  O27  1  0.46252500  0.57479100  0.20306100  1
  O  O28  1  0.47655300  0.60458200  0.80340900  1
  O  O29  1  0.47086000  0.64180200  0.51251200  1
  O  O30  1  0.01160600  0.65451300  0.96708900  1
  O  O31  1  0.21046400  0.67038100  0.66449500  1
  O  O32  1  0.12709200  0.69833400  0.44901800  1
  O  O33  1  0.80300200  0.70794300  0.33025200  1
  O  O34  1  0.03694200  0.72110400  0.17286100  1
  O  O35  1  0.80611000  0.73863600  0.53990600  1
  O  O36  1  0.30611000  0.76136400  0.03990600  1
  O  O37  1  0.53694200  0.77889600  0.67286100  1
  O  O38  1  0.30300200  0.79205700  0.83025200  1
  O  O39  1  0.62709200  0.80166600  0.94901800  1
  O  O40  1  0.71046400  0.82961900  0.16449500  1
  O  O41  1  0.51160600  0.84548700  0.46708900  1
  O  O42  1  0.97086000  0.85819800  0.01251200  1
  O  O43  1  0.97655300  0.89541800  0.30340900  1
  O  O44  1  0.96252500  0.92520900  0.70306100  1
  O  O45  1  0.32826300  0.94736700  0.25554000  1
  O  O46  1  0.36512500  0.95859300  0.95025500  1
  O  O47  1  0.70252000  0.99612200  0.03001500  1
loop_
_geom_bond_atom_site_label_1
_geom_bond_atom_site_label_2
_geom_bond_distance
_geom_bond_site_symmetry_2
Cd0 O9 2.296806 1_555
Cd0 O45 2.331488 1_545
Cd0 O47 2.364486 1_545
Cd0 O40 2.455417 1_545
Cd0 O1 2.476975 1_555
Cd0 O3 2.544385 1_655
Cd0 O10 2.566636 1_555
Cd0 O43 2.718193 1_545
Cd1 O3 2.272781 1_555
Cd1 O4 2.308198 1_554
Cd1 O12 2.374969 1_555
Cd1 O47 2.418873 1_445
Cd1 O42 2.487736 1_445
Cd1 O46 2.493703 1_544
Cd2 O20 2.238484 1_555
Cd2 O2 2.245424 1_555
Cd2 O6 2.558698 1_555
Cd2 O13 2.559500 1_555
Cd2 O7 2.593524 1_555
Cd2 O15 2.666460 1_555
Cd2 O11 2.720791 1_555
Cd2 O14 2.816630 1_555
Cd3 O3 2.238484 1_555
Cd3 O21 2.245424 1_555
Cd3 O17 2.558698 1_455
Cd3 O10 2.559500 1_555
Cd3 O16 2.593524 1_455
Cd3 O8 2.666460 1_555
Cd3 O12 2.720791 1_555
Cd3 O9 2.816630 1_455
Cd4 O20 2.272781 1_555
Cd4 O19 2.308198 1_555
Cd4 O11 2.374969 1_555
Cd4 O24 2.418873 1_555
Cd4 O29 2.487736 1_555
Cd4 O25 2.493703 1_555
Cd5 O14 2.296806 1_555
Cd5 O26 2.331488 1_455
Cd5 O24 2.364486 1_555
Cd5 O31 2.455417 1_555
Cd5 O22 2.476975 1_555
Cd5 O20 2.544385 1_555
Cd5 O13 2.566636 1_455
Cd5 O28 2.718193 1_555
Cd6 O33 2.296806 1_555
Cd6 O21 2.331488 1_655
Cd6 O23 2.364486 1_555
Cd6 O16 2.455417 1_555
Cd6 O25 2.476975 1_555
Cd6 O27 2.544385 1_555
Cd6 O34 2.566636 1_655
Cd6 O19 2.718193 1_555
Cd7 O27 2.272781 1_555
Cd7 O28 2.308198 1_554
Cd7 O36 2.374969 1_555
Cd7 O23 2.418873 1_555
Cd7 O18 2.487736 1_555
Cd7 O22 2.493703 1_554
Cd8 O44 2.238484 1_555
Cd8 O26 2.245424 1_555
Cd8 O30 2.558698 1_655
Cd8 O37 2.559500 1_555
Cd8 O31 2.593524 1_655
Cd8 O39 2.666460 1_555
Cd8 O35 2.720791 1_555
Cd8 O38 2.816630 1_655
Cd9 O27 2.238484 1_555
Cd9 O45 2.245424 1_555
Cd9 O41 2.558698 1_555
Cd9 O34 2.559500 1_555
Cd9 O40 2.593524 1_555
Cd9 O32 2.666460 1_555
Cd9 O36 2.720791 1_555
Cd9 O33 2.816630 1_555
Cd10 O44 2.272781 1_555
Cd10 O43 2.308198 1_555
Cd10 O35 2.374969 1_555
Cd10 O0 2.418873 1_665
Cd10 O5 2.487736 1_665
Cd10 O1 2.493703 1_565
Cd11 O38 2.296806 1_555
Cd11 O2 2.331488 1_565
Cd11 O0 2.364486 1_565
Cd11 O7 2.455417 1_565
Cd11 O46 2.476975 1_555
Cd11 O44 2.544385 1_455
Cd11 O37 2.566636 1_555
Cd11 O4 2.718193 1_565
B0 O2 1.350154 1_555
B0 O44 1.386732 1_545
B0 O4 1.438205 1_655
B1 O6 1.354004 1_555
B1 O46 1.385885 1_545
B1 O47 1.387589 1_546
B2 O5 1.450711 1_555
B2 O8 1.463218 1_555
B2 O7 1.505587 1_555
B2 O0 1.556098 1_555
B3 O11 1.450546 1_555
B3 O8 1.465776 1_555
B3 O9 1.483655 1_555
B3 O1 1.555755 1_555
B4 O14 1.459037 1_555
B4 O13 1.468786 1_455
B4 O7 1.490957 1_555
B4 O4 1.536096 1_555
B5 O5 1.464149 1_655
B5 O11 1.467056 1_555
B5 O13 1.477273 1_555
B5 O17 1.506716 1_555
B6 O18 1.464149 1_555
B6 O12 1.467056 1_555
B6 O10 1.477273 1_555
B6 O6 1.506716 1_554
B7 O9 1.459037 1_555
B7 O10 1.468786 1_555
B7 O16 1.490957 1_555
B7 O19 1.536096 1_555
B8 O12 1.450546 1_556
B8 O15 1.465776 1_455
B8 O14 1.483655 1_555
B8 O22 1.555755 1_555
B9 O18 1.450711 1_555
B9 O15 1.463218 1_554
B9 O16 1.505587 1_555
B9 O23 1.556098 1_555
B10 O17 1.354004 1_455
B10 O25 1.385885 1_455
B10 O24 1.387589 1_555
B11 O21 1.350154 1_555
B11 O27 1.386732 1_555
B11 O19 1.438205 1_555
B12 O26 1.350154 1_555
B12 O20 1.386732 1_555
B12 O28 1.438205 1_555
B13 O30 1.354004 1_655
B13 O22 1.385885 1_655
B13 O23 1.387589 1_556
B14 O29 1.450711 1_555
B14 O32 1.463218 1_555
B14 O31 1.505587 1_555
B14 O24 1.556098 1_555
B15 O35 1.450546 1_555
B15 O32 1.465776 1_655
B15 O33 1.483655 1_555
B15 O25 1.555755 1_555
B16 O38 1.459037 1_555
B16 O37 1.468786 1_555
B16 O31 1.490957 1_555
B16 O28 1.536096 1_555
B17 O29 1.464149 1_555
B17 O35 1.467056 1_555
B17 O37 1.477273 1_555
B17 O41 1.506716 1_555
B18 O42 1.464149 1_455
B18 O36 1.467056 1_555
B18 O34 1.477273 1_555
B18 O30 1.506716 1_554
B19 O33 1.459037 1_555
B19 O34 1.468786 1_655
B19 O40 1.490957 1_555
B19 O43 1.536096 1_555
B20 O36 1.450546 1_556
B20 O39 1.465776 1_555
B20 O38 1.483655 1_555
B20 O46 1.555755 1_555
B21 O42 1.450711 1_555
B21 O39 1.463218 1_554
B21 O40 1.505587 1_555
B21 O47 1.556098 1_555
B22 O41 1.354004 1_555
B22 O1 1.385885 1_565
B22 O0 1.387589 1_565
B23 O45 1.350154 1_555
B23 O3 1.386732 1_565
B23 O43 1.438205 1_455
