# generated using pymatgen
data_Mn2FeO3
_symmetry_space_group_name_H-M   'P 1'
_cell_length_a   3.18549300
_cell_length_b   5.51536900
_cell_length_c   7.70895208
_cell_angle_alpha   89.82470729
_cell_angle_beta   90.00000000
_cell_angle_gamma   90.00000000
_symmetry_Int_Tables_number   1
_chemical_formula_structural   Mn2FeO3
_chemical_formula_sum   'Mn4 Fe2 O6'
_cell_volume   135.43925065
_cell_formula_units_Z   2
loop_
 _symmetry_equiv_pos_site_id
 _symmetry_equiv_pos_as_xyz
  1  'x, y, z'
loop_
 _atom_site_type_symbol
 _atom_site_label
 _atom_site_symmetry_multiplicity
 _atom_site_fract_x
 _atom_site_fract_y
 _atom_site_fract_z
 _atom_site_occupancy
  Mn  Mn0  1  0.00000000  0.67014200  0.66474700  1
  Mn  Mn1  1  0.00000000  0.32985800  0.33525300  1
  Mn  Mn2  1  0.50000000  0.50000000  0.00000000  1
  Mn  Mn3  1  0.00000000  0.00000000  0.00000000  1
  Fe  Fe0  1  0.50000000  0.16814200  0.66540100  1
  Fe  Fe1  1  0.50000000  0.83185800  0.33459900  1
  O  O0  1  0.00000000  0.33278700  0.82762400  1
  O  O1  1  0.50000000  0.83696100  0.83151000  1
  O  O2  1  0.50000000  0.16303900  0.16849000  1
  O  O3  1  0.50000000  0.50000000  0.50000000  1
  O  O4  1  0.00000000  0.00000000  0.50000000  1
  O  O5  1  0.00000000  0.66721300  0.17237600  1
loop_
_geom_bond_atom_site_label_1
_geom_bond_atom_site_label_2
_geom_bond_distance
_geom_bond_site_symmetry_2
Mn0 O4 2.215545 1_565
Mn0 O0 2.241481 1_555
Mn0 O3 2.244480 1_455
Mn0 O3 2.244480 1_555
Mn0 O1 2.245727 1_455
Mn0 O1 2.245727 1_555
Mn1 O4 2.215545 1_555
Mn1 O5 2.241481 1_555
Mn1 O3 2.244480 1_455
Mn1 O3 2.244480 1_555
Mn1 O2 2.245727 1_555
Mn1 O2 2.245727 1_455
Mn2 O1 2.264114 1_554
Mn2 O2 2.264114 1_555
Mn2 O5 2.271713 1_555
Mn2 O5 2.271713 1_655
Mn2 O0 2.271713 1_554
Mn2 O0 2.271713 1_654
Mn3 O1 2.244923 1_444
Mn3 O1 2.244923 1_544
Mn3 O2 2.244923 1_455
Mn3 O2 2.244923 1_555
Mn3 O5 2.262684 1_545
Mn3 O0 2.262684 1_554
Fe0 O0 2.220883 1_655
Fe0 O0 2.220883 1_555
Fe0 O3 2.227462 1_555
Fe0 O1 2.227521 1_545
Fe0 O4 2.242740 1_555
Fe0 O4 2.242740 1_655
Fe1 O5 2.220883 1_555
Fe1 O5 2.220883 1_655
Fe1 O3 2.227462 1_555
Fe1 O2 2.227521 1_565
Fe1 O4 2.242740 1_665
Fe1 O4 2.242740 1_565
