# generated using pymatgen
data_Li3MnCu3O8
_symmetry_space_group_name_H-M   'P 1'
_cell_length_a   5.93061191
_cell_length_b   5.93061191
_cell_length_c   5.93061238
_cell_angle_alpha   59.34762389
_cell_angle_beta   59.34762389
_cell_angle_gamma   59.34761992
_symmetry_Int_Tables_number   1
_chemical_formula_structural   Li3MnCu3O8
_chemical_formula_sum   'Li3 Mn1 Cu3 O8'
_cell_volume   145.30672438
_cell_formula_units_Z   1
loop_
 _symmetry_equiv_pos_site_id
 _symmetry_equiv_pos_as_xyz
  1  'x, y, z'
loop_
 _atom_site_type_symbol
 _atom_site_label
 _atom_site_symmetry_multiplicity
 _atom_site_fract_x
 _atom_site_fract_y
 _atom_site_fract_z
 _atom_site_occupancy
  Li  Li0  1  0.00000000  0.50000000  0.00000000  1
  Li  Li1  1  0.00000000  0.00000000  0.50000000  1
  Li  Li2  1  0.50000000  0.00000000  0.00000000  1
  Mn  Mn0  1  0.00000000  0.00000000  0.00000000  1
  Cu  Cu0  1  0.50000000  0.00000000  0.50000000  1
  Cu  Cu1  1  0.50000000  0.50000000  0.00000000  1
  Cu  Cu2  1  0.00000000  0.50000000  0.50000000  1
  O  O0  1  0.26031200  0.26031200  0.26031200  1
  O  O1  1  0.76962400  0.24145400  0.76962400  1
  O  O2  1  0.76962400  0.76962400  0.24145400  1
  O  O3  1  0.73968800  0.73968800  0.73968800  1
  O  O4  1  0.24145400  0.76962400  0.76962400  1
  O  O5  1  0.23037600  0.75854600  0.23037600  1
  O  O6  1  0.23037600  0.23037600  0.75854600  1
  O  O7  1  0.75854600  0.23037600  0.23037600  1
loop_
_geom_bond_atom_site_label_1
_geom_bond_atom_site_label_2
_geom_bond_distance
_geom_bond_site_symmetry_2
Li0 O2 2.141577 1_455
Li0 O6 2.141577 1_554
Li0 O4 2.141577 1_554
Li0 O7 2.141577 1_455
Li0 O3 2.177667 1_454
Li0 O0 2.177667 1_555
Li1 O4 2.141577 1_545
Li1 O1 2.141577 1_455
Li1 O7 2.141577 1_455
Li1 O5 2.141577 1_545
Li1 O3 2.177667 1_445
Li1 O0 2.177667 1_555
Li2 O2 2.141577 1_545
Li2 O6 2.141577 1_554
Li2 O1 2.141577 1_554
Li2 O5 2.141577 1_545
Li2 O3 2.177667 1_544
Li2 O0 2.177667 1_555
Mn0 O1 1.922885 1_454
Mn0 O4 1.922885 1_544
Mn0 O7 1.922885 1_455
Mn0 O5 1.922885 1_545
Mn0 O2 1.922885 1_445
Mn0 O6 1.922885 1_554
Cu0 O0 2.002427 1_555
Cu0 O3 2.002427 1_545
Cu0 O6 2.045275 1_555
Cu0 O2 2.045275 1_545
Cu0 O7 2.045275 1_555
Cu0 O4 2.045275 1_545
Cu1 O0 2.002427 1_555
Cu1 O3 2.002427 1_554
Cu1 O5 2.045275 1_555
Cu1 O7 2.045275 1_555
Cu1 O4 2.045275 1_554
Cu1 O1 2.045275 1_554
Cu2 O3 2.002427 1_455
Cu2 O0 2.002427 1_555
Cu2 O6 2.045275 1_555
Cu2 O2 2.045275 1_455
Cu2 O5 2.045275 1_555
Cu2 O1 2.045275 1_455
