# generated using pymatgen
data_Li2CrPO5
_symmetry_space_group_name_H-M   'P 1'
_cell_length_a   5.11341300
_cell_length_b   12.73555900
_cell_length_c   13.03115942
_cell_angle_alpha   61.47111739
_cell_angle_beta   90.00000000
_cell_angle_gamma   90.00000000
_symmetry_Int_Tables_number   1
_chemical_formula_structural   Li2CrPO5
_chemical_formula_sum   'Li16 Cr8 P8 O40'
_cell_volume   745.57529225
_cell_formula_units_Z   8
loop_
 _symmetry_equiv_pos_site_id
 _symmetry_equiv_pos_as_xyz
  1  'x, y, z'
loop_
 _atom_site_type_symbol
 _atom_site_label
 _atom_site_symmetry_multiplicity
 _atom_site_fract_x
 _atom_site_fract_y
 _atom_site_fract_z
 _atom_site_occupancy
  Li  Li0  1  0.73564800  0.82629800  0.35102000  1
  Li  Li1  1  0.76206800  0.34618500  0.07855900  1
  Li  Li2  1  0.21230800  0.17676400  0.15142300  1
  Li  Li3  1  0.73015200  0.58463500  0.57505500  1
  Li  Li4  1  0.23015200  0.91536500  0.42494500  1
  Li  Li5  1  0.71230800  0.32323600  0.84857700  1
  Li  Li6  1  0.76435200  0.32629800  0.35102000  1
  Li  Li7  1  0.73793200  0.84618500  0.07855900  1
  Li  Li8  1  0.26206800  0.15381500  0.92144100  1
  Li  Li9  1  0.23564800  0.67370200  0.64898000  1
  Li  Li10  1  0.28769200  0.67676400  0.15142300  1
  Li  Li11  1  0.76984800  0.08463500  0.57505500  1
  Li  Li12  1  0.26984800  0.41536500  0.42494500  1
  Li  Li13  1  0.78769200  0.82323600  0.84857700  1
  Li  Li14  1  0.23793200  0.65381500  0.92144100  1
  Li  Li15  1  0.26435200  0.17370200  0.64898000  1
  Cr  Cr0  1  0.72545000  0.13094200  0.06069700  1
  Cr  Cr1  1  0.26883500  0.69028300  0.43849700  1
  Cr  Cr2  1  0.77455000  0.63094200  0.06069700  1
  Cr  Cr3  1  0.76883500  0.80971700  0.56150300  1
  Cr  Cr4  1  0.23116500  0.19028300  0.43849700  1
  Cr  Cr5  1  0.22545000  0.36905800  0.93930300  1
  Cr  Cr6  1  0.73116500  0.30971700  0.56150300  1
  Cr  Cr7  1  0.27455000  0.86905800  0.93930300  1
  P  P0  1  0.22428300  0.92766700  0.16249300  1
  P  P1  1  0.22593600  0.41236700  0.66301700  1
  P  P2  1  0.27571700  0.42766700  0.16249300  1
  P  P3  1  0.72593600  0.08763300  0.33698300  1
  P  P4  1  0.27406400  0.91236700  0.66301700  1
  P  P5  1  0.72428300  0.57233300  0.83750700  1
  P  P6  1  0.77406400  0.58763300  0.33698300  1
  P  P7  1  0.77571700  0.07233300  0.83750700  1
  O  O0  1  0.92647400  0.95292100  0.13619400  1
  O  O1  1  0.03940100  0.21976100  0.99508900  1
  O  O2  1  0.37634300  0.04515900  0.12149100  1
  O  O3  1  0.61808600  0.65451200  0.38844700  1
  O  O4  1  0.26933800  0.85401000  0.29566600  1
  O  O5  1  0.16025000  0.35819900  0.10146800  1
  O  O6  1  0.79930700  0.14618300  0.20598700  1
  O  O7  1  0.92712200  0.40427900  0.64376600  1
  O  O8  1  0.95300000  0.72567400  0.49271200  1
  O  O9  1  0.57352600  0.45292100  0.13619400  1
  O  O10  1  0.46059900  0.71976100  0.99508900  1
  O  O11  1  0.31736200  0.54499100  0.60340600  1
  O  O12  1  0.81736200  0.95500900  0.39659400  1
  O  O13  1  0.12365700  0.54515900  0.12149100  1
  O  O14  1  0.45300000  0.77432600  0.50728800  1
  O  O15  1  0.42712200  0.09572100  0.35623400  1
  O  O16  1  0.88191400  0.15451200  0.38844700  1
  O  O17  1  0.23066200  0.35401000  0.29566600  1
  O  O18  1  0.29930700  0.35381700  0.79401300  1
  O  O19  1  0.66025000  0.14180100  0.89853200  1
  O  O20  1  0.33975000  0.85819900  0.10146800  1
  O  O21  1  0.70069300  0.64618300  0.20598700  1
  O  O22  1  0.76933800  0.64599000  0.70433400  1
  O  O23  1  0.11808600  0.84548800  0.61155300  1
  O  O24  1  0.57287800  0.90427900  0.64376600  1
  O  O25  1  0.54700000  0.22567400  0.49271200  1
  O  O26  1  0.87634300  0.45484100  0.87850900  1
  O  O27  1  0.18263800  0.04499100  0.60340600  1
  O  O28  1  0.68263800  0.45500900  0.39659400  1
  O  O29  1  0.53940100  0.28023900  0.00491100  1
  O  O30  1  0.42647400  0.54707900  0.86380600  1
  O  O31  1  0.04700000  0.27432600  0.50728800  1
  O  O32  1  0.07287800  0.59572100  0.35623400  1
  O  O33  1  0.20069300  0.85381700  0.79401300  1
  O  O34  1  0.83975000  0.64180100  0.89853200  1
  O  O35  1  0.73066200  0.14599000  0.70433400  1
  O  O36  1  0.38191400  0.34548800  0.61155300  1
  O  O37  1  0.62365700  0.95484100  0.87850900  1
  O  O38  1  0.96059900  0.78023900  0.00491100  1
  O  O39  1  0.07352600  0.04707900  0.86380600  1
loop_
_geom_bond_atom_site_label_1
_geom_bond_atom_site_label_2
_geom_bond_distance
_geom_bond_site_symmetry_2
Li0 O8 2.006622 1_555
Li0 O12 2.035723 1_555
Li0 O3 2.089604 1_555
Li0 O14 2.320829 1_555
Li0 O4 2.467232 1_555
Li0 O0 2.660320 1_555
Li1 O29 1.921647 1_555
Li1 O5 2.074063 1_655
Li1 O9 2.077635 1_555
Li1 O6 2.289412 1_555
Li1 O26 2.367780 1_554
Li2 O1 2.041132 1_554
Li2 O2 2.071071 1_555
Li2 O5 2.096913 1_555
Li2 O6 2.202867 1_455
Li2 O29 2.403316 1_555
Li2 O15 2.600717 1_555
Li3 O8 1.958369 1_555
Li3 O11 2.160685 1_555
Li3 O22 2.178575 1_555
Li3 O3 2.228563 1_555
Li3 O7 2.264408 1_555
Li3 O14 2.566449 1_555
Li4 O14 1.958369 1_555
Li4 O12 2.160685 1_455
Li4 O4 2.178575 1_555
Li4 O23 2.228563 1_555
Li4 O15 2.264408 1_565
Li4 O8 2.566449 1_455
Li5 O29 2.041132 1_556
Li5 O26 2.071071 1_555
Li5 O19 2.096913 1_555
Li5 O18 2.202867 1_555
Li5 O1 2.403316 1_655
Li5 O7 2.600717 1_555
Li6 O25 2.006622 1_555
Li6 O28 2.035723 1_555
Li6 O16 2.089604 1_555
Li6 O31 2.320829 1_655
Li6 O17 2.467232 1_655
Li6 O9 2.660320 1_555
Li7 O38 1.921647 1_555
Li7 O20 2.074063 1_555
Li7 O0 2.077635 1_555
Li7 O21 2.289412 1_555
Li7 O37 2.367780 1_554
Li8 O1 1.921647 1_555
Li8 O19 2.074063 1_555
Li8 O39 2.077635 1_555
Li8 O18 2.289412 1_555
Li8 O2 2.367780 1_556
Li9 O14 2.006622 1_555
Li9 O11 2.035723 1_555
Li9 O23 2.089604 1_555
Li9 O8 2.320829 1_455
Li9 O22 2.467232 1_455
Li9 O30 2.660320 1_555
Li10 O10 2.041132 1_554
Li10 O13 2.071071 1_555
Li10 O20 2.096913 1_555
Li10 O21 2.202867 1_555
Li10 O38 2.403316 1_455
Li10 O32 2.600717 1_555
Li11 O25 1.958369 1_555
Li11 O27 2.160685 1_655
Li11 O35 2.178575 1_555
Li11 O16 2.228563 1_555
Li11 O24 2.264408 1_545
Li11 O31 2.566449 1_655
Li12 O31 1.958369 1_555
Li12 O28 2.160685 1_555
Li12 O17 2.178575 1_555
Li12 O36 2.228563 1_555
Li12 O32 2.264408 1_555
Li12 O25 2.566449 1_555
Li13 O38 2.041132 1_556
Li13 O37 2.071071 1_555
Li13 O34 2.096913 1_555
Li13 O33 2.202867 1_655
Li13 O10 2.403316 1_555
Li13 O24 2.600717 1_555
Li14 O10 1.921647 1_555
Li14 O34 2.074063 1_455
Li14 O30 2.077635 1_555
Li14 O33 2.289412 1_555
Li14 O13 2.367780 1_556
Li15 O31 2.006622 1_555
Li15 O27 2.035723 1_555
Li15 O36 2.089604 1_555
Li15 O25 2.320829 1_555
Li15 O35 2.467232 1_555
Li15 O39 2.660320 1_555
Cr0 O1 1.914127 1_654
Cr0 O29 1.930925 1_555
Cr0 O6 2.028770 1_555
Cr0 O2 2.044777 1_555
Cr0 O19 2.077674 1_554
Cr0 O0 2.243682 1_545
Cr1 O8 1.901222 1_455
Cr1 O14 1.937140 1_555
Cr1 O4 2.026079 1_555
Cr1 O3 2.026337 1_555
Cr1 O11 2.074903 1_555
Cr1 O32 2.199241 1_555
Cr2 O10 1.914127 1_554
Cr2 O38 1.930925 1_555
Cr2 O21 2.028770 1_555
Cr2 O13 2.044777 1_655
Cr2 O34 2.077674 1_554
Cr2 O9 2.243682 1_555
Cr3 O14 1.901222 1_555
Cr3 O8 1.937140 1_555
Cr3 O22 2.026079 1_555
Cr3 O23 2.026337 1_655
Cr3 O12 2.074903 1_555
Cr3 O24 2.199241 1_555
Cr4 O25 1.901222 1_555
Cr4 O31 1.937140 1_555
Cr4 O17 2.026079 1_555
Cr4 O16 2.026337 1_455
Cr4 O27 2.074903 1_555
Cr4 O15 2.199241 1_555
Cr5 O29 1.914127 1_556
Cr5 O1 1.930925 1_555
Cr5 O18 2.028770 1_555
Cr5 O26 2.044777 1_455
Cr5 O5 2.077674 1_556
Cr5 O30 2.243682 1_555
Cr6 O31 1.901222 1_655
Cr6 O25 1.937140 1_555
Cr6 O35 2.026079 1_555
Cr6 O36 2.026337 1_555
Cr6 O28 2.074903 1_555
Cr6 O7 2.199241 1_555
Cr7 O38 1.914127 1_456
Cr7 O10 1.930925 1_555
Cr7 O33 2.028770 1_555
Cr7 O37 2.044777 1_555
Cr7 O20 2.077674 1_556
Cr7 O39 2.243682 1_565
O0 P0 1.560316 1_655
O2 P0 1.537977 1_545
O3 P6 1.535242 1_555
O4 P0 1.545852 1_555
O5 P2 1.560687 1_555
O6 P3 1.547537 1_555
O7 P1 1.559771 1_655
O9 P2 1.560316 1_555
O11 P1 1.556136 1_555
O12 P3 1.556136 1_565
O13 P2 1.537977 1_555
O15 P3 1.559771 1_555
O16 P3 1.535242 1_555
O17 P2 1.545852 1_555
O18 P1 1.547537 1_555
O19 P7 1.560687 1_555
O20 P0 1.560687 1_555
O21 P6 1.547537 1_555
O22 P5 1.545852 1_555
O23 P4 1.535242 1_555
O24 P4 1.559771 1_555
O26 P5 1.537977 1_555
O27 P4 1.556136 1_545
O28 P6 1.556136 1_555
O30 P5 1.560316 1_555
O32 P6 1.559771 1_455
O33 P4 1.547537 1_555
O34 P5 1.560687 1_555
O35 P7 1.545852 1_555
O36 P1 1.535242 1_555
O37 P7 1.537977 1_565
O39 P7 1.560316 1_455
