# generated using pymatgen
data_LiMn(PO3)3
_symmetry_space_group_name_H-M   'P 1'
_cell_length_a   5.27263300
_cell_length_b   12.20590000
_cell_length_c   12.80900400
_cell_angle_alpha   90.00000000
_cell_angle_beta   90.00000000
_cell_angle_gamma   90.00000000
_symmetry_Int_Tables_number   1
_chemical_formula_structural   LiMn(PO3)3
_chemical_formula_sum   'Li4 Mn4 P12 O36'
_cell_volume   824.35203103
_cell_formula_units_Z   4
loop_
 _symmetry_equiv_pos_site_id
 _symmetry_equiv_pos_as_xyz
  1  'x, y, z'
loop_
 _atom_site_type_symbol
 _atom_site_label
 _atom_site_symmetry_multiplicity
 _atom_site_fract_x
 _atom_site_fract_y
 _atom_site_fract_z
 _atom_site_occupancy
  Li  Li0  1  0.05683600  0.11144200  0.25000000  1
  Li  Li1  1  0.05683600  0.38855800  0.75000000  1
  Li  Li2  1  0.94316400  0.61144200  0.25000000  1
  Li  Li3  1  0.94316400  0.88855800  0.75000000  1
  Mn  Mn0  1  0.00000000  0.00000000  0.00000000  1
  Mn  Mn1  1  0.00000000  0.50000000  0.00000000  1
  Mn  Mn2  1  0.00000000  0.00000000  0.50000000  1
  Mn  Mn3  1  0.00000000  0.50000000  0.50000000  1
  P  P0  1  0.23958100  0.75000000  0.00000000  1
  P  P1  1  0.23958100  0.75000000  0.50000000  1
  P  P2  1  0.49581800  0.08177500  0.63605000  1
  P  P3  1  0.49581800  0.41822500  0.13605000  1
  P  P4  1  0.49581800  0.08177500  0.86395000  1
  P  P5  1  0.49581800  0.41822500  0.36395000  1
  P  P6  1  0.50418200  0.58177500  0.63605000  1
  P  P7  1  0.50418200  0.91822500  0.36395000  1
  P  P8  1  0.50418200  0.91822500  0.13605000  1
  P  P9  1  0.50418200  0.58177500  0.86395000  1
  P  P10  1  0.76041900  0.25000000  0.00000000  1
  P  P11  1  0.76041900  0.25000000  0.50000000  1
  O  O0  1  0.09668200  0.66595600  0.06309900  1
  O  O1  1  0.09668200  0.66595600  0.43690100  1
  O  O2  1  0.09668200  0.83404400  0.56309900  1
  O  O3  1  0.09668200  0.83404400  0.93690100  1
  O  O4  1  0.21661600  0.44001800  0.13000100  1
  O  O5  1  0.21661600  0.05998200  0.63000100  1
  O  O6  1  0.21661600  0.44001800  0.36999900  1
  O  O7  1  0.21661600  0.05998200  0.86999900  1
  O  O8  1  0.32006700  0.00898900  0.10950300  1
  O  O9  1  0.32006700  0.00898900  0.39049700  1
  O  O10  1  0.32006700  0.49101100  0.89049700  1
  O  O11  1  0.32006700  0.49101100  0.60950300  1
  O  O12  1  0.43520300  0.87208500  0.25000000  1
  O  O13  1  0.43520300  0.62791500  0.75000000  1
  O  O14  1  0.44501500  0.69235700  0.57436400  1
  O  O15  1  0.44501500  0.80764300  0.07436400  1
  O  O16  1  0.44501500  0.69235700  0.92563600  1
  O  O17  1  0.44501500  0.80764300  0.42563600  1
  O  O18  1  0.55498500  0.19235700  0.57436400  1
  O  O19  1  0.55498500  0.30764300  0.07436400  1
  O  O20  1  0.55498500  0.30764300  0.42563600  1
  O  O21  1  0.55498500  0.19235700  0.92563600  1
  O  O22  1  0.56479700  0.12791500  0.75000000  1
  O  O23  1  0.56479700  0.37208500  0.25000000  1
  O  O24  1  0.67993300  0.50898900  0.39049700  1
  O  O25  1  0.67993300  0.99101100  0.60950300  1
  O  O26  1  0.67993300  0.50898900  0.10950300  1
  O  O27  1  0.67993300  0.99101100  0.89049700  1
  O  O28  1  0.78338400  0.55998200  0.86999900  1
  O  O29  1  0.78338400  0.55998200  0.63000100  1
  O  O30  1  0.78338400  0.94001800  0.36999900  1
  O  O31  1  0.78338400  0.94001800  0.13000100  1
  O  O32  1  0.90331800  0.16595600  0.43690100  1
  O  O33  1  0.90331800  0.33404400  0.56309900  1
  O  O34  1  0.90331800  0.16595600  0.06309900  1
  O  O35  1  0.90331800  0.33404400  0.93690100  1
loop_
_geom_bond_atom_site_label_1
_geom_bond_atom_site_label_2
_geom_bond_distance
_geom_bond_site_symmetry_2
Li0 O8 2.593994 1_555
Li0 O9 2.593994 1_555
Li0 O32 2.613285 1_455
Li0 O34 2.613285 1_455
Li1 O10 2.593994 1_555
Li1 O11 2.593994 1_555
Li1 O35 2.613285 1_455
Li1 O33 2.613285 1_455
Li2 O26 2.593994 1_555
Li2 O24 2.593994 1_555
Li2 O1 2.613285 1_655
Li2 O0 2.613285 1_655
Li3 O25 2.593994 1_555
Li3 O27 2.593994 1_555
Li3 O2 2.613285 1_655
Li3 O3 2.613285 1_655
Mn0 O31 2.147867 1_445
Mn0 O7 2.147867 1_554
Mn0 O27 2.197128 1_444
Mn0 O8 2.197128 1_555
Mn0 O34 2.239718 1_455
Mn0 O3 2.239718 1_544
Mn1 O4 2.147867 1_555
Mn1 O28 2.147867 1_454
Mn1 O26 2.197128 1_455
Mn1 O10 2.197128 1_554
Mn1 O35 2.239718 1_454
Mn1 O0 2.239718 1_555
Mn2 O5 2.147867 1_555
Mn2 O30 2.147867 1_445
Mn2 O9 2.197128 1_555
Mn2 O25 2.197128 1_445
Mn2 O32 2.239718 1_455
Mn2 O2 2.239718 1_545
Mn3 O6 2.147867 1_555
Mn3 O29 2.147867 1_455
Mn3 O24 2.197128 1_455
Mn3 O11 2.197128 1_555
Mn3 O1 2.239718 1_555
Mn3 O33 2.239718 1_455
O0 P0 1.507737 1_555
O1 P1 1.507737 1_555
O2 P1 1.507737 1_555
O3 P0 1.507737 1_556
O4 P3 1.497974 1_555
O5 P2 1.497974 1_555
O6 P5 1.497974 1_555
O7 P4 1.497974 1_555
O8 P8 1.511744 1_545
O9 P7 1.511744 1_545
O10 P9 1.511744 1_555
O11 P6 1.511744 1_555
O12 P7 1.606189 1_555
O12 P8 1.606189 1_555
O13 P6 1.606189 1_555
O13 P9 1.606189 1_555
O14 P6 1.594826 1_555
O14 P1 1.604873 1_555
O15 P8 1.594826 1_555
O15 P0 1.604873 1_555
O16 P9 1.594826 1_555
O16 P0 1.604873 1_556
O17 P7 1.594826 1_555
O17 P1 1.604873 1_555
O18 P2 1.594826 1_555
O18 P11 1.604873 1_555
O19 P3 1.594826 1_555
O19 P10 1.604873 1_555
O20 P5 1.594826 1_555
O20 P11 1.604873 1_555
O21 P4 1.594826 1_555
O21 P10 1.604873 1_556
O22 P4 1.606189 1_555
O22 P2 1.606189 1_555
O23 P5 1.606189 1_555
O23 P3 1.606189 1_555
O24 P5 1.511744 1_555
O25 P2 1.511744 1_565
O26 P3 1.511744 1_555
O27 P4 1.511744 1_565
O28 P9 1.497974 1_555
O29 P6 1.497974 1_555
O30 P7 1.497974 1_555
O31 P8 1.497974 1_555
O32 P11 1.507737 1_555
O33 P11 1.507737 1_555
O34 P10 1.507737 1_555
O35 P10 1.507737 1_556
