# generated using pymatgen
data_Na2MnPCO7
_symmetry_space_group_name_H-M   'P 1'
_cell_length_a   5.19453500
_cell_length_b   6.67627559
_cell_length_c   17.90277803
_cell_angle_alpha   90.61614512
_cell_angle_beta   91.21255951
_cell_angle_gamma   90.13520091
_symmetry_Int_Tables_number   1
_chemical_formula_structural   Na2MnPCO7
_chemical_formula_sum   'Na8 Mn4 P4 C4 O28'
_cell_volume   620.69397494
_cell_formula_units_Z   4
loop_
 _symmetry_equiv_pos_site_id
 _symmetry_equiv_pos_as_xyz
  1  'x, y, z'
loop_
 _atom_site_type_symbol
 _atom_site_label
 _atom_site_symmetry_multiplicity
 _atom_site_fract_x
 _atom_site_fract_y
 _atom_site_fract_z
 _atom_site_occupancy
  Na  Na0  1  0.75502700  0.00959600  0.12502900  1
  Na  Na1  1  0.75239300  0.48625300  0.12479900  1
  Na  Na2  1  0.24436700  0.50815500  0.38060300  1
  Na  Na3  1  0.24160600  0.99258400  0.38084400  1
  Na  Na4  1  0.75466200  0.00839800  0.62160400  1
  Na  Na5  1  0.75425300  0.49183500  0.62184700  1
  Na  Na6  1  0.24909800  0.99418200  0.87190900  1
  Na  Na7  1  0.76981600  0.72706000  0.95613700  1
  Mn  Mn0  1  0.22277500  0.74798400  0.17788800  1
  Mn  Mn1  1  0.77936500  0.25079200  0.32414100  1
  Mn  Mn2  1  0.22089100  0.75199500  0.67602800  1
  Mn  Mn3  1  0.78715800  0.26153000  0.82738600  1
  P  P0  1  0.29468200  0.24911700  0.21201800  1
  P  P1  1  0.70459900  0.75000300  0.28972600  1
  P  P2  1  0.28686600  0.25126600  0.71231400  1
  P  P3  1  0.70457400  0.75282100  0.78845500  1
  C  C0  1  0.27596400  0.75272100  0.03382200  1
  C  C1  1  0.72629800  0.25054200  0.46280400  1
  C  C2  1  0.27191200  0.74921600  0.53824200  1
  C  C3  1  0.73273000  0.24650100  0.96248400  1
  O  O0  1  0.71331700  0.24352900  0.03252700  1
  O  O1  1  0.05925300  0.74724900  0.07235100  1
  O  O2  1  0.48757100  0.74698500  0.07420200  1
  O  O3  1  0.22459900  0.05896300  0.16567800  1
  O  O4  1  0.22499600  0.43703300  0.16597700  1
  O  O5  1  0.59672800  0.24949200  0.22666700  1
  O  O6  1  0.83054400  0.74873800  0.21183500  1
  O  O7  1  0.16108400  0.25029100  0.28836100  1
  O  O8  1  0.40085400  0.75001200  0.27681800  1
  O  O9  1  0.77926700  0.56278200  0.33493700  1
  O  O10  1  0.78049100  0.93925000  0.33520800  1
  O  O11  1  0.52301600  0.25097700  0.41880300  1
  O  O12  1  0.94448400  0.25229500  0.42476300  1
  O  O13  1  0.27711700  0.75161200  0.46825300  1
  O  O14  1  0.72604800  0.24859200  0.53239300  1
  O  O15  1  0.05264500  0.74761500  0.57511300  1
  O  O16  1  0.47455700  0.74839500  0.58252700  1
  O  O17  1  0.22689400  0.06453200  0.66307600  1
  O  O18  1  0.22281600  0.43929200  0.66630500  1
  O  O19  1  0.58430100  0.25110300  0.73242900  1
  O  O20  1  0.84850700  0.75254200  0.71382400  1
  O  O21  1  0.13483200  0.24381400  0.78561300  1
  O  O22  1  0.40931300  0.76443300  0.76901600  1
  O  O23  1  0.76287300  0.56798600  0.83633500  1
  O  O24  1  0.77493400  0.93471100  0.83970000  1
  O  O25  1  0.53743600  0.24755300  0.91506900  1
  O  O26  1  0.95606800  0.25299500  0.92890500  1
  O  O27  1  0.26926800  0.76257600  0.96359700  1
loop_
_geom_bond_atom_site_label_1
_geom_bond_atom_site_label_2
_geom_bond_distance
_geom_bond_site_symmetry_2
Na0 O0 2.295796 1_555
Na0 O6 2.374378 1_545
Na0 O2 2.394327 1_545
Na0 O1 2.548561 1_645
Na0 O3 2.550270 1_655
Na0 O5 2.561081 1_555
Na0 O3 2.883407 1_555
Na1 O0 2.307106 1_555
Na1 O6 2.361117 1_555
Na1 O2 2.394880 1_555
Na1 O1 2.558152 1_655
Na1 O5 2.568411 1_555
Na1 O4 2.571121 1_655
Na1 O4 2.871097 1_555
Na2 O13 2.250708 1_555
Na2 O11 2.346479 1_555
Na2 O7 2.404818 1_555
Na2 O12 2.457265 1_455
Na2 O9 2.562288 1_455
Na2 O8 2.615837 1_555
Na3 O13 2.261499 1_555
Na3 O11 2.344244 1_565
Na3 O7 2.431431 1_565
Na3 O12 2.457931 1_465
Na3 O10 2.537429 1_455
Na3 O8 2.604231 1_555
Na4 O14 2.278288 1_555
Na4 O16 2.353413 1_545
Na4 O20 2.431413 1_545
Na4 O15 2.481141 1_645
Na4 O17 2.573253 1_655
Na4 O19 2.712417 1_555
Na4 O17 2.879685 1_555
Na5 O14 2.270779 1_555
Na5 O16 2.352598 1_555
Na5 O20 2.425054 1_555
Na5 O15 2.468148 1_655
Na5 O18 2.570756 1_655
Na5 O19 2.723501 1_555
Na5 O18 2.910620 1_555
Na6 O27 2.268130 1_555
Na6 O21 2.353290 1_565
Na6 O25 2.369128 1_565
Na6 O26 2.526665 1_465
Na6 O22 2.539437 1_555
Na6 O24 2.546992 1_455
Na6 O24 2.831599 1_555
Na7 O23 2.382617 1_555
Na7 O24 2.516404 1_555
Na7 O1 2.543222 1_656
Na7 O2 2.600185 1_556
Na7 O27 2.605155 1_655
Na7 O27 2.617552 1_555
Mn0 O8 1.980615 1_555
Mn0 O1 2.055055 1_555
Mn0 O4 2.084719 1_555
Mn0 O3 2.090014 1_565
Mn0 O6 2.138458 1_455
Mn0 O2 2.333579 1_555
Mn1 O5 1.968481 1_555
Mn1 O12 1.978647 1_555
Mn1 O9 2.089811 1_555
Mn1 O10 2.091486 1_545
Mn1 O7 2.096611 1_655
Mn1 O11 2.177320 1_555
Mn2 O22 1.914139 1_555
Mn2 O15 1.990124 1_555
Mn2 O20 2.062766 1_455
Mn2 O18 2.093134 1_555
Mn2 O17 2.102135 1_565
Mn2 O16 2.152097 1_555
Mn3 O21 1.972611 1_655
Mn3 O19 1.981540 1_555
Mn3 O26 2.002816 1_555
Mn3 O23 2.054911 1_555
Mn3 O25 2.060181 1_555
Mn3 O24 2.196304 1_545
C0 O27 1.259399 1_554
C0 O2 1.303639 1_555
C0 O1 1.333254 1_555
C1 O14 1.246073 1_555
C1 O11 1.304011 1_555
C1 O12 1.334641 1_555
C2 O13 1.254134 1_555
C2 O16 1.304402 1_555
C2 O15 1.328552 1_555
C3 O0 1.260503 1_556
C3 O25 1.308992 1_555
C3 O26 1.318722 1_555
O3 P0 1.547533 1_555
O4 P0 1.547955 1_555
O5 P0 1.585264 1_555
O6 P1 1.552740 1_555
O7 P0 1.545839 1_555
O8 P1 1.589801 1_555
O9 P1 1.542297 1_555
O10 P1 1.541656 1_555
O17 P2 1.546359 1_555
O18 P2 1.541941 1_555
O19 P2 1.579015 1_555
O20 P3 1.544800 1_555
O21 P2 1.547019 1_555
O22 P3 1.567815 1_555
O23 P3 1.537134 1_555
O24 P3 1.552304 1_555
