# generated using pymatgen
data_LiFePO5
_symmetry_space_group_name_H-M   'P 1'
_cell_length_a   7.16529038
_cell_length_b   7.16529038
_cell_length_c   10.70953351
_cell_angle_alpha   70.03426359
_cell_angle_beta   70.03426359
_cell_angle_gamma   43.58318299
_symmetry_Int_Tables_number   1
_chemical_formula_structural   LiFePO5
_chemical_formula_sum   'Li4 Fe4 P4 O20'
_cell_volume   352.50403178
_cell_formula_units_Z   4
loop_
 _symmetry_equiv_pos_site_id
 _symmetry_equiv_pos_as_xyz
  1  'x, y, z'
loop_
 _atom_site_type_symbol
 _atom_site_label
 _atom_site_symmetry_multiplicity
 _atom_site_fract_x
 _atom_site_fract_y
 _atom_site_fract_z
 _atom_site_occupancy
  Li  Li0  1  0.98977700  0.01022300  0.75000000  1
  Li  Li1  1  0.00000000  0.50000000  0.00000000  1
  Li  Li2  1  0.01022300  0.98977700  0.25000000  1
  Li  Li3  1  0.50000000  0.00000000  0.50000000  1
  Fe  Fe0  1  0.50000000  0.00000000  0.00000000  1
  Fe  Fe1  1  0.00000000  0.00000000  0.00000000  1
  Fe  Fe2  1  0.00000000  0.00000000  0.50000000  1
  Fe  Fe3  1  0.00000000  0.50000000  0.50000000  1
  P  P0  1  0.61873400  0.62942800  0.81596000  1
  P  P1  1  0.62942800  0.61873400  0.31596000  1
  P  P2  1  0.38126600  0.37057200  0.18404000  1
  P  P3  1  0.37057200  0.38126600  0.68404000  1
  O  O0  1  0.31032800  0.31763900  0.83658200  1
  O  O1  1  0.68980100  0.71191800  0.89631500  1
  O  O2  1  0.16270500  0.09202300  0.04176200  1
  O  O3  1  0.30901800  0.79116100  0.85260500  1
  O  O4  1  0.80248800  0.31676400  0.85331700  1
  O  O5  1  0.83729500  0.90797700  0.95823800  1
  O  O6  1  0.68967200  0.68236100  0.16341800  1
  O  O7  1  0.31019900  0.28808200  0.10368500  1
  O  O8  1  0.79116100  0.30901800  0.35260500  1
  O  O9  1  0.31676400  0.80248800  0.35331700  1
  O  O10  1  0.69098200  0.20883900  0.14739500  1
  O  O11  1  0.19751200  0.68323600  0.14668300  1
  O  O12  1  0.31763900  0.31032800  0.33658200  1
  O  O13  1  0.71191800  0.68980100  0.39631500  1
  O  O14  1  0.09202300  0.16270500  0.54176200  1
  O  O15  1  0.20883900  0.69098200  0.64739500  1
  O  O16  1  0.68323600  0.19751200  0.64668300  1
  O  O17  1  0.90797700  0.83729500  0.45823800  1
  O  O18  1  0.28808200  0.31019900  0.60368500  1
  O  O19  1  0.68236100  0.68967200  0.66341800  1
loop_
_geom_bond_atom_site_label_1
_geom_bond_atom_site_label_2
_geom_bond_distance
_geom_bond_site_symmetry_2
Li0 O16 2.055470 1_555
Li0 O4 2.055470 1_555
Li0 O3 2.059284 1_645
Li0 O15 2.059284 1_645
Li0 O5 2.254735 1_545
Li0 O14 2.254735 1_655
Li1 O7 2.030627 1_555
Li1 O1 2.030627 1_454
Li1 O6 2.099872 1_455
Li1 O0 2.099872 1_554
Li1 O5 2.151870 1_454
Li1 O2 2.151870 1_555
Li2 O9 2.055470 1_555
Li2 O11 2.055470 1_555
Li2 O10 2.059284 1_465
Li2 O8 2.059284 1_465
Li2 O17 2.254735 1_455
Li2 O2 2.254735 1_565
Li3 O18 2.030627 1_555
Li3 O13 2.030627 1_545
Li3 O19 2.099872 1_545
Li3 O12 2.099872 1_555
Li3 O17 2.151870 1_545
Li3 O14 2.151870 1_555
Fe0 O5 1.905341 1_544
Fe0 O2 1.905341 1_555
Fe0 O7 1.952042 1_555
Fe0 O1 1.952042 1_544
Fe0 O6 2.124364 1_545
Fe0 O0 2.124364 1_554
Fe1 O2 1.914449 1_555
Fe1 O5 1.914449 1_444
Fe1 O11 2.012934 1_545
Fe1 O4 2.012934 1_454
Fe1 O3 2.014865 1_544
Fe1 O10 2.014865 1_455
Fe2 O14 1.914449 1_555
Fe2 O17 1.914449 1_445
Fe2 O9 2.012934 1_545
Fe2 O16 2.012934 1_455
Fe2 O15 2.014865 1_545
Fe2 O8 2.014865 1_455
Fe3 O17 1.905341 1_455
Fe3 O14 1.905341 1_555
Fe3 O18 1.952042 1_555
Fe3 O13 1.952042 1_455
Fe3 O19 2.124364 1_455
Fe3 O12 2.124364 1_555
O0 P3 1.535547 1_555
O1 P0 1.559455 1_555
O3 P0 1.553011 1_555
O4 P0 1.544966 1_555
O6 P1 1.535547 1_555
O7 P2 1.559455 1_555
O8 P1 1.553011 1_555
O9 P1 1.544966 1_555
O10 P2 1.553011 1_555
O11 P2 1.544966 1_555
O12 P2 1.535547 1_555
O13 P1 1.559455 1_555
O15 P3 1.553011 1_555
O16 P3 1.544966 1_555
O18 P3 1.559455 1_555
O19 P0 1.535547 1_555
