# generated using pymatgen
data_LiV24O58
_symmetry_space_group_name_H-M   'P 1'
_cell_length_a   7.34765400
_cell_length_b   10.94079525
_cell_length_c   14.33816699
_cell_angle_alpha   77.44164619
_cell_angle_beta   82.65900855
_cell_angle_gamma   70.39430717
_symmetry_Int_Tables_number   1
_chemical_formula_structural   LiV24O58
_chemical_formula_sum   'Li1 V24 O58'
_cell_volume   1057.94563884
_cell_formula_units_Z   1
loop_
 _symmetry_equiv_pos_site_id
 _symmetry_equiv_pos_as_xyz
  1  'x, y, z'
loop_
 _atom_site_type_symbol
 _atom_site_label
 _atom_site_symmetry_multiplicity
 _atom_site_fract_x
 _atom_site_fract_y
 _atom_site_fract_z
 _atom_site_occupancy
  Li  Li0  1  0.14080800  0.46166300  0.51355200  1
  V  V0  1  0.85975300  0.86723200  0.82641500  1
  V  V1  1  0.35830100  0.86959200  0.82683300  1
  V  V2  1  0.48412900  0.09467600  0.87758600  1
  V  V3  1  0.98242100  0.09438700  0.87811700  1
  V  V4  1  0.03166900  0.54404900  0.78537700  1
  V  V5  1  0.53248800  0.54315100  0.78418100  1
  V  V6  1  0.39759000  0.34741800  0.70662900  1
  V  V7  1  0.90176800  0.34742600  0.70669100  1
  V  V8  1  0.95445600  0.78919300  0.60464900  1
  V  V9  1  0.45112400  0.79309900  0.60744300  1
  V  V10  1  0.07544500  0.02838300  0.64357900  1
  V  V11  1  0.57491000  0.02798000  0.64285300  1
  V  V12  1  0.92427800  0.97122200  0.35686900  1
  V  V13  1  0.42801600  0.96722000  0.35495500  1
  V  V14  1  0.54702700  0.20380200  0.39597600  1
  V  V15  1  0.04715000  0.20912100  0.39541500  1
  V  V16  1  0.09965200  0.65414000  0.29101000  1
  V  V17  1  0.60158600  0.65036100  0.29451500  1
  V  V18  1  0.46821300  0.45636700  0.21500000  1
  V  V19  1  0.96819300  0.45521900  0.21551900  1
  V  V20  1  0.01676000  0.90640000  0.12096400  1
  V  V21  1  0.51566200  0.90806600  0.12039000  1
  V  V22  1  0.64084200  0.13257300  0.17258200  1
  V  V23  1  0.14028000  0.13328000  0.17245800  1
  O  O0  1  0.87611300  0.78132700  0.93219600  1
  O  O1  1  0.37615800  0.78121800  0.93183900  1
  O  O2  1  0.99999500  0.99983600  0.99993500  1
  O  O3  1  0.50030500  0.99982300  0.99952100  1
  O  O4  1  0.01686700  0.51689200  0.89903200  1
  O  O5  1  0.51766600  0.51587600  0.89787500  1
  O  O6  1  0.40478700  0.24813000  0.88989200  1
  O  O7  1  0.90219900  0.24795200  0.89004300  1
  O  O8  1  0.09406700  0.91211300  0.80001400  1
  O  O9  1  0.59367300  0.91257800  0.79939600  1
  O  O10  1  0.76086700  0.04914400  0.85855800  1
  O  O11  1  0.26028500  0.04996900  0.85867100  1
  O  O12  1  0.94710400  0.72910300  0.75344700  1
  O  O13  1  0.44697900  0.73037400  0.75144700  1
  O  O14  1  0.80111900  0.52146500  0.75272400  1
  O  O15  1  0.30118200  0.52142400  0.75275900  1
  O  O16  1  0.84161900  0.98385100  0.66570100  1
  O  O17  1  0.33795200  0.99034600  0.66845100  1
  O  O18  1  0.12954000  0.36882200  0.74467900  1
  O  O19  1  0.62926600  0.37313600  0.73662900  1
  O  O20  1  0.48664500  0.16858700  0.72507100  1
  O  O21  1  0.98244300  0.16839400  0.72509800  1
  O  O22  1  0.18255800  0.84655400  0.61125900  1
  O  O23  1  0.66503700  0.84716900  0.61120000  1
  O  O24  1  0.03514900  0.63285000  0.59409700  1
  O  O25  1  0.53076200  0.64105300  0.59386600  1
  O  O26  1  0.38630000  0.39010300  0.59140900  1
  O  O27  1  0.92814900  0.39033200  0.59163400  1
  O  O28  1  0.94467800  0.87688400  0.46783700  1
  O  O29  1  0.44502500  0.87670000  0.46624300  1
  O  O30  1  0.05649100  0.12168800  0.53251400  1
  O  O31  1  0.55513400  0.12378900  0.53081200  1
  O  O32  1  0.09350200  0.60966900  0.40636200  1
  O  O33  1  0.59299000  0.60972600  0.40847800  1
  O  O34  1  0.45623700  0.35788600  0.40689600  1
  O  O35  1  0.98069600  0.36380900  0.40693200  1
  O  O36  1  0.81737400  0.15324200  0.38752600  1
  O  O37  1  0.33599700  0.14998400  0.38772000  1
  O  O38  1  0.51432000  0.83448300  0.27715900  1
  O  O39  1  0.01501700  0.83200300  0.27400500  1
  O  O40  1  0.87000400  0.62933200  0.25844600  1
  O  O41  1  0.37116700  0.62959400  0.25854000  1
  O  O42  1  0.65372300  0.01093900  0.33368000  1
  O  O43  1  0.16869700  0.01212200  0.33461100  1
  O  O44  1  0.19929900  0.47898700  0.24612800  1
  O  O45  1  0.69892600  0.47654300  0.24936100  1
  O  O46  1  0.55320500  0.26962000  0.24817300  1
  O  O47  1  0.05320100  0.27003800  0.24637200  1
  O  O48  1  0.23891000  0.95124000  0.14164400  1
  O  O49  1  0.73904400  0.95140800  0.14150800  1
  O  O50  1  0.90615600  0.08704500  0.20164100  1
  O  O51  1  0.40618200  0.08917200  0.19786100  1
  O  O52  1  0.09635300  0.75207900  0.11024600  1
  O  O53  1  0.59548800  0.75352700  0.11079800  1
  O  O54  1  0.98098800  0.48343800  0.10180200  1
  O  O55  1  0.48433600  0.48370600  0.10131500  1
  O  O56  1  0.62606400  0.21967900  0.06718600  1
  O  O57  1  0.12119000  0.21952600  0.06680000  1
loop_
_geom_bond_atom_site_label_1
_geom_bond_atom_site_label_2
_geom_bond_distance
_geom_bond_site_symmetry_2
Li0 O32 1.944628 1_555
Li0 O27 2.072523 1_455
Li0 O26 2.073544 1_555
Li0 O24 2.275955 1_555
O0 V0 1.596579 1_555
O1 V1 1.597243 1_555
O2 V20 1.808386 1_656
O2 V3 1.822037 1_565
O3 V21 1.800372 1_556
O3 V2 1.824568 1_565
O4 V4 1.587941 1_555
O5 V5 1.588471 1_555
O6 V2 1.623400 1_555
O7 V3 1.622982 1_555
O8 V1 1.908027 1_555
O8 V0 1.915326 1_455
O8 V10 2.321370 1_565
O8 V3 2.354249 1_465
O9 V1 1.912693 1_555
O9 V0 1.917691 1_555
O9 V11 2.319693 1_565
O9 V2 2.353407 1_565
O10 V3 1.921335 1_555
O10 V2 1.922179 1_555
O10 V0 2.011050 1_545
O11 V2 1.931189 1_555
O11 V3 1.931281 1_455
O11 V1 1.993888 1_545
O12 V4 1.876220 1_655
O12 V0 1.911917 1_555
O12 V8 2.090775 1_555
O13 V5 1.898540 1_555
O13 V1 1.944953 1_555
O13 V9 2.029003 1_555
O14 V5 1.913217 1_555
O14 V4 1.919315 1_655
O14 V7 2.021146 1_555
O15 V5 1.913465 1_555
O15 V4 1.919960 1_555
O15 V6 2.021489 1_555
O16 V11 1.908171 1_565
O16 V10 1.909200 1_665
O16 V8 2.330159 1_555
O16 V0 2.375184 1_555
O17 V11 1.894122 1_565
O17 V10 1.895584 1_565
O17 V9 2.354682 1_555
O17 V1 2.360999 1_555
O18 V6 1.924321 1_555
O18 V7 1.924496 1_455
O18 V4 1.996764 1_555
O19 V6 1.929541 1_555
O19 V7 1.930621 1_555
O19 V5 1.992598 1_555
O20 V6 1.812802 1_555
O20 V11 2.024982 1_555
O20 V2 2.160322 1_555
O21 V7 1.814860 1_555
O21 V10 2.012874 1_655
O21 V3 2.167201 1_555
O22 V9 1.857658 1_555
O22 V8 1.996042 1_455
O22 V10 2.012132 1_565
O23 V9 1.866215 1_555
O23 V11 1.998083 1_565
O23 V8 2.000757 1_555
O24 V8 1.645998 1_455
O25 V9 1.614317 1_555
O26 V6 1.621031 1_555
O27 V7 1.619272 1_555
O28 V12 1.691826 1_555
O28 V8 1.986194 1_555
O29 V13 1.680258 1_555
O29 V9 2.031702 1_555
O30 V10 1.688720 1_555
O30 V15 1.989126 1_555
O31 V11 1.710486 1_555
O31 V14 1.940616 1_555
O32 V16 1.618637 1_555
O33 V17 1.596315 1_555
O34 V14 1.626299 1_555
O35 V15 1.635939 1_655
O36 V14 1.869962 1_555
O36 V15 2.002128 1_655
O36 V12 2.004679 1_545
O37 V14 1.858741 1_555
O37 V15 1.996204 1_555
O37 V13 2.023913 1_545
O38 V17 1.867350 1_555
O38 V13 1.913387 1_555
O38 V21 2.216633 1_555
O39 V16 1.803676 1_555
O39 V12 2.019707 1_455
O39 V20 2.168149 1_555
O40 V17 1.922683 1_555
O40 V16 1.924239 1_655
O40 V19 2.000552 1_555
O41 V17 1.927785 1_555
O41 V16 1.930378 1_555
O41 V18 1.995987 1_555
O42 V13 1.847107 1_545
O42 V12 1.943621 1_545
O42 V14 2.322794 1_555
O42 V22 2.397901 1_555
O43 V13 1.846203 1_545
O43 V12 1.964206 1_445
O43 V15 2.351486 1_555
O43 V23 2.409217 1_555
O44 V18 1.912875 1_555
O44 V19 1.918371 1_455
O44 V16 2.024040 1_555
O45 V18 1.917550 1_555
O45 V19 1.923122 1_555
O45 V17 2.012833 1_555
O46 V18 1.894138 1_555
O46 V22 1.928203 1_555
O46 V14 2.084571 1_555
O47 V19 1.876759 1_455
O47 V23 1.909215 1_555
O47 V15 2.095040 1_555
O48 V21 1.926307 1_555
O48 V20 1.928022 1_555
O48 V23 2.004826 1_565
O49 V21 1.929322 1_555
O49 V20 1.930877 1_655
O49 V22 1.997480 1_565
O50 V22 1.920332 1_555
O50 V23 1.923084 1_655
O50 V12 2.305037 1_545
O50 V20 2.362367 1_645
O51 V22 1.909084 1_555
O51 V23 1.911909 1_555
O51 V21 2.337990 1_545
O51 V13 2.349730 1_545
O52 V20 1.625895 1_555
O53 V21 1.623780 1_555
O54 V19 1.588730 1_555
O55 V18 1.588371 1_555
O56 V22 1.596841 1_555
O57 V23 1.596541 1_555
