# generated using pymatgen
data_Li2CuSiO4
_symmetry_space_group_name_H-M   'P 1'
_cell_length_a   5.01297000
_cell_length_b   6.33903900
_cell_length_c   10.81931400
_cell_angle_alpha   90.00000000
_cell_angle_beta   90.00000000
_cell_angle_gamma   90.00000000
_symmetry_Int_Tables_number   1
_chemical_formula_structural   Li2CuSiO4
_chemical_formula_sum   'Li8 Cu4 Si4 O16'
_cell_volume   343.80980217
_cell_formula_units_Z   4
loop_
 _symmetry_equiv_pos_site_id
 _symmetry_equiv_pos_as_xyz
  1  'x, y, z'
loop_
 _atom_site_type_symbol
 _atom_site_label
 _atom_site_symmetry_multiplicity
 _atom_site_fract_x
 _atom_site_fract_y
 _atom_site_fract_z
 _atom_site_occupancy
  Li  Li0  1  0.80103700  0.86987600  0.07738200  1
  Li  Li1  1  0.19508000  0.11973000  0.16604800  1
  Li  Li2  1  0.69508000  0.61973000  0.33395200  1
  Li  Li3  1  0.30103700  0.36987600  0.42261800  1
  Li  Li4  1  0.69896300  0.86987600  0.57738200  1
  Li  Li5  1  0.30492000  0.11973000  0.66604800  1
  Li  Li6  1  0.80492000  0.61973000  0.83395200  1
  Li  Li7  1  0.19896300  0.36987600  0.92261800  1
  Cu  Cu0  1  0.20383800  0.61654900  0.16827400  1
  Cu  Cu1  1  0.70383800  0.11654900  0.33172600  1
  Cu  Cu2  1  0.29616200  0.61654900  0.66827400  1
  Cu  Cu3  1  0.79616200  0.11654900  0.83172600  1
  Si  Si0  1  0.69009100  0.36732400  0.08542900  1
  Si  Si1  1  0.19009100  0.86732400  0.41457100  1
  Si  Si2  1  0.80990900  0.36732400  0.58542900  1
  Si  Si3  1  0.30990900  0.86732400  0.91457100  1
  O  O0  1  0.20363900  0.86690900  0.05887000  1
  O  O1  1  0.36104300  0.36623900  0.08706700  1
  O  O2  1  0.79709600  0.58161800  0.15761900  1
  O  O3  1  0.79723200  0.15345700  0.15686800  1
  O  O4  1  0.29723200  0.65345700  0.34313200  1
  O  O5  1  0.29709600  0.08161800  0.34238100  1
  O  O6  1  0.86104300  0.86623900  0.41293300  1
  O  O7  1  0.70363900  0.36690900  0.44113000  1
  O  O8  1  0.29636100  0.86690900  0.55887000  1
  O  O9  1  0.13895700  0.36623900  0.58706700  1
  O  O10  1  0.70290400  0.58161800  0.65761900  1
  O  O11  1  0.70276800  0.15345700  0.65686800  1
  O  O12  1  0.20276800  0.65345700  0.84313200  1
  O  O13  1  0.20290400  0.08161800  0.84238100  1
  O  O14  1  0.63895700  0.86623900  0.91293300  1
  O  O15  1  0.79636100  0.36690900  0.94113000  1
loop_
_geom_bond_atom_site_label_1
_geom_bond_atom_site_label_2
_geom_bond_distance
_geom_bond_site_symmetry_2
Li0 O14 1.956102 1_554
Li0 O3 1.992841 1_565
Li0 O2 2.023104 1_555
Li0 O0 2.028233 1_655
Li1 O1 1.965754 1_555
Li1 O0 1.978625 1_545
Li1 O5 1.989877 1_555
Li1 O3 2.008284 1_455
Li2 O6 1.965754 1_555
Li2 O7 1.978625 1_555
Li2 O2 1.989877 1_555
Li2 O4 2.008284 1_555
Li3 O9 1.956102 1_555
Li3 O4 1.992841 1_555
Li3 O5 2.023104 1_555
Li3 O7 2.028233 1_555
Li4 O6 1.956102 1_555
Li4 O11 1.992841 1_565
Li4 O10 2.023104 1_555
Li4 O8 2.028233 1_555
Li5 O9 1.965754 1_555
Li5 O8 1.978625 1_545
Li5 O13 1.989877 1_555
Li5 O11 2.008284 1_555
Li6 O14 1.965754 1_555
Li6 O15 1.978625 1_555
Li6 O10 1.989877 1_555
Li6 O12 2.008284 1_655
Li7 O1 1.956102 1_556
Li7 O12 1.992841 1_555
Li7 O13 2.023104 1_555
Li7 O15 2.028233 1_455
Cu0 O4 1.962907 1_555
Cu0 O1 1.977545 1_555
Cu0 O0 1.979846 1_555
Cu0 O2 2.054211 1_455
Cu1 O3 1.962907 1_555
Cu1 O6 1.977545 1_545
Cu1 O7 1.979846 1_555
Cu1 O5 2.054211 1_555
Cu2 O12 1.962907 1_555
Cu2 O9 1.977545 1_555
Cu2 O8 1.979846 1_555
Cu2 O10 2.054211 1_555
Cu3 O11 1.962907 1_555
Cu3 O14 1.977545 1_545
Cu3 O15 1.979846 1_555
Cu3 O13 2.054211 1_655
O0 Si3 1.649607 1_554
O1 Si0 1.649617 1_555
O2 Si0 1.656222 1_555
O3 Si0 1.650403 1_555
O4 Si1 1.650403 1_555
O5 Si1 1.656222 1_545
O6 Si1 1.649617 1_655
O7 Si2 1.649607 1_555
O8 Si1 1.649607 1_555
O9 Si2 1.649617 1_455
O10 Si2 1.656222 1_555
O11 Si2 1.650403 1_555
O12 Si3 1.650403 1_555
O13 Si3 1.656222 1_545
O14 Si3 1.649617 1_555
O15 Si0 1.649607 1_556
