# generated using pymatgen
data_Li8VCo3(PO4)6
_symmetry_space_group_name_H-M   'P 1'
_cell_length_a   8.93200810
_cell_length_b   8.94123569
_cell_length_c   8.62753256
_cell_angle_alpha   58.74488681
_cell_angle_beta   58.84277996
_cell_angle_gamma   60.06137806
_symmetry_Int_Tables_number   1
_chemical_formula_structural   Li8VCo3(PO4)6
_chemical_formula_sum   'Li8 V1 Co3 P6 O24'
_cell_volume   478.35225764
_cell_formula_units_Z   1
loop_
 _symmetry_equiv_pos_site_id
 _symmetry_equiv_pos_as_xyz
  1  'x, y, z'
loop_
 _atom_site_type_symbol
 _atom_site_label
 _atom_site_symmetry_multiplicity
 _atom_site_fract_x
 _atom_site_fract_y
 _atom_site_fract_z
 _atom_site_occupancy
  Li  Li0  1  0.98262500  0.98293200  0.05232900  1
  Li  Li1  1  0.29281600  0.83561300  0.21716700  1
  Li  Li2  1  0.83634000  0.65540300  0.21730400  1
  Li  Li3  1  0.65470900  0.29344600  0.21627000  1
  Li  Li4  1  0.50850400  0.50771100  0.47602100  1
  Li  Li5  1  0.33181500  0.71601700  0.80307300  1
  Li  Li6  1  0.14778200  0.32885200  0.80417900  1
  Li  Li7  1  0.71615100  0.14964000  0.80249100  1
  V  V0  1  0.14625300  0.14555400  0.56289700  1
  Co  Co0  1  0.65257200  0.64949400  0.04760400  1
  Co  Co1  1  0.85205900  0.85231900  0.44351100  1
  Co  Co2  1  0.35397100  0.35454900  0.93726300  1
  P  P0  1  0.54505600  0.95398600  0.24695000  1
  P  P1  1  0.25375700  0.54537800  0.24747300  1
  P  P2  1  0.95324500  0.25326300  0.24772400  1
  P  P3  1  0.04789100  0.75779900  0.74503200  1
  P  P4  1  0.75766200  0.44935900  0.74418700  1
  P  P5  1  0.44893700  0.04881100  0.74570200  1
  O  O0  1  0.74151600  0.90774600  0.23842600  1
  O  O1  1  0.53127100  0.77515400  0.26950100  1
  O  O2  1  0.11194800  0.74113500  0.23937000  1
  O  O3  1  0.30484800  0.52466400  0.05883800  1
  O  O4  1  0.42408700  0.53193200  0.26946800  1
  O  O5  1  0.11246600  0.30296100  0.05875900  1
  O  O6  1  0.01085800  0.81706200  0.56621600  1
  O  O7  1  0.77494000  0.42410600  0.26872000  1
  O  O8  1  0.08674800  0.91206100  0.74927200  1
  O  O9  1  0.52465500  0.11256400  0.05829800  1
  O  O10  1  0.81938000  0.60447500  0.56386000  1
  O  O11  1  0.18070600  0.38455500  0.42533500  1
  O  O12  1  0.46266700  0.88317200  0.93555500  1
  O  O13  1  0.90648300  0.11195300  0.23945800  1
  O  O14  1  0.23214300  0.59554800  0.74199200  1
  O  O15  1  0.88257600  0.71971100  0.93614500  1
  O  O16  1  0.00833700  0.18000100  0.42580400  1
  O  O17  1  0.59525000  0.43145800  0.73997000  1
  O  O18  1  0.38566100  0.00956300  0.42490900  1
  O  O19  1  0.71914900  0.46326900  0.93427400  1
  O  O20  1  0.91208400  0.25168100  0.75053600  1
  O  O21  1  0.43127400  0.23362500  0.74043000  1
  O  O22  1  0.60449700  0.01213600  0.56605600  1
  O  O23  1  0.25133000  0.08636100  0.75057400  1
loop_
_geom_bond_atom_site_label_1
_geom_bond_atom_site_label_2
_geom_bond_distance
_geom_bond_site_symmetry_2
Li0 O13 2.100763 1_565
Li0 O0 2.101134 1_555
Li0 O2 2.104347 1_655
Li0 O20 2.577679 1_564
Li0 O23 2.577734 1_664
Li0 O8 2.591834 1_654
Li1 O12 2.035467 1_554
Li1 O2 2.057720 1_555
Li1 O1 2.150602 1_555
Li1 O4 2.247094 1_555
Li2 O15 2.034280 1_554
Li2 O0 2.049581 1_555
Li2 O7 2.168612 1_555
Li2 O1 2.256684 1_555
Li3 O19 2.036142 1_554
Li3 O13 2.053482 1_555
Li3 O4 2.157267 1_555
Li3 O7 2.242006 1_555
Li4 O4 2.148966 1_555
Li4 O1 2.150197 1_555
Li4 O7 2.151370 1_555
Li4 O17 2.436868 1_555
Li4 O21 2.437891 1_555
Li4 O14 2.459550 1_555
Li5 O3 1.948879 1_556
Li5 O14 2.064507 1_555
Li5 O8 2.111099 1_555
Li5 O17 2.538247 1_555
Li6 O5 1.950791 1_556
Li6 O21 2.081371 1_555
Li6 O23 2.089638 1_555
Li6 O14 2.566993 1_555
Li7 O9 1.951115 1_556
Li7 O17 2.069489 1_555
Li7 O20 2.110389 1_555
Li7 O21 2.531905 1_555
Co0 O15 2.038652 1_554
Co0 O19 2.044888 1_554
Co0 O12 2.059259 1_554
Co0 O7 2.205621 1_555
Co0 O4 2.223709 1_555
Co0 O1 2.229782 1_555
Co1 O6 1.998278 1_655
Co1 O10 2.004603 1_555
Co1 O22 2.010959 1_565
Co1 O13 2.173620 1_565
Co1 O0 2.181888 1_555
Co1 O2 2.182131 1_655
Co2 O9 2.026425 1_556
Co2 O5 2.028882 1_556
Co2 O3 2.029639 1_556
Co2 O14 2.110701 1_555
Co2 O21 2.115755 1_555
Co2 O17 2.117403 1_555
O0 P0 1.558674 1_555
O1 P0 1.568008 1_555
O2 P1 1.557114 1_555
O3 P1 1.533321 1_555
O4 P1 1.567670 1_555
O5 P2 1.535490 1_455
O6 P3 1.508328 1_555
O7 P2 1.569388 1_555
O8 P3 1.602362 1_555
O8 V0 1.991551 1_565
O9 P0 1.531974 1_545
O10 P4 1.511451 1_555
O11 P1 1.568082 1_555
O11 V0 1.927829 1_555
O12 P5 1.549400 1_565
O13 P2 1.557888 1_555
O14 P3 1.557397 1_555
O15 P3 1.553987 1_655
O16 P2 1.564596 1_455
O16 V0 1.939657 1_555
O17 P4 1.556852 1_555
O18 P0 1.566789 1_545
O18 V0 1.934174 1_555
O19 P4 1.551943 1_555
O20 P4 1.604313 1_555
O20 V0 2.001293 1_655
O21 P5 1.557823 1_555
O22 P5 1.511466 1_555
O23 P5 1.605051 1_555
O23 V0 1.992539 1_555
