# generated using pymatgen
data_Na3ZnPCO7
_symmetry_space_group_name_H-M   'P 1'
_cell_length_a   6.71962300
_cell_length_b   5.18203100
_cell_length_c   8.97027908
_cell_angle_alpha   89.97185121
_cell_angle_beta   90.00000000
_cell_angle_gamma   90.00000000
_symmetry_Int_Tables_number   1
_chemical_formula_structural   Na3ZnPCO7
_chemical_formula_sum   'Na6 Zn2 P2 C2 O14'
_cell_volume   312.35669373
_cell_formula_units_Z   2
loop_
 _symmetry_equiv_pos_site_id
 _symmetry_equiv_pos_as_xyz
  1  'x, y, z'
loop_
 _atom_site_type_symbol
 _atom_site_label
 _atom_site_symmetry_multiplicity
 _atom_site_fract_x
 _atom_site_fract_y
 _atom_site_fract_z
 _atom_site_occupancy
  Na  Na0  1  0.75000000  0.76042300  0.08276400  1
  Na  Na1  1  0.99866500  0.24850100  0.26036900  1
  Na  Na2  1  0.50133500  0.24850100  0.26036900  1
  Na  Na3  1  0.49866500  0.75149900  0.73963100  1
  Na  Na4  1  0.00133500  0.75149900  0.73963100  1
  Na  Na5  1  0.25000000  0.23957700  0.91723600  1
  Zn  Zn0  1  0.25000000  0.78229000  0.36244600  1
  Zn  Zn1  1  0.75000000  0.21771000  0.63755400  1
  P  P0  1  0.75000000  0.70430700  0.41461800  1
  P  P1  1  0.25000000  0.29569300  0.58538200  1
  C  C0  1  0.25000000  0.73584100  0.06328000  1
  C  C1  1  0.75000000  0.26415900  0.93672000  1
  O  O0  1  0.75000000  0.28571900  0.08114500  1
  O  O1  1  0.25000000  0.96244200  0.12550400  1
  O  O2  1  0.25000000  0.53140900  0.14751500  1
  O  O3  1  0.93539100  0.78129400  0.32016400  1
  O  O4  1  0.56460900  0.78129400  0.32016400  1
  O  O5  1  0.75000000  0.40418000  0.43784600  1
  O  O6  1  0.25000000  0.16559600  0.42972500  1
  O  O7  1  0.75000000  0.83440400  0.57027500  1
  O  O8  1  0.25000000  0.59582000  0.56215400  1
  O  O9  1  0.43539100  0.21870600  0.67983600  1
  O  O10  1  0.06460900  0.21870600  0.67983600  1
  O  O11  1  0.75000000  0.46859100  0.85248500  1
  O  O12  1  0.75000000  0.03755800  0.87449600  1
  O  O13  1  0.25000000  0.71428100  0.91885500  1
loop_
_geom_bond_atom_site_label_1
_geom_bond_atom_site_label_2
_geom_bond_distance
_geom_bond_site_symmetry_2
Na0 O12 2.355857 1_564
Na0 O0 2.459981 1_555
Na0 O3 2.469574 1_555
Na0 O4 2.469574 1_555
Na0 O11 2.560673 1_554
Na0 O0 2.722132 1_565
Na1 O6 2.311733 1_655
Na1 O0 2.326710 1_555
Na1 O5 2.445123 1_555
Na1 O2 2.454573 1_655
Na1 O3 2.515718 1_545
Na1 O1 2.552457 1_645
Na1 O3 2.844781 1_555
Na2 O6 2.311733 1_555
Na2 O0 2.326710 1_555
Na2 O5 2.445123 1_555
Na2 O2 2.454573 1_555
Na2 O4 2.515718 1_545
Na2 O1 2.552457 1_545
Na2 O4 2.844781 1_555
Na3 O7 2.311733 1_555
Na3 O13 2.326710 1_555
Na3 O8 2.445123 1_555
Na3 O11 2.454573 1_555
Na3 O9 2.515718 1_565
Na3 O12 2.552457 1_565
Na3 O9 2.844781 1_555
Na4 O7 2.311733 1_455
Na4 O13 2.326710 1_555
Na4 O8 2.445123 1_555
Na4 O11 2.454573 1_455
Na4 O10 2.515718 1_565
Na4 O12 2.552457 1_465
Na4 O10 2.844781 1_555
Na5 O1 2.355857 1_546
Na5 O13 2.459981 1_555
Na5 O9 2.469574 1_555
Na5 O10 2.469574 1_555
Na5 O2 2.560673 1_556
Na5 O13 2.722132 1_545
C0 O13 1.300396 1_554
C0 O1 1.300410 1_555
C0 O2 1.300936 1_555
C1 O0 1.300396 1_556
C1 O12 1.300410 1_555
C1 O11 1.300936 1_555
O1 Zn0 2.321002 1_555
O2 Zn0 2.325898 1_555
O3 P0 1.558404 1_555
O3 Zn0 2.147814 1_655
O4 P0 1.558404 1_555
O4 Zn0 2.147814 1_555
O5 P0 1.569061 1_555
O5 Zn1 2.035010 1_555
O6 P1 1.550820 1_555
O6 Zn0 2.076248 1_545
O7 P0 1.550820 1_555
O7 Zn1 2.076248 1_565
O8 P1 1.569061 1_555
O8 Zn0 2.035010 1_555
O9 P1 1.558404 1_555
O9 Zn1 2.147814 1_555
O10 P1 1.558404 1_555
O10 Zn1 2.147814 1_455
O11 Zn1 2.325898 1_555
O12 Zn1 2.321002 1_555
