# generated using pymatgen
data_Sr4Br6O
_symmetry_space_group_name_H-M   'P 1'
_cell_length_a   9.74649700
_cell_length_b   9.74649700
_cell_length_c   7.35794300
_cell_angle_alpha   90.00000000
_cell_angle_beta   90.00000000
_cell_angle_gamma   90.00000000
_symmetry_Int_Tables_number   1
_chemical_formula_structural   Sr4Br6O
_chemical_formula_sum   'Sr8 Br12 O2'
_cell_volume   698.96193668
_cell_formula_units_Z   2
loop_
 _symmetry_equiv_pos_site_id
 _symmetry_equiv_pos_as_xyz
  1  'x, y, z'
loop_
 _atom_site_type_symbol
 _atom_site_label
 _atom_site_symmetry_multiplicity
 _atom_site_fract_x
 _atom_site_fract_y
 _atom_site_fract_z
 _atom_site_occupancy
  Sr  Sr0  1  0.00000000  0.23154200  0.34333500  1
  Sr  Sr1  1  0.73154200  0.50000000  0.84333500  1
  Sr  Sr2  1  0.26845800  0.50000000  0.84333500  1
  Sr  Sr3  1  0.00000000  0.76845800  0.34333500  1
  Sr  Sr4  1  0.50000000  0.73154200  0.15666500  1
  Sr  Sr5  1  0.23154200  0.00000000  0.65666500  1
  Sr  Sr6  1  0.76845800  0.00000000  0.65666500  1
  Sr  Sr7  1  0.50000000  0.26845800  0.15666500  1
  Br  Br0  1  0.70332900  0.29667100  0.50000000  1
  Br  Br1  1  0.29667100  0.29667100  0.50000000  1
  Br  Br2  1  0.00000000  0.50000000  0.61145600  1
  Br  Br3  1  0.00000000  0.50000000  0.11145600  1
  Br  Br4  1  0.29667100  0.70332900  0.50000000  1
  Br  Br5  1  0.70332900  0.70332900  0.50000000  1
  Br  Br6  1  0.79667100  0.79667100  0.00000000  1
  Br  Br7  1  0.20332900  0.79667100  0.00000000  1
  Br  Br8  1  0.50000000  0.00000000  0.88854400  1
  Br  Br9  1  0.50000000  0.00000000  0.38854400  1
  Br  Br10  1  0.79667100  0.20332900  0.00000000  1
  Br  Br11  1  0.20332900  0.20332900  0.00000000  1
  O  O0  1  0.50000000  0.50000000  0.00000000  1
  O  O1  1  0.00000000  0.00000000  0.50000000  1
loop_
_geom_bond_atom_site_label_1
_geom_bond_atom_site_label_2
_geom_bond_distance
_geom_bond_site_symmetry_2
Br0 Sr6 3.176874 1_555
Br0 Sr0 3.176874 1_655
Br0 Sr7 3.222548 1_555
Br0 Sr1 3.222548 1_555
Br1 Sr5 3.176874 1_555
Br1 Sr0 3.176874 1_555
Br1 Sr2 3.222548 1_555
Br1 Sr7 3.222548 1_555
Br2 Sr2 3.123645 1_555
Br2 Sr1 3.123645 1_455
Br2 Sr3 3.276922 1_555
Br2 Sr0 3.276922 1_555
Br3 Sr0 3.123645 1_555
Br3 Sr3 3.123645 1_555
Br3 Sr2 3.276922 1_554
Br3 Sr1 3.276922 1_454
Br4 Sr3 3.176874 1_555
Br4 Sr5 3.176874 1_565
Br4 Sr2 3.222548 1_555
Br4 Sr4 3.222548 1_555
Br5 Sr6 3.176874 1_565
Br5 Sr3 3.176874 1_655
Br5 Sr1 3.222548 1_555
Br5 Sr4 3.222548 1_555
Br6 Sr4 3.176874 1_555
Br6 Sr1 3.176874 1_554
Br6 Sr3 3.222548 1_655
Br6 Sr6 3.222548 1_564
Br7 Sr2 3.176874 1_554
Br7 Sr4 3.176874 1_555
Br7 Sr3 3.222548 1_555
Br7 Sr5 3.222548 1_564
Br8 Sr6 3.123645 1_555
Br8 Sr5 3.123645 1_555
Br8 Sr7 3.276922 1_556
Br8 Sr4 3.276922 1_546
Br9 Sr7 3.123645 1_555
Br9 Sr4 3.123645 1_545
Br9 Sr5 3.276922 1_555
Br9 Sr6 3.276922 1_555
Br10 Sr7 3.176874 1_555
Br10 Sr1 3.176874 1_554
Br10 Sr6 3.222548 1_554
Br10 Sr0 3.222548 1_655
Br11 Sr7 3.176874 1_555
Br11 Sr2 3.176874 1_554
Br11 Sr0 3.222548 1_555
Br11 Sr5 3.222548 1_554
O0 Sr1 2.534086 1_554
O0 Sr4 2.534086 1_555
O0 Sr2 2.534086 1_554
O0 Sr7 2.534086 1_555
O1 Sr6 2.534086 1_455
O1 Sr5 2.534086 1_555
O1 Sr0 2.534086 1_555
O1 Sr3 2.534086 1_545
