# generated using pymatgen
data_Li2Fe3CoO8
_symmetry_space_group_name_H-M   'P 1'
_cell_length_a   5.90342473
_cell_length_b   5.90342473
_cell_length_c   9.37716800
_cell_angle_alpha   90.00000000
_cell_angle_beta   90.00000000
_cell_angle_gamma   120.00000822
_symmetry_Int_Tables_number   1
_chemical_formula_structural   Li2Fe3CoO8
_chemical_formula_sum   'Li4 Fe6 Co2 O16'
_cell_volume   283.01558618
_cell_formula_units_Z   2
loop_
 _symmetry_equiv_pos_site_id
 _symmetry_equiv_pos_as_xyz
  1  'x, y, z'
loop_
 _atom_site_type_symbol
 _atom_site_label
 _atom_site_symmetry_multiplicity
 _atom_site_fract_x
 _atom_site_fract_y
 _atom_site_fract_z
 _atom_site_occupancy
  Li  Li0  1  0.33333300  0.66666700  0.89613100  1
  Li  Li1  1  0.00000000  0.00000000  0.99390000  1
  Li  Li2  1  0.00000000  0.00000000  0.49390000  1
  Li  Li3  1  0.66666700  0.33333300  0.39613100  1
  Fe  Fe0  1  0.17022500  0.82977500  0.21158700  1
  Fe  Fe1  1  0.17022500  0.34045000  0.21158700  1
  Fe  Fe2  1  0.65955000  0.82977500  0.21158700  1
  Fe  Fe3  1  0.34045000  0.17022500  0.71158700  1
  Fe  Fe4  1  0.82977500  0.65955000  0.71158700  1
  Fe  Fe5  1  0.82977500  0.17022500  0.71158700  1
  Co  Co0  1  0.33333300  0.66666700  0.48296100  1
  Co  Co1  1  0.66666700  0.33333300  0.98296100  1
  O  O0  1  0.17107400  0.82892600  0.59731600  1
  O  O1  1  0.04524700  0.52262300  0.34895200  1
  O  O2  1  0.33333300  0.66666700  0.10276400  1
  O  O3  1  0.00000000  0.00000000  0.30431700  1
  O  O4  1  0.00000000  0.00000000  0.80431700  1
  O  O5  1  0.17107400  0.34214800  0.59731600  1
  O  O6  1  0.47737700  0.95475300  0.34895200  1
  O  O7  1  0.47737700  0.52262300  0.34895200  1
  O  O8  1  0.34214800  0.17107400  0.09731600  1
  O  O9  1  0.65785200  0.82892600  0.59731600  1
  O  O10  1  0.52262300  0.47737700  0.84895200  1
  O  O11  1  0.52262300  0.04524700  0.84895200  1
  O  O12  1  0.66666700  0.33333300  0.60276400  1
  O  O13  1  0.82892600  0.65785200  0.09731600  1
  O  O14  1  0.95475300  0.47737700  0.84895200  1
  O  O15  1  0.82892600  0.17107400  0.09731600  1
loop_
_geom_bond_atom_site_label_1
_geom_bond_atom_site_label_2
_geom_bond_distance
_geom_bond_site_symmetry_2
Li0 O2 1.937632 1_556
Li0 O11 1.985414 1_565
Li0 O14 1.985414 1_455
Li0 O10 1.985414 1_555
Li1 O4 1.777752 1_555
Li1 O13 2.000061 1_446
Li1 O8 2.000061 1_556
Li1 O15 2.000061 1_456
Li2 O3 1.777752 1_555
Li2 O9 2.000061 1_445
Li2 O5 2.000061 1_555
Li2 O0 2.000061 1_545
Li3 O12 1.937632 1_555
Li3 O1 1.985414 1_655
Li3 O6 1.985414 1_545
Li3 O7 1.985414 1_555
Fe0 O3 1.945673 1_565
Fe0 O2 1.955205 1_555
Fe0 O6 2.038037 1_555
Fe0 O1 2.038037 1_555
Fe0 O8 2.047661 1_565
Fe0 O13 2.047661 1_455
Fe1 O3 1.945673 1_555
Fe1 O2 1.955209 1_555
Fe1 O1 2.038033 1_555
Fe1 O7 2.038036 1_555
Fe1 O15 2.047661 1_455
Fe1 O8 2.047661 1_555
Fe2 O3 1.945673 1_665
Fe2 O2 1.955209 1_555
Fe2 O6 2.038033 1_555
Fe2 O7 2.038036 1_555
Fe2 O15 2.047661 1_565
Fe2 O13 2.047661 1_555
Fe3 O4 1.945673 1_555
Fe3 O12 1.955209 1_555
Fe3 O11 2.038033 1_555
Fe3 O10 2.038036 1_555
Fe3 O0 2.047661 1_545
Fe3 O5 2.047661 1_555
Fe4 O4 1.945673 1_665
Fe4 O12 1.955209 1_555
Fe4 O14 2.038033 1_555
Fe4 O10 2.038036 1_555
Fe4 O0 2.047661 1_655
Fe4 O9 2.047661 1_555
Fe5 O4 1.945673 1_655
Fe5 O12 1.955205 1_555
Fe5 O14 2.038037 1_555
Fe5 O11 2.038037 1_555
Fe5 O9 2.047661 1_545
Fe5 O5 2.047661 1_655
Co0 O6 1.936072 1_555
Co0 O1 1.936072 1_555
Co0 O7 1.936080 1_555
Co0 O0 1.975477 1_555
Co0 O5 1.975481 1_555
Co0 O9 1.975481 1_555
Co1 O11 1.936072 1_555
Co1 O14 1.936072 1_555
Co1 O10 1.936080 1_555
Co1 O15 1.975477 1_556
Co1 O8 1.975481 1_556
Co1 O13 1.975481 1_556
