# generated using pymatgen
data_Gd2HfO5
_symmetry_space_group_name_H-M   'P 1'
_cell_length_a   6.59035726
_cell_length_b   6.59035726
_cell_length_c   7.72926277
_cell_angle_alpha   69.44720130
_cell_angle_beta   69.44720130
_cell_angle_gamma   49.78088028
_symmetry_Int_Tables_number   1
_chemical_formula_structural   Gd2HfO5
_chemical_formula_sum   'Gd4 Hf2 O10'
_cell_volume   236.36087995
_cell_formula_units_Z   2
loop_
 _symmetry_equiv_pos_site_id
 _symmetry_equiv_pos_as_xyz
  1  'x, y, z'
loop_
 _atom_site_type_symbol
 _atom_site_label
 _atom_site_symmetry_multiplicity
 _atom_site_fract_x
 _atom_site_fract_y
 _atom_site_fract_z
 _atom_site_occupancy
  Gd  Gd0  1  0.36643200  0.35340900  0.75021000  1
  Gd  Gd1  1  0.35340900  0.36643200  0.25021000  1
  Gd  Gd2  1  0.64659100  0.63356800  0.74979000  1
  Gd  Gd3  1  0.63356800  0.64659100  0.24979000  1
  Hf  Hf0  1  0.00000000  0.00000000  0.50000000  1
  Hf  Hf1  1  0.00000000  0.00000000  0.00000000  1
  O  O0  1  0.24967200  0.60358300  0.95611900  1
  O  O1  1  0.60358300  0.24967200  0.45611900  1
  O  O2  1  0.97813800  0.67845400  0.64144600  1
  O  O3  1  0.32154600  0.02186200  0.85855400  1
  O  O4  1  0.67845400  0.97813800  0.14144600  1
  O  O5  1  0.02186200  0.32154600  0.35855400  1
  O  O6  1  0.39641700  0.75032800  0.54388100  1
  O  O7  1  0.82869700  0.17130300  0.75000000  1
  O  O8  1  0.75032800  0.39641700  0.04388100  1
  O  O9  1  0.17130300  0.82869700  0.25000000  1
loop_
_geom_bond_atom_site_label_1
_geom_bond_atom_site_label_2
_geom_bond_distance
_geom_bond_site_symmetry_2
Gd0 O3 2.222407 1_555
Gd0 O2 2.238474 1_455
Gd0 O0 2.277612 1_555
Gd0 O1 2.300846 1_555
Gd0 O7 2.449002 1_555
Gd0 O6 2.634795 1_555
Gd1 O5 2.222407 1_555
Gd1 O4 2.238474 1_545
Gd1 O1 2.277612 1_555
Gd1 O0 2.300846 1_554
Gd1 O9 2.449002 1_555
Gd1 O8 2.634795 1_555
Gd2 O2 2.222407 1_555
Gd2 O3 2.238474 1_565
Gd2 O6 2.277612 1_555
Gd2 O8 2.300846 1_556
Gd2 O7 2.449002 1_555
Gd2 O0 2.634795 1_555
Gd3 O4 2.222407 1_555
Gd3 O5 2.238474 1_655
Gd3 O8 2.277612 1_555
Gd3 O6 2.300846 1_555
Gd3 O9 2.449002 1_555
Gd3 O1 2.634795 1_555
Hf0 O6 2.080048 1_545
Hf0 O1 2.080048 1_455
Hf0 O5 2.088925 1_555
Hf0 O2 2.088925 1_445
Hf0 O7 2.153355 1_455
Hf0 O9 2.153355 1_545
Hf1 O8 2.080048 1_455
Hf1 O0 2.080048 1_544
Hf1 O4 2.088925 1_445
Hf1 O3 2.088925 1_554
Hf1 O9 2.153355 1_545
Hf1 O7 2.153355 1_454
