# generated using pymatgen
data_Li2MnF5
_symmetry_space_group_name_H-M   'P 1'
_cell_length_a   5.08715500
_cell_length_b   8.12176400
_cell_length_c   9.68591400
_cell_angle_alpha   90.00000000
_cell_angle_beta   90.00000000
_cell_angle_gamma   90.00000000
_symmetry_Int_Tables_number   1
_chemical_formula_structural   Li2MnF5
_chemical_formula_sum   'Li8 Mn4 F20'
_cell_volume   400.18973507
_cell_formula_units_Z   4
loop_
 _symmetry_equiv_pos_site_id
 _symmetry_equiv_pos_as_xyz
  1  'x, y, z'
loop_
 _atom_site_type_symbol
 _atom_site_label
 _atom_site_symmetry_multiplicity
 _atom_site_fract_x
 _atom_site_fract_y
 _atom_site_fract_z
 _atom_site_occupancy
  Li  Li0  1  0.52059400  0.34580000  0.06028900  1
  Li  Li1  1  0.46008200  0.38263400  0.74033600  1
  Li  Li2  1  0.53991800  0.88263400  0.75966400  1
  Li  Li3  1  0.47940600  0.84580000  0.43971100  1
  Li  Li4  1  0.02059400  0.15420000  0.93971100  1
  Li  Li5  1  0.96008200  0.11736600  0.25966400  1
  Li  Li6  1  0.03991800  0.61736600  0.24033600  1
  Li  Li7  1  0.97940600  0.65420000  0.56028900  1
  Mn  Mn0  1  0.46797100  0.95203800  0.12093500  1
  Mn  Mn1  1  0.53202900  0.45203800  0.37906500  1
  Mn  Mn2  1  0.96797100  0.54796200  0.87906500  1
  Mn  Mn3  1  0.03202900  0.04796200  0.62093500  1
  F  F0  1  0.73439500  0.93132100  0.56360000  1
  F  F1  1  0.74900700  0.66619000  0.38556800  1
  F  F2  1  0.70201400  0.66791000  0.79089100  1
  F  F3  1  0.63804100  0.39951100  0.55867200  1
  F  F4  1  0.61849900  0.98511300  0.29558000  1
  F  F5  1  0.38150100  0.48511300  0.20442000  1
  F  F6  1  0.36195900  0.89951100  0.94132800  1
  F  F7  1  0.29798600  0.16791000  0.70910900  1
  F  F8  1  0.25099300  0.16619000  0.11443200  1
  F  F9  1  0.26560500  0.43132100  0.93640000  1
  F  F10  1  0.23439500  0.56867900  0.43640000  1
  F  F11  1  0.24900700  0.83381000  0.61443200  1
  F  F12  1  0.20201400  0.83209000  0.20910900  1
  F  F13  1  0.13804100  0.10048900  0.44132800  1
  F  F14  1  0.11849900  0.51488700  0.70442000  1
  F  F15  1  0.88150100  0.01488700  0.79558000  1
  F  F16  1  0.86195900  0.60048900  0.05867200  1
  F  F17  1  0.79798600  0.33209000  0.29089100  1
  F  F18  1  0.75099300  0.33381000  0.88556800  1
  F  F19  1  0.76560500  0.06867900  0.06360000  1
loop_
_geom_bond_atom_site_label_1
_geom_bond_atom_site_label_2
_geom_bond_distance
_geom_bond_site_symmetry_2
F0 Mn3 1.870393 1_665
F0 Li3 1.898694 1_555
F0 Li2 2.177514 1_555
F1 Li7 2.060882 1_555
F1 Mn1 2.060942 1_555
F1 Li3 2.069780 1_555
F1 Li6 2.079950 1_655
F2 Mn2 1.873220 1_555
F2 Li2 1.952634 1_555
F3 Mn1 1.870629 1_555
F3 Li1 1.983556 1_555
F4 Mn0 1.876179 1_555
F4 Li3 1.931276 1_555
F4 Li5 2.072275 1_565
F5 Mn1 1.876179 1_555
F5 Li0 1.931276 1_555
F5 Li6 2.072275 1_555
F6 Mn0 1.870629 1_556
F6 Li2 1.983556 1_555
F7 Mn3 1.873220 1_555
F7 Li1 1.952634 1_555
F8 Li4 2.060882 1_554
F8 Mn0 2.060942 1_545
F8 Li0 2.069780 1_555
F8 Li5 2.079950 1_455
F9 Mn2 1.870393 1_455
F9 Li0 1.898694 1_556
F9 Li1 2.177514 1_555
F10 Mn1 1.870393 1_555
F10 Li7 1.898694 1_455
F10 Li6 2.177514 1_555
F11 Li3 2.060882 1_555
F11 Mn3 2.060942 1_565
F11 Li7 2.069780 1_455
F11 Li2 2.079950 1_555
F12 Mn0 1.873220 1_555
F12 Li6 1.952634 1_555
F13 Mn3 1.870629 1_555
F13 Li5 1.983556 1_455
F14 Mn2 1.876179 1_455
F14 Li7 1.931276 1_455
F14 Li1 2.072275 1_555
F15 Mn3 1.876179 1_655
F15 Li4 1.931276 1_655
F15 Li2 2.072275 1_545
F16 Mn2 1.870629 1_554
F16 Li6 1.983556 1_655
F17 Mn1 1.873220 1_555
F17 Li5 1.952634 1_555
F18 Li0 2.060882 1_556
F18 Mn2 2.060942 1_555
F18 Li4 2.069780 1_655
F18 Li1 2.079950 1_555
F19 Mn0 1.870393 1_545
F19 Li4 1.898694 1_654
F19 Li5 2.177514 1_555
