# generated using pymatgen
data_Li3Mn(BO3)2
_symmetry_space_group_name_H-M   'P 1'
_cell_length_a   6.16020200
_cell_length_b   9.26345300
_cell_length_c   9.27961843
_cell_angle_alpha   65.47911347
_cell_angle_beta   90.00000000
_cell_angle_gamma   90.00000000
_symmetry_Int_Tables_number   1
_chemical_formula_structural   Li3Mn(BO3)2
_chemical_formula_sum   'Li12 Mn4 B8 O24'
_cell_volume   481.77992408
_cell_formula_units_Z   4
loop_
 _symmetry_equiv_pos_site_id
 _symmetry_equiv_pos_as_xyz
  1  'x, y, z'
loop_
 _atom_site_type_symbol
 _atom_site_label
 _atom_site_symmetry_multiplicity
 _atom_site_fract_x
 _atom_site_fract_y
 _atom_site_fract_z
 _atom_site_occupancy
  Li  Li0  1  0.26217700  0.38775700  0.98732400  1
  Li  Li1  1  0.93521600  0.28910100  0.18506600  1
  Li  Li2  1  0.76217700  0.61224300  0.51267600  1
  Li  Li3  1  0.72502600  0.12078600  0.08034700  1
  Li  Li4  1  0.56478400  0.28910100  0.68506600  1
  Li  Li5  1  0.22502600  0.87921400  0.41965300  1
  Li  Li6  1  0.77497400  0.12078600  0.58034700  1
  Li  Li7  1  0.43521600  0.71089900  0.31493400  1
  Li  Li8  1  0.27497400  0.87921400  0.91965300  1
  Li  Li9  1  0.23782300  0.38775700  0.48732400  1
  Li  Li10  1  0.06478400  0.71089900  0.81493400  1
  Li  Li11  1  0.73782300  0.61224300  0.01267600  1
  Mn  Mn0  1  0.46685200  0.22702700  0.29044500  1
  Mn  Mn1  1  0.03314800  0.22702700  0.79044500  1
  Mn  Mn2  1  0.96685200  0.77297300  0.20955500  1
  Mn  Mn3  1  0.53314800  0.77297300  0.70955500  1
  B  B0  1  0.35313300  0.55316900  0.68108100  1
  B  B1  1  0.85313300  0.44683100  0.81891900  1
  B  B2  1  0.80099900  0.94476400  0.41441100  1
  B  B3  1  0.30099900  0.05523600  0.08558900  1
  B  B4  1  0.69900100  0.94476400  0.91441100  1
  B  B5  1  0.19900100  0.05523600  0.58558900  1
  B  B6  1  0.14686700  0.55316900  0.18108100  1
  B  B7  1  0.64686700  0.44683100  0.31891900  1
  O  O0  1  0.80809400  0.58829500  0.81969400  1
  O  O1  1  0.32954000  0.58705800  0.81373200  1
  O  O2  1  0.44589700  0.68472900  0.55309700  1
  O  O3  1  0.94589700  0.31527100  0.94690300  1
  O  O4  1  0.82954000  0.41294200  0.68626800  1
  O  O5  1  0.72558700  0.92453900  0.56361800  1
  O  O6  1  0.40463400  0.18227300  0.10121400  1
  O  O7  1  0.30809400  0.41170500  0.68030600  1
  O  O8  1  0.78129800  0.09266600  0.29456100  1
  O  O9  1  0.28129800  0.90733400  0.20543900  1
  O  O10  1  0.90463400  0.81772700  0.39878600  1
  O  O11  1  0.22558700  0.07546100  0.93638200  1
  O  O12  1  0.77441300  0.92453900  0.06361800  1
  O  O13  1  0.09536600  0.18227300  0.60121400  1
  O  O14  1  0.71870200  0.09266600  0.79456100  1
  O  O15  1  0.21870200  0.90733400  0.70543900  1
  O  O16  1  0.69190600  0.58829500  0.31969400  1
  O  O17  1  0.59536600  0.81772700  0.89878600  1
  O  O18  1  0.27441300  0.07546100  0.43638200  1
  O  O19  1  0.17046000  0.58705800  0.31373200  1
  O  O20  1  0.05410300  0.68472900  0.05309700  1
  O  O21  1  0.55410300  0.31527100  0.44690300  1
  O  O22  1  0.67046000  0.41294200  0.18626800  1
  O  O23  1  0.19190600  0.41170500  0.18030600  1
loop_
_geom_bond_atom_site_label_1
_geom_bond_atom_site_label_2
_geom_bond_distance
_geom_bond_site_symmetry_2
Li0 O1 1.925365 1_555
Li0 O23 1.942504 1_556
Li0 O6 1.959724 1_556
Li0 O3 2.143989 1_455
Li1 O8 1.925595 1_555
Li1 O23 1.936646 1_655
Li1 O22 1.996698 1_555
Li1 O3 2.121969 1_554
Li2 O4 1.925365 1_555
Li2 O16 1.942504 1_555
Li2 O10 1.959724 1_555
Li2 O2 2.143989 1_555
Li3 O12 1.912004 1_545
Li3 O8 1.926048 1_555
Li3 O6 2.085396 1_555
Li3 O3 2.186012 1_554
Li4 O14 1.925595 1_555
Li4 O7 1.936646 1_555
Li4 O4 1.996698 1_555
Li4 O21 2.121969 1_555
Li5 O18 1.912004 1_565
Li5 O9 1.926048 1_555
Li5 O10 2.085396 1_455
Li5 O2 2.186012 1_555
Li6 O5 1.912004 1_545
Li6 O14 1.926048 1_555
Li6 O13 2.085396 1_655
Li6 O21 2.186012 1_555
Li7 O9 1.925595 1_555
Li7 O16 1.936646 1_555
Li7 O19 1.996698 1_555
Li7 O2 2.121969 1_555
Li8 O11 1.912004 1_565
Li8 O15 1.926048 1_555
Li8 O17 2.085396 1_555
Li8 O20 2.186012 1_556
Li9 O19 1.925365 1_555
Li9 O7 1.942504 1_555
Li9 O13 1.959724 1_555
Li9 O21 2.143989 1_555
Li10 O15 1.925595 1_555
Li10 O0 1.936646 1_455
Li10 O1 1.996698 1_555
Li10 O20 2.121969 1_556
Li11 O22 1.925365 1_555
Li11 O0 1.942504 1_554
Li11 O17 1.959724 1_554
Li11 O20 2.143989 1_655
Mn0 O18 1.905867 1_555
Mn0 O6 2.001637 1_555
Mn0 O21 2.012499 1_555
Mn0 O22 2.022822 1_555
Mn0 O8 2.294191 1_555
Mn0 O23 2.321345 1_555
Mn1 O11 1.905867 1_555
Mn1 O13 2.001637 1_555
Mn1 O3 2.012499 1_455
Mn1 O4 2.022822 1_455
Mn1 O14 2.294191 1_455
Mn1 O7 2.321345 1_555
Mn2 O12 1.905867 1_555
Mn2 O10 2.001637 1_555
Mn2 O20 2.012499 1_655
Mn2 O19 2.022822 1_655
Mn2 O9 2.294191 1_655
Mn2 O16 2.321345 1_555
Mn3 O5 1.905867 1_555
Mn3 O17 2.001637 1_555
Mn3 O2 2.012499 1_555
Mn3 O1 2.022822 1_555
Mn3 O15 2.294191 1_555
Mn3 O0 2.321345 1_555
B0 O7 1.342430 1_555
B0 O1 1.398453 1_555
B0 O2 1.421575 1_555
B1 O0 1.342430 1_555
B1 O4 1.398453 1_555
B1 O3 1.421575 1_555
B2 O8 1.365273 1_565
B2 O5 1.397377 1_555
B2 O10 1.398244 1_555
B3 O9 1.365273 1_545
B3 O11 1.397377 1_554
B3 O6 1.398244 1_555
B4 O14 1.365273 1_565
B4 O12 1.397377 1_556
B4 O17 1.398244 1_555
B5 O15 1.365273 1_545
B5 O18 1.397377 1_555
B5 O13 1.398244 1_555
B6 O23 1.342430 1_555
B6 O19 1.398453 1_555
B6 O20 1.421575 1_555
B7 O16 1.342430 1_555
B7 O22 1.398453 1_555
B7 O21 1.421575 1_555
