# generated using pymatgen
data_Na2LiCaVP2O9
_symmetry_space_group_name_H-M   'P 1'
_cell_length_a   6.90739500
_cell_length_b   10.58677600
_cell_length_c   10.64614800
_cell_angle_alpha   90.00000000
_cell_angle_beta   90.00000000
_cell_angle_gamma   90.00000000
_symmetry_Int_Tables_number   1
_chemical_formula_structural   Na2LiCaVP2O9
_chemical_formula_sum   'Na8 Li4 Ca4 V4 P8 O36'
_cell_volume   778.52132906
_cell_formula_units_Z   4
loop_
 _symmetry_equiv_pos_site_id
 _symmetry_equiv_pos_as_xyz
  1  'x, y, z'
loop_
 _atom_site_type_symbol
 _atom_site_label
 _atom_site_symmetry_multiplicity
 _atom_site_fract_x
 _atom_site_fract_y
 _atom_site_fract_z
 _atom_site_occupancy
  Na  Na0  1  0.49157400  0.64495900  0.77077900  1
  Na  Na1  1  0.00769000  0.65403500  0.75902500  1
  Na  Na2  1  0.50769000  0.15403500  0.74097500  1
  Na  Na3  1  0.99157400  0.14495900  0.72922100  1
  Na  Na4  1  0.00769000  0.84596500  0.25902500  1
  Na  Na5  1  0.49157400  0.85504100  0.27077900  1
  Na  Na6  1  0.50769000  0.34596500  0.24097500  1
  Na  Na7  1  0.99157400  0.35504100  0.22922100  1
  Li  Li0  1  0.96718000  0.49760200  0.96842200  1
  Li  Li1  1  0.46718000  0.99760200  0.53157800  1
  Li  Li2  1  0.96718000  0.00239800  0.46842200  1
  Li  Li3  1  0.46718000  0.50239800  0.03157800  1
  Ca  Ca0  1  0.75116000  0.93921400  0.93103200  1
  Ca  Ca1  1  0.25116000  0.43921400  0.56896800  1
  Ca  Ca2  1  0.75116000  0.56078600  0.43103200  1
  Ca  Ca3  1  0.25116000  0.06078600  0.06896800  1
  V  V0  1  0.74377900  0.29231900  0.96807300  1
  V  V1  1  0.24377900  0.79231900  0.53192700  1
  V  V2  1  0.74377900  0.20768100  0.46807300  1
  V  V3  1  0.24377900  0.70768100  0.03192700  1
  P  P0  1  0.24739100  0.35583600  0.90702800  1
  P  P1  1  0.25315000  0.91629900  0.81639100  1
  P  P2  1  0.75315000  0.41629900  0.68360900  1
  P  P3  1  0.74739100  0.85583600  0.59297200  1
  P  P4  1  0.24739100  0.14416400  0.40702800  1
  P  P5  1  0.25315000  0.58370100  0.31639100  1
  P  P6  1  0.75315000  0.08370100  0.18360900  1
  P  P7  1  0.74739100  0.64416400  0.09297200  1
  O  O0  1  0.42970400  0.31661300  0.98714800  1
  O  O1  1  0.06480300  0.31295700  0.98339000  1
  O  O2  1  0.24336000  0.50519600  0.90479700  1
  O  O3  1  0.75144100  0.14761400  0.88334400  1
  O  O4  1  0.42985900  0.98405400  0.87325400  1
  O  O5  1  0.07162400  0.98333000  0.86747200  1
  O  O6  1  0.24974500  0.77432100  0.85278300  1
  O  O7  1  0.76233400  0.42971100  0.83071100  1
  O  O8  1  0.25255000  0.30045200  0.77346700  1
  O  O9  1  0.75255000  0.80045200  0.72653300  1
  O  O10  1  0.26233400  0.92971100  0.66928900  1
  O  O11  1  0.74974500  0.27432100  0.64721700  1
  O  O12  1  0.57162400  0.48333000  0.63252800  1
  O  O13  1  0.92985900  0.48405400  0.62674600  1
  O  O14  1  0.25144100  0.64761400  0.61665600  1
  O  O15  1  0.74336000  0.00519600  0.59520300  1
  O  O16  1  0.92970400  0.81661300  0.51285200  1
  O  O17  1  0.56480300  0.81295700  0.51661000  1
  O  O18  1  0.42970400  0.18338700  0.48714800  1
  O  O19  1  0.06480300  0.18704300  0.48339000  1
  O  O20  1  0.24336000  0.99480400  0.40479700  1
  O  O21  1  0.75144100  0.35238600  0.38334400  1
  O  O22  1  0.42985900  0.51594600  0.37325400  1
  O  O23  1  0.07162400  0.51667000  0.36747200  1
  O  O24  1  0.24974500  0.72567900  0.35278300  1
  O  O25  1  0.76233400  0.07028900  0.33071100  1
  O  O26  1  0.25255000  0.19954800  0.27346700  1
  O  O27  1  0.75255000  0.69954800  0.22653300  1
  O  O28  1  0.26233400  0.57028900  0.16928900  1
  O  O29  1  0.74974500  0.22567900  0.14721700  1
  O  O30  1  0.92985900  0.01594600  0.12674600  1
  O  O31  1  0.57162400  0.01667000  0.13252800  1
  O  O32  1  0.25144100  0.85238600  0.11665600  1
  O  O33  1  0.74336000  0.49480400  0.09520300  1
  O  O34  1  0.92970400  0.68338700  0.01285200  1
  O  O35  1  0.56480300  0.68704300  0.01661000  1
loop_
_geom_bond_atom_site_label_1
_geom_bond_atom_site_label_2
_geom_bond_distance
_geom_bond_site_symmetry_2
Na0 O12 2.323794 1_555
Na0 O6 2.329816 1_555
Na0 O14 2.333309 1_555
Na0 O9 2.486234 1_555
Na0 O2 2.676672 1_555
Na0 O35 2.702563 1_556
Na1 O14 2.266430 1_555
Na1 O6 2.326684 1_555
Na1 O13 2.347468 1_455
Na1 O9 2.372405 1_455
Na1 O2 2.746140 1_555
Na2 O3 2.266430 1_555
Na2 O11 2.326684 1_555
Na2 O4 2.347468 1_545
Na2 O8 2.372405 1_555
Na2 O15 2.746140 1_555
Na3 O5 2.323794 1_645
Na3 O11 2.329816 1_555
Na3 O3 2.333309 1_555
Na3 O8 2.486234 1_655
Na3 O15 2.676672 1_555
Na3 O19 2.702563 1_655
Na4 O32 2.266430 1_555
Na4 O24 2.326684 1_555
Na4 O30 2.347468 1_465
Na4 O27 2.372405 1_455
Na4 O20 2.746140 1_555
Na5 O31 2.323794 1_565
Na5 O24 2.329816 1_555
Na5 O32 2.333309 1_555
Na5 O27 2.486234 1_555
Na5 O20 2.676672 1_555
Na5 O17 2.702563 1_555
Na6 O21 2.266430 1_555
Na6 O29 2.326684 1_555
Na6 O22 2.347468 1_555
Na6 O26 2.372405 1_555
Na6 O33 2.746140 1_555
Na7 O23 2.323794 1_655
Na7 O29 2.329816 1_555
Na7 O21 2.333309 1_555
Na7 O26 2.486234 1_655
Na7 O33 2.676672 1_555
Na7 O1 2.702563 1_654
Li0 O2 2.025967 1_655
Li0 O34 2.039436 1_556
Li0 O33 2.052511 1_556
Li0 O1 2.073964 1_655
Li0 O7 2.160581 1_555
Li1 O15 2.025967 1_565
Li1 O18 2.039436 1_565
Li1 O20 2.052511 1_555
Li1 O17 2.073964 1_555
Li1 O10 2.160581 1_555
Li2 O20 2.025967 1_645
Li2 O16 2.039436 1_545
Li2 O15 2.052511 1_555
Li2 O19 2.073964 1_655
Li2 O25 2.160581 1_555
Li3 O33 2.025967 1_555
Li3 O0 2.039436 1_554
Li3 O2 2.052511 1_554
Li3 O35 2.073964 1_555
Li3 O28 2.160581 1_555
Ca0 O3 2.263945 1_565
Ca0 O4 2.351434 1_555
Ca0 O5 2.361337 1_655
Ca0 O30 2.554388 1_566
Ca0 O31 2.609985 1_566
Ca0 O9 2.626415 1_555
Ca1 O14 2.263945 1_555
Ca1 O13 2.351434 1_455
Ca1 O12 2.361337 1_555
Ca1 O22 2.554388 1_555
Ca1 O23 2.609985 1_555
Ca1 O8 2.626415 1_555
Ca2 O21 2.263945 1_555
Ca2 O22 2.351434 1_555
Ca2 O23 2.361337 1_655
Ca2 O13 2.554388 1_555
Ca2 O12 2.609985 1_555
Ca2 O27 2.626415 1_555
Ca3 O32 2.263945 1_545
Ca3 O30 2.351434 1_455
Ca3 O31 2.361337 1_555
Ca3 O4 2.554388 1_544
Ca3 O5 2.609985 1_544
Ca3 O26 2.626415 1_555
O0 P0 1.576655 1_555
O0 V0 2.194051 1_555
O1 P0 1.567680 1_555
O1 V0 2.234137 1_455
O2 P0 1.581664 1_555
O2 V3 2.535175 1_556
O3 V0 1.778587 1_555
O4 P1 1.539762 1_555
O5 P1 1.539975 1_555
O6 P1 1.552397 1_555
O6 V3 2.033917 1_556
O7 P2 1.573772 1_555
O7 V0 2.066556 1_555
O8 P0 1.538470 1_555
O9 P3 1.538470 1_555
O10 P1 1.573772 1_555
O10 V1 2.066556 1_555
O11 P2 1.552397 1_555
O11 V2 2.033917 1_555
O12 P2 1.539975 1_555
O13 P2 1.539762 1_555
O14 V1 1.778587 1_555
O15 P3 1.581664 1_545
O15 V2 2.535175 1_555
O16 P3 1.576655 1_555
O16 V1 2.194051 1_655
O17 P3 1.567680 1_555
O17 V1 2.234137 1_555
O18 P4 1.576655 1_555
O18 V2 2.194051 1_555
O19 P4 1.567680 1_555
O19 V2 2.234137 1_455
O20 P4 1.581664 1_565
O20 V1 2.535175 1_555
O21 V2 1.778587 1_555
O22 P5 1.539762 1_555
O23 P5 1.539975 1_555
O24 P5 1.552397 1_555
O24 V1 2.033917 1_555
O25 P6 1.573772 1_555
O25 V2 2.066556 1_555
O26 P4 1.538470 1_555
O27 P7 1.538470 1_555
O28 P5 1.573772 1_555
O28 V3 2.066556 1_555
O29 P6 1.552397 1_555
O29 V0 2.033917 1_554
O30 P6 1.539762 1_555
O31 P6 1.539975 1_555
O32 V3 1.778587 1_555
O33 P7 1.581664 1_555
O33 V0 2.535175 1_554
O34 P7 1.576655 1_555
O34 V3 2.194051 1_655
O35 P7 1.567680 1_555
O35 V3 2.234137 1_555
