# generated using pymatgen
data_Na13Zr7Si5P7O48
_symmetry_space_group_name_H-M   'P 1'
_cell_length_a   9.26050500
_cell_length_b   9.31322931
_cell_length_c   15.98040891
_cell_angle_alpha   106.69360761
_cell_angle_beta   89.96389167
_cell_angle_gamma   119.58725174
_symmetry_Int_Tables_number   1
_chemical_formula_structural   Na13Zr7Si5P7O48
_chemical_formula_sum   'Na13 Zr7 Si5 P7 O48'
_cell_volume   1131.39153240
_cell_formula_units_Z   1
loop_
 _symmetry_equiv_pos_site_id
 _symmetry_equiv_pos_as_xyz
  1  'x, y, z'
loop_
 _atom_site_type_symbol
 _atom_site_label
 _atom_site_symmetry_multiplicity
 _atom_site_fract_x
 _atom_site_fract_y
 _atom_site_fract_z
 _atom_site_occupancy
  Na  Na0  1  0.02126700  0.02209700  0.00419700  1
  Na  Na1  1  0.45090600  0.42606500  0.37744400  1
  Na  Na2  1  0.40744900  0.17765800  0.06883200  1
  Na  Na3  1  0.00774300  0.96687800  0.17259100  1
  Na  Na4  1  0.75680500  0.95925400  0.26586100  1
  Na  Na5  1  0.55286000  0.14415600  0.29722400  1
  Na  Na6  1  0.04591900  0.47125600  0.91620600  1
  Na  Na7  1  0.03343000  0.49378200  0.12797000  1
  Na  Na8  1  0.90109200  0.10746100  0.54308600  1
  Na  Na9  1  0.42704100  0.84275500  0.67560400  1
  Na  Na10  1  0.22170900  0.99830700  0.74766200  1
  Na  Na11  1  0.50374600  0.77504800  0.95746300  1
  Na  Na12  1  0.51246000  0.52889300  0.61971300  1
  Zr  Zr0  1  0.52563700  0.70540100  0.17462400  1
  Zr  Zr1  1  0.71951400  0.28900100  0.57244300  1
  Zr  Zr2  1  0.03543000  0.70474400  0.68183300  1
  Zr  Zr3  1  0.98399300  0.27704200  0.33704400  1
  Zr  Zr4  1  0.27561300  0.71083000  0.42352800  1
  Zr  Zr5  1  0.46318500  0.31607700  0.81382200  1
  Zr  Zr6  1  0.77725600  0.70943000  0.92346400  1
  Si  Si0  1  0.27802300  0.77312300  0.23450400  1
  Si  Si1  1  0.83250300  0.49879900  0.37115700  1
  Si  Si2  1  0.76898600  0.78369500  0.72697900  1
  Si  Si3  1  0.33751000  0.52173100  0.86636200  1
  Si  Si4  1  0.27763000  0.21364700  0.53124200  1
  P  P0  1  0.74378000  0.20233600  0.01790900  1
  P  P1  1  0.72882600  0.79196200  0.47950000  1
  P  P2  1  0.69096100  0.50185800  0.12995500  1
  P  P3  1  0.21818900  0.20038000  0.27270800  1
  P  P4  1  0.22550400  0.81240900  0.96920100  1
  P  P5  1  0.16462800  0.50569600  0.62043000  1
  P  P6  1  0.73032600  0.20400000  0.77319500  1
  O  O0  1  0.36170100  0.40615400  0.25424000  1
  O  O1  1  0.34581500  0.79499600  0.05526900  1
  O  O2  1  0.18954700  0.93492900  0.14259300  1
  O  O3  1  0.66199200  0.63251000  0.14330900  1
  O  O4  1  0.33461100  0.78839300  0.31810800  1
  O  O5  1  0.45565900  0.78486200  0.22634200  1
  O  O6  1  0.74420000  0.36567500  0.45768800  1
  O  O7  1  0.72311100  0.65306100  0.28293000  1
  O  O8  1  0.66619400  0.02421600  0.10505500  1
  O  O9  1  0.71359000  0.58857800  0.50346600  1
  O  O10  1  0.55704100  0.79670700  0.47237100  1
  O  O11  1  0.52538500  0.35011000  0.12511100  1
  O  O12  1  0.02553700  0.63772400  0.38248500  1
  O  O13  1  0.86882300  0.40788600  0.75394200  1
  O  O14  1  0.89586000  0.17159000  0.02363900  1
  O  O15  1  0.78246600  0.40272900  0.00583300  1
  O  O16  1  0.78840400  0.97024000  0.38809700  1
  O  O17  1  0.85393900  0.81242800  0.55562700  1
  O  O18  1  0.81788100  0.37987200  0.20849200  1
  O  O19  1  0.71094400  0.98950000  0.64095200  1
  O  O20  1  0.15261400  0.61917900  0.64790500  1
  O  O21  1  0.77424100  0.65865100  0.04434900  1
  O  O22  1  0.79922000  0.75358800  0.81917400  1
  O  O23  1  0.94421000  0.80843100  0.71496300  1
  O  O24  1  0.07482300  0.15744100  0.30887300  1
  O  O25  1  0.13859900  0.22082900  0.18659600  1
  O  O26  1  0.22695400  0.32621900  0.94140800  1
  O  O27  1  0.83597000  0.33045900  0.36722600  1
  O  O28  1  0.30709800  0.03136100  0.34685900  1
  O  O29  1  0.23023400  0.68913200  0.78487200  1
  O  O30  1  0.15504000  0.21030900  0.44695000  1
  O  O31  1  0.18946000  0.00879400  0.61782700  1
  O  O32  1  0.22534000  0.65380200  0.96635100  1
  O  O33  1  0.04945800  0.78641800  0.97365500  1
  O  O34  1  0.15096000  0.54203900  0.26874700  1
  O  O35  1  0.98758700  0.37423500  0.60465300  1
  O  O36  1  0.52108500  0.64422400  0.90021700  1
  O  O37  1  0.45944800  0.20591600  0.54047600  1
  O  O38  1  0.29685100  0.41622300  0.51769700  1
  O  O39  1  0.28811900  0.02509700  0.88336000  1
  O  O40  1  0.27561400  0.35758300  0.69650800  1
  O  O41  1  0.25177500  0.66398700  0.53840900  1
  O  O42  1  0.56666200  0.18897900  0.78506500  1
  O  O43  1  0.68716900  0.20165500  0.69296700  1
  O  O44  1  0.39172600  0.47872900  0.81637400  1
  O  O45  1  0.79664800  0.02137500  0.85984500  1
  O  O46  1  0.61086100  0.21198900  0.93708600  1
  O  O47  1  0.62353800  0.58852300  0.72805700  1
loop_
_geom_bond_atom_site_label_1
_geom_bond_atom_site_label_2
_geom_bond_distance
_geom_bond_site_symmetry_2
Na0 O14 2.175158 1_455
Na0 O33 2.252626 1_544
Na0 O26 2.993323 1_554
Na1 O0 2.057718 1_555
Na1 P3 2.318179 1_555
Na1 O9 2.623596 1_555
Na1 O38 2.655552 1_555
Na2 O11 1.421403 1_555
Na2 O2 2.755868 1_545
Na3 O2 1.888005 1_555
Na3 O25 1.994569 1_565
Na3 P3 2.215135 1_565
Na4 O16 1.941167 1_555
Na4 O7 2.805665 1_555
Na5 O28 2.242283 1_555
Na5 O27 2.352015 1_555
Na5 O6 2.707025 1_555
Na6 O32 1.650061 1_555
Na6 O26 2.710520 1_555
Na6 O15 2.719204 1_456
Na6 O13 2.816408 1_455
Na7 O34 2.320946 1_555
Na7 O18 2.335706 1_455
Na7 Si0 2.537381 1_555
Na7 O14 2.600037 1_455
Na7 O15 2.653023 1_455
Na8 O35 2.100928 1_555
Na8 O16 2.392597 1_545
Na8 O19 2.413874 1_545
Na8 P1 2.422609 1_545
Na8 O17 2.629103 1_545
Na8 O30 2.724804 1_655
Na9 O20 2.288316 1_555
Na9 O41 2.334941 1_555
Na9 O19 2.443625 1_555
Na9 O29 2.697025 1_555
Na9 O42 2.788222 1_565
Na10 O31 2.132977 1_565
Na10 O39 2.163844 1_565
Na10 O23 2.233218 1_455
Na11 O36 1.378335 1_555
Na11 O1 2.171404 1_556
Na11 O8 2.573664 1_566
Na12 O47 1.802755 1_555
Na12 O38 2.167441 1_555
Na12 O40 2.555003 1_555
Na12 O9 2.606834 1_555
Na12 O37 2.691948 1_555
O0 P3 1.826298 1_555
O1 P4 1.862213 1_554
O3 P2 1.330858 1_555
O3 Zr0 1.719369 1_555
O4 Si0 1.377655 1_555
O4 Zr4 1.991636 1_555
O5 Zr0 1.331232 1_555
O5 Si0 1.601660 1_555
O6 Si1 2.024925 1_555
O6 Zr1 2.125019 1_555
O7 P2 2.378425 1_555
O7 Zr0 2.818922 1_555
O8 P0 2.314408 1_555
O9 P1 1.976670 1_555
O10 P1 1.618076 1_555
O10 Zr4 2.372043 1_555
O11 P2 1.466895 1_555
O12 Si1 1.576130 1_455
O12 Zr4 2.108352 1_555
O13 O43 1.790132 1_555
O13 P6 1.809811 1_555
O13 Zr1 2.863305 1_555
O13 Zr2 2.994616 1_655
O14 P0 1.577101 1_555
O15 O46 1.726638 1_554
O15 P0 1.787530 1_555
O15 P2 2.285410 1_555
O17 P1 1.584034 1_555
O20 P5 1.082421 1_555
O20 Zr2 1.646695 1_555
O21 Zr6 2.113764 1_554
O22 Si2 1.625743 1_555
O22 Zr6 1.816254 1_555
O23 Si2 1.542354 1_555
O23 Zr2 1.561296 1_655
O24 P3 1.365314 1_555
O24 Zr3 1.669585 1_455
O25 P3 1.662414 1_555
O26 Si3 2.283421 1_555
O26 Zr5 3.006559 1_555
O27 Si1 1.567183 1_555
O27 Zr3 1.701133 1_555
O27 O6 1.709066 1_555
O29 Zr2 2.527273 1_555
O30 O38 1.717491 1_555
O30 Si4 1.745632 1_555
O32 P4 1.463955 1_555
O33 P4 1.530202 1_555
O33 Zr6 2.323545 1_455
O34 O4 1.971644 1_555
O34 Si0 2.119146 1_555
O34 Zr4 2.428894 1_555
O34 Zr3 2.729453 1_455
O35 P5 1.446193 1_655
O35 Zr1 2.208785 1_555
O36 Si3 1.488484 1_555
O36 Zr6 2.140878 1_555
O37 Si4 1.728590 1_555
O37 Zr1 2.143369 1_555
O38 Si4 1.881723 1_555
O38 P5 2.260080 1_555
O41 Zr4 1.993463 1_555
O41 P5 2.115774 1_555
O42 P6 1.469060 1_555
O42 Zr5 1.826904 1_555
O43 P6 1.334115 1_555
O43 Zr1 2.262698 1_555
O44 Si3 1.031913 1_555
O44 Zr5 1.920573 1_555
O45 Si2 2.492846 1_545
O46 P0 1.835584 1_556
O47 Si2 1.648866 1_555
