# generated using pymatgen
data_Li2CrPHO5
_symmetry_space_group_name_H-M   'P 1'
_cell_length_a   5.62224114
_cell_length_b   5.54707509
_cell_length_c   13.43066435
_cell_angle_alpha   85.68391512
_cell_angle_beta   82.01205159
_cell_angle_gamma   89.03629146
_symmetry_Int_Tables_number   1
_chemical_formula_structural   Li2CrPHO5
_chemical_formula_sum   'Li8 Cr4 P4 H4 O20'
_cell_volume   413.61303222
_cell_formula_units_Z   4
loop_
 _symmetry_equiv_pos_site_id
 _symmetry_equiv_pos_as_xyz
  1  'x, y, z'
loop_
 _atom_site_type_symbol
 _atom_site_label
 _atom_site_symmetry_multiplicity
 _atom_site_fract_x
 _atom_site_fract_y
 _atom_site_fract_z
 _atom_site_occupancy
  Li  Li0  1  0.06390200  0.69881400  0.40363400  1
  Li  Li1  1  0.56431600  0.19868500  0.90361200  1
  Li  Li2  1  0.43572700  0.80129500  0.09639200  1
  Li  Li3  1  0.93617100  0.30102900  0.59638200  1
  Li  Li4  1  0.37917600  0.02678100  0.40832200  1
  Li  Li5  1  0.87896300  0.52686300  0.90848900  1
  Li  Li6  1  0.12108700  0.47318000  0.09161200  1
  Li  Li7  1  0.62067500  0.97310400  0.59158200  1
  Cr  Cr0  1  0.99965100  0.99999100  0.00006900  1
  Cr  Cr1  1  0.75026200  0.74974000  0.24977400  1
  Cr  Cr2  1  0.25025100  0.25044200  0.75035200  1
  Cr  Cr3  1  0.49968100  0.49973600  0.49995300  1
  P  P0  1  0.56532600  0.26514600  0.11760600  1
  P  P1  1  0.06537000  0.76522500  0.61755900  1
  P  P2  1  0.93462200  0.23469600  0.38237900  1
  P  P3  1  0.43457200  0.73477300  0.88245300  1
  H  H0  1  0.11015600  0.92592000  0.18329300  1
  H  H1  1  0.60979600  0.42583100  0.68297700  1
  H  H2  1  0.39032100  0.57436300  0.31683200  1
  H  H3  1  0.89005100  0.07409000  0.81681100  1
  O  O0  1  0.44707800  0.68192800  0.36360700  1
  O  O1  1  0.94616700  0.18180900  0.86374100  1
  O  O2  1  0.05388500  0.81828400  0.13634500  1
  O  O3  1  0.55289400  0.31797000  0.63628800  1
  O  O4  1  0.55585700  0.02790000  0.18736400  1
  O  O5  1  0.05607200  0.52774800  0.68726800  1
  O  O6  1  0.94411400  0.47216800  0.31263700  1
  O  O7  1  0.44423800  0.97204400  0.81263900  1
  O  O8  1  0.01440700  0.00932300  0.32601700  1
  O  O9  1  0.51416700  0.50931500  0.82611400  1
  O  O10  1  0.48551500  0.49070600  0.17395700  1
  O  O11  1  0.98583600  0.99072200  0.67398300  1
  O  O12  1  0.38961500  0.23132600  0.03948000  1
  O  O13  1  0.88942800  0.73141700  0.53955100  1
  O  O14  1  0.11044500  0.26868600  0.46044900  1
  O  O15  1  0.61043900  0.76858100  0.96051600  1
  O  O16  1  0.82987300  0.30142300  0.06128200  1
  O  O17  1  0.32978400  0.80143700  0.56110100  1
  O  O18  1  0.67008500  0.19856300  0.43873900  1
  O  O19  1  0.17001500  0.69879800  0.93884400  1
loop_
_geom_bond_atom_site_label_1
_geom_bond_atom_site_label_2
_geom_bond_distance
_geom_bond_site_symmetry_2
Li0 O13 1.968064 1_455
Li0 O8 1.981185 1_565
Li0 O6 2.004082 1_455
Li0 O0 2.148890 1_555
Li0 O14 2.470620 1_555
Li1 O12 1.967997 1_556
Li1 O9 1.981708 1_555
Li1 O7 2.004540 1_545
Li1 O1 2.141445 1_555
Li1 O15 2.470483 1_545
Li2 O15 1.968175 1_554
Li2 O10 1.981545 1_555
Li2 O4 2.004522 1_565
Li2 O2 2.141551 1_555
Li2 O12 2.470121 1_565
Li3 O14 1.967616 1_655
Li3 O11 1.980345 1_545
Li3 O5 2.003583 1_655
Li3 O3 2.149269 1_555
Li3 O13 2.472180 1_555
Li4 O18 2.011632 1_555
Li4 O0 2.061630 1_545
Li4 O14 2.086311 1_555
Li4 O17 2.305917 1_545
Li4 O8 2.467799 1_555
Li5 O19 2.012448 1_655
Li5 O1 2.062332 1_555
Li5 O15 2.084474 1_555
Li5 O16 2.306318 1_556
Li5 O9 2.468510 1_555
Li6 O16 2.012608 1_455
Li6 O2 2.062525 1_555
Li6 O12 2.085384 1_555
Li6 O19 2.306505 1_554
Li6 O10 2.466422 1_555
Li7 O17 2.011528 1_555
Li7 O3 2.061570 1_565
Li7 O13 2.085235 1_555
Li7 O18 2.306937 1_565
Li7 O11 2.470576 1_555
Cr0 O16 2.077969 1_565
Cr0 O19 2.078227 1_654
Cr0 O1 2.079651 1_564
Cr0 O2 2.079887 1_655
Cr1 O6 2.067611 1_555
Cr1 O4 2.069111 1_565
Cr1 O2 2.142724 1_655
Cr1 O0 2.143634 1_555
Cr1 O10 2.455702 1_555
Cr1 O8 2.458446 1_665
Cr2 O7 2.068004 1_545
Cr2 O5 2.068888 1_555
Cr2 O3 2.143130 1_555
Cr2 O1 2.144294 1_455
Cr2 O9 2.451596 1_555
Cr2 O11 2.460864 1_445
Cr3 O18 2.078165 1_555
Cr3 O17 2.079122 1_555
Cr3 O3 2.079219 1_555
Cr3 O0 2.079449 1_555
H0 O2 0.986216 1_555
H0 Li2 2.162345 1_555
H1 O3 0.986002 1_555
H1 Li3 2.164323 1_555
H2 O0 0.985415 1_555
H2 Li0 2.165075 1_555
H3 O1 0.985978 1_555
H3 Li1 2.162395 1_555
O4 P0 1.554166 1_555
O5 P1 1.554876 1_555
O6 P2 1.555052 1_555
O7 P3 1.554640 1_555
O8 P2 1.538291 1_455
O9 P3 1.538308 1_555
O10 P0 1.539122 1_555
O11 P1 1.539004 1_655
O12 P0 1.560793 1_555
O13 P1 1.560509 1_655
O14 P2 1.560845 1_455
O15 P3 1.560770 1_555
O16 P0 1.580945 1_555
O17 P1 1.580861 1_555
O18 P2 1.580974 1_555
O19 P3 1.581121 1_555
