# generated using pymatgen
data_Li4Ti3Cu3(WO8)2
_symmetry_space_group_name_H-M   'P 1'
_cell_length_a   6.01353958
_cell_length_b   6.01353958
_cell_length_c   10.03712586
_cell_angle_alpha   87.81776004
_cell_angle_beta   87.81776004
_cell_angle_gamma   59.48532620
_symmetry_Int_Tables_number   1
_chemical_formula_structural   Li4Ti3Cu3(WO8)2
_chemical_formula_sum   'Li4 Ti3 Cu3 W2 O16'
_cell_volume   312.39676464
_cell_formula_units_Z   1
loop_
 _symmetry_equiv_pos_site_id
 _symmetry_equiv_pos_as_xyz
  1  'x, y, z'
loop_
 _atom_site_type_symbol
 _atom_site_label
 _atom_site_symmetry_multiplicity
 _atom_site_fract_x
 _atom_site_fract_y
 _atom_site_fract_z
 _atom_site_occupancy
  Li  Li0  1  0.66492400  0.66492400  0.08938000  1
  Li  Li1  1  0.99246500  0.99246500  0.02446200  1
  Li  Li2  1  0.00059300  0.00059300  0.50985700  1
  Li  Li3  1  0.33194400  0.33194400  0.58506200  1
  Ti  Ti0  1  0.34348500  0.84893600  0.78100800  1
  Ti  Ti1  1  0.84893600  0.34348500  0.78100800  1
  Ti  Ti2  1  0.17808200  0.17808200  0.26559600  1
  Cu  Cu0  1  0.82925500  0.82925500  0.79529200  1
  Cu  Cu1  1  0.17373700  0.66149700  0.30010400  1
  Cu  Cu2  1  0.66149700  0.17373700  0.30010400  1
  W  W0  1  0.66550300  0.66550300  0.50985700  1
  W  W1  1  0.34903700  0.34903700  0.01561300  1
  O  O0  1  0.35597800  0.84027100  0.41497800  1
  O  O1  1  0.52017200  0.52017200  0.66245500  1
  O  O2  1  0.65256900  0.65256900  0.88851700  1
  O  O3  1  0.00365300  0.00365300  0.70090300  1
  O  O4  1  0.00403900  0.00403900  0.21549700  1
  O  O5  1  0.84027100  0.35597800  0.41497800  1
  O  O6  1  0.49492500  0.96238900  0.65134300  1
  O  O7  1  0.96238900  0.49492500  0.65134300  1
  O  O8  1  0.16845900  0.16845900  0.89014400  1
  O  O9  1  0.83001300  0.83001300  0.43621400  1
  O  O10  1  0.03156000  0.45569700  0.13446000  1
  O  O11  1  0.45569700  0.03156000  0.13446000  1
  O  O12  1  0.32062000  0.32062000  0.38256400  1
  O  O13  1  0.18025000  0.66017500  0.91142300  1
  O  O14  1  0.47913800  0.47913800  0.13397700  1
  O  O15  1  0.66017500  0.18025000  0.91142300  1
loop_
_geom_bond_atom_site_label_1
_geom_bond_atom_site_label_2
_geom_bond_distance
_geom_bond_site_symmetry_2
Li0 O10 1.965800 1_655
Li0 O11 1.965800 1_565
Li0 O14 1.971848 1_555
Li0 O2 2.025850 1_554
Li1 O4 1.926531 1_665
Li1 O15 2.083029 1_564
Li1 O13 2.083029 1_654
Li1 O8 2.231122 1_664
Li2 O3 1.919220 1_555
Li2 O9 1.958293 1_445
Li2 O5 2.055780 1_455
Li2 O0 2.055780 1_545
Li3 O6 2.016706 1_545
Li3 O7 2.016706 1_455
Li3 O12 2.041106 1_555
Li3 O1 2.144979 1_555
Cu0 O3 2.015667 1_665
Cu0 O2 2.031850 1_555
Cu0 O13 2.182964 1_655
Cu0 O15 2.182964 1_565
Cu0 O6 2.295469 1_555
Cu0 O7 2.295469 1_555
Cu1 O12 1.937771 1_555
Cu1 O4 1.950325 1_565
Cu1 O9 2.220139 1_455
Cu1 O0 2.252399 1_555
Cu1 O14 2.283989 1_555
Cu1 O10 2.523157 1_555
Cu2 O12 1.937771 1_555
Cu2 O4 1.950325 1_655
Cu2 O9 2.220139 1_545
Cu2 O5 2.252399 1_555
Cu2 O14 2.283989 1_555
Cu2 O11 2.523157 1_555
O0 W0 1.883674 1_555
O0 Ti2 2.280910 1_565
O1 Ti0 2.098378 1_555
O1 Ti1 2.098378 1_555
O1 W0 2.108386 1_555
O2 Ti0 1.959685 1_555
O2 Ti1 1.959685 1_555
O3 Ti1 1.955932 1_455
O3 Ti0 1.955932 1_545
O4 Ti2 1.906888 1_555
O5 W0 1.883674 1_555
O5 Ti2 2.280910 1_655
O6 Ti0 1.860569 1_555
O6 W0 2.116302 1_555
O7 Ti1 1.860569 1_555
O7 W0 2.116302 1_555
O8 Ti1 2.004614 1_455
O8 Ti0 2.004614 1_545
O8 W1 2.313044 1_556
O9 W0 1.840174 1_555
O10 Ti2 1.929522 1_555
O10 W1 2.029913 1_555
O11 Ti2 1.929522 1_555
O11 W1 2.029913 1_555
O12 Ti2 1.935759 1_555
O13 W1 1.904704 1_556
O13 Ti0 2.210447 1_555
O14 W1 1.843581 1_555
O15 W1 1.904704 1_556
O15 Ti1 2.210447 1_555
