# generated using pymatgen
data_Li7(SbS)2
_symmetry_space_group_name_H-M   'P 1'
_cell_length_a   7.51687900
_cell_length_b   8.69999100
_cell_length_c   13.19095000
_cell_angle_alpha   90.00000000
_cell_angle_beta   90.00000000
_cell_angle_gamma   90.00000000
_symmetry_Int_Tables_number   1
_chemical_formula_structural   Li7(SbS)2
_chemical_formula_sum   'Li28 Sb8 S8'
_cell_volume   862.64565050
_cell_formula_units_Z   4
loop_
 _symmetry_equiv_pos_site_id
 _symmetry_equiv_pos_as_xyz
  1  'x, y, z'
loop_
 _atom_site_type_symbol
 _atom_site_label
 _atom_site_symmetry_multiplicity
 _atom_site_fract_x
 _atom_site_fract_y
 _atom_site_fract_z
 _atom_site_occupancy
  Li  Li0  1  0.16928600  0.50761400  0.54379800  1
  Li  Li1  1  0.16928600  0.99238600  0.54379800  1
  Li  Li2  1  0.75812800  0.25000000  0.58490800  1
  Li  Li3  1  0.81129300  0.75000000  0.61317400  1
  Li  Li4  1  0.05103400  0.25000000  0.68527500  1
  Li  Li5  1  0.58462700  0.47165800  0.70811100  1
  Li  Li6  1  0.58462700  0.02834200  0.70811100  1
  Li  Li7  1  0.08462700  0.52834200  0.79188900  1
  Li  Li8  1  0.08462700  0.97165800  0.79188900  1
  Li  Li9  1  0.55103400  0.75000000  0.81472500  1
  Li  Li10  1  0.31129300  0.25000000  0.88682600  1
  Li  Li11  1  0.25812800  0.75000000  0.91509200  1
  Li  Li12  1  0.66928600  0.49238600  0.95620200  1
  Li  Li13  1  0.66928600  0.00761400  0.95620200  1
  Li  Li14  1  0.33071400  0.50761400  0.04379800  1
  Li  Li15  1  0.33071400  0.99238600  0.04379800  1
  Li  Li16  1  0.74187200  0.25000000  0.08490800  1
  Li  Li17  1  0.68870700  0.75000000  0.11317400  1
  Li  Li18  1  0.44896600  0.25000000  0.18527500  1
  Li  Li19  1  0.91537300  0.47165800  0.20811100  1
  Li  Li20  1  0.91537300  0.02834200  0.20811100  1
  Li  Li21  1  0.41537300  0.52834200  0.29188900  1
  Li  Li22  1  0.41537300  0.97165800  0.29188900  1
  Li  Li23  1  0.94896600  0.75000000  0.31472500  1
  Li  Li24  1  0.18870700  0.25000000  0.38682600  1
  Li  Li25  1  0.24187200  0.75000000  0.41509200  1
  Li  Li26  1  0.83071400  0.49238600  0.45620200  1
  Li  Li27  1  0.83071400  0.00761400  0.45620200  1
  Sb  Sb0  1  0.42670900  0.75000000  0.59937200  1
  Sb  Sb1  1  0.39563100  0.25000000  0.58644800  1
  Sb  Sb2  1  0.89563100  0.75000000  0.91355200  1
  Sb  Sb3  1  0.92670900  0.25000000  0.90062800  1
  Sb  Sb4  1  0.07329100  0.75000000  0.09937200  1
  Sb  Sb5  1  0.10436900  0.25000000  0.08644800  1
  Sb  Sb6  1  0.60436900  0.75000000  0.41355200  1
  Sb  Sb7  1  0.57329100  0.25000000  0.40062800  1
  S  S0  1  0.89871700  0.01763200  0.63971200  1
  S  S1  1  0.89871700  0.48236800  0.63971200  1
  S  S2  1  0.39871700  0.98236800  0.86028800  1
  S  S3  1  0.39871700  0.51763200  0.86028800  1
  S  S4  1  0.60128300  0.01763200  0.13971200  1
  S  S5  1  0.60128300  0.48236800  0.13971200  1
  S  S6  1  0.10128300  0.98236800  0.36028800  1
  S  S7  1  0.10128300  0.51763200  0.36028800  1
loop_
_geom_bond_atom_site_label_1
_geom_bond_atom_site_label_2
_geom_bond_distance
_geom_bond_site_symmetry_2
Li0 S1 2.405296 1_455
Li0 S7 2.475589 1_555
Li0 Sb1 2.869574 1_555
Li0 Sb0 2.954411 1_555
Li1 S0 2.405296 1_465
Li1 S6 2.475589 1_555
Li1 Sb1 2.869574 1_565
Li1 Sb0 2.954411 1_555
Li2 S1 2.392965 1_555
Li2 S0 2.392965 1_555
Li2 Sb1 2.724922 1_555
Li2 Sb7 2.799884 1_555
Li3 S0 2.444550 1_565
Li3 S1 2.444550 1_555
Li3 Sb0 2.896599 1_555
Li3 Sb6 3.058284 1_555
Li4 S1 2.399791 1_455
Li4 S0 2.399791 1_455
Li4 Sb1 2.899837 1_555
Li4 Sb3 2.990484 1_455
Li5 S3 2.478381 1_555
Li5 S1 2.529218 1_555
Li5 Sb1 2.883164 1_555
Li5 Sb0 3.054591 1_555
Li6 S2 2.478381 1_545
Li6 S0 2.529218 1_555
Li6 Sb1 2.883164 1_555
Li6 Sb0 3.054591 1_545
Li7 S1 2.478381 1_455
Li7 S3 2.529218 1_555
Li7 Sb2 2.883164 1_455
Li7 Sb3 3.054591 1_455
Li8 S0 2.478381 1_465
Li8 S2 2.529218 1_555
Li8 Sb2 2.883164 1_455
Li8 Sb3 3.054591 1_465
Li9 S2 2.399791 1_555
Li9 S3 2.399791 1_555
Li9 Sb2 2.899837 1_555
Li9 Sb0 2.990484 1_555
Li10 S3 2.444550 1_555
Li10 S2 2.444550 1_545
Li10 Sb3 2.896599 1_455
Li10 Sb5 3.058284 1_556
Li11 S2 2.392965 1_555
Li11 S3 2.392965 1_555
Li11 Sb2 2.724922 1_455
Li11 Sb4 2.799884 1_556
Li12 S3 2.405296 1_555
Li12 S5 2.475589 1_556
Li12 Sb2 2.869574 1_555
Li12 Sb3 2.954411 1_555
Li13 S2 2.405296 1_545
Li13 S4 2.475589 1_556
Li13 Sb2 2.869574 1_545
Li13 Sb3 2.954411 1_555
Li14 S5 2.405296 1_555
Li14 S3 2.475589 1_554
Li14 Sb5 2.869574 1_555
Li14 Sb4 2.954411 1_555
Li15 S4 2.405296 1_565
Li15 S2 2.475589 1_554
Li15 Sb5 2.869574 1_565
Li15 Sb4 2.954411 1_555
Li16 S5 2.392965 1_555
Li16 S4 2.392965 1_555
Li16 Sb5 2.724922 1_655
Li16 Sb3 2.799884 1_554
Li17 S4 2.444550 1_565
Li17 S5 2.444550 1_555
Li17 Sb4 2.896599 1_655
Li17 Sb2 3.058284 1_554
Li18 S5 2.399791 1_555
Li18 S4 2.399791 1_555
Li18 Sb5 2.899837 1_555
Li18 Sb7 2.990484 1_555
Li19 S7 2.478381 1_655
Li19 S5 2.529218 1_555
Li19 Sb5 2.883164 1_655
Li19 Sb4 3.054591 1_655
Li20 S6 2.478381 1_645
Li20 S4 2.529218 1_555
Li20 Sb5 2.883164 1_655
Li20 Sb4 3.054591 1_645
Li21 S5 2.478381 1_555
Li21 S7 2.529218 1_555
Li21 Sb6 2.883164 1_555
Li21 Sb7 3.054591 1_555
Li22 S4 2.478381 1_565
Li22 S6 2.529218 1_555
Li22 Sb6 2.883164 1_555
Li22 Sb7 3.054591 1_565
Li23 S6 2.399791 1_655
Li23 S7 2.399791 1_655
Li23 Sb6 2.899837 1_555
Li23 Sb4 2.990484 1_655
Li24 S7 2.444550 1_555
Li24 S6 2.444550 1_545
Li24 Sb7 2.896599 1_555
Li24 Sb1 3.058284 1_555
Li25 S6 2.392965 1_555
Li25 S7 2.392965 1_555
Li25 Sb6 2.724922 1_555
Li25 Sb0 2.799884 1_555
Li26 S7 2.405296 1_655
Li26 S1 2.475589 1_555
Li26 Sb6 2.869574 1_555
Li26 Sb7 2.954411 1_555
Li27 S6 2.405296 1_645
Li27 S0 2.475589 1_555
Li27 Sb6 2.869574 1_545
Li27 Sb7 2.954411 1_555
Sb0 Sb6 2.791330 1_555
Sb1 Sb7 2.791330 1_555
Sb2 Sb4 2.791330 1_656
Sb3 Sb5 2.791330 1_656
