# generated using pymatgen
data_Li3Ni3OF7
_symmetry_space_group_name_H-M   'P 1'
_cell_length_a   6.01978701
_cell_length_b   6.01501727
_cell_length_c   10.33760869
_cell_angle_alpha   90.00114566
_cell_angle_beta   73.02439260
_cell_angle_gamma   119.97241743
_symmetry_Int_Tables_number   1
_chemical_formula_structural   Li3Ni3OF7
_chemical_formula_sum   'Li6 Ni6 O2 F14'
_cell_volume   305.28640529
_cell_formula_units_Z   2
loop_
 _symmetry_equiv_pos_site_id
 _symmetry_equiv_pos_as_xyz
  1  'x, y, z'
loop_
 _atom_site_type_symbol
 _atom_site_label
 _atom_site_symmetry_multiplicity
 _atom_site_fract_x
 _atom_site_fract_y
 _atom_site_fract_z
 _atom_site_occupancy
  Li  Li0  1  0.99939700  0.99970100  0.00103200  1
  Li  Li1  1  0.99939900  0.49970600  0.50102800  1
  Li  Li2  1  0.74266600  0.87134800  0.38601500  1
  Li  Li3  1  0.74271000  0.37135900  0.88596300  1
  Li  Li4  1  0.37579300  0.68789000  0.93619500  1
  Li  Li5  1  0.37578500  0.18788500  0.43618900  1
  Ni  Ni0  1  0.38511900  0.43315700  0.18177300  1
  Ni  Ni1  1  0.38514400  0.95202400  0.18176200  1
  Ni  Ni2  1  0.86646000  0.43324900  0.18191600  1
  Ni  Ni3  1  0.38509200  0.93299900  0.68180400  1
  Ni  Ni4  1  0.38531000  0.45204800  0.68171600  1
  Ni  Ni5  1  0.86612200  0.93306800  0.68183000  1
  O  O0  1  0.61407200  0.80706200  0.57974100  1
  O  O1  1  0.61414600  0.30708400  0.07967400  1
  F  F0  1  0.13515000  0.56758200  0.29591200  1
  F  F1  1  0.13516200  0.06758400  0.79591700  1
  F  F2  1  0.14435100  0.57216000  0.81010500  1
  F  F3  1  0.14437000  0.07218800  0.31012900  1
  F  F4  1  0.61673400  0.57198600  0.81048500  1
  F  F5  1  0.61653700  0.07180900  0.31052000  1
  F  F6  1  0.61663300  0.04472500  0.81050500  1
  F  F7  1  0.61653800  0.54473900  0.31052100  1
  F  F8  1  0.13282100  0.33088700  0.06642600  1
  F  F9  1  0.13280800  0.83088500  0.56639100  1
  F  F10  1  0.13282200  0.80194200  0.06643000  1
  F  F11  1  0.13283100  0.30193400  0.56643000  1
  F  F12  1  0.60301400  0.80151200  0.06680200  1
  F  F13  1  0.60301100  0.30148900  0.56679600  1
loop_
_geom_bond_atom_site_label_1
_geom_bond_atom_site_label_2
_geom_bond_distance
_geom_bond_site_symmetry_2
Li2 O0 1.885503 1_555
Li3 O1 1.885357 1_556
Ni0 O1 1.945444 1_555
Ni1 O1 1.945301 1_565
Ni2 O1 1.945688 1_555
Ni3 O0 1.944500 1_555
Ni4 O0 1.944701 1_555
Ni5 O0 1.943285 1_555
F0 Li1 1.996366 1_455
F0 Ni2 2.113038 1_455
F0 Ni0 2.118771 1_555
F0 Ni1 2.119104 1_555
F1 Li0 1.996356 1_446
F1 Ni5 2.115326 1_445
F1 Ni3 2.119212 1_545
F1 Ni4 2.119388 1_555
F2 Li3 1.973471 1_455
F2 Li4 2.053305 1_555
F2 Ni3 2.074880 1_555
F2 Ni4 2.076156 1_555
F3 Li2 1.973787 1_445
F3 Li5 2.052934 1_555
F3 Ni1 2.075511 1_545
F3 Ni0 2.075672 1_555
F4 Li3 1.974881 1_555
F4 Li4 2.046512 1_555
F4 Ni4 2.076509 1_555
F4 Ni5 2.077541 1_555
F5 Li2 1.974910 1_545
F5 Li5 2.046260 1_555
F5 Ni1 2.076275 1_545
F5 Ni2 2.078834 1_555
F6 Li3 1.974928 1_555
F6 Li4 2.046460 1_545
F6 Ni3 2.076394 1_545
F6 Ni5 2.077822 1_545
F7 Li2 1.974997 1_555
F7 Li5 2.046442 1_555
F7 Ni0 2.076299 1_555
F7 Ni2 2.078644 1_555
F8 Li0 1.946496 1_445
F8 Ni0 2.056921 1_555
F8 Ni2 2.060109 1_455
F8 Li4 2.067627 1_554
F9 Li1 1.946311 1_455
F9 Ni3 2.057465 1_555
F9 Ni5 2.060667 1_455
F9 Li5 2.067481 1_565
F10 Li0 1.946500 1_455
F10 Ni1 2.056921 1_555
F10 Ni2 2.060049 1_455
F10 Li4 2.067649 1_554
F11 Li1 1.946618 1_455
F11 Ni4 2.057207 1_555
F11 Ni5 2.060602 1_445
F11 Li5 2.067595 1_555
F12 Li0 1.946174 1_555
F12 Ni0 2.056263 1_555
F12 Ni1 2.056275 1_555
F12 Li4 2.074917 1_554
F13 Li1 1.946198 1_555
F13 Ni4 2.055626 1_555
F13 Ni3 2.057019 1_545
F13 Li5 2.074937 1_555
