# generated using pymatgen
data_K2CaCu(NO2)6
_symmetry_space_group_name_H-M   'P 1'
_cell_length_a   7.57173064
_cell_length_b   7.56374018
_cell_length_c   7.36898142
_cell_angle_alpha   60.91932847
_cell_angle_beta   60.81079408
_cell_angle_gamma   58.26987746
_symmetry_Int_Tables_number   1
_chemical_formula_structural   K2CaCu(NO2)6
_chemical_formula_sum   'K2 Ca1 Cu1 N6 O12'
_cell_volume   298.01567403
_cell_formula_units_Z   1
loop_
 _symmetry_equiv_pos_site_id
 _symmetry_equiv_pos_as_xyz
  1  'x, y, z'
loop_
 _atom_site_type_symbol
 _atom_site_label
 _atom_site_symmetry_multiplicity
 _atom_site_fract_x
 _atom_site_fract_y
 _atom_site_fract_z
 _atom_site_occupancy
  K  K0  1  0.25000000  0.25000000  0.25000000  1
  K  K1  1  0.75000000  0.75000000  0.75000000  1
  Ca  Ca0  1  0.50000000  0.50000000  0.50000000  1
  Cu  Cu0  1  0.00000000  0.00000000  0.00000000  1
  N  N0  1  0.80131900  0.19868100  0.80131900  1
  N  N1  1  0.19868100  0.80131900  0.19868100  1
  N  N2  1  0.77949300  0.77949300  0.22050700  1
  N  N3  1  0.22050700  0.22050700  0.77949300  1
  N  N4  1  0.80127600  0.19872400  0.19872400  1
  N  N5  1  0.19872400  0.80127600  0.80127600  1
  O  O0  1  0.16354200  0.64060700  0.83645800  1
  O  O1  1  0.83645800  0.35939300  0.16354200  1
  O  O2  1  0.64060700  0.16354200  0.35939300  1
  O  O3  1  0.61487300  0.82014400  0.17985600  1
  O  O4  1  0.82014400  0.61487300  0.38512700  1
  O  O5  1  0.17985600  0.38512700  0.61487300  1
  O  O6  1  0.36450500  0.63549500  0.15786800  1
  O  O7  1  0.84213200  0.15786800  0.63549500  1
  O  O8  1  0.15786800  0.84213200  0.36450500  1
  O  O9  1  0.63549500  0.36450500  0.84213200  1
  O  O10  1  0.38512700  0.17985600  0.82014400  1
  O  O11  1  0.35939300  0.83645800  0.64060700  1
loop_
_geom_bond_atom_site_label_1
_geom_bond_atom_site_label_2
_geom_bond_distance
_geom_bond_site_symmetry_2
K0 O4 3.043605 1_455
K0 O10 3.043605 1_554
K0 O5 3.043605 1_555
K0 O3 3.043605 1_545
K0 O2 3.098931 1_555
K0 O11 3.098931 1_545
K0 O0 3.098931 1_554
K0 O1 3.098931 1_455
K0 O6 3.142451 1_555
K0 O9 3.142451 1_554
K0 O7 3.142451 1_455
K0 O8 3.142451 1_545
K1 O10 3.043605 1_565
K1 O4 3.043605 1_555
K1 O3 3.043605 1_556
K1 O5 3.043605 1_655
K1 O0 3.098931 1_655
K1 O1 3.098931 1_556
K1 O2 3.098931 1_565
K1 O11 3.098931 1_555
K1 O7 3.142451 1_565
K1 O8 3.142451 1_655
K1 O6 3.142451 1_556
K1 O9 3.142451 1_555
Ca0 O10 2.616568 1_555
Ca0 O4 2.616568 1_555
Ca0 O5 2.616568 1_555
Ca0 O3 2.616568 1_555
Ca0 O11 2.705710 1_555
Ca0 O0 2.705710 1_555
Ca0 O1 2.705710 1_555
Ca0 O2 2.705710 1_555
Ca0 O9 2.713744 1_555
Ca0 O7 2.713744 1_555
Ca0 O8 2.713744 1_555
Ca0 O6 2.713744 1_555
Cu0 N4 2.068658 1_455
Cu0 N5 2.068658 1_544
Cu0 N0 2.072821 1_454
Cu0 N1 2.072821 1_545
Cu0 N3 2.420347 1_554
Cu0 N2 2.420347 1_445
N0 O9 1.257770 1_555
N0 O7 1.257770 1_555
N1 O8 1.257770 1_555
N1 O6 1.257770 1_555
N2 O3 1.268650 1_555
N2 O4 1.268650 1_555
N3 O5 1.268650 1_555
N3 O10 1.268650 1_555
N4 O1 1.257741 1_555
N4 O2 1.257741 1_555
N5 O11 1.257741 1_555
N5 O0 1.257741 1_555
