# generated using pymatgen
data_Na3VO4
_symmetry_space_group_name_H-M   'P 1'
_cell_length_a   5.88002125
_cell_length_b   5.88002125
_cell_length_c   5.88002125
_cell_angle_alpha   129.78122440
_cell_angle_beta   129.78122440
_cell_angle_gamma   73.75675631
_symmetry_Int_Tables_number   1
_chemical_formula_structural   Na3VO4
_chemical_formula_sum   'Na3 V1 O4'
_cell_volume   117.13382962
_cell_formula_units_Z   1
loop_
 _symmetry_equiv_pos_site_id
 _symmetry_equiv_pos_as_xyz
  1  'x, y, z'
loop_
 _atom_site_type_symbol
 _atom_site_label
 _atom_site_symmetry_multiplicity
 _atom_site_fract_x
 _atom_site_fract_y
 _atom_site_fract_z
 _atom_site_occupancy
  Na  Na0  1  0.50000000  0.50000000  0.00000000  1
  Na  Na1  1  0.75000000  0.25000000  0.50000000  1
  Na  Na2  1  0.25000000  0.75000000  0.50000000  1
  V  V0  1  0.00000000  0.00000000  0.00000000  1
  O  O0  1  0.69441502  0.09553381  -0.00000000  1
  O  O1  1  0.30558498  0.30558498  0.40111879  1
  O  O2  1  0.90446619  0.90446619  0.59888121  1
  O  O3  1  0.09553381  0.69441502  -0.00000000  1
loop_
_geom_bond_atom_site_label_1
_geom_bond_atom_site_label_2
_geom_bond_distance
_geom_bond_site_symmetry_2
Na0 O2 2.332817 1_555
Na0 O3 2.332817 1_555
Na0 O0 2.332817 1_555
Na0 O1 2.332817 1_554
Na1 O0 2.257115 1_555
Na1 O1 2.257115 1_555
Na1 O3 2.257115 1_656
Na1 O2 2.257115 1_545
Na2 O3 2.257115 1_555
Na2 O0 2.257115 1_566
Na2 O1 2.257115 1_555
Na2 O2 2.257115 1_455
O0 V0 1.726134 1_655
O1 V0 1.726134 1_555
O2 V0 1.726134 1_666
O3 V0 1.726134 1_565
