# generated using pymatgen
data_Fe2O3F
_symmetry_space_group_name_H-M   'P 1'
_cell_length_a   4.67041034
_cell_length_b   7.61729420
_cell_length_c   9.81332602
_cell_angle_alpha   109.64886593
_cell_angle_beta   92.66859258
_cell_angle_gamma   88.59836857
_symmetry_Int_Tables_number   1
_chemical_formula_structural   Fe2O3F
_chemical_formula_sum   'Fe10 O15 F5'
_cell_volume   328.41808508
_cell_formula_units_Z   5
loop_
 _symmetry_equiv_pos_site_id
 _symmetry_equiv_pos_as_xyz
  1  'x, y, z'
loop_
 _atom_site_type_symbol
 _atom_site_label
 _atom_site_symmetry_multiplicity
 _atom_site_fract_x
 _atom_site_fract_y
 _atom_site_fract_z
 _atom_site_occupancy
  Fe  Fe0  1  0.51623400  0.28886900  0.90105200  1
  Fe  Fe1  1  0.47114400  0.09866200  0.31414800  1
  Fe  Fe2  1  0.46947800  0.89257700  0.70759000  1
  Fe  Fe3  1  0.54120400  0.71250500  0.10037300  1
  Fe  Fe4  1  0.52588800  0.50396700  0.48173600  1
  Fe  Fe5  1  0.96421400  0.60479500  0.80085700  1
  Fe  Fe6  1  0.99240600  0.20383000  0.60435500  1
  Fe  Fe7  1  0.00256100  0.80558100  0.39896700  1
  Fe  Fe8  1  0.00643000  0.39723300  0.19261900  1
  Fe  Fe9  1  0.02206400  0.99335000  0.99657500  1
  O  O0  1  0.81077700  0.76215500  0.97799600  1
  O  O1  1  0.82509800  0.56259100  0.36640500  1
  O  O2  1  0.80285300  0.36567100  0.77904900  1
  O  O3  1  0.69449700  0.04765400  0.87685600  1
  O  O4  1  0.68309400  0.66011700  0.66894300  1
  O  O5  1  0.70103500  0.45873800  0.07606100  1
  O  O6  1  0.69904000  0.86575100  0.28799200  1
  O  O7  1  0.69187100  0.27015000  0.47983900  1
  O  O8  1  0.30130800  0.13401900  0.72618200  1
  O  O9  1  0.30693500  0.73709200  0.51707300  1
  O  O10  1  0.30387000  0.34410600  0.32029800  1
  O  O11  1  0.30443400  0.94092300  0.12627600  1
  O  O12  1  0.18101400  0.04276900  0.43427500  1
  O  O13  1  0.18571300  0.82384200  0.81898100  1
  O  O14  1  0.19073600  0.23867700  0.02281600  1
  F  F0  1  0.79647600  0.96101600  0.58365000  1
  F  F1  1  0.80374800  0.16058100  0.18063400  1
  F  F2  1  0.30561600  0.53775000  0.92008100  1
  F  F3  1  0.19214300  0.44302600  0.62482000  1
  F  F4  1  0.20811800  0.64200500  0.21350200  1
loop_
_geom_bond_atom_site_label_1
_geom_bond_atom_site_label_2
_geom_bond_distance
_geom_bond_site_symmetry_2
Fe0 O3 1.943133 1_555
Fe0 O5 1.947019 1_556
Fe0 O8 1.969776 1_555
Fe0 O2 2.055770 1_555
Fe0 O14 2.095194 1_556
Fe1 O11 1.967565 1_545
Fe1 O7 1.973395 1_555
Fe1 O12 1.980287 1_555
Fe1 O10 1.991608 1_555
Fe1 O6 1.993285 1_545
Fe2 O8 1.936391 1_565
Fe2 O4 1.942114 1_555
Fe2 O13 1.944015 1_555
Fe2 O3 1.958976 1_565
Fe2 O9 1.974118 1_555
Fe3 O0 1.907855 1_554
Fe3 O6 1.940688 1_555
Fe3 O11 1.987308 1_555
Fe3 O5 1.996635 1_555
Fe4 O10 1.918142 1_555
Fe4 O7 1.919621 1_555
Fe4 O4 1.943310 1_555
Fe4 O9 1.961994 1_555
Fe4 O1 1.987675 1_555
Fe5 O0 1.909130 1_555
Fe5 O2 1.929122 1_555
Fe5 O13 1.937417 1_655
Fe5 O4 1.938739 1_555
Fe6 O12 1.942624 1_655
Fe6 O2 1.977139 1_555
Fe6 O7 1.984735 1_555
Fe6 O8 2.005705 1_655
Fe7 O6 1.888306 1_455
Fe7 O12 1.924771 1_565
Fe7 O9 1.962964 1_555
Fe7 O1 1.966626 1_455
Fe8 O14 1.924985 1_555
Fe8 O5 1.933388 1_455
Fe8 O10 1.953169 1_555
Fe8 O1 1.962118 1_455
Fe9 O11 1.917929 1_556
Fe9 O13 1.962417 1_555
Fe9 O14 1.977002 1_566
Fe9 O0 1.990162 1_455
Fe9 O3 2.005085 1_465
F0 Fe6 2.027896 1_565
F0 Fe7 2.067965 1_655
F0 Fe2 2.172967 1_555
F1 Fe8 2.022367 1_655
F1 Fe9 2.117875 1_644
F1 Fe1 2.234530 1_555
F2 Fe0 2.069863 1_555
F2 Fe5 2.088145 1_455
F2 Fe3 2.102244 1_556
F3 Fe6 2.012449 1_455
F3 Fe5 2.076392 1_455
F3 Fe4 2.300922 1_555
F4 Fe8 2.053446 1_555
F4 Fe7 2.089448 1_555
F4 Fe3 2.131558 1_555
