# generated using pymatgen
data_LiCrO2
_symmetry_space_group_name_H-M   'P 1'
_cell_length_a   5.82959058
_cell_length_b   5.82958826
_cell_length_c   5.82837690
_cell_angle_alpha   60.00685726
_cell_angle_beta   60.00689242
_cell_angle_gamma   60.01627119
_symmetry_Int_Tables_number   1
_chemical_formula_structural   LiCrO2
_chemical_formula_sum   'Li4 Cr4 O8'
_cell_volume   140.08998058
_cell_formula_units_Z   4
loop_
 _symmetry_equiv_pos_site_id
 _symmetry_equiv_pos_as_xyz
  1  'x, y, z'
loop_
 _atom_site_type_symbol
 _atom_site_label
 _atom_site_symmetry_multiplicity
 _atom_site_fract_x
 _atom_site_fract_y
 _atom_site_fract_z
 _atom_site_occupancy
  Li  Li0  1  0.00000000  0.50000000  0.50000000  1
  Li  Li1  1  0.50000000  -0.00000000  0.50000000  1
  Li  Li2  1  0.50000000  0.50000000  0.00000000  1
  Li  Li3  1  0.50000000  0.50000000  0.50000000  1
  Cr  Cr0  1  0.00000000  -0.00000000  0.00000000  1
  Cr  Cr1  1  0.00000000  -0.00000000  0.50000000  1
  Cr  Cr2  1  0.00000000  0.50000000  0.00000000  1
  Cr  Cr3  1  0.50000000  -0.00000000  0.00000000  1
  O  O0  1  0.24211995  0.24211995  0.24211811  1
  O  O1  1  0.24208543  0.77368034  0.24211761  1
  O  O2  1  0.24211995  0.24211995  0.77364299  1
  O  O3  1  0.22631866  0.75791457  0.75788239  1
  O  O4  1  0.77368134  0.24208543  0.24211761  1
  O  O5  1  0.75788005  0.75788005  0.22635701  1
  O  O6  1  0.75791457  0.22631966  0.75788239  1
  O  O7  1  0.75788005  0.75788005  0.75788189  1
loop_
_geom_bond_atom_site_label_1
_geom_bond_atom_site_label_2
_geom_bond_distance
_geom_bond_site_symmetry_2
Li0 O6 2.128014 1_455
Li0 O1 2.128014 1_555
Li0 O0 2.128040 1_555
Li0 O7 2.128040 1_455
Li0 O5 2.128043 1_455
Li0 O2 2.128043 1_555
Li1 O4 2.128018 1_555
Li1 O3 2.128018 1_545
Li1 O0 2.128039 1_555
Li1 O7 2.128039 1_545
Li1 O2 2.128044 1_555
Li1 O5 2.128044 1_545
Li2 O0 2.127980 1_555
Li2 O7 2.127980 1_554
Li2 O6 2.128252 1_554
Li2 O1 2.128252 1_555
Li2 O3 2.128256 1_554
Li2 O4 2.128256 1_555
Li3 O2 2.127980 1_555
Li3 O5 2.127980 1_555
Li3 O1 2.128247 1_555
Li3 O6 2.128247 1_555
Li3 O3 2.128249 1_555
Li3 O4 2.128249 1_555
Cr0 O1 1.998081 1_545
Cr0 O6 1.998081 1_454
Cr0 O4 1.998082 1_455
Cr0 O3 1.998082 1_544
Cr0 O5 1.998181 1_445
Cr0 O2 1.998181 1_554
Cr1 O4 1.998073 1_455
Cr1 O3 1.998073 1_545
Cr1 O1 1.998078 1_545
Cr1 O6 1.998078 1_455
Cr1 O0 1.998181 1_555
Cr1 O7 1.998181 1_445
Cr2 O3 1.998165 1_554
Cr2 O4 1.998165 1_455
Cr2 O5 1.998275 1_455
Cr2 O2 1.998275 1_554
Cr2 O7 1.998279 1_454
Cr2 O0 1.998279 1_555
Cr3 O6 1.998169 1_554
Cr3 O1 1.998169 1_545
Cr3 O5 1.998275 1_545
Cr3 O2 1.998275 1_554
Cr3 O0 1.998279 1_555
Cr3 O7 1.998279 1_544
