# generated using pymatgen
data_Na2FeO2
_symmetry_space_group_name_H-M   'P 1'
_cell_length_a   3.00652200
_cell_length_b   10.13243480
_cell_length_c   10.13224212
_cell_angle_alpha   65.82649315
_cell_angle_beta   81.46831886
_cell_angle_gamma   98.53177862
_symmetry_Int_Tables_number   1
_chemical_formula_structural   Na2FeO2
_chemical_formula_sum   'Na8 Fe4 O8'
_cell_volume   270.89642658
_cell_formula_units_Z   4
loop_
 _symmetry_equiv_pos_site_id
 _symmetry_equiv_pos_as_xyz
  1  'x, y, z'
loop_
 _atom_site_type_symbol
 _atom_site_label
 _atom_site_symmetry_multiplicity
 _atom_site_fract_x
 _atom_site_fract_y
 _atom_site_fract_z
 _atom_site_occupancy
  Na  Na0  1  0.14359900  0.47723100  0.19004500  1
  Na  Na1  1  0.14360200  0.97723300  0.69004400  1
  Na  Na2  1  0.85639900  0.44004200  0.72723100  1
  Na  Na3  1  0.85638900  0.94003900  0.22723100  1
  Na  Na4  1  0.39120400  0.81479200  0.03239100  1
  Na  Na5  1  0.39119700  0.31479600  0.53239300  1
  Na  Na6  1  0.60880900  0.28238700  0.06478700  1
  Na  Na7  1  0.60881000  0.78238300  0.56479100  1
  Fe  Fe0  1  0.12249100  0.62440600  0.37937200  1
  Fe  Fe1  1  0.87749000  0.12936400  0.37439900  1
  Fe  Fe2  1  0.12252000  0.12440800  0.87936800  1
  Fe  Fe3  1  0.87748300  0.62936000  0.87440000  1
  O  O0  1  0.27275400  0.47477800  0.92927200  1
  O  O1  1  0.27274800  0.97477700  0.42927000  1
  O  O2  1  0.72726500  0.67928000  0.22476400  1
  O  O3  1  0.72726200  0.17928500  0.72476500  1
  O  O4  1  0.48486700  0.78116300  0.81145900  1
  O  O5  1  0.48486200  0.28116400  0.31146300  1
  O  O6  1  0.51512200  0.06144200  0.03116900  1
  O  O7  1  0.51512800  0.56145100  0.53116600  1
loop_
_geom_bond_atom_site_label_1
_geom_bond_atom_site_label_2
_geom_bond_distance
_geom_bond_site_symmetry_2
Na0 O5 2.343195 1_455
Na0 O5 2.343196 1_555
Na0 O0 2.623914 1_554
Na0 O2 2.664828 1_455
Na0 O2 2.664836 1_555
Na1 O4 2.343205 1_455
Na1 O4 2.343213 1_555
Na1 O1 2.623938 1_555
Na1 O3 2.664859 1_565
Na1 O3 2.664873 1_465
Na2 O7 2.343148 1_655
Na2 O7 2.343154 1_555
Na2 O3 2.623861 1_555
Na2 O0 2.664814 1_555
Na2 O0 2.664822 1_655
Na3 O6 2.343110 1_565
Na3 O6 2.343137 1_665
Na3 O2 2.623886 1_555
Na3 O1 2.664803 1_555
Na3 O1 2.664819 1_655
Na4 O2 2.347229 1_555
Na4 O2 2.347241 1_455
Na4 O4 2.381720 1_554
Na4 O6 2.466131 1_565
Na5 O3 2.347227 1_555
Na5 O3 2.347227 1_455
Na5 O5 2.381717 1_555
Na5 O7 2.466159 1_555
Na6 O0 2.347354 1_654
Na6 O0 2.347363 1_554
Na6 O6 2.381826 1_555
Na6 O5 2.466340 1_555
Na7 O1 2.347362 1_655
Na7 O1 2.347415 1_555
Na7 O7 2.381736 1_555
Na7 O4 2.466273 1_555
Fe0 O7 2.030863 1_455
Fe0 O7 2.030893 1_555
Fe0 O2 2.051851 1_455
Fe0 O2 2.052017 1_555
Fe1 O5 2.030920 1_555
Fe1 O5 2.030953 1_655
Fe1 O1 2.051785 1_645
Fe1 O1 2.051857 1_545
Fe2 O6 2.030876 1_556
Fe2 O6 2.030962 1_456
Fe2 O3 2.051885 1_455
Fe2 O3 2.051915 1_555
Fe3 O4 2.030920 1_555
Fe3 O4 2.030988 1_655
Fe3 O0 2.051777 1_655
Fe3 O0 2.051800 1_555
