# generated using pymatgen
data_K2CoP4(HO2)8
_symmetry_space_group_name_H-M   'P 1'
_cell_length_a   9.83883800
_cell_length_b   11.12290800
_cell_length_c   13.45935400
_cell_angle_alpha   90.00000000
_cell_angle_beta   90.00000000
_cell_angle_gamma   90.00000000
_symmetry_Int_Tables_number   1
_chemical_formula_structural   K2CoP4(HO2)8
_chemical_formula_sum   'K8 Co4 P16 H32 O64'
_cell_volume   1472.94445809
_cell_formula_units_Z   4
loop_
 _symmetry_equiv_pos_site_id
 _symmetry_equiv_pos_as_xyz
  1  'x, y, z'
loop_
 _atom_site_type_symbol
 _atom_site_label
 _atom_site_symmetry_multiplicity
 _atom_site_fract_x
 _atom_site_fract_y
 _atom_site_fract_z
 _atom_site_occupancy
  K  K0  1  0.05262000  0.25000000  0.60348900  1
  K  K1  1  0.24782000  0.25000000  0.12434100  1
  K  K2  1  0.25218000  0.75000000  0.62434100  1
  K  K3  1  0.44738000  0.75000000  0.10348900  1
  K  K4  1  0.55262000  0.25000000  0.89651100  1
  K  K5  1  0.74782000  0.25000000  0.37565900  1
  K  K6  1  0.75218000  0.75000000  0.87565900  1
  K  K7  1  0.94738000  0.75000000  0.39651100  1
  Co  Co0  1  0.16548500  0.25000000  0.86029000  1
  Co  Co1  1  0.33451500  0.75000000  0.36029000  1
  Co  Co2  1  0.66548500  0.25000000  0.63971000  1
  Co  Co3  1  0.83451500  0.75000000  0.13971000  1
  P  P0  1  0.06044800  0.51774200  0.77574300  1
  P  P1  1  0.06044800  0.98225800  0.77574300  1
  P  P2  1  0.24859600  0.01571700  0.44275300  1
  P  P3  1  0.24859600  0.48428300  0.44275300  1
  P  P4  1  0.25140400  0.51571700  0.94275300  1
  P  P5  1  0.25140400  0.98428300  0.94275300  1
  P  P6  1  0.43955200  0.48225800  0.27574300  1
  P  P7  1  0.43955200  0.01774200  0.27574300  1
  P  P8  1  0.56044800  0.51774200  0.72425700  1
  P  P9  1  0.56044800  0.98225800  0.72425700  1
  P  P10  1  0.74859600  0.01571700  0.05724700  1
  P  P11  1  0.74859600  0.48428300  0.05724700  1
  P  P12  1  0.75140400  0.51571700  0.55724700  1
  P  P13  1  0.75140400  0.98428300  0.55724700  1
  P  P14  1  0.93955200  0.01774200  0.22425700  1
  P  P15  1  0.93955200  0.48225800  0.22425700  1
  H  H0  1  0.03914700  0.67823300  0.02086200  1
  H  H1  1  0.03914700  0.82176700  0.02086200  1
  H  H2  1  0.04075900  0.08079200  0.40116700  1
  H  H3  1  0.04075900  0.41920800  0.40116700  1
  H  H4  1  0.10000500  0.02307100  0.10919400  1
  H  H5  1  0.10000500  0.47692900  0.10919400  1
  H  H6  1  0.13559500  0.68105500  0.22347700  1
  H  H7  1  0.13559500  0.81894500  0.22347700  1
  H  H8  1  0.36440500  0.18105500  0.72347700  1
  H  H9  1  0.36440500  0.31894500  0.72347700  1
  H  H10  1  0.39999500  0.52307100  0.60919400  1
  H  H11  1  0.39999500  0.97692900  0.60919400  1
  H  H12  1  0.45924100  0.58079200  0.90116700  1
  H  H13  1  0.45924100  0.91920800  0.90116700  1
  H  H14  1  0.46085300  0.17823300  0.52086200  1
  H  H15  1  0.46085300  0.32176700  0.52086200  1
  H  H16  1  0.53914700  0.82176700  0.47913800  1
  H  H17  1  0.53914700  0.67823300  0.47913800  1
  H  H18  1  0.54075900  0.08079200  0.09883300  1
  H  H19  1  0.54075900  0.41920800  0.09883300  1
  H  H20  1  0.60000500  0.02307100  0.39080600  1
  H  H21  1  0.60000500  0.47692900  0.39080600  1
  H  H22  1  0.63559500  0.81894500  0.27652300  1
  H  H23  1  0.63559500  0.68105500  0.27652300  1
  H  H24  1  0.86440500  0.18105500  0.77652300  1
  H  H25  1  0.86440500  0.31894500  0.77652300  1
  H  H26  1  0.89999500  0.52307100  0.89080600  1
  H  H27  1  0.89999500  0.97692900  0.89080600  1
  H  H28  1  0.95924100  0.91920800  0.59883300  1
  H  H29  1  0.95924100  0.58079200  0.59883300  1
  H  H30  1  0.96085300  0.17823300  0.97913800  1
  H  H31  1  0.96085300  0.32176700  0.97913800  1
  O  O0  1  0.02101100  0.25000000  0.97474500  1
  O  O1  1  0.05161200  0.11895100  0.78167100  1
  O  O2  1  0.05161200  0.38104900  0.78167100  1
  O  O3  1  0.06525500  0.07392300  0.16841300  1
  O  O4  1  0.06525500  0.42607700  0.16841300  1
  O  O5  1  0.07374900  0.57250400  0.67360300  1
  O  O6  1  0.07374900  0.92749600  0.67360300  1
  O  O7  1  0.11588000  0.09300800  0.45431600  1
  O  O8  1  0.11588000  0.40699200  0.45431600  1
  O  O9  1  0.15179700  0.55275800  0.02297700  1
  O  O10  1  0.15179700  0.94724200  0.02297700  1
  O  O11  1  0.19418200  0.56267900  0.83570600  1
  O  O12  1  0.19418200  0.93732100  0.83570600  1
  O  O13  1  0.19740500  0.75000000  0.23307300  1
  O  O14  1  0.21753200  0.61802200  0.43390600  1
  O  O15  1  0.21753200  0.88197800  0.43390600  1
  O  O16  1  0.28246800  0.11802200  0.93390600  1
  O  O17  1  0.28246800  0.38197800  0.93390600  1
  O  O18  1  0.30259500  0.25000000  0.73307300  1
  O  O19  1  0.30581800  0.06267900  0.33570600  1
  O  O20  1  0.30581800  0.43732100  0.33570600  1
  O  O21  1  0.34820300  0.05275800  0.52297700  1
  O  O22  1  0.34820300  0.44724200  0.52297700  1
  O  O23  1  0.38412000  0.59300800  0.95431600  1
  O  O24  1  0.38412000  0.90699200  0.95431600  1
  O  O25  1  0.42625100  0.42749600  0.17360300  1
  O  O26  1  0.42625100  0.07250400  0.17360300  1
  O  O27  1  0.43474500  0.57392300  0.66841300  1
  O  O28  1  0.43474500  0.92607700  0.66841300  1
  O  O29  1  0.44838800  0.61895100  0.28167100  1
  O  O30  1  0.44838800  0.88104900  0.28167100  1
  O  O31  1  0.47898900  0.75000000  0.47474500  1
  O  O32  1  0.52101100  0.25000000  0.52525500  1
  O  O33  1  0.55161200  0.11895100  0.71832900  1
  O  O34  1  0.55161200  0.38104900  0.71832900  1
  O  O35  1  0.56525500  0.07392300  0.33158700  1
  O  O36  1  0.56525500  0.42607700  0.33158700  1
  O  O37  1  0.57374900  0.57250400  0.82639700  1
  O  O38  1  0.57374900  0.92749600  0.82639700  1
  O  O39  1  0.61588000  0.09300800  0.04568400  1
  O  O40  1  0.61588000  0.40699200  0.04568400  1
  O  O41  1  0.65179700  0.55275800  0.47702300  1
  O  O42  1  0.65179700  0.94724200  0.47702300  1
  O  O43  1  0.69418200  0.56267900  0.66429400  1
  O  O44  1  0.69418200  0.93732100  0.66429400  1
  O  O45  1  0.69740500  0.75000000  0.26692700  1
  O  O46  1  0.71753200  0.61802200  0.06609400  1
  O  O47  1  0.71753200  0.88197800  0.06609400  1
  O  O48  1  0.78246800  0.11802200  0.56609400  1
  O  O49  1  0.78246800  0.38197800  0.56609400  1
  O  O50  1  0.80259500  0.25000000  0.76692700  1
  O  O51  1  0.80581800  0.06267900  0.16429400  1
  O  O52  1  0.80581800  0.43732100  0.16429400  1
  O  O53  1  0.84820300  0.05275800  0.97702300  1
  O  O54  1  0.84820300  0.44724200  0.97702300  1
  O  O55  1  0.88412000  0.59300800  0.54568400  1
  O  O56  1  0.88412000  0.90699200  0.54568400  1
  O  O57  1  0.92625100  0.07250400  0.32639700  1
  O  O58  1  0.92625100  0.42749600  0.32639700  1
  O  O59  1  0.93474500  0.57392300  0.83158700  1
  O  O60  1  0.93474500  0.92607700  0.83158700  1
  O  O61  1  0.94838800  0.61895100  0.21832900  1
  O  O62  1  0.94838800  0.88104900  0.21832900  1
  O  O63  1  0.97898900  0.75000000  0.02525500  1
loop_
_geom_bond_atom_site_label_1
_geom_bond_atom_site_label_2
_geom_bond_distance
_geom_bond_site_symmetry_2
K0 O8 2.732724 1_555
K0 O7 2.732724 1_555
K0 O2 2.806468 1_555
K0 O1 2.806468 1_555
K0 O18 3.015113 1_555
K0 O49 3.077849 1_455
K0 O48 3.077849 1_455
K1 O3 2.722861 1_555
K1 O4 2.722861 1_555
K1 O25 2.723845 1_555
K1 O26 2.723845 1_555
K1 O17 2.973351 1_554
K1 O16 2.973351 1_554
K1 O0 3.005628 1_554
K2 O28 2.722861 1_555
K2 O27 2.722861 1_555
K2 O5 2.723845 1_555
K2 O6 2.723845 1_555
K2 O15 2.973351 1_555
K2 O14 2.973351 1_555
K2 O31 3.005628 1_555
K3 O24 2.732724 1_554
K3 O23 2.732724 1_554
K3 O30 2.806468 1_555
K3 O29 2.806468 1_555
K3 O13 3.015113 1_555
K3 O47 3.077849 1_555
K3 O46 3.077849 1_555
K4 O40 2.732724 1_556
K4 O39 2.732724 1_556
K4 O34 2.806468 1_555
K4 O33 2.806468 1_555
K4 O50 3.015113 1_555
K4 O17 3.077849 1_555
K4 O16 3.077849 1_555
K5 O35 2.722861 1_555
K5 O36 2.722861 1_555
K5 O57 2.723845 1_555
K5 O58 2.723845 1_555
K5 O49 2.973351 1_555
K5 O48 2.973351 1_555
K5 O32 3.005628 1_555
K6 O60 2.722861 1_555
K6 O59 2.722861 1_555
K6 O37 2.723845 1_555
K6 O38 2.723845 1_555
K6 O47 2.973351 1_556
K6 O46 2.973351 1_556
K6 O63 3.005628 1_556
K7 O56 2.732724 1_555
K7 O55 2.732724 1_555
K7 O62 2.806468 1_555
K7 O61 2.806468 1_555
K7 O45 3.015113 1_555
K7 O15 3.077849 1_655
K7 O14 3.077849 1_655
Co0 O0 2.096103 1_555
Co0 O17 2.112213 1_555
Co0 O16 2.112213 1_555
Co0 O2 2.121246 1_555
Co0 O1 2.121246 1_555
Co0 O18 2.179825 1_555
Co1 O31 2.096103 1_555
Co1 O15 2.112213 1_555
Co1 O14 2.112213 1_555
Co1 O30 2.121246 1_555
Co1 O29 2.121246 1_555
Co1 O13 2.179825 1_555
Co2 O32 2.096103 1_555
Co2 O49 2.112213 1_555
Co2 O48 2.112213 1_555
Co2 O34 2.121246 1_555
Co2 O33 2.121246 1_555
Co2 O50 2.179825 1_555
Co3 O63 2.096103 1_555
Co3 O47 2.112213 1_555
Co3 O46 2.112213 1_555
Co3 O62 2.121246 1_555
Co3 O61 2.121246 1_555
Co3 O45 2.179825 1_555
H0 O63 0.995509 1_455
H1 O63 0.995509 1_455
H2 O7 1.037528 1_555
H2 O57 1.513452 1_455
H3 O8 1.037528 1_555
H3 O58 1.513452 1_455
H4 O3 1.035428 1_555
H4 O10 1.522380 1_545
H5 O4 1.035428 1_555
H5 O9 1.522380 1_555
H6 O13 0.987219 1_555
H7 O13 0.987219 1_555
H8 O18 0.987219 1_555
H9 O18 0.987219 1_555
H10 O27 1.035428 1_555
H10 O22 1.522380 1_555
H11 O28 1.035428 1_555
H11 O21 1.522380 1_565
H12 O23 1.037528 1_555
H12 O37 1.513452 1_555
H13 O24 1.037528 1_555
H13 O38 1.513452 1_555
H14 O32 0.995509 1_555
H15 O32 0.995509 1_555
H16 O31 0.995509 1_555
H17 O31 0.995509 1_555
H18 O39 1.037528 1_555
H18 O26 1.513452 1_555
H19 O40 1.037528 1_555
H19 O25 1.513452 1_555
H20 O35 1.035428 1_555
H20 O42 1.522380 1_545
H21 O36 1.035428 1_555
H21 O41 1.522380 1_555
H22 O45 0.987219 1_555
H23 O45 0.987219 1_555
H24 O50 0.987219 1_555
H25 O50 0.987219 1_555
H26 O59 1.035428 1_555
H26 O54 1.522380 1_555
H27 O60 1.035428 1_555
H27 O53 1.522380 1_565
H28 O56 1.037528 1_555
H28 O6 1.513452 1_655
H29 O55 1.037528 1_555
H29 O5 1.513452 1_655
H30 O0 0.995509 1_655
H31 O0 0.995509 1_655
O1 P1 1.524996 1_545
O2 P0 1.524996 1_555
O3 P14 1.576400 1_455
O4 P15 1.576400 1_455
O5 P0 1.509321 1_555
O6 P1 1.509321 1_555
O7 P2 1.571097 1_555
O8 P3 1.571097 1_555
O9 P4 1.515279 1_554
O10 P5 1.515279 1_554
O11 P0 1.622491 1_555
O11 P4 1.632690 1_555
O12 P1 1.622491 1_555
O12 P5 1.632690 1_555
O14 P3 1.523301 1_555
O15 P2 1.523301 1_565
O16 P5 1.523301 1_545
O17 P4 1.523301 1_555
O19 P7 1.622491 1_555
O19 P2 1.632690 1_555
O20 P6 1.622491 1_555
O20 P3 1.632690 1_555
O21 P2 1.515279 1_555
O22 P3 1.515279 1_555
O23 P4 1.571097 1_555
O24 P5 1.571097 1_555
O25 P6 1.509321 1_555
O26 P7 1.509321 1_555
O27 P8 1.576400 1_555
O28 P9 1.576400 1_555
O29 P6 1.524996 1_555
O30 P7 1.524996 1_565
O33 P9 1.524996 1_545
O34 P8 1.524996 1_555
O35 P7 1.576400 1_555
O36 P6 1.576400 1_555
O37 P8 1.509321 1_555
O38 P9 1.509321 1_555
O39 P10 1.571097 1_555
O40 P11 1.571097 1_555
O41 P12 1.515279 1_555
O42 P13 1.515279 1_555
O43 P8 1.622491 1_555
O43 P12 1.632690 1_555
O44 P9 1.622491 1_555
O44 P13 1.632690 1_555
O46 P11 1.523301 1_555
O47 P10 1.523301 1_565
O48 P13 1.523301 1_545
O49 P12 1.523301 1_555
O51 P14 1.622491 1_555
O51 P10 1.632690 1_555
O52 P15 1.622491 1_555
O52 P11 1.632690 1_555
O53 P10 1.515279 1_556
O54 P11 1.515279 1_556
O55 P12 1.571097 1_555
O56 P13 1.571097 1_555
O57 P14 1.509321 1_555
O58 P15 1.509321 1_555
O59 P0 1.576400 1_655
O60 P1 1.576400 1_655
O61 P15 1.524996 1_555
O62 P14 1.524996 1_565
