# generated using pymatgen
data_H4NClO5
_symmetry_space_group_name_H-M   'P 1'
_cell_length_a   7.23231000
_cell_length_b   7.64689500
_cell_length_c   16.12397400
_cell_angle_alpha   90.00000000
_cell_angle_beta   90.00000000
_cell_angle_gamma   90.00000000
_symmetry_Int_Tables_number   1
_chemical_formula_structural   H4NClO5
_chemical_formula_sum   'H32 N8 Cl8 O40'
_cell_volume   891.73178960
_cell_formula_units_Z   8
loop_
 _symmetry_equiv_pos_site_id
 _symmetry_equiv_pos_as_xyz
  1  'x, y, z'
loop_
 _atom_site_type_symbol
 _atom_site_label
 _atom_site_symmetry_multiplicity
 _atom_site_fract_x
 _atom_site_fract_y
 _atom_site_fract_z
 _atom_site_occupancy
  H  H0  1  0.74822900  0.58646600  0.48150100  1
  H  H1  1  0.25177100  0.08646600  0.51849900  1
  H  H2  1  0.24822900  0.08646600  0.01849900  1
  H  H3  1  0.75177100  0.58646600  0.98150100  1
  H  H4  1  0.59388200  0.54018900  0.55729900  1
  H  H5  1  0.40611800  0.04018900  0.44270100  1
  H  H6  1  0.09388200  0.04018900  0.94270100  1
  H  H7  1  0.90611800  0.54018900  0.05729900  1
  H  H8  1  0.69666200  0.37406400  0.50530700  1
  H  H9  1  0.30333800  0.87406400  0.49469300  1
  H  H10  1  0.19666200  0.87406400  0.99469300  1
  H  H11  1  0.80333800  0.37406400  0.00530700  1
  H  H12  1  0.03386500  0.96145100  0.43725100  1
  H  H13  1  0.96613500  0.46145100  0.56274900  1
  H  H14  1  0.53386500  0.46145100  0.06274900  1
  H  H15  1  0.46613500  0.96145100  0.93725100  1
  H  H16  1  0.79182000  0.42941500  0.72917600  1
  H  H17  1  0.20818000  0.92941500  0.27082400  1
  H  H18  1  0.29182000  0.92941500  0.77082400  1
  H  H19  1  0.70818000  0.42941500  0.22917600  1
  H  H20  1  0.84392800  0.22128800  0.76034500  1
  H  H21  1  0.15607200  0.72128800  0.23965500  1
  H  H22  1  0.34392800  0.72128800  0.73965500  1
  H  H23  1  0.65607200  0.22128800  0.26034500  1
  H  H24  1  0.95828400  0.39231300  0.80106800  1
  H  H25  1  0.04171600  0.89231300  0.19893200  1
  H  H26  1  0.45828400  0.89231300  0.69893200  1
  H  H27  1  0.54171600  0.39231300  0.30106800  1
  H  H28  1  0.41551800  0.82938000  0.17692000  1
  H  H29  1  0.58448200  0.32938000  0.82308000  1
  H  H30  1  0.91551800  0.32938000  0.32308000  1
  H  H31  1  0.08448200  0.82938000  0.67692000  1
  N  N0  1  0.71484200  0.49974300  0.52862700  1
  N  N1  1  0.28515800  0.99974300  0.47137300  1
  N  N2  1  0.21484200  0.99974300  0.97137300  1
  N  N3  1  0.78515800  0.49974300  0.02862700  1
  N  N4  1  0.83125900  0.35079000  0.77840700  1
  N  N5  1  0.16874100  0.85079000  0.22159300  1
  N  N6  1  0.33125900  0.85079000  0.72159300  1
  N  N7  1  0.66874100  0.35079000  0.27840700  1
  Cl  Cl0  1  0.64967800  0.85255100  0.31721200  1
  Cl  Cl1  1  0.35032200  0.35255100  0.68278800  1
  Cl  Cl2  1  0.14967800  0.35255100  0.18278800  1
  Cl  Cl3  1  0.85032200  0.85255100  0.81721200  1
  Cl  Cl4  1  0.74551700  0.99993500  0.06459300  1
  Cl  Cl5  1  0.25448300  0.49993500  0.93540700  1
  Cl  Cl6  1  0.24551700  0.49993500  0.43540700  1
  Cl  Cl7  1  0.75448300  0.99993500  0.56459300  1
  O  O0  1  0.51348500  0.99651800  0.31604700  1
  O  O1  1  0.48651500  0.49651900  0.68395300  1
  O  O2  1  0.01348500  0.49651900  0.18395300  1
  O  O3  1  0.98651500  0.99651800  0.81604700  1
  O  O4  1  0.61012800  0.73564500  0.24714700  1
  O  O5  1  0.38987200  0.23564500  0.75285300  1
  O  O6  1  0.11012800  0.23564500  0.25285300  1
  O  O7  1  0.88987200  0.73564500  0.74714700  1
  O  O8  1  0.83458000  0.92597300  0.30913400  1
  O  O9  1  0.16542000  0.42597300  0.69086600  1
  O  O10  1  0.33458000  0.42597300  0.19086600  1
  O  O11  1  0.66542000  0.92597300  0.80913400  1
  O  O12  1  0.63220300  0.75676400  0.39463300  1
  O  O13  1  0.36779700  0.25676400  0.60536700  1
  O  O14  1  0.13220300  0.25676400  0.10536700  1
  O  O15  1  0.86779700  0.75676400  0.89463300  1
  O  O16  1  0.59000700  0.89326200  0.03443900  1
  O  O17  1  0.40999300  0.39326200  0.96556100  1
  O  O18  1  0.09000700  0.39326200  0.46556100  1
  O  O19  1  0.90999300  0.89326200  0.53443900  1
  O  O20  1  0.90044400  0.88415600  0.08453900  1
  O  O21  1  0.09955600  0.38415600  0.91546100  1
  O  O22  1  0.40044400  0.38415600  0.41546100  1
  O  O23  1  0.59955600  0.88415600  0.58453900  1
  O  O24  1  0.68863900  0.09685000  0.13760100  1
  O  O25  1  0.31136100  0.59685000  0.86239900  1
  O  O26  1  0.18863900  0.59685000  0.36239900  1
  O  O27  1  0.81136100  0.09685000  0.63760100  1
  O  O28  1  0.80145500  0.12120500  0.99862600  1
  O  O29  1  0.19854500  0.62120500  0.00137400  1
  O  O30  1  0.30145500  0.62120500  0.50137400  1
  O  O31  1  0.69854500  0.12120500  0.49862600  1
  O  O32  1  0.85138300  0.49940600  0.59158900  1
  O  O33  1  0.14861700  0.99940600  0.40841100  1
  O  O34  1  0.35138300  0.99940600  0.90841100  1
  O  O35  1  0.64861700  0.49940600  0.09158900  1
  O  O36  1  0.70623900  0.36733500  0.84540600  1
  O  O37  1  0.29376100  0.86733500  0.15459400  1
  O  O38  1  0.20623900  0.86733500  0.65459400  1
  O  O39  1  0.79376100  0.36733500  0.34540600  1
loop_
_geom_bond_atom_site_label_1
_geom_bond_atom_site_label_2
_geom_bond_distance
_geom_bond_site_symmetry_2
H0 N0 1.037050 1_555
H1 N1 1.037050 1_545
H2 N2 1.037050 1_544
H3 N3 1.037050 1_556
H4 N0 1.036675 1_555
H5 N1 1.036675 1_545
H6 N2 1.036675 1_545
H7 N3 1.036675 1_555
H8 N0 1.040335 1_555
H9 N1 1.040335 1_555
H10 N2 1.040335 1_555
H11 N3 1.040335 1_555
H12 O33 0.994609 1_555
H13 O32 0.994609 1_555
H14 O35 0.994609 1_555
H15 O34 0.994609 1_555
H16 N4 1.035839 1_555
H17 N5 1.035839 1_555
H18 N6 1.035839 1_555
H19 N7 1.035839 1_555
H20 N4 1.036283 1_555
H21 N5 1.036283 1_555
H22 N6 1.036283 1_555
H23 N7 1.036283 1_555
H24 N4 1.038416 1_555
H25 N5 1.038416 1_555
H26 N6 1.038416 1_555
H27 N7 1.038416 1_555
H28 O37 0.994613 1_555
H29 O36 0.994613 1_555
H30 O39 0.994613 1_555
H31 O38 0.994613 1_555
N0 O32 1.416264 1_555
N1 O33 1.416264 1_555
N2 O34 1.416264 1_555
N3 O35 1.416264 1_555
N4 O36 1.414419 1_555
N5 O37 1.414419 1_555
N6 O38 1.414419 1_555
N7 O39 1.414419 1_555
Cl0 O12 1.452869 1_555
Cl0 O8 1.456186 1_555
Cl0 O4 1.468767 1_555
Cl0 O0 1.477342 1_555
Cl1 O13 1.452869 1_555
Cl1 O9 1.456186 1_555
Cl1 O5 1.468767 1_555
Cl1 O1 1.477348 1_555
Cl2 O14 1.452869 1_555
Cl2 O10 1.456186 1_555
Cl2 O6 1.468767 1_555
Cl2 O2 1.477348 1_555
Cl3 O15 1.452869 1_555
Cl3 O11 1.456186 1_555
Cl3 O7 1.468767 1_555
Cl3 O3 1.477342 1_555
Cl4 O24 1.450584 1_565
Cl4 O20 1.463814 1_555
Cl4 O28 1.467985 1_564
Cl4 O16 1.471982 1_555
Cl5 O25 1.450584 1_555
Cl5 O21 1.463814 1_555
Cl5 O29 1.467985 1_556
Cl5 O17 1.471982 1_555
Cl6 O26 1.450584 1_555
Cl6 O22 1.463814 1_555
Cl6 O30 1.467985 1_555
Cl6 O18 1.471982 1_555
Cl7 O27 1.450584 1_565
Cl7 O23 1.463814 1_555
Cl7 O31 1.467985 1_565
Cl7 O19 1.471982 1_555
