# generated using pymatgen
data_Li2AlFeO4
_symmetry_space_group_name_H-M   'P 1'
_cell_length_a   4.96818596
_cell_length_b   6.18239862
_cell_length_c   10.89372988
_cell_angle_alpha   90.00000000
_cell_angle_beta   90.00000000
_cell_angle_gamma   90.00000000
_symmetry_Int_Tables_number   1
_chemical_formula_structural   Li2AlFeO4
_chemical_formula_sum   'Li8 Al4 Fe4 O16'
_cell_volume   334.60424700
_cell_formula_units_Z   4
loop_
 _symmetry_equiv_pos_site_id
 _symmetry_equiv_pos_as_xyz
  1  'x, y, z'
loop_
 _atom_site_type_symbol
 _atom_site_label
 _atom_site_symmetry_multiplicity
 _atom_site_fract_x
 _atom_site_fract_y
 _atom_site_fract_z
 _atom_site_occupancy
  Li  Li0  1  0.18047651  0.00051831  0.58561190  1
  Li  Li1  1  0.31952349  0.00051831  0.08561190  1
  Li  Li2  1  0.31952349  0.49948169  0.08561190  1
  Li  Li3  1  0.18047651  0.49948169  0.58561190  1
  Li  Li4  1  0.68047651  0.50051831  0.91438810  1
  Li  Li5  1  0.81952349  0.50051831  0.41438810  1
  Li  Li6  1  0.81952349  0.99948169  0.41438810  1
  Li  Li7  1  0.68047651  0.99948169  0.91438810  1
  Al  Al0  1  0.17336577  0.25000000  0.83484245  1
  Al  Al1  1  0.32663423  0.25000000  0.33484245  1
  Al  Al2  1  0.67336577  0.75000000  0.66515755  1
  Al  Al3  1  0.82663423  0.75000000  0.16515755  1
  Fe  Fe0  1  0.67599789  0.25000000  0.66654008  1
  Fe  Fe1  1  0.82400211  0.25000000  0.16654008  1
  Fe  Fe2  1  0.32400211  0.75000000  0.33345992  1
  Fe  Fe3  1  0.17599789  0.75000000  0.83345992  1
  O  O0  1  0.78107048  0.98872394  0.59067229  1
  O  O1  1  0.71892952  0.98872394  0.09067229  1
  O  O2  1  0.29782855  0.25000000  0.68210325  1
  O  O3  1  0.68267616  0.25000000  0.32740865  1
  O  O4  1  0.81732384  0.25000000  0.82740865  1
  O  O5  1  0.20217145  0.25000000  0.18210325  1
  O  O6  1  0.71892952  0.51127606  0.09067229  1
  O  O7  1  0.78107048  0.51127606  0.59067229  1
  O  O8  1  0.21892952  0.48872394  0.40932771  1
  O  O9  1  0.28107048  0.48872394  0.90932771  1
  O  O10  1  0.70217145  0.75000000  0.31789675  1
  O  O11  1  0.79782855  0.75000000  0.81789675  1
  O  O12  1  0.31732384  0.75000000  0.67259135  1
  O  O13  1  0.18267616  0.75000000  0.17259135  1
  O  O14  1  0.21892952  0.01127606  0.40932771  1
  O  O15  1  0.28107048  0.01127606  0.90932771  1
loop_
_geom_bond_atom_site_label_1
_geom_bond_atom_site_label_2
_geom_bond_distance
_geom_bond_site_symmetry_2
Li0 O14 1.931017 1_555
Li0 O12 1.938775 1_545
Li0 O2 1.955459 1_555
Li0 O0 1.986428 1_445
Li1 O15 1.931017 1_554
Li1 O13 1.938775 1_545
Li1 O5 1.955459 1_555
Li1 O1 1.986428 1_545
Li2 O9 1.931017 1_554
Li2 O13 1.938775 1_555
Li2 O5 1.955459 1_555
Li2 O6 1.986428 1_555
Li3 O8 1.931017 1_555
Li3 O12 1.938775 1_555
Li3 O2 1.955459 1_555
Li3 O7 1.986428 1_455
Li4 O6 1.931017 1_556
Li4 O4 1.938775 1_555
Li4 O11 1.955459 1_555
Li4 O9 1.986428 1_555
Li5 O7 1.931017 1_555
Li5 O3 1.938775 1_555
Li5 O10 1.955459 1_555
Li5 O8 1.986428 1_655
Li6 O0 1.931017 1_555
Li6 O3 1.938775 1_565
Li6 O10 1.955459 1_555
Li6 O14 1.986428 1_665
Li7 O1 1.931017 1_556
Li7 O4 1.938775 1_565
Li7 O11 1.955459 1_555
Li7 O15 1.986428 1_565
Al0 O9 1.767194 1_555
Al0 O15 1.767194 1_555
Al0 O4 1.770735 1_455
Al0 O2 1.775084 1_555
Al1 O8 1.767194 1_555
Al1 O14 1.767194 1_555
Al1 O3 1.770735 1_555
Al1 O5 1.775084 1_555
Al2 O7 1.767194 1_555
Al2 O0 1.767194 1_555
Al2 O12 1.770735 1_555
Al2 O11 1.775084 1_555
Al3 O1 1.767194 1_555
Al3 O6 1.767194 1_555
Al3 O13 1.770735 1_655
Al3 O10 1.775084 1_555
Fe0 O2 1.886450 1_555
Fe0 O4 1.887883 1_555
Fe0 O7 1.888072 1_555
Fe0 O0 1.888072 1_545
Fe1 O5 1.886450 1_655
Fe1 O3 1.887883 1_555
Fe1 O6 1.888072 1_555
Fe1 O1 1.888072 1_545
Fe2 O10 1.886450 1_555
Fe2 O13 1.887883 1_555
Fe2 O14 1.888072 1_565
Fe2 O8 1.888072 1_555
Fe3 O11 1.886450 1_455
Fe3 O12 1.887883 1_555
Fe3 O15 1.888072 1_565
Fe3 O9 1.888072 1_555
