# generated using pymatgen
data_V6O13
_symmetry_space_group_name_H-M   'P 1'
_cell_length_a   3.74320100
_cell_length_b   10.30036597
_cell_length_c   12.15976608
_cell_angle_alpha   100.84836382
_cell_angle_beta   90.00046520
_cell_angle_gamma   89.99991231
_symmetry_Int_Tables_number   1
_chemical_formula_structural   V6O13
_chemical_formula_sum   'V12 O26'
_cell_volume   460.45738218
_cell_formula_units_Z   2
loop_
 _symmetry_equiv_pos_site_id
 _symmetry_equiv_pos_as_xyz
  1  'x, y, z'
loop_
 _atom_site_type_symbol
 _atom_site_label
 _atom_site_symmetry_multiplicity
 _atom_site_fract_x
 _atom_site_fract_y
 _atom_site_fract_z
 _atom_site_occupancy
  V  V0  1  0.99664300  0.36514300  0.71341600  1
  V  V1  1  0.00346800  0.63472700  0.28625800  1
  V  V2  1  0.50347100  0.36526900  0.21374300  1
  V  V3  1  0.49664500  0.63485800  0.78658600  1
  V  V4  1  0.00306200  0.36385400  0.41273500  1
  V  V5  1  0.50305600  0.63613900  0.08726800  1
  V  V6  1  0.99714700  0.63605500  0.58698700  1
  V  V7  1  0.49715800  0.36394800  0.91301000  1
  V  V8  1  0.00822900  0.99836000  0.35295300  1
  V  V9  1  0.98992700  0.00082700  0.65023200  1
  V  V10  1  0.50822200  0.00165200  0.14705100  1
  V  V11  1  0.48995100  0.99917600  0.84976600  1
  O  O0  1  0.49430600  0.19786600  0.88688800  1
  O  O1  1  0.00597300  0.19794700  0.38563200  1
  O  O2  1  0.99430400  0.80213200  0.61311400  1
  O  O3  1  0.50597100  0.80205800  0.11436600  1
  O  O4  1  0.99278600  0.19837700  0.67626900  1
  O  O5  1  0.00757000  0.80192800  0.32235000  1
  O  O6  1  0.50756900  0.19806800  0.17765000  1
  O  O7  1  0.49279400  0.80162300  0.82373100  1
  O  O8  1  0.99966300  0.40895400  0.56013000  1
  O  O9  1  0.50039100  0.40897300  0.06050800  1
  O  O10  1  0.49966100  0.59104000  0.93987200  1
  O  O11  1  0.00039000  0.59102900  0.43949000  1
  O  O12  1  0.99681500  0.38458800  0.88018100  1
  O  O13  1  0.50329600  0.38525100  0.38014300  1
  O  O14  1  0.49681100  0.61541300  0.61982100  1
  O  O15  1  0.00329500  0.61475400  0.11985200  1
  O  O16  1  0.99662400  0.58963400  0.74650700  1
  O  O17  1  0.49662000  0.41035900  0.75349300  1
  O  O18  1  0.50347100  0.58939600  0.24654500  1
  O  O19  1  0.00346600  0.41060500  0.25345200  1
  O  O20  1  0.00105800  0.00035300  0.49571500  1
  O  O21  1  0.50106000  0.99964800  0.00428200  1
  O  O22  1  0.50748500  0.99952800  0.31648600  1
  O  O23  1  0.99208200  0.00040300  0.82166400  1
  O  O24  1  0.49207000  0.99959600  0.67832700  1
  O  O25  1  0.00749100  0.00047100  0.18352800  1
loop_
_geom_bond_atom_site_label_1
_geom_bond_atom_site_label_2
_geom_bond_distance
_geom_bond_site_symmetry_2
O0 V7 1.680172 1_555
O0 V11 2.011161 1_545
O1 V4 1.678417 1_555
O1 V8 2.019124 1_545
O2 V6 1.680121 1_555
O2 V9 2.011210 1_565
O3 V5 1.678538 1_555
O3 V10 2.019195 1_565
O4 V0 1.691993 1_555
O4 V9 1.999603 1_555
O5 V1 1.695409 1_555
O5 V8 1.987183 1_555
O6 V2 1.695410 1_555
O6 V10 1.987021 1_555
O7 V3 1.691981 1_555
O7 V11 1.999634 1_555
O8 V4 1.764895 1_655
O8 V0 1.998649 1_555
O8 V6 2.300249 1_555
O9 V7 1.766045 1_554
O9 V2 1.997603 1_555
O9 V5 2.300973 1_555
O10 V5 1.764906 1_556
O10 V3 1.998677 1_555
O10 V7 2.300154 1_555
O11 V6 1.766035 1_455
O11 V1 1.997543 1_555
O11 V4 2.301068 1_555
O12 V7 1.932511 1_555
O12 V7 1.934989 1_655
O12 V0 1.999825 1_555
O13 V4 1.933420 1_655
O13 V4 1.935122 1_555
O13 V2 1.994915 1_555
O14 V6 1.932546 1_455
O14 V6 1.934987 1_555
O14 V3 1.999825 1_555
O15 V5 1.933368 1_555
O15 V5 1.935092 1_455
O15 V1 1.994996 1_555
O16 V3 1.967652 1_555
O16 V3 1.967795 1_655
O16 V6 2.083338 1_555
O16 V0 2.271252 1_555
O17 V0 1.967618 1_455
O17 V0 1.967788 1_555
O17 V7 2.083261 1_555
O17 V3 2.271333 1_555
O18 V1 1.967021 1_655
O18 V1 1.967049 1_555
O18 V5 2.081804 1_555
O18 V2 2.267613 1_555
O19 V2 1.967014 1_455
O19 V2 1.967056 1_555
O19 V4 2.081909 1_555
O19 V1 2.267561 1_555
O20 V8 1.732414 1_545
O20 V9 1.878440 1_455
O21 V10 1.732478 1_565
O21 V11 1.878429 1_554
O22 V8 1.921267 1_555
O22 V8 1.926679 1_655
O22 V10 2.064521 1_565
O23 V11 1.895161 1_645
O23 V11 1.910857 1_545
O23 V9 2.085415 1_555
O24 V9 1.895109 1_565
O24 V9 1.910882 1_465
O24 V11 2.085492 1_555
O25 V10 1.921343 1_455
O25 V10 1.926673 1_555
O25 V8 2.064373 1_545
