# generated using pymatgen
data_Na4Co2P(CO4)4
_symmetry_space_group_name_H-M   'P 1'
_cell_length_a   10.00002540
_cell_length_b   9.98494065
_cell_length_c   9.80950713
_cell_angle_alpha   60.68070095
_cell_angle_beta   60.52717383
_cell_angle_gamma   58.79212522
_symmetry_Int_Tables_number   1
_chemical_formula_structural   Na4Co2P(CO4)4
_chemical_formula_sum   'Na8 Co4 P2 C8 O32'
_cell_volume   692.13532059
_cell_formula_units_Z   2
loop_
 _symmetry_equiv_pos_site_id
 _symmetry_equiv_pos_as_xyz
  1  'x, y, z'
loop_
 _atom_site_type_symbol
 _atom_site_label
 _atom_site_symmetry_multiplicity
 _atom_site_fract_x
 _atom_site_fract_y
 _atom_site_fract_z
 _atom_site_occupancy
  Na  Na0  1  0.46400000  0.03600000  0.46400000  1
  Na  Na1  1  0.46357100  0.03642900  0.03642900  1
  Na  Na2  1  0.21357100  0.78642900  0.78642900  1
  Na  Na3  1  0.21400000  0.78600000  0.21400000  1
  Na  Na4  1  0.03600000  0.46400000  0.03600000  1
  Na  Na5  1  0.03642900  0.46357100  0.46357100  1
  Na  Na6  1  0.78642900  0.21357100  0.21357100  1
  Na  Na7  1  0.78600000  0.21400000  0.78600000  1
  Co  Co0  1  0.62500000  0.12500000  0.62500000  1
  Co  Co1  1  0.12500000  0.62500000  0.62500000  1
  Co  Co2  1  0.62500000  0.62500000  0.62500000  1
  Co  Co3  1  0.62500000  0.62500000  0.12500000  1
  P  P0  1  0.00000000  0.00000000  0.00000000  1
  P  P1  1  0.25000000  0.25000000  0.25000000  1
  C  C0  1  0.40285100  0.76843000  0.41593400  1
  C  C1  1  0.48157000  0.84714900  0.83721500  1
  C  C2  1  0.41593400  0.41278500  0.40285100  1
  C  C3  1  0.41278500  0.41593400  0.76843000  1
  C  C4  1  0.83721500  0.83406600  0.48157000  1
  C  C5  1  0.83406600  0.83721500  0.84714900  1
  C  C6  1  0.76843000  0.40285100  0.41278500  1
  C  C7  1  0.84714900  0.48157000  0.83406600  1
  O  O0  1  0.51160800  0.77580000  0.44456700  1
  O  O1  1  0.06029300  0.06137300  0.80790600  1
  O  O2  1  0.26548900  0.76061900  0.53200400  1
  O  O3  1  0.48938100  0.98451100  0.80811100  1
  O  O4  1  0.53200400  0.44188900  0.26548900  1
  O  O5  1  0.47393400  0.82217900  0.72366400  1
  O  O6  1  0.80790600  0.07042900  0.06029300  1
  O  O7  1  0.06137300  0.06029300  0.07042900  1
  O  O8  1  0.98022300  0.72366400  0.82217900  1
  O  O9  1  0.44188900  0.53200400  0.76061900  1
  O  O10  1  0.47420000  0.73839200  0.98197500  1
  O  O11  1  0.07042900  0.80790600  0.06137300  1
  O  O12  1  0.44456700  0.26802500  0.51160800  1
  O  O13  1  0.26802500  0.44456700  0.77580000  1
  O  O14  1  0.42782100  0.77606600  0.26977700  1
  O  O15  1  0.72366400  0.98022300  0.47393400  1
  O  O16  1  0.52633600  0.26977700  0.77606600  1
  O  O17  1  0.82217900  0.47393400  0.98022300  1
  O  O18  1  0.98197500  0.80543300  0.47420000  1
  O  O19  1  0.80543300  0.98197500  0.73839200  1
  O  O20  1  0.17957100  0.44209400  0.18862700  1
  O  O21  1  0.77580000  0.51160800  0.26802500  1
  O  O22  1  0.80811100  0.71799600  0.48938100  1
  O  O23  1  0.26977700  0.52633600  0.42782100  1
  O  O24  1  0.18862700  0.18970700  0.17957100  1
  O  O25  1  0.44209400  0.17957100  0.18970700  1
  O  O26  1  0.77606600  0.42782100  0.52633600  1
  O  O27  1  0.71799600  0.80811100  0.98451100  1
  O  O28  1  0.76061900  0.26548900  0.44188900  1
  O  O29  1  0.98451100  0.48938100  0.71799600  1
  O  O30  1  0.18970700  0.18862700  0.44209400  1
  O  O31  1  0.73839200  0.47420000  0.80543300  1
loop_
_geom_bond_atom_site_label_1
_geom_bond_atom_site_label_2
_geom_bond_distance
_geom_bond_site_symmetry_2
Na0 O15 2.399886 1_545
Na0 O5 2.399886 1_545
Na0 O25 2.412426 1_555
Na0 O30 2.412426 1_555
Na0 O12 2.475272 1_555
Na0 O0 2.475272 1_545
Na1 O27 2.404397 1_544
Na1 O3 2.404401 1_544
Na1 O25 2.412148 1_555
Na1 O24 2.412153 1_555
Na1 O14 2.540842 1_545
Na1 O16 2.540842 1_554
Na2 O2 2.404391 1_555
Na2 O9 2.404395 1_555
Na2 O1 2.412156 1_565
Na2 O11 2.412156 1_556
Na2 O8 2.540842 1_455
Na2 O5 2.540842 1_555
Na3 O14 2.399886 1_555
Na3 O23 2.399886 1_555
Na3 O11 2.412418 1_555
Na3 O7 2.412423 1_565
Na3 O18 2.475272 1_455
Na3 O10 2.475272 1_554
Na4 O8 2.399886 1_454
Na4 O17 2.399886 1_454
Na4 O20 2.412418 1_555
Na4 O24 2.412423 1_555
Na4 O13 2.475272 1_554
Na4 O21 2.475272 1_455
Na5 O29 2.404391 1_455
Na5 O22 2.404395 1_455
Na5 O30 2.412156 1_555
Na5 O20 2.412156 1_555
Na5 O26 2.540842 1_455
Na5 O23 2.540842 1_555
Na6 O4 2.404397 1_555
Na6 O28 2.404401 1_555
Na6 O6 2.412148 1_555
Na6 O7 2.412153 1_655
Na6 O15 2.540842 1_545
Na6 O17 2.540842 1_554
Na7 O26 2.399886 1_555
Na7 O16 2.399886 1_555
Na7 O6 2.412426 1_556
Na7 O1 2.412426 1_655
Na7 O31 2.475272 1_555
Na7 O19 2.475272 1_545
Co0 O28 2.034738 1_555
Co0 O3 2.034738 1_545
Co0 O19 2.069128 1_545
Co0 O12 2.069128 1_555
Co0 O16 2.107218 1_555
Co0 O15 2.107218 1_545
Co1 O2 2.034740 1_555
Co1 O29 2.034740 1_455
Co1 O13 2.069128 1_555
Co1 O18 2.069128 1_455
Co1 O8 2.107218 1_455
Co1 O23 2.107218 1_555
Co2 O22 2.034732 1_555
Co2 O9 2.034732 1_555
Co2 O31 2.069128 1_555
Co2 O0 2.069128 1_555
Co2 O26 2.107218 1_555
Co2 O5 2.107218 1_555
Co3 O27 2.034732 1_554
Co3 O4 2.034732 1_555
Co3 O21 2.069128 1_555
Co3 O10 2.069128 1_554
Co3 O14 2.107218 1_555
Co3 O17 2.107218 1_554
C0 O0 1.292630 1_555
C0 O2 1.293970 1_555
C0 O14 1.297740 1_555
C1 O10 1.292630 1_555
C1 O3 1.293967 1_555
C1 O5 1.297740 1_555
C2 O12 1.292630 1_555
C2 O4 1.293972 1_555
C2 O23 1.297740 1_555
C3 O13 1.292630 1_555
C3 O9 1.293977 1_555
C3 O16 1.297740 1_555
C4 O18 1.292630 1_555
C4 O22 1.293977 1_555
C4 O15 1.297740 1_555
C5 O19 1.292630 1_555
C5 O27 1.293972 1_555
C5 O8 1.297740 1_555
C6 O21 1.292630 1_555
C6 O28 1.293967 1_555
C6 O26 1.297740 1_555
C7 O31 1.292630 1_555
C7 O29 1.293970 1_555
C7 O17 1.297740 1_555
O1 P0 1.556867 1_556
O6 P0 1.556867 1_655
O7 P0 1.556875 1_555
O11 P0 1.556867 1_565
O20 P1 1.556867 1_555
O24 P1 1.556875 1_555
O25 P1 1.556867 1_555
O30 P1 1.556867 1_555
