# generated using pymatgen
data_LiZn6Fe17O32
_symmetry_space_group_name_H-M   'P 1'
_cell_length_a   6.04746269
_cell_length_b   6.04746269
_cell_length_c   19.92422127
_cell_angle_alpha   81.45915043
_cell_angle_beta   81.45915043
_cell_angle_gamma   60.07595273
_symmetry_Int_Tables_number   1
_chemical_formula_structural   LiZn6Fe17O32
_chemical_formula_sum   'Li1 Zn6 Fe17 O32'
_cell_volume   622.16189389
_cell_formula_units_Z   1
loop_
 _symmetry_equiv_pos_site_id
 _symmetry_equiv_pos_as_xyz
  1  'x, y, z'
loop_
 _atom_site_type_symbol
 _atom_site_label
 _atom_site_symmetry_multiplicity
 _atom_site_fract_x
 _atom_site_fract_y
 _atom_site_fract_z
 _atom_site_occupancy
  Li  Li0  1  0.06306000  0.06306000  0.81083800  1
  Zn  Zn0  1  0.65783700  0.65783700  0.02972400  1
  Zn  Zn1  1  0.78108800  0.78108800  0.15583200  1
  Zn  Zn2  1  0.15518900  0.15518900  0.53299700  1
  Zn  Zn3  1  0.03117900  0.03117900  0.40677400  1
  Zn  Zn4  1  0.90605500  0.90605500  0.28138600  1
  Zn  Zn5  1  0.27884100  0.27884100  0.65833800  1
  Fe  Fe0  1  0.30723000  0.30723000  0.06555000  1
  Fe  Fe1  1  0.25531200  0.25531200  0.24832900  1
  Fe  Fe2  1  0.00202500  0.00202500  0.99635500  1
  Fe  Fe3  1  0.53060900  0.03110800  0.40676600  1
  Fe  Fe4  1  0.03110800  0.53060900  0.40676600  1
  Fe  Fe5  1  0.28121000  0.78122000  0.15589000  1
  Fe  Fe6  1  0.78122000  0.28121000  0.15589000  1
  Fe  Fe7  1  0.55727600  0.55727600  0.31455900  1
  Fe  Fe8  1  0.50416000  0.50416000  0.50053900  1
  Fe  Fe9  1  0.27698000  0.78551100  0.65855300  1
  Fe  Fe10  1  0.78551100  0.27698000  0.65855300  1
  Fe  Fe11  1  0.80686300  0.80686300  0.56346700  1
  Fe  Fe12  1  0.53008300  0.53008300  0.90375500  1
  Fe  Fe13  1  0.40679500  0.40679500  0.78378300  1
  Fe  Fe14  1  0.75469400  0.75469400  0.74957300  1
  Fe  Fe15  1  0.03899800  0.52970100  0.90324700  1
  Fe  Fe16  1  0.52970100  0.03899800  0.90324700  1
  O  O0  1  0.09650700  0.60988100  0.21460600  1
  O  O1  1  0.60988100  0.09650700  0.21460600  1
  O  O2  1  0.46664900  0.95101000  0.09583400  1
  O  O3  1  0.95101000  0.46664900  0.09583400  1
  O  O4  1  0.47405600  0.47405600  0.09662100  1
  O  O5  1  0.72301500  0.72301500  0.34730800  1
  O  O6  1  0.58981200  0.58981200  0.21424400  1
  O  O7  1  0.22241200  0.22241200  0.34761200  1
  O  O8  1  0.09025100  0.09025100  0.21391700  1
  O  O9  1  0.97314200  0.97314200  0.09599000  1
  O  O10  1  0.34659400  0.85914700  0.46624000  1
  O  O11  1  0.85914700  0.34659400  0.46624000  1
  O  O12  1  0.71604300  0.20234200  0.34649500  1
  O  O13  1  0.20234200  0.71604300  0.34649500  1
  O  O14  1  0.09118500  0.09118500  0.70966000  1
  O  O15  1  0.84049600  0.84049600  0.46365600  1
  O  O16  1  0.96901000  0.96901000  0.59880500  1
  O  O17  1  0.46972700  0.46972700  0.60015700  1
  O  O18  1  0.33955900  0.33955900  0.46531400  1
  O  O19  1  0.58308700  0.58308700  0.72073500  1
  O  O20  1  0.58931400  0.11845000  0.72224700  1
  O  O21  1  0.11845000  0.58931400  0.72224700  1
  O  O22  1  0.96193400  0.45642600  0.59752100  1
  O  O23  1  0.23736300  0.68089300  0.84568900  1
  O  O24  1  0.68089300  0.23736300  0.84568900  1
  O  O25  1  0.45642600  0.96193400  0.59752100  1
  O  O26  1  0.23872300  0.23872300  0.84482300  1
  O  O27  1  0.34423000  0.34423000  0.96543000  1
  O  O28  1  0.71696100  0.71696100  0.84927700  1
  O  O29  1  0.83875400  0.83875400  0.96370800  1
  O  O30  1  0.35988000  0.84010100  0.96238200  1
  O  O31  1  0.84010100  0.35988000  0.96238200  1
loop_
_geom_bond_atom_site_label_1
_geom_bond_atom_site_label_2
_geom_bond_distance
_geom_bond_site_symmetry_2
Li0 O14 1.986670 1_555
Li0 O24 2.060295 1_455
Li0 O23 2.060295 1_545
Li0 O26 2.066099 1_555
Fe0 O3 1.910194 1_455
Fe0 O2 1.910194 1_545
Fe0 O4 1.950746 1_555
Fe0 O27 1.965758 1_554
Fe1 O1 1.918524 1_555
Fe1 O0 1.918524 1_555
Fe1 O7 1.948816 1_555
Fe1 O8 1.965601 1_555
Fe2 O29 1.930578 1_445
Fe2 O30 1.935958 1_545
Fe2 O31 1.935958 1_455
Fe2 O9 1.956091 1_446
Fe3 O10 2.029995 1_545
Fe3 O12 2.039890 1_555
Fe3 O15 2.052591 1_545
Fe3 O18 2.066630 1_555
Fe3 O7 2.073037 1_555
Fe3 O5 2.076526 1_545
Fe4 O11 2.029995 1_455
Fe4 O13 2.039890 1_555
Fe4 O15 2.052591 1_455
Fe4 O18 2.066630 1_555
Fe4 O7 2.073037 1_555
Fe4 O5 2.076526 1_455
Fe5 O0 2.023963 1_555
Fe5 O2 2.032003 1_555
Fe5 O8 2.062731 1_565
Fe5 O6 2.064955 1_555
Fe5 O4 2.070326 1_555
Fe5 O9 2.081818 1_455
Fe6 O1 2.023963 1_555
Fe6 O3 2.032003 1_555
Fe6 O8 2.062731 1_655
Fe6 O6 2.064955 1_555
Fe6 O4 2.070326 1_555
Fe6 O9 2.081818 1_545
Fe7 O13 1.911445 1_555
Fe7 O12 1.911445 1_555
Fe7 O5 1.955960 1_555
Fe7 O6 1.969068 1_555
Fe8 O10 1.923631 1_555
Fe8 O11 1.923631 1_555
Fe8 O17 1.955488 1_555
Fe8 O18 1.969234 1_555
Fe9 O14 1.965577 1_565
Fe9 O25 2.042660 1_555
Fe9 O21 2.064858 1_555
Fe9 O16 2.078797 1_455
Fe9 O17 2.096568 1_555
Fe9 O19 2.104793 1_555
Fe10 O14 1.965577 1_655
Fe10 O22 2.042660 1_555
Fe10 O20 2.064858 1_555
Fe10 O16 2.078797 1_545
Fe10 O17 2.096568 1_555
Fe10 O19 2.104793 1_555
Fe11 O22 1.900025 1_555
Fe11 O25 1.900025 1_555
Fe11 O16 1.946346 1_555
Fe11 O15 1.959204 1_555
Fe12 O24 1.997009 1_555
Fe12 O23 1.997009 1_555
Fe12 O28 2.068366 1_555
Fe12 O31 2.075309 1_555
Fe12 O30 2.075309 1_555
Fe12 O27 2.115741 1_555
Fe13 O26 1.960009 1_555
Fe13 O23 1.963725 1_555
Fe13 O24 1.963725 1_555
Fe13 O20 2.018661 1_555
Fe13 O21 2.018661 1_555
Fe13 O19 2.046858 1_555
Fe14 O21 1.935657 1_655
Fe14 O20 1.935657 1_565
Fe14 O28 1.957826 1_555
Fe14 O19 1.978104 1_555
Fe15 O23 1.991088 1_555
Fe15 O26 1.995153 1_555
Fe15 O28 2.071583 1_455
Fe15 O31 2.083692 1_455
Fe15 O29 2.094772 1_455
Fe15 O27 2.097905 1_555
Fe16 O24 1.991088 1_555
Fe16 O26 1.995153 1_555
Fe16 O28 2.071583 1_545
Fe16 O30 2.083692 1_545
Fe16 O29 2.094772 1_545
Fe16 O27 2.097905 1_555
O0 Zn1 2.101124 1_455
O0 Zn4 2.121184 1_455
O1 Zn1 2.101124 1_545
O1 Zn4 2.121184 1_545
O2 Zn0 2.100303 1_555
O2 Zn1 2.112265 1_555
O3 Zn0 2.100303 1_555
O3 Zn1 2.112265 1_555
O4 Zn0 2.144616 1_555
O5 Zn4 2.129435 1_555
O6 Zn1 2.136763 1_555
O7 Zn3 2.142166 1_555
O8 Zn4 2.153393 1_445
O9 Zn1 2.154686 1_555
O10 Zn3 2.109456 1_565
O10 Zn2 2.120518 1_565
O11 Zn3 2.109456 1_655
O11 Zn2 2.120518 1_655
O12 Zn4 2.099333 1_545
O12 Zn3 2.118560 1_655
O13 Zn4 2.099333 1_455
O13 Zn3 2.118560 1_565
O14 Zn5 2.053507 1_555
O15 Zn3 2.119967 1_665
O16 Zn2 2.154600 1_665
O17 Zn5 2.131552 1_555
O18 Zn2 2.156838 1_555
O20 Zn5 2.147971 1_555
O21 Zn5 2.147971 1_555
O22 Zn2 2.112456 1_655
O22 Zn5 2.131745 1_655
O25 Zn2 2.112456 1_565
O25 Zn5 2.131745 1_565
O29 Zn0 2.112702 1_556
O30 Zn0 2.135243 1_556
O31 Zn0 2.135243 1_556
