# generated using pymatgen
data_Li5Cu2Ni3O10
_symmetry_space_group_name_H-M   'P 1'
_cell_length_a   5.03398540
_cell_length_b   5.13041967
_cell_length_c   7.66011785
_cell_angle_alpha   106.90279254
_cell_angle_beta   102.89785243
_cell_angle_gamma   101.21836149
_symmetry_Int_Tables_number   1
_chemical_formula_structural   Li5Cu2Ni3O10
_chemical_formula_sum   'Li5 Cu2 Ni3 O10'
_cell_volume   177.22848205
_cell_formula_units_Z   1
loop_
 _symmetry_equiv_pos_site_id
 _symmetry_equiv_pos_as_xyz
  1  'x, y, z'
loop_
 _atom_site_type_symbol
 _atom_site_label
 _atom_site_symmetry_multiplicity
 _atom_site_fract_x
 _atom_site_fract_y
 _atom_site_fract_z
 _atom_site_occupancy
  Li  Li0  1  0.20456400  0.90055500  0.40433700  1
  Li  Li1  1  0.38477000  0.28758500  0.78431300  1
  Li  Li2  1  0.50000000  0.50000000  0.50000000  1
  Li  Li3  1  0.61523000  0.71241500  0.21568700  1
  Li  Li4  1  0.79543600  0.09944500  0.59566300  1
  Cu  Cu0  1  0.09795100  0.69798900  0.69615400  1
  Cu  Cu1  1  0.90204900  0.30201100  0.30384600  1
  Ni  Ni0  1  0.00000000  0.50000000  0.00000000  1
  Ni  Ni1  1  0.69819900  0.89686100  0.89754700  1
  Ni  Ni2  1  0.30180100  0.10313900  0.10245300  1
  O  O0  1  0.04493600  0.12031400  0.86310400  1
  O  O1  1  0.33153000  0.70193900  0.93219100  1
  O  O2  1  0.13275600  0.29801500  0.52999900  1
  O  O3  1  0.22104100  0.48095600  0.23955500  1
  O  O4  1  0.42959600  0.89483700  0.66184100  1
  O  O5  1  0.57040400  0.10516300  0.33815900  1
  O  O6  1  0.77895900  0.51904400  0.76044500  1
  O  O7  1  0.86724400  0.70198500  0.47000100  1
  O  O8  1  0.66847000  0.29806100  0.06780900  1
  O  O9  1  0.95506400  0.87968600  0.13689600  1
loop_
_geom_bond_atom_site_label_1
_geom_bond_atom_site_label_2
_geom_bond_distance
_geom_bond_site_symmetry_2
Li0 O7 2.044614 1_455
Li0 O4 2.055228 1_555
Li0 O9 2.111229 1_455
Li0 O2 2.125105 1_565
Li0 O5 2.173596 1_565
Li0 O3 2.184144 1_555
Li1 O4 2.040420 1_545
Li1 O0 2.053821 1_555
Li1 O2 2.095478 1_555
Li1 O6 2.180025 1_555
Li1 O1 2.197952 1_555
Li1 O8 2.296978 1_556
Li2 O7 2.031518 1_555
Li2 O2 2.031518 1_555
Li2 O6 2.131732 1_555
Li2 O3 2.131732 1_555
Li2 O4 2.186569 1_555
Li2 O5 2.186569 1_555
Li3 O5 2.040420 1_565
Li3 O9 2.053821 1_555
Li3 O7 2.095478 1_555
Li3 O3 2.180025 1_555
Li3 O8 2.197952 1_555
Li3 O1 2.296978 1_554
Li4 O2 2.044614 1_655
Li4 O5 2.055228 1_555
Li4 O0 2.111229 1_655
Li4 O7 2.125105 1_545
Li4 O4 2.173596 1_545
Li4 O6 2.184144 1_555
Cu0 O7 1.866017 1_455
Cu0 O4 1.889562 1_555
Cu0 O1 1.916361 1_555
Cu0 O6 1.925177 1_455
Cu0 O2 2.140605 1_555
Cu0 O0 2.273189 1_565
Cu1 O2 1.866017 1_655
Cu1 O5 1.889562 1_555
Cu1 O8 1.916361 1_555
Cu1 O3 1.925177 1_655
Cu1 O7 2.140605 1_555
Cu1 O9 2.273189 1_545
Ni0 O3 1.962141 1_555
Ni0 O6 1.962141 1_454
Ni0 O9 2.008692 1_455
Ni0 O0 2.008692 1_554
Ni0 O1 2.038530 1_554
Ni0 O8 2.038530 1_455
Ni1 O4 1.995523 1_555
Ni1 O0 2.008333 1_665
Ni1 O9 2.030068 1_556
Ni1 O1 2.032797 1_555
Ni1 O6 2.083014 1_555
Ni1 O8 2.146172 1_566
Ni2 O5 1.995523 1_555
Ni2 O9 2.008333 1_445
Ni2 O0 2.030068 1_554
Ni2 O8 2.032797 1_555
Ni2 O3 2.083014 1_555
Ni2 O1 2.146172 1_544
