# generated using pymatgen
data_Li2La3Ti2Nb2O13
_symmetry_space_group_name_H-M   'P 1'
_cell_length_a   17.09731203
_cell_length_b   17.09731203
_cell_length_c   4.01302839
_cell_angle_alpha   83.40125553
_cell_angle_beta   83.40125553
_cell_angle_gamma   13.47381684
_symmetry_Int_Tables_number   1
_chemical_formula_structural   Li2La3Ti2Nb2O13
_chemical_formula_sum   'Li2 La3 Ti2 Nb2 O13'
_cell_volume   271.49288949
_cell_formula_units_Z   1
loop_
 _symmetry_equiv_pos_site_id
 _symmetry_equiv_pos_as_xyz
  1  'x, y, z'
loop_
 _atom_site_type_symbol
 _atom_site_label
 _atom_site_symmetry_multiplicity
 _atom_site_fract_x
 _atom_site_fract_y
 _atom_site_fract_z
 _atom_site_occupancy
  Li  Li0  1  0.75462600  0.75462600  0.74353800  1
  Li  Li1  1  0.25436700  0.25436700  0.24814500  1
  La  La0  1  0.50394900  0.50394900  0.48841600  1
  La  La1  1  0.38474800  0.38474800  0.63053600  1
  La  La2  1  0.62389400  0.62389400  0.37641100  1
  Ti  Ti0  1  0.94601500  0.94601500  0.05731500  1
  Ti  Ti1  1  0.06233800  0.06233800  0.93888900  1
  Nb  Nb0  1  0.82513600  0.82513600  0.18057400  1
  Nb  Nb1  1  0.18377900  0.18377900  0.81671800  1
  O  O0  1  0.00418200  0.00418200  0.00374400  1
  O  O1  1  0.94684200  0.94684200  0.55695900  1
  O  O2  1  0.44597600  0.44597600  0.05741400  1
  O  O3  1  0.88785700  0.88785700  0.11231600  1
  O  O4  1  0.83348100  0.83348100  0.67116900  1
  O  O5  1  0.33414700  0.33414700  0.17352400  1
  O  O6  1  0.76854000  0.76854000  0.23091300  1
  O  O7  1  0.24032300  0.24032300  0.75759800  1
  O  O8  1  0.67493500  0.67493500  0.82708800  1
  O  O9  1  0.17491900  0.17491900  0.32494700  1
  O  O10  1  0.12069500  0.12069500  0.87591800  1
  O  O11  1  0.56219100  0.56219100  0.94026800  1
  O  O12  1  0.06158800  0.06158800  0.43972900  1
loop_
_geom_bond_atom_site_label_1
_geom_bond_atom_site_label_2
_geom_bond_distance
_geom_bond_site_symmetry_2
Li0 O6 2.056766 1_555
Li0 O7 2.062901 1_655
Li0 O7 2.062901 1_565
Li0 O6 2.064576 1_556
Li0 O4 2.659882 1_555
Li1 O7 2.044889 1_555
Li1 O6 2.061924 1_545
Li1 O6 2.061924 1_455
Li1 O7 2.078467 1_554
La0 O2 2.766825 1_555
La0 O1 2.781328 1_545
La0 O1 2.781328 1_455
La0 O11 2.782751 1_554
La0 O0 2.793268 1_655
La0 O0 2.793268 1_565
La0 O12 2.793499 1_565
La0 O12 2.793499 1_655
La0 O11 2.833684 1_555
La0 O2 2.837127 1_556
La0 O0 2.881560 1_566
La0 O0 2.881560 1_656
La1 O5 2.614248 1_556
La1 O4 2.648511 1_545
La1 O4 2.648511 1_455
La1 O5 2.654349 1_555
La1 O3 2.796286 1_546
La1 O3 2.796286 1_456
La1 O2 2.842896 1_556
La1 O3 2.882362 1_545
La1 O3 2.882362 1_455
La1 O1 2.900376 1_545
La1 O1 2.900376 1_455
La1 O2 2.916539 1_555
La2 O8 2.641888 1_554
La2 O9 2.642917 1_655
La2 O9 2.642917 1_565
La2 O8 2.645881 1_555
La2 O10 2.828847 1_565
La2 O10 2.828847 1_655
La2 O10 2.849412 1_654
La2 O10 2.849412 1_564
La2 O11 2.881421 1_554
La2 O11 2.900575 1_555
La2 O12 2.905107 1_565
La2 O12 2.905107 1_655
Nb0 O6 1.909115 1_555
Nb0 O4 2.021259 1_555
Nb0 O5 2.028606 1_565
Nb0 O5 2.028606 1_655
Nb0 O4 2.031065 1_554
Nb0 O3 2.115783 1_555
Nb1 O7 1.907311 1_555
Nb1 O9 2.026875 1_556
Nb1 O8 2.027769 1_545
Nb1 O8 2.027769 1_455
Nb1 O9 2.030420 1_555
Nb1 O10 2.127874 1_555
O0 Ti1 1.961882 1_554
O0 Ti0 1.962043 1_445
O1 Ti0 2.004887 1_556
O1 Ti0 2.008529 1_555
O2 Ti0 2.005694 1_545
O2 Ti0 2.005694 1_455
O3 Ti0 1.961708 1_555
O10 Ti1 1.968544 1_555
O11 Ti1 2.005706 1_655
O11 Ti1 2.005706 1_565
O12 Ti1 2.006250 1_555
O12 Ti1 2.007097 1_554
