# generated using pymatgen
data_Ti3Mn3(TeO8)2
_symmetry_space_group_name_H-M   'P 1'
_cell_length_a   6.18352644
_cell_length_b   6.18352644
_cell_length_c   9.28623379
_cell_angle_alpha   87.51923484
_cell_angle_beta   87.51923484
_cell_angle_gamma   58.20916913
_symmetry_Int_Tables_number   1
_chemical_formula_structural   Ti3Mn3(TeO8)2
_chemical_formula_sum   'Ti3 Mn3 Te2 O16'
_cell_volume   301.42944672
_cell_formula_units_Z   1
loop_
 _symmetry_equiv_pos_site_id
 _symmetry_equiv_pos_as_xyz
  1  'x, y, z'
loop_
 _atom_site_type_symbol
 _atom_site_label
 _atom_site_symmetry_multiplicity
 _atom_site_fract_x
 _atom_site_fract_y
 _atom_site_fract_z
 _atom_site_occupancy
  Ti  Ti0  1  0.33872100  0.83739000  0.79298600  1
  Ti  Ti1  1  0.83739000  0.33872100  0.79298600  1
  Ti  Ti2  1  0.16646600  0.16646600  0.28545000  1
  Mn  Mn0  1  0.83071100  0.83071100  0.79727900  1
  Mn  Mn1  1  0.16914400  0.66222600  0.29571900  1
  Mn  Mn2  1  0.66222600  0.16914400  0.29571900  1
  Te  Te0  1  0.67063700  0.67063700  0.51255500  1
  Te  Te1  1  0.33525100  0.33525100  0.01298000  1
  O  O0  1  0.36735600  0.83647200  0.39587000  1
  O  O1  1  0.52613400  0.52613400  0.65417000  1
  O  O2  1  0.64566400  0.64566400  0.89737500  1
  O  O3  1  0.01240600  0.01240600  0.70863500  1
  O  O4  1  0.00363500  0.00363500  0.20970100  1
  O  O5  1  0.83647200  0.36735600  0.39587000  1
  O  O6  1  0.50704000  0.94871100  0.64980700  1
  O  O7  1  0.94871100  0.50704000  0.64980700  1
  O  O8  1  0.18338500  0.18338500  0.89206100  1
  O  O9  1  0.83233100  0.83233100  0.40801700  1
  O  O10  1  0.03994200  0.46140500  0.14748000  1
  O  O11  1  0.46140500  0.03994200  0.14748000  1
  O  O12  1  0.32918200  0.32918200  0.38722300  1
  O  O13  1  0.18626700  0.64856100  0.90023300  1
  O  O14  1  0.46922900  0.46922900  0.15493600  1
  O  O15  1  0.64856100  0.18626700  0.90023300  1
loop_
_geom_bond_atom_site_label_1
_geom_bond_atom_site_label_2
_geom_bond_distance
_geom_bond_site_symmetry_2
Mn0 O3 2.090946 1_665
Mn0 O15 2.120386 1_565
Mn0 O13 2.120386 1_655
Mn0 O2 2.162859 1_555
Mn0 O6 2.241788 1_555
Mn0 O7 2.241788 1_555
Mn1 O12 1.927807 1_555
Mn1 O4 1.946940 1_565
Mn1 O9 2.032298 1_455
Mn1 O14 2.041657 1_555
Mn1 O0 2.259405 1_555
Mn1 O10 2.315982 1_555
Mn2 O12 1.927807 1_555
Mn2 O4 1.946940 1_655
Mn2 O9 2.032298 1_545
Mn2 O14 2.041657 1_555
Mn2 O5 2.259405 1_555
Mn2 O11 2.315982 1_555
O0 Te0 1.948353 1_555
O0 Ti2 2.004161 1_565
O1 Te0 1.990985 1_555
O1 Ti0 2.108175 1_555
O1 Ti1 2.108175 1_555
O2 Ti0 1.906966 1_555
O2 Ti1 1.906966 1_555
O3 Ti1 1.902319 1_455
O3 Ti0 1.902319 1_545
O4 Ti2 1.926958 1_555
O5 Te0 1.948353 1_555
O5 Ti2 2.004161 1_655
O6 Te0 1.962092 1_555
O6 Ti0 1.969969 1_555
O7 Te0 1.962092 1_555
O7 Ti1 1.969969 1_555
O8 Te1 2.033783 1_556
O8 Ti1 2.067620 1_455
O8 Ti0 2.067620 1_545
O9 Te0 1.956270 1_555
O10 Te1 1.972059 1_555
O10 Ti2 1.990188 1_555
O11 Te1 1.972059 1_555
O11 Ti2 1.990188 1_555
O12 Ti2 2.036957 1_555
O13 Te1 1.930192 1_556
O13 Ti0 2.054686 1_555
O14 Te1 2.005658 1_555
O15 Te1 1.930192 1_556
O15 Ti1 2.054686 1_555
