# generated using pymatgen
data_Li2Cr2O7
_symmetry_space_group_name_H-M   'P 1'
_cell_length_a   6.47582100
_cell_length_b   7.08585797
_cell_length_c   12.63282903
_cell_angle_alpha   94.81399401
_cell_angle_beta   96.58857499
_cell_angle_gamma   90.91572249
_symmetry_Int_Tables_number   1
_chemical_formula_structural   Li2Cr2O7
_chemical_formula_sum   'Li8 Cr8 O28'
_cell_volume   573.62758434
_cell_formula_units_Z   4
loop_
 _symmetry_equiv_pos_site_id
 _symmetry_equiv_pos_as_xyz
  1  'x, y, z'
loop_
 _atom_site_type_symbol
 _atom_site_label
 _atom_site_symmetry_multiplicity
 _atom_site_fract_x
 _atom_site_fract_y
 _atom_site_fract_z
 _atom_site_occupancy
  Li  Li0  1  0.65252000  0.14949900  0.89067700  1
  Li  Li1  1  0.06757600  0.86082000  0.84694400  1
  Li  Li2  1  0.30055400  0.25130600  0.65044300  1
  Li  Li3  1  0.64458000  0.60610900  0.60707100  1
  Li  Li4  1  0.35542000  0.39389100  0.39292900  1
  Li  Li5  1  0.69944600  0.74869400  0.34955700  1
  Li  Li6  1  0.93242400  0.13918000  0.15305600  1
  Li  Li7  1  0.34748000  0.85050100  0.10932300  1
  Cr  Cr0  1  0.14879500  0.31873800  0.90491300  1
  Cr  Cr1  1  0.56541700  0.70190800  0.87892600  1
  Cr  Cr2  1  0.77730800  0.07794600  0.61747700  1
  Cr  Cr3  1  0.17266200  0.69096900  0.59003000  1
  Cr  Cr4  1  0.82733800  0.30903100  0.40997000  1
  Cr  Cr5  1  0.22269200  0.92205400  0.38252300  1
  Cr  Cr6  1  0.43458300  0.29809200  0.12107400  1
  Cr  Cr7  1  0.85120500  0.68126200  0.09508700  1
  O  O0  1  0.70627200  0.57131700  0.97639800  1
  O  O1  1  0.96448300  0.18059500  0.93908300  1
  O  O2  1  0.36365600  0.80230000  0.92817900  1
  O  O3  1  0.31357100  0.19381700  0.83820600  1
  O  O4  1  0.04976000  0.48746400  0.83887100  1
  O  O5  1  0.72305100  0.86852600  0.84844900  1
  O  O6  1  0.49867800  0.55213100  0.77646500  1
  O  O7  1  0.95060400  0.03869700  0.71633200  1
  O  O8  1  0.59432800  0.20748600  0.66353500  1
  O  O9  1  0.96870900  0.61954700  0.64204600  1
  O  O10  1  0.30104000  0.85364100  0.66929000  1
  O  O11  1  0.32825000  0.51002300  0.56467100  1
  O  O12  1  0.91644000  0.21083000  0.53200800  1
  O  O13  1  0.68005000  0.87821000  0.55622200  1
  O  O14  1  0.31995000  0.12179000  0.44377800  1
  O  O15  1  0.08356000  0.78917000  0.46799200  1
  O  O16  1  0.67175000  0.48997700  0.43532900  1
  O  O17  1  0.69896000  0.14635900  0.33071000  1
  O  O18  1  0.03129100  0.38045300  0.35795400  1
  O  O19  1  0.40567200  0.79251400  0.33646500  1
  O  O20  1  0.04939600  0.96130300  0.28366800  1
  O  O21  1  0.50132200  0.44786900  0.22353500  1
  O  O22  1  0.27694900  0.13147400  0.15155100  1
  O  O23  1  0.95024000  0.51253600  0.16112900  1
  O  O24  1  0.68642900  0.80618300  0.16179400  1
  O  O25  1  0.63634400  0.19770000  0.07182100  1
  O  O26  1  0.03551700  0.81940500  0.06091700  1
  O  O27  1  0.29372800  0.42868300  0.02360200  1
loop_
_geom_bond_atom_site_label_1
_geom_bond_atom_site_label_2
_geom_bond_distance
_geom_bond_site_symmetry_2
Li0 O1 2.045343 1_555
Li0 O5 2.088955 1_545
Li0 O3 2.253662 1_555
Li0 O25 2.299825 1_556
Li1 O2 2.132292 1_555
Li1 O7 2.231072 1_465
Li1 O5 2.234843 1_455
Li2 O8 1.923095 1_555
Li2 O11 2.221364 1_555
Li2 O3 2.432430 1_555
Li3 O9 2.093758 1_555
Li3 O13 2.100102 1_555
Li3 O11 2.142246 1_555
Li3 O16 2.282059 1_555
Li3 O6 2.491603 1_555
Li4 O18 2.093758 1_555
Li4 O14 2.100102 1_555
Li4 O16 2.142246 1_555
Li4 O11 2.282059 1_555
Li4 O21 2.491603 1_555
Li5 O19 1.923095 1_555
Li5 O16 2.221364 1_555
Li5 O24 2.432430 1_555
Li6 O25 2.132292 1_555
Li6 O20 2.231072 1_645
Li6 O22 2.234843 1_655
Li7 O26 2.045343 1_555
Li7 O22 2.088955 1_565
Li7 O24 2.253662 1_555
Li7 O2 2.299825 1_554
Cr0 O4 1.614275 1_555
Cr0 O1 1.649523 1_455
Cr0 O3 1.656390 1_555
Cr0 O27 1.787063 1_556
Cr1 O6 1.617078 1_555
Cr1 O5 1.646857 1_555
Cr1 O2 1.655980 1_555
Cr1 O0 1.779041 1_555
Cr2 O7 1.625720 1_555
Cr2 O13 1.635361 1_545
Cr2 O8 1.639671 1_555
Cr2 O12 1.797482 1_555
Cr3 O10 1.614618 1_555
Cr3 O9 1.632772 1_455
Cr3 O11 1.675755 1_555
Cr3 O15 1.784006 1_555
Cr4 O17 1.614618 1_555
Cr4 O18 1.632772 1_655
Cr4 O16 1.675755 1_555
Cr4 O12 1.784006 1_555
Cr5 O20 1.625720 1_555
Cr5 O14 1.635361 1_565
Cr5 O19 1.639671 1_555
Cr5 O15 1.797482 1_555
Cr6 O21 1.617078 1_555
Cr6 O22 1.646857 1_555
Cr6 O25 1.655980 1_555
Cr6 O27 1.779041 1_555
Cr7 O23 1.614275 1_555
Cr7 O26 1.649523 1_655
Cr7 O24 1.656390 1_555
Cr7 O0 1.787063 1_554
