# generated using pymatgen
data_Li4Co3Ni3(TeO8)2
_symmetry_space_group_name_H-M   'P 1'
_cell_length_a   5.89398321
_cell_length_b   5.89398321
_cell_length_c   9.59038676
_cell_angle_alpha   88.56966260
_cell_angle_beta   88.56966260
_cell_angle_gamma   59.37741567
_symmetry_Int_Tables_number   1
_chemical_formula_structural   Li4Co3Ni3(TeO8)2
_chemical_formula_sum   'Li4 Co3 Ni3 Te2 O16'
_cell_volume   286.58026674
_cell_formula_units_Z   1
loop_
 _symmetry_equiv_pos_site_id
 _symmetry_equiv_pos_as_xyz
  1  'x, y, z'
loop_
 _atom_site_type_symbol
 _atom_site_label
 _atom_site_symmetry_multiplicity
 _atom_site_fract_x
 _atom_site_fract_y
 _atom_site_fract_z
 _atom_site_occupancy
  Li  Li0  1  0.65985400  0.65985400  0.09401200  1
  Li  Li1  1  0.00096600  0.00096600  0.01243500  1
  Li  Li2  1  0.00532500  0.00532500  0.51309900  1
  Li  Li3  1  0.33181000  0.33181000  0.58532900  1
  Co  Co0  1  0.34007300  0.82926500  0.78791000  1
  Co  Co1  1  0.82926500  0.34007300  0.78791000  1
  Co  Co2  1  0.17345100  0.17345100  0.28492400  1
  Ni  Ni0  1  0.82884700  0.82884700  0.78683000  1
  Ni  Ni1  1  0.17316800  0.66299700  0.28832200  1
  Ni  Ni2  1  0.66299700  0.17316800  0.28832200  1
  Te  Te0  1  0.66963200  0.66963200  0.51492800  1
  Te  Te1  1  0.33215300  0.33215300  0.01805900  1
  O  O0  1  0.34064100  0.84113800  0.40528100  1
  O  O1  1  0.51480900  0.51480900  0.64242700  1
  O  O2  1  0.65452900  0.65452900  0.88246200  1
  O  O3  1  0.00986800  0.00986800  0.70643900  1
  O  O4  1  0.01055100  0.01055100  0.20221200  1
  O  O5  1  0.84113800  0.34064100  0.40528100  1
  O  O6  1  0.50910100  0.96511900  0.64961400  1
  O  O7  1  0.96511900  0.50910100  0.64961400  1
  O  O8  1  0.17105400  0.17105400  0.91071800  1
  O  O9  1  0.83694300  0.83694300  0.41288400  1
  O  O10  1  0.03165800  0.47073600  0.15505500  1
  O  O11  1  0.47073600  0.03165800  0.15505500  1
  O  O12  1  0.32558200  0.32558200  0.38372400  1
  O  O13  1  0.16724600  0.66324700  0.91109900  1
  O  O14  1  0.47896000  0.47896000  0.14717300  1
  O  O15  1  0.66324700  0.16724600  0.91109900  1
loop_
_geom_bond_atom_site_label_1
_geom_bond_atom_site_label_2
_geom_bond_distance
_geom_bond_site_symmetry_2
Li0 O14 1.907156 1_555
Li0 O11 1.982529 1_565
Li0 O10 1.982529 1_655
Li0 O2 2.031145 1_554
Li1 O4 1.825494 1_555
Li1 O8 1.971755 1_554
Li1 O15 1.982107 1_454
Li1 O13 1.982107 1_544
Li2 O3 1.856125 1_555
Li2 O0 1.977655 1_545
Li2 O5 1.977655 1_455
Li2 O9 1.998060 1_445
Li3 O12 1.936352 1_555
Li3 O6 1.951399 1_545
Li3 O7 1.951399 1_455
Li3 O1 1.967421 1_555
Co0 O2 1.846808 1_555
Co0 O3 1.858817 1_565
Co0 O6 2.021502 1_555
Co0 O13 2.070878 1_555
Co0 O8 2.110250 1_565
Co0 O1 2.134292 1_555
Co1 O2 1.846808 1_555
Co1 O3 1.858817 1_655
Co1 O7 2.021502 1_555
Co1 O15 2.070878 1_555
Co1 O8 2.110250 1_655
Co1 O1 2.134292 1_555
Co2 O12 1.846541 1_555
Co2 O4 1.867650 1_555
Co2 O10 1.941922 1_555
Co2 O11 1.941922 1_555
Co2 O5 2.029115 1_455
Co2 O0 2.029115 1_545
Ni0 O2 1.983356 1_555
Ni0 O3 1.987130 1_665
Ni0 O13 2.104390 1_655
Ni0 O15 2.104390 1_565
Ni0 O7 2.111269 1_555
Ni0 O6 2.111269 1_555
Ni1 O12 1.931132 1_555
Ni1 O4 1.936941 1_565
Ni1 O14 2.053594 1_555
Ni1 O9 2.068442 1_455
Ni1 O0 2.122459 1_555
Ni1 O10 2.168327 1_555
Ni2 O12 1.931132 1_555
Ni2 O4 1.936941 1_655
Ni2 O14 2.053594 1_555
Ni2 O9 2.068442 1_545
Ni2 O5 2.122459 1_555
Ni2 O11 2.168327 1_555
O0 Te0 1.984797 1_555
O1 Te0 1.974201 1_555
O5 Te0 1.984797 1_555
O6 Te0 1.992333 1_555
O7 Te0 1.992333 1_555
O8 Te1 1.969517 1_556
O9 Te0 1.948582 1_555
O10 Te1 1.998452 1_555
O11 Te1 1.998452 1_555
O13 Te1 1.955163 1_556
O14 Te1 1.974947 1_555
O15 Te1 1.955163 1_556
