# generated using pymatgen
data_P2WO7
_symmetry_space_group_name_H-M   'P 1'
_cell_length_a   8.34218167
_cell_length_b   4.92821420
_cell_length_c   6.99385870
_cell_angle_alpha   73.07014408
_cell_angle_beta   90.00000000
_cell_angle_gamma   90.00000000
_symmetry_Int_Tables_number   1
_chemical_formula_structural   P2WO7
_chemical_formula_sum   'P4 W2 O14'
_cell_volume   275.07085995
_cell_formula_units_Z   2
loop_
 _symmetry_equiv_pos_site_id
 _symmetry_equiv_pos_as_xyz
  1  'x, y, z'
loop_
 _atom_site_type_symbol
 _atom_site_label
 _atom_site_symmetry_multiplicity
 _atom_site_fract_x
 _atom_site_fract_y
 _atom_site_fract_z
 _atom_site_occupancy
  P  P0  1  0.97818634  0.23533733  0.89188884  1
  P  P1  1  0.05465653  0.61428553  0.50448770  1
  P  P2  1  0.55465653  0.38571447  0.49551230  1
  P  P3  1  0.47818634  0.76466267  0.10811116  1
  W  W0  1  0.74305948  0.78194954  0.72833614  1
  W  W1  1  0.24305948  0.21805046  0.27166386  1
  O  O0  1  0.92052493  -0.00724652  0.81759004  1
  O  O1  1  0.57883701  0.86718225  0.92498875  1
  O  O2  1  0.83808946  0.42586324  0.91268514  1
  O  O3  1  0.09619832  0.42174875  0.72415110  1
  O  O4  1  0.57240444  0.56462647  0.63884755  1
  O  O5  1  0.88381604  0.71172362  0.50544936  1
  O  O6  1  0.17619045  0.85275480  0.46528019  1
  O  O7  1  0.67619045  0.14724520  0.53471981  1
  O  O8  1  0.38381604  0.28827638  0.49455064  1
  O  O9  1  0.07240444  0.43537353  0.36115245  1
  O  O10  1  0.59619832  0.57825125  0.27584890  1
  O  O11  1  0.33808946  0.57413676  0.08731486  1
  O  O12  1  0.07883701  0.13281775  0.07501125  1
  O  O13  1  0.42052493  0.00724652  0.18240996  1
loop_
_geom_bond_atom_site_label_1
_geom_bond_atom_site_label_2
_geom_bond_distance
_geom_bond_site_symmetry_2
O0 P0 1.514080 1_555
O0 W0 2.009569 1_545
O1 P3 1.491204 1_556
O1 W0 2.069141 1_555
O2 P0 1.532389 1_555
O2 W0 2.013114 1_555
O3 P1 1.591117 1_555
O3 P0 1.600541 1_455
O4 P2 1.522847 1_555
O4 W0 1.988949 1_555
O5 P1 1.504546 1_655
O5 W0 2.059792 1_555
O6 P1 1.515445 1_555
O6 W1 1.991480 1_565
O7 P2 1.515445 1_555
O7 W0 1.991480 1_545
O8 P2 1.504546 1_555
O8 W1 2.059792 1_555
O9 P1 1.522847 1_555
O9 W1 1.988949 1_555
O10 P2 1.591117 1_555
O10 P3 1.600541 1_555
O11 P3 1.532389 1_555
O11 W1 2.013114 1_555
O12 P0 1.491204 1_454
O12 W1 2.069141 1_555
O13 P3 1.514080 1_545
O13 W1 2.009569 1_555
