# generated using pymatgen
data_Mn3Co(PO4)6
_symmetry_space_group_name_H-M   'P 1'
_cell_length_a   8.66309169
_cell_length_b   8.66309169
_cell_length_c   8.66309180
_cell_angle_alpha   58.09250507
_cell_angle_beta   58.09250507
_cell_angle_gamma   58.09249971
_symmetry_Int_Tables_number   1
_chemical_formula_structural   Mn3Co(PO4)6
_chemical_formula_sum   'Mn3 Co1 P6 O24'
_cell_volume   439.62511857
_cell_formula_units_Z   1
loop_
 _symmetry_equiv_pos_site_id
 _symmetry_equiv_pos_as_xyz
  1  'x, y, z'
loop_
 _atom_site_type_symbol
 _atom_site_label
 _atom_site_symmetry_multiplicity
 _atom_site_fract_x
 _atom_site_fract_y
 _atom_site_fract_z
 _atom_site_occupancy
  Mn  Mn0  1  0.64405200  0.64405200  0.64405200  1
  Mn  Mn1  1  0.85617900  0.85617900  0.85617900  1
  Mn  Mn2  1  0.35590200  0.35590200  0.35590200  1
  Co  Co0  1  0.14476300  0.14476300  0.14476300  1
  P  P0  1  0.24975300  0.53270300  0.96660900  1
  P  P1  1  0.96660900  0.24975300  0.53270300  1
  P  P2  1  0.53270300  0.96660900  0.24975300  1
  P  P3  1  0.46448500  0.03457400  0.75227000  1
  P  P4  1  0.03457400  0.75227000  0.46448500  1
  P  P5  1  0.75227000  0.46448500  0.03457400  1
  O  O0  1  0.14110900  0.27338700  0.51191900  1
  O  O1  1  0.51191900  0.14110900  0.27338700  1
  O  O2  1  0.27338700  0.51191900  0.14110900  1
  O  O3  1  0.07221800  0.71827400  0.94321200  1
  O  O4  1  0.42591900  0.55963700  0.78002000  1
  O  O5  1  0.22752400  0.35762700  0.98533000  1
  O  O6  1  0.94321200  0.07221800  0.71827400  1
  O  O7  1  0.78002000  0.42591900  0.55963700  1
  O  O8  1  0.55963700  0.78002000  0.42591900  1
  O  O9  1  0.63985000  0.01246500  0.77501400  1
  O  O10  1  0.27652000  0.05927500  0.92937500  1
  O  O11  1  0.01246500  0.77501400  0.63985000  1
  O  O12  1  0.98533000  0.22752400  0.35762700  1
  O  O13  1  0.71827400  0.94321200  0.07221800  1
  O  O14  1  0.35762700  0.98533000  0.22752400  1
  O  O15  1  0.43994600  0.22055400  0.57514300  1
  O  O16  1  0.22055400  0.57514300  0.43994600  1
  O  O17  1  0.05927500  0.92937500  0.27652000  1
  O  O18  1  0.77501400  0.63985000  0.01246500  1
  O  O19  1  0.57514300  0.43994600  0.22055400  1
  O  O20  1  0.92937500  0.27652000  0.05927500  1
  O  O21  1  0.72670800  0.48757800  0.86010900  1
  O  O22  1  0.48757800  0.86010900  0.72670800  1
  O  O23  1  0.86010900  0.72670800  0.48757800  1
loop_
_geom_bond_atom_site_label_1
_geom_bond_atom_site_label_2
_geom_bond_distance
_geom_bond_site_symmetry_2
Mn0 O22 1.887385 1_555
Mn0 O21 1.887385 1_555
Mn0 O23 1.887385 1_555
Mn0 O7 1.921070 1_555
Mn0 O8 1.921070 1_555
Mn0 O4 1.921070 1_555
Mn1 O9 1.882570 1_565
Mn1 O11 1.882570 1_655
Mn1 O18 1.882570 1_556
Mn1 O3 1.916872 1_655
Mn1 O13 1.916872 1_556
Mn1 O6 1.916872 1_565
Mn2 O1 1.877875 1_555
Mn2 O2 1.877875 1_555
Mn2 O0 1.877875 1_555
Mn2 O16 1.928082 1_555
Mn2 O15 1.928082 1_555
Mn2 O19 1.928082 1_555
Co0 O14 1.865655 1_545
Co0 O12 1.865655 1_455
Co0 O5 1.865655 1_554
Co0 O20 1.910177 1_455
Co0 O10 1.910177 1_554
Co0 O17 1.910177 1_545
O0 P1 1.536258 1_455
O1 P2 1.536258 1_545
O2 P0 1.536258 1_554
O3 P0 1.536996 1_555
O4 P0 1.538305 1_555
O5 P0 1.542554 1_555
O6 P1 1.536996 1_555
O7 P1 1.538304 1_555
O8 P2 1.538305 1_555
O9 P3 1.533762 1_555
O10 P3 1.545658 1_555
O11 P4 1.533762 1_555
O12 P1 1.542554 1_555
O13 P2 1.536996 1_555
O14 P2 1.542554 1_555
O15 P3 1.537839 1_555
O16 P4 1.537839 1_555
O17 P4 1.545658 1_555
O18 P5 1.533762 1_555
O19 P5 1.537840 1_555
O20 P5 1.545658 1_555
O21 P5 1.536474 1_556
O22 P3 1.536474 1_565
O23 P4 1.536474 1_655
