# generated using pymatgen
data_CuH5Pb4SO11
_symmetry_space_group_name_H-M   'P 1'
_cell_length_a   11.73524500
_cell_length_b   14.21864900
_cell_length_c   14.75473511
_cell_angle_alpha   79.91418980
_cell_angle_beta   90.00000000
_cell_angle_gamma   90.00000000
_symmetry_Int_Tables_number   1
_chemical_formula_structural   CuH5Pb4SO11
_chemical_formula_sum   'Cu8 H40 Pb32 S8 O88'
_cell_volume   2423.91942769
_cell_formula_units_Z   8
loop_
 _symmetry_equiv_pos_site_id
 _symmetry_equiv_pos_as_xyz
  1  'x, y, z'
loop_
 _atom_site_type_symbol
 _atom_site_label
 _atom_site_symmetry_multiplicity
 _atom_site_fract_x
 _atom_site_fract_y
 _atom_site_fract_z
 _atom_site_occupancy
  Cu  Cu0  1  0.50642500  0.76187100  0.20774200  1
  Cu  Cu1  1  0.00642500  0.23812900  0.29225800  1
  Cu  Cu2  1  0.49357500  0.23812900  0.79225800  1
  Cu  Cu3  1  0.99357500  0.76187100  0.70774200  1
  Cu  Cu4  1  0.25328300  0.49458500  0.02066600  1
  Cu  Cu5  1  0.75328300  0.50541500  0.47933400  1
  Cu  Cu6  1  0.74671700  0.50541500  0.97933400  1
  Cu  Cu7  1  0.24671700  0.49458500  0.52066600  1
  H  H0  1  0.43000600  0.60660200  0.27787200  1
  H  H1  1  0.93000600  0.39339800  0.22212800  1
  H  H2  1  0.56999400  0.39339800  0.72212800  1
  H  H3  1  0.06999400  0.60660200  0.77787200  1
  H  H4  1  0.57775100  0.60561000  0.18894600  1
  H  H5  1  0.07775100  0.39439000  0.31105400  1
  H  H6  1  0.42224900  0.39439000  0.81105400  1
  H  H7  1  0.92224900  0.60561000  0.68894600  1
  H  H8  1  0.59129000  0.91134500  0.14543900  1
  H  H9  1  0.09129000  0.08865500  0.35456100  1
  H  H10  1  0.40871000  0.08865500  0.85456100  1
  H  H11  1  0.90871000  0.91134500  0.64543900  1
  H  H12  1  0.40955800  0.90744900  0.21593200  1
  H  H13  1  0.90955800  0.09255100  0.28406800  1
  H  H14  1  0.59044200  0.09255100  0.78406800  1
  H  H15  1  0.09044200  0.90744900  0.71593200  1
  H  H16  1  0.32845000  0.53747200  0.15868700  1
  H  H17  1  0.82845000  0.46252800  0.34131300  1
  H  H18  1  0.67155000  0.46252800  0.84131300  1
  H  H19  1  0.17155000  0.53747200  0.65868700  1
  H  H20  1  0.17542500  0.44602000  0.88400800  1
  H  H21  1  0.67542500  0.55398000  0.61599200  1
  H  H22  1  0.82457500  0.55398000  0.11599200  1
  H  H23  1  0.32457500  0.44602000  0.38400800  1
  H  H24  1  0.32257500  0.55137600  0.86668300  1
  H  H25  1  0.82257500  0.44862400  0.63331700  1
  H  H26  1  0.67742500  0.44862400  0.13331700  1
  H  H27  1  0.17742500  0.55137600  0.36668300  1
  H  H28  1  0.18126600  0.44826500  0.17159000  1
  H  H29  1  0.68126600  0.55173500  0.32841000  1
  H  H30  1  0.81873400  0.55173500  0.82841000  1
  H  H31  1  0.31873400  0.44826500  0.67159000  1
  H  H32  1  0.73569200  0.03219000  0.10460500  1
  H  H33  1  0.23569200  0.96781000  0.39539500  1
  H  H34  1  0.26430800  0.96781000  0.89539500  1
  H  H35  1  0.76430800  0.03219000  0.60460500  1
  H  H36  1  0.00891200  0.88389700  0.24027000  1
  H  H37  1  0.50891200  0.11610300  0.25973000  1
  H  H38  1  0.99108800  0.11610300  0.75973000  1
  H  H39  1  0.49108800  0.88389700  0.74027000  1
  Pb  Pb0  1  0.77688000  0.78029300  0.31990000  1
  Pb  Pb1  1  0.27688000  0.21970700  0.18010000  1
  Pb  Pb2  1  0.22312000  0.21970700  0.68010000  1
  Pb  Pb3  1  0.72312000  0.78029300  0.81990000  1
  Pb  Pb4  1  0.47764100  0.89157100  0.41803900  1
  Pb  Pb5  1  0.97764100  0.10842900  0.08196100  1
  Pb  Pb6  1  0.52235900  0.10842900  0.58196100  1
  Pb  Pb7  1  0.02235900  0.89157100  0.91803900  1
  Pb  Pb8  1  0.49448900  0.90004600  0.93492700  1
  Pb  Pb9  1  0.99448900  0.09995400  0.56507300  1
  Pb  Pb10  1  0.50551100  0.09995400  0.06507300  1
  Pb  Pb11  1  0.00551100  0.90004600  0.43492700  1
  Pb  Pb12  1  0.24749100  0.74582900  0.09286100  1
  Pb  Pb13  1  0.74749100  0.25417100  0.40713900  1
  Pb  Pb14  1  0.75250900  0.25417100  0.90713900  1
  Pb  Pb15  1  0.25250900  0.74582900  0.59286100  1
  Pb  Pb16  1  0.73240600  0.76509700  0.56630300  1
  Pb  Pb17  1  0.23240600  0.23490300  0.93369700  1
  Pb  Pb18  1  0.26759400  0.23490300  0.43369700  1
  Pb  Pb19  1  0.76759400  0.76509700  0.06630300  1
  Pb  Pb20  1  0.27833200  0.77082400  0.84552100  1
  Pb  Pb21  1  0.77833200  0.22917600  0.65447900  1
  Pb  Pb22  1  0.72166800  0.22917600  0.15447900  1
  Pb  Pb23  1  0.22166800  0.77082400  0.34552100  1
  Pb  Pb24  1  0.50910700  0.63438500  0.99393400  1
  Pb  Pb25  1  0.00910700  0.36561500  0.50606600  1
  Pb  Pb26  1  0.49089300  0.36561500  0.00606600  1
  Pb  Pb27  1  0.99089300  0.63438500  0.49393400  1
  Pb  Pb28  1  0.50089200  0.63714600  0.45768500  1
  Pb  Pb29  1  0.00089200  0.36285400  0.04231500  1
  Pb  Pb30  1  0.49910800  0.36285400  0.54231500  1
  Pb  Pb31  1  0.99910800  0.63714600  0.95768500  1
  S  S0  1  0.49679800  0.58115400  0.73525100  1
  S  S1  1  0.99679800  0.41884600  0.76474900  1
  S  S2  1  0.50320200  0.41884600  0.26474900  1
  S  S3  1  0.00320200  0.58115400  0.23525100  1
  S  S4  1  0.71789300  0.01190300  0.41491400  1
  S  S5  1  0.21789300  0.98809700  0.08508600  1
  S  S6  1  0.28210700  0.98809700  0.58508600  1
  S  S7  1  0.78210700  0.01190300  0.91491400  1
  O  O0  1  0.59735600  0.51742000  0.72284800  1
  O  O1  1  0.09735600  0.48258000  0.77715200  1
  O  O2  1  0.40264400  0.48258000  0.27715200  1
  O  O3  1  0.90264400  0.51742000  0.22284800  1
  O  O4  1  0.52462300  0.63791200  0.80769600  1
  O  O5  1  0.02462300  0.36208800  0.69230400  1
  O  O6  1  0.47537700  0.36208800  0.19230400  1
  O  O7  1  0.97537700  0.63791200  0.30769600  1
  O  O8  1  0.39490200  0.51771300  0.76465900  1
  O  O9  1  0.89490200  0.48228700  0.73534100  1
  O  O10  1  0.60509800  0.48228700  0.23534100  1
  O  O11  1  0.10509800  0.51771300  0.26465900  1
  O  O12  1  0.47132500  0.64493500  0.64617500  1
  O  O13  1  0.97132500  0.35506500  0.85382500  1
  O  O14  1  0.52867500  0.35506500  0.35382500  1
  O  O15  1  0.02867500  0.64493500  0.14617500  1
  O  O16  1  0.82743400  0.06659300  0.41172300  1
  O  O17  1  0.32743400  0.93340700  0.08827700  1
  O  O18  1  0.17256600  0.93340700  0.58827700  1
  O  O19  1  0.67256600  0.06659300  0.91172300  1
  O  O20  1  0.62157600  0.08236000  0.39710000  1
  O  O21  1  0.12157600  0.91764000  0.10290000  1
  O  O22  1  0.37842400  0.91764000  0.60290000  1
  O  O23  1  0.87842400  0.08236000  0.89710000  1
  O  O24  1  0.71840400  0.94881500  0.34443400  1
  O  O25  1  0.21840400  0.05118500  0.15556600  1
  O  O26  1  0.28159600  0.05118500  0.65556600  1
  O  O27  1  0.78159600  0.94881500  0.84443400  1
  O  O28  1  0.70120600  0.95239400  0.50940300  1
  O  O29  1  0.20120600  0.04760600  0.99059700  1
  O  O30  1  0.29879400  0.04760600  0.49059700  1
  O  O31  1  0.79879400  0.95239400  0.00940300  1
  O  O32  1  0.86075500  0.76235800  0.45472800  1
  O  O33  1  0.36075500  0.23764200  0.04527200  1
  O  O34  1  0.13924500  0.23764200  0.54527200  1
  O  O35  1  0.63924500  0.76235800  0.95472800  1
  O  O36  1  0.60475800  0.77095000  0.43650300  1
  O  O37  1  0.10475800  0.22905000  0.06349700  1
  O  O38  1  0.39524200  0.22905000  0.56349700  1
  O  O39  1  0.89524200  0.77095000  0.93650300  1
  O  O40  1  0.35640800  0.76154500  0.46247100  1
  O  O41  1  0.85640800  0.23845500  0.03752900  1
  O  O42  1  0.64359200  0.23845500  0.53752900  1
  O  O43  1  0.14359200  0.76154500  0.96247100  1
  O  O44  1  0.39135400  0.75878500  0.98102200  1
  O  O45  1  0.89135400  0.24121500  0.51897800  1
  O  O46  1  0.60864600  0.24121500  0.01897800  1
  O  O47  1  0.10864600  0.75878500  0.48102200  1
  O  O48  1  0.43522400  0.67122100  0.29496500  1
  O  O49  1  0.93522400  0.32877900  0.20503500  1
  O  O50  1  0.56477600  0.32877900  0.70503500  1
  O  O51  1  0.06477600  0.67122100  0.79496500  1
  O  O52  1  0.57075700  0.66938400  0.14875300  1
  O  O53  1  0.07075700  0.33061600  0.35124700  1
  O  O54  1  0.42924300  0.33061600  0.85124700  1
  O  O55  1  0.92924300  0.66938400  0.64875300  1
  O  O56  1  0.57715000  0.85271500  0.12056600  1
  O  O57  1  0.07715000  0.14728500  0.37943400  1
  O  O58  1  0.42285000  0.14728500  0.87943400  1
  O  O59  1  0.92285000  0.85271500  0.62056600  1
  O  O60  1  0.44104100  0.85740300  0.26407700  1
  O  O61  1  0.94104100  0.14259700  0.23592300  1
  O  O62  1  0.55895900  0.14259700  0.73592300  1
  O  O63  1  0.05895900  0.85740300  0.76407700  1
  O  O64  1  0.31278900  0.57428500  0.09651600  1
  O  O65  1  0.81278900  0.42571500  0.40348400  1
  O  O66  1  0.68721100  0.42571500  0.90348400  1
  O  O67  1  0.18721100  0.57428500  0.59651600  1
  O  O68  1  0.19959000  0.41177300  0.94569400  1
  O  O69  1  0.69959000  0.58822700  0.55430600  1
  O  O70  1  0.80041000  0.58822700  0.05430600  1
  O  O71  1  0.30041000  0.41177300  0.44569400  1
  O  O72  1  0.30213800  0.58251500  0.91978200  1
  O  O73  1  0.80213800  0.41748500  0.58021800  1
  O  O74  1  0.69786200  0.41748500  0.08021800  1
  O  O75  1  0.19786200  0.58251500  0.41978200  1
  O  O76  1  0.19629200  0.41083200  0.12233700  1
  O  O77  1  0.69629200  0.58916800  0.37766300  1
  O  O78  1  0.80370800  0.58916800  0.87766300  1
  O  O79  1  0.30370800  0.41083200  0.62233700  1
  O  O80  1  0.68586200  0.06628600  0.14206400  1
  O  O81  1  0.18586200  0.93371400  0.35793600  1
  O  O82  1  0.31413800  0.93371400  0.85793600  1
  O  O83  1  0.81413800  0.06628600  0.64206400  1
  O  O84  1  0.96933500  0.85156100  0.29560000  1
  O  O85  1  0.46933500  0.14843900  0.20440000  1
  O  O86  1  0.03066500  0.14843900  0.70440000  1
  O  O87  1  0.53066500  0.85156100  0.79560000  1
loop_
_geom_bond_atom_site_label_1
_geom_bond_atom_site_label_2
_geom_bond_distance
_geom_bond_site_symmetry_2
Cu0 O56 1.851984 1_555
Cu0 O48 1.853306 1_555
Cu0 O52 1.859490 1_555
Cu0 O60 1.876213 1_555
Cu1 O57 1.851984 1_555
Cu1 O49 1.853306 1_455
Cu1 O53 1.859490 1_555
Cu1 O61 1.876213 1_455
Cu2 O58 1.851984 1_555
Cu2 O50 1.853306 1_555
Cu2 O54 1.859490 1_555
Cu2 O62 1.876213 1_555
Cu3 O59 1.851984 1_555
Cu3 O51 1.853306 1_655
Cu3 O55 1.859490 1_555
Cu3 O63 1.876213 1_655
Cu4 O72 1.858948 1_554
Cu4 O68 1.861003 1_554
Cu4 O64 1.862401 1_555
Cu4 O76 1.868188 1_555
Cu4 Pb26 3.364929 1_555
Cu5 O73 1.858948 1_555
Cu5 O69 1.861003 1_555
Cu5 O65 1.862401 1_555
Cu5 O77 1.868188 1_555
Cu5 Pb27 3.364929 1_555
Cu6 O74 1.858948 1_556
Cu6 O70 1.861003 1_556
Cu6 O66 1.862401 1_555
Cu6 O78 1.868188 1_555
Cu6 Pb24 3.364929 1_555
Cu7 O75 1.858948 1_555
Cu7 O71 1.861003 1_555
Cu7 O67 1.862401 1_555
Cu7 O79 1.868188 1_555
Cu7 Pb25 3.364929 1_555
H0 O48 0.996343 1_555
H1 O49 0.996343 1_555
H2 O50 0.996343 1_555
H3 O51 0.996343 1_555
H4 O52 0.996159 1_555
H5 O53 0.996159 1_555
H6 O54 0.996159 1_555
H7 O55 0.996159 1_555
H8 O56 0.982003 1_555
H9 O57 0.982003 1_555
H10 O58 0.982003 1_555
H11 O59 0.982003 1_555
H12 O60 0.985105 1_555
H13 O61 0.985105 1_555
H14 O62 0.985105 1_555
H15 O63 0.985105 1_555
H16 O64 0.990483 1_555
H17 O65 0.990483 1_555
H18 O66 0.990483 1_555
H19 O67 0.990483 1_555
H20 O68 0.995339 1_555
H21 O69 0.995339 1_555
H22 O70 0.995339 1_555
H23 O71 0.995339 1_555
H24 O72 0.994413 1_555
H25 O73 0.994413 1_555
H26 O74 0.994413 1_555
H27 O75 0.994413 1_555
H28 O76 0.988922 1_555
H29 O77 0.988922 1_555
H30 O78 0.988922 1_555
H31 O79 0.988922 1_555
H32 O80 0.988081 1_555
H33 O81 0.988081 1_555
H34 O82 0.988081 1_555
H35 O83 0.988081 1_555
H36 O84 0.980874 1_455
H37 O85 0.980874 1_555
H38 O86 0.980874 1_655
H39 O87 0.980874 1_555
O0 S0 1.518343 1_555
O1 S1 1.518343 1_455
O2 S2 1.518343 1_555
O3 S3 1.518343 1_655
O4 S0 1.484117 1_555
O4 Pb24 2.745599 1_555
O5 S1 1.484117 1_455
O5 Pb25 2.745599 1_555
O6 S2 1.484117 1_555
O6 Pb26 2.745599 1_555
O7 S3 1.484117 1_655
O7 Pb27 2.745599 1_555
O8 S0 1.514843 1_555
O9 S1 1.514843 1_555
O10 S2 1.514843 1_555
O11 S3 1.514843 1_555
O12 S0 1.490536 1_555
O12 Pb28 2.824033 1_555
O13 S1 1.490536 1_555
O13 Pb29 2.824033 1_656
O14 S2 1.490536 1_555
O14 Pb30 2.824033 1_555
O15 S3 1.490536 1_555
O15 Pb31 2.824033 1_454
O16 S4 1.498856 1_555
O17 S5 1.498856 1_555
O18 S6 1.498856 1_555
O19 S7 1.498856 1_555
O20 S4 1.502683 1_555
O21 S5 1.502683 1_555
O22 S6 1.502683 1_555
O23 S7 1.502683 1_555
O24 S4 1.487559 1_565
O24 Pb0 2.578238 1_555
O25 S5 1.487559 1_545
O25 Pb1 2.578238 1_555
O26 S6 1.487559 1_545
O26 Pb2 2.578238 1_555
O27 S7 1.487559 1_565
O27 Pb3 2.578238 1_555
O28 S4 1.511559 1_565
O28 Pb16 2.673569 1_555
O29 S5 1.511559 1_546
O29 Pb17 2.673569 1_555
O30 S6 1.511559 1_545
O30 Pb18 2.673569 1_555
O31 S7 1.511559 1_564
O31 Pb19 2.673569 1_555
O32 Pb0 2.194015 1_555
O32 Pb16 2.236694 1_555
O32 Pb27 2.368389 1_555
O32 Pb11 2.569728 1_655
O33 Pb1 2.194015 1_555
O33 Pb17 2.236694 1_554
O33 Pb26 2.368389 1_555
O33 Pb10 2.569728 1_555
O34 Pb2 2.194015 1_555
O34 Pb18 2.236694 1_555
O34 Pb25 2.368389 1_555
O34 Pb9 2.569728 1_455
O35 Pb3 2.194015 1_555
O35 Pb19 2.236694 1_556
O35 Pb24 2.368389 1_555
O35 Pb8 2.569728 1_555
O36 Pb28 2.234877 1_555
O36 Pb4 2.253296 1_555
O36 Pb16 2.421343 1_555
O36 Pb0 2.641497 1_555
O37 Pb29 2.234877 1_555
O37 Pb5 2.253296 1_455
O37 Pb17 2.421343 1_554
O37 Pb1 2.641497 1_555
O38 Pb30 2.234877 1_555
O38 Pb6 2.253296 1_555
O38 Pb18 2.421343 1_555
O38 Pb2 2.641497 1_555
O39 Pb31 2.234877 1_555
O39 Pb7 2.253296 1_655
O39 Pb19 2.421343 1_556
O39 Pb3 2.641497 1_555
O40 Pb15 2.255500 1_555
O40 Pb23 2.327115 1_555
O40 Pb4 2.333964 1_555
O40 Pb28 2.460131 1_555
O41 Pb14 2.255500 1_554
O41 Pb22 2.327115 1_555
O41 Pb5 2.333964 1_555
O41 Pb29 2.460131 1_655
O42 Pb13 2.255500 1_555
O42 Pb21 2.327115 1_555
O42 Pb6 2.333964 1_555
O42 Pb30 2.460131 1_555
O43 Pb12 2.255500 1_556
O43 Pb20 2.327115 1_555
O43 Pb7 2.333964 1_555
O43 Pb31 2.460131 1_455
O44 Pb24 2.226311 1_555
O44 Pb8 2.341625 1_555
O44 Pb12 2.345362 1_556
O44 Pb20 2.380282 1_555
O45 Pb25 2.226311 1_655
O45 Pb9 2.341625 1_555
O45 Pb13 2.345362 1_555
O45 Pb21 2.380282 1_555
O46 Pb26 2.226311 1_555
O46 Pb10 2.341625 1_555
O46 Pb14 2.345362 1_554
O46 Pb22 2.380282 1_555
O47 Pb27 2.226311 1_455
O47 Pb11 2.341625 1_555
O47 Pb15 2.345362 1_555
O47 Pb23 2.380282 1_555
O48 Pb28 2.487060 1_555
O49 Pb29 2.487060 1_655
O50 Pb30 2.487060 1_555
O51 Pb31 2.487060 1_455
O52 Pb24 2.527310 1_554
O52 Pb19 2.843929 1_555
O53 Pb25 2.527310 1_555
O53 Pb18 2.843929 1_555
O54 Pb26 2.527310 1_556
O54 Pb17 2.843929 1_555
O55 Pb27 2.527310 1_555
O55 Pb16 2.843929 1_555
O56 Pb19 2.745399 1_555
O57 Pb18 2.745399 1_555
O58 Pb17 2.745399 1_555
O59 Pb16 2.745399 1_555
O60 Pb4 2.442851 1_555
O61 Pb5 2.442851 1_555
O62 Pb6 2.442851 1_555
O63 Pb7 2.442851 1_555
O64 Pb12 2.548207 1_555
O64 Pb24 2.806386 1_554
O65 Pb13 2.548207 1_555
O65 Pb25 2.806386 1_655
O66 Pb14 2.548207 1_555
O66 Pb26 2.806386 1_556
O67 Pb15 2.548207 1_555
O67 Pb27 2.806386 1_455
O68 Pb17 2.580705 1_555
O68 Pb29 2.757904 1_556
O69 Pb16 2.580705 1_555
O69 Pb28 2.757904 1_555
O70 Pb19 2.580705 1_555
O70 Pb31 2.757904 1_554
O71 Pb18 2.580705 1_555
O71 Pb30 2.757904 1_555
O72 Pb20 2.723983 1_555
O72 Pb24 2.814751 1_555
O73 Pb21 2.723983 1_555
O73 Pb25 2.814751 1_655
O74 Pb22 2.723983 1_555
O74 Pb26 2.814751 1_555
O75 Pb23 2.723983 1_555
O75 Pb27 2.814751 1_455
O76 Pb29 2.720238 1_555
O77 Pb28 2.720238 1_555
O78 Pb31 2.720238 1_555
O79 Pb30 2.720238 1_555
O80 Pb22 2.392262 1_555
O80 Pb10 2.410098 1_555
O81 Pb23 2.392262 1_555
O81 Pb11 2.410098 1_555
O82 Pb20 2.392262 1_555
O82 Pb8 2.410098 1_555
O83 Pb21 2.392262 1_555
O83 Pb9 2.410098 1_555
O84 Pb11 2.319029 1_655
O84 Pb0 2.475681 1_555
O85 Pb10 2.319029 1_555
O85 Pb1 2.475681 1_555
O86 Pb9 2.319029 1_455
O86 Pb2 2.475681 1_555
O87 Pb8 2.319029 1_555
O87 Pb3 2.475681 1_555
