# generated using pymatgen
data_K4GeH4N2O3
_symmetry_space_group_name_H-M   'P 1'
_cell_length_a   6.53551700
_cell_length_b   11.11296400
_cell_length_c   12.44277360
_cell_angle_alpha   73.71919091
_cell_angle_beta   90.00000000
_cell_angle_gamma   90.00000000
_symmetry_Int_Tables_number   1
_chemical_formula_structural   K4GeH4N2O3
_chemical_formula_sum   'K16 Ge4 H16 N8 O12'
_cell_volume   867.46648753
_cell_formula_units_Z   4
loop_
 _symmetry_equiv_pos_site_id
 _symmetry_equiv_pos_as_xyz
  1  'x, y, z'
loop_
 _atom_site_type_symbol
 _atom_site_label
 _atom_site_symmetry_multiplicity
 _atom_site_fract_x
 _atom_site_fract_y
 _atom_site_fract_z
 _atom_site_occupancy
  K  K0  1  0.60577900  0.36745100  0.61438600  1
  K  K1  1  0.10577900  0.63254900  0.88561400  1
  K  K2  1  0.39422100  0.63254900  0.38561400  1
  K  K3  1  0.89422100  0.36745100  0.11438600  1
  K  K4  1  0.62247800  0.48795700  0.85320100  1
  K  K5  1  0.12247800  0.51204300  0.64679900  1
  K  K6  1  0.37752200  0.51204300  0.14679900  1
  K  K7  1  0.87752200  0.48795700  0.35320100  1
  K  K8  1  0.67924300  0.15151300  0.90242800  1
  K  K9  1  0.17924300  0.84848700  0.59757200  1
  K  K10  1  0.32075700  0.84848700  0.09757200  1
  K  K11  1  0.82075700  0.15151300  0.40242800  1
  K  K12  1  0.62082700  0.80599600  0.82197600  1
  K  K13  1  0.12082700  0.19400400  0.67802400  1
  K  K14  1  0.37917300  0.19400400  0.17802400  1
  K  K15  1  0.87917300  0.80599600  0.32197600  1
  Ge  Ge0  1  0.69472900  0.69685500  0.59898700  1
  Ge  Ge1  1  0.19472900  0.30314500  0.90101300  1
  Ge  Ge2  1  0.30527100  0.30314500  0.40101300  1
  Ge  Ge3  1  0.80527100  0.69685500  0.09898700  1
  H  H0  1  0.68131300  0.92858800  0.55998200  1
  H  H1  1  0.18131300  0.07141200  0.94001800  1
  H  H2  1  0.31868700  0.07141200  0.44001800  1
  H  H3  1  0.81868700  0.92858800  0.05998200  1
  H  H4  1  0.57253000  0.88800000  0.45771200  1
  H  H5  1  0.07253000  0.11200000  0.04228800  1
  H  H6  1  0.42747000  0.11200000  0.54228800  1
  H  H7  1  0.92747000  0.88800000  0.95771200  1
  H  H8  1  0.69420400  0.02580600  0.17091100  1
  H  H9  1  0.19420400  0.97419400  0.32908900  1
  H  H10  1  0.30579600  0.97419400  0.82908900  1
  H  H11  1  0.80579600  0.02580600  0.67091100  1
  H  H12  1  0.58110400  0.07332700  0.69195700  1
  H  H13  1  0.08110400  0.92667300  0.80804300  1
  H  H14  1  0.41889600  0.92667300  0.30804300  1
  H  H15  1  0.91889600  0.07332700  0.19195700  1
  N  N0  1  0.70121400  0.87212900  0.50792300  1
  N  N1  1  0.20121400  0.12787100  0.99207700  1
  N  N2  1  0.29878600  0.12787100  0.49207700  1
  N  N3  1  0.79878600  0.87212900  0.00792300  1
  N  N4  1  0.72465200  0.10709000  0.66590300  1
  N  N5  1  0.22465200  0.89291000  0.83409700  1
  N  N6  1  0.27534800  0.89291000  0.33409700  1
  N  N7  1  0.77534800  0.10709000  0.16590300  1
  O  O0  1  0.73192400  0.60921100  0.00599900  1
  O  O1  1  0.23192400  0.39078900  0.49400100  1
  O  O2  1  0.26807600  0.39078900  0.99400100  1
  O  O3  1  0.76807600  0.60921100  0.50599900  1
  O  O4  1  0.62222700  0.69185900  0.20492900  1
  O  O5  1  0.12222700  0.30814100  0.29507100  1
  O  O6  1  0.37777300  0.30814100  0.79507100  1
  O  O7  1  0.87777300  0.69185900  0.70492900  1
  O  O8  1  0.55158600  0.34286500  0.34264600  1
  O  O9  1  0.05158600  0.65713500  0.15735400  1
  O  O10  1  0.44841400  0.65713500  0.65735400  1
  O  O11  1  0.94841400  0.34286500  0.84264600  1
loop_
_geom_bond_atom_site_label_1
_geom_bond_atom_site_label_2
_geom_bond_distance
_geom_bond_site_symmetry_2
K0 O6 2.622707 1_555
K0 O1 2.839561 1_555
K0 O3 2.851406 1_555
K0 N4 2.888982 1_555
K1 O7 2.622707 1_455
K1 O0 2.839561 1_456
K1 O2 2.851406 1_555
K1 N5 2.888982 1_555
K2 O4 2.622707 1_555
K2 O3 2.839561 1_555
K2 O1 2.851406 1_555
K2 N6 2.888982 1_555
K3 O5 2.622707 1_655
K3 O2 2.839561 1_654
K3 O0 2.851406 1_555
K3 N7 2.888982 1_555
K4 O11 2.696925 1_555
K4 O0 2.716335 1_556
K4 O6 2.807916 1_555
K4 O10 2.863279 1_555
K4 O2 2.922225 1_555
K4 O7 2.996355 1_555
K5 O10 2.696925 1_555
K5 O1 2.716335 1_555
K5 O7 2.807916 1_455
K5 O11 2.863279 1_455
K5 O3 2.922225 1_455
K5 O6 2.996355 1_555
K6 O9 2.696925 1_555
K6 O2 2.716335 1_554
K6 O4 2.807916 1_555
K6 O8 2.863279 1_555
K6 O0 2.922225 1_555
K6 O5 2.996355 1_555
K7 O8 2.696925 1_555
K7 O3 2.716335 1_555
K7 O5 2.807916 1_655
K7 O9 2.863279 1_655
K7 O1 2.922225 1_655
K7 O4 2.996355 1_555
K8 O11 2.698714 1_555
K8 O6 2.718890 1_555
K9 O10 2.698714 1_555
K9 O7 2.718890 1_455
K10 O9 2.698714 1_555
K10 O4 2.718890 1_555
K11 O8 2.698714 1_555
K11 O5 2.718890 1_655
K12 O7 2.754202 1_555
K12 N5 2.782325 1_555
K12 O0 2.782976 1_556
K12 N3 2.863463 1_556
K12 O10 3.178373 1_555
K13 O6 2.754202 1_555
K13 N4 2.782325 1_455
K13 O1 2.782976 1_555
K13 N2 2.863463 1_555
K13 O11 3.178373 1_455
K14 O5 2.754202 1_555
K14 N7 2.782325 1_555
K14 O2 2.782976 1_554
K14 N1 2.863463 1_554
K14 O8 3.178373 1_555
K15 O4 2.754202 1_555
K15 N6 2.782325 1_655
K15 O3 2.782976 1_555
K15 N0 2.863463 1_555
K15 O9 3.178373 1_655
Ge0 O7 1.769416 1_555
Ge0 O10 1.770304 1_555
Ge0 O3 1.774544 1_555
Ge0 N0 1.960152 1_555
Ge1 O6 1.769416 1_555
Ge1 O11 1.770304 1_455
Ge1 O2 1.774544 1_555
Ge1 N1 1.960152 1_555
Ge2 O5 1.769416 1_555
Ge2 O8 1.770304 1_555
Ge2 O1 1.774544 1_555
Ge2 N2 1.960152 1_555
Ge3 O4 1.769416 1_555
Ge3 O9 1.770304 1_655
Ge3 O0 1.774544 1_555
Ge3 N3 1.960152 1_555
H0 N0 1.028615 1_555
H1 N1 1.028615 1_555
H2 N2 1.028615 1_555
H3 N3 1.028615 1_555
H4 N0 1.032939 1_555
H4 K15 2.926133 1_555
H5 N1 1.032939 1_554
H5 K14 2.926133 1_555
H6 N2 1.032939 1_555
H6 K13 2.926133 1_555
H7 N3 1.032939 1_556
H7 K12 2.926133 1_555
H8 N7 1.034177 1_555
H8 K14 2.798830 1_555
H8 K15 2.896042 1_545
H9 N6 1.034177 1_555
H9 K15 2.798830 1_455
H9 K14 2.896042 1_565
H10 N5 1.034177 1_555
H10 K12 2.798830 1_555
H10 K13 2.896042 1_565
H11 N4 1.034177 1_555
H11 K13 2.798830 1_655
H11 K12 2.896042 1_545
H12 N4 1.028504 1_555
H12 K12 2.969134 1_545
H13 N5 1.028504 1_555
H13 K13 2.969134 1_565
H14 N6 1.028504 1_555
H14 K14 2.969134 1_565
H15 N7 1.028504 1_555
H15 K15 2.969134 1_545
