# generated using pymatgen
data_Li3Fe2(NiO4)2
_symmetry_space_group_name_H-M   'P 1'
_cell_length_a   5.84270000
_cell_length_b   5.86698792
_cell_length_c   5.90658746
_cell_angle_alpha   119.28917184
_cell_angle_beta   119.56924872
_cell_angle_gamma   90.06625114
_symmetry_Int_Tables_number   1
_chemical_formula_structural   Li3Fe2(NiO4)2
_chemical_formula_sum   'Li3 Fe2 Ni2 O8'
_cell_volume   145.52509788
_cell_formula_units_Z   1
loop_
 _symmetry_equiv_pos_site_id
 _symmetry_equiv_pos_as_xyz
  1  'x, y, z'
loop_
 _atom_site_type_symbol
 _atom_site_label
 _atom_site_symmetry_multiplicity
 _atom_site_fract_x
 _atom_site_fract_y
 _atom_site_fract_z
 _atom_site_occupancy
  Li  Li0  1  0.00000000  0.50000000  0.50000000  1
  Li  Li1  1  0.50000000  0.50000000  0.00000000  1
  Li  Li2  1  0.00000000  0.00000000  0.50000000  1
  Fe  Fe0  1  0.50000000  0.00000000  0.00000000  1
  Fe  Fe1  1  0.00000000  0.00000000  0.00000000  1
  Ni  Ni0  1  0.50000000  0.50000000  0.50000000  1
  Ni  Ni1  1  0.50000000  0.00000000  0.50000000  1
  O  O0  1  0.71063800  0.21316200  0.45181000  1
  O  O1  1  0.26305100  0.76924600  0.98855100  1
  O  O2  1  0.25934900  0.22335100  0.47833000  1
  O  O3  1  0.72856400  0.77166600  0.99385400  1
  O  O4  1  0.27143600  0.22833400  0.00614600  1
  O  O5  1  0.74065100  0.77664900  0.52167000  1
  O  O6  1  0.73694900  0.23075400  0.01144900  1
  O  O7  1  0.28936200  0.78683800  0.54819000  1
loop_
_geom_bond_atom_site_label_1
_geom_bond_atom_site_label_2
_geom_bond_distance
_geom_bond_site_symmetry_2
Li0 O1 2.083670 1_555
Li0 O6 2.083670 1_455
Li0 O7 2.195722 1_555
Li0 O0 2.195722 1_455
Li0 O5 2.222789 1_455
Li0 O2 2.222789 1_555
Li1 O4 2.103479 1_555
Li1 O3 2.103479 1_554
Li1 O6 2.105638 1_555
Li1 O1 2.105638 1_554
Li1 O5 2.220630 1_555
Li1 O2 2.220630 1_554
Li2 O2 2.092986 1_555
Li2 O5 2.092986 1_445
Li2 O7 2.093233 1_545
Li2 O0 2.093233 1_455
Li2 O4 2.155121 1_556
Li2 O3 2.155121 1_444
Fe0 O6 1.888847 1_555
Fe0 O1 1.888847 1_544
Fe0 O4 1.893069 1_555
Fe0 O3 1.893069 1_544
Fe0 O0 1.920906 1_555
Fe0 O7 1.920906 1_544
Fe1 O2 2.035500 1_555
Fe1 O5 2.035500 1_444
Fe1 O4 2.049819 1_555
Fe1 O3 2.049819 1_444
Fe1 O6 2.053629 1_455
Fe1 O1 2.053629 1_544
Ni0 O2 2.059524 1_555
Ni0 O5 2.059524 1_555
Ni0 O7 2.075942 1_555
Ni0 O0 2.075942 1_555
Ni0 O3 2.105721 1_555
Ni0 O4 2.105721 1_555
Ni1 O5 1.923865 1_545
Ni1 O2 1.923865 1_555
Ni1 O7 1.962179 1_545
Ni1 O0 1.962179 1_555
Ni1 O6 2.177574 1_556
Ni1 O1 2.177574 1_544
