# generated using pymatgen
data_Li6Mn3(PO4)4
_symmetry_space_group_name_H-M   'P 1'
_cell_length_a   8.33815900
_cell_length_b   9.10423676
_cell_length_c   13.74444703
_cell_angle_alpha   83.24535865
_cell_angle_beta   89.85104566
_cell_angle_gamma   89.18291193
_symmetry_Int_Tables_number   1
_chemical_formula_structural   Li6Mn3(PO4)4
_chemical_formula_sum   'Li18 Mn9 P12 O48'
_cell_volume   1036.02839587
_cell_formula_units_Z   3
loop_
 _symmetry_equiv_pos_site_id
 _symmetry_equiv_pos_as_xyz
  1  'x, y, z'
loop_
 _atom_site_type_symbol
 _atom_site_label
 _atom_site_symmetry_multiplicity
 _atom_site_fract_x
 _atom_site_fract_y
 _atom_site_fract_z
 _atom_site_occupancy
  Li  Li0  1  0.57672300  0.88422200  0.97008600  1
  Li  Li1  1  0.91346500  0.36570900  0.97006700  1
  Li  Li2  1  0.86460000  0.76500700  0.84213500  1
  Li  Li3  1  0.62058700  0.26295100  0.85132700  1
  Li  Li4  1  0.36653400  0.08115600  0.83019200  1
  Li  Li5  1  0.10125600  0.95297100  0.70169900  1
  Li  Li6  1  0.90687700  0.70512700  0.63072700  1
  Li  Li7  1  0.55758600  0.22147100  0.65132400  1
  Li  Li8  1  0.62136200  0.58158300  0.51387300  1
  Li  Li9  1  0.13827300  0.90541700  0.49046200  1
  Li  Li10  1  0.36016900  0.41383400  0.48495100  1
  Li  Li11  1  0.40853800  0.76916900  0.39400100  1
  Li  Li12  1  0.76892600  0.59305800  0.27602200  1
  Li  Li13  1  0.90981800  0.08201600  0.27605700  1
  Li  Li14  1  0.62580300  0.94228900  0.17823700  1
  Li  Li15  1  0.86803900  0.40601400  0.17347200  1
  Li  Li16  1  0.14681000  0.24381300  0.15932800  1
  Li  Li17  1  0.09276100  0.60270600  0.06263100  1
  Mn  Mn0  1  0.50798200  0.65677300  0.82655100  1
  Mn  Mn1  1  0.14074200  0.56175400  0.81501200  1
  Mn  Mn2  1  0.99708000  0.16243300  0.83347300  1
  Mn  Mn3  1  0.49058800  0.01333500  0.49561500  1
  Mn  Mn4  1  0.00371100  0.49758500  0.49193100  1
  Mn  Mn5  1  0.87091000  0.10654800  0.50811000  1
  Mn  Mn6  1  0.99994200  0.84483700  0.16745100  1
  Mn  Mn7  1  0.37110600  0.72965700  0.15980900  1
  Mn  Mn8  1  0.49823300  0.32787900  0.16461100  1
  P  P0  1  0.20117000  0.85400100  0.94129500  1
  P  P1  1  0.29963800  0.35322400  0.94892100  1
  P  P2  1  0.70415400  0.97904300  0.72317000  1
  P  P3  1  0.79647100  0.47358300  0.72156900  1
  P  P4  1  0.29533900  0.69844600  0.60475100  1
  P  P5  1  0.20347500  0.19322000  0.61300500  1
  P  P6  1  0.79354600  0.81576100  0.38756600  1
  P  P7  1  0.69471700  0.32316700  0.38795100  1
  P  P8  1  0.19382100  0.51617400  0.27579500  1
  P  P9  1  0.29640000  0.02278900  0.27962300  1
  P  P10  1  0.70745200  0.64306800  0.05496200  1
  P  P11  1  0.79796500  0.13991000  0.05725200  1
  O  O0  1  0.71293900  0.70254100  0.94430800  1
  O  O1  1  0.79199600  0.19715300  0.94496300  1
  O  O2  1  0.37827500  0.84896300  0.90486000  1
  O  O3  1  0.09050300  0.74752000  0.89187800  1
  O  O4  1  0.34745400  0.51772600  0.91604600  1
  O  O5  1  0.11821000  0.35244400  0.90775500  1
  O  O6  1  0.40604600  0.24449700  0.90116300  1
  O  O7  1  0.14019900  0.01357600  0.92215500  1
  O  O8  1  0.88428700  0.97778700  0.75687900  1
  O  O9  1  0.90556000  0.59105300  0.76541200  1
  O  O10  1  0.62862700  0.47037800  0.77029400  1
  O  O11  1  0.64942800  0.81838900  0.74382800  1
  O  O12  1  0.87001300  0.31804100  0.74025300  1
  O  O13  1  0.59761400  0.08921300  0.77313500  1
  O  O14  1  0.30765300  0.65406900  0.71787600  1
  O  O15  1  0.20741900  0.13660800  0.72488500  1
  O  O16  1  0.78956800  0.53042300  0.60966600  1
  O  O17  1  0.34629200  0.86108000  0.58310800  1
  O  O18  1  0.69405600  0.03560700  0.60994800  1
  O  O19  1  0.39622100  0.59840400  0.54545400  1
  O  O20  1  0.13346500  0.34907400  0.59037100  1
  O  O21  1  0.11297800  0.69548700  0.57374200  1
  O  O22  1  0.37712600  0.19374300  0.56955700  1
  O  O23  1  0.09733800  0.07508500  0.56870400  1
  O  O24  1  0.91120400  0.91473000  0.43739800  1
  O  O25  1  0.62276800  0.81959200  0.43291100  1
  O  O26  1  0.84919200  0.65099500  0.39883200  1
  O  O27  1  0.57753100  0.42078300  0.43778000  1
  O  O28  1  0.86657500  0.32293200  0.43679900  1
  O  O29  1  0.29610400  0.96445900  0.39124300  1
  O  O30  1  0.65194500  0.15510600  0.40263200  1
  O  O31  1  0.19764600  0.48164800  0.38809900  1
  O  O32  1  0.79247400  0.87144200  0.27500400  1
  O  O33  1  0.71085300  0.38107400  0.27695800  1
  O  O34  1  0.40920600  0.91042100  0.23336000  1
  O  O35  1  0.14383900  0.68368600  0.24851300  1
  O  O36  1  0.36872700  0.51143500  0.23124700  1
  O  O37  1  0.35624800  0.18057300  0.25923700  1
  O  O38  1  0.08090100  0.41858400  0.22443200  1
  O  O39  1  0.12163400  0.02153700  0.23698700  1
  O  O40  1  0.87595200  0.63817600  0.10670400  1
  O  O41  1  0.59887000  0.75934200  0.10195000  1
  O  O42  1  0.85597900  0.97757100  0.07150000  1
  O  O43  1  0.91703800  0.24430500  0.10283500  1
  O  O44  1  0.64392400  0.48558200  0.07271800  1
  O  O45  1  0.63200000  0.14509500  0.10784100  1
  O  O46  1  0.19479500  0.79533700  0.05427500  1
  O  O47  1  0.29436100  0.32587600  0.06097900  1
loop_
_geom_bond_atom_site_label_1
_geom_bond_atom_site_label_2
_geom_bond_distance
_geom_bond_site_symmetry_2
Li0 O2 1.932695 1_555
Li0 O41 2.030405 1_556
Li0 O0 2.057589 1_555
Li1 O1 1.915852 1_555
Li1 O5 1.916624 1_655
Li1 O43 2.019261 1_556
Li2 O0 1.928230 1_555
Li2 O3 2.003328 1_655
Li2 O9 2.027897 1_555
Li2 O8 2.151018 1_555
Li2 O11 2.261431 1_555
Li3 O6 1.916408 1_555
Li3 O1 1.965110 1_555
Li3 O13 2.025640 1_555
Li3 O10 2.078388 1_555
Li4 O6 1.904833 1_555
Li4 O15 1.982169 1_555
Li4 O13 2.077380 1_555
Li4 O2 2.239607 1_545
Li4 O7 2.318526 1_555
Li5 O15 1.961967 1_565
Li5 O8 1.980071 1_455
Li5 O23 2.024763 1_565
Li6 O21 1.891896 1_655
Li6 O16 1.929908 1_555
Li6 O9 2.013336 1_555
Li7 O22 1.917615 1_555
Li7 O13 1.970158 1_555
Li7 O18 2.156317 1_555
Li8 O19 1.933695 1_555
Li8 O27 1.935970 1_555
Li8 O16 1.940164 1_555
Li8 O25 2.316736 1_555
Li8 O26 2.508352 1_555
Li9 O29 1.928461 1_555
Li9 O23 2.008203 1_565
Li9 O24 2.027782 1_455
Li9 O21 2.122071 1_555
Li9 O17 2.159510 1_555
Li10 O27 1.922667 1_555
Li10 O31 1.944687 1_555
Li10 O19 1.987447 1_555
Li10 O22 2.198170 1_555
Li10 O20 2.415956 1_555
Li11 O25 1.942592 1_555
Li11 O29 1.994564 1_555
Li11 O34 2.420939 1_555
Li11 O19 2.450094 1_555
Li12 O26 1.949546 1_555
Li12 O33 1.995027 1_555
Li12 O40 2.481063 1_555
Li12 O32 2.543254 1_555
Li13 O39 1.935906 1_655
Li13 O32 2.166327 1_545
Li13 O24 2.538179 1_545
Li14 O34 1.968761 1_555
Li14 O32 1.974475 1_555
Li14 O45 1.982477 1_565
Li14 O41 2.084884 1_555
Li14 O42 2.414742 1_555
Li15 O43 1.895785 1_555
Li15 O38 1.919631 1_655
Li15 O33 1.927502 1_555
Li15 O40 2.204867 1_555
Li15 O44 2.381887 1_555
Li16 O47 1.918090 1_555
Li16 O38 1.985429 1_555
Li16 O43 2.068857 1_455
Li16 O39 2.186637 1_555
Li16 O37 2.250471 1_555
Li17 O40 1.939844 1_455
Li17 O46 1.951242 1_555
Li17 O3 2.553078 1_554
Mn0 O11 2.120775 1_555
Mn0 O4 2.140248 1_555
Mn0 O10 2.178419 1_555
Mn0 O14 2.246025 1_555
Mn0 O2 2.402649 1_555
Mn0 O0 2.430448 1_555
Mn1 O14 2.045842 1_555
Mn1 O9 2.081014 1_455
Mn1 O3 2.133023 1_555
Mn1 O5 2.174640 1_555
Mn1 O4 2.218475 1_555
Mn2 O12 2.075680 1_555
Mn2 O7 2.078285 1_655
Mn2 O8 2.298975 1_545
Mn2 O15 2.327211 1_655
Mn2 O1 2.336055 1_555
Mn2 O5 2.350682 1_655
Mn3 O17 2.112602 1_545
Mn3 O30 2.182189 1_555
Mn3 O22 2.229117 1_555
Mn3 O29 2.251321 1_545
Mn3 O25 2.316453 1_545
Mn3 O18 2.342532 1_555
Mn4 O20 2.089216 1_555
Mn4 O31 2.168550 1_555
Mn4 O28 2.179418 1_455
Mn4 O26 2.187442 1_455
Mn4 O21 2.422700 1_555
Mn4 O16 2.445349 1_455
Mn5 O23 2.068045 1_655
Mn5 O18 2.086779 1_555
Mn5 O28 2.094481 1_555
Mn5 O24 2.118503 1_545
Mn5 O30 2.338925 1_555
Mn6 O42 2.057290 1_555
Mn6 O35 2.098978 1_655
Mn6 O39 2.223571 1_665
Mn6 O32 2.301185 1_555
Mn6 O46 2.322366 1_655
Mn6 O40 2.394883 1_555
Mn7 O34 2.058933 1_555
Mn7 O41 2.066006 1_555
Mn7 O46 2.098746 1_555
Mn7 O36 2.110395 1_555
Mn7 O35 2.267850 1_555
Mn8 O37 2.125715 1_555
Mn8 O44 2.178889 1_555
Mn8 O45 2.206834 1_555
Mn8 O47 2.222262 1_555
Mn8 O36 2.258543 1_555
Mn8 O33 2.444710 1_555
O0 P10 1.554017 1_556
O1 P11 1.570498 1_556
O2 P0 1.559885 1_555
O3 P0 1.560853 1_555
O4 P1 1.569405 1_555
O5 P1 1.616903 1_555
O6 P1 1.524042 1_555
O7 P0 1.525792 1_545
O8 P2 1.572453 1_555
O9 P3 1.586339 1_555
O10 P3 1.549087 1_555
O11 P2 1.532581 1_555
O12 P3 1.528983 1_555
O13 P2 1.549277 1_545
O14 P4 1.563067 1_555
O15 P5 1.563547 1_555
O16 P3 1.564950 1_555
O17 P4 1.541108 1_555
O18 P2 1.582685 1_545
O19 P4 1.533157 1_555
O20 P5 1.524598 1_555
O21 P4 1.581676 1_555
O22 P5 1.564661 1_555
O23 P5 1.579467 1_555
O24 P6 1.554771 1_555
O25 P6 1.554488 1_555
O26 P6 1.554139 1_555
O27 P7 1.525961 1_555
O28 P7 1.583911 1_555
O29 P9 1.563336 1_565
O30 P7 1.565751 1_555
O31 P8 1.538904 1_555
O32 P6 1.570363 1_555
O33 P7 1.560471 1_555
O34 P9 1.567827 1_565
O35 P8 1.577432 1_555
O36 P8 1.582229 1_555
O37 P9 1.521877 1_555
O38 P8 1.532692 1_555
O39 P9 1.572746 1_555
O40 P10 1.574061 1_555
O41 P10 1.577289 1_555
O42 P11 1.539079 1_565
O43 P11 1.565829 1_555
O44 P10 1.527933 1_555
O45 P11 1.549700 1_555
O46 P0 1.582624 1_554
O47 P1 1.531607 1_554
