# generated using pymatgen
data_K2TbO3
_symmetry_space_group_name_H-M   'P 1'
_cell_length_a   6.38707791
_cell_length_b   6.38707791
_cell_length_c   12.46165568
_cell_angle_alpha   85.04132178
_cell_angle_beta   85.04132178
_cell_angle_gamma   122.10979123
_symmetry_Int_Tables_number   1
_chemical_formula_structural   K2TbO3
_chemical_formula_sum   'K8 Tb4 O12'
_cell_volume   423.68208809
_cell_formula_units_Z   4
loop_
 _symmetry_equiv_pos_site_id
 _symmetry_equiv_pos_as_xyz
  1  'x, y, z'
loop_
 _atom_site_type_symbol
 _atom_site_label
 _atom_site_symmetry_multiplicity
 _atom_site_fract_x
 _atom_site_fract_y
 _atom_site_fract_z
 _atom_site_occupancy
  K  K0  1  0.68805733  0.85553447  0.50753559  1
  K  K1  1  0.85553447  0.68805733  0.00753559  1
  K  K2  1  0.08806793  0.91193207  0.25000000  1
  K  K3  1  -0.00000000  0.50000000  0.50000000  1
  K  K4  1  0.91193207  0.08806793  0.75000000  1
  K  K5  1  0.50000000  0.00000000  -0.00000000  1
  K  K6  1  0.14446553  0.31194267  -0.00753559  1
  K  K7  1  0.31194267  0.14446553  0.49246441  1
  Tb  Tb0  1  0.41515399  0.58484601  0.25000000  1
  Tb  Tb1  1  0.76296695  0.23703305  0.25000000  1
  Tb  Tb2  1  0.58484601  0.41515399  0.75000000  1
  Tb  Tb3  1  0.23703305  0.76296695  0.75000000  1
  O  O0  1  0.73721024  0.94881779  0.14784867  1
  O  O1  1  0.43924055  0.87374360  0.35263956  1
  O  O2  1  0.94881779  0.73721024  0.64784867  1
  O  O3  1  0.66294174  0.48469182  0.33835713  1
  O  O4  1  0.87374360  0.43924055  0.85263956  1
  O  O5  1  0.48469182  0.66294174  0.83835713  1
  O  O6  1  0.51530818  0.33705826  0.16164287  1
  O  O7  1  0.12625640  0.56075945  0.14736044  1
  O  O8  1  0.33705826  0.51530818  0.66164287  1
  O  O9  1  0.05118221  0.26278976  0.35215133  1
  O  O10  1  0.56075945  0.12625640  0.64736044  1
  O  O11  1  0.26278976  0.05118221  0.85215133  1
loop_
_geom_bond_atom_site_label_1
_geom_bond_atom_site_label_2
_geom_bond_distance
_geom_bond_site_symmetry_2
K0 O8 2.606033 1_555
K0 O1 2.636858 1_555
K0 O9 2.798945 1_665
K0 O2 2.831166 1_555
K0 O10 2.908191 1_565
K0 O3 3.255533 1_555
K1 O6 2.606033 1_555
K1 O4 2.636858 1_554
K1 O11 2.798945 1_664
K1 O0 2.831166 1_555
K1 O7 2.908191 1_655
K1 O5 3.255533 1_554
K2 O3 2.668037 1_455
K2 O6 2.668037 1_565
K2 O0 2.774963 1_455
K2 O9 2.774963 1_565
K2 O7 2.783884 1_555
K2 O1 2.783884 1_555
K3 O9 2.588802 1_555
K3 O2 2.588802 1_455
K3 O1 2.858895 1_555
K3 O10 2.858895 1_455
K3 O3 3.043302 1_455
K3 O8 3.043302 1_555
K4 O5 2.668037 1_545
K4 O8 2.668037 1_655
K4 O11 2.774963 1_655
K4 O2 2.774963 1_545
K4 O10 2.783884 1_555
K4 O4 2.783884 1_555
K5 O11 2.588802 1_554
K5 O0 2.588802 1_545
K5 O7 2.858895 1_545
K5 O4 2.858895 1_554
K5 O5 3.043302 1_544
K5 O6 3.043302 1_555
K6 O5 2.606033 1_554
K6 O7 2.636858 1_555
K6 O0 2.798945 1_445
K6 O11 2.831166 1_554
K6 O4 2.908191 1_454
K6 O6 3.255533 1_555
K7 O3 2.606033 1_555
K7 O10 2.636858 1_555
K7 O2 2.798945 1_445
K7 O9 2.831166 1_555
K7 O1 2.908191 1_545
K7 O8 3.255533 1_555
O0 Tb1 2.270602 1_565
O0 Tb0 2.282134 1_555
O1 Tb0 2.281383 1_555
O1 Tb1 2.285745 1_565
O2 Tb3 2.270602 1_655
O2 Tb2 2.282134 1_555
O3 Tb1 2.318723 1_555
O3 Tb0 2.319932 1_555
O4 Tb2 2.281383 1_555
O4 Tb3 2.285745 1_655
O5 Tb3 2.318723 1_555
O5 Tb2 2.319932 1_555
O6 Tb1 2.318723 1_555
O6 Tb0 2.319932 1_555
O7 Tb0 2.281383 1_555
O7 Tb1 2.285745 1_455
O8 Tb3 2.318723 1_555
O8 Tb2 2.319932 1_555
O9 Tb1 2.270602 1_455
O9 Tb0 2.282134 1_555
O10 Tb2 2.281383 1_555
O10 Tb3 2.285745 1_545
O11 Tb3 2.270602 1_545
O11 Tb2 2.282134 1_555
