# generated using pymatgen
data_LiMnO2
_symmetry_space_group_name_H-M   'P 1'
_cell_length_a   4.29809500
_cell_length_b   5.91777500
_cell_length_c   8.72163000
_cell_angle_alpha   90.00000000
_cell_angle_beta   90.00000000
_cell_angle_gamma   90.00000000
_symmetry_Int_Tables_number   1
_chemical_formula_structural   LiMnO2
_chemical_formula_sum   'Li6 Mn6 O12'
_cell_volume   221.83604700
_cell_formula_units_Z   6
loop_
 _symmetry_equiv_pos_site_id
 _symmetry_equiv_pos_as_xyz
  1  'x, y, z'
loop_
 _atom_site_type_symbol
 _atom_site_label
 _atom_site_symmetry_multiplicity
 _atom_site_fract_x
 _atom_site_fract_y
 _atom_site_fract_z
 _atom_site_occupancy
  Li  Li0  1  0.00000000  0.87045100  0.83389000  1
  Li  Li1  1  0.00000000  0.87045100  0.16611000  1
  Li  Li2  1  0.00000000  0.37717800  0.50000000  1
  Li  Li3  1  0.50000000  0.62282200  0.00000000  1
  Li  Li4  1  0.50000000  0.12954900  0.33389000  1
  Li  Li5  1  0.50000000  0.12954900  0.66611000  1
  Mn  Mn0  1  0.00000000  0.36873500  0.82857000  1
  Mn  Mn1  1  0.00000000  0.90732100  0.50000000  1
  Mn  Mn2  1  0.00000000  0.36873500  0.17143000  1
  Mn  Mn3  1  0.50000000  0.63126500  0.32857000  1
  Mn  Mn4  1  0.50000000  0.63126500  0.67143000  1
  Mn  Mn5  1  0.50000000  0.09267900  0.00000000  1
  O  O0  1  0.00000000  0.58030000  0.00000000  1
  O  O1  1  0.00000000  0.62443100  0.32660800  1
  O  O2  1  0.00000000  0.62443100  0.67339200  1
  O  O3  1  0.00000000  0.13377900  0.00000000  1
  O  O4  1  0.00000000  0.13970300  0.32860600  1
  O  O5  1  0.00000000  0.13970300  0.67139400  1
  O  O6  1  0.50000000  0.86029700  0.82860600  1
  O  O7  1  0.50000000  0.86622100  0.50000000  1
  O  O8  1  0.50000000  0.86029700  0.17139400  1
  O  O9  1  0.50000000  0.41970000  0.50000000  1
  O  O10  1  0.50000000  0.37556900  0.82660800  1
  O  O11  1  0.50000000  0.37556900  0.17339200  1
loop_
_geom_bond_atom_site_label_1
_geom_bond_atom_site_label_2
_geom_bond_distance
_geom_bond_site_symmetry_2
Li0 O2 2.019671 1_555
Li0 O3 2.127728 1_566
Li0 O5 2.132458 1_565
Li0 O6 2.150381 1_555
Li0 O6 2.150381 1_455
Li0 O0 2.246582 1_556
Li1 O1 2.019671 1_555
Li1 O3 2.127728 1_565
Li1 O4 2.132458 1_565
Li1 O8 2.150381 1_455
Li1 O8 2.150381 1_555
Li1 O0 2.246582 1_555
Li2 O4 2.051698 1_555
Li2 O5 2.051698 1_555
Li2 O1 2.104246 1_555
Li2 O2 2.104246 1_555
Li2 O9 2.163730 1_455
Li2 O9 2.163730 1_555
Li3 O6 2.051698 1_554
Li3 O8 2.051698 1_555
Li3 O11 2.104246 1_555
Li3 O10 2.104246 1_554
Li3 O0 2.163730 1_555
Li3 O0 2.163730 1_655
Li4 O11 2.019671 1_555
Li4 O7 2.127728 1_545
Li4 O8 2.132458 1_545
Li4 O4 2.150381 1_555
Li4 O4 2.150381 1_655
Li4 O9 2.246582 1_555
Li5 O10 2.019671 1_555
Li5 O7 2.127728 1_545
Li5 O6 2.132458 1_545
Li5 O5 2.150381 1_555
Li5 O5 2.150381 1_655
Li5 O9 2.246582 1_555
Mn0 O5 1.927739 1_555
Mn0 O0 1.950118 1_556
Mn0 O2 2.030107 1_555
Mn0 O3 2.041747 1_556
Mn0 O10 2.149496 1_555
Mn0 O10 2.149496 1_455
Mn1 O4 2.031173 1_565
Mn1 O5 2.031173 1_565
Mn1 O7 2.162767 1_555
Mn1 O7 2.162767 1_455
Mn1 O1 2.255986 1_555
Mn1 O2 2.255986 1_555
Mn2 O4 1.927739 1_555
Mn2 O0 1.950118 1_555
Mn2 O1 2.030107 1_555
Mn2 O3 2.041747 1_555
Mn2 O11 2.149496 1_555
Mn2 O11 2.149496 1_455
Mn3 O8 1.927739 1_555
Mn3 O9 1.950118 1_555
Mn3 O11 2.030107 1_555
Mn3 O7 2.041747 1_555
Mn3 O1 2.149496 1_655
Mn3 O1 2.149496 1_555
Mn4 O6 1.927739 1_555
Mn4 O9 1.950118 1_555
Mn4 O10 2.030107 1_555
Mn4 O7 2.041747 1_555
Mn4 O2 2.149496 1_655
Mn4 O2 2.149496 1_555
Mn5 O8 2.031173 1_545
Mn5 O6 2.031173 1_544
Mn5 O3 2.162767 1_555
Mn5 O3 2.162767 1_655
Mn5 O11 2.255986 1_555
Mn5 O10 2.255986 1_554
