# generated using pymatgen
data_Li2MnSi3O8
_symmetry_space_group_name_H-M   'P 1'
_cell_length_a   6.87852090
_cell_length_b   9.71558631
_cell_length_c   10.18550657
_cell_angle_alpha   90.00319884
_cell_angle_beta   90.90556295
_cell_angle_gamma   89.99304629
_symmetry_Int_Tables_number   1
_chemical_formula_structural   Li2MnSi3O8
_chemical_formula_sum   'Li8 Mn4 Si12 O32'
_cell_volume   680.60080649
_cell_formula_units_Z   4
loop_
 _symmetry_equiv_pos_site_id
 _symmetry_equiv_pos_as_xyz
  1  'x, y, z'
loop_
 _atom_site_type_symbol
 _atom_site_label
 _atom_site_symmetry_multiplicity
 _atom_site_fract_x
 _atom_site_fract_y
 _atom_site_fract_z
 _atom_site_occupancy
  Li  Li0  1  0.00450748  0.11138829  0.09240062  1
  Li  Li1  1  0.00454566  0.11146572  0.59252750  1
  Li  Li2  1  0.49556308  0.61127839  0.15793224  1
  Li  Li3  1  0.49550188  0.61132447  0.65787733  1
  Li  Li4  1  0.52081643  0.35138564  0.32425611  1
  Li  Li5  1  0.52080160  0.35139257  0.82426249  1
  Li  Li6  1  0.97917285  0.85139665  0.42576352  1
  Li  Li7  1  0.97918329  0.85139115  0.92576617  1
  Mn  Mn0  1  0.51958289  0.18467317  0.57548014  1
  Mn  Mn1  1  0.98030469  0.68472256  0.17442635  1
  Mn  Mn2  1  0.51959278  0.18466523  0.07546617  1
  Mn  Mn3  1  0.98028719  0.68472249  0.67442451  1
  Si  Si0  1  0.98199975  0.32639983  0.36627638  1
  Si  Si1  1  0.98199896  0.32640490  0.86630324  1
  Si  Si2  1  0.51795753  0.82647766  0.38371175  1
  Si  Si3  1  0.51797169  0.82646404  0.88373616  1
  Si  Si4  1  0.28126475  0.91623839  0.12864972  1
  Si  Si5  1  0.28128001  0.91623427  0.62865956  1
  Si  Si6  1  0.21875051  0.41629026  0.12138944  1
  Si  Si7  1  0.21869053  0.41628468  0.62138954  1
  Si  Si8  1  0.77699988  0.59148693  0.42584948  1
  Si  Si9  1  0.77699927  0.59148474  0.92586661  1
  Si  Si10  1  0.72306273  0.09146839  0.32401618  1
  Si  Si11  1  0.72303766  0.09146085  0.82403675  1
  O  O0  1  0.06125793  0.86831280  0.09950591  1
  O  O1  1  0.06127866  0.86830036  0.59951273  1
  O  O2  1  0.43885669  0.36839093  0.15039942  1
  O  O3  1  0.43878787  0.36837569  0.65041984  1
  O  O4  1  0.06291729  0.33771660  0.21887057  1
  O  O5  1  0.06283847  0.33772517  0.71887560  1
  O  O6  1  0.43734082  0.83777409  0.03124105  1
  O  O7  1  0.43734002  0.83778988  0.53122744  1
  O  O8  1  0.35200660  0.86714169  0.27735182  1
  O  O9  1  0.35204060  0.86712858  0.77735682  1
  O  O10  1  0.14769763  0.36700918  0.47279956  1
  O  O11  1  0.14773974  0.36701197  0.97279876  1
  O  O12  1  0.22044481  0.57881000  0.13704209  1
  O  O13  1  0.22041152  0.57880719  0.63702446  1
  O  O14  1  0.27953051  0.07877260  0.11294662  1
  O  O15  1  0.27953097  0.07877348  0.61298251  1
  O  O16  1  0.58150743  0.66573993  0.35264760  1
  O  O17  1  0.58151965  0.66573098  0.85265202  1
  O  O18  1  0.91853618  0.16564065  0.39729652  1
  O  O19  1  0.91852452  0.16564066  0.89730505  1
  O  O20  1  0.53825696  0.17122757  0.37812246  1
  O  O21  1  0.53822480  0.17122633  0.87811888  1
  O  O22  1  0.96183147  0.67119716  0.37177837  1
  O  O23  1  0.96182369  0.67119006  0.87178968  1
  O  O24  1  0.71366633  0.92632126  0.37168938  1
  O  O25  1  0.71367109  0.92631653  0.87171556  1
  O  O26  1  0.78629857  0.42632877  0.37813493  1
  O  O27  1  0.78629526  0.42632473  0.87816815  1
  O  O28  1  0.74502582  0.60320488  0.07999768  1
  O  O29  1  0.74502814  0.60319325  0.57997718  1
  O  O30  1  0.75496405  0.10319558  0.16988039  1
  O  O31  1  0.75493383  0.10317718  0.66990398  1
loop_
_geom_bond_atom_site_label_1
_geom_bond_atom_site_label_2
_geom_bond_distance
_geom_bond_site_symmetry_2
Li0 O30 1.902188 1_455
Li0 O14 1.926209 1_555
Li0 O19 2.130556 1_454
Li0 O0 2.394530 1_545
Li0 O4 2.576729 1_555
Li1 O31 1.902204 1_455
Li1 O15 1.925991 1_555
Li1 O18 2.131699 1_455
Li1 O1 2.395338 1_545
Li1 O5 2.575422 1_555
Li2 O28 1.903608 1_555
Li2 O12 1.927017 1_555
Li2 O16 2.127377 1_555
Li2 O2 2.392889 1_555
Li2 O6 2.579088 1_555
Li3 O29 1.903877 1_555
Li3 O13 1.926871 1_555
Li3 O17 2.127938 1_555
Li3 O3 2.393462 1_555
Li3 O7 2.578566 1_555
Li4 O20 1.837685 1_555
Li4 O2 1.857250 1_555
Li4 O26 2.033383 1_555
Li5 O21 1.837723 1_555
Li5 O3 1.857202 1_555
Li5 O27 2.033486 1_555
Li6 O22 1.838357 1_555
Li6 O1 1.856408 1_655
Li6 O24 2.033842 1_555
Li7 O23 1.838353 1_555
Li7 O0 1.856270 1_656
Li7 O25 2.033818 1_555
Mn0 O15 1.987803 1_555
Mn0 O20 2.020532 1_555
Mn0 O3 2.022358 1_555
Mn0 O31 2.030561 1_555
Mn1 O12 1.987897 1_655
Mn1 O22 2.020432 1_555
Mn1 O0 2.021820 1_655
Mn1 O28 2.030386 1_555
Mn2 O14 1.987781 1_555
Mn2 O21 2.020399 1_554
Mn2 O2 2.022418 1_555
Mn2 O30 2.030527 1_555
Mn3 O13 1.987853 1_655
Mn3 O23 2.020565 1_555
Mn3 O1 2.021755 1_655
Mn3 O29 2.030410 1_555
O0 Si4 1.606556 1_555
O1 Si5 1.606549 1_555
O2 Si6 1.606796 1_555
O3 Si7 1.606801 1_555
O4 Si0 1.613240 1_455
O4 Si6 1.658765 1_555
O5 Si1 1.613257 1_455
O5 Si7 1.658817 1_555
O6 Si3 1.613452 1_554
O6 Si4 1.658752 1_555
O7 Si2 1.613523 1_555
O7 Si5 1.658736 1_555
O8 Si2 1.610451 1_555
O8 Si4 1.653805 1_555
O9 Si3 1.610488 1_555
O9 Si5 1.653821 1_555
O10 Si0 1.610246 1_455
O10 Si7 1.653736 1_555
O11 Si1 1.610259 1_455
O11 Si6 1.653785 1_556
O12 Si6 1.587020 1_555
O13 Si7 1.587030 1_555
O14 Si4 1.587228 1_545
O15 Si5 1.587250 1_545
O16 Si2 1.653521 1_555
O16 Si8 1.688994 1_555
O17 Si3 1.653514 1_555
O17 Si9 1.688952 1_555
O18 Si0 1.653605 1_555
O18 Si10 1.689002 1_555
O19 Si1 1.653635 1_555
O19 Si11 1.689054 1_555
O20 Si10 1.594357 1_555
O21 Si11 1.594338 1_555
O22 Si8 1.594320 1_555
O23 Si9 1.594278 1_555
O24 Si2 1.665452 1_555
O24 Si10 1.677942 1_565
O25 Si3 1.665449 1_555
O25 Si11 1.677924 1_565
O26 Si0 1.665552 1_555
O26 Si8 1.678071 1_555
O27 Si1 1.665519 1_555
O27 Si9 1.678040 1_555
O28 Si9 1.592739 1_554
O29 Si8 1.592694 1_555
O30 Si10 1.592732 1_555
O31 Si11 1.592688 1_555
