# generated using pymatgen
data_Mn3Cr3(CoO8)2
_symmetry_space_group_name_H-M   'P 1'
_cell_length_a   5.81591972
_cell_length_b   5.81591972
_cell_length_c   8.69840036
_cell_angle_alpha   89.42729556
_cell_angle_beta   89.42729556
_cell_angle_gamma   59.99725032
_symmetry_Int_Tables_number   1
_chemical_formula_structural   Mn3Cr3(CoO8)2
_chemical_formula_sum   'Mn3 Cr3 Co2 O16'
_cell_volume   254.78031465
_cell_formula_units_Z   1
loop_
 _symmetry_equiv_pos_site_id
 _symmetry_equiv_pos_as_xyz
  1  'x, y, z'
loop_
 _atom_site_type_symbol
 _atom_site_label
 _atom_site_symmetry_multiplicity
 _atom_site_fract_x
 _atom_site_fract_y
 _atom_site_fract_z
 _atom_site_occupancy
  Mn  Mn0  1  0.82939400  0.82939400  0.78866600  1
  Mn  Mn1  1  0.16618600  0.66188500  0.28744200  1
  Mn  Mn2  1  0.66188500  0.16618600  0.28744200  1
  Cr  Cr0  1  0.32968800  0.83287000  0.79952100  1
  Cr  Cr1  1  0.83287000  0.32968800  0.79952100  1
  Cr  Cr2  1  0.16212300  0.16212300  0.29888600  1
  Co  Co0  1  0.66904700  0.66904700  0.51689100  1
  Co  Co1  1  0.33379400  0.33379400  0.01753200  1
  O  O0  1  0.34075000  0.83225800  0.39384800  1
  O  O1  1  0.52980900  0.52980900  0.66020600  1
  O  O2  1  0.66994400  0.66994400  0.90710800  1
  O  O3  1  0.99738100  0.99738100  0.68593500  1
  O  O4  1  0.99604900  0.99604900  0.18129400  1
  O  O5  1  0.83225800  0.34075000  0.39384800  1
  O  O6  1  0.52373600  0.95252700  0.65769600  1
  O  O7  1  0.95252700  0.52373600  0.65769600  1
  O  O8  1  0.17421100  0.17421100  0.89348200  1
  O  O9  1  0.82978100  0.82978100  0.39782900  1
  O  O10  1  0.04932700  0.47383300  0.15591700  1
  O  O11  1  0.47383300  0.04932700  0.15591700  1
  O  O12  1  0.33589000  0.33589000  0.40027900  1
  O  O13  1  0.17529800  0.65673000  0.89653500  1
  O  O14  1  0.47736900  0.47736900  0.15421200  1
  O  O15  1  0.65673000  0.17529800  0.89653500  1
loop_
_geom_bond_atom_site_label_1
_geom_bond_atom_site_label_2
_geom_bond_distance
_geom_bond_site_symmetry_2
Mn0 O2 1.898216 1_555
Mn0 O3 1.904539 1_555
Mn0 O7 1.929212 1_555
Mn0 O6 1.929212 1_555
Mn0 O13 1.983550 1_655
Mn0 O15 1.983550 1_565
Mn1 O12 1.908632 1_555
Mn1 O4 1.915169 1_455
Mn1 O10 1.936722 1_555
Mn1 O9 1.942661 1_455
Mn1 O14 1.952093 1_555
Mn1 O0 1.977984 1_555
Mn2 O12 1.908632 1_555
Mn2 O4 1.915169 1_545
Mn2 O11 1.936722 1_555
Mn2 O9 1.942661 1_545
Mn2 O14 1.952093 1_555
Mn2 O5 1.977984 1_555
Cr0 O13 1.858841 1_555
Cr0 O8 1.910266 1_565
Cr0 O3 1.948538 1_455
Cr0 O2 1.957988 1_555
Cr0 O1 1.972995 1_555
Cr0 O6 2.005072 1_555
Cr1 O15 1.858841 1_555
Cr1 O8 1.910266 1_655
Cr1 O3 1.948538 1_545
Cr1 O2 1.957988 1_555
Cr1 O1 1.972995 1_555
Cr1 O7 2.005072 1_555
Cr2 O5 1.853200 1_455
Cr2 O0 1.853200 1_545
Cr2 O12 1.969161 1_555
Cr2 O4 1.970928 1_445
Cr2 O10 2.011293 1_555
Cr2 O11 2.011293 1_555
Co0 O1 1.865756 1_555
Co0 O6 1.886458 1_555
Co0 O7 1.886458 1_555
Co0 O9 1.911956 1_555
Co0 O5 1.974873 1_555
Co0 O0 1.974873 1_555
Co1 O11 1.865924 1_555
Co1 O10 1.865924 1_555
Co1 O14 1.882818 1_555
Co1 O15 1.932198 1_554
Co1 O13 1.932198 1_554
Co1 O8 1.946449 1_554
