# generated using pymatgen
data_Li2Co2(SiO3)3
_symmetry_space_group_name_H-M   'P 1'
_cell_length_a   7.12023000
_cell_length_b   10.07637900
_cell_length_c   12.53914000
_cell_angle_alpha   90.00000000
_cell_angle_beta   90.00000000
_cell_angle_gamma   90.00000000
_symmetry_Int_Tables_number   1
_chemical_formula_structural   Li2Co2(SiO3)3
_chemical_formula_sum   'Li8 Co8 Si12 O36'
_cell_volume   899.63484435
_cell_formula_units_Z   4
loop_
 _symmetry_equiv_pos_site_id
 _symmetry_equiv_pos_as_xyz
  1  'x, y, z'
loop_
 _atom_site_type_symbol
 _atom_site_label
 _atom_site_symmetry_multiplicity
 _atom_site_fract_x
 _atom_site_fract_y
 _atom_site_fract_z
 _atom_site_occupancy
  Li  Li0  1  0.56270800  0.51478500  0.16035800  1
  Li  Li1  1  0.56270800  0.98521500  0.16035800  1
  Li  Li2  1  0.06270800  0.01478500  0.33964200  1
  Li  Li3  1  0.06270800  0.48521500  0.33964200  1
  Li  Li4  1  0.93729200  0.51478500  0.66035800  1
  Li  Li5  1  0.93729200  0.98521500  0.66035800  1
  Li  Li6  1  0.43729200  0.01478500  0.83964200  1
  Li  Li7  1  0.43729200  0.48521500  0.83964200  1
  Co  Co0  1  0.11589100  0.56465600  0.08752100  1
  Co  Co1  1  0.11589100  0.93534400  0.08752100  1
  Co  Co2  1  0.61589100  0.06465600  0.41247900  1
  Co  Co3  1  0.61589100  0.43534400  0.41247900  1
  Co  Co4  1  0.38410900  0.56465600  0.58752100  1
  Co  Co5  1  0.38410900  0.93534400  0.58752100  1
  Co  Co6  1  0.88410900  0.06465600  0.91247900  1
  Co  Co7  1  0.88410900  0.43534400  0.91247900  1
  Si  Si0  1  0.45703700  0.75000000  0.02654200  1
  Si  Si1  1  0.14420300  0.25000000  0.05971000  1
  Si  Si2  1  0.46921100  0.25000000  0.21464600  1
  Si  Si3  1  0.96921100  0.75000000  0.28535400  1
  Si  Si4  1  0.64420300  0.75000000  0.44029000  1
  Si  Si5  1  0.95703700  0.25000000  0.47345800  1
  Si  Si6  1  0.04296300  0.75000000  0.52654200  1
  Si  Si7  1  0.35579700  0.25000000  0.55971000  1
  Si  Si8  1  0.03078900  0.25000000  0.71464600  1
  Si  Si9  1  0.53078900  0.75000000  0.78535400  1
  Si  Si10  1  0.85579700  0.75000000  0.94029000  1
  Si  Si11  1  0.54296300  0.25000000  0.97345800  1
  O  O0  1  0.68993900  0.75000000  0.03421800  1
  O  O1  1  0.02041300  0.11591000  0.04639600  1
  O  O2  1  0.02041300  0.38409000  0.04639600  1
  O  O3  1  0.38212400  0.61336000  0.08168900  1
  O  O4  1  0.38212400  0.88664000  0.08168900  1
  O  O5  1  0.59329900  0.25000000  0.10226900  1
  O  O6  1  0.01448200  0.61020700  0.22635000  1
  O  O7  1  0.01448200  0.88979300  0.22635000  1
  O  O8  1  0.24419600  0.25000000  0.17862600  1
  O  O9  1  0.74419600  0.75000000  0.32137400  1
  O  O10  1  0.51448200  0.11020700  0.27365000  1
  O  O11  1  0.51448200  0.38979300  0.27365000  1
  O  O12  1  0.09329900  0.75000000  0.39773100  1
  O  O13  1  0.88212400  0.11336000  0.41831100  1
  O  O14  1  0.88212400  0.38664000  0.41831100  1
  O  O15  1  0.52041300  0.61591000  0.45360400  1
  O  O16  1  0.52041300  0.88409000  0.45360400  1
  O  O17  1  0.18993900  0.25000000  0.46578200  1
  O  O18  1  0.81006100  0.75000000  0.53421800  1
  O  O19  1  0.47958700  0.11591000  0.54639600  1
  O  O20  1  0.47958700  0.38409000  0.54639600  1
  O  O21  1  0.11787600  0.61336000  0.58168900  1
  O  O22  1  0.11787600  0.88664000  0.58168900  1
  O  O23  1  0.90670100  0.25000000  0.60226900  1
  O  O24  1  0.48551800  0.61020700  0.72635000  1
  O  O25  1  0.48551800  0.88979300  0.72635000  1
  O  O26  1  0.25580400  0.25000000  0.67862600  1
  O  O27  1  0.75580400  0.75000000  0.82137400  1
  O  O28  1  0.98551800  0.11020700  0.77365000  1
  O  O29  1  0.98551800  0.38979300  0.77365000  1
  O  O30  1  0.40670100  0.75000000  0.89773100  1
  O  O31  1  0.61787600  0.11336000  0.91831100  1
  O  O32  1  0.61787600  0.38664000  0.91831100  1
  O  O33  1  0.97958700  0.61591000  0.95360400  1
  O  O34  1  0.97958700  0.88409000  0.95360400  1
  O  O35  1  0.31006100  0.25000000  0.96578200  1
loop_
_geom_bond_atom_site_label_1
_geom_bond_atom_site_label_2
_geom_bond_distance
_geom_bond_site_symmetry_2
Li0 O3 1.900776 1_555
Li0 O11 1.929307 1_555
Li1 O4 1.900776 1_555
Li1 O10 1.929307 1_565
Li2 O13 1.900776 1_455
Li2 O7 1.929307 1_545
Li3 O14 1.900776 1_455
Li3 O6 1.929307 1_555
Li4 O21 1.900776 1_655
Li4 O29 1.929307 1_555
Li5 O22 1.900776 1_655
Li5 O28 1.929307 1_565
Li6 O31 1.900776 1_555
Li6 O25 1.929307 1_545
Li7 O32 1.900776 1_555
Li7 O24 1.929307 1_555
Co0 O6 1.939692 1_555
Co0 O3 1.959501 1_555
Co0 O33 2.007076 1_454
Co0 O2 2.009598 1_555
Co1 O7 1.939692 1_555
Co1 O4 1.959501 1_555
Co1 O34 2.007076 1_454
Co1 O1 2.009598 1_565
Co2 O10 1.939692 1_555
Co2 O13 1.959501 1_555
Co2 O19 2.007076 1_555
Co2 O16 2.009598 1_545
Co3 O11 1.939692 1_555
Co3 O14 1.959501 1_555
Co3 O20 2.007076 1_555
Co3 O15 2.009598 1_555
Co4 O24 1.939692 1_555
Co4 O21 1.959501 1_555
Co4 O15 2.007076 1_555
Co4 O20 2.009598 1_555
Co5 O25 1.939692 1_555
Co5 O22 1.959501 1_555
Co5 O16 2.007076 1_555
Co5 O19 2.009598 1_565
Co6 O28 1.939692 1_555
Co6 O31 1.959501 1_555
Co6 O1 2.007076 1_656
Co6 O34 2.009598 1_545
Co7 O29 1.939692 1_555
Co7 O32 1.959501 1_555
Co7 O2 2.007076 1_656
Co7 O33 2.009598 1_555
O0 Si0 1.661107 1_555
O0 Si10 1.667871 1_554
O1 Si1 1.621834 1_555
O2 Si1 1.621834 1_555
O3 Si0 1.630447 1_555
O4 Si0 1.630447 1_555
O5 Si11 1.654466 1_554
O5 Si2 1.663198 1_555
O6 Si3 1.623413 1_455
O7 Si3 1.623413 1_455
O8 Si1 1.652361 1_555
O8 Si2 1.664605 1_555
O9 Si4 1.652361 1_555
O9 Si3 1.664605 1_555
O10 Si2 1.623413 1_555
O11 Si2 1.623413 1_555
O12 Si6 1.654466 1_555
O12 Si3 1.663198 1_455
O13 Si5 1.630447 1_555
O14 Si5 1.630447 1_555
O15 Si4 1.621834 1_555
O16 Si4 1.621834 1_555
O17 Si5 1.661107 1_455
O17 Si7 1.667871 1_555
O18 Si6 1.661107 1_655
O18 Si4 1.667871 1_555
O19 Si7 1.621834 1_555
O20 Si7 1.621834 1_555
O21 Si6 1.630447 1_555
O22 Si6 1.630447 1_555
O23 Si5 1.654466 1_555
O23 Si8 1.663198 1_655
O24 Si9 1.623413 1_555
O25 Si9 1.623413 1_555
O26 Si7 1.652361 1_555
O26 Si8 1.664605 1_555
O27 Si10 1.652361 1_555
O27 Si9 1.664605 1_555
O28 Si8 1.623413 1_655
O29 Si8 1.623413 1_655
O30 Si0 1.654466 1_556
O30 Si9 1.663198 1_555
O31 Si11 1.630447 1_555
O32 Si11 1.630447 1_555
O33 Si10 1.621834 1_555
O34 Si10 1.621834 1_555
O35 Si11 1.661107 1_555
O35 Si1 1.667871 1_556
