# generated using pymatgen
data_NaVSiO4
_symmetry_space_group_name_H-M   'P 1'
_cell_length_a   5.43379820
_cell_length_b   6.70651800
_cell_length_c   8.53625407
_cell_angle_alpha   90.00001497
_cell_angle_beta   89.99981425
_cell_angle_gamma   89.99736454
_symmetry_Int_Tables_number   1
_chemical_formula_structural   NaVSiO4
_chemical_formula_sum   'Na4 V4 Si4 O16'
_cell_volume   311.07702183
_cell_formula_units_Z   4
loop_
 _symmetry_equiv_pos_site_id
 _symmetry_equiv_pos_as_xyz
  1  'x, y, z'
loop_
 _atom_site_type_symbol
 _atom_site_label
 _atom_site_symmetry_multiplicity
 _atom_site_fract_x
 _atom_site_fract_y
 _atom_site_fract_z
 _atom_site_occupancy
  Na  Na0  1  0.99999500  0.24999500  0.31631000  1
  Na  Na1  1  0.49999900  0.24999700  0.81631200  1
  Na  Na2  1  0.99999700  0.75000400  0.68368900  1
  Na  Na3  1  0.50000000  0.75000400  0.18368700  1
  V  V0  1  0.50000200  0.99999400  0.50000000  1
  V  V1  1  0.00000200  0.50000300  0.00000400  1
  V  V2  1  0.99999500  0.00000400  0.00000100  1
  V  V3  1  0.49999700  0.49999400  0.49999900  1
  Si  Si0  1  0.00000200  0.75000000  0.33859100  1
  Si  Si1  1  0.50000000  0.75000200  0.83859100  1
  Si  Si2  1  0.00000100  0.25000300  0.66140800  1
  Si  Si3  1  0.50000200  0.24999700  0.16140900  1
  O  O0  1  0.99999900  0.55621900  0.22447000  1
  O  O1  1  0.49999700  0.55622000  0.72447000  1
  O  O2  1  0.00000300  0.94378000  0.22446900  1
  O  O3  1  0.50000200  0.94378000  0.72447100  1
  O  O4  1  0.99999800  0.05622200  0.77552700  1
  O  O5  1  0.50000000  0.05622100  0.27553200  1
  O  O6  1  0.00000300  0.44378200  0.77553300  1
  O  O7  1  0.50000300  0.44377700  0.27553000  1
  O  O8  1  0.24904100  0.74999300  0.45439900  1
  O  O9  1  0.74904000  0.74999500  0.95440100  1
  O  O10  1  0.24904100  0.24999800  0.54560200  1
  O  O11  1  0.74904400  0.24999100  0.04560100  1
  O  O12  1  0.75095900  0.75000200  0.45439900  1
  O  O13  1  0.25095700  0.75000900  0.95439800  1
  O  O14  1  0.75096000  0.25000600  0.54559900  1
  O  O15  1  0.25096200  0.25000600  0.04559900  1
loop_
_geom_bond_atom_site_label_1
_geom_bond_atom_site_label_2
_geom_bond_distance
_geom_bond_site_symmetry_2
Na0 O2 2.198191 1_645
Na0 O0 2.198245 1_555
Na0 O14 2.379507 1_555
Na0 O10 2.379569 1_655
Na0 O11 2.683180 1_555
Na0 O15 2.683232 1_655
Na1 O3 2.198203 1_545
Na1 O1 2.198244 1_555
Na1 O15 2.379499 1_556
Na1 O11 2.379545 1_556
Na1 O10 2.683207 1_555
Na1 O14 2.683230 1_555
Na2 O4 2.198201 1_565
Na2 O6 2.198244 1_655
Na2 O12 2.379530 1_555
Na2 O8 2.379541 1_655
Na2 O13 2.683205 1_655
Na2 O9 2.683211 1_555
Na3 O5 2.198216 1_565
Na3 O7 2.198273 1_555
Na3 O9 2.379501 1_554
Na3 O13 2.379539 1_554
Na3 O8 2.683217 1_555
Na3 O12 2.683225 1_555
O0 Si0 1.624176 1_655
O0 V1 1.952837 1_655
O1 Si1 1.624181 1_555
O1 V3 1.952892 1_555
O2 Si0 1.624176 1_555
O2 V2 1.952865 1_465
O3 Si1 1.624155 1_555
O3 V0 1.952877 1_555
O4 Si2 1.624166 1_655
O4 V2 1.952907 1_556
O5 Si3 1.624160 1_555
O5 V0 1.952868 1_545
O6 Si2 1.624186 1_555
O6 V1 1.952886 1_556
O7 Si3 1.624171 1_555
O7 V3 1.952864 1_555
O8 Si0 1.675857 1_555
O8 V3 2.195883 1_555
O8 V0 2.196007 1_555
O9 Si1 1.675872 1_555
O9 V1 2.195872 1_656
O9 V2 2.196026 1_566
O10 Si2 1.675846 1_555
O10 V0 2.195927 1_545
O10 V3 2.195966 1_555
O11 Si3 1.675865 1_555
O11 V2 2.195803 1_555
O11 V1 2.196046 1_655
O12 Si0 1.675870 1_655
O12 V0 2.195850 1_555
O12 V3 2.196043 1_555
O13 Si1 1.675865 1_555
O13 V2 2.195885 1_466
O13 V1 2.196019 1_556
O14 Si2 1.675871 1_655
O14 V3 2.195850 1_555
O14 V0 2.196050 1_545
O15 Si3 1.675872 1_555
O15 V1 2.195878 1_555
O15 V2 2.196028 1_455
