# generated using pymatgen
data_Mn3(O2F)2
_symmetry_space_group_name_H-M   'P 1'
_cell_length_a   4.62829500
_cell_length_b   4.59204801
_cell_length_c   9.25537003
_cell_angle_alpha   89.99125637
_cell_angle_beta   89.99927575
_cell_angle_gamma   89.99988817
_symmetry_Int_Tables_number   1
_chemical_formula_structural   Mn3(O2F)2
_chemical_formula_sum   'Mn6 O8 F4'
_cell_volume   196.70764273
_cell_formula_units_Z   2
loop_
 _symmetry_equiv_pos_site_id
 _symmetry_equiv_pos_as_xyz
  1  'x, y, z'
loop_
 _atom_site_type_symbol
 _atom_site_label
 _atom_site_symmetry_multiplicity
 _atom_site_fract_x
 _atom_site_fract_y
 _atom_site_fract_z
 _atom_site_occupancy
  Mn  Mn0  1  0.02884700  0.00524600  0.00654500  1
  Mn  Mn1  1  0.02881400  0.00522700  0.32679800  1
  Mn  Mn2  1  0.00265900  0.97623800  0.66666000  1
  Mn  Mn3  1  0.47116700  0.50531400  0.82681200  1
  Mn  Mn4  1  0.49734400  0.47609100  0.16664900  1
  Mn  Mn5  1  0.47113100  0.50532400  0.50652400  1
  O  O0  1  0.21475000  0.80066300  0.16663200  1
  O  O1  1  0.18879900  0.80887800  0.49429300  1
  O  O2  1  0.18882900  0.80892900  0.83905300  1
  O  O3  1  0.31118400  0.30882300  0.99429200  1
  O  O4  1  0.31116300  0.30886600  0.33904200  1
  O  O5  1  0.28531000  0.30075300  0.66662200  1
  O  O6  1  0.67742900  0.69206600  0.66666600  1
  O  O7  1  0.82260600  0.19204800  0.16667200  1
  F  F0  1  0.70454400  0.70136700  0.99630500  1
  F  F1  1  0.70441600  0.70133200  0.33706800  1
  F  F2  1  0.79543900  0.20142800  0.49625700  1
  F  F3  1  0.79556800  0.20140700  0.83710800  1
loop_
_geom_bond_atom_site_label_1
_geom_bond_atom_site_label_2
_geom_bond_distance
_geom_bond_site_symmetry_2
Mn0 O3 1.914087 1_554
Mn0 O2 1.940224 1_544
Mn0 O0 1.953925 1_545
Mn0 O7 1.960550 1_455
Mn1 O4 1.914355 1_555
Mn1 O1 1.940115 1_545
Mn1 O0 1.954705 1_545
Mn1 O7 1.960327 1_455
Mn2 O2 1.969311 1_555
Mn2 O1 1.969319 1_555
Mn2 O5 1.982936 1_565
Mn2 O6 1.992150 1_455
Mn3 O2 1.914233 1_555
Mn3 O3 1.940290 1_555
Mn3 O5 1.954724 1_555
Mn3 O6 1.960434 1_555
Mn4 O3 1.969138 1_554
Mn4 O4 1.969166 1_555
Mn4 O0 1.982955 1_555
Mn4 O7 1.991870 1_555
Mn5 O1 1.913981 1_555
Mn5 O4 1.940443 1_555
Mn5 O5 1.953793 1_555
Mn5 O6 1.960683 1_555
F0 Mn0 2.051624 1_666
F0 Mn3 2.106792 1_555
F0 Mn4 2.115400 1_556
F1 Mn1 2.051987 1_665
F1 Mn5 2.106005 1_555
F1 Mn4 2.115824 1_555
F2 Mn5 2.051700 1_555
F2 Mn1 2.106821 1_655
F2 Mn2 2.115672 1_645
F3 Mn3 2.052044 1_555
F3 Mn0 2.106179 1_656
F3 Mn2 2.115882 1_645
