# generated using pymatgen
data_Cr4OF11
_symmetry_space_group_name_H-M   'P 1'
_cell_length_a   5.34765816
_cell_length_b   5.34765816
_cell_length_c   17.13998699
_cell_angle_alpha   78.60756598
_cell_angle_beta   78.60756598
_cell_angle_gamma   56.39635398
_symmetry_Int_Tables_number   1
_chemical_formula_structural   Cr4OF11
_chemical_formula_sum   'Cr8 O2 F22'
_cell_volume   397.86141605
_cell_formula_units_Z   2
loop_
 _symmetry_equiv_pos_site_id
 _symmetry_equiv_pos_as_xyz
  1  'x, y, z'
loop_
 _atom_site_type_symbol
 _atom_site_label
 _atom_site_symmetry_multiplicity
 _atom_site_fract_x
 _atom_site_fract_y
 _atom_site_fract_z
 _atom_site_occupancy
  Cr  Cr0  1  0.61520100  0.26784900  0.69177700  1
  Cr  Cr1  1  0.14739800  0.73966700  0.19031600  1
  Cr  Cr2  1  0.73215100  0.38479900  0.30822300  1
  Cr  Cr3  1  0.26033300  0.85260200  0.80968400  1
  Cr  Cr4  1  0.88157800  0.49573900  0.93707300  1
  Cr  Cr5  1  0.37186500  0.00661900  0.43669800  1
  Cr  Cr6  1  0.50426100  0.11842200  0.06292700  1
  Cr  Cr7  1  0.99338100  0.62813500  0.56330200  1
  O  O0  1  0.47193700  0.47133900  0.78092200  1
  O  O1  1  0.52866100  0.52806300  0.21907800  1
  F  F0  1  0.77431000  0.03420500  0.59802400  1
  F  F1  1  0.56105700  0.94405000  0.75077100  1
  F  F2  1  0.19411200  0.05909600  0.12672500  1
  F  F3  1  0.68794800  0.56284700  0.62396100  1
  F  F4  1  0.96985000  0.97026700  0.28220100  1
  F  F5  1  0.28576500  0.27701300  0.96996100  1
  F  F6  1  0.96579500  0.22569000  0.40197600  1
  F  F7  1  0.47542200  0.71857000  0.90480400  1
  F  F8  1  0.28143000  0.52457800  0.09519600  1
  F  F9  1  0.21796500  0.46919000  0.65679200  1
  F  F10  1  0.05595000  0.43894300  0.24922900  1
  F  F11  1  0.94090400  0.80588800  0.87327500  1
  F  F12  1  0.77905400  0.78975900  0.46875100  1
  F  F13  1  0.02973300  0.03015000  0.71779900  1
  F  F14  1  0.72298700  0.71423500  0.03003900  1
  F  F15  1  0.53081000  0.78203500  0.34320800  1
  F  F16  1  0.73571200  0.96106500  0.15571200  1
  F  F17  1  0.03893500  0.26428800  0.84428800  1
  F  F18  1  0.30575700  0.69424300  0.50000000  1
  F  F19  1  0.81033600  0.18966400  0.00000000  1
  F  F20  1  0.43715300  0.31205200  0.37603900  1
  F  F21  1  0.21024100  0.22094600  0.53124900  1
loop_
_geom_bond_atom_site_label_1
_geom_bond_atom_site_label_2
_geom_bond_distance
_geom_bond_site_symmetry_2
Cr0 O0 1.837752 1_555
Cr0 F9 1.935949 1_555
Cr0 F3 1.940966 1_555
Cr0 F13 1.943300 1_655
Cr0 F1 1.962700 1_545
Cr0 F0 1.985846 1_555
Cr1 O1 1.817532 1_555
Cr1 F4 1.945003 1_455
Cr1 F2 1.948735 1_565
Cr1 F8 1.965056 1_555
Cr1 F10 1.969492 1_555
Cr1 F16 1.988381 1_455
Cr2 O1 1.837752 1_555
Cr2 F15 1.935949 1_555
Cr2 F20 1.940966 1_555
Cr2 F4 1.943300 1_545
Cr2 F10 1.962700 1_655
Cr2 F6 1.985846 1_555
Cr3 O0 1.817532 1_555
Cr3 F13 1.945003 1_565
Cr3 F11 1.948735 1_455
Cr3 F7 1.965056 1_555
Cr3 F1 1.969492 1_555
Cr3 F17 1.988381 1_565
Cr4 F14 1.930893 1_556
Cr4 F11 1.943228 1_555
Cr4 F5 1.944276 1_655
Cr4 F7 1.947501 1_555
Cr4 F19 1.953968 1_556
Cr4 F17 1.966037 1_655
Cr5 F20 1.920322 1_555
Cr5 F21 1.941898 1_555
Cr5 F12 1.952946 1_545
Cr5 F15 1.955729 1_545
Cr5 F6 1.965036 1_455
Cr5 F18 1.969472 1_545
Cr6 F5 1.930893 1_554
Cr6 F2 1.943228 1_555
Cr6 F14 1.944276 1_545
Cr6 F8 1.947501 1_555
Cr6 F19 1.953968 1_555
Cr6 F16 1.966037 1_545
Cr7 F3 1.920322 1_555
Cr7 F12 1.941898 1_555
Cr7 F21 1.952946 1_655
Cr7 F9 1.955729 1_655
Cr7 F0 1.965036 1_565
Cr7 F18 1.969472 1_655
