# generated using pymatgen
data_Mn6O11F
_symmetry_space_group_name_H-M   'P 1'
_cell_length_a   4.51288657
_cell_length_b   4.51288657
_cell_length_c   8.97458500
_cell_angle_alpha   90.00000000
_cell_angle_beta   90.00000000
_cell_angle_gamma   90.80731326
_symmetry_Int_Tables_number   1
_chemical_formula_structural   Mn6O11F
_chemical_formula_sum   'Mn6 O11 F1'
_cell_volume   182.75955711
_cell_formula_units_Z   1
loop_
 _symmetry_equiv_pos_site_id
 _symmetry_equiv_pos_as_xyz
  1  'x, y, z'
loop_
 _atom_site_type_symbol
 _atom_site_label
 _atom_site_symmetry_multiplicity
 _atom_site_fract_x
 _atom_site_fract_y
 _atom_site_fract_z
 _atom_site_occupancy
  Mn  Mn0  1  0.99270200  0.00729800  0.82557900  1
  Mn  Mn1  1  0.00096600  0.99903400  0.50000000  1
  Mn  Mn2  1  0.99270200  0.00729800  0.17442100  1
  Mn  Mn3  1  0.51938800  0.48061200  0.00000000  1
  Mn  Mn4  1  0.49690200  0.50309800  0.66663500  1
  Mn  Mn5  1  0.49690200  0.50309800  0.33336500  1
  O  O0  1  0.80385900  0.19614100  0.66476200  1
  O  O1  1  0.80385900  0.19614100  0.33523800  1
  O  O2  1  0.80983100  0.19016900  0.00000000  1
  O  O3  1  0.30514900  0.30565300  0.83371600  1
  O  O4  1  0.30594300  0.30602600  0.50000000  1
  O  O5  1  0.30514900  0.30565300  0.16628400  1
  O  O6  1  0.69434700  0.69485100  0.83371600  1
  O  O7  1  0.69397400  0.69405700  0.50000000  1
  O  O8  1  0.69434700  0.69485100  0.16628400  1
  O  O9  1  0.19243400  0.80756600  0.66558100  1
  O  O10  1  0.19243400  0.80756600  0.33441900  1
  F  F0  1  0.19911400  0.80088600  0.00000000  1
loop_
_geom_bond_atom_site_label_1
_geom_bond_atom_site_label_2
_geom_bond_distance
_geom_bond_site_symmetry_2
Mn0 O0 1.885753 1_555
Mn0 O9 1.926052 1_645
Mn0 O6 1.937252 1_545
Mn0 O3 1.937252 1_655
Mn0 O2 1.957471 1_556
Mn1 O10 1.929389 1_555
Mn1 O9 1.929389 1_555
Mn1 O7 1.939054 1_455
Mn1 O4 1.939054 1_565
Mn1 O0 1.947116 1_465
Mn1 O1 1.947116 1_465
Mn2 O1 1.885753 1_555
Mn2 O10 1.926052 1_645
Mn2 O8 1.937252 1_545
Mn2 O5 1.937252 1_655
Mn2 O2 1.957471 1_555
Mn3 O2 1.866674 1_555
Mn3 O5 1.940034 1_555
Mn3 O3 1.940034 1_554
Mn3 O8 1.940034 1_555
Mn3 O6 1.940034 1_554
Mn4 O7 1.936101 1_555
Mn4 O4 1.936101 1_555
Mn4 O6 1.941528 1_555
Mn4 O3 1.941528 1_555
Mn4 O9 1.956836 1_555
Mn4 O0 1.972881 1_555
Mn5 O7 1.936101 1_555
Mn5 O4 1.936101 1_555
Mn5 O8 1.941528 1_555
Mn5 O5 1.941528 1_555
Mn5 O10 1.956836 1_555
Mn5 O1 1.972881 1_555
F0 Mn2 2.051884 1_465
F0 Mn0 2.051884 1_464
F0 Mn3 2.058398 1_555
