# generated using pymatgen
data_Ca2Y2Si4H2CO16
_symmetry_space_group_name_H-M   'P 1'
_cell_length_a   6.82682600
_cell_length_b   13.13378400
_cell_length_c   14.43735100
_cell_angle_alpha   90.00000000
_cell_angle_beta   90.00000000
_cell_angle_gamma   90.00000000
_symmetry_Int_Tables_number   1
_chemical_formula_structural   Ca2Y2Si4H2CO16
_chemical_formula_sum   'Ca8 Y8 Si16 H8 C4 O64'
_cell_volume   1294.48260402
_cell_formula_units_Z   4
loop_
 _symmetry_equiv_pos_site_id
 _symmetry_equiv_pos_as_xyz
  1  'x, y, z'
loop_
 _atom_site_type_symbol
 _atom_site_label
 _atom_site_symmetry_multiplicity
 _atom_site_fract_x
 _atom_site_fract_y
 _atom_site_fract_z
 _atom_site_occupancy
  Ca  Ca0  1  0.19722800  0.07857000  0.04823900  1
  Ca  Ca1  1  0.30277200  0.42143000  0.54823900  1
  Ca  Ca2  1  0.80277200  0.57856900  0.95176100  1
  Ca  Ca3  1  0.69722800  0.92143100  0.45176100  1
  Ca  Ca4  1  0.80277200  0.92143100  0.95176100  1
  Ca  Ca5  1  0.69722800  0.57856900  0.45176100  1
  Ca  Ca6  1  0.19722800  0.42143000  0.04823900  1
  Ca  Ca7  1  0.30277200  0.07857000  0.54823900  1
  Y  Y0  1  0.38857300  0.05690200  0.28010900  1
  Y  Y1  1  0.11142700  0.44309800  0.78010900  1
  Y  Y2  1  0.61142700  0.55690200  0.71989100  1
  Y  Y3  1  0.88857300  0.94309800  0.21989100  1
  Y  Y4  1  0.61142700  0.94309800  0.71989100  1
  Y  Y5  1  0.88857300  0.55690200  0.21989100  1
  Y  Y6  1  0.38857300  0.44309800  0.28010900  1
  Y  Y7  1  0.11142700  0.05690200  0.78010900  1
  Si  Si0  1  0.88856400  0.13041300  0.35311300  1
  Si  Si1  1  0.61143600  0.36958700  0.85311300  1
  Si  Si2  1  0.11143600  0.63041300  0.64688700  1
  Si  Si3  1  0.38856400  0.86958700  0.14688700  1
  Si  Si4  1  0.11143600  0.86958700  0.64688700  1
  Si  Si5  1  0.38856400  0.63041300  0.14688700  1
  Si  Si6  1  0.88856400  0.36958700  0.35311300  1
  Si  Si7  1  0.61143600  0.13041300  0.85311300  1
  Si  Si8  1  0.66037700  0.13093000  0.06964400  1
  Si  Si9  1  0.83962300  0.36907000  0.56964400  1
  Si  Si10  1  0.33962300  0.63093000  0.93035600  1
  Si  Si11  1  0.16037700  0.86907000  0.43035600  1
  Si  Si12  1  0.33962300  0.86907000  0.93035600  1
  Si  Si13  1  0.16037700  0.63093000  0.43035600  1
  Si  Si14  1  0.66037700  0.36907000  0.06964400  1
  Si  Si15  1  0.83962300  0.13093000  0.56964400  1
  H  H0  1  0.17997200  0.25000000  0.18359000  1
  H  H1  1  0.32002800  0.25000000  0.68359000  1
  H  H2  1  0.82002800  0.75000000  0.81641000  1
  H  H3  1  0.67997200  0.75000000  0.31641000  1
  H  H4  1  0.98596800  0.25000000  0.12130900  1
  H  H5  1  0.51403200  0.25000000  0.62130900  1
  H  H6  1  0.01403200  0.75000000  0.87869100  1
  H  H7  1  0.48596800  0.75000000  0.37869100  1
  C  C0  1  0.38337800  0.25000000  0.37468200  1
  C  C1  1  0.11662200  0.25000000  0.87468200  1
  C  C2  1  0.61662200  0.75000000  0.62531800  1
  C  C3  1  0.88337800  0.75000000  0.12531800  1
  O  O0  1  0.94227500  0.11449800  0.46484400  1
  O  O1  1  0.55772500  0.38550200  0.96484400  1
  O  O2  1  0.05772500  0.61449800  0.53515600  1
  O  O3  1  0.44227500  0.88550200  0.03515600  1
  O  O4  1  0.05772500  0.88550200  0.53515600  1
  O  O5  1  0.44227500  0.61449800  0.03515600  1
  O  O6  1  0.94227500  0.38550200  0.46484400  1
  O  O7  1  0.55772500  0.11449800  0.96484400  1
  O  O8  1  0.70634400  0.05331100  0.32944200  1
  O  O9  1  0.79365600  0.44668900  0.82944200  1
  O  O10  1  0.29365600  0.55331100  0.67055800  1
  O  O11  1  0.20634400  0.94668900  0.17055800  1
  O  O12  1  0.29365600  0.94668900  0.67055800  1
  O  O13  1  0.20634400  0.55331100  0.17055800  1
  O  O14  1  0.70634400  0.44668900  0.32944200  1
  O  O15  1  0.79365600  0.05331100  0.82944200  1
  O  O16  1  0.06223500  0.09369400  0.28447600  1
  O  O17  1  0.43776500  0.40630600  0.78447600  1
  O  O18  1  0.93776500  0.59369400  0.71552400  1
  O  O19  1  0.56223500  0.90630600  0.21552400  1
  O  O20  1  0.93776500  0.90630600  0.71552400  1
  O  O21  1  0.56223500  0.59369400  0.21552400  1
  O  O22  1  0.06223500  0.40630600  0.28447600  1
  O  O23  1  0.43776500  0.09369400  0.78447600  1
  O  O24  1  0.82887300  0.25000000  0.33818400  1
  O  O25  1  0.67112700  0.25000000  0.83818400  1
  O  O26  1  0.17112700  0.75000000  0.66181600  1
  O  O27  1  0.32887300  0.75000000  0.16181600  1
  O  O28  1  0.84612100  0.05307100  0.08088600  1
  O  O29  1  0.65387900  0.44692900  0.58088600  1
  O  O30  1  0.15387900  0.55307100  0.91911400  1
  O  O31  1  0.34612100  0.94692900  0.41911400  1
  O  O32  1  0.15387900  0.94692900  0.91911400  1
  O  O33  1  0.34612100  0.55307100  0.41911400  1
  O  O34  1  0.84612100  0.44692900  0.08088600  1
  O  O35  1  0.65387900  0.05307100  0.58088600  1
  O  O36  1  0.47786900  0.11021100  0.13779200  1
  O  O37  1  0.02213100  0.38978900  0.63779200  1
  O  O38  1  0.52213100  0.61021100  0.86220800  1
  O  O39  1  0.97786900  0.88978900  0.36220800  1
  O  O40  1  0.52213100  0.88978900  0.86220800  1
  O  O41  1  0.97786900  0.61021100  0.36220800  1
  O  O42  1  0.47786900  0.38978900  0.13779200  1
  O  O43  1  0.02213100  0.11021100  0.63779200  1
  O  O44  1  0.74410300  0.25000000  0.07673300  1
  O  O45  1  0.75589700  0.25000000  0.57673300  1
  O  O46  1  0.25589700  0.75000000  0.92326700  1
  O  O47  1  0.24410300  0.75000000  0.42326700  1
  O  O48  1  0.38331900  0.16383600  0.41737500  1
  O  O49  1  0.11668100  0.33616400  0.91737500  1
  O  O50  1  0.61668100  0.66383600  0.58262500  1
  O  O51  1  0.88331900  0.83616400  0.08262500  1
  O  O52  1  0.61668100  0.83616400  0.58262500  1
  O  O53  1  0.88331900  0.66383600  0.08262500  1
  O  O54  1  0.38331900  0.33616400  0.41737500  1
  O  O55  1  0.11668100  0.16383600  0.91737500  1
  O  O56  1  0.38558800  0.25000000  0.28487800  1
  O  O57  1  0.11441200  0.25000000  0.78487800  1
  O  O58  1  0.61441200  0.75000000  0.71512200  1
  O  O59  1  0.88558800  0.75000000  0.21512200  1
  O  O60  1  0.13143300  0.25000000  0.11929600  1
  O  O61  1  0.36856700  0.25000000  0.61929600  1
  O  O62  1  0.86856700  0.75000000  0.88070400  1
  O  O63  1  0.63143300  0.75000000  0.38070400  1
loop_
_geom_bond_atom_site_label_1
_geom_bond_atom_site_label_2
_geom_bond_distance
_geom_bond_site_symmetry_2
Ca0 O55 2.264074 1_554
Ca0 O36 2.348389 1_555
Ca0 O28 2.465698 1_455
Ca0 O11 2.474400 1_545
Ca0 O60 2.514664 1_555
Ca0 O32 2.559718 1_544
Ca0 O7 2.780118 1_554
Ca1 O54 2.264074 1_555
Ca1 O37 2.348389 1_555
Ca1 O29 2.465698 1_555
Ca1 O10 2.474400 1_555
Ca1 O61 2.514664 1_555
Ca1 O33 2.559718 1_555
Ca1 O6 2.780118 1_455
Ca2 O53 2.264081 1_556
Ca2 O38 2.348391 1_555
Ca2 O30 2.465696 1_655
Ca2 O9 2.474391 1_555
Ca2 O62 2.514676 1_555
Ca2 O34 2.559709 1_556
Ca2 O5 2.780120 1_556
Ca3 O52 2.264081 1_555
Ca3 O39 2.348391 1_555
Ca3 O31 2.465696 1_555
Ca3 O8 2.474391 1_565
Ca3 O63 2.514676 1_555
Ca3 O35 2.559709 1_565
Ca3 O4 2.780120 1_655
Ca4 O51 2.264081 1_556
Ca4 O40 2.348391 1_555
Ca4 O32 2.465696 1_655
Ca4 O15 2.474391 1_565
Ca4 O62 2.514676 1_555
Ca4 O28 2.559709 1_566
Ca4 O3 2.780120 1_556
Ca5 O50 2.264081 1_555
Ca5 O41 2.348391 1_555
Ca5 O33 2.465696 1_555
Ca5 O14 2.474391 1_555
Ca5 O63 2.514676 1_555
Ca5 O29 2.559709 1_555
Ca5 O2 2.780120 1_655
Ca6 O49 2.264074 1_554
Ca6 O42 2.348389 1_555
Ca6 O34 2.465698 1_455
Ca6 O13 2.474400 1_555
Ca6 O60 2.514664 1_555
Ca6 O30 2.559718 1_554
Ca6 O1 2.780118 1_554
Ca7 O48 2.264074 1_555
Ca7 O43 2.348389 1_555
Ca7 O35 2.465698 1_555
Ca7 O12 2.474400 1_545
Ca7 O61 2.514664 1_555
Ca7 O31 2.559718 1_545
Ca7 O0 2.780118 1_455
H0 O60 0.985609 1_555
H1 O61 0.985609 1_555
H2 O62 0.985609 1_555
H3 O63 0.985609 1_555
H4 O60 0.993489 1_655
H5 O61 0.993489 1_555
H6 O62 0.993489 1_455
H7 O63 0.993489 1_555
C0 O48 1.288631 1_555
C0 O54 1.288631 1_555
C0 O56 1.296620 1_555
C1 O55 1.288631 1_555
C1 O49 1.288631 1_555
C1 O57 1.296620 1_555
C2 O52 1.288631 1_555
C2 O50 1.288631 1_555
C2 O58 1.296620 1_555
C3 O53 1.288631 1_555
C3 O51 1.288631 1_555
C3 O59 1.296620 1_555
O0 Si0 1.667403 1_555
O0 Si15 1.681354 1_555
O1 Si1 1.667403 1_555
O1 Si14 1.681354 1_556
O2 Si2 1.667403 1_555
O2 Si13 1.681354 1_555
O3 Si3 1.667403 1_555
O3 Si12 1.681354 1_554
O4 Si4 1.667403 1_555
O4 Si11 1.681354 1_555
O5 Si5 1.667403 1_555
O5 Si10 1.681354 1_554
O6 Si6 1.667403 1_555
O6 Si9 1.681354 1_555
O7 Si7 1.667403 1_555
O7 Si8 1.681354 1_556
O8 Si0 1.640039 1_555
O8 Y0 2.283782 1_555
O8 Y3 2.478808 1_545
O9 Si1 1.640039 1_555
O9 Y1 2.283782 1_655
O9 Y2 2.478808 1_555
O10 Si2 1.640039 1_555
O10 Y2 2.283782 1_555
O10 Y1 2.478808 1_555
O11 Si3 1.640039 1_555
O11 Y3 2.283782 1_455
O11 Y0 2.478808 1_565
O12 Si4 1.640039 1_555
O12 Y4 2.283782 1_555
O12 Y7 2.478808 1_565
O13 Si5 1.640039 1_555
O13 Y5 2.283782 1_455
O13 Y6 2.478808 1_555
O14 Si6 1.640039 1_555
O14 Y6 2.283782 1_555
O14 Y5 2.478808 1_555
O15 Si7 1.640039 1_555
O15 Y7 2.283782 1_655
O15 Y4 2.478808 1_545
O16 Si0 1.618712 1_455
O16 Y0 2.280527 1_555
O16 Y3 2.487380 1_445
O17 Si1 1.618712 1_555
O17 Y1 2.280527 1_555
O17 Y2 2.487380 1_555
O18 Si2 1.618712 1_655
O18 Y2 2.280527 1_555
O18 Y1 2.487380 1_655
O19 Si3 1.618712 1_555
O19 Y3 2.280527 1_555
O19 Y0 2.487380 1_565
O20 Si4 1.618712 1_655
O20 Y4 2.280527 1_555
O20 Y7 2.487380 1_665
O21 Si5 1.618712 1_555
O21 Y5 2.280527 1_555
O21 Y6 2.487380 1_555
O22 Si6 1.618712 1_455
O22 Y6 2.280527 1_555
O22 Y5 2.487380 1_455
O23 Si7 1.618712 1_555
O23 Y7 2.280527 1_555
O23 Y4 2.487380 1_545
O24 Si0 1.636884 1_555
O24 Si6 1.636884 1_555
O25 Si1 1.636884 1_555
O25 Si7 1.636884 1_555
O26 Si2 1.636884 1_555
O26 Si4 1.636884 1_555
O27 Si3 1.636884 1_555
O27 Si5 1.636884 1_555
O28 Si8 1.637055 1_555
O28 Y3 2.489513 1_545
O29 Si9 1.637055 1_555
O29 Y2 2.489513 1_555
O30 Si10 1.637055 1_555
O30 Y1 2.489513 1_555
O31 Si11 1.637055 1_555
O31 Y0 2.489513 1_565
O32 Si12 1.637055 1_555
O32 Y7 2.489513 1_565
O33 Si13 1.637055 1_555
O33 Y6 2.489513 1_555
O34 Si14 1.637055 1_555
O34 Y5 2.489513 1_555
O35 Si15 1.637055 1_555
O35 Y4 2.489513 1_545
O36 Si8 1.610731 1_555
O36 Y0 2.254671 1_555
O37 Si9 1.610731 1_455
O37 Y1 2.254671 1_555
O38 Si10 1.610731 1_555
O38 Y2 2.254671 1_555
O39 Si11 1.610731 1_655
O39 Y3 2.254671 1_555
O40 Si12 1.610731 1_555
O40 Y4 2.254671 1_555
O41 Si13 1.610731 1_655
O41 Y5 2.254671 1_555
O42 Si14 1.610731 1_555
O42 Y6 2.254671 1_555
O43 Si15 1.610731 1_455
O43 Y7 2.254671 1_555
O44 Si14 1.668166 1_555
O44 Si8 1.668166 1_555
O45 Si9 1.668166 1_555
O45 Si15 1.668166 1_555
O46 Si12 1.668166 1_555
O46 Si10 1.668166 1_555
O47 Si11 1.668166 1_555
O47 Si13 1.668166 1_555
O48 Y0 2.429223 1_555
O49 Y1 2.429223 1_555
O50 Y2 2.429223 1_555
O51 Y3 2.429223 1_555
O52 Y4 2.429223 1_555
O53 Y5 2.429223 1_555
O54 Y6 2.429223 1_555
O55 Y7 2.429223 1_555
O56 Y0 2.537124 1_555
O56 Y6 2.537124 1_555
O57 Y1 2.537124 1_555
O57 Y7 2.537124 1_555
O58 Y2 2.537124 1_555
O58 Y4 2.537124 1_555
O59 Y3 2.537124 1_555
O59 Y5 2.537124 1_555
