# generated using pymatgen
data_LiMnP2O7
_symmetry_space_group_name_H-M   'P 1'
_cell_length_a   7.89532500
_cell_length_b   7.28930200
_cell_length_c   9.26896147
_cell_angle_alpha   73.23096288
_cell_angle_beta   90.00000000
_cell_angle_gamma   90.00000000
_symmetry_Int_Tables_number   1
_chemical_formula_structural   LiMnP2O7
_chemical_formula_sum   'Li4 Mn4 P8 O28'
_cell_volume   510.75746870
_cell_formula_units_Z   4
loop_
 _symmetry_equiv_pos_site_id
 _symmetry_equiv_pos_as_xyz
  1  'x, y, z'
loop_
 _atom_site_type_symbol
 _atom_site_label
 _atom_site_symmetry_multiplicity
 _atom_site_fract_x
 _atom_site_fract_y
 _atom_site_fract_z
 _atom_site_occupancy
  Li  Li0  1  0.49006700  0.68676600  0.79236100  1
  Li  Li1  1  0.00993300  0.68676600  0.29236100  1
  Li  Li2  1  0.99006700  0.31323400  0.70763900  1
  Li  Li3  1  0.50993300  0.31323400  0.20763900  1
  Mn  Mn0  1  0.00836700  0.72271100  0.75748600  1
  Mn  Mn1  1  0.49163300  0.72271100  0.25748600  1
  Mn  Mn2  1  0.50836700  0.27728900  0.74251400  1
  Mn  Mn3  1  0.99163300  0.27728900  0.24251400  1
  P  P0  1  0.26937500  0.89714200  0.96079000  1
  P  P1  1  0.23062500  0.89714200  0.46079000  1
  P  P2  1  0.72354200  0.67808400  0.54317900  1
  P  P3  1  0.22354200  0.32191600  0.95682100  1
  P  P4  1  0.77645800  0.67808400  0.04317900  1
  P  P5  1  0.27645800  0.32191600  0.45682100  1
  P  P6  1  0.76937500  0.10285800  0.53921000  1
  P  P7  1  0.73062500  0.10285800  0.03921000  1
  O  O0  1  0.61343500  0.19412200  0.58803600  1
  O  O1  1  0.42586500  0.91270200  0.86376600  1
  O  O2  1  0.69972000  0.89011300  0.55572400  1
  O  O3  1  0.78762600  0.68258700  0.87651300  1
  O  O4  1  0.20769500  0.79794900  0.63078600  1
  O  O5  1  0.88656500  0.19412200  0.08803600  1
  O  O6  1  0.07413500  0.91270200  0.36376600  1
  O  O7  1  0.58586500  0.56595600  0.64422100  1
  O  O8  1  0.80028000  0.89011300  0.05572400  1
  O  O9  1  0.40347300  0.38846900  0.89441300  1
  O  O10  1  0.71237400  0.68258700  0.37651300  1
  O  O11  1  0.29230500  0.79794900  0.13078600  1
  O  O12  1  0.90347300  0.61153100  0.60558700  1
  O  O13  1  0.08586500  0.43404400  0.85577900  1
  O  O14  1  0.91413500  0.56595600  0.14422100  1
  O  O15  1  0.09652700  0.38846900  0.39441300  1
  O  O16  1  0.70769500  0.20205100  0.86921400  1
  O  O17  1  0.28762600  0.31741300  0.62348700  1
  O  O18  1  0.59652700  0.61153100  0.10558700  1
  O  O19  1  0.19972000  0.10988700  0.94427600  1
  O  O20  1  0.41413500  0.43404400  0.35577900  1
  O  O21  1  0.92586500  0.08729800  0.63623400  1
  O  O22  1  0.11343500  0.80587800  0.91196400  1
  O  O23  1  0.79230500  0.20205100  0.36921400  1
  O  O24  1  0.21237400  0.31741300  0.12348700  1
  O  O25  1  0.30028000  0.10988700  0.44427600  1
  O  O26  1  0.57413500  0.08729800  0.13623400  1
  O  O27  1  0.38656500  0.80587800  0.41196400  1
loop_
_geom_bond_atom_site_label_1
_geom_bond_atom_site_label_2
_geom_bond_distance
_geom_bond_site_symmetry_2
Li0 O7 1.982603 1_555
Li0 O1 2.009052 1_555
Li0 O9 2.214335 1_555
Li0 O3 2.472842 1_555
Li1 O14 1.982603 1_455
Li1 O6 2.009052 1_555
Li1 O15 2.214335 1_555
Li1 O10 2.472842 1_455
Li2 O13 1.982603 1_655
Li2 O21 2.009052 1_555
Li2 O12 2.214335 1_555
Li2 O17 2.472842 1_655
Li3 O20 1.982603 1_555
Li3 O26 2.009052 1_555
Li3 O18 2.214335 1_555
Li3 O24 2.472842 1_555
Mn0 O22 1.899141 1_555
Mn0 O4 1.945511 1_555
Mn0 O12 1.995840 1_455
Mn0 O3 2.038125 1_455
Mn0 O13 2.127397 1_555
Mn0 O21 2.650790 1_465
Mn1 O27 1.899141 1_555
Mn1 O11 1.945511 1_555
Mn1 O18 1.995840 1_555
Mn1 O10 2.038125 1_555
Mn1 O20 2.127397 1_555
Mn1 O26 2.650790 1_565
Mn2 O0 1.899141 1_555
Mn2 O16 1.945511 1_555
Mn2 O9 1.995840 1_555
Mn2 O17 2.038125 1_555
Mn2 O7 2.127397 1_555
Mn2 O1 2.650790 1_545
Mn3 O5 1.899141 1_555
Mn3 O23 1.945511 1_555
Mn3 O15 1.995840 1_655
Mn3 O24 2.038125 1_655
Mn3 O14 2.127397 1_555
Mn3 O6 2.650790 1_645
O0 P6 1.528708 1_555
O1 P0 1.513052 1_555
O2 P2 1.594146 1_555
O2 P6 1.610518 1_565
O3 P4 1.538202 1_556
O4 P1 1.543034 1_555
O5 P7 1.528708 1_555
O6 P1 1.513052 1_555
O7 P2 1.511637 1_555
O8 P4 1.594146 1_555
O8 P7 1.610518 1_565
O9 P3 1.557618 1_555
O10 P2 1.538202 1_555
O11 P0 1.543034 1_554
O12 P2 1.557618 1_555
O13 P3 1.511637 1_555
O14 P4 1.511637 1_555
O15 P5 1.557618 1_555
O16 P7 1.543034 1_556
O17 P5 1.538202 1_555
O18 P4 1.557618 1_555
O19 P3 1.594146 1_555
O19 P0 1.610518 1_545
O20 P5 1.511637 1_555
O21 P6 1.513052 1_555
O22 P0 1.528708 1_555
O23 P6 1.543034 1_555
O24 P3 1.538202 1_554
O25 P5 1.594146 1_555
O25 P1 1.610518 1_545
O26 P7 1.513052 1_555
O27 P1 1.528708 1_555
