# generated using pymatgen
data_Li4NbCo5O12
_symmetry_space_group_name_H-M   'P 1'
_cell_length_a   5.02404283
_cell_length_b   5.02404283
_cell_length_c   10.01090405
_cell_angle_alpha   86.69535592
_cell_angle_beta   86.69535592
_cell_angle_gamma   119.45534696
_symmetry_Int_Tables_number   1
_chemical_formula_structural   Li4NbCo5O12
_chemical_formula_sum   'Li4 Nb1 Co5 O12'
_cell_volume   218.57975929
_cell_formula_units_Z   1
loop_
 _symmetry_equiv_pos_site_id
 _symmetry_equiv_pos_as_xyz
  1  'x, y, z'
loop_
 _atom_site_type_symbol
 _atom_site_label
 _atom_site_symmetry_multiplicity
 _atom_site_fract_x
 _atom_site_fract_y
 _atom_site_fract_z
 _atom_site_occupancy
  Li  Li0  1  0.45550000  0.79506800  0.72368300  1
  Li  Li1  1  0.20493200  0.54450000  0.27631700  1
  Li  Li2  1  0.79506800  0.45550000  0.72368300  1
  Li  Li3  1  0.54450000  0.20493200  0.27631700  1
  Nb  Nb0  1  0.00000000  0.00000000  0.00000000  1
  Co  Co0  1  0.16454200  0.83545800  0.50000000  1
  Co  Co1  1  0.66652300  0.33347700  0.00000000  1
  Co  Co2  1  0.33347700  0.66652300  0.00000000  1
  Co  Co3  1  0.83545800  0.16454200  0.50000000  1
  Co  Co4  1  0.50000000  0.50000000  0.50000000  1
  O  O0  1  0.32405500  0.97963300  0.10553500  1
  O  O1  1  0.02036700  0.67594500  0.89446500  1
  O  O2  1  0.49188000  0.84619100  0.39042100  1
  O  O3  1  0.84619100  0.49188000  0.39042100  1
  O  O4  1  0.15380900  0.50812000  0.60957800  1
  O  O5  1  0.80189800  0.80189800  0.60042000  1
  O  O6  1  0.50812000  0.15380900  0.60957800  1
  O  O7  1  0.97963300  0.32405500  0.10553500  1
  O  O8  1  0.63071400  0.63071400  0.10439000  1
  O  O9  1  0.67594500  0.02036700  0.89446500  1
  O  O10  1  0.36928600  0.36928600  0.89561000  1
  O  O11  1  0.19810200  0.19810200  0.39958000  1
loop_
_geom_bond_atom_site_label_1
_geom_bond_atom_site_label_2
_geom_bond_distance
_geom_bond_site_symmetry_2
Li0 O6 1.970365 1_565
Li0 O4 1.980144 1_555
Li0 O5 2.059461 1_555
Li0 O9 2.153913 1_565
Li0 O1 2.494939 1_555
Li0 O10 2.510821 1_555
Li1 O3 1.970360 1_455
Li1 O2 1.980137 1_555
Li1 O11 2.059461 1_555
Li1 O7 2.153913 1_455
Li1 O0 2.494939 1_555
Li1 O8 2.510821 1_555
Li2 O4 1.970365 1_655
Li2 O6 1.980144 1_555
Li2 O5 2.059461 1_555
Li2 O1 2.153913 1_655
Li2 O9 2.494939 1_555
Li2 O10 2.510821 1_555
Li3 O2 1.970360 1_545
Li3 O3 1.980137 1_555
Li3 O11 2.059461 1_555
Li3 O0 2.153913 1_545
Li3 O7 2.494939 1_555
Li3 O8 2.510821 1_555
Nb0 O0 2.031489 1_545
Nb0 O7 2.031489 1_455
Nb0 O9 2.031489 1_454
Nb0 O1 2.031489 1_544
Nb0 O8 2.035692 1_445
Nb0 O10 2.035692 1_554
Co0 O4 1.899689 1_555
Co0 O2 1.899694 1_555
Co0 O5 1.955935 1_455
Co0 O11 1.955935 1_565
Co0 O6 2.108649 1_565
Co0 O3 2.108656 1_455
Co1 O8 1.943445 1_555
Co1 O10 1.943445 1_554
Co1 O1 1.950016 1_654
Co1 O0 1.950016 1_545
Co1 O7 1.962673 1_555
Co1 O9 1.962673 1_554
Co2 O8 1.943445 1_555
Co2 O10 1.943445 1_554
Co2 O9 1.950016 1_564
Co2 O7 1.950016 1_455
Co2 O0 1.962673 1_555
Co2 O1 1.962673 1_554
Co3 O6 1.899689 1_555
Co3 O3 1.899694 1_555
Co3 O5 1.955935 1_545
Co3 O11 1.955935 1_655
Co3 O4 2.108649 1_655
Co3 O2 2.108656 1_545
Co4 O5 1.923723 1_555
Co4 O11 1.923723 1_555
Co4 O6 2.021159 1_555
Co4 O4 2.021159 1_555
Co4 O2 2.021164 1_555
Co4 O3 2.021164 1_555
