# generated using pymatgen
data_Mn9(FeO6)4
_symmetry_space_group_name_H-M   'P 1'
_cell_length_a   13.14380786
_cell_length_b   13.14380786
_cell_length_c   5.89657598
_cell_angle_alpha   77.28685747
_cell_angle_beta   77.28685747
_cell_angle_gamma   25.98693274
_symmetry_Int_Tables_number   1
_chemical_formula_structural   Mn9(FeO6)4
_chemical_formula_sum   'Mn9 Fe4 O24'
_cell_volume   434.82255720
_cell_formula_units_Z   1
loop_
 _symmetry_equiv_pos_site_id
 _symmetry_equiv_pos_as_xyz
  1  'x, y, z'
loop_
 _atom_site_type_symbol
 _atom_site_label
 _atom_site_symmetry_multiplicity
 _atom_site_fract_x
 _atom_site_fract_y
 _atom_site_fract_z
 _atom_site_occupancy
  Mn  Mn0  1  0.66563100  0.66563100  0.33534300  1
  Mn  Mn1  1  0.66556800  0.66556800  0.83354600  1
  Mn  Mn2  1  0.33157500  0.83677300  0.16571000  1
  Mn  Mn3  1  0.83677300  0.33157500  0.16571000  1
  Mn  Mn4  1  0.00085400  0.00085400  0.00117900  1
  Mn  Mn5  1  0.00099800  0.00099800  0.49940900  1
  Mn  Mn6  1  0.16854200  0.66918200  0.83041600  1
  Mn  Mn7  1  0.66918200  0.16854200  0.83041600  1
  Mn  Mn8  1  0.33446500  0.33446500  0.65467100  1
  Fe  Fe0  1  0.48799500  0.01274800  0.49930100  1
  Fe  Fe1  1  0.01274800  0.48799500  0.49930100  1
  Fe  Fe2  1  0.33438500  0.33438500  0.17654400  1
  Fe  Fe3  1  0.79195900  0.79195900  0.95492100  1
  O  O0  1  0.74644300  0.74644300  0.26132400  1
  O  O1  1  0.74561800  0.74561800  0.74561600  1
  O  O2  1  0.45875000  0.88279100  0.58114800  1
  O  O3  1  0.88279100  0.45875000  0.58114800  1
  O  O4  1  0.44100300  0.88146500  0.08954600  1
  O  O5  1  0.88146500  0.44100300  0.08954600  1
  O  O6  1  0.58900800  0.58900800  0.37814700  1
  O  O7  1  0.58894500  0.58894500  0.94371500  1
  O  O8  1  0.07845400  0.07845400  0.95456700  1
  O  O9  1  0.07873500  0.07873500  0.38789400  1
  O  O10  1  0.78981100  0.22277400  0.24497000  1
  O  O11  1  0.22277400  0.78981100  0.24497000  1
  O  O12  1  0.21243500  0.77870500  0.75453500  1
  O  O13  1  0.77870500  0.21243500  0.75453500  1
  O  O14  1  0.92340700  0.92340700  0.04395100  1
  O  O15  1  0.92371600  0.92371600  0.61010700  1
  O  O16  1  0.41217300  0.41217300  0.62473600  1
  O  O17  1  0.41427800  0.41427800  0.04277600  1
  O  O18  1  0.57556500  0.10137000  0.90402800  1
  O  O19  1  0.10137000  0.57556500  0.90402800  1
  O  O20  1  0.10800900  0.55668400  0.43355400  1
  O  O21  1  0.55668400  0.10800900  0.43355400  1
  O  O22  1  0.25506900  0.25506900  0.26479700  1
  O  O23  1  0.25896200  0.25896200  0.72762500  1
loop_
_geom_bond_atom_site_label_1
_geom_bond_atom_site_label_2
_geom_bond_distance
_geom_bond_site_symmetry_2
Mn0 O6 1.921455 1_555
Mn0 O3 1.942855 1_555
Mn0 O2 1.942855 1_555
Mn0 O4 1.970134 1_555
Mn0 O5 1.970134 1_555
Mn0 O0 2.016716 1_555
Mn1 O7 1.923053 1_555
Mn1 O2 1.927055 1_555
Mn1 O3 1.927055 1_555
Mn1 O5 1.977284 1_556
Mn1 O4 1.977284 1_556
Mn1 O1 1.998231 1_555
Mn2 O4 1.932351 1_555
Mn2 O9 1.947205 1_565
Mn2 O8 1.947347 1_564
Mn2 O11 1.952000 1_555
Mn2 O6 1.970670 1_555
Mn2 O7 1.971090 1_554
Mn3 O5 1.932351 1_555
Mn3 O9 1.947205 1_655
Mn3 O8 1.947347 1_654
Mn3 O10 1.952000 1_555
Mn3 O6 1.970670 1_555
Mn3 O7 1.971090 1_554
Mn4 O14 1.942409 1_445
Mn4 O8 1.944138 1_554
Mn4 O11 1.952824 1_545
Mn4 O10 1.952824 1_455
Mn4 O13 1.966049 1_454
Mn4 O12 1.966049 1_544
Mn5 O15 1.939329 1_445
Mn5 O9 1.950851 1_555
Mn5 O11 1.953100 1_545
Mn5 O10 1.953100 1_455
Mn5 O13 1.957280 1_455
Mn5 O12 1.957280 1_545
Mn6 O12 1.923877 1_555
Mn6 O17 1.924667 1_556
Mn6 O16 1.945018 1_555
Mn6 O15 1.951378 1_455
Mn6 O14 1.960346 1_456
Mn6 O19 2.007821 1_555
Mn7 O13 1.923877 1_555
Mn7 O17 1.924667 1_556
Mn7 O16 1.945018 1_555
Mn7 O15 1.951378 1_545
Mn7 O14 1.960346 1_546
Mn7 O18 2.007821 1_555
Mn8 O20 1.868963 1_555
Mn8 O21 1.868963 1_555
Mn8 O23 1.884015 1_555
Mn8 O16 1.958153 1_555
Mn8 O18 2.050455 1_555
Mn8 O19 2.050455 1_555
Fe0 O22 1.955487 1_555
Fe0 O23 1.991831 1_555
Fe0 O2 2.008557 1_545
Fe0 O21 2.048833 1_555
Fe0 O0 2.109012 1_545
Fe0 O1 2.109352 1_545
Fe1 O22 1.955487 1_555
Fe1 O23 1.991831 1_555
Fe1 O3 2.008557 1_455
Fe1 O20 2.048833 1_555
Fe1 O0 2.109012 1_455
Fe1 O1 2.109352 1_455
Fe2 O22 1.980105 1_555
Fe2 O20 2.005442 1_555
Fe2 O21 2.005442 1_555
Fe2 O17 2.020119 1_555
Fe2 O18 2.116843 1_554
Fe2 O19 2.116843 1_554
Fe3 O1 1.895765 1_555
Fe3 O0 1.916258 1_556
Fe3 O19 1.939669 1_655
Fe3 O18 1.939669 1_565
