# generated using pymatgen
data_Ge11N11O5
_symmetry_space_group_name_H-M   'P 1'
_cell_length_a   10.21692887
_cell_length_b   10.21692887
_cell_length_c   10.21692891
_cell_angle_alpha   33.60125173
_cell_angle_beta   33.60125173
_cell_angle_gamma   33.60124996
_symmetry_Int_Tables_number   1
_chemical_formula_structural   Ge11N11O5
_chemical_formula_sum   'Ge11 N11 O5'
_cell_volume   290.95715155
_cell_formula_units_Z   1
loop_
 _symmetry_equiv_pos_site_id
 _symmetry_equiv_pos_as_xyz
  1  'x, y, z'
loop_
 _atom_site_type_symbol
 _atom_site_label
 _atom_site_symmetry_multiplicity
 _atom_site_fract_x
 _atom_site_fract_y
 _atom_site_fract_z
 _atom_site_occupancy
  Ge  Ge0  1  0.93409000  0.45077900  0.93409000  1
  Ge  Ge1  1  0.68837900  0.68837900  0.68837900  1
  Ge  Ge2  1  0.99780800  0.99780800  0.99780800  1
  Ge  Ge3  1  0.45077900  0.93409000  0.93409000  1
  Ge  Ge4  1  0.93409000  0.93409000  0.45077900  1
  Ge  Ge5  1  0.87687500  0.87687500  0.87687500  1
  Ge  Ge6  1  0.43719800  0.93596100  0.43719800  1
  Ge  Ge7  1  0.18734000  0.18734000  0.18734000  1
  Ge  Ge8  1  0.49875200  0.49875200  0.49875200  1
  Ge  Ge9  1  0.93596100  0.43719800  0.43719800  1
  Ge  Ge10  1  0.43719800  0.43719800  0.93596100  1
  N  N0  1  0.81102600  0.81102600  0.81102600  1
  N  N1  1  0.29738200  0.83156900  0.29738200  1
  N  N2  1  0.83156900  0.29738200  0.29738200  1
  N  N3  1  0.29738200  0.29738200  0.83156900  1
  N  N4  1  0.07351400  0.07351400  0.54303200  1
  N  N5  1  0.54303200  0.07351400  0.07351400  1
  N  N6  1  0.07351400  0.54303200  0.07351400  1
  N  N7  1  0.80004700  0.33648500  0.80004700  1
  N  N8  1  0.56627400  0.56627400  0.56627400  1
  N  N9  1  0.80004700  0.80004700  0.33648500  1
  N  N10  1  0.33648500  0.80004700  0.80004700  1
  O  O0  1  0.58840700  0.58840700  0.02240700  1
  O  O1  1  0.02240700  0.58840700  0.58840700  1
  O  O2  1  0.58840700  0.02240700  0.58840700  1
  O  O3  1  0.06454100  0.06454100  0.06454100  1
  O  O4  1  0.30249900  0.30249900  0.30249900  1
loop_
_geom_bond_atom_site_label_1
_geom_bond_atom_site_label_2
_geom_bond_distance
_geom_bond_site_symmetry_2
Ge0 O0 1.948640 1_556
Ge0 O1 1.948640 1_655
Ge0 N3 1.974368 1_655
Ge0 N2 1.974369 1_556
Ge0 N0 1.980949 1_555
Ge0 O3 2.135748 1_656
Ge1 O1 1.964137 1_655
Ge1 O2 1.964137 1_565
Ge1 O0 1.964137 1_556
Ge1 N10 2.007920 1_555
Ge1 N7 2.007920 1_555
Ge1 N9 2.007920 1_555
Ge2 N7 1.909411 1_565
Ge2 N10 1.909411 1_655
Ge2 N9 1.909411 1_556
Ge2 O3 1.928133 1_666
Ge3 O0 1.948640 1_556
Ge3 O2 1.948640 1_565
Ge3 N3 1.974368 1_565
Ge3 N1 1.974369 1_556
Ge3 N0 1.980949 1_555
Ge3 O3 2.135748 1_566
Ge4 O1 1.948640 1_655
Ge4 O2 1.948640 1_565
Ge4 N1 1.974368 1_655
Ge4 N2 1.974368 1_565
Ge4 N0 1.980949 1_555
Ge4 O3 2.135748 1_665
Ge5 N6 1.897339 1_656
Ge5 N5 1.897339 1_566
Ge5 N4 1.897339 1_665
Ge5 N0 1.902591 1_555
Ge6 O4 1.948502 1_565
Ge6 N8 2.011598 1_555
Ge6 N4 2.022509 1_565
Ge6 N5 2.022509 1_565
Ge6 N9 2.044673 1_555
Ge6 N10 2.044673 1_555
Ge7 N6 2.020899 1_555
Ge7 N5 2.020899 1_555
Ge7 N4 2.020900 1_555
Ge7 N2 2.056892 1_455
Ge7 N1 2.056892 1_545
Ge7 N3 2.056892 1_554
Ge8 N1 1.942063 1_555
Ge8 N2 1.942063 1_555
Ge8 N3 1.942063 1_555
Ge8 N8 1.950929 1_555
Ge9 O4 1.948502 1_655
Ge9 N8 2.011598 1_555
Ge9 N4 2.022509 1_655
Ge9 N6 2.022509 1_655
Ge9 N9 2.044673 1_555
Ge9 N7 2.044673 1_555
Ge10 O4 1.948502 1_556
Ge10 N8 2.011598 1_555
Ge10 N5 2.022509 1_556
Ge10 N6 2.022509 1_556
Ge10 N10 2.044673 1_555
Ge10 N7 2.044673 1_555
