# generated using pymatgen
data_SN2O3
_symmetry_space_group_name_H-M   'P 1'
_cell_length_a   7.73645600
_cell_length_b   7.99911600
_cell_length_c   14.85749600
_cell_angle_alpha   90.00000000
_cell_angle_beta   90.00000000
_cell_angle_gamma   90.00000000
_symmetry_Int_Tables_number   1
_chemical_formula_structural   SN2O3
_chemical_formula_sum   'S8 N16 O24'
_cell_volume   919.45330178
_cell_formula_units_Z   8
loop_
 _symmetry_equiv_pos_site_id
 _symmetry_equiv_pos_as_xyz
  1  'x, y, z'
loop_
 _atom_site_type_symbol
 _atom_site_label
 _atom_site_symmetry_multiplicity
 _atom_site_fract_x
 _atom_site_fract_y
 _atom_site_fract_z
 _atom_site_occupancy
  S  S0  1  0.61947100  0.15057700  0.14015800  1
  S  S1  1  0.11947100  0.34942300  0.85984200  1
  S  S2  1  0.38052900  0.65057700  0.35984200  1
  S  S3  1  0.88052900  0.84942300  0.64015800  1
  S  S4  1  0.38052900  0.84942300  0.85984200  1
  S  S5  1  0.88052900  0.65057700  0.14015800  1
  S  S6  1  0.61947100  0.34942300  0.64015800  1
  S  S7  1  0.11947100  0.15057700  0.35984200  1
  N  N0  1  0.13457500  0.13762500  0.08112500  1
  N  N1  1  0.63457500  0.36237500  0.91887500  1
  N  N2  1  0.86542500  0.63762500  0.41887500  1
  N  N3  1  0.36542500  0.86237500  0.58112500  1
  N  N4  1  0.86542500  0.86237500  0.91887500  1
  N  N5  1  0.36542500  0.63762500  0.08112500  1
  N  N6  1  0.13457500  0.36237500  0.58112500  1
  N  N7  1  0.63457500  0.13762500  0.41887500  1
  N  N8  1  0.50818800  0.98397300  0.17231800  1
  N  N9  1  0.00818800  0.51602700  0.82768200  1
  N  N10  1  0.49181200  0.48397300  0.32768200  1
  N  N11  1  0.99181200  0.01602700  0.67231800  1
  N  N12  1  0.49181200  0.01602700  0.82768200  1
  N  N13  1  0.99181200  0.48397300  0.17231800  1
  N  N14  1  0.50818800  0.51602700  0.67231800  1
  N  N15  1  0.00818800  0.98397300  0.32768200  1
  O  O0  1  0.72644400  0.20197500  0.21692500  1
  O  O1  1  0.22644400  0.29802500  0.78307500  1
  O  O2  1  0.27355600  0.70197500  0.28307500  1
  O  O3  1  0.77355600  0.79802500  0.71692500  1
  O  O4  1  0.27355600  0.79802500  0.78307500  1
  O  O5  1  0.77355600  0.70197500  0.21692500  1
  O  O6  1  0.72644400  0.29802500  0.71692500  1
  O  O7  1  0.22644400  0.20197500  0.28307500  1
  O  O8  1  0.48994100  0.27537300  0.11461900  1
  O  O9  1  0.98994100  0.22462700  0.88538100  1
  O  O10  1  0.51005900  0.77537300  0.38538100  1
  O  O11  1  0.01005900  0.72462700  0.61461900  1
  O  O12  1  0.51005900  0.72462700  0.88538100  1
  O  O13  1  0.01005900  0.77537300  0.11461900  1
  O  O14  1  0.48994100  0.22462700  0.61461900  1
  O  O15  1  0.98994100  0.27537300  0.38538100  1
  O  O16  1  0.72386200  0.09576800  0.06260000  1
  O  O17  1  0.22386200  0.40423200  0.93740000  1
  O  O18  1  0.27613800  0.59576800  0.43740000  1
  O  O19  1  0.77613800  0.90423200  0.56260000  1
  O  O20  1  0.27613800  0.90423200  0.93740000  1
  O  O21  1  0.77613800  0.59576800  0.06260000  1
  O  O22  1  0.72386200  0.40423200  0.56260000  1
  O  O23  1  0.22386200  0.09576800  0.43740000  1
loop_
_geom_bond_atom_site_label_1
_geom_bond_atom_site_label_2
_geom_bond_distance
_geom_bond_site_symmetry_2
N8 S0 1.656976 1_565
N9 S1 1.656976 1_555
N10 S2 1.656976 1_555
N11 S3 1.656976 1_545
N12 S4 1.656976 1_545
N13 S5 1.656976 1_555
N14 S6 1.656976 1_555
N15 S7 1.656976 1_565
O0 S0 1.467935 1_555
O1 S1 1.467935 1_555
O2 S2 1.467935 1_555
O3 S3 1.467935 1_555
O4 S4 1.467935 1_555
O5 S5 1.467935 1_555
O6 S6 1.467935 1_555
O7 S7 1.467935 1_555
O8 S0 1.464482 1_555
O9 S1 1.464482 1_655
O10 S2 1.464482 1_555
O11 S3 1.464482 1_455
O12 S4 1.464482 1_555
O13 S5 1.464482 1_455
O14 S6 1.464482 1_555
O15 S7 1.464482 1_655
O16 S0 1.473871 1_555
O17 S1 1.473871 1_555
O18 S2 1.473871 1_555
O19 S3 1.473871 1_555
O20 S4 1.473871 1_555
O21 S5 1.473871 1_555
O22 S6 1.473871 1_555
O23 S7 1.473871 1_555
