# generated using pymatgen
data_Li4MnV2WO12
_symmetry_space_group_name_H-M   'P 1'
_cell_length_a   7.35442902
_cell_length_b   7.36805022
_cell_length_c   7.36968479
_cell_angle_alpha   93.17380250
_cell_angle_beta   93.10518415
_cell_angle_gamma   86.82779272
_symmetry_Int_Tables_number   1
_chemical_formula_structural   Li4MnV2WO12
_chemical_formula_sum   'Li8 Mn2 V4 W2 O24'
_cell_volume   397.60007975
_cell_formula_units_Z   2
loop_
 _symmetry_equiv_pos_site_id
 _symmetry_equiv_pos_as_xyz
  1  'x, y, z'
loop_
 _atom_site_type_symbol
 _atom_site_label
 _atom_site_symmetry_multiplicity
 _atom_site_fract_x
 _atom_site_fract_y
 _atom_site_fract_z
 _atom_site_occupancy
  Li  Li0  1  0.78741200  0.31162100  0.21122900  1
  Li  Li1  1  0.28739400  0.31160900  0.71119800  1
  Li  Li2  1  0.79926600  0.77363300  0.70512000  1
  Li  Li3  1  0.29923900  0.77356500  0.20510400  1
  Li  Li4  1  0.27433100  0.75836500  0.71696400  1
  Li  Li5  1  0.77431000  0.75837000  0.21693800  1
  Li  Li6  1  0.28831900  0.30822600  0.21690400  1
  Li  Li7  1  0.78835000  0.30821200  0.71688300  1
  Mn  Mn0  1  0.50645800  0.50714900  0.99441600  1
  Mn  Mn1  1  0.00647900  0.50725500  0.49440400  1
  V  V0  1  0.00575400  0.51185600  0.99415200  1
  V  V1  1  0.50581900  0.51188400  0.49414500  1
  V  V2  1  0.01428500  0.00483500  0.48582200  1
  V  V3  1  0.51430200  0.00482700  0.98580700  1
  W  W0  1  0.50578800  0.00658500  0.49086600  1
  W  W1  1  0.00578800  0.00657200  0.99085200  1
  O  O0  1  0.74708100  0.43329600  0.96109800  1
  O  O1  1  0.24712700  0.43332700  0.46112100  1
  O  O2  1  0.92886900  0.74661100  0.95514600  1
  O  O3  1  0.42887400  0.74662200  0.45517100  1
  O  O4  1  0.92553800  0.05129600  0.75407700  1
  O  O5  1  0.42554100  0.05128700  0.25407500  1
  O  O6  1  0.04097700  0.43832000  0.76393500  1
  O  O7  1  0.54099800  0.43832300  0.26393500  1
  O  O8  1  0.74372700  0.92879700  0.44301300  1
  O  O9  1  0.24371300  0.92878600  0.94306100  1
  O  O10  1  0.04105300  0.74916900  0.56975800  1
  O  O11  1  0.54097100  0.74916900  0.06975200  1
  O  O12  1  0.93745700  0.23096100  0.45146400  1
  O  O13  1  0.43745900  0.23095700  0.95146000  1
  O  O14  1  0.24255200  0.04998100  0.57143700  1
  O  O15  1  0.74253300  0.04997400  0.07144400  1
  O  O16  1  0.93378000  0.54127000  0.25486800  1
  O  O17  1  0.43378600  0.54126400  0.75489300  1
  O  O18  1  0.05648300  0.93006100  0.25709100  1
  O  O19  1  0.55645000  0.93007700  0.75702300  1
  O  O20  1  0.05412700  0.24240200  0.06987600  1
  O  O21  1  0.55420900  0.24240100  0.56983800  1
  O  O22  1  0.23788700  0.54672900  0.06166900  1
  O  O23  1  0.73791800  0.54675800  0.56159100  1
loop_
_geom_bond_atom_site_label_1
_geom_bond_atom_site_label_2
_geom_bond_distance
_geom_bond_site_symmetry_2
Li0 O7 2.038491 1_555
Li0 O16 2.056475 1_555
Li0 O0 2.093826 1_554
Li0 O12 2.130184 1_555
Li0 O15 2.168038 1_555
Li0 O20 2.290144 1_655
Li1 O6 2.038586 1_555
Li1 O17 2.056645 1_555
Li1 O1 2.093585 1_555
Li1 O13 2.130397 1_555
Li1 O14 2.167795 1_555
Li1 O21 2.290796 1_555
Li2 O23 1.988149 1_555
Li2 O2 2.042722 1_555
Li2 O10 2.080014 1_655
Li2 O19 2.112191 1_555
Li2 O4 2.295704 1_565
Li2 O8 2.304886 1_555
Li3 O22 1.987592 1_555
Li3 O3 2.043015 1_555
Li3 O11 2.079615 1_555
Li3 O18 2.112136 1_555
Li3 O5 2.296205 1_565
Li3 O9 2.304696 1_554
Li4 O17 1.954099 1_555
Li4 O10 1.981912 1_555
Li4 O9 2.044878 1_555
Li4 O3 2.286878 1_555
Li4 O14 2.448254 1_565
Li4 O19 2.485064 1_555
Li5 O16 1.954155 1_555
Li5 O11 1.982216 1_555
Li5 O8 2.044744 1_555
Li5 O2 2.286931 1_554
Li5 O15 2.448057 1_565
Li5 O18 2.485351 1_655
Li6 O1 2.006279 1_555
Li6 O20 2.051306 1_555
Li6 O5 2.119790 1_555
Li6 O7 2.140763 1_555
Li6 O22 2.153833 1_555
Li6 O13 2.322516 1_554
Li7 O0 2.006314 1_555
Li7 O21 2.051032 1_555
Li7 O4 2.119563 1_555
Li7 O6 2.140478 1_655
Li7 O23 2.154336 1_555
Li7 O12 2.322213 1_555
Mn0 O17 1.843054 1_555
Mn0 O0 1.847632 1_555
Mn0 O11 1.864868 1_556
Mn0 O22 2.063581 1_556
Mn0 O7 2.075952 1_556
Mn0 O13 2.127083 1_555
Mn1 O16 1.843063 1_455
Mn1 O1 1.847892 1_555
Mn1 O10 1.864237 1_555
Mn1 O23 2.063329 1_455
Mn1 O6 2.076253 1_555
Mn1 O12 2.127844 1_455
O0 V0 2.017309 1_655
O1 V1 2.017423 1_555
O2 V0 1.823014 1_655
O2 W1 2.026331 1_665
O3 V1 1.822961 1_555
O3 W0 2.026328 1_565
O4 W1 1.852664 1_655
O4 V2 2.119353 1_655
O5 W0 1.852734 1_555
O5 V3 2.119479 1_554
O6 V0 1.780310 1_555
O7 V1 1.780248 1_555
O8 W0 1.857017 1_565
O8 V2 2.099646 1_665
O9 W1 1.856815 1_565
O9 V3 2.099832 1_565
O10 V2 2.011155 1_565
O11 V3 2.011101 1_564
O12 V2 1.756789 1_655
O13 V3 1.756831 1_555
O14 V2 1.803009 1_555
O14 W0 2.058574 1_555
O15 V3 1.802813 1_554
O15 W1 2.058761 1_654
O16 V0 2.017497 1_654
O17 V1 2.017847 1_555
O18 V2 1.782208 1_565
O18 W1 2.080047 1_564
O19 V3 1.782454 1_565
O19 W0 2.079439 1_565
O20 W1 1.848977 1_554
O20 V0 2.098242 1_554
O21 W0 1.848921 1_555
O21 V1 2.098387 1_555
O22 V0 1.780595 1_554
O23 V1 1.780244 1_555
