# generated using pymatgen
data_LiVF4
_symmetry_space_group_name_H-M   'P 1'
_cell_length_a   5.49108614
_cell_length_b   4.52160176
_cell_length_c   5.10923006
_cell_angle_alpha   88.38975043
_cell_angle_beta   90.00000000
_cell_angle_gamma   90.00000000
_symmetry_Int_Tables_number   1
_chemical_formula_structural   LiVF4
_chemical_formula_sum   'Li2 V2 F8'
_cell_volume   126.80444861
_cell_formula_units_Z   2
loop_
 _symmetry_equiv_pos_site_id
 _symmetry_equiv_pos_as_xyz
  1  'x, y, z'
loop_
 _atom_site_type_symbol
 _atom_site_label
 _atom_site_symmetry_multiplicity
 _atom_site_fract_x
 _atom_site_fract_y
 _atom_site_fract_z
 _atom_site_occupancy
  Li  Li0  1  0.36627770  0.50000000  0.75000000  1
  Li  Li1  1  0.63372230  0.50000000  0.25000000  1
  V  V0  1  0.84341247  0.00000000  0.75000000  1
  V  V1  1  0.15658753  0.00000000  0.25000000  1
  F  F0  1  0.11654097  0.77690173  0.91515302  1
  F  F1  1  0.88345903  0.77690173  0.41515302  1
  F  F2  1  0.62529459  0.73631092  0.91313475  1
  F  F3  1  0.37470541  0.73631092  0.41313475  1
  F  F4  1  0.62529459  0.26368908  0.58686525  1
  F  F5  1  0.37470541  0.26368908  0.08686525  1
  F  F6  1  0.11654097  0.22309827  0.58484698  1
  F  F7  1  0.88345903  0.22309827  0.08484698  1
loop_
_geom_bond_atom_site_label_1
_geom_bond_atom_site_label_2
_geom_bond_distance
_geom_bond_site_symmetry_2
F0 V0 1.982696 1_465
F0 V1 2.022330 1_566
F0 Li0 2.054147 1_555
F1 V1 1.982696 1_665
F1 V0 2.022330 1_565
F1 Li1 2.054147 1_555
F2 V0 1.869472 1_565
F2 Li0 1.977209 1_555
F2 Li1 2.000687 1_556
F3 V1 1.869472 1_565
F3 Li1 1.977209 1_555
F3 Li0 2.000687 1_555
F4 V0 1.869472 1_555
F4 Li0 1.977209 1_555
F4 Li1 2.000687 1_555
F5 V1 1.869472 1_555
F5 Li1 1.977209 1_555
F5 Li0 2.000687 1_554
F6 V0 1.982696 1_455
F6 V1 2.022330 1_555
F6 Li0 2.054147 1_555
F7 V1 1.982696 1_655
F7 V0 2.022330 1_554
F7 Li1 2.054147 1_555
