# generated using pymatgen
data_Li2CrP3O10
_symmetry_space_group_name_H-M   'P 1'
_cell_length_a   7.98242014
_cell_length_b   7.98242014
_cell_length_c   9.57119159
_cell_angle_alpha   57.59559621
_cell_angle_beta   57.59559621
_cell_angle_gamma   53.56248198
_symmetry_Int_Tables_number   1
_chemical_formula_structural   Li2CrP3O10
_chemical_formula_sum   'Li4 Cr2 P6 O20'
_cell_volume   392.40913101
_cell_formula_units_Z   2
loop_
 _symmetry_equiv_pos_site_id
 _symmetry_equiv_pos_as_xyz
  1  'x, y, z'
loop_
 _atom_site_type_symbol
 _atom_site_label
 _atom_site_symmetry_multiplicity
 _atom_site_fract_x
 _atom_site_fract_y
 _atom_site_fract_z
 _atom_site_occupancy
  Li  Li0  1  0.71654500  0.74237400  0.95908100  1
  Li  Li1  1  0.74237400  0.71654500  0.45908100  1
  Li  Li2  1  0.25762600  0.28345500  0.54091900  1
  Li  Li3  1  0.28345500  0.25762600  0.04091900  1
  Cr  Cr0  1  0.33629700  0.66370300  0.75000000  1
  Cr  Cr1  1  0.66370300  0.33629700  0.25000000  1
  P  P0  1  0.80281700  0.43324000  0.81637000  1
  P  P1  1  0.43324000  0.80281700  0.31637000  1
  P  P2  1  0.95723500  0.04276500  0.75000000  1
  P  P3  1  0.04276500  0.95723500  0.25000000  1
  P  P4  1  0.56676000  0.19718300  0.68363000  1
  P  P5  1  0.19718300  0.56676000  0.18363000  1
  O  O0  1  0.97873600  0.80761500  0.84353900  1
  O  O1  1  0.80761500  0.97873600  0.34353900  1
  O  O2  1  0.55708000  0.98236000  0.80436600  1
  O  O3  1  0.71614000  0.46621200  0.99003400  1
  O  O4  1  0.63269600  0.59477800  0.71664600  1
  O  O5  1  0.98236000  0.55708000  0.30436600  1
  O  O6  1  0.82529700  0.18255400  0.87778000  1
  O  O7  1  0.46621200  0.71614000  0.49003400  1
  O  O8  1  0.59477800  0.63269600  0.21664600  1
  O  O9  1  0.81744600  0.17470300  0.62222000  1
  O  O10  1  0.18255400  0.82529700  0.37778000  1
  O  O11  1  0.40522200  0.36730400  0.78335400  1
  O  O12  1  0.53378800  0.28386000  0.50996600  1
  O  O13  1  0.17470300  0.81744600  0.12222000  1
  O  O14  1  0.01764000  0.44292000  0.69563400  1
  O  O15  1  0.36730400  0.40522200  0.28335400  1
  O  O16  1  0.28386000  0.53378800  0.00996600  1
  O  O17  1  0.44292000  0.01764000  0.19563400  1
  O  O18  1  0.19238500  0.02126400  0.65646100  1
  O  O19  1  0.02126400  0.19238500  0.15646100  1
loop_
_geom_bond_atom_site_label_1
_geom_bond_atom_site_label_2
_geom_bond_distance
_geom_bond_site_symmetry_2
Li0 O2 1.888417 1_555
Li0 O8 1.979392 1_556
Li0 O0 2.017751 1_555
Li0 O3 2.062721 1_555
Li1 O5 1.888417 1_555
Li1 O4 1.979392 1_555
Li1 O1 2.017751 1_555
Li1 O7 2.062721 1_555
Li2 O14 1.888417 1_555
Li2 O15 1.979392 1_555
Li2 O18 2.017751 1_555
Li2 O12 2.062721 1_555
Li3 O17 1.888417 1_555
Li3 O11 1.979392 1_554
Li3 O19 2.017751 1_555
Li3 O16 2.062721 1_555
Cr0 O11 1.958287 1_555
Cr0 O4 1.958287 1_555
Cr0 O16 2.018795 1_556
Cr0 O7 2.018795 1_555
Cr0 O0 2.176314 1_455
Cr0 O18 2.176314 1_565
Cr1 O8 1.958287 1_555
Cr1 O15 1.958287 1_555
Cr1 O3 2.018795 1_554
Cr1 O12 2.018795 1_555
Cr1 O1 2.176314 1_545
Cr1 O19 2.176314 1_655
O0 P2 1.528144 1_565
O1 P3 1.528144 1_655
O2 P4 1.489885 1_565
O3 P0 1.526684 1_555
O4 P0 1.551729 1_555
O5 P5 1.489885 1_655
O6 P2 1.592549 1_555
O6 P0 1.675675 1_555
O7 P1 1.526684 1_555
O8 P1 1.551729 1_555
O9 P2 1.592549 1_555
O9 P4 1.675675 1_555
O10 P3 1.592549 1_555
O10 P1 1.675675 1_555
O11 P4 1.551729 1_555
O12 P4 1.526684 1_555
O13 P3 1.592549 1_555
O13 P5 1.675675 1_555
O14 P0 1.489885 1_455
O15 P5 1.551729 1_555
O16 P5 1.526684 1_555
O17 P1 1.489885 1_545
O18 P2 1.528144 1_455
O19 P3 1.528144 1_545
