# generated using pymatgen
data_MnTlO3
_symmetry_space_group_name_H-M   'P 1'
_cell_length_a   6.13181426
_cell_length_b   6.13181426
_cell_length_c   12.01344400
_cell_angle_alpha   90.00000000
_cell_angle_beta   90.00000000
_cell_angle_gamma   120.00000285
_symmetry_Int_Tables_number   1
_chemical_formula_structural   MnTlO3
_chemical_formula_sum   'Mn6 Tl6 O18'
_cell_volume   391.17953872
_cell_formula_units_Z   6
loop_
 _symmetry_equiv_pos_site_id
 _symmetry_equiv_pos_as_xyz
  1  'x, y, z'
loop_
 _atom_site_type_symbol
 _atom_site_label
 _atom_site_symmetry_multiplicity
 _atom_site_fract_x
 _atom_site_fract_y
 _atom_site_fract_z
 _atom_site_occupancy
  Mn  Mn0  1  0.00000000  0.66511200  0.49356200  1
  Mn  Mn1  1  0.00000000  0.33488800  0.99356200  1
  Mn  Mn2  1  0.33488800  0.33488800  0.49356200  1
  Mn  Mn3  1  0.33488800  0.00000000  0.99356200  1
  Mn  Mn4  1  0.66511200  0.66511200  0.99356200  1
  Mn  Mn5  1  0.66511200  0.00000000  0.49356200  1
  Tl  Tl0  1  0.33333300  0.66666700  0.23320000  1
  Tl  Tl1  1  0.00000000  0.00000000  0.26392700  1
  Tl  Tl2  1  0.00000000  0.00000000  0.76392700  1
  Tl  Tl3  1  0.33333300  0.66666700  0.73320000  1
  Tl  Tl4  1  0.66666700  0.33333300  0.73320000  1
  Tl  Tl5  1  0.66666700  0.33333300  0.23320000  1
  O  O0  1  0.00000000  0.68305900  0.65522900  1
  O  O1  1  0.00000000  0.64926300  0.33211100  1
  O  O2  1  0.00000000  0.35073700  0.83211100  1
  O  O3  1  0.00000000  0.31694100  0.15522900  1
  O  O4  1  0.33333300  0.66666700  0.00229400  1
  O  O5  1  0.00000000  0.00000000  0.47763900  1
  O  O6  1  0.00000000  0.00000000  0.97763900  1
  O  O7  1  0.33333300  0.66666700  0.50229400  1
  O  O8  1  0.31694100  0.31694100  0.65522900  1
  O  O9  1  0.35073700  0.35073700  0.33211100  1
  O  O10  1  0.31694100  0.00000000  0.15522900  1
  O  O11  1  0.64926300  0.64926300  0.83211100  1
  O  O12  1  0.35073700  0.00000000  0.83211100  1
  O  O13  1  0.68305900  0.68305900  0.15522900  1
  O  O14  1  0.66666700  0.33333300  0.50229400  1
  O  O15  1  0.66666700  0.33333300  0.00229400  1
  O  O16  1  0.64926300  0.00000000  0.33211100  1
  O  O17  1  0.68305900  0.00000000  0.65522900  1
loop_
_geom_bond_atom_site_label_1
_geom_bond_atom_site_label_2
_geom_bond_distance
_geom_bond_site_symmetry_2
Mn0 O1 1.942016 1_555
Mn0 O0 1.945293 1_555
Mn0 O7 2.041882 1_555
Mn0 O14 2.041885 1_455
Mn0 O5 2.062362 1_565
Mn1 O2 1.942016 1_555
Mn1 O3 1.945293 1_556
Mn1 O15 2.041882 1_456
Mn1 O4 2.041885 1_556
Mn1 O6 2.062362 1_555
Mn2 O9 1.942016 1_555
Mn2 O8 1.945293 1_555
Mn2 O14 2.041888 1_555
Mn2 O7 2.041888 1_555
Mn2 O5 2.062361 1_555
Mn3 O12 1.942016 1_555
Mn3 O10 1.945293 1_556
Mn3 O4 2.041882 1_546
Mn3 O15 2.041885 1_556
Mn3 O6 2.062362 1_555
Mn4 O11 1.942016 1_555
Mn4 O13 1.945293 1_556
Mn4 O4 2.041888 1_556
Mn4 O15 2.041888 1_556
Mn4 O6 2.062361 1_665
Mn5 O16 1.942016 1_555
Mn5 O17 1.945293 1_555
Mn5 O14 2.041882 1_555
Mn5 O7 2.041885 1_545
Mn5 O5 2.062362 1_655
O0 Tl3 2.295784 1_555
O0 Tl4 2.295787 1_455
O0 Tl2 2.341390 1_565
O1 Tl1 2.301364 1_565
O1 Tl0 2.320109 1_555
O1 Tl5 2.320111 1_455
O2 Tl2 2.301364 1_555
O2 Tl4 2.320109 1_455
O2 Tl3 2.320111 1_555
O3 Tl5 2.295784 1_455
O3 Tl0 2.295787 1_555
O3 Tl1 2.341390 1_555
O5 Tl1 2.567417 1_555
O6 Tl2 2.567417 1_555
O8 Tl3 2.295790 1_555
O8 Tl4 2.295790 1_555
O8 Tl2 2.341390 1_555
O9 Tl1 2.301364 1_555
O9 Tl0 2.320114 1_555
O9 Tl5 2.320114 1_555
O10 Tl0 2.295784 1_545
O10 Tl5 2.295787 1_555
O10 Tl1 2.341390 1_555
O11 Tl2 2.301364 1_665
O11 Tl3 2.320114 1_555
O11 Tl4 2.320114 1_555
O12 Tl2 2.301364 1_555
O12 Tl3 2.320109 1_545
O12 Tl4 2.320111 1_555
O13 Tl5 2.295790 1_555
O13 Tl0 2.295790 1_555
O13 Tl1 2.341390 1_665
O16 Tl1 2.301364 1_655
O16 Tl5 2.320109 1_555
O16 Tl0 2.320111 1_545
O17 Tl4 2.295784 1_555
O17 Tl3 2.295787 1_545
O17 Tl2 2.341390 1_655
