# generated using pymatgen
data_Ti2Fe4O9
_symmetry_space_group_name_H-M   'P 1'
_cell_length_a   5.51852094
_cell_length_b   5.51852094
_cell_length_c   12.90578530
_cell_angle_alpha   86.88207094
_cell_angle_beta   86.88207094
_cell_angle_gamma   55.77346343
_symmetry_Int_Tables_number   1
_chemical_formula_structural   Ti2Fe4O9
_chemical_formula_sum   'Ti4 Fe8 O18'
_cell_volume   324.35232625
_cell_formula_units_Z   2
loop_
 _symmetry_equiv_pos_site_id
 _symmetry_equiv_pos_as_xyz
  1  'x, y, z'
loop_
 _atom_site_type_symbol
 _atom_site_label
 _atom_site_symmetry_multiplicity
 _atom_site_fract_x
 _atom_site_fract_y
 _atom_site_fract_z
 _atom_site_occupancy
  Ti  Ti0  1  0.19727100  0.18785400  0.54485700  1
  Ti  Ti1  1  0.18785400  0.19727100  0.04485700  1
  Ti  Ti2  1  0.85565700  0.86553100  0.72164700  1
  Ti  Ti3  1  0.86553100  0.85565700  0.22164700  1
  Fe  Fe0  1  0.13623500  0.14627500  0.78286200  1
  Fe  Fe1  1  0.47209800  0.47208500  0.61781400  1
  Fe  Fe2  1  0.14627500  0.13623500  0.28286200  1
  Fe  Fe3  1  0.47208500  0.47209800  0.11781400  1
  Fe  Fe4  1  0.52789300  0.53151900  0.88113700  1
  Fe  Fe5  1  0.81168100  0.81111500  0.95347800  1
  Fe  Fe6  1  0.53151900  0.52789300  0.38113700  1
  Fe  Fe7  1  0.81111500  0.81168100  0.45347800  1
  O  O0  1  0.78740100  0.11251100  0.34317300  1
  O  O1  1  0.63050800  0.03125600  0.59663900  1
  O  O2  1  0.68471400  0.30304400  0.75137100  1
  O  O3  1  0.50741100  0.25713100  0.98283400  1
  O  O4  1  0.46603900  0.11088400  0.17975200  1
  O  O5  1  0.11088400  0.46603900  0.67975200  1
  O  O6  1  0.25713100  0.50741100  0.48283400  1
  O  O7  1  0.90700900  0.20347900  0.13870500  1
  O  O8  1  0.96841700  0.35110000  0.92815600  1
  O  O9  1  0.30304400  0.68471400  0.25137100  1
  O  O10  1  0.03125600  0.63050800  0.09663900  1
  O  O11  1  0.11251100  0.78740100  0.84317300  1
  O  O12  1  0.79088600  0.43536800  0.51962400  1
  O  O13  1  0.84823000  0.58939700  0.30795200  1
  O  O14  1  0.58939700  0.84823000  0.80795200  1
  O  O15  1  0.43536800  0.79088600  0.01962400  1
  O  O16  1  0.35110000  0.96841700  0.42815600  1
  O  O17  1  0.20347900  0.90700900  0.63870500  1
loop_
_geom_bond_atom_site_label_1
_geom_bond_atom_site_label_2
_geom_bond_distance
_geom_bond_site_symmetry_2
Fe0 O5 2.095559 1_555
Fe0 O14 2.113552 1_545
Fe0 O8 2.124975 1_455
Fe0 O11 2.158260 1_545
Fe0 O2 2.183864 1_455
Fe0 O17 2.232350 1_545
Fe1 O2 2.007912 1_555
Fe1 O17 2.013778 1_555
Fe1 O12 2.031315 1_555
Fe1 O6 2.099443 1_555
Fe1 O1 2.100242 1_555
Fe1 O5 2.124189 1_555
Fe2 O4 2.095559 1_555
Fe2 O13 2.113552 1_455
Fe2 O16 2.124975 1_545
Fe2 O0 2.158260 1_455
Fe2 O9 2.183864 1_545
Fe2 O7 2.232350 1_455
Fe3 O9 2.007912 1_555
Fe3 O7 2.013778 1_555
Fe3 O15 2.031315 1_555
Fe3 O3 2.099443 1_554
Fe3 O10 2.100242 1_555
Fe3 O4 2.124189 1_555
Fe4 O11 1.973387 1_555
Fe4 O2 1.996989 1_555
Fe4 O3 1.997106 1_555
Fe4 O14 2.124829 1_555
Fe4 O8 2.154391 1_555
Fe4 O15 2.204688 1_556
Fe5 O11 2.078104 1_655
Fe5 O3 2.098624 1_565
Fe5 O10 2.135401 1_656
Fe5 O8 2.211074 1_555
Fe5 O14 2.236111 1_555
Fe5 O15 2.260847 1_556
Fe6 O0 1.973387 1_555
Fe6 O9 1.996989 1_555
Fe6 O6 1.997106 1_555
Fe6 O13 2.124829 1_555
Fe6 O16 2.154391 1_555
Fe6 O12 2.204688 1_555
Fe7 O0 2.078104 1_565
Fe7 O6 2.098624 1_655
Fe7 O1 2.135401 1_565
Fe7 O16 2.211074 1_555
Fe7 O13 2.236111 1_555
Fe7 O12 2.260847 1_555
O0 Ti3 2.033639 1_545
O1 Ti2 1.939659 1_545
O1 Ti0 2.167075 1_555
O2 Ti2 2.089426 1_545
O3 Ti1 2.081520 1_556
O4 Ti3 1.920987 1_545
O4 Ti1 2.234278 1_555
O5 Ti2 1.920987 1_455
O5 Ti0 2.234278 1_555
O6 Ti0 2.081520 1_555
O7 Ti1 1.900198 1_655
O7 Ti3 2.264209 1_545
O8 Ti1 1.832585 1_656
O9 Ti3 2.089426 1_455
O10 Ti3 1.939659 1_455
O10 Ti1 2.167075 1_555
O11 Ti2 2.033639 1_455
O12 Ti0 1.893758 1_655
O13 Ti3 1.837655 1_555
O14 Ti2 1.837655 1_555
O15 Ti1 1.893758 1_565
O16 Ti0 1.832585 1_565
O17 Ti0 1.900198 1_565
O17 Ti2 2.264209 1_455
