# generated using pymatgen
data_Li2TiFe2O5
_symmetry_space_group_name_H-M   'P 1'
_cell_length_a   5.12821101
_cell_length_b   7.98030447
_cell_length_c   5.13756558
_cell_angle_alpha   108.76944138
_cell_angle_beta   71.93561894
_cell_angle_gamma   95.71991401
_symmetry_Int_Tables_number   1
_chemical_formula_structural   Li2TiFe2O5
_chemical_formula_sum   'Li4 Ti2 Fe4 O10'
_cell_volume   189.25966593
_cell_formula_units_Z   2
loop_
 _symmetry_equiv_pos_site_id
 _symmetry_equiv_pos_as_xyz
  1  'x, y, z'
loop_
 _atom_site_type_symbol
 _atom_site_label
 _atom_site_symmetry_multiplicity
 _atom_site_fract_x
 _atom_site_fract_y
 _atom_site_fract_z
 _atom_site_occupancy
  Li  Li0  1  0.00019000  0.60136700  0.80079400  1
  Li  Li1  1  0.50021200  0.59857700  0.29941600  1
  Li  Li2  1  0.99858000  0.99471500  0.00101300  1
  Li  Li3  1  0.49860600  0.20535100  0.10630300  1
  Ti  Ti0  1  0.50052900  0.80645200  0.89860500  1
  Ti  Ti1  1  0.00055800  0.39336800  0.19200300  1
  Fe  Fe0  1  0.50227800  0.40665600  0.70300300  1
  Fe  Fe1  1  0.49725300  0.00683300  0.50579900  1
  Fe  Fe2  1  0.00223500  0.79334800  0.39641000  1
  Fe  Fe3  1  0.99720900  0.19313900  0.59912100  1
  O  O0  1  0.24977700  0.59840700  0.05030700  1
  O  O1  1  0.74976600  0.60163200  0.55191000  1
  O  O2  1  0.22863900  0.39453400  0.43910000  1
  O  O3  1  0.72866800  0.80540500  0.14438200  1
  O  O4  1  0.26441900  0.79865700  0.66423400  1
  O  O5  1  0.76443600  0.40140800  0.96554300  1
  O  O6  1  0.76459900  0.21580800  0.33588400  1
  O  O7  1  0.26470200  0.98421700  0.22018800  1
  O  O8  1  0.24373900  0.21074500  0.86840700  1
  O  O9  1  0.74360700  0.98938000  0.75757400  1
loop_
_geom_bond_atom_site_label_1
_geom_bond_atom_site_label_2
_geom_bond_distance
_geom_bond_site_symmetry_2
Li0 O1 2.074817 1_455
Li0 O0 2.079683 1_556
Li0 O4 2.122065 1_555
Li0 O5 2.138792 1_455
Li0 O2 2.147443 1_555
Li0 O3 2.187251 1_456
Li1 O0 2.074894 1_555
Li1 O1 2.079452 1_555
Li1 O5 2.121505 1_554
Li1 O4 2.139625 1_555
Li1 O3 2.147823 1_555
Li1 O2 2.187725 1_555
Li2 O7 2.043029 1_655
Li2 O9 2.060231 1_554
Li2 O3 2.099475 1_555
Li2 O4 2.126129 1_654
Li2 O6 2.168189 1_565
Li2 O8 2.193051 1_664
Li3 O6 2.042205 1_555
Li3 O8 2.059047 1_554
Li3 O2 2.099243 1_555
Li3 O5 2.126240 1_554
Li3 O7 2.168556 1_545
Li3 O9 2.192599 1_544
Fe0 O1 2.099292 1_555
Fe0 O0 2.099301 1_556
Fe0 O8 2.160401 1_555
Fe0 O6 2.161698 1_555
Fe0 O5 2.191036 1_555
Fe0 O2 2.210263 1_555
Fe1 O9 2.110239 1_545
Fe1 O7 2.116558 1_545
Fe1 O3 2.129069 1_545
Fe1 O4 2.172612 1_545
Fe1 O8 2.185764 1_555
Fe1 O6 2.271943 1_555
Fe2 O1 2.098931 1_455
Fe2 O0 2.099300 1_555
Fe2 O9 2.160715 1_455
Fe2 O7 2.162056 1_555
Fe2 O4 2.191189 1_555
Fe2 O3 2.210784 1_455
Fe3 O8 2.110999 1_655
Fe3 O6 2.117922 1_555
Fe3 O2 2.128958 1_655
Fe3 O5 2.172461 1_555
Fe3 O9 2.184458 1_545
Fe3 O7 2.272100 1_645
O0 Ti1 2.147891 1_555
O0 Ti0 2.191589 1_554
O1 Ti0 2.146838 1_555
O1 Ti1 2.192936 1_655
O2 Ti1 1.972516 1_555
O3 Ti0 1.971839 1_554
O4 Ti0 1.939270 1_555
O5 Ti1 1.939382 1_656
O6 Ti1 1.948337 1_655
O7 Ti0 1.949163 1_554
O8 Ti1 1.990075 1_556
O9 Ti0 1.991923 1_555
