# generated using pymatgen
data_Li4CrFe3O8
_symmetry_space_group_name_H-M   'P 1'
_cell_length_a   5.20199500
_cell_length_b   5.96954589
_cell_length_c   10.33693910
_cell_angle_alpha   89.94501915
_cell_angle_beta   99.57905265
_cell_angle_gamma   106.78437449
_symmetry_Int_Tables_number   1
_chemical_formula_structural   Li4CrFe3O8
_chemical_formula_sum   'Li8 Cr2 Fe6 O16'
_cell_volume   302.66121300
_cell_formula_units_Z   2
loop_
 _symmetry_equiv_pos_site_id
 _symmetry_equiv_pos_as_xyz
  1  'x, y, z'
loop_
 _atom_site_type_symbol
 _atom_site_label
 _atom_site_symmetry_multiplicity
 _atom_site_fract_x
 _atom_site_fract_y
 _atom_site_fract_z
 _atom_site_occupancy
  Li  Li0  1  0.99827900  0.24927100  0.25003500  1
  Li  Li1  1  0.99996800  0.24939700  0.75052300  1
  Li  Li2  1  0.00000000  0.00000000  0.00000000  1
  Li  Li3  1  0.00000000  0.00000000  0.50000000  1
  Li  Li4  1  0.00003200  0.75060300  0.24947700  1
  Li  Li5  1  0.00172100  0.75072900  0.74996500  1
  Li  Li6  1  0.00000000  0.50000000  0.00000000  1
  Li  Li7  1  0.00000000  0.50000000  0.50000000  1
  Cr  Cr0  1  0.50080400  0.12478700  0.87604000  1
  Cr  Cr1  1  0.49919600  0.87521300  0.12396000  1
  Fe  Fe0  1  0.50003000  0.12470200  0.37423500  1
  Fe  Fe1  1  0.49997000  0.87529800  0.62576500  1
  Fe  Fe2  1  0.50053700  0.62478300  0.87553800  1
  Fe  Fe3  1  0.49961100  0.62528700  0.37425200  1
  Fe  Fe4  1  0.49946300  0.37521700  0.12446200  1
  Fe  Fe5  1  0.50038900  0.37471300  0.62574800  1
  O  O0  1  0.27337400  0.06676400  0.18817700  1
  O  O1  1  0.27361300  0.06844900  0.69141800  1
  O  O2  1  0.72603100  0.18042200  0.06003400  1
  O  O3  1  0.72890400  0.18192100  0.56073700  1
  O  O4  1  0.27396900  0.81957800  0.93996600  1
  O  O5  1  0.72662600  0.93323600  0.81182300  1
  O  O6  1  0.27109600  0.81807900  0.43926300  1
  O  O7  1  0.72638700  0.93155100  0.30858200  1
  O  O8  1  0.27127400  0.56884200  0.18769300  1
  O  O9  1  0.72613400  0.68358400  0.06103100  1
  O  O10  1  0.27129200  0.56772900  0.68970500  1
  O  O11  1  0.72888400  0.68256200  0.56116500  1
  O  O12  1  0.27386600  0.31641600  0.93896900  1
  O  O13  1  0.72872600  0.43115800  0.81230700  1
  O  O14  1  0.27111600  0.31743800  0.43883500  1
  O  O15  1  0.72870800  0.43227100  0.31029500  1
loop_
_geom_bond_atom_site_label_1
_geom_bond_atom_site_label_2
_geom_bond_distance
_geom_bond_site_symmetry_2
Li0 O7 2.167343 1_545
Li0 O15 2.173623 1_555
Li0 O14 2.175978 1_655
Li0 O2 2.184419 1_555
Li0 O8 2.192918 1_655
Li0 O0 2.202281 1_655
Li1 O5 2.175565 1_545
Li1 O12 2.175602 1_655
Li1 O10 2.177720 1_655
Li1 O1 2.178343 1_655
Li1 O3 2.179922 1_555
Li1 O13 2.182096 1_555
Li2 O0 2.172187 1_555
Li2 O5 2.172187 1_444
Li2 O12 2.176722 1_554
Li2 O9 2.176722 1_445
Li2 O2 2.181379 1_455
Li2 O4 2.181379 1_544
Li3 O11 2.175009 1_445
Li3 O14 2.175009 1_555
Li3 O6 2.177799 1_545
Li3 O3 2.177799 1_455
Li3 O1 2.199169 1_555
Li3 O7 2.199169 1_445
Li4 O0 2.175565 1_565
Li4 O9 2.175602 1_455
Li4 O15 2.177720 1_455
Li4 O7 2.178343 1_455
Li4 O6 2.179922 1_555
Li4 O8 2.182096 1_555
Li5 O1 2.167343 1_565
Li5 O10 2.173623 1_555
Li5 O11 2.175978 1_455
Li5 O4 2.184419 1_555
Li5 O13 2.192918 1_455
Li5 O5 2.202281 1_455
Li6 O13 2.163312 1_454
Li6 O8 2.163312 1_555
Li6 O2 2.185756 1_455
Li6 O4 2.185756 1_554
Li6 O9 2.197912 1_455
Li6 O12 2.197912 1_554
Li7 O6 2.175827 1_555
Li7 O3 2.175827 1_455
Li7 O10 2.179783 1_555
Li7 O15 2.179783 1_455
Li7 O14 2.182268 1_555
Li7 O11 2.182268 1_455
Cr0 O2 2.033524 1_556
Cr0 O12 2.040181 1_555
Cr0 O4 2.040618 1_545
Cr0 O5 2.040814 1_545
Cr0 O1 2.042787 1_555
Cr0 O13 2.046935 1_555
Cr1 O4 2.033524 1_554
Cr1 O9 2.040181 1_555
Cr1 O2 2.040618 1_565
Cr1 O0 2.040814 1_565
Cr1 O7 2.042787 1_555
Cr1 O8 2.046935 1_555
Fe0 O0 2.054221 1_555
Fe0 O15 2.054494 1_555
Fe0 O6 2.055624 1_545
Fe0 O7 2.056245 1_545
Fe0 O14 2.060364 1_555
Fe0 O3 2.062358 1_555
Fe1 O5 2.054221 1_555
Fe1 O10 2.054494 1_555
Fe1 O3 2.055624 1_565
Fe1 O1 2.056245 1_565
Fe1 O11 2.060364 1_555
Fe1 O6 2.062358 1_555
Fe2 O9 2.047304 1_556
Fe2 O12 2.051896 1_555
Fe2 O5 2.052375 1_555
Fe2 O13 2.055323 1_555
Fe2 O10 2.057286 1_555
Fe2 O4 2.058909 1_555
Fe3 O7 2.052683 1_555
Fe3 O14 2.058132 1_555
Fe3 O15 2.059546 1_555
Fe3 O6 2.060753 1_555
Fe3 O8 2.061814 1_555
Fe3 O11 2.066698 1_555
Fe4 O12 2.047304 1_554
Fe4 O9 2.051896 1_555
Fe4 O0 2.052375 1_555
Fe4 O8 2.055323 1_555
Fe4 O15 2.057286 1_555
Fe4 O2 2.058909 1_555
Fe5 O1 2.052683 1_555
Fe5 O11 2.058132 1_555
Fe5 O10 2.059546 1_555
Fe5 O3 2.060753 1_555
Fe5 O13 2.061814 1_555
Fe5 O14 2.066698 1_555
