# generated using pymatgen
data_Li5Fe3Cu2(PO4)6
_symmetry_space_group_name_H-M   'P 1'
_cell_length_a   8.32605100
_cell_length_b   8.52001360
_cell_length_c   8.75337312
_cell_angle_alpha   61.59745196
_cell_angle_beta   62.17418172
_cell_angle_gamma   62.56329820
_symmetry_Int_Tables_number   1
_chemical_formula_structural   Li5Fe3Cu2(PO4)6
_chemical_formula_sum   'Li5 Fe3 Cu2 P6 O24'
_cell_volume   459.73581385
_cell_formula_units_Z   1
loop_
 _symmetry_equiv_pos_site_id
 _symmetry_equiv_pos_as_xyz
  1  'x, y, z'
loop_
 _atom_site_type_symbol
 _atom_site_label
 _atom_site_symmetry_multiplicity
 _atom_site_fract_x
 _atom_site_fract_y
 _atom_site_fract_z
 _atom_site_occupancy
  Li  Li0  1  0.75247300  0.14250200  0.35380200  1
  Li  Li1  1  0.20047100  0.85362700  0.67351900  1
  Li  Li2  1  0.66110800  0.19162200  0.85391500  1
  Li  Li3  1  0.85444800  0.66410100  0.18682000  1
  Li  Li4  1  0.84732400  0.84181900  0.84025600  1
  Fe  Fe0  1  0.14792600  0.14263700  0.14230200  1
  Fe  Fe1  1  0.35301600  0.36030800  0.35233400  1
  Fe  Fe2  1  0.64877400  0.64851900  0.65664300  1
  Cu  Cu0  1  0.00271000  0.00025500  0.99368800  1
  Cu  Cu1  1  0.49207000  0.50226400  0.50374200  1
  P  P0  1  0.75382500  0.44902500  0.05026400  1
  P  P1  1  0.06362400  0.74879900  0.45889900  1
  P  P2  1  0.44260700  0.05158700  0.75633200  1
  P  P3  1  0.25393700  0.54597100  0.96022700  1
  P  P4  1  0.55519800  0.96180200  0.25627200  1
  P  P5  1  0.94145400  0.25384200  0.53359000  1
  O  O0  1  0.10332100  0.33402300  0.46383700  1
  O  O1  1  0.33481900  0.49407700  0.10822900  1
  O  O2  1  0.06158600  0.90917000  0.27107800  1
  O  O3  1  0.52826300  0.10446500  0.33189000  1
  O  O4  1  0.04259300  0.80843600  0.60560100  1
  O  O5  1  0.26172200  0.58906700  0.42909300  1
  O  O6  1  0.24208000  0.06302400  0.91122400  1
  O  O7  1  0.43235300  0.24119300  0.59082200  1
  O  O8  1  0.18715500  0.38604400  0.99941400  1
  O  O9  1  0.60052100  0.41729200  0.24526500  1
  O  O10  1  0.09217200  0.73772300  0.95313500  1
  O  O11  1  0.38716200  0.01876500  0.19260200  1
  O  O12  1  0.59340900  0.02184100  0.82644400  1
  O  O13  1  0.90461000  0.24442400  0.07292800  1
  O  O14  1  0.40238900  0.57689500  0.76205200  1
  O  O15  1  0.82036300  0.60081400  0.02206200  1
  O  O16  1  0.57460100  0.75968100  0.40303500  1
  O  O17  1  0.74694800  0.95089400  0.09266000  1
  O  O18  1  0.73714200  0.40831300  0.57073400  1
  O  O19  1  0.95606300  0.19471600  0.38493100  1
  O  O20  1  0.48591600  0.89089200  0.69290700  1
  O  O21  1  0.94412000  0.09806300  0.72035000  1
  O  O22  1  0.69252800  0.48949900  0.89060000  1
  O  O23  1  0.89720200  0.67900900  0.50950300  1
loop_
_geom_bond_atom_site_label_1
_geom_bond_atom_site_label_2
_geom_bond_distance
_geom_bond_site_symmetry_2
Li0 O9 2.064227 1_555
Li0 O19 2.094507 1_555
Li0 O13 2.116240 1_555
Li0 O3 2.139535 1_555
Li0 O2 2.452537 1_645
Li0 O7 2.558779 1_555
Li1 O4 1.908754 1_555
Li1 O10 2.059060 1_555
Li1 O14 2.193450 1_555
Li1 O21 2.227087 1_465
Li2 O12 1.917509 1_555
Li2 O21 2.034334 1_555
Li2 O17 2.247381 1_546
Li2 O18 2.283005 1_555
Li3 O15 1.927197 1_555
Li3 O17 2.051435 1_555
Li3 O10 2.153838 1_654
Li3 O16 2.296716 1_555
Li4 O15 1.944701 1_556
Li4 O12 1.977529 1_565
Li4 O4 1.988769 1_655
Li4 O21 2.273621 1_565
Li4 O10 2.302059 1_655
Li4 O17 2.440746 1_556
Fe0 O11 1.927370 1_555
Fe0 O8 1.935734 1_554
Fe0 O2 2.042612 1_545
Fe0 O13 2.062383 1_455
Fe0 O19 2.082148 1_455
Fe0 O6 2.121530 1_554
Fe1 O0 1.910938 1_555
Fe1 O1 1.927156 1_555
Fe1 O9 2.011665 1_555
Fe1 O3 2.027026 1_555
Fe1 O5 2.057113 1_555
Fe1 O7 2.116215 1_555
Fe2 O23 1.922109 1_555
Fe2 O22 1.940197 1_555
Fe2 O20 1.960890 1_555
Fe2 O14 2.069527 1_555
Fe2 O18 2.203446 1_555
Fe2 O16 2.224225 1_555
Cu0 O6 2.012720 1_555
Cu0 O17 2.053902 1_446
Cu0 O10 2.158041 1_545
Cu0 O13 2.180355 1_456
Cu0 O21 2.339939 1_455
Cu0 O2 2.388772 1_546
Cu1 O5 2.013788 1_555
Cu1 O18 2.076902 1_555
Cu1 O7 2.197332 1_555
Cu1 O16 2.245761 1_555
Cu1 O14 2.329893 1_555
Cu1 O9 2.346731 1_555
O0 P5 1.529456 1_455
O1 P3 1.523986 1_554
O2 P1 1.561351 1_555
O3 P4 1.530179 1_545
O4 P1 1.505541 1_555
O5 P1 1.583701 1_555
O6 P2 1.580433 1_555
O7 P2 1.574094 1_555
O8 P3 1.535886 1_555
O9 P0 1.568722 1_555
O10 P3 1.562300 1_555
O11 P4 1.532470 1_545
O12 P2 1.515106 1_555
O13 P0 1.594051 1_555
O14 P3 1.571611 1_555
O15 P0 1.506382 1_555
O16 P4 1.573142 1_555
O17 P4 1.569681 1_555
O18 P5 1.599742 1_555
O19 P5 1.543127 1_555
O20 P2 1.547261 1_565
O21 P5 1.541802 1_555
O22 P0 1.542041 1_556
O23 P1 1.550956 1_655
