# generated using pymatgen
data_NaPH4SO8
_symmetry_space_group_name_H-M   'P 1'
_cell_length_a   6.84533300
_cell_length_b   5.47281100
_cell_length_c   8.82088000
_cell_angle_alpha   84.57791531
_cell_angle_beta   90.00000000
_cell_angle_gamma   90.00000000
_symmetry_Int_Tables_number   1
_chemical_formula_structural   NaPH4SO8
_chemical_formula_sum   'Na2 P2 H8 S2 O16'
_cell_volume   328.97991470
_cell_formula_units_Z   2
loop_
 _symmetry_equiv_pos_site_id
 _symmetry_equiv_pos_as_xyz
  1  'x, y, z'
loop_
 _atom_site_type_symbol
 _atom_site_label
 _atom_site_symmetry_multiplicity
 _atom_site_fract_x
 _atom_site_fract_y
 _atom_site_fract_z
 _atom_site_occupancy
  Na  Na0  1  0.86041600  0.98696700  0.44572700  1
  Na  Na1  1  0.36041600  0.01303300  0.55427300  1
  P  P0  1  0.11954900  0.88153400  0.87832300  1
  P  P1  1  0.61954900  0.11846600  0.12167700  1
  H  H0  1  0.50387300  0.91302300  0.93147800  1
  H  H1  1  0.41983400  0.84596500  0.24916100  1
  H  H2  1  0.91402300  0.57177900  0.86118800  1
  H  H3  1  0.38987300  0.54830900  0.77809000  1
  H  H4  1  0.88987300  0.45169100  0.22191000  1
  H  H5  1  0.41402300  0.42822100  0.13881200  1
  H  H6  1  0.91983400  0.15403500  0.75083900  1
  H  H7  1  0.00387300  0.08697700  0.06852200  1
  S  S0  1  0.13604000  0.54137800  0.36135400  1
  S  S1  1  0.63604000  0.45862200  0.63864600  1
  O  O0  1  0.62806100  0.94817900  0.98978800  1
  O  O1  1  0.51207200  0.98610100  0.26568900  1
  O  O2  1  0.32731600  0.82444900  0.83185900  1
  O  O3  1  0.63403400  0.71535900  0.57767300  1
  O  O4  1  0.00360000  0.64502900  0.93561500  1
  O  O5  1  0.13929200  0.72028800  0.47447300  1
  O  O6  1  0.93438600  0.59678600  0.27721600  1
  O  O7  1  0.29450900  0.59537200  0.24724900  1
  O  O8  1  0.79450900  0.40462800  0.75275100  1
  O  O9  1  0.43438600  0.40321400  0.72278400  1
  O  O10  1  0.63929200  0.27971200  0.52552700  1
  O  O11  1  0.50360000  0.35497100  0.06438500  1
  O  O12  1  0.13403400  0.28464100  0.42232700  1
  O  O13  1  0.82731600  0.17555100  0.16814100  1
  O  O14  1  0.01207200  0.01389900  0.73431100  1
  O  O15  1  0.12806100  0.05182100  0.01021200  1
loop_
_geom_bond_atom_site_label_1
_geom_bond_atom_site_label_2
_geom_bond_distance
_geom_bond_site_symmetry_2
Na0 O10 2.359374 1_565
Na0 O3 2.374588 1_555
Na0 O5 2.401818 1_655
Na0 O12 2.478148 1_665
Na0 O13 2.575726 1_565
Na0 O6 2.761439 1_555
Na0 O14 2.765910 1_665
Na0 O1 2.865218 1_555
Na1 O5 2.359374 1_545
Na1 O12 2.374588 1_555
Na1 O10 2.401818 1_555
Na1 O3 2.478148 1_545
Na1 O2 2.575726 1_545
Na1 O9 2.761439 1_555
Na1 O1 2.765910 1_545
Na1 O14 2.865218 1_555
H0 O0 1.021252 1_555
H0 O2 1.596351 1_555
H1 O1 1.014517 1_555
H1 O7 1.619106 1_555
H2 O4 1.008686 1_655
H2 O8 1.608233 1_555
H3 O9 1.017158 1_555
H3 O2 1.681576 1_555
H4 O6 1.017158 1_555
H4 O13 1.681576 1_555
H5 O11 1.008686 1_555
H5 O7 1.608233 1_555
H6 O14 1.014517 1_655
H6 O8 1.619106 1_555
H7 O15 1.021252 1_555
H7 O13 1.596351 1_455
O0 P1 1.558931 1_566
O1 P1 1.582982 1_565
O2 P0 1.520701 1_555
O3 S1 1.456321 1_555
O4 P0 1.561117 1_555
O5 S0 1.462693 1_555
O6 S0 1.582944 1_655
O7 S0 1.490268 1_555
O8 S1 1.490268 1_555
O9 S1 1.582944 1_555
O10 S1 1.462693 1_555
O11 P1 1.561117 1_555
O12 S0 1.456321 1_555
O13 P1 1.520701 1_555
O14 P0 1.582982 1_545
O15 P0 1.558931 1_544
