# generated using pymatgen
data_Ba2LiVP2O9
_symmetry_space_group_name_H-M   'P 1'
_cell_length_a   9.52554571
_cell_length_b   9.52554571
_cell_length_c   9.76514051
_cell_angle_alpha   70.93426475
_cell_angle_beta   70.93426475
_cell_angle_gamma   32.89344204
_symmetry_Int_Tables_number   1
_chemical_formula_structural   Ba2LiVP2O9
_chemical_formula_sum   'Ba4 Li2 V2 P4 O18'
_cell_volume   452.42513667
_cell_formula_units_Z   2
loop_
 _symmetry_equiv_pos_site_id
 _symmetry_equiv_pos_as_xyz
  1  'x, y, z'
loop_
 _atom_site_type_symbol
 _atom_site_label
 _atom_site_symmetry_multiplicity
 _atom_site_fract_x
 _atom_site_fract_y
 _atom_site_fract_z
 _atom_site_occupancy
  Ba  Ba0  1  0.70868700  0.69133700  0.42187300  1
  Ba  Ba1  1  0.69133700  0.70868700  0.92187300  1
  Ba  Ba2  1  0.37551500  0.35802900  0.58563100  1
  Ba  Ba3  1  0.35802900  0.37551500  0.08563100  1
  Li  Li0  1  0.59977400  0.48425300  0.31155300  1
  Li  Li1  1  0.48425300  0.59977400  0.81155300  1
  V  V0  1  0.97576000  0.08829600  0.99937200  1
  V  V1  1  0.08829600  0.97576000  0.49937200  1
  P  P0  1  0.92915600  0.87319000  0.32594900  1
  P  P1  1  0.87319000  0.92915600  0.82594900  1
  P  P2  1  0.19462700  0.12959500  0.67510300  1
  P  P3  1  0.12959500  0.19462700  0.17510300  1
  O  O0  1  0.96655600  0.21206000  0.30837800  1
  O  O1  1  0.97348100  0.41386500  0.70161700  1
  O  O2  1  0.97423400  0.47289200  0.15075300  1
  O  O3  1  0.63575700  0.42906600  0.98399300  1
  O  O4  1  0.92820500  0.92551700  0.46241700  1
  O  O5  1  0.92551700  0.92820500  0.96241700  1
  O  O6  1  0.87154800  0.07646000  0.69196600  1
  O  O7  1  0.42906600  0.63575700  0.48399300  1
  O  O8  1  0.64457500  0.08298600  0.30590900  1
  O  O9  1  0.59051600  0.09203200  0.85247400  1
  O  O10  1  0.47289200  0.97423400  0.65075300  1
  O  O11  1  0.41386500  0.97348100  0.20161700  1
  O  O12  1  0.21206000  0.96655600  0.80837800  1
  O  O13  1  0.15248900  0.12274900  0.53730800  1
  O  O14  1  0.12274900  0.15248900  0.03730800  1
  O  O15  1  0.09203200  0.59051600  0.35247400  1
  O  O16  1  0.08298600  0.64457500  0.80590900  1
  O  O17  1  0.07646000  0.87154800  0.19196600  1
loop_
_geom_bond_atom_site_label_1
_geom_bond_atom_site_label_2
_geom_bond_distance
_geom_bond_site_symmetry_2
Ba0 O11 2.688939 1_555
Ba0 O15 2.763102 1_655
Ba0 O10 2.791515 1_555
Ba0 O2 2.849961 1_555
Ba0 O13 2.964648 1_565
Ba0 O7 2.974142 1_555
Ba0 O13 3.024831 1_655
Ba0 O1 3.065783 1_555
Ba0 O8 3.072277 1_565
Ba1 O1 2.688939 1_555
Ba1 O9 2.763102 1_565
Ba1 O2 2.791515 1_556
Ba1 O10 2.849961 1_555
Ba1 O14 2.964648 1_656
Ba1 O3 2.974142 1_555
Ba1 O14 3.024831 1_566
Ba1 O11 3.065783 1_556
Ba1 O16 3.072277 1_655
Ba2 O16 2.643641 1_555
Ba2 O10 2.793166 1_545
Ba2 O9 2.804075 1_555
Ba2 O15 2.838980 1_555
Ba2 O7 2.909320 1_555
Ba2 O4 2.968656 1_545
Ba2 O4 3.040302 1_455
Ba2 O8 3.117558 1_555
Ba2 O1 3.220366 1_455
Ba2 O6 3.271213 1_555
Ba3 O8 2.643641 1_555
Ba3 O2 2.793166 1_455
Ba3 O15 2.804075 1_555
Ba3 O9 2.838980 1_554
Ba3 O3 2.909320 1_554
Ba3 O5 2.968656 1_454
Ba3 O5 3.040302 1_544
Ba3 O16 3.117558 1_554
Ba3 O11 3.220366 1_545
Ba3 O17 3.271213 1_555
Li0 O7 1.849373 1_555
Li0 O0 1.923297 1_555
Li1 O3 1.849373 1_555
Li1 O12 1.923297 1_555
O0 P3 1.587733 1_655
O0 V1 2.043681 1_645
O1 P2 1.535983 1_655
O2 P3 1.582094 1_655
O3 V0 1.841932 1_555
O4 P0 1.562981 1_555
O4 V1 2.093506 1_655
O5 P1 1.562981 1_555
O5 V0 2.093506 1_565
O6 P1 1.567815 1_545
O6 V1 2.008934 1_645
O7 V1 1.841932 1_555
O8 P0 1.540720 1_545
O9 P1 1.586086 1_545
O10 P2 1.582094 1_565
O11 P3 1.535983 1_565
O12 P2 1.587733 1_565
O12 V0 2.043681 1_465
O13 P2 1.558880 1_555
O13 V1 2.096711 1_545
O14 P3 1.558880 1_555
O14 V0 2.096711 1_454
O15 P0 1.586086 1_455
O16 P1 1.540720 1_455
O17 P0 1.567815 1_455
O17 V0 2.008934 1_464
