# generated using pymatgen
data_KLiTi2(PO5)2
_symmetry_space_group_name_H-M   'P 1'
_cell_length_a   6.50864000
_cell_length_b   10.61612600
_cell_length_c   12.83558900
_cell_angle_alpha   90.00000000
_cell_angle_beta   90.00000000
_cell_angle_gamma   90.00000000
_symmetry_Int_Tables_number   1
_chemical_formula_structural   KLiTi2(PO5)2
_chemical_formula_sum   'K4 Li4 Ti8 P8 O40'
_cell_volume   886.89481865
_cell_formula_units_Z   4
loop_
 _symmetry_equiv_pos_site_id
 _symmetry_equiv_pos_as_xyz
  1  'x, y, z'
loop_
 _atom_site_type_symbol
 _atom_site_label
 _atom_site_symmetry_multiplicity
 _atom_site_fract_x
 _atom_site_fract_y
 _atom_site_fract_z
 _atom_site_occupancy
  K  K0  1  0.63571200  0.09971300  0.09128000  1
  K  K1  1  0.13571200  0.59971300  0.40872000  1
  K  K2  1  0.86428800  0.09971300  0.59128000  1
  K  K3  1  0.36428800  0.59971300  0.90872000  1
  Li  Li0  1  0.06988700  0.99390100  0.10634700  1
  Li  Li1  1  0.56988700  0.49390100  0.39365300  1
  Li  Li2  1  0.43011300  0.99390100  0.60634700  1
  Li  Li3  1  0.93011300  0.49390100  0.89365300  1
  Ti  Ti0  1  0.99829500  0.51291800  0.13367900  1
  Ti  Ti1  1  0.74693600  0.76394700  0.24756800  1
  Ti  Ti2  1  0.24693600  0.26394700  0.25243200  1
  Ti  Ti3  1  0.49829500  0.01291800  0.36632100  1
  Ti  Ti4  1  0.50170500  0.51291800  0.63367900  1
  Ti  Ti5  1  0.75306400  0.76394700  0.74756800  1
  Ti  Ti6  1  0.25306400  0.26394700  0.75243200  1
  Ti  Ti7  1  0.00170500  0.01291800  0.86632100  1
  P  P0  1  0.84258200  0.76116500  0.99877300  1
  P  P1  1  0.50130000  0.51226600  0.18343600  1
  P  P2  1  0.00130000  0.01226600  0.31656400  1
  P  P3  1  0.34258200  0.26116500  0.50122700  1
  P  P4  1  0.65741800  0.76116500  0.49877300  1
  P  P5  1  0.99870000  0.51226600  0.68343600  1
  P  P6  1  0.49870000  0.01226600  0.81656400  1
  P  P7  1  0.15741800  0.26116500  0.00122700  1
  O  O0  1  0.97529400  0.63896300  0.00238600  1
  O  O1  1  0.02369600  0.38191300  0.00632900  1
  O  O2  1  0.30050900  0.24875700  0.09775500  1
  O  O3  1  0.70307400  0.77392600  0.09667000  1
  O  O4  1  0.69021300  0.48616700  0.11438300  1
  O  O5  1  0.31183500  0.54009300  0.11577900  1
  O  O6  1  0.04562800  0.38740100  0.22598600  1
  O  O7  1  0.95836500  0.64003400  0.22436300  1
  O  O8  1  0.04437300  0.12242300  0.23772600  1
  O  O9  1  0.96164100  0.90043200  0.23906600  1
  O  O10  1  0.46164100  0.40043200  0.26093400  1
  O  O11  1  0.54437300  0.62242300  0.26227400  1
  O  O12  1  0.45836500  0.14003400  0.27563700  1
  O  O13  1  0.54562800  0.88740100  0.27401400  1
  O  O14  1  0.81183500  0.04009300  0.38422100  1
  O  O15  1  0.19021300  0.98616700  0.38561700  1
  O  O16  1  0.20307400  0.27392600  0.40333000  1
  O  O17  1  0.80050900  0.74875700  0.40224500  1
  O  O18  1  0.52369600  0.88191300  0.49367100  1
  O  O19  1  0.47529400  0.13896300  0.49761400  1
  O  O20  1  0.52470600  0.63896300  0.50238600  1
  O  O21  1  0.47630400  0.38191300  0.50632900  1
  O  O22  1  0.19949100  0.24875700  0.59775500  1
  O  O23  1  0.79692600  0.77392600  0.59667000  1
  O  O24  1  0.80978700  0.48616700  0.61438300  1
  O  O25  1  0.18816500  0.54009300  0.61577900  1
  O  O26  1  0.45437200  0.38740100  0.72598600  1
  O  O27  1  0.54163500  0.64003400  0.72436300  1
  O  O28  1  0.45562700  0.12242300  0.73772600  1
  O  O29  1  0.53835900  0.90043200  0.73906600  1
  O  O30  1  0.03835900  0.40043200  0.76093400  1
  O  O31  1  0.95562700  0.62242300  0.76227400  1
  O  O32  1  0.04163500  0.14003400  0.77563700  1
  O  O33  1  0.95437200  0.88740100  0.77401400  1
  O  O34  1  0.68816500  0.04009300  0.88422100  1
  O  O35  1  0.30978700  0.98616700  0.88561700  1
  O  O36  1  0.29692600  0.27392600  0.90333000  1
  O  O37  1  0.69949100  0.74875700  0.90224500  1
  O  O38  1  0.97630400  0.88191300  0.99367100  1
  O  O39  1  0.02470600  0.13896300  0.99761400  1
loop_
_geom_bond_atom_site_label_1
_geom_bond_atom_site_label_2
_geom_bond_distance
_geom_bond_site_symmetry_2
K0 O12 2.667420 1_555
K0 O2 2.696362 1_555
K0 O34 2.753299 1_554
K0 O39 2.833579 1_654
K1 O7 2.667420 1_455
K1 O17 2.696362 1_455
K1 O25 2.753299 1_555
K1 O20 2.833579 1_555
K2 O32 2.667420 1_655
K2 O22 2.696362 1_655
K2 O14 2.753299 1_555
K2 O19 2.833579 1_555
K3 O27 2.667420 1_555
K3 O37 2.696362 1_555
K3 O5 2.753299 1_556
K3 O0 2.833579 1_456
Li0 O38 1.968784 1_454
Li0 O9 2.093559 1_455
Li0 O39 2.099026 1_564
Li0 O8 2.175518 1_565
Li1 O21 1.968784 1_555
Li1 O10 2.093559 1_555
Li1 O20 2.099026 1_555
Li1 O11 2.175518 1_555
Li2 O18 1.968784 1_555
Li2 O29 2.093559 1_555
Li2 O19 2.099026 1_565
Li2 O28 2.175518 1_565
Li3 O1 1.968784 1_656
Li3 O30 2.093559 1_655
Li3 O0 2.099026 1_556
Li3 O31 2.175518 1_555
O0 P0 1.559255 1_554
O0 Ti0 2.157064 1_555
O1 P7 1.550807 1_555
O1 Ti0 2.152561 1_455
O2 P7 1.555580 1_555
O2 Ti2 2.022198 1_555
O3 P0 1.556209 1_554
O3 Ti1 1.960655 1_555
O4 P1 1.540842 1_555
O4 Ti0 2.040294 1_555
O5 P1 1.536913 1_555
O5 Ti0 2.073777 1_455
O6 Ti0 1.809492 1_455
O6 Ti2 1.884049 1_555
O7 Ti0 1.800970 1_555
O7 Ti1 1.926885 1_555
O8 P2 1.571685 1_555
O8 Ti2 2.007772 1_555
O9 P2 1.570245 1_665
O9 Ti1 2.015980 1_555
O10 P1 1.570245 1_555
O10 Ti2 2.015980 1_555
O11 P1 1.571685 1_555
O11 Ti1 2.007772 1_555
O12 Ti3 1.800970 1_555
O12 Ti2 1.926885 1_555
O13 Ti3 1.809492 1_565
O13 Ti1 1.884049 1_555
O14 P2 1.536913 1_655
O14 Ti3 2.073777 1_555
O15 P2 1.540842 1_565
O15 Ti3 2.040294 1_565
O16 P3 1.556209 1_555
O16 Ti2 1.960655 1_555
O17 P4 1.555580 1_555
O17 Ti1 2.022198 1_555
O18 P4 1.550807 1_555
O18 Ti3 2.152561 1_565
O19 P3 1.559255 1_555
O19 Ti3 2.157064 1_555
O20 P4 1.559255 1_555
O20 Ti4 2.157064 1_555
O21 P3 1.550807 1_555
O21 Ti4 2.152561 1_555
O22 P3 1.555580 1_555
O22 Ti6 2.022198 1_555
O23 P4 1.556209 1_555
O23 Ti5 1.960655 1_555
O24 P5 1.540842 1_555
O24 Ti4 2.040294 1_555
O25 P5 1.536913 1_455
O25 Ti4 2.073777 1_555
O26 Ti4 1.809492 1_555
O26 Ti6 1.884049 1_555
O27 Ti4 1.800970 1_555
O27 Ti5 1.926885 1_555
O28 P6 1.571685 1_555
O28 Ti6 2.007772 1_555
O29 P6 1.570245 1_565
O29 Ti5 2.015980 1_555
O30 P5 1.570245 1_455
O30 Ti6 2.015980 1_555
O31 P5 1.571685 1_555
O31 Ti5 2.007772 1_555
O32 Ti7 1.800970 1_555
O32 Ti6 1.926885 1_555
O33 Ti7 1.809492 1_665
O33 Ti5 1.884049 1_555
O34 P6 1.536913 1_555
O34 Ti7 2.073777 1_655
O35 P6 1.540842 1_565
O35 Ti7 2.040294 1_565
O36 P7 1.556209 1_556
O36 Ti6 1.960655 1_555
O37 P0 1.555580 1_555
O37 Ti5 2.022198 1_555
O38 P0 1.550807 1_555
O38 Ti7 2.152561 1_665
O39 P7 1.559255 1_556
O39 Ti7 2.157064 1_555
