# generated using pymatgen
data_WOF3
_symmetry_space_group_name_H-M   'P 1'
_cell_length_a   9.28859970
_cell_length_b   9.28859970
_cell_length_c   3.79653573
_cell_angle_alpha   89.97491461
_cell_angle_beta   89.97491461
_cell_angle_gamma   90.20812376
_symmetry_Int_Tables_number   1
_chemical_formula_structural   WOF3
_chemical_formula_sum   'W4 O4 F12'
_cell_volume   327.55560583
_cell_formula_units_Z   4
loop_
 _symmetry_equiv_pos_site_id
 _symmetry_equiv_pos_as_xyz
  1  'x, y, z'
loop_
 _atom_site_type_symbol
 _atom_site_label
 _atom_site_symmetry_multiplicity
 _atom_site_fract_x
 _atom_site_fract_y
 _atom_site_fract_z
 _atom_site_occupancy
  W  W0  1  0.36731000  0.36731000  0.25859300  1
  W  W1  1  0.86855900  0.13095100  0.74119800  1
  W  W2  1  0.13095100  0.86855900  0.74119800  1
  W  W3  1  0.63121300  0.63121300  0.25861600  1
  O  O0  1  0.36992000  0.36992000  0.75864900  1
  O  O1  1  0.87487000  0.12499400  0.24154400  1
  O  O2  1  0.12499400  0.87487000  0.24154400  1
  O  O3  1  0.62474500  0.62474500  0.75827400  1
  F  F0  1  0.58929400  0.40771900  0.25774300  1
  F  F1  1  0.16823200  0.39023000  0.25932600  1
  F  F2  1  0.88161200  0.33281300  0.74101100  1
  F  F3  1  0.39023000  0.16823200  0.25932600  1
  F  F4  1  0.66697100  0.11855500  0.74155300  1
  F  F5  1  0.09140600  0.09140600  0.74190000  1
  F  F6  1  0.90892300  0.90892300  0.74271200  1
  F  F7  1  0.33281300  0.88161200  0.74101100  1
  F  F8  1  0.61969900  0.83215900  0.25812900  1
  F  F9  1  0.11855500  0.66697100  0.74155300  1
  F  F10  1  0.83215900  0.61969900  0.25812900  1
  F  F11  1  0.40771900  0.58929400  0.25774300  1
loop_
_geom_bond_atom_site_label_1
_geom_bond_atom_site_label_2
_geom_bond_distance
_geom_bond_site_symmetry_2
O0 W0 1.898343 1_556
O0 W0 1.898810 1_555
O1 W1 1.898671 1_555
O1 W1 1.901299 1_554
O2 W2 1.898671 1_555
O2 W2 1.901299 1_554
O3 W3 1.898812 1_555
O3 W3 1.901511 1_556
F0 W0 2.094464 1_555
F0 W3 2.110760 1_555
F1 W0 1.862140 1_555
F2 W1 1.878491 1_555
F3 W0 1.862140 1_555
F4 W1 1.875589 1_555
F5 W1 2.103591 1_455
F5 W2 2.103591 1_545
F6 W1 2.097478 1_565
F6 W2 2.097478 1_655
F7 W2 1.878491 1_555
F8 W3 1.869956 1_555
F9 W2 1.875589 1_555
F10 W3 1.869956 1_555
F11 W0 2.094464 1_555
F11 W3 2.110760 1_555
