# generated using pymatgen
data_Li3Mn5OF11
_symmetry_space_group_name_H-M   'P 1'
_cell_length_a   5.41302985
_cell_length_b   5.75387813
_cell_length_c   9.55952172
_cell_angle_alpha   86.09320343
_cell_angle_beta   74.45432146
_cell_angle_gamma   118.42310952
_symmetry_Int_Tables_number   1
_chemical_formula_structural   Li3Mn5OF11
_chemical_formula_sum   'Li3 Mn5 O1 F11'
_cell_volume   245.44893930
_cell_formula_units_Z   1
loop_
 _symmetry_equiv_pos_site_id
 _symmetry_equiv_pos_as_xyz
  1  'x, y, z'
loop_
 _atom_site_type_symbol
 _atom_site_label
 _atom_site_symmetry_multiplicity
 _atom_site_fract_x
 _atom_site_fract_y
 _atom_site_fract_z
 _atom_site_occupancy
  Li  Li0  1  0.13927100  0.85051000  0.57582300  1
  Li  Li1  1  0.84019100  0.12801500  0.44408100  1
  Li  Li2  1  0.85366100  0.62094400  0.92490100  1
  Mn  Mn0  1  0.12208900  0.36028000  0.06915400  1
  Mn  Mn1  1  0.38151700  0.91704400  0.17585300  1
  Mn  Mn2  1  0.35379600  0.37812800  0.67034200  1
  Mn  Mn3  1  0.64336000  0.61150600  0.32457900  1
  Mn  Mn4  1  0.66076600  0.11893200  0.82959000  1
  O  O0  1  0.74657100  0.22822300  0.01990900  1
  F  F0  1  0.06484100  0.53220300  0.71145700  1
  F  F1  1  0.04164500  0.02075100  0.22717500  1
  F  F2  1  0.44912900  0.87170400  0.38180100  1
  F  F3  1  0.53790700  0.61575600  0.12590100  1
  F  F4  1  0.24547100  0.27059900  0.47008900  1
  F  F5  1  0.23345500  0.78050400  0.97586600  1
  F  F6  1  0.75611000  0.72105300  0.52399900  1
  F  F7  1  0.45258700  0.39473600  0.86902300  1
  F  F8  1  0.56315200  0.13075000  0.62768800  1
  F  F9  1  0.95543400  0.47925600  0.28230500  1
  F  F10  1  0.95904800  0.96910600  0.77046400  1
loop_
_geom_bond_atom_site_label_1
_geom_bond_atom_site_label_2
_geom_bond_distance
_geom_bond_site_symmetry_2
Li2 O0 2.111444 1_556
Mn0 O0 2.005527 1_455
Mn1 O0 2.005525 1_565
Mn4 O0 2.062049 1_556
F0 Li0 1.972771 1_555
F0 Mn2 2.103538 1_555
F0 Mn4 2.252274 1_455
F0 Li2 2.275557 1_455
F1 Mn1 2.140691 1_545
F1 Mn0 2.173380 1_555
F1 Mn3 2.202793 1_445
F1 Li1 2.339363 1_455
F2 Li0 2.091698 1_555
F2 Mn1 2.117819 1_555
F2 Li1 2.198570 1_565
F2 Mn3 2.224375 1_555
F3 Mn3 2.126434 1_555
F3 Li2 2.190320 1_554
F3 Mn0 2.266009 1_555
F3 Mn1 2.289783 1_555
F4 Li1 2.038240 1_455
F4 Mn3 2.102829 1_555
F4 Mn2 2.192935 1_555
F4 Li0 2.286382 1_545
F5 Li2 2.026765 1_455
F5 Mn4 2.169080 1_565
F5 Mn0 2.243984 1_556
F5 Mn1 2.311065 1_556
F6 Li0 2.057269 1_655
F6 Mn2 2.119728 1_555
F6 Mn3 2.196627 1_555
F6 Li1 2.197555 1_565
F7 Mn2 2.103073 1_555
F7 Mn0 2.162425 1_556
F7 Li2 2.172357 1_555
F7 Mn4 2.342338 1_555
F8 Li1 1.986251 1_555
F8 Mn4 2.138227 1_555
F8 Mn2 2.200794 1_555
F8 Li0 2.303736 1_545
F9 Mn3 2.120296 1_555
F9 Li1 2.173034 1_555
F9 Mn0 2.286271 1_655
F9 Mn1 2.358450 1_655
F10 Mn4 2.138200 1_565
F10 Li2 2.139116 1_555
F10 Li0 2.171000 1_655
F10 Mn2 2.197790 1_665
