# generated using pymatgen
data_LiZn2Fe9O16
_symmetry_space_group_name_H-M   'P 1'
_cell_length_a   6.05239163
_cell_length_b   6.05239163
_cell_length_c   10.47543555
_cell_angle_alpha   72.91039446
_cell_angle_beta   72.91039446
_cell_angle_gamma   59.90173561
_symmetry_Int_Tables_number   1
_chemical_formula_structural   LiZn2Fe9O16
_chemical_formula_sum   'Li1 Zn2 Fe9 O16'
_cell_volume   312.31309655
_cell_formula_units_Z   1
loop_
 _symmetry_equiv_pos_site_id
 _symmetry_equiv_pos_as_xyz
  1  'x, y, z'
loop_
 _atom_site_type_symbol
 _atom_site_label
 _atom_site_symmetry_multiplicity
 _atom_site_fract_x
 _atom_site_fract_y
 _atom_site_fract_z
 _atom_site_occupancy
  Li  Li0  1  0.12436900  0.12436900  0.62430400  1
  Zn  Zn0  1  0.06407100  0.06407100  0.31408100  1
  Zn  Zn1  1  0.31159000  0.31159000  0.06274300  1
  Fe  Fe0  1  0.00047500  0.00047500  0.99619400  1
  Fe  Fe1  1  0.62826900  0.62826900  0.12933000  1
  Fe  Fe2  1  0.49663900  0.49663900  0.49883900  1
  Fe  Fe3  1  0.55637100  0.06651600  0.31336200  1
  Fe  Fe4  1  0.06651600  0.55637100  0.31336200  1
  Fe  Fe5  1  0.56475100  0.56475100  0.81062500  1
  Fe  Fe6  1  0.80887300  0.80887300  0.56922500  1
  Fe  Fe7  1  0.05871400  0.56496900  0.80946900  1
  Fe  Fe8  1  0.56496900  0.05871400  0.80946900  1
  O  O0  1  0.44108200  0.94950300  0.19127700  1
  O  O1  1  0.94950300  0.44108200  0.19127700  1
  O  O2  1  0.43165200  0.43165200  0.19480200  1
  O  O3  1  0.20010900  0.20010900  0.41682200  1
  O  O4  1  0.93223000  0.93223000  0.19474500  1
  O  O5  1  0.69682000  0.69682000  0.43513200  1
  O  O6  1  0.68802100  0.16717000  0.43852200  1
  O  O7  1  0.16717000  0.68802100  0.43852200  1
  O  O8  1  0.91702700  0.46550000  0.69688000  1
  O  O9  1  0.46550000  0.91702700  0.69688000  1
  O  O10  1  0.91808100  0.91808100  0.69368200  1
  O  O11  1  0.69209100  0.69209100  0.93002900  1
  O  O12  1  0.43231400  0.43231400  0.69775800  1
  O  O13  1  0.19755200  0.19755200  0.92890400  1
  O  O14  1  0.67636500  0.19887900  0.92688400  1
  O  O15  1  0.19887900  0.67636500  0.92688400  1
loop_
_geom_bond_atom_site_label_1
_geom_bond_atom_site_label_2
_geom_bond_distance
_geom_bond_site_symmetry_2
Li0 O10 2.035370 1_445
Li0 O9 2.044208 1_545
Li0 O8 2.044208 1_455
Li0 O3 2.045441 1_555
Fe0 O14 1.944028 1_455
Fe0 O15 1.944028 1_545
Fe0 O13 1.944480 1_555
Fe0 O4 1.956656 1_446
Fe1 O0 1.893378 1_555
Fe1 O1 1.893378 1_555
Fe1 O2 1.939985 1_555
Fe1 O11 1.964401 1_554
Fe2 O6 1.926396 1_555
Fe2 O7 1.926396 1_555
Fe2 O12 1.960518 1_555
Fe2 O5 1.975609 1_555
Fe3 O3 1.967399 1_555
Fe3 O0 2.043639 1_545
Fe3 O2 2.064188 1_555
Fe3 O6 2.072507 1_555
Fe3 O5 2.099629 1_545
Fe3 O4 2.111236 1_545
Fe4 O3 1.967399 1_555
Fe4 O1 2.043639 1_455
Fe4 O2 2.064188 1_555
Fe4 O7 2.072507 1_555
Fe4 O5 2.099629 1_455
Fe4 O4 2.111236 1_455
Fe5 O8 1.992353 1_555
Fe5 O9 1.992353 1_555
Fe5 O15 2.059436 1_555
Fe5 O14 2.059436 1_555
Fe5 O12 2.107443 1_555
Fe5 O11 2.116942 1_555
Fe6 O10 2.006146 1_555
Fe6 O8 2.013060 1_555
Fe6 O9 2.013060 1_555
Fe6 O6 2.089240 1_565
Fe6 O7 2.089240 1_655
Fe6 O5 2.115211 1_555
Fe7 O8 2.004594 1_455
Fe7 O10 2.005471 1_455
Fe7 O12 2.074395 1_555
Fe7 O11 2.079037 1_455
Fe7 O13 2.079674 1_555
Fe7 O15 2.088388 1_555
Fe8 O9 2.004594 1_545
Fe8 O10 2.005471 1_545
Fe8 O12 2.074395 1_555
Fe8 O11 2.079037 1_545
Fe8 O13 2.079674 1_555
Fe8 O14 2.088388 1_555
O0 Zn1 2.095978 1_565
O0 Zn0 2.134130 1_565
O1 Zn1 2.095978 1_655
O1 Zn0 2.134130 1_655
O2 Zn1 2.163572 1_555
O3 Zn0 2.058085 1_555
O4 Zn0 2.155776 1_665
O6 Zn0 2.139798 1_655
O7 Zn0 2.139798 1_565
O13 Zn1 2.129247 1_556
O14 Zn1 2.139717 1_556
O15 Zn1 2.139717 1_556
