# generated using pymatgen
data_Na2LiFePCO7
_symmetry_space_group_name_H-M   'P 1'
_cell_length_a   6.61533100
_cell_length_b   8.91014800
_cell_length_c   10.30112079
_cell_angle_alpha   88.38739231
_cell_angle_beta   90.00000000
_cell_angle_gamma   90.00000000
_symmetry_Int_Tables_number   1
_chemical_formula_structural   Na2LiFePCO7
_chemical_formula_sum   'Na8 Li4 Fe4 P4 C4 O28'
_cell_volume   606.94444223
_cell_formula_units_Z   4
loop_
 _symmetry_equiv_pos_site_id
 _symmetry_equiv_pos_as_xyz
  1  'x, y, z'
loop_
 _atom_site_type_symbol
 _atom_site_label
 _atom_site_symmetry_multiplicity
 _atom_site_fract_x
 _atom_site_fract_y
 _atom_site_fract_z
 _atom_site_occupancy
  Na  Na0  1  0.50117100  0.08335400  0.88016000  1
  Na  Na1  1  0.49882900  0.08335400  0.38016000  1
  Na  Na2  1  0.24940400  0.26172500  0.62652800  1
  Na  Na3  1  0.75059600  0.26172500  0.12652800  1
  Na  Na4  1  0.75218300  0.73901400  0.87412700  1
  Na  Na5  1  0.24935500  0.73795800  0.87467700  1
  Na  Na6  1  0.75064500  0.73795800  0.37467700  1
  Na  Na7  1  0.24781700  0.73901400  0.37412700  1
  Li  Li0  1  0.74054200  0.27333900  0.62259300  1
  Li  Li1  1  0.25945800  0.27333900  0.12259300  1
  Li  Li2  1  0.99210000  0.91575500  0.62554000  1
  Li  Li3  1  0.00790000  0.91575500  0.12554000  1
  Fe  Fe0  1  0.00221900  0.34894700  0.89180100  1
  Fe  Fe1  1  0.99778100  0.34894700  0.39180100  1
  Fe  Fe2  1  0.49893600  0.64837300  0.60950300  1
  Fe  Fe3  1  0.50106400  0.64837300  0.10950300  1
  P  P0  1  0.50527900  0.41126300  0.85295100  1
  P  P1  1  0.49472100  0.41126300  0.35295100  1
  P  P2  1  0.99407200  0.58709600  0.64999400  1
  P  P3  1  0.00592800  0.58709600  0.14999400  1
  C  C0  1  0.99810200  0.05325700  0.86089200  1
  C  C1  1  0.00189800  0.05325700  0.36089200  1
  C  C2  1  0.50844000  0.94678800  0.63438000  1
  C  C3  1  0.49156000  0.94678800  0.13438000  1
  O  O0  1  0.52679000  0.09098900  0.63976000  1
  O  O1  1  0.47321000  0.09098900  0.13976000  1
  O  O2  1  0.99998300  0.09447700  0.98115000  1
  O  O3  1  0.00001700  0.09447700  0.48115000  1
  O  O4  1  0.99423900  0.15441000  0.76625200  1
  O  O5  1  0.00576100  0.15441000  0.26625200  1
  O  O6  1  0.31582300  0.31576400  0.89316200  1
  O  O7  1  0.69179200  0.31653600  0.89797500  1
  O  O8  1  0.30820800  0.31653600  0.39797500  1
  O  O9  1  0.68417700  0.31576400  0.39316200  1
  O  O10  1  0.51407000  0.43075000  0.70150000  1
  O  O11  1  0.97883300  0.43364600  0.58439300  1
  O  O12  1  0.48593000  0.43075000  0.20150000  1
  O  O13  1  0.02116700  0.43364600  0.08439300  1
  O  O14  1  0.50105300  0.56533900  0.91654300  1
  O  O15  1  0.99861500  0.56184200  0.80006000  1
  O  O16  1  0.49894700  0.56533900  0.41654300  1
  O  O17  1  0.00138500  0.56184200  0.30006000  1
  O  O18  1  0.81209900  0.69252800  0.61301900  1
  O  O19  1  0.18497500  0.67965200  0.60741000  1
  O  O20  1  0.81502500  0.67965200  0.10741000  1
  O  O21  1  0.18790100  0.69252800  0.11301900  1
  O  O22  1  0.49794100  0.86335000  0.74064400  1
  O  O23  1  0.50205900  0.86335000  0.24064400  1
  O  O24  1  0.49919500  0.88098200  0.52323100  1
  O  O25  1  0.50080500  0.88098200  0.02323100  1
  O  O26  1  0.00059700  0.91286400  0.83175500  1
  O  O27  1  0.99940300  0.91286400  0.33175500  1
loop_
_geom_bond_atom_site_label_1
_geom_bond_atom_site_label_2
_geom_bond_distance
_geom_bond_site_symmetry_2
Na0 O25 2.296497 1_546
Na0 O6 2.413547 1_555
Na0 O7 2.441739 1_555
Na0 O22 2.463155 1_545
Na0 O0 2.481204 1_555
Na0 O1 2.683332 1_556
Na1 O24 2.296497 1_545
Na1 O9 2.413547 1_555
Na1 O8 2.441739 1_555
Na1 O23 2.463155 1_545
Na1 O1 2.481204 1_555
Na1 O0 2.683332 1_555
Na2 O0 2.385044 1_555
Na2 O11 2.387741 1_455
Na2 O4 2.399545 1_455
Na2 O8 2.422415 1_555
Na2 O10 2.448579 1_555
Na2 O3 2.703841 1_555
Na2 O6 2.836071 1_555
Na3 O1 2.385044 1_555
Na3 O13 2.387741 1_655
Na3 O5 2.399545 1_655
Na3 O7 2.422415 1_554
Na3 O12 2.448579 1_555
Na3 O2 2.703841 1_554
Na3 O9 2.836071 1_555
Na4 O26 2.291838 1_655
Na4 O14 2.303793 1_555
Na4 O15 2.408243 1_555
Na4 O22 2.420963 1_555
Na4 O20 2.481093 1_556
Na4 O25 2.614186 1_556
Na4 O18 2.761500 1_555
Na5 O14 2.299289 1_555
Na5 O26 2.300759 1_555
Na5 O22 2.402512 1_555
Na5 O15 2.423329 1_455
Na5 O21 2.510209 1_556
Na5 O25 2.615814 1_556
Na5 O19 2.848090 1_555
Na6 O16 2.299289 1_555
Na6 O27 2.300759 1_555
Na6 O23 2.402512 1_555
Na6 O17 2.423329 1_655
Na6 O18 2.510209 1_555
Na6 O24 2.615814 1_555
Na6 O20 2.848090 1_555
Na7 O27 2.291838 1_455
Na7 O16 2.303793 1_555
Na7 O17 2.408243 1_555
Na7 O23 2.420963 1_555
Na7 O19 2.481093 1_555
Na7 O24 2.614186 1_555
Na7 O21 2.761500 1_555
Li0 O11 2.156009 1_555
Li0 O0 2.157423 1_555
Li0 O10 2.221843 1_555
Li0 O9 2.411905 1_555
Li0 O4 2.457897 1_555
Li1 O13 2.156009 1_555
Li1 O1 2.157423 1_555
Li1 O12 2.221843 1_555
Li1 O6 2.411905 1_554
Li1 O5 2.457897 1_555
Li2 O26 2.124421 1_655
Li2 O3 2.148858 1_665
Li2 O18 2.324879 1_555
Li2 O19 2.471963 1_655
Li2 O4 2.607010 1_565
Li3 O27 2.124421 1_455
Li3 O2 2.148858 1_464
Li3 O21 2.324879 1_555
Li3 O20 2.471963 1_455
Li3 O5 2.607010 1_565
Fe0 O7 2.074509 1_455
Fe0 O15 2.095493 1_455
Fe0 O6 2.095548 1_555
Fe0 O13 2.146028 1_556
Fe0 O4 2.192279 1_455
Fe0 O2 2.422981 1_455
Fe1 O8 2.074509 1_655
Fe1 O17 2.095493 1_655
Fe1 O9 2.095548 1_555
Fe1 O11 2.146028 1_555
Fe1 O5 2.192279 1_655
Fe1 O3 2.422981 1_655
Fe2 O19 2.095602 1_555
Fe2 O18 2.109205 1_555
Fe2 O10 2.136494 1_555
Fe2 O16 2.140353 1_555
Fe2 O24 2.231974 1_555
Fe2 O22 2.374798 1_555
Fe3 O20 2.095602 1_555
Fe3 O21 2.109205 1_555
Fe3 O12 2.136494 1_555
Fe3 O14 2.140353 1_554
Fe3 O25 2.231974 1_555
Fe3 O23 2.374798 1_555
C0 O26 1.294719 1_645
C0 O2 1.302022 1_555
C0 O4 1.309177 1_555
C1 O27 1.294719 1_445
C1 O3 1.302022 1_555
C1 O5 1.309177 1_555
C2 O0 1.293314 1_565
C2 O24 1.302403 1_555
C2 O22 1.307656 1_555
C3 O1 1.293314 1_565
C3 O25 1.302403 1_555
C3 O23 1.307656 1_555
O6 P0 1.564156 1_555
O7 P0 1.558152 1_555
O8 P1 1.558152 1_555
O9 P1 1.564156 1_555
O10 P0 1.565964 1_555
O11 P2 1.545389 1_555
O12 P1 1.565964 1_555
O13 P3 1.545389 1_555
O14 P0 1.537921 1_555
O15 P2 1.556150 1_555
O16 P1 1.537921 1_555
O17 P3 1.556150 1_555
O18 P2 1.567353 1_555
O19 P2 1.564307 1_455
O20 P3 1.564307 1_655
O21 P3 1.567353 1_555
