# generated using pymatgen
data_TiNbO4
_symmetry_space_group_name_H-M   'P 1'
_cell_length_a   5.66377320
_cell_length_b   5.66377320
_cell_length_c   7.40348729
_cell_angle_alpha   70.90166996
_cell_angle_beta   70.90166996
_cell_angle_gamma   73.73762234
_symmetry_Int_Tables_number   1
_chemical_formula_structural   TiNbO4
_chemical_formula_sum   'Ti3 Nb3 O12'
_cell_volume   208.04990459
_cell_formula_units_Z   3
loop_
 _symmetry_equiv_pos_site_id
 _symmetry_equiv_pos_as_xyz
  1  'x, y, z'
loop_
 _atom_site_type_symbol
 _atom_site_label
 _atom_site_symmetry_multiplicity
 _atom_site_fract_x
 _atom_site_fract_y
 _atom_site_fract_z
 _atom_site_occupancy
  Ti  Ti0  1  0.32795000  0.32795000  0.67113400  1
  Ti  Ti1  1  0.33732900  0.33732900  0.15864900  1
  Ti  Ti2  1  0.00846300  0.00846300  0.00217600  1
  Nb  Nb0  1  0.66418100  0.66418100  0.83495600  1
  Nb  Nb1  1  0.66178600  0.66178600  0.32807900  1
  Nb  Nb2  1  0.99791900  0.99791900  0.50548500  1
  O  O0  1  0.62772600  0.04206500  0.66475300  1
  O  O1  1  0.97260300  0.36739700  0.33019500  1
  O  O2  1  0.56624700  0.56624700  0.63063000  1
  O  O3  1  0.23229100  0.23229100  0.96444600  1
  O  O4  1  0.90006300  0.90006300  0.29826700  1
  O  O5  1  0.10080000  0.10080000  0.70690300  1
  O  O6  1  0.77245600  0.77245600  0.02950700  1
  O  O7  1  0.43032900  0.43032900  0.36940300  1
  O  O8  1  0.36739700  0.97260300  0.33019500  1
  O  O9  1  0.04206500  0.62772600  0.66475300  1
  O  O10  1  0.69601700  0.29437800  0.00523400  1
  O  O11  1  0.29437800  0.69601700  0.00523400  1
loop_
_geom_bond_atom_site_label_1
_geom_bond_atom_site_label_2
_geom_bond_distance
_geom_bond_site_symmetry_2
Nb0 O2 2.043068 1_555
Nb0 O6 2.047781 1_556
Nb0 O10 2.053777 1_556
Nb0 O11 2.053777 1_556
Nb0 O9 2.090235 1_655
Nb0 O0 2.090235 1_565
Nb1 O7 1.992038 1_555
Nb1 O6 2.019573 1_555
Nb1 O2 2.044652 1_555
Nb1 O8 2.058236 1_555
Nb1 O1 2.058236 1_555
Nb1 O4 2.078818 1_555
Nb2 O9 2.032360 1_655
Nb2 O0 2.032360 1_565
Nb2 O5 2.056719 1_665
Nb2 O4 2.062223 1_555
Nb2 O8 2.064089 1_655
Nb2 O1 2.064089 1_565
O0 Ti0 1.991125 1_555
O1 Ti1 2.033943 1_655
O2 Ti0 2.055145 1_555
O3 Ti2 1.931022 1_556
O3 Ti0 1.981729 1_555
O3 Ti1 2.023047 1_556
O4 Ti2 2.002229 1_665
O5 Ti0 1.965082 1_555
O5 Ti2 1.995685 1_556
O6 Ti2 2.064254 1_665
O7 Ti0 2.038543 1_555
O7 Ti1 2.054383 1_555
O8 Ti1 2.033943 1_565
O9 Ti0 1.991125 1_555
O10 Ti1 1.967339 1_555
O10 Ti2 2.036467 1_655
O11 Ti1 1.967339 1_555
O11 Ti2 2.036467 1_565
