# generated using pymatgen
data_LiFePO4
_symmetry_space_group_name_H-M   'P 1'
_cell_length_a   5.18527711
_cell_length_b   9.63045783
_cell_length_c   6.13163658
_cell_angle_alpha   89.97991379
_cell_angle_beta   90.10218915
_cell_angle_gamma   84.37060332
_symmetry_Int_Tables_number   1
_chemical_formula_structural   LiFePO4
_chemical_formula_sum   'Li4 Fe4 P4 O16'
_cell_volume   304.71580331
_cell_formula_units_Z   4
loop_
 _symmetry_equiv_pos_site_id
 _symmetry_equiv_pos_as_xyz
  1  'x, y, z'
loop_
 _atom_site_type_symbol
 _atom_site_label
 _atom_site_symmetry_multiplicity
 _atom_site_fract_x
 _atom_site_fract_y
 _atom_site_fract_z
 _atom_site_occupancy
  Li  Li0  1  0.15854600  0.92666300  0.63973600  1
  Li  Li1  1  0.34072800  0.57308700  0.14006300  1
  Li  Li2  1  0.65873900  0.42704900  0.86020600  1
  Li  Li3  1  0.84183000  0.07259800  0.35978900  1
  Fe  Fe0  1  0.29602900  0.16342400  0.11257900  1
  Fe  Fe1  1  0.70839700  0.83913400  0.88766500  1
  Fe  Fe2  1  0.20716400  0.33946000  0.61329000  1
  Fe  Fe3  1  0.79177600  0.66205600  0.38721500  1
  P  P0  1  0.25750500  0.63662800  0.64850600  1
  P  P1  1  0.24218300  0.86381700  0.14846600  1
  P  P2  1  0.75853500  0.13607100  0.85102900  1
  P  P3  1  0.74299300  0.36318100  0.35181500  1
  O  O0  1  0.00793200  0.74179000  0.66824000  1
  O  O1  1  0.50713900  0.24107800  0.83239600  1
  O  O2  1  0.49170600  0.75827900  0.16863900  1
  O  O3  1  0.99174800  0.25741800  0.33386300  1
  O  O4  1  0.00296600  0.77801000  0.13690600  1
  O  O5  1  0.50233300  0.27814800  0.36151000  1
  O  O6  1  0.49700200  0.72177700  0.63790200  1
  O  O7  1  0.99734400  0.22169500  0.86041600  1
  O  O8  1  0.21746200  0.55376000  0.43464800  1
  O  O9  1  0.28152800  0.94639000  0.93430500  1
  O  O10  1  0.72081300  0.05366800  0.06520500  1
  O  O11  1  0.78120800  0.44608600  0.56575900  1
  O  O12  1  0.28322700  0.52584900  0.83338700  1
  O  O13  1  0.21433300  0.97374100  0.33390500  1
  O  O14  1  0.78171400  0.02564600  0.66600300  1
  O  O15  1  0.71712200  0.47349600  0.16655600  1
loop_
_geom_bond_atom_site_label_1
_geom_bond_atom_site_label_2
_geom_bond_distance
_geom_bond_site_symmetry_2
Li0 O9 1.930018 1_555
Li0 O13 1.957765 1_555
Li0 O0 2.020741 1_555
Li0 O14 2.094867 1_465
Li0 O6 2.508811 1_555
Li1 O8 1.932118 1_555
Li1 O12 1.963941 1_554
Li1 O2 2.024362 1_555
Li1 O15 2.094506 1_555
Li1 O4 2.506832 1_555
Li2 O11 1.929560 1_555
Li2 O15 1.960955 1_556
Li2 O1 2.032384 1_555
Li2 O12 2.087817 1_555
Li2 O7 2.512485 1_555
Li3 O10 1.925691 1_555
Li3 O14 1.963702 1_555
Li3 O3 2.017253 1_555
Li3 O13 2.074322 1_645
Li3 O5 2.516758 1_555
Fe0 O1 2.208037 1_554
Fe0 O3 2.208639 1_455
Fe0 O5 2.218563 1_555
Fe0 O7 2.219138 1_454
Fe0 O13 2.347388 1_545
Fe0 O10 2.366203 1_555
Fe0 O9 2.366719 1_544
Fe1 O0 2.196375 1_655
Fe1 O4 2.197667 1_656
Fe1 O2 2.239323 1_556
Fe1 O6 2.250003 1_555
Fe1 O14 2.313491 1_565
Fe1 O10 2.342060 1_566
Fe1 O9 2.366839 1_555
Fe2 O1 2.196493 1_555
Fe2 O5 2.215025 1_555
Fe2 O3 2.230414 1_455
Fe2 O7 2.238926 1_455
Fe2 O12 2.310328 1_555
Fe2 O8 2.341415 1_555
Fe2 O11 2.360142 1_455
Fe3 O2 2.187400 1_555
Fe3 O6 2.205976 1_555
Fe3 O0 2.231143 1_655
Fe3 O4 2.246446 1_655
Fe3 O15 2.327184 1_555
Fe3 O11 2.355512 1_555
Fe3 O8 2.364391 1_655
O0 P0 1.567976 1_555
O1 P2 1.573448 1_555
O2 P1 1.569622 1_555
O3 P3 1.567207 1_555
O4 P1 1.557988 1_555
O5 P3 1.559514 1_555
O6 P0 1.555287 1_555
O7 P2 1.554588 1_555
O8 P0 1.559418 1_555
O9 P1 1.558982 1_556
O10 P2 1.556691 1_554
O11 P3 1.558353 1_555
O12 P0 1.552985 1_555
O13 P1 1.551075 1_555
O14 P2 1.552009 1_555
O15 P3 1.551666 1_555
