# generated using pymatgen
data_LiMnPCO7
_symmetry_space_group_name_H-M   'P 1'
_cell_length_a   5.11668100
_cell_length_b   6.23710399
_cell_length_c   16.67242990
_cell_angle_alpha   90.96011351
_cell_angle_beta   94.25898177
_cell_angle_gamma   90.27142801
_symmetry_Int_Tables_number   1
_chemical_formula_structural   LiMnPCO7
_chemical_formula_sum   'Li4 Mn4 P4 C4 O28'
_cell_volume   530.51845273
_cell_formula_units_Z   4
loop_
 _symmetry_equiv_pos_site_id
 _symmetry_equiv_pos_as_xyz
  1  'x, y, z'
loop_
 _atom_site_type_symbol
 _atom_site_label
 _atom_site_symmetry_multiplicity
 _atom_site_fract_x
 _atom_site_fract_y
 _atom_site_fract_z
 _atom_site_occupancy
  Li  Li0  1  0.75598800  0.96706800  0.13070100  1
  Li  Li1  1  0.24238000  0.47242700  0.36901800  1
  Li  Li2  1  0.75371400  0.52800800  0.63082000  1
  Li  Li3  1  0.24779500  0.46883500  0.87139300  1
  Mn  Mn0  1  0.20614400  0.25407500  0.16467800  1
  Mn  Mn1  1  0.79438500  0.76186400  0.33536400  1
  Mn  Mn2  1  0.20618100  0.24769300  0.66468500  1
  Mn  Mn3  1  0.79413600  0.74711200  0.83509000  1
  P  P0  1  0.27656100  0.75146500  0.21265800  1
  P  P1  1  0.72354600  0.25301200  0.28744800  1
  P  P2  1  0.27630000  0.74424400  0.71315300  1
  P  P3  1  0.72384900  0.25193800  0.78682900  1
  C  C0  1  0.28959800  0.24536500  0.02479400  1
  C  C1  1  0.71063500  0.73650300  0.47474000  1
  C  C2  1  0.29003600  0.26081300  0.52481700  1
  C  C3  1  0.70911200  0.75123100  0.97491600  1
  O  O0  1  0.05440800  0.24678300  0.05212600  1
  O  O1  1  0.66045200  0.76312400  0.04609200  1
  O  O2  1  0.47116000  0.22924300  0.08588200  1
  O  O3  1  0.17485000  0.94278600  0.16131100  1
  O  O4  1  0.20794700  0.55675200  0.15690700  1
  O  O5  1  0.85664500  0.23396400  0.20759400  1
  O  O6  1  0.57821500  0.77352000  0.23248300  1
  O  O7  1  0.42210300  0.27304300  0.26764800  1
  O  O8  1  0.14312700  0.73966100  0.29239800  1
  O  O9  1  0.79174400  0.06435500  0.34359300  1
  O  O10  1  0.82689300  0.44958000  0.33834200  1
  O  O11  1  0.52848500  0.73589200  0.41345900  1
  O  O12  1  0.33695000  0.27703100  0.45395500  1
  O  O13  1  0.94519000  0.75422300  0.44791100  1
  O  O14  1  0.05579000  0.24095600  0.55205300  1
  O  O15  1  0.66240400  0.72241200  0.54592900  1
  O  O16  1  0.47236600  0.26234500  0.58626300  1
  O  O17  1  0.20725700  0.94482400  0.66505000  1
  O  O18  1  0.17574700  0.55782200  0.65513800  1
  O  O19  1  0.85807900  0.26457000  0.70709000  1
  O  O20  1  0.57761300  0.71968300  0.73251100  1
  O  O21  1  0.42286200  0.27756700  0.76734600  1
  O  O22  1  0.14244000  0.73226200  0.79295900  1
  O  O23  1  0.79131300  0.05096900  0.83479600  1
  O  O24  1  0.82554600  0.43812300  0.84495800  1
  O  O25  1  0.52785300  0.73146600  0.91359900  1
  O  O26  1  0.33813300  0.26239900  0.95388300  1
  O  O27  1  0.94406800  0.76062000  0.94762400  1
loop_
_geom_bond_atom_site_label_1
_geom_bond_atom_site_label_2
_geom_bond_distance
_geom_bond_site_symmetry_2
Li0 O1 1.917926 1_555
Li0 O5 2.121824 1_565
Li0 O3 2.172517 1_655
Li0 O2 2.293035 1_565
Li0 O6 2.334916 1_555
Li1 O12 1.919997 1_555
Li1 O10 2.152809 1_455
Li1 O8 2.156593 1_555
Li1 O11 2.273239 1_555
Li1 O7 2.328036 1_555
Li2 O15 1.912153 1_555
Li2 O19 2.139944 1_555
Li2 O18 2.173852 1_655
Li2 O16 2.268715 1_555
Li2 O20 2.298869 1_555
Li3 O26 1.932229 1_555
Li3 O22 2.162371 1_555
Li3 O24 2.179582 1_455
Li3 O25 2.240792 1_555
Li3 O21 2.325156 1_555
Mn0 O4 1.894459 1_555
Mn0 O3 1.946906 1_545
Mn0 O2 1.961723 1_555
Mn0 O7 1.972933 1_555
Mn0 O0 1.976503 1_555
Mn0 O5 1.979028 1_455
Mn1 O9 1.889541 1_565
Mn1 O10 1.956767 1_555
Mn1 O11 1.959759 1_555
Mn1 O6 1.973323 1_555
Mn1 O8 1.976182 1_655
Mn1 O13 1.976602 1_555
Mn2 O17 1.889170 1_545
Mn2 O18 1.949517 1_555
Mn2 O16 1.959641 1_555
Mn2 O19 1.967143 1_455
Mn2 O21 1.974591 1_555
Mn2 O14 1.975510 1_555
Mn3 O23 1.895397 1_565
Mn3 O24 1.943352 1_555
Mn3 O25 1.961405 1_555
Mn3 O22 1.965552 1_655
Mn3 O20 1.971944 1_555
Mn3 O27 1.973857 1_555
C0 O26 1.232178 1_554
C0 O0 1.318067 1_555
C0 O2 1.332005 1_555
C1 O15 1.234560 1_555
C1 O13 1.316349 1_555
C1 O11 1.330761 1_555
C2 O12 1.228640 1_555
C2 O14 1.318865 1_555
C2 O16 1.333258 1_555
C3 O1 1.231586 1_556
C3 O27 1.318038 1_555
C3 O25 1.332037 1_555
O3 P0 1.549708 1_555
O4 P0 1.540056 1_555
O5 P1 1.542908 1_555
O6 P0 1.559216 1_555
O7 P1 1.559207 1_555
O8 P0 1.541634 1_555
O9 P1 1.541053 1_555
O10 P1 1.547605 1_555
O17 P2 1.526048 1_555
O18 P2 1.560435 1_555
O19 P3 1.544006 1_555
O20 P2 1.560298 1_555
O21 P3 1.559681 1_555
O22 P2 1.543792 1_555
O23 P3 1.525314 1_555
O24 P3 1.562110 1_555
