# generated using pymatgen
data_Li24Mn5Cr7O36
_symmetry_space_group_name_H-M   'P 1'
_cell_length_a   5.01215000
_cell_length_b   5.02522825
_cell_length_c   28.87704955
_cell_angle_alpha   90.17662548
_cell_angle_beta   90.40668827
_cell_angle_gamma   119.62317817
_symmetry_Int_Tables_number   1
_chemical_formula_structural   Li24Mn5Cr7O36
_chemical_formula_sum   'Li24 Mn5 Cr7 O36'
_cell_volume   632.23196198
_cell_formula_units_Z   1
loop_
 _symmetry_equiv_pos_site_id
 _symmetry_equiv_pos_as_xyz
  1  'x, y, z'
loop_
 _atom_site_type_symbol
 _atom_site_label
 _atom_site_symmetry_multiplicity
 _atom_site_fract_x
 _atom_site_fract_y
 _atom_site_fract_z
 _atom_site_occupancy
  Li  Li0  1  0.33454200  0.83347400  0.33335100  1
  Li  Li1  1  0.33544400  0.83583100  0.08330500  1
  Li  Li2  1  0.32546300  0.50095200  0.16684700  1
  Li  Li3  1  0.66754600  0.16635400  0.66668400  1
  Li  Li4  1  0.66921300  0.16435000  0.41665300  1
  Li  Li5  1  0.66595500  0.16555700  0.16676400  1
  Li  Li6  1  0.66120100  0.83673600  0.50003600  1
  Li  Li7  1  0.99722200  0.49700800  0.99985500  1
  Li  Li8  1  0.00439000  0.50210200  0.75002700  1
  Li  Li9  1  0.00231200  0.50248300  0.49996700  1
  Li  Li10  1  0.33488000  0.15759300  0.00005200  1
  Li  Li11  1  0.99128800  0.16929600  0.83357500  1
  Li  Li12  1  0.33096200  0.82862600  0.83339600  1
  Li  Li13  1  0.99363800  0.17363200  0.33319000  1
  Li  Li14  1  0.67072100  0.49418200  0.33347800  1
  Li  Li15  1  0.32766100  0.50853200  0.66640200  1
  Li  Li16  1  0.00424600  0.82518900  0.66693200  1
  Li  Li17  1  0.00936800  0.83473300  0.16657200  1
  Li  Li18  1  0.66596800  0.84407700  0.99970100  1
  Li  Li19  1  0.00072500  0.49685200  0.25000600  1
  Li  Li20  1  0.33587800  0.16119100  0.49985800  1
  Li  Li21  1  0.32966600  0.82983500  0.58332900  1
  Li  Li22  1  0.67666400  0.50263800  0.83327200  1
  Li  Li23  1  0.67025200  0.16667600  0.91665300  1
  Mn  Mn0  1  0.33265700  0.16700400  0.25003600  1
  Mn  Mn1  1  0.66554700  0.49893100  0.58329500  1
  Mn  Mn2  1  0.00024900  0.83441200  0.91670100  1
  Mn  Mn3  1  0.99932900  0.83421800  0.41654300  1
  Mn  Mn4  1  0.66703600  0.83368000  0.75009100  1
  Cr  Cr0  1  0.66873300  0.82820600  0.24995700  1
  Cr  Cr1  1  0.99645900  0.15997200  0.58331600  1
  Cr  Cr2  1  0.66847400  0.50767100  0.08344300  1
  Cr  Cr3  1  0.33913900  0.49808400  0.91677700  1
  Cr  Cr4  1  0.33833200  0.17247000  0.75003100  1
  Cr  Cr5  1  0.00443600  0.16837500  0.08351300  1
  Cr  Cr6  1  0.33650600  0.49643800  0.41657900  1
  O  O0  1  0.35985500  0.85957300  0.21216800  1
  O  O1  1  0.64119800  0.14237200  0.28797500  1
  O  O2  1  0.69635500  0.19398500  0.54549800  1
  O  O3  1  0.33638700  0.47282300  0.04586800  1
  O  O4  1  0.35382900  0.49460800  0.28761600  1
  O  O5  1  0.97481600  0.47937000  0.62174700  1
  O  O6  1  0.33212200  0.18883800  0.12083600  1
  O  O7  1  0.02283900  0.52511900  0.87867400  1
  O  O8  1  0.67200100  0.81336600  0.37889500  1
  O  O9  1  0.69183300  0.83268500  0.62053100  1
  O  O10  1  0.69189400  0.83307400  0.12084400  1
  O  O11  1  0.63974200  0.50055100  0.21286700  1
  O  O12  1  0.30672100  0.80525400  0.95452100  1
  O  O13  1  0.66569600  0.52736600  0.45373700  1
  O  O14  1  0.99848700  0.13830300  0.71276600  1
  O  O15  1  0.00539200  0.14674300  0.21222800  1
  O  O16  1  0.02061500  0.16094600  0.95438600  1
  O  O17  1  0.01960700  0.16076400  0.45437200  1
  O  O18  1  0.97295200  0.82748900  0.54597000  1
  O  O19  1  0.97423900  0.83640400  0.04594300  1
  O  O20  1  0.99993000  0.85933900  0.78728800  1
  O  O21  1  0.99904200  0.86212500  0.28709500  1
  O  O22  1  0.33575800  0.47668300  0.54576800  1
  O  O23  1  0.68726800  0.18734900  0.04489900  1
  O  O24  1  0.36043900  0.50770800  0.78769400  1
  O  O25  1  0.30492100  0.16860500  0.87952900  1
  O  O26  1  0.30523800  0.16806400  0.37958000  1
  O  O27  1  0.33288700  0.19590300  0.62055800  1
  O  O28  1  0.97137800  0.47225200  0.12133400  1
  O  O29  1  0.67120800  0.81331600  0.87921800  1
  O  O30  1  0.02518500  0.52637100  0.37875000  1
  O  O31  1  0.63752200  0.49756700  0.71288100  1
  O  O32  1  0.66753900  0.52720200  0.95384300  1
  O  O33  1  0.30803600  0.80818500  0.45453200  1
  O  O34  1  0.35818600  0.85262800  0.71153000  1
  O  O35  1  0.63678500  0.13970800  0.78787500  1
loop_
_geom_bond_atom_site_label_1
_geom_bond_atom_site_label_2
_geom_bond_distance
_geom_bond_site_symmetry_2
Li0 O1 2.042404 1_565
Li0 O30 2.044574 1_555
Li0 O8 2.176906 1_555
Li0 O4 2.191815 1_555
Li0 O21 2.200288 1_455
Li0 O26 2.205412 1_565
Li1 O6 2.083107 1_565
Li1 O10 2.089072 1_555
Li1 O19 2.102162 1_455
Li1 O23 2.102465 1_565
Li1 O3 2.119639 1_555
Li1 O28 2.149136 1_455
Li2 O11 2.054452 1_555
Li2 O6 2.065431 1_555
Li2 O28 2.147201 1_455
Li2 O0 2.159956 1_555
Li2 O15 2.163459 1_555
Li2 O10 2.222924 1_555
Li3 O5 2.043549 1_555
Li3 O34 2.047259 1_545
Li3 O14 2.177845 1_555
Li3 O9 2.189273 1_545
Li3 O31 2.193025 1_555
Li3 O27 2.196702 1_555
Li4 O17 2.067679 1_655
Li4 O8 2.076695 1_545
Li4 O26 2.116734 1_555
Li4 O13 2.120129 1_555
Li4 O33 2.124640 1_545
Li4 O30 2.126527 1_655
Li5 O0 2.036190 1_545
Li5 O28 2.036757 1_555
Li5 O6 2.176077 1_555
Li5 O15 2.180615 1_655
Li5 O10 2.184120 1_545
Li5 O11 2.197929 1_555
Li6 O13 2.056018 1_555
Li6 O18 2.060552 1_555
Li6 O33 2.143664 1_555
Li6 O2 2.155676 1_565
Li6 O17 2.184580 1_665
Li6 O22 2.192281 1_555
Li7 O23 2.044052 1_556
Li7 O12 2.045835 1_655
Li7 O32 2.176436 1_555
Li7 O16 2.184952 1_655
Li7 O3 2.200740 1_656
Li7 O19 2.208123 1_556
Li8 O24 2.071511 1_555
Li8 O20 2.099783 1_455
Li8 O14 2.105894 1_455
Li8 O34 2.106006 1_555
Li8 O31 2.112518 1_455
Li8 O35 2.151629 1_455
Li9 O33 2.035503 1_555
Li9 O2 2.043196 1_455
Li9 O18 2.163520 1_455
Li9 O22 2.177876 1_555
Li9 O13 2.195901 1_455
Li9 O17 2.196531 1_555
Li10 O16 2.053586 1_554
Li10 O3 2.057901 1_555
Li10 O23 2.127039 1_555
Li10 O12 2.149316 1_544
Li10 O19 2.188978 1_445
Li10 O32 2.235118 1_554
Li11 O25 2.051317 1_655
Li11 O20 2.066223 1_545
Li11 O7 2.149771 1_655
Li11 O35 2.150603 1_555
Li11 O29 2.172206 1_545
Li11 O24 2.238055 1_655
Li12 O7 2.033026 1_555
Li12 O35 2.047852 1_565
Li12 O24 2.142309 1_555
Li12 O29 2.182511 1_555
Li12 O20 2.184619 1_455
Li12 O25 2.217997 1_565
Li13 O26 2.061125 1_655
Li13 O21 2.062175 1_545
Li13 O1 2.131101 1_555
Li13 O30 2.145596 1_655
Li13 O4 2.181966 1_655
Li13 O8 2.185882 1_545
Li14 O4 2.061596 1_555
Li14 O8 2.066292 1_555
Li14 O30 2.138523 1_655
Li14 O1 2.144372 1_555
Li14 O26 2.212240 1_555
Li14 O21 2.226962 1_555
Li15 O27 2.061487 1_555
Li15 O31 2.066873 1_555
Li15 O34 2.105560 1_555
Li15 O5 2.126543 1_455
Li15 O9 2.201820 1_555
Li15 O14 2.233428 1_455
Li16 O14 2.064226 1_465
Li16 O9 2.068229 1_455
Li16 O5 2.115224 1_455
Li16 O34 2.132914 1_555
Li16 O31 2.214978 1_455
Li16 O27 2.233867 1_565
Li17 O15 2.053168 1_565
Li17 O10 2.057366 1_455
Li17 O0 2.141160 1_555
Li17 O28 2.167888 1_455
Li17 O6 2.174111 1_565
Li17 O11 2.238955 1_455
Li18 O19 2.049844 1_556
Li18 O32 2.070958 1_555
Li18 O23 2.119595 1_566
Li18 O12 2.144802 1_555
Li18 O16 2.157606 1_665
Li18 O3 2.233080 1_556
Li19 O4 2.074708 1_555
Li19 O15 2.077323 1_555
Li19 O11 2.104738 1_455
Li19 O1 2.118797 1_455
Li19 O21 2.125988 1_455
Li19 O0 2.133783 1_555
Li20 O17 2.050659 1_555
Li20 O22 2.063771 1_555
Li20 O33 2.148920 1_545
Li20 O2 2.167729 1_555
Li20 O18 2.219609 1_445
Li20 O13 2.220751 1_555
Li21 O18 2.076605 1_455
Li21 O22 2.090221 1_555
Li21 O9 2.096638 1_555
Li21 O5 2.106945 1_455
Li21 O27 2.120910 1_565
Li21 O2 2.153128 1_565
Li22 O29 2.056329 1_555
Li22 O24 2.062900 1_555
Li22 O7 2.124901 1_655
Li22 O35 2.169313 1_555
Li22 O20 2.185320 1_555
Li22 O25 2.242949 1_555
Li23 O16 2.072415 1_655
Li23 O29 2.078082 1_545
Li23 O32 2.109133 1_555
Li23 O7 2.112628 1_655
Li23 O25 2.119433 1_555
Li23 O12 2.140890 1_545
Mn0 O15 1.923989 1_555
Mn0 O4 1.927127 1_555
Mn0 O1 1.942454 1_555
Mn0 O21 1.947161 1_445
Mn0 O0 1.949618 1_545
Mn0 O11 1.953113 1_555
Mn1 O22 1.926193 1_555
Mn1 O9 1.937768 1_555
Mn1 O5 1.942240 1_555
Mn1 O18 1.944581 1_555
Mn1 O27 1.944819 1_555
Mn1 O2 1.946656 1_555
Mn2 O29 1.924528 1_455
Mn2 O16 1.925895 1_565
Mn2 O12 1.942537 1_555
Mn2 O7 1.949262 1_555
Mn2 O25 1.950289 1_565
Mn2 O32 1.950667 1_455
Mn3 O8 1.920561 1_555
Mn3 O17 1.928449 1_665
Mn3 O30 1.947010 1_655
Mn3 O33 1.947187 1_655
Mn3 O26 1.948349 1_665
Mn3 O13 1.953010 1_555
Mn4 O20 1.927527 1_555
Mn4 O34 1.940933 1_555
Mn4 O31 1.941361 1_555
Mn4 O24 1.941654 1_555
Mn4 O14 1.945883 1_565
Mn4 O35 1.949615 1_565
Cr0 O21 1.901248 1_555
Cr0 O11 1.905191 1_555
Cr0 O0 1.957219 1_555
Cr0 O4 1.975850 1_555
Cr0 O1 1.980820 1_565
Cr0 O15 1.990788 1_665
Cr1 O27 1.924734 1_655
Cr1 O2 1.927783 1_555
Cr1 O9 1.934632 1_545
Cr1 O18 1.939325 1_545
Cr1 O22 1.990444 1_655
Cr1 O5 1.995594 1_555
Cr2 O10 1.910957 1_555
Cr2 O3 1.914029 1_555
Cr2 O28 1.943862 1_555
Cr2 O19 1.944758 1_555
Cr2 O6 1.985290 1_555
Cr2 O23 1.994786 1_555
Cr3 O32 1.900600 1_555
Cr3 O25 1.906148 1_555
Cr3 O12 1.958864 1_555
Cr3 O29 1.971208 1_555
Cr3 O7 1.982805 1_555
Cr3 O16 1.990130 1_555
Cr4 O31 1.918411 1_555
Cr4 O35 1.918444 1_555
Cr4 O14 1.942321 1_455
Cr4 O24 1.958479 1_555
Cr4 O20 1.976934 1_445
Cr4 O34 1.994494 1_545
Cr5 O6 1.917529 1_555
Cr5 O19 1.928687 1_445
Cr5 O28 1.947965 1_455
Cr5 O3 1.951948 1_555
Cr5 O10 1.970010 1_445
Cr5 O23 1.976084 1_455
Cr6 O13 1.902151 1_555
Cr6 O26 1.902679 1_555
Cr6 O30 1.964587 1_555
Cr6 O33 1.971897 1_555
Cr6 O8 1.984292 1_555
Cr6 O17 1.986596 1_555
