# generated using pymatgen
data_LiFeSiO4
_symmetry_space_group_name_H-M   'P 1'
_cell_length_a   4.77948700
_cell_length_b   6.22272700
_cell_length_c   10.35446400
_cell_angle_alpha   90.00000000
_cell_angle_beta   90.00000000
_cell_angle_gamma   90.00000000
_symmetry_Int_Tables_number   1
_chemical_formula_structural   LiFeSiO4
_chemical_formula_sum   'Li4 Fe4 Si4 O16'
_cell_volume   307.95669879
_cell_formula_units_Z   4
loop_
 _symmetry_equiv_pos_site_id
 _symmetry_equiv_pos_as_xyz
  1  'x, y, z'
loop_
 _atom_site_type_symbol
 _atom_site_label
 _atom_site_symmetry_multiplicity
 _atom_site_fract_x
 _atom_site_fract_y
 _atom_site_fract_z
 _atom_site_occupancy
  Li  Li0  1  0.98144300  0.03243200  0.03381700  1
  Li  Li1  1  0.01855700  0.53243200  0.46618300  1
  Li  Li2  1  0.51855700  0.96756800  0.53381700  1
  Li  Li3  1  0.48144300  0.46756800  0.96618300  1
  Fe  Fe0  1  0.49808000  0.76911900  0.24459600  1
  Fe  Fe1  1  0.50192000  0.26911900  0.25540400  1
  Fe  Fe2  1  0.00192000  0.23088100  0.74459600  1
  Fe  Fe3  1  0.99808000  0.73088100  0.75540400  1
  Si  Si0  1  0.91724300  0.51846200  0.16086800  1
  Si  Si1  1  0.08275700  0.01846200  0.33913200  1
  Si  Si2  1  0.58275700  0.48153800  0.66086800  1
  Si  Si3  1  0.41724300  0.98153800  0.83913200  1
  O  O0  1  0.78069800  0.74143900  0.10274800  1
  O  O1  1  0.77132100  0.30124200  0.10014700  1
  O  O2  1  0.26078200  0.51542500  0.16757500  1
  O  O3  1  0.24700100  0.01849700  0.19142900  1
  O  O4  1  0.75299900  0.51849700  0.30857100  1
  O  O5  1  0.73921800  0.01542500  0.33242500  1
  O  O6  1  0.22867900  0.80124200  0.39985300  1
  O  O7  1  0.21930200  0.24143900  0.39725200  1
  O  O8  1  0.71930200  0.25856100  0.60274800  1
  O  O9  1  0.72867900  0.69875800  0.60014700  1
  O  O10  1  0.23921800  0.48457500  0.66757500  1
  O  O11  1  0.25299900  0.98150300  0.69142900  1
  O  O12  1  0.74700100  0.48150300  0.80857100  1
  O  O13  1  0.76078200  0.98457500  0.83242500  1
  O  O14  1  0.27132100  0.19875800  0.89985300  1
  O  O15  1  0.28069800  0.75856100  0.89725200  1
loop_
_geom_bond_atom_site_label_1
_geom_bond_atom_site_label_2
_geom_bond_distance
_geom_bond_site_symmetry_2
Li0 O1 2.068407 1_555
Li0 O3 2.069263 1_655
Li0 O0 2.169995 1_545
Li0 O14 2.216950 1_654
Li0 O13 2.355731 1_544
Li1 O6 2.068407 1_555
Li1 O4 2.069263 1_455
Li1 O7 2.169995 1_555
Li1 O9 2.216950 1_455
Li1 O10 2.355731 1_555
Li2 O9 2.068407 1_555
Li2 O11 2.069263 1_555
Li2 O8 2.169995 1_565
Li2 O6 2.216950 1_555
Li2 O5 2.355731 1_565
Li3 O14 2.068407 1_555
Li3 O12 2.069263 1_555
Li3 O15 2.169995 1_555
Li3 O1 2.216950 1_556
Li3 O2 2.355731 1_556
Fe0 O0 2.002873 1_555
Fe0 O3 2.037463 1_565
Fe0 O6 2.069361 1_555
Fe0 O4 2.086976 1_555
Fe0 O2 2.101081 1_555
Fe0 O5 2.122380 1_565
Fe1 O7 2.002873 1_555
Fe1 O4 2.037463 1_555
Fe1 O1 2.069361 1_555
Fe1 O3 2.086976 1_555
Fe1 O5 2.101081 1_555
Fe1 O2 2.122380 1_555
Fe2 O8 2.002873 1_455
Fe2 O11 2.037463 1_545
Fe2 O14 2.069361 1_555
Fe2 O12 2.086976 1_455
Fe2 O10 2.101081 1_555
Fe2 O13 2.122380 1_445
Fe3 O15 2.002873 1_655
Fe3 O12 2.037463 1_555
Fe3 O9 2.069361 1_555
Fe3 O11 2.086976 1_655
Fe3 O13 2.101081 1_555
Fe3 O10 2.122380 1_655
O0 Si0 1.647209 1_555
O1 Si0 1.645847 1_555
O2 Si0 1.643517 1_455
O3 Si1 1.719083 1_555
O4 Si0 1.719083 1_555
O5 Si1 1.643517 1_655
O6 Si1 1.645847 1_565
O7 Si1 1.647209 1_555
O8 Si2 1.647209 1_555
O9 Si2 1.645847 1_555
O10 Si2 1.643517 1_555
O11 Si3 1.719083 1_555
O12 Si2 1.719083 1_555
O13 Si3 1.643517 1_555
O14 Si3 1.645847 1_545
O15 Si3 1.647209 1_555
