# generated using pymatgen
data_Na3Zr2Si2PO12
_symmetry_space_group_name_H-M   'P 1'
_cell_length_a   9.24564200
_cell_length_b   9.36501511
_cell_length_c   15.98929480
_cell_angle_alpha   106.34510611
_cell_angle_beta   89.97256920
_cell_angle_gamma   119.31474742
_symmetry_Int_Tables_number   1
_chemical_formula_structural   Na3Zr2Si2PO12
_chemical_formula_sum   'Na12 Zr8 Si8 P4 O48'
_cell_volume   1142.66262913
_cell_formula_units_Z   4
loop_
 _symmetry_equiv_pos_site_id
 _symmetry_equiv_pos_as_xyz
  1  'x, y, z'
loop_
 _atom_site_type_symbol
 _atom_site_label
 _atom_site_symmetry_multiplicity
 _atom_site_fract_x
 _atom_site_fract_y
 _atom_site_fract_z
 _atom_site_occupancy
  Na  Na0  1  0.15038000  0.97925900  0.97740400  1
  Na  Na1  1  0.20235500  0.23146400  0.66562500  1
  Na  Na2  1  0.68686300  0.12205300  0.81364200  1
  Na  Na3  1  0.78873700  0.85376700  0.68440000  1
  Na  Na4  1  0.31076600  0.11014700  0.55856600  1
  Na  Na5  1  0.26325600  0.52815800  0.87467700  1
  Na  Na6  1  0.69781300  0.89248600  0.44653400  1
  Na  Na7  1  0.21244000  0.13834700  0.31799700  1
  Na  Na8  1  0.74886600  0.03992300  0.23692100  1
  Na  Na9  1  0.30462300  0.87006900  0.19137100  1
  Na  Na10  1  0.80609200  0.12294500  0.05189400  1
  Na  Na11  1  0.73045000  0.45994400  0.37640900  1
  Zr  Zr0  1  0.78479700  0.70184600  0.93406500  1
  Zr  Zr1  1  0.46092200  0.28115600  0.82617800  1
  Zr  Zr2  1  0.28301300  0.70630300  0.43331100  1
  Zr  Zr3  1  0.96194300  0.29706800  0.31882800  1
  Zr  Zr4  1  0.02722400  0.70544600  0.67355300  1
  Zr  Zr5  1  0.72880900  0.29832400  0.57508500  1
  Zr  Zr6  1  0.52488900  0.70159400  0.17282800  1
  Zr  Zr7  1  0.22748600  0.30203900  0.07257500  1
  Si  Si0  1  0.01869800  0.20951900  0.76863600  1
  Si  Si1  1  0.58805500  0.49681000  0.62721700  1
  Si  Si2  1  0.52156500  0.79172500  0.97847600  1
  Si  Si3  1  0.97810300  0.20604200  0.51952000  1
  Si  Si4  1  0.52053000  0.20691200  0.26746200  1
  Si  Si5  1  0.08589400  0.49663800  0.12603900  1
  Si  Si6  1  0.01576000  0.79668300  0.47704400  1
  Si  Si7  1  0.48374700  0.20317700  0.02479700  1
  P  P0  1  0.90961800  0.50080100  0.87293800  1
  P  P1  1  0.48688700  0.78988200  0.73392700  1
  P  P2  1  0.41380300  0.50579700  0.37311400  1
  P  P3  1  0.97999800  0.79391800  0.23286800  1
  O  O0  1  0.49325500  0.60157000  0.75325300  1
  O  O1  1  0.42376700  0.19548600  0.94065500  1
  O  O2  1  0.93277400  0.01117700  0.85687600  1
  O  O3  1  0.73794800  0.35408700  0.86338000  1
  O  O4  1  0.20931500  0.21689500  0.78194700  1
  O  O5  1  0.91511800  0.20863100  0.68170500  1
  O  O6  1  0.47963900  0.64456400  0.53481300  1
  O  O7  1  0.49519000  0.35320300  0.71210600  1
  O  O8  1  0.46725900  0.99648900  0.89006300  1
  O  O9  1  0.14093600  0.40471100  0.50425700  1
  O  O10  1  0.81489200  0.21108200  0.53004300  1
  O  O11  1  0.88211400  0.63955600  0.87956600  1
  O  O12  1  0.61089000  0.34392600  0.62088800  1
  O  O13  1  0.96937300  0.59906400  0.25056700  1
  O  O14  1  0.68288600  0.79978100  0.96210500  1
  O  O15  1  0.36444200  0.59012000  0.99225900  1
  O  O16  1  0.04475400  0.01185500  0.61353000  1
  O  O17  1  0.92150500  0.20274500  0.43460600  1
  O  O18  1  0.99962000  0.63825400  0.79242100  1
  O  O19  1  0.43269100  0.00749000  0.35539800  1
  O  O20  1  0.02168100  0.36409900  0.95686500  1
  O  O21  1  0.23831000  0.37515900  0.35498600  1
  O  O22  1  0.70532900  0.19371100  0.28404500  1
  O  O23  1  0.40597800  0.20626100  0.18194400  1
  O  O24  1  0.58650900  0.79851400  0.81334700  1
  O  O25  1  0.30338100  0.78330700  0.71898500  1
  O  O26  1  0.77231000  0.65068800  0.63690400  1
  O  O27  1  0.97926900  0.65153600  0.03806100  1
  O  O28  1  0.56116000  0.98088700  0.64748100  1
  O  O29  1  0.00059500  0.33920000  0.21500700  1
  O  O30  1  0.07523700  0.80947700  0.55979400  1
  O  O31  1  0.95259300  0.99613100  0.38647700  1
  O  O32  1  0.63984600  0.40667300  0.00338400  1
  O  O33  1  0.30973500  0.18947100  0.03583200  1
  O  O34  1  0.02337200  0.41032500  0.75150200  1
  O  O35  1  0.39160900  0.64803100  0.37970700  1
  O  O36  1  0.10735400  0.35423100  0.11353200  1
  O  O37  1  0.17456700  0.80247500  0.45940700  1
  O  O38  1  0.85438500  0.59605000  0.49451400  1
  O  O39  1  0.55211200  0.00725200  0.11754500  1
  O  O40  1  0.51293900  0.64522300  0.29495900  1
  O  O41  1  0.51401500  0.35771000  0.45862700  1
  O  O42  1  0.08955500  0.79569500  0.31305000  1
  O  O43  1  0.80143800  0.79343800  0.22215200  1
  O  O44  1  0.27155600  0.64262000  0.14197900  1
  O  O45  1  0.05348900  0.97959800  0.14640700  1
  O  O46  1  0.57658600  0.79243900  0.06473700  1
  O  O47  1  0.53564400  0.40706800  0.25533200  1
loop_
_geom_bond_atom_site_label_1
_geom_bond_atom_site_label_2
_geom_bond_distance
_geom_bond_site_symmetry_2
Na0 O33 1.744999 1_566
Na0 O45 2.846091 1_556
Na0 O2 2.961061 1_465
Na1 O16 1.774618 1_555
Na1 O4 1.906188 1_555
Na1 O7 2.384297 1_555
Na2 O3 1.897410 1_555
Na2 O8 2.338104 1_545
Na2 O28 2.584292 1_545
Na3 O26 1.766672 1_555
Na3 O2 2.710144 1_565
Na4 O16 2.430013 1_555
Na4 O37 2.505870 1_545
Na4 O12 2.512342 1_555
Na4 O30 2.588022 1_545
Na4 O7 2.678402 1_555
Na5 O15 1.898053 1_555
Na5 O34 2.529810 1_555
Na5 O20 2.617139 1_555
Na5 O4 2.662472 1_555
Na5 O0 2.842484 1_555
Na6 O31 2.386768 1_555
Na6 O10 2.540336 1_565
Na6 O35 2.584026 1_555
Na6 O40 2.669631 1_555
Na6 O6 2.950902 1_555
Na7 O21 2.016895 1_555
Na7 O31 2.535665 1_445
Na7 O45 2.732397 1_545
Na7 O19 2.977160 1_555
Na8 O22 1.661510 1_555
Na8 O39 2.485093 1_555
Na8 O43 2.532230 1_545
Na9 O44 1.915742 1_555
Na9 O39 2.500428 1_565
Na9 O19 2.558859 1_565
Na10 O39 2.436460 1_555
Na10 O36 2.512873 1_655
Na10 O14 2.588100 1_544
Na11 O38 1.928961 1_555
Na11 O41 2.340730 1_555
Na11 O22 2.410852 1_555
Na11 O47 2.414015 1_555
Na11 O13 3.046115 1_555
O0 O24 1.585731 1_555
O0 P1 1.901961 1_555
O0 Si1 2.349345 1_555
O1 Si7 1.424711 1_556
O1 Zr1 2.160592 1_555
O2 Si0 2.470016 1_655
O3 P0 1.475457 1_555
O3 Zr1 2.332442 1_555
O4 Si0 1.740378 1_555
O4 Zr1 2.159866 1_555
O5 Si0 1.684091 1_655
O6 P2 2.465708 1_555
O6 Zr2 2.798816 1_555
O7 Si1 2.069736 1_555
O7 Zr1 2.089290 1_555
O9 Si3 1.816612 1_455
O10 Zr5 1.457620 1_555
O10 Si3 1.540331 1_555
O11 P0 1.417914 1_555
O11 Zr0 1.461608 1_555
O11 O18 1.767467 1_555
O12 Zr5 1.478671 1_555
O12 Si1 1.522885 1_555
O12 O7 1.815846 1_555
O13 O42 1.608015 1_655
O13 P3 1.880098 1_555
O13 Si5 2.445425 1_655
O14 Si2 1.483032 1_555
O14 Zr0 1.595108 1_555
O15 Si2 1.808792 1_555
O17 Si3 1.442024 1_555
O17 Zr3 2.223369 1_555
O18 P0 1.972235 1_555
O18 Zr4 2.142162 1_655
O19 Si4 2.473067 1_555
O19 Zr2 3.094643 1_545
O21 P2 1.438922 1_555
O21 Zr3 2.309045 1_455
O22 Si4 1.797380 1_555
O22 Zr3 2.079609 1_555
O23 O47 1.703626 1_555
O23 Si4 1.726796 1_555
O24 P1 1.529021 1_555
O25 P1 1.682033 1_555
O25 Zr4 2.336462 1_555
O26 Si1 1.572731 1_555
O26 Zr4 2.193118 1_655
O27 Zr0 2.737369 1_554
O28 P1 2.402004 1_555
O29 Zr3 1.808062 1_455
O30 Si6 1.383594 1_555
O30 Zr4 2.242290 1_555
O32 Si7 1.872303 1_555
O33 Si7 1.564057 1_555
O33 Zr7 1.571861 1_555
O34 O5 1.666858 1_455
O34 Si0 1.955449 1_555
O34 P0 2.353474 1_455
O35 P2 1.419894 1_555
O35 Zr2 1.520841 1_555
O35 O40 1.761429 1_555
O36 Si5 1.402471 1_555
O36 Zr7 1.500719 1_555
O37 Si6 1.472589 1_555
O37 Zr2 1.631852 1_555
O38 Si6 1.839675 1_655
O40 P2 1.962655 1_555
O40 Zr6 2.151094 1_555
O42 P3 1.625633 1_455
O43 P3 1.657536 1_555
O43 Zr6 2.316465 1_555
O44 Si5 1.544961 1_555
O44 Zr6 2.148353 1_555
O45 P3 2.364695 1_455
O46 Si2 1.467417 1_554
O46 Zr6 2.089949 1_555
O47 Si4 1.875864 1_555
O47 P2 2.389213 1_555
