# generated using pymatgen
data_Li4FeNi3O8
_symmetry_space_group_name_H-M   'P 1'
_cell_length_a   5.78742399
_cell_length_b   5.82420562
_cell_length_c   5.90382620
_cell_angle_alpha   119.99802165
_cell_angle_beta   119.60055599
_cell_angle_gamma   61.21007799
_symmetry_Int_Tables_number   1
_chemical_formula_structural   Li4FeNi3O8
_chemical_formula_sum   'Li4 Fe1 Ni3 O8'
_cell_volume   142.39041192
_cell_formula_units_Z   1
loop_
 _symmetry_equiv_pos_site_id
 _symmetry_equiv_pos_as_xyz
  1  'x, y, z'
loop_
 _atom_site_type_symbol
 _atom_site_label
 _atom_site_symmetry_multiplicity
 _atom_site_fract_x
 _atom_site_fract_y
 _atom_site_fract_z
 _atom_site_occupancy
  Li  Li0  1  0.49999100  0.50002500  0.50001200  1
  Li  Li1  1  0.99999400  0.50002200  0.50001500  1
  Li  Li2  1  0.49998100  0.99999400  0.49998500  1
  Li  Li3  1  0.99999900  0.00000100  0.49999600  1
  Fe  Fe0  1  0.49997100  0.99996700  0.00000200  1
  Ni  Ni0  1  0.50008900  0.49986100  0.99996800  1
  Ni  Ni1  1  0.00005600  0.50001600  0.00006000  1
  Ni  Ni2  1  0.99990200  0.00009800  0.99996400  1
  O  O0  1  0.71577200  0.74697200  0.22955600  1
  O  O1  1  0.25273000  0.72066500  0.22071000  1
  O  O2  1  0.77386800  0.74620500  0.78620800  1
  O  O3  1  0.76828000  0.22617400  0.23768400  1
  O  O4  1  0.23167000  0.77388800  0.76233100  1
  O  O5  1  0.22612700  0.25384400  0.21386400  1
  O  O6  1  0.74733300  0.27930200  0.77922600  1
  O  O7  1  0.28423400  0.25295100  0.77041400  1
loop_
_geom_bond_atom_site_label_1
_geom_bond_atom_site_label_2
_geom_bond_distance
_geom_bond_site_symmetry_2
Li0 O6 2.105804 1_555
Li0 O1 2.105869 1_555
Li0 O5 2.131553 1_555
Li0 O2 2.131626 1_555
Li0 O3 2.207628 1_555
Li0 O4 2.207723 1_555
Li1 O4 2.068545 1_655
Li1 O3 2.068618 1_555
Li1 O5 2.139457 1_655
Li1 O2 2.139616 1_555
Li1 O0 2.178743 1_555
Li1 O7 2.178973 1_655
Li2 O7 2.030786 1_565
Li2 O0 2.030966 1_555
Li2 O1 2.154559 1_555
Li2 O6 2.154842 1_565
Li2 O5 2.268632 1_565
Li2 O2 2.268827 1_555
Li3 O4 2.053788 1_645
Li3 O3 2.053924 1_555
Li3 O7 2.193891 1_655
Li3 O0 2.194168 1_545
Li3 O6 2.216046 1_555
Li3 O1 2.216541 1_645
Fe0 O4 2.020687 1_554
Fe0 O3 2.021224 1_565
Fe0 O0 2.029739 1_555
Fe0 O7 2.029860 1_564
Fe0 O2 2.035896 1_554
Fe0 O5 2.035956 1_565
Ni0 O7 1.890588 1_555
Ni0 O0 1.890764 1_556
Ni0 O6 1.947765 1_555
Ni0 O1 1.948222 1_556
Ni0 O3 2.149776 1_556
Ni0 O4 2.150948 1_555
Ni1 O5 1.931861 1_555
Ni1 O2 1.932129 1_454
Ni1 O1 1.934191 1_555
Ni1 O6 1.934629 1_454
Ni1 O0 2.141414 1_455
Ni1 O7 2.141539 1_554
Ni2 O3 1.952174 1_556
Ni2 O4 1.952398 1_645
Ni2 O2 1.963874 1_545
Ni2 O5 1.963963 1_656
Ni2 O6 2.104043 1_555
Ni2 O1 2.105097 1_646
