# generated using pymatgen
data_KAlH6(OF3)2
_symmetry_space_group_name_H-M   'P 1'
_cell_length_a   8.56676181
_cell_length_b   8.56676181
_cell_length_c   8.56676181
_cell_angle_alpha   90.00000000
_cell_angle_beta   90.00000000
_cell_angle_gamma   90.00000000
_symmetry_Int_Tables_number   1
_chemical_formula_structural   KAlH6(OF3)2
_chemical_formula_sum   'K4 Al4 H24 O8 F24'
_cell_volume   628.70957694
_cell_formula_units_Z   4
loop_
 _symmetry_equiv_pos_site_id
 _symmetry_equiv_pos_as_xyz
  1  'x, y, z'
loop_
 _atom_site_type_symbol
 _atom_site_label
 _atom_site_symmetry_multiplicity
 _atom_site_fract_x
 _atom_site_fract_y
 _atom_site_fract_z
 _atom_site_occupancy
  K  K0  1  0.50000000  0.50000000  0.00000000  1
  K  K1  1  0.50000000  -0.00000000  0.50000000  1
  K  K2  1  0.00000000  0.50000000  0.50000000  1
  K  K3  1  0.00000000  -0.00000000  0.00000000  1
  Al  Al0  1  0.50000000  -0.00000000  0.00000000  1
  Al  Al1  1  0.50000000  0.50000000  0.50000000  1
  Al  Al2  1  0.00000000  -0.00000000  0.50000000  1
  Al  Al3  1  0.00000000  0.50000000  0.00000000  1
  H  H0  1  0.36180272  0.80013194  0.20090930  1
  H  H1  1  0.63819728  0.30013194  0.29909070  1
  H  H2  1  0.13819728  0.19986806  0.70090930  1
  H  H3  1  0.86180272  0.69986806  0.79909070  1
  H  H4  1  0.20090930  0.36180272  0.80013194  1
  H  H5  1  0.29909070  0.63819728  0.30013194  1
  H  H6  1  0.70090930  0.13819728  0.19986806  1
  H  H7  1  0.79909070  0.86180272  0.69986806  1
  H  H8  1  0.80013194  0.20090930  0.36180272  1
  H  H9  1  0.30013194  0.29909070  0.63819728  1
  H  H10  1  0.19986806  0.70090930  0.13819728  1
  H  H11  1  0.69986806  0.79909070  0.86180272  1
  H  H12  1  0.63819728  0.19986806  0.79909070  1
  H  H13  1  0.36180272  0.69986806  0.70090930  1
  H  H14  1  0.86180272  0.80013194  0.29909070  1
  H  H15  1  0.13819728  0.30013194  0.20090930  1
  H  H16  1  0.79909070  0.63819728  0.19986806  1
  H  H17  1  0.70090930  0.36180272  0.69986806  1
  H  H18  1  0.29909070  0.86180272  0.80013194  1
  H  H19  1  0.20090930  0.13819728  0.30013194  1
  H  H20  1  0.19986806  0.79909070  0.63819728  1
  H  H21  1  0.69986806  0.70090930  0.36180272  1
  H  H22  1  0.80013194  0.29909070  0.86180272  1
  H  H23  1  0.30013194  0.20090930  0.13819728  1
  O  O0  1  0.30463728  0.69536272  0.19536272  1
  O  O1  1  0.69536272  0.19536272  0.30463728  1
  O  O2  1  0.19536272  0.30463728  0.69536272  1
  O  O3  1  0.80463728  0.80463728  0.80463728  1
  O  O4  1  0.69536272  0.30463728  0.80463728  1
  O  O5  1  0.30463728  0.80463728  0.69536272  1
  O  O6  1  0.80463728  0.69536272  0.30463728  1
  O  O7  1  0.19536272  0.19536272  0.19536272  1
  F  F0  1  0.45123911  0.94071879  0.19715064  1
  F  F1  1  0.54876089  0.44071879  0.30284936  1
  F  F2  1  0.04876089  0.05928121  0.69715064  1
  F  F3  1  0.95123911  0.55928121  0.80284936  1
  F  F4  1  0.19715064  0.45123911  0.94071879  1
  F  F5  1  0.30284936  0.54876089  0.44071879  1
  F  F6  1  0.69715064  0.04876089  0.05928121  1
  F  F7  1  0.80284936  0.95123911  0.55928121  1
  F  F8  1  0.94071879  0.19715064  0.45123911  1
  F  F9  1  0.44071879  0.30284936  0.54876089  1
  F  F10  1  0.05928121  0.69715064  0.04876089  1
  F  F11  1  0.55928121  0.80284936  0.95123911  1
  F  F12  1  0.54876089  0.05928121  0.80284936  1
  F  F13  1  0.45123911  0.55928121  0.69715064  1
  F  F14  1  0.95123911  0.94071879  0.30284936  1
  F  F15  1  0.04876089  0.44071879  0.19715064  1
  F  F16  1  0.80284936  0.54876089  0.05928121  1
  F  F17  1  0.69715064  0.45123911  0.55928121  1
  F  F18  1  0.30284936  0.95123911  0.94071879  1
  F  F19  1  0.19715064  0.04876089  0.44071879  1
  F  F20  1  0.05928121  0.80284936  0.54876089  1
  F  F21  1  0.55928121  0.69715064  0.45123911  1
  F  F22  1  0.94071879  0.30284936  0.95123911  1
  F  F23  1  0.44071879  0.19715064  0.04876089  1
loop_
_geom_bond_atom_site_label_1
_geom_bond_atom_site_label_2
_geom_bond_distance
_geom_bond_site_symmetry_2
K0 O0 2.898805 1_555
K0 O4 2.898805 1_554
K1 O5 2.898805 1_545
K1 O1 2.898805 1_555
K2 O2 2.898805 1_555
K2 O6 2.898805 1_455
K3 O3 2.898805 1_444
K3 O7 2.898805 1_555
Al0 F18 1.812437 1_544
Al0 F0 1.812437 1_545
Al0 F23 1.812437 1_555
Al0 F11 1.812437 1_544
Al0 F12 1.812437 1_554
Al0 F6 1.812437 1_555
Al1 F1 1.812437 1_555
Al1 F5 1.812437 1_555
Al1 F9 1.812437 1_555
Al1 F13 1.812437 1_555
Al1 F17 1.812437 1_555
Al1 F21 1.812437 1_555
Al2 F8 1.812437 1_455
Al2 F19 1.812437 1_555
Al2 F14 1.812437 1_445
Al2 F20 1.812437 1_545
Al2 F7 1.812437 1_445
Al2 F2 1.812437 1_555
Al3 F15 1.812437 1_555
Al3 F4 1.812437 1_554
Al3 F22 1.812437 1_454
Al3 F10 1.812437 1_555
Al3 F16 1.812437 1_455
Al3 F3 1.812437 1_454
H0 O0 1.023548 1_555
H1 O1 1.023548 1_555
H2 O2 1.023548 1_555
H3 O3 1.023548 1_555
H4 O2 1.023548 1_555
H5 O0 1.023548 1_555
H6 O1 1.023548 1_555
H7 O3 1.023548 1_555
H8 O1 1.023548 1_555
H9 O2 1.023548 1_555
H10 O0 1.023548 1_555
H11 O3 1.023548 1_555
H12 O4 1.023548 1_555
H13 O5 1.023548 1_555
H14 O6 1.023548 1_555
H15 O7 1.023548 1_555
H16 O6 1.023548 1_555
H17 O4 1.023548 1_555
H18 O5 1.023548 1_555
H19 O7 1.023548 1_555
H20 O5 1.023548 1_555
H21 O6 1.023548 1_555
H22 O4 1.023548 1_555
H23 O7 1.023548 1_555
F0 H0 1.427791 1_555
F0 K1 2.676474 1_565
F1 H1 1.427791 1_555
F1 K0 2.676474 1_555
F2 H2 1.427791 1_555
F2 K3 2.676474 1_556
F3 H3 1.427791 1_555
F3 K2 2.676474 1_655
F4 H4 1.427791 1_555
F4 K0 2.676474 1_556
F5 H5 1.427791 1_555
F5 K2 2.676474 1_555
F6 H6 1.427791 1_555
F6 K3 2.676474 1_655
F7 H7 1.427791 1_555
F7 K1 2.676474 1_565
F8 H8 1.427791 1_555
F8 K2 2.676474 1_655
F9 H9 1.427791 1_555
F9 K1 2.676474 1_555
F10 H10 1.427791 1_555
F10 K3 2.676474 1_565
F11 H11 1.427791 1_555
F11 K0 2.676474 1_556
F12 H12 1.427791 1_555
F12 K1 2.676474 1_555
F13 H13 1.427791 1_555
F13 K0 2.676474 1_556
F14 H14 1.427791 1_555
F14 K3 2.676474 1_665
F15 H15 1.427791 1_555
F15 K2 2.676474 1_555
F16 H16 1.427791 1_555
F16 K0 2.676474 1_555
F17 H17 1.427791 1_555
F17 K2 2.676474 1_655
F18 H18 1.427791 1_555
F18 K3 2.676474 1_566
F19 H19 1.427791 1_555
F19 K1 2.676474 1_555
F20 H20 1.427791 1_555
F20 K2 2.676474 1_555
F21 H21 1.427791 1_555
F21 K1 2.676474 1_565
F22 H22 1.427791 1_555
F22 K3 2.676474 1_656
F23 H23 1.427791 1_555
F23 K0 2.676474 1_555
