# generated using pymatgen
data_Li2Sn5
_symmetry_space_group_name_H-M   'P 1'
_cell_length_a   6.21435186
_cell_length_b   20.58483788
_cell_length_c   20.58483788
_cell_angle_alpha   90.00000000
_cell_angle_beta   90.00000000
_cell_angle_gamma   90.00000000
_symmetry_Int_Tables_number   1
_chemical_formula_structural   Li2Sn5
_chemical_formula_sum   'Li32 Sn80'
_cell_volume   2633.24180668
_cell_formula_units_Z   16
loop_
 _symmetry_equiv_pos_site_id
 _symmetry_equiv_pos_as_xyz
  1  'x, y, z'
loop_
 _atom_site_type_symbol
 _atom_site_label
 _atom_site_symmetry_multiplicity
 _atom_site_fract_x
 _atom_site_fract_y
 _atom_site_fract_z
 _atom_site_occupancy
  Li  Li0_0  1  0.25000000  0.41191747  0.16191747  1
  Li  Li0_1  1  0.25000000  0.41191747  0.66191747  1
  Li  Li0_2  1  0.25000000  0.91191746  0.16191747  1
  Li  Li0_3  1  0.25000000  0.91191746  0.66191747  1
  Li  Li0_4  1  0.75000000  0.41191747  0.16191747  1
  Li  Li0_5  1  0.75000000  0.41191747  0.66191747  1
  Li  Li0_6  1  0.75000000  0.91191746  0.16191747  1
  Li  Li0_7  1  0.75000000  0.91191746  0.66191747  1
  Li  Li1_0  1  0.25000000  0.33808254  0.41191747  1
  Li  Li1_1  1  0.25000000  0.33808254  0.91191746  1
  Li  Li1_2  1  0.25000000  0.83808254  0.41191747  1
  Li  Li1_3  1  0.25000000  0.83808254  0.91191746  1
  Li  Li1_4  1  0.75000000  0.33808254  0.41191747  1
  Li  Li1_5  1  0.75000000  0.33808254  0.91191746  1
  Li  Li1_6  1  0.75000000  0.83808254  0.41191747  1
  Li  Li1_7  1  0.75000000  0.83808254  0.91191746  1
  Li  Li2_0  1  0.25000000  0.16191747  0.08808254  1
  Li  Li2_1  1  0.25000000  0.16191747  0.58808254  1
  Li  Li2_2  1  0.25000000  0.66191747  0.08808254  1
  Li  Li2_3  1  0.25000000  0.66191747  0.58808254  1
  Li  Li2_4  1  0.75000000  0.16191747  0.08808254  1
  Li  Li2_5  1  0.75000000  0.16191747  0.58808254  1
  Li  Li2_6  1  0.75000000  0.66191747  0.08808254  1
  Li  Li2_7  1  0.75000000  0.66191747  0.58808254  1
  Li  Li3_0  1  0.25000000  0.08808254  0.33808254  1
  Li  Li3_1  1  0.25000000  0.08808254  0.83808254  1
  Li  Li3_2  1  0.25000000  0.58808254  0.33808254  1
  Li  Li3_3  1  0.25000000  0.58808254  0.83808254  1
  Li  Li3_4  1  0.75000000  0.08808254  0.33808254  1
  Li  Li3_5  1  0.75000000  0.08808254  0.83808254  1
  Li  Li3_6  1  0.75000000  0.58808254  0.33808254  1
  Li  Li3_7  1  0.75000000  0.58808254  0.83808254  1
  Sn  Sn0_0  1  0.00000000  0.39687017  0.03599130  1
  Sn  Sn0_1  1  0.00000000  0.39687017  0.53599130  1
  Sn  Sn0_2  1  0.00000000  0.89687017  0.03599130  1
  Sn  Sn0_3  1  0.00000000  0.89687017  0.53599130  1
  Sn  Sn0_4  1  0.50000000  0.39687017  0.03599130  1
  Sn  Sn0_5  1  0.50000000  0.39687017  0.53599130  1
  Sn  Sn0_6  1  0.50000000  0.89687017  0.03599130  1
  Sn  Sn0_7  1  0.50000000  0.89687017  0.53599130  1
  Sn  Sn1_0  1  0.00000000  0.10312983  0.46400871  1
  Sn  Sn1_1  1  0.00000000  0.10312983  0.96400871  1
  Sn  Sn1_2  1  0.00000000  0.60312983  0.46400871  1
  Sn  Sn1_3  1  0.00000000  0.60312983  0.96400871  1
  Sn  Sn1_4  1  0.50000000  0.10312983  0.46400871  1
  Sn  Sn1_5  1  0.50000000  0.10312983  0.96400871  1
  Sn  Sn1_6  1  0.50000000  0.60312983  0.46400871  1
  Sn  Sn1_7  1  0.50000000  0.60312983  0.96400871  1
  Sn  Sn2_0  1  0.00000000  0.46400871  0.39687017  1
  Sn  Sn2_1  1  0.00000000  0.46400871  0.89687017  1
  Sn  Sn2_2  1  0.00000000  0.96400871  0.39687017  1
  Sn  Sn2_3  1  0.00000000  0.96400871  0.89687017  1
  Sn  Sn2_4  1  0.50000000  0.46400871  0.39687017  1
  Sn  Sn2_5  1  0.50000000  0.46400871  0.89687017  1
  Sn  Sn2_6  1  0.50000000  0.96400871  0.39687017  1
  Sn  Sn2_7  1  0.50000000  0.96400871  0.89687017  1
  Sn  Sn3_0  1  0.00000000  0.03599130  0.10312983  1
  Sn  Sn3_1  1  0.00000000  0.03599130  0.60312983  1
  Sn  Sn3_2  1  0.00000000  0.53599130  0.10312983  1
  Sn  Sn3_3  1  0.00000000  0.53599130  0.60312983  1
  Sn  Sn3_4  1  0.50000000  0.03599130  0.10312983  1
  Sn  Sn3_5  1  0.50000000  0.03599130  0.60312983  1
  Sn  Sn3_6  1  0.50000000  0.53599130  0.10312983  1
  Sn  Sn3_7  1  0.50000000  0.53599130  0.60312983  1
  Sn  Sn4_0  1  0.00000000  0.00000000  0.25000000  1
  Sn  Sn4_1  1  0.00000000  0.00000000  0.75000000  1
  Sn  Sn4_2  1  0.00000000  0.50000000  0.25000000  1
  Sn  Sn4_3  1  0.00000000  0.50000000  0.75000000  1
  Sn  Sn4_4  1  0.50000000  0.00000000  0.25000000  1
  Sn  Sn4_5  1  0.50000000  0.00000000  0.75000000  1
  Sn  Sn4_6  1  0.50000000  0.50000000  0.25000000  1
  Sn  Sn4_7  1  0.50000000  0.50000000  0.75000000  1
  Sn  Sn5_0  1  0.00000000  0.25000000  0.00000000  1
  Sn  Sn5_1  1  0.00000000  0.25000000  0.50000000  1
  Sn  Sn5_2  1  0.00000000  0.75000000  0.00000000  1
  Sn  Sn5_3  1  0.00000000  0.75000000  0.50000000  1
  Sn  Sn5_4  1  0.50000000  0.25000000  0.00000000  1
  Sn  Sn5_5  1  0.50000000  0.25000000  0.50000000  1
  Sn  Sn5_6  1  0.50000000  0.75000000  0.00000000  1
  Sn  Sn5_7  1  0.50000000  0.75000000  0.50000000  1
  Sn  Sn6_0  1  0.00000000  0.35312983  0.28599129  1
  Sn  Sn6_1  1  0.00000000  0.35312983  0.78599130  1
  Sn  Sn6_2  1  0.00000000  0.85312983  0.28599129  1
  Sn  Sn6_3  1  0.00000000  0.85312983  0.78599130  1
  Sn  Sn6_4  1  0.50000000  0.35312983  0.28599129  1
  Sn  Sn6_5  1  0.50000000  0.35312983  0.78599130  1
  Sn  Sn6_6  1  0.50000000  0.85312983  0.28599129  1
  Sn  Sn6_7  1  0.50000000  0.85312983  0.78599130  1
  Sn  Sn7_0  1  0.00000000  0.21400870  0.35312983  1
  Sn  Sn7_1  1  0.00000000  0.21400870  0.85312983  1
  Sn  Sn7_2  1  0.00000000  0.71400871  0.35312983  1
  Sn  Sn7_3  1  0.00000000  0.71400871  0.85312983  1
  Sn  Sn7_4  1  0.50000000  0.21400870  0.35312983  1
  Sn  Sn7_5  1  0.50000000  0.21400870  0.85312983  1
  Sn  Sn7_6  1  0.50000000  0.71400871  0.35312983  1
  Sn  Sn7_7  1  0.50000000  0.71400871  0.85312983  1
  Sn  Sn8_0  1  0.00000000  0.28599129  0.14687017  1
  Sn  Sn8_1  1  0.00000000  0.28599129  0.64687017  1
  Sn  Sn8_2  1  0.00000000  0.78599130  0.14687017  1
  Sn  Sn8_3  1  0.00000000  0.78599130  0.64687017  1
  Sn  Sn8_4  1  0.50000000  0.28599129  0.14687017  1
  Sn  Sn8_5  1  0.50000000  0.28599129  0.64687017  1
  Sn  Sn8_6  1  0.50000000  0.78599130  0.14687017  1
  Sn  Sn8_7  1  0.50000000  0.78599130  0.64687017  1
  Sn  Sn9_0  1  0.00000000  0.14687017  0.21400870  1
  Sn  Sn9_1  1  0.00000000  0.14687017  0.71400871  1
  Sn  Sn9_2  1  0.00000000  0.64687017  0.21400870  1
  Sn  Sn9_3  1  0.00000000  0.64687017  0.71400871  1
  Sn  Sn9_4  1  0.50000000  0.14687017  0.21400870  1
  Sn  Sn9_5  1  0.50000000  0.14687017  0.71400871  1
  Sn  Sn9_6  1  0.50000000  0.64687017  0.21400870  1
  Sn  Sn9_7  1  0.50000000  0.64687017  0.71400871  1
loop_
_geom_bond_atom_site_label_1
_geom_bond_atom_site_label_2
_geom_bond_distance
_geom_bond_site_symmetry_2
Li0_0 Sn4_2 2.998127 1_555
Li0_0 Sn4_6 2.998127 1_555
Li0_0 Sn0_4 3.037914 1_555
Li0_0 Sn0_0 3.037914 1_555
Li0_0 Sn8_4 3.037914 1_555
Li0_0 Sn8_0 3.037914 1_555
Li0_0 Li0_4 3.107176 1_555
Li0_0 Li0_4 3.107176 1_455
Li0_0 Sn6_4 3.225086 1_555
Li0_0 Sn6_0 3.225086 1_555
Li0_0 Sn3_2 3.225086 1_555
Li0_0 Sn3_6 3.225086 1_555
Li0_1 Sn4_3 2.998127 1_555
Li0_1 Sn4_7 2.998127 1_555
Li0_1 Sn0_1 3.037914 1_555
Li0_1 Sn0_5 3.037914 1_555
Li0_1 Sn8_5 3.037914 1_555
Li0_1 Sn8_1 3.037914 1_555
Li0_1 Li0_5 3.107176 1_455
Li0_1 Li0_5 3.107176 1_555
Li0_1 Sn6_5 3.225086 1_555
Li0_1 Sn6_1 3.225086 1_555
Li0_1 Sn3_7 3.225086 1_555
Li0_1 Sn3_3 3.225086 1_555
Li0_2 Sn4_0 2.998127 1_565
Li0_2 Sn4_4 2.998127 1_565
Li0_2 Sn8_2 3.037914 1_555
Li0_2 Sn8_6 3.037914 1_555
Li0_2 Sn0_2 3.037914 1_555
Li0_2 Sn0_6 3.037914 1_555
Li0_2 Li0_6 3.107176 1_455
Li0_2 Li0_6 3.107176 1_555
Li0_2 Sn6_2 3.225086 1_555
Li0_2 Sn6_6 3.225086 1_555
Li0_2 Sn3_4 3.225086 1_565
Li0_2 Sn3_0 3.225086 1_565
Li0_3 Sn4_1 2.998127 1_565
Li0_3 Sn4_5 2.998127 1_565
Li0_3 Sn8_3 3.037914 1_555
Li0_3 Sn8_7 3.037914 1_555
Li0_3 Sn0_7 3.037914 1_555
Li0_3 Sn0_3 3.037914 1_555
Li0_3 Li0_7 3.107176 1_555
Li0_3 Li0_7 3.107176 1_455
Li0_3 Sn6_7 3.225086 1_555
Li0_3 Sn6_3 3.225086 1_555
Li0_3 Sn3_5 3.225086 1_565
Li0_3 Sn3_1 3.225086 1_565
Li0_4 Sn4_2 2.998127 1_655
Li0_4 Sn4_6 2.998127 1_555
Li0_4 Sn0_4 3.037914 1_555
Li0_4 Sn0_0 3.037914 1_655
Li0_4 Sn8_4 3.037914 1_555
Li0_4 Sn8_0 3.037914 1_655
Li0_4 Sn6_0 3.225086 1_655
Li0_4 Sn6_4 3.225086 1_555
Li0_4 Sn3_6 3.225086 1_555
Li0_4 Sn3_2 3.225086 1_655
Li0_5 Sn4_3 2.998127 1_655
Li0_5 Sn4_7 2.998127 1_555
Li0_5 Sn0_5 3.037914 1_555
Li0_5 Sn0_1 3.037914 1_655
Li0_5 Sn8_5 3.037914 1_555
Li0_5 Sn8_1 3.037914 1_655
Li0_5 Sn6_1 3.225086 1_655
Li0_5 Sn6_5 3.225086 1_555
Li0_5 Sn3_7 3.225086 1_555
Li0_5 Sn3_3 3.225086 1_655
Li0_6 Sn4_0 2.998127 1_665
Li0_6 Sn4_4 2.998127 1_565
Li0_6 Sn8_2 3.037914 1_655
Li0_6 Sn8_6 3.037914 1_555
Li0_6 Sn0_2 3.037914 1_655
Li0_6 Sn0_6 3.037914 1_555
Li0_6 Sn6_6 3.225086 1_555
Li0_6 Sn6_2 3.225086 1_655
Li0_6 Sn3_0 3.225086 1_665
Li0_6 Sn3_4 3.225086 1_565
Li0_7 Sn4_1 2.998127 1_665
Li0_7 Sn4_5 2.998127 1_565
Li0_7 Sn8_3 3.037914 1_655
Li0_7 Sn8_7 3.037914 1_555
Li0_7 Sn0_7 3.037914 1_555
Li0_7 Sn0_3 3.037914 1_655
Li0_7 Sn6_7 3.225086 1_555
Li0_7 Sn6_3 3.225086 1_655
Li0_7 Sn3_5 3.225086 1_565
Li0_7 Sn3_1 3.225086 1_665
Li1_0 Sn5_5 2.998127 1_555
Li1_0 Sn5_1 2.998127 1_555
Li1_0 Sn2_0 3.037914 1_555
Li1_0 Sn2_4 3.037914 1_555
Li1_0 Sn6_4 3.037914 1_555
Li1_0 Sn6_0 3.037914 1_555
Li1_0 Li1_4 3.107176 1_555
Li1_0 Li1_4 3.107176 1_455
Li1_0 Sn7_4 3.225086 1_555
Li1_0 Sn7_0 3.225086 1_555
Li1_0 Sn0_5 3.225086 1_555
Li1_0 Sn0_1 3.225086 1_555
Li1_1 Sn5_0 2.998127 1_556
Li1_1 Sn5_4 2.998127 1_556
Li1_1 Sn6_1 3.037914 1_555
Li1_1 Sn6_5 3.037914 1_555
Li1_1 Sn2_1 3.037914 1_555
Li1_1 Sn2_5 3.037914 1_555
Li1_1 Li1_5 3.107176 1_455
Li1_1 Li1_5 3.107176 1_555
Li1_1 Sn7_1 3.225086 1_555
Li1_1 Sn7_5 3.225086 1_555
Li1_1 Sn0_0 3.225086 1_556
Li1_1 Sn0_4 3.225086 1_556
Li1_2 Sn5_7 2.998127 1_555
Li1_2 Sn5_3 2.998127 1_555
Li1_2 Sn2_2 3.037914 1_555
Li1_2 Sn2_6 3.037914 1_555
Li1_2 Sn6_2 3.037914 1_555
Li1_2 Sn6_6 3.037914 1_555
Li1_2 Li1_6 3.107176 1_555
Li1_2 Li1_6 3.107176 1_455
Li1_2 Sn0_3 3.225086 1_555
Li1_2 Sn0_7 3.225086 1_555
Li1_2 Sn7_2 3.225086 1_555
Li1_2 Sn7_6 3.225086 1_555
Li1_3 Sn5_2 2.998127 1_556
Li1_3 Sn5_6 2.998127 1_556
Li1_3 Sn6_7 3.037914 1_555
Li1_3 Sn6_3 3.037914 1_555
Li1_3 Sn2_7 3.037914 1_555
Li1_3 Sn2_3 3.037914 1_555
Li1_3 Li1_7 3.107176 1_455
Li1_3 Li1_7 3.107176 1_555
Li1_3 Sn7_3 3.225086 1_555
Li1_3 Sn7_7 3.225086 1_555
Li1_3 Sn0_2 3.225086 1_556
Li1_3 Sn0_6 3.225086 1_556
Li1_4 Sn5_5 2.998127 1_555
Li1_4 Sn5_1 2.998127 1_655
Li1_4 Sn2_0 3.037914 1_655
Li1_4 Sn2_4 3.037914 1_555
Li1_4 Sn6_0 3.037914 1_655
Li1_4 Sn6_4 3.037914 1_555
Li1_4 Sn7_4 3.225086 1_555
Li1_4 Sn7_0 3.225086 1_655
Li1_4 Sn0_1 3.225086 1_655
Li1_4 Sn0_5 3.225086 1_555
Li1_5 Sn5_0 2.998127 1_656
Li1_5 Sn5_4 2.998127 1_556
Li1_5 Sn6_1 3.037914 1_655
Li1_5 Sn6_5 3.037914 1_555
Li1_5 Sn2_5 3.037914 1_555
Li1_5 Sn2_1 3.037914 1_655
Li1_5 Sn7_1 3.225086 1_655
Li1_5 Sn7_5 3.225086 1_555
Li1_5 Sn0_0 3.225086 1_656
Li1_5 Sn0_4 3.225086 1_556
Li1_6 Sn5_7 2.998127 1_555
Li1_6 Sn5_3 2.998127 1_655
Li1_6 Sn2_2 3.037914 1_655
Li1_6 Sn2_6 3.037914 1_555
Li1_6 Sn6_6 3.037914 1_555
Li1_6 Sn6_2 3.037914 1_655
Li1_6 Sn0_3 3.225086 1_655
Li1_6 Sn0_7 3.225086 1_555
Li1_6 Sn7_6 3.225086 1_555
Li1_6 Sn7_2 3.225086 1_655
Li1_7 Sn5_6 2.998127 1_556
Li1_7 Sn5_2 2.998127 1_656
Li1_7 Sn6_3 3.037914 1_655
Li1_7 Sn6_7 3.037914 1_555
Li1_7 Sn2_7 3.037914 1_555
Li1_7 Sn2_3 3.037914 1_655
Li1_7 Sn7_3 3.225086 1_655
Li1_7 Sn7_7 3.225086 1_555
Li1_7 Sn0_6 3.225086 1_556
Li1_7 Sn0_2 3.225086 1_656
Li2_0 Sn5_4 2.998127 1_555
Li2_0 Sn5_0 2.998127 1_555
Li2_0 Sn9_0 3.037914 1_555
Li2_0 Sn9_4 3.037914 1_555
Li2_0 Sn3_4 3.037914 1_555
Li2_0 Sn3_0 3.037914 1_555
Li2_0 Li2_4 3.107176 1_455
Li2_0 Li2_4 3.107176 1_555
Li2_0 Sn8_0 3.225086 1_555
Li2_0 Sn8_4 3.225086 1_555
Li2_0 Sn1_1 3.225086 1_554
Li2_0 Sn1_5 3.225086 1_554
Li2_1 Sn5_1 2.998127 1_555
Li2_1 Sn5_5 2.998127 1_555
Li2_1 Sn9_1 3.037914 1_555
Li2_1 Sn9_5 3.037914 1_555
Li2_1 Sn3_5 3.037914 1_555
Li2_1 Sn3_1 3.037914 1_555
Li2_1 Li2_5 3.107176 1_455
Li2_1 Li2_5 3.107176 1_555
Li2_1 Sn8_5 3.225086 1_555
Li2_1 Sn8_1 3.225086 1_555
Li2_1 Sn1_0 3.225086 1_555
Li2_1 Sn1_4 3.225086 1_555
Li2_2 Sn5_2 2.998127 1_555
Li2_2 Sn5_6 2.998127 1_555
Li2_2 Sn3_2 3.037914 1_555
Li2_2 Sn3_6 3.037914 1_555
Li2_2 Sn9_2 3.037914 1_555
Li2_2 Sn9_6 3.037914 1_555
Li2_2 Li2_6 3.107176 1_455
Li2_2 Li2_6 3.107176 1_555
Li2_2 Sn8_6 3.225086 1_555
Li2_2 Sn1_3 3.225086 1_554
Li2_2 Sn8_2 3.225086 1_555
Li2_2 Sn1_7 3.225086 1_554
Li2_3 Sn5_3 2.998127 1_555
Li2_3 Sn5_7 2.998127 1_555
Li2_3 Sn9_3 3.037914 1_555
Li2_3 Sn9_7 3.037914 1_555
Li2_3 Sn3_3 3.037914 1_555
Li2_3 Sn3_7 3.037914 1_555
Li2_3 Li2_7 3.107176 1_555
Li2_3 Li2_7 3.107176 1_455
Li2_3 Sn8_7 3.225086 1_555
Li2_3 Sn8_3 3.225086 1_555
Li2_3 Sn1_2 3.225086 1_555
Li2_3 Sn1_6 3.225086 1_555
Li2_4 Sn5_0 2.998127 1_655
Li2_4 Sn5_4 2.998127 1_555
Li2_4 Sn9_4 3.037914 1_555
Li2_4 Sn9_0 3.037914 1_655
Li2_4 Sn3_4 3.037914 1_555
Li2_4 Sn3_0 3.037914 1_655
Li2_4 Sn8_0 3.225086 1_655
Li2_4 Sn8_4 3.225086 1_555
Li2_4 Sn1_1 3.225086 1_654
Li2_4 Sn1_5 3.225086 1_554
Li2_5 Sn5_5 2.998127 1_555
Li2_5 Sn5_1 2.998127 1_655
Li2_5 Sn9_5 3.037914 1_555
Li2_5 Sn9_1 3.037914 1_655
Li2_5 Sn3_5 3.037914 1_555
Li2_5 Sn3_1 3.037914 1_655
Li2_5 Sn8_5 3.225086 1_555
Li2_5 Sn8_1 3.225086 1_655
Li2_5 Sn1_4 3.225086 1_555
Li2_5 Sn1_0 3.225086 1_655
Li2_6 Sn5_2 2.998127 1_655
Li2_6 Sn5_6 2.998127 1_555
Li2_6 Sn3_6 3.037914 1_555
Li2_6 Sn3_2 3.037914 1_655
Li2_6 Sn9_2 3.037914 1_655
Li2_6 Sn9_6 3.037914 1_555
Li2_6 Sn8_6 3.225086 1_555
Li2_6 Sn8_2 3.225086 1_655
Li2_6 Sn1_3 3.225086 1_654
Li2_6 Sn1_7 3.225086 1_554
Li2_7 Sn5_7 2.998127 1_555
Li2_7 Sn5_3 2.998127 1_655
Li2_7 Sn3_3 3.037914 1_655
Li2_7 Sn9_7 3.037914 1_555
Li2_7 Sn9_3 3.037914 1_655
Li2_7 Sn3_7 3.037914 1_555
Li2_7 Sn8_7 3.225086 1_555
Li2_7 Sn8_3 3.225086 1_655
Li2_7 Sn1_6 3.225086 1_555
Li2_7 Sn1_2 3.225086 1_655
Li3_0 Sn4_4 2.998127 1_555
Li3_0 Sn4_0 2.998127 1_555
Li3_0 Sn7_0 3.037914 1_555
Li3_0 Sn1_0 3.037914 1_555
Li3_0 Sn1_4 3.037914 1_555
Li3_0 Sn7_4 3.037914 1_555
Li3_0 Li3_4 3.107176 1_455
Li3_0 Li3_4 3.107176 1_555
Li3_0 Sn2_2 3.225086 1_545
Li3_0 Sn2_6 3.225086 1_545
Li3_0 Sn9_4 3.225086 1_555
Li3_0 Sn9_0 3.225086 1_555
Li3_1 Sn4_5 2.998127 1_555
Li3_1 Sn4_1 2.998127 1_555
Li3_1 Sn1_1 3.037914 1_555
Li3_1 Sn1_5 3.037914 1_555
Li3_1 Sn7_1 3.037914 1_555
Li3_1 Sn7_5 3.037914 1_555
Li3_1 Li3_5 3.107176 1_555
Li3_1 Li3_5 3.107176 1_455
Li3_1 Sn2_7 3.225086 1_545
Li3_1 Sn2_3 3.225086 1_545
Li3_1 Sn9_1 3.225086 1_555
Li3_1 Sn9_5 3.225086 1_555
Li3_2 Sn4_2 2.998127 1_555
Li3_2 Sn4_6 2.998127 1_555
Li3_2 Sn7_6 3.037914 1_555
Li3_2 Sn7_2 3.037914 1_555
Li3_2 Sn1_2 3.037914 1_555
Li3_2 Sn1_6 3.037914 1_555
Li3_2 Li3_6 3.107176 1_555
Li3_2 Li3_6 3.107176 1_455
Li3_2 Sn9_6 3.225086 1_555
Li3_2 Sn9_2 3.225086 1_555
Li3_2 Sn2_0 3.225086 1_555
Li3_2 Sn2_4 3.225086 1_555
Li3_3 Sn4_3 2.998127 1_555
Li3_3 Sn4_7 2.998127 1_555
Li3_3 Sn1_3 3.037914 1_555
Li3_3 Sn7_7 3.037914 1_555
Li3_3 Sn7_3 3.037914 1_555
Li3_3 Sn1_7 3.037914 1_555
Li3_3 Li3_7 3.107176 1_555
Li3_3 Li3_7 3.107176 1_455
Li3_3 Sn9_3 3.225086 1_555
Li3_3 Sn9_7 3.225086 1_555
Li3_3 Sn2_1 3.225086 1_555
Li3_3 Sn2_5 3.225086 1_555
Li3_4 Sn4_0 2.998127 1_655
Li3_4 Sn4_4 2.998127 1_555
Li3_4 Sn1_0 3.037914 1_655
Li3_4 Sn7_0 3.037914 1_655
Li3_4 Sn1_4 3.037914 1_555
Li3_4 Sn7_4 3.037914 1_555
Li3_4 Sn2_6 3.225086 1_545
Li3_4 Sn2_2 3.225086 1_645
Li3_4 Sn9_4 3.225086 1_555
Li3_4 Sn9_0 3.225086 1_655
Li3_5 Sn4_5 2.998127 1_555
Li3_5 Sn4_1 2.998127 1_655
Li3_5 Sn1_1 3.037914 1_655
Li3_5 Sn1_5 3.037914 1_555
Li3_5 Sn7_1 3.037914 1_655
Li3_5 Sn7_5 3.037914 1_555
Li3_5 Sn2_7 3.225086 1_545
Li3_5 Sn2_3 3.225086 1_645
Li3_5 Sn9_5 3.225086 1_555
Li3_5 Sn9_1 3.225086 1_655
Li3_6 Sn4_2 2.998127 1_655
Li3_6 Sn4_6 2.998127 1_555
Li3_6 Sn7_6 3.037914 1_555
Li3_6 Sn7_2 3.037914 1_655
Li3_6 Sn1_6 3.037914 1_555
Li3_6 Sn1_2 3.037914 1_655
Li3_6 Sn9_2 3.225086 1_655
Li3_6 Sn9_6 3.225086 1_555
Li3_6 Sn2_4 3.225086 1_555
Li3_6 Sn2_0 3.225086 1_655
Li3_7 Sn4_3 2.998127 1_655
Li3_7 Sn4_7 2.998127 1_555
Li3_7 Sn7_7 3.037914 1_555
Li3_7 Sn7_3 3.037914 1_655
Li3_7 Sn1_7 3.037914 1_555
Li3_7 Sn1_3 3.037914 1_655
Li3_7 Sn9_7 3.225086 1_555
Li3_7 Sn9_3 3.225086 1_655
Li3_7 Sn2_1 3.225086 1_655
Li3_7 Sn2_5 3.225086 1_555
Sn0_0 Sn0_4 3.107176 1_555
Sn0_0 Sn0_4 3.107176 1_455
Sn0_0 Sn5_0 3.112753 1_555
Sn0_0 Sn2_1 3.179826 1_554
Sn0_0 Sn3_2 3.179826 1_555
Sn0_0 Sn8_0 3.227835 1_555
Sn0_1 Sn0_5 3.107176 1_455
Sn0_1 Sn0_5 3.107176 1_555
Sn0_1 Sn5_1 3.112753 1_555
Sn0_1 Sn3_3 3.179826 1_555
Sn0_1 Sn2_0 3.179826 1_555
Sn0_1 Sn8_1 3.227835 1_555
Sn0_2 Sn0_6 3.107176 1_455
Sn0_2 Sn0_6 3.107176 1_555
Sn0_2 Sn5_2 3.112753 1_555
Sn0_2 Sn2_3 3.179826 1_554
Sn0_2 Sn3_0 3.179826 1_565
Sn0_2 Sn8_2 3.227835 1_555
Sn0_3 Sn0_7 3.107176 1_555
Sn0_3 Sn0_7 3.107176 1_455
Sn0_3 Sn5_3 3.112753 1_555
Sn0_3 Sn3_1 3.179826 1_565
Sn0_3 Sn2_2 3.179826 1_555
Sn0_3 Sn8_3 3.227835 1_555
Sn0_4 Sn5_4 3.112753 1_555
Sn0_4 Sn2_5 3.179826 1_554
Sn0_4 Sn3_6 3.179826 1_555
Sn0_4 Sn8_4 3.227835 1_555
Sn0_5 Sn5_5 3.112753 1_555
Sn0_5 Sn3_7 3.179826 1_555
Sn0_5 Sn2_4 3.179826 1_555
Sn0_5 Sn8_5 3.227835 1_555
Sn0_6 Sn5_6 3.112753 1_555
Sn0_6 Sn2_7 3.179826 1_554
Sn0_6 Sn3_4 3.179826 1_565
Sn0_6 Sn8_6 3.227835 1_555
Sn0_7 Sn5_7 3.112753 1_555
Sn0_7 Sn3_5 3.179826 1_565
Sn0_7 Sn2_6 3.179826 1_555
Sn0_7 Sn8_7 3.227835 1_555
Sn1_0 Sn1_4 3.107176 1_455
Sn1_0 Sn1_4 3.107176 1_555
Sn1_0 Sn5_1 3.112753 1_555
Sn1_0 Sn3_1 3.179826 1_555
Sn1_0 Sn2_2 3.179826 1_545
Sn1_0 Sn7_0 3.227835 1_555
Sn1_1 Sn1_5 3.107176 1_555
Sn1_1 Sn1_5 3.107176 1_455
Sn1_1 Sn5_0 3.112753 1_556
Sn1_1 Sn2_3 3.179826 1_545
Sn1_1 Sn3_0 3.179826 1_556
Sn1_1 Sn7_1 3.227835 1_555
Sn1_2 Sn1_6 3.107176 1_455
Sn1_2 Sn1_6 3.107176 1_555
Sn1_2 Sn5_3 3.112753 1_555
Sn1_2 Sn3_3 3.179826 1_555
Sn1_2 Sn2_0 3.179826 1_555
Sn1_2 Sn7_2 3.227835 1_555
Sn1_3 Sn1_7 3.107176 1_455
Sn1_3 Sn1_7 3.107176 1_555
Sn1_3 Sn5_2 3.112753 1_556
Sn1_3 Sn2_1 3.179826 1_555
Sn1_3 Sn3_2 3.179826 1_556
Sn1_3 Sn7_3 3.227835 1_555
Sn1_4 Sn5_5 3.112753 1_555
Sn1_4 Sn3_5 3.179826 1_555
Sn1_4 Sn2_6 3.179826 1_545
Sn1_4 Sn7_4 3.227835 1_555
Sn1_5 Sn5_4 3.112753 1_556
Sn1_5 Sn2_7 3.179826 1_545
Sn1_5 Sn3_4 3.179826 1_556
Sn1_5 Sn7_5 3.227835 1_555
Sn1_6 Sn5_7 3.112753 1_555
Sn1_6 Sn3_7 3.179826 1_555
Sn1_6 Sn2_4 3.179826 1_555
Sn1_6 Sn7_6 3.227835 1_555
Sn1_7 Sn5_6 3.112753 1_556
Sn1_7 Sn2_5 3.179826 1_555
Sn1_7 Sn3_6 3.179826 1_556
Sn1_7 Sn7_7 3.227835 1_555
Sn2_0 Sn2_4 3.107176 1_455
Sn2_0 Sn2_4 3.107176 1_555
Sn2_0 Sn4_2 3.112753 1_555
Sn2_0 Sn6_0 3.227835 1_555
Sn2_1 Sn2_5 3.107176 1_455
Sn2_1 Sn2_5 3.107176 1_555
Sn2_1 Sn4_3 3.112753 1_555
Sn2_1 Sn6_1 3.227835 1_555
Sn2_2 Sn2_6 3.107176 1_555
Sn2_2 Sn2_6 3.107176 1_455
Sn2_2 Sn4_0 3.112753 1_565
Sn2_2 Sn6_2 3.227835 1_555
Sn2_3 Sn2_7 3.107176 1_555
Sn2_3 Sn2_7 3.107176 1_455
Sn2_3 Sn4_1 3.112753 1_565
Sn2_3 Sn6_3 3.227835 1_555
Sn2_4 Sn4_6 3.112753 1_555
Sn2_4 Sn6_4 3.227835 1_555
Sn2_5 Sn4_7 3.112753 1_555
Sn2_5 Sn6_5 3.227835 1_555
Sn2_6 Sn4_4 3.112753 1_565
Sn2_6 Sn6_6 3.227835 1_555
Sn2_7 Sn4_5 3.112753 1_565
Sn2_7 Sn6_7 3.227835 1_555
Sn3_0 Sn3_4 3.107176 1_455
Sn3_0 Sn3_4 3.107176 1_555
Sn3_0 Sn4_0 3.112753 1_555
Sn3_0 Sn9_0 3.227835 1_555
Sn3_1 Sn3_5 3.107176 1_555
Sn3_1 Sn3_5 3.107176 1_455
Sn3_1 Sn4_1 3.112753 1_555
Sn3_1 Sn9_1 3.227835 1_555
Sn3_2 Sn3_6 3.107176 1_555
Sn3_2 Sn3_6 3.107176 1_455
Sn3_2 Sn4_2 3.112753 1_555
Sn3_2 Sn9_2 3.227835 1_555
Sn3_3 Sn3_7 3.107176 1_555
Sn3_3 Sn3_7 3.107176 1_455
Sn3_3 Sn4_3 3.112753 1_555
Sn3_3 Sn9_3 3.227835 1_555
Sn3_4 Sn4_4 3.112753 1_555
Sn3_4 Sn9_4 3.227835 1_555
Sn3_5 Sn4_5 3.112753 1_555
Sn3_5 Sn9_5 3.227835 1_555
Sn3_6 Sn4_6 3.112753 1_555
Sn3_6 Sn9_6 3.227835 1_555
Sn3_7 Sn4_7 3.112753 1_555
Sn3_7 Sn9_7 3.227835 1_555
Sn4_0 Sn4_4 3.107176 1_455
Sn4_0 Sn4_4 3.107176 1_555
Sn4_0 Sn9_0 3.112753 1_555
Sn4_0 Sn6_2 3.112753 1_545
Sn4_1 Sn4_5 3.107176 1_555
Sn4_1 Sn4_5 3.107176 1_455
Sn4_1 Sn6_3 3.112753 1_545
Sn4_1 Sn9_1 3.112753 1_555
Sn4_2 Sn4_6 3.107176 1_555
Sn4_2 Sn4_6 3.107176 1_455
Sn4_2 Sn6_0 3.112753 1_555
Sn4_2 Sn9_2 3.112753 1_555
Sn4_3 Sn4_7 3.107176 1_555
Sn4_3 Sn4_7 3.107176 1_455
Sn4_3 Sn6_1 3.112753 1_555
Sn4_3 Sn9_3 3.112753 1_555
Sn4_4 Sn6_6 3.112753 1_545
Sn4_4 Sn9_4 3.112753 1_555
Sn4_5 Sn6_7 3.112753 1_545
Sn4_5 Sn9_5 3.112753 1_555
Sn4_6 Sn6_4 3.112753 1_555
Sn4_6 Sn9_6 3.112753 1_555
Sn4_7 Sn6_5 3.112753 1_555
Sn4_7 Sn9_7 3.112753 1_555
Sn5_0 Sn5_4 3.107176 1_555
Sn5_0 Sn5_4 3.107176 1_455
Sn5_0 Sn8_0 3.112753 1_555
Sn5_0 Sn7_1 3.112753 1_554
Sn5_1 Sn5_5 3.107176 1_555
Sn5_1 Sn5_5 3.107176 1_455
Sn5_1 Sn7_0 3.112753 1_555
Sn5_1 Sn8_1 3.112753 1_555
Sn5_2 Sn5_6 3.107176 1_455
Sn5_2 Sn5_6 3.107176 1_555
Sn5_2 Sn8_2 3.112753 1_555
Sn5_2 Sn7_3 3.112753 1_554
Sn5_3 Sn5_7 3.107176 1_555
Sn5_3 Sn5_7 3.107176 1_455
Sn5_3 Sn7_2 3.112753 1_555
Sn5_3 Sn8_3 3.112753 1_555
Sn5_4 Sn7_5 3.112753 1_554
Sn5_4 Sn8_4 3.112753 1_555
Sn5_5 Sn7_4 3.112753 1_555
Sn5_5 Sn8_5 3.112753 1_555
Sn5_6 Sn8_6 3.112753 1_555
Sn5_6 Sn7_7 3.112753 1_554
Sn5_7 Sn7_6 3.112753 1_555
Sn5_7 Sn8_7 3.112753 1_555
Sn6_0 Sn6_4 3.107176 1_455
Sn6_0 Sn6_4 3.107176 1_555
Sn6_0 Sn8_0 3.179826 1_555
Sn6_0 Sn7_0 3.179826 1_555
Sn6_1 Sn6_5 3.107176 1_455
Sn6_1 Sn6_5 3.107176 1_555
Sn6_1 Sn7_1 3.179826 1_555
Sn6_1 Sn8_1 3.179826 1_555
Sn6_2 Sn6_6 3.107176 1_455
Sn6_2 Sn6_6 3.107176 1_555
Sn6_2 Sn8_2 3.179826 1_555
Sn6_2 Sn7_2 3.179826 1_555
Sn6_3 Sn6_7 3.107176 1_455
Sn6_3 Sn6_7 3.107176 1_555
Sn6_3 Sn7_3 3.179826 1_555
Sn6_3 Sn8_3 3.179826 1_555
Sn6_4 Sn8_4 3.179826 1_555
Sn6_4 Sn7_4 3.179826 1_555
Sn6_5 Sn7_5 3.179826 1_555
Sn6_5 Sn8_5 3.179826 1_555
Sn6_6 Sn8_6 3.179826 1_555
Sn6_6 Sn7_6 3.179826 1_555
Sn6_7 Sn7_7 3.179826 1_555
Sn6_7 Sn8_7 3.179826 1_555
Sn7_0 Sn7_4 3.107176 1_555
Sn7_0 Sn7_4 3.107176 1_455
Sn7_0 Sn9_0 3.179826 1_555
Sn7_1 Sn7_5 3.107176 1_455
Sn7_1 Sn7_5 3.107176 1_555
Sn7_1 Sn9_1 3.179826 1_555
Sn7_2 Sn7_6 3.107176 1_555
Sn7_2 Sn7_6 3.107176 1_455
Sn7_2 Sn9_2 3.179826 1_555
Sn7_3 Sn7_7 3.107176 1_455
Sn7_3 Sn7_7 3.107176 1_555
Sn7_3 Sn9_3 3.179826 1_555
Sn7_4 Sn9_4 3.179826 1_555
Sn7_5 Sn9_5 3.179826 1_555
Sn7_6 Sn9_6 3.179826 1_555
Sn7_7 Sn9_7 3.179826 1_555
Sn8_0 Sn8_4 3.107176 1_455
Sn8_0 Sn8_4 3.107176 1_555
Sn8_0 Sn9_0 3.179826 1_555
Sn8_1 Sn8_5 3.107176 1_555
Sn8_1 Sn8_5 3.107176 1_455
Sn8_1 Sn9_1 3.179826 1_555
Sn8_2 Sn8_6 3.107176 1_455
Sn8_2 Sn8_6 3.107176 1_555
Sn8_2 Sn9_2 3.179826 1_555
Sn8_3 Sn8_7 3.107176 1_555
Sn8_3 Sn8_7 3.107176 1_455
Sn8_3 Sn9_3 3.179826 1_555
Sn8_4 Sn9_4 3.179826 1_555
Sn8_5 Sn9_5 3.179826 1_555
Sn8_6 Sn9_6 3.179826 1_555
Sn8_7 Sn9_7 3.179826 1_555
Sn9_0 Sn9_4 3.107176 1_455
Sn9_0 Sn9_4 3.107176 1_555
Sn9_1 Sn9_5 3.107176 1_555
Sn9_1 Sn9_5 3.107176 1_455
Sn9_2 Sn9_6 3.107176 1_455
Sn9_2 Sn9_6 3.107176 1_555
Sn9_3 Sn9_7 3.107176 1_555
Sn9_3 Sn9_7 3.107176 1_455
