# generated using pymatgen
data_Gd3NbO7
_symmetry_space_group_name_H-M   'P 1'
_cell_length_a   6.54220071
_cell_length_b   6.54220071
_cell_length_c   7.55339771
_cell_angle_alpha   90.00000000
_cell_angle_beta   90.00000000
_cell_angle_gamma   108.92009552
_symmetry_Int_Tables_number   1
_chemical_formula_structural   Gd3NbO7
_chemical_formula_sum   'Gd6 Nb2 O14'
_cell_volume   305.82164532
_cell_formula_units_Z   2
loop_
 _symmetry_equiv_pos_site_id
 _symmetry_equiv_pos_as_xyz
  1  'x, y, z'
loop_
 _atom_site_type_symbol
 _atom_site_label
 _atom_site_symmetry_multiplicity
 _atom_site_fract_x
 _atom_site_fract_y
 _atom_site_fract_z
 _atom_site_occupancy
  Gd  Gd0  1  0.46434150  0.00095935  0.25933212  1
  Gd  Gd1  1  0.99904065  0.53565850  0.24066788  1
  Gd  Gd2  1  0.46748212  0.46748212  0.00000000  1
  Gd  Gd3  1  0.53251788  0.53251788  0.50000000  1
  Gd  Gd4  1  0.53565850  0.99904065  0.75933212  1
  Gd  Gd5  1  0.00095935  0.46434150  0.74066788  1
  Nb  Nb0  1  0.00196196  0.00196196  0.50000000  1
  Nb  Nb1  1  0.99803804  0.99803804  0.00000000  1
  O  O0  1  0.93223030  0.06776970  0.75000000  1
  O  O1  1  0.63854968  0.36145032  0.75000000  1
  O  O2  1  0.30636513  0.05163799  0.54452943  1
  O  O3  1  0.94836201  0.69363487  0.95547057  1
  O  O4  1  0.62879872  0.37120128  0.25000000  1
  O  O5  1  0.91702756  0.67151154  0.52275939  1
  O  O6  1  0.32848846  0.08297244  0.97724061  1
  O  O7  1  0.08297244  0.32848846  0.02275939  1
  O  O8  1  0.67151154  0.91702756  0.47724061  1
  O  O9  1  0.37120128  0.62879872  0.75000000  1
  O  O10  1  0.69363487  0.94836201  0.04452943  1
  O  O11  1  0.05163799  0.30636513  0.45547057  1
  O  O12  1  0.36145032  0.63854968  0.25000000  1
  O  O13  1  0.06776970  0.93223030  0.25000000  1
loop_
_geom_bond_atom_site_label_1
_geom_bond_atom_site_label_2
_geom_bond_distance
_geom_bond_site_symmetry_2
Gd0 O12 2.246003 1_545
Gd0 O8 2.308734 1_545
Gd0 O10 2.309951 1_545
Gd0 O4 2.310749 1_555
Gd0 O6 2.434574 1_554
Gd0 O2 2.457825 1_555
Gd0 O13 2.486325 1_545
Gd1 O12 2.246003 1_655
Gd1 O7 2.308734 1_655
Gd1 O11 2.309951 1_655
Gd1 O4 2.310749 1_555
Gd1 O5 2.434574 1_555
Gd1 O3 2.457825 1_554
Gd1 O13 2.486325 1_655
Gd2 O9 2.346810 1_554
Gd2 O4 2.346810 1_555
Gd2 O6 2.387669 1_554
Gd2 O7 2.387669 1_555
Gd2 O12 2.408947 1_555
Gd2 O1 2.408947 1_554
Gd2 O3 3.030021 1_554
Gd2 O10 3.030021 1_555
Gd3 O9 2.346810 1_555
Gd3 O4 2.346810 1_555
Gd3 O5 2.387669 1_555
Gd3 O8 2.387669 1_555
Gd3 O12 2.408947 1_555
Gd3 O1 2.408947 1_555
Gd3 O2 3.030021 1_555
Gd3 O11 3.030021 1_555
Gd4 O1 2.246003 1_565
Gd4 O6 2.308734 1_565
Gd4 O2 2.309951 1_565
Gd4 O9 2.310749 1_555
Gd4 O8 2.434574 1_555
Gd4 O10 2.457825 1_556
Gd4 O0 2.486325 1_565
Gd5 O1 2.246003 1_455
Gd5 O5 2.308734 1_455
Gd5 O3 2.309951 1_455
Gd5 O9 2.310749 1_555
Gd5 O7 2.434574 1_556
Gd5 O11 2.457825 1_555
Gd5 O0 2.486325 1_455
Nb0 O11 1.940354 1_555
Nb0 O2 1.940354 1_555
Nb0 O13 2.021560 1_545
Nb0 O0 2.021560 1_455
Nb0 O8 2.057423 1_445
Nb0 O5 2.057423 1_445
Nb1 O3 1.940354 1_554
Nb1 O10 1.940354 1_555
Nb1 O13 2.021560 1_655
Nb1 O0 2.021560 1_564
Nb1 O7 2.057423 1_665
Nb1 O6 2.057423 1_664
