# generated using pymatgen
data_Li7NbS6
_symmetry_space_group_name_H-M   'P 1'
_cell_length_a   10.18192900
_cell_length_b   10.18192900
_cell_length_c   10.18192900
_cell_angle_alpha   90.00000000
_cell_angle_beta   90.00000000
_cell_angle_gamma   90.00000000
_symmetry_Int_Tables_number   1
_chemical_formula_structural   Li7NbS6
_chemical_formula_sum   'Li28 Nb4 S24'
_cell_volume   1055.57766635
_cell_formula_units_Z   4
loop_
 _symmetry_equiv_pos_site_id
 _symmetry_equiv_pos_as_xyz
  1  'x, y, z'
loop_
 _atom_site_type_symbol
 _atom_site_label
 _atom_site_symmetry_multiplicity
 _atom_site_fract_x
 _atom_site_fract_y
 _atom_site_fract_z
 _atom_site_occupancy
  Li  Li0  1  0.02169900  0.83517200  0.67752500  1
  Li  Li1  1  0.01027300  0.28106200  0.19030400  1
  Li  Li2  1  0.11589700  0.61589700  0.88410300  1
  Li  Li3  1  0.16482800  0.17752500  0.47830100  1
  Li  Li4  1  0.17752500  0.47830100  0.16482800  1
  Li  Li5  1  0.19030400  0.01027300  0.28106200  1
  Li  Li6  1  0.21893800  0.80969600  0.51027300  1
  Li  Li7  1  0.28106200  0.19030400  0.01027300  1
  Li  Li8  1  0.30969600  0.98972700  0.78106200  1
  Li  Li9  1  0.32247500  0.52169900  0.66482800  1
  Li  Li10  1  0.33517200  0.82247500  0.97830100  1
  Li  Li11  1  0.38410300  0.38410300  0.38410300  1
  Li  Li12  1  0.48972700  0.71893800  0.69030400  1
  Li  Li13  1  0.47830100  0.16482800  0.17752500  1
  Li  Li14  1  0.52169900  0.66482800  0.32247500  1
  Li  Li15  1  0.51027300  0.21893800  0.80969600  1
  Li  Li16  1  0.61589700  0.88410300  0.11589700  1
  Li  Li17  1  0.66482800  0.32247500  0.52169900  1
  Li  Li18  1  0.67752500  0.02169900  0.83517200  1
  Li  Li19  1  0.69030400  0.48972700  0.71893800  1
  Li  Li20  1  0.71893800  0.69030400  0.48972700  1
  Li  Li21  1  0.78106200  0.30969600  0.98972700  1
  Li  Li22  1  0.80969600  0.51027300  0.21893800  1
  Li  Li23  1  0.82247500  0.97830100  0.33517200  1
  Li  Li24  1  0.83517200  0.67752500  0.02169900  1
  Li  Li25  1  0.88410300  0.11589700  0.61589700  1
  Li  Li26  1  0.98972700  0.78106200  0.30969600  1
  Li  Li27  1  0.97830100  0.33517200  0.82247500  1
  Nb  Nb0  1  0.00861300  0.49138700  0.50861300  1
  Nb  Nb1  1  0.49138700  0.50861300  0.00861300  1
  Nb  Nb2  1  0.50861300  0.00861300  0.49138700  1
  Nb  Nb3  1  0.99138700  0.99138700  0.99138700  1
  S  S0  1  0.02634900  0.97365100  0.47365100  1
  S  S1  1  0.11146500  0.12228900  0.85395800  1
  S  S2  1  0.12228900  0.85395800  0.11146500  1
  S  S3  1  0.13760500  0.36239500  0.63760500  1
  S  S4  1  0.14604200  0.61146500  0.37771100  1
  S  S5  1  0.25548600  0.75548600  0.74451400  1
  S  S6  1  0.24451400  0.24451400  0.24451400  1
  S  S7  1  0.35395800  0.38853500  0.87771100  1
  S  S8  1  0.36239500  0.63760500  0.13760500  1
  S  S9  1  0.37771100  0.14604200  0.61146500  1
  S  S10  1  0.38853500  0.87771100  0.35395800  1
  S  S11  1  0.47365100  0.02634900  0.97365100  1
  S  S12  1  0.52634900  0.52634900  0.52634900  1
  S  S13  1  0.61146500  0.37771100  0.14604200  1
  S  S14  1  0.62228900  0.64604200  0.88853500  1
  S  S15  1  0.63760500  0.13760500  0.36239500  1
  S  S16  1  0.64604200  0.88853500  0.62228900  1
  S  S17  1  0.75548600  0.74451400  0.25548600  1
  S  S18  1  0.74451400  0.25548600  0.75548600  1
  S  S19  1  0.85395800  0.11146500  0.12228900  1
  S  S20  1  0.86239500  0.86239500  0.86239500  1
  S  S21  1  0.87771100  0.35395800  0.38853500  1
  S  S22  1  0.88853500  0.62228900  0.64604200  1
  S  S23  1  0.97365100  0.47365100  0.02634900  1
loop_
_geom_bond_atom_site_label_1
_geom_bond_atom_site_label_2
_geom_bond_distance
_geom_bond_site_symmetry_2
Li0 S20 2.500193 1_455
Li0 S0 2.509854 1_555
Li0 S22 2.576712 1_455
Li0 S5 2.605733 1_555
Li1 S19 2.448401 1_455
Li1 S6 2.476184 1_555
Li1 S21 2.538999 1_455
Li1 S23 2.602134 1_455
Li2 S5 2.461738 1_555
Li2 S23 2.508596 1_456
Li3 S3 2.500193 1_555
Li3 S0 2.509854 1_545
Li3 S9 2.576712 1_555
Li3 S6 2.605733 1_555
Li4 S8 2.500193 1_555
Li4 S23 2.509854 1_455
Li4 S4 2.576712 1_555
Li4 S6 2.605733 1_555
Li5 S2 2.448401 1_545
Li5 S6 2.476184 1_555
Li5 S10 2.538999 1_545
Li5 S0 2.602134 1_545
Li6 S10 2.448401 1_555
Li6 S5 2.476184 1_555
Li6 S4 2.538999 1_555
Li6 S0 2.602134 1_555
Li7 S1 2.448401 1_554
Li7 S6 2.476184 1_555
Li7 S7 2.538999 1_554
Li7 S11 2.602134 1_554
Li8 S9 2.448401 1_565
Li8 S5 2.476184 1_555
Li8 S1 2.538999 1_565
Li8 S11 2.602134 1_565
Li9 S3 2.500193 1_555
Li9 S12 2.509854 1_555
Li9 S7 2.576712 1_555
Li9 S5 2.605733 1_555
Li10 S8 2.500193 1_556
Li10 S11 2.509854 1_565
Li10 S2 2.576712 1_556
Li10 S5 2.605733 1_555
Li11 S6 2.461738 1_555
Li11 S12 2.508596 1_555
Li12 S16 2.448401 1_555
Li12 S5 2.476184 1_555
Li12 S14 2.538999 1_555
Li12 S12 2.602134 1_555
Li13 S15 2.500193 1_555
Li13 S11 2.509854 1_554
Li13 S13 2.576712 1_555
Li13 S6 2.605733 1_555
Li14 S8 2.500193 1_555
Li14 S12 2.509854 1_555
Li14 S10 2.576712 1_555
Li14 S17 2.605733 1_555
Li15 S7 2.448401 1_555
Li15 S18 2.476184 1_555
Li15 S9 2.538999 1_555
Li15 S11 2.602134 1_555
Li16 S17 2.461738 1_555
Li16 S11 2.508596 1_564
Li17 S15 2.500193 1_555
Li17 S12 2.509854 1_555
Li17 S21 2.576712 1_555
Li17 S18 2.605733 1_555
Li18 S20 2.500193 1_545
Li18 S11 2.509854 1_555
Li18 S16 2.576712 1_545
Li18 S18 2.605733 1_555
Li19 S14 2.448401 1_555
Li19 S18 2.476184 1_555
Li19 S22 2.538999 1_555
Li19 S12 2.602134 1_555
Li20 S22 2.448401 1_555
Li20 S17 2.476184 1_555
Li20 S16 2.538999 1_555
Li20 S12 2.602134 1_555
Li21 S13 2.448401 1_556
Li21 S18 2.476184 1_555
Li21 S19 2.538999 1_556
Li21 S23 2.602134 1_556
Li22 S21 2.448401 1_555
Li22 S17 2.476184 1_555
Li22 S13 2.538999 1_555
Li22 S23 2.602134 1_555
Li23 S15 2.500193 1_565
Li23 S0 2.509854 1_655
Li23 S19 2.576712 1_565
Li23 S17 2.605733 1_555
Li24 S20 2.500193 1_554
Li24 S23 2.509854 1_555
Li24 S14 2.576712 1_554
Li24 S17 2.605733 1_555
Li25 S18 2.461738 1_555
Li25 S0 2.508596 1_645
Li26 S4 2.448401 1_655
Li26 S17 2.476184 1_555
Li26 S2 2.538999 1_655
Li26 S0 2.602134 1_655
Li27 S3 2.500193 1_655
Li27 S23 2.509854 1_556
Li27 S1 2.576712 1_655
Li27 S18 2.605733 1_555
Nb0 S3 2.274854 1_555
Nb0 S21 2.286762 1_455
Nb0 S4 2.286762 1_555
Nb0 S22 2.286762 1_455
Nb1 S8 2.274854 1_555
Nb1 S7 2.286762 1_554
Nb1 S13 2.286762 1_555
Nb1 S14 2.286762 1_554
Nb2 S15 2.274854 1_555
Nb2 S16 2.286762 1_545
Nb2 S10 2.286762 1_545
Nb2 S9 2.286762 1_555
Nb3 S20 2.274854 1_555
Nb3 S1 2.286762 1_665
Nb3 S19 2.286762 1_566
Nb3 S2 2.286762 1_656
