# generated using pymatgen
data_Li3Fe8(BO3)8
_symmetry_space_group_name_H-M   'P 1'
_cell_length_a   5.29285700
_cell_length_b   9.01982613
_cell_length_c   11.41498301
_cell_angle_alpha   113.23402249
_cell_angle_beta   102.47741811
_cell_angle_gamma   89.92797869
_symmetry_Int_Tables_number   1
_chemical_formula_structural   Li3Fe8(BO3)8
_chemical_formula_sum   'Li3 Fe8 B8 O24'
_cell_volume   486.78953864
_cell_formula_units_Z   1
loop_
 _symmetry_equiv_pos_site_id
 _symmetry_equiv_pos_as_xyz
  1  'x, y, z'
loop_
 _atom_site_type_symbol
 _atom_site_label
 _atom_site_symmetry_multiplicity
 _atom_site_fract_x
 _atom_site_fract_y
 _atom_site_fract_z
 _atom_site_occupancy
  Li  Li0  1  0.83897400  0.18605000  0.35733200  1
  Li  Li1  1  0.39085500  0.04623000  0.09733200  1
  Li  Li2  1  0.56999600  0.90519700  0.83625300  1
  Fe  Fe0  1  0.59835000  0.59023500  0.86164200  1
  Fe  Fe1  1  0.91105400  0.88122400  0.11679800  1
  Fe  Fe2  1  0.15048000  0.47420900  0.62222800  1
  Fe  Fe3  1  0.34797300  0.01719000  0.37566500  1
  Fe  Fe4  1  0.66059900  0.98357100  0.62520500  1
  Fe  Fe5  1  0.85273200  0.52800200  0.37239400  1
  Fe  Fe6  1  0.08895900  0.10568600  0.87359900  1
  Fe  Fe7  1  0.39646600  0.40291300  0.12542700  1
  B  B0  1  0.35074200  0.34929200  0.36411000  1
  B  B1  1  0.11291700  0.77090600  0.87312200  1
  B  B2  1  0.85875000  0.85972700  0.37481900  1
  B  B3  1  0.59435400  0.26508400  0.87549300  1
  B  B4  1  0.13461300  0.13767600  0.61512100  1
  B  B5  1  0.40269000  0.72876500  0.11876200  1
  B  B6  1  0.65561300  0.64299700  0.62264300  1
  B  B7  1  0.89250600  0.23472000  0.13380500  1
  O  O0  1  0.86511500  0.77407800  0.90012100  1
  O  O1  1  0.54916300  0.54066500  0.66697700  1
  O  O2  1  0.77174400  0.10169500  0.13658100  1
  O  O3  1  0.46498200  0.20950400  0.36061700  1
  O  O4  1  0.11304100  0.37696400  0.39851500  1
  O  O5  1  0.22188700  0.62590200  0.82770400  1
  O  O6  1  0.70089600  0.39074900  0.86001300  1
  O  O7  1  0.96758800  0.96899700  0.33429900  1
  O  O8  1  0.30893500  0.88493600  0.17079900  1
  O  O9  1  0.36488500  0.09087600  0.57050600  1
  O  O10  1  0.01598300  0.26133000  0.59817000  1
  O  O11  1  0.60296100  0.71611200  0.05608600  1
  O  O12  1  0.39261300  0.27944600  0.93812300  1
  O  O13  1  0.63641800  0.90339600  0.42404500  1
  O  O14  1  0.68616900  0.11028300  0.82663500  1
  O  O15  1  0.03160400  0.04220800  0.66785800  1
  O  O16  1  0.29377000  0.60386000  0.13276500  1
  O  O17  1  0.78189000  0.38328100  0.17146000  1
  O  O18  1  0.85846600  0.59554900  0.56008400  1
  O  O19  1  0.56963000  0.79401700  0.64704500  1
  O  O20  1  0.96208500  0.72195900  0.36693100  1
  O  O21  1  0.24898500  0.91466700  0.89776400  1
  O  O22  1  0.46953400  0.45785200  0.32891000  1
  O  O23  1  0.12773700  0.22567300  0.09484000  1
loop_
_geom_bond_atom_site_label_1
_geom_bond_atom_site_label_2
_geom_bond_distance
_geom_bond_site_symmetry_2
Li0 O3 1.997320 1_555
Li0 O7 2.008308 1_545
Li0 O4 2.088892 1_655
Li0 O2 2.270641 1_555
Li0 O10 2.512478 1_655
Li1 O2 1.987621 1_555
Li1 O8 2.032037 1_545
Li1 O21 2.071678 1_544
Li1 O23 2.138574 1_555
Li2 O21 1.963402 1_555
Li2 O19 1.989918 1_555
Li2 O14 2.001078 1_565
Li2 O0 2.133938 1_555
Fe0 O6 1.872973 1_555
Fe0 O5 1.996761 1_555
Fe0 O0 2.024724 1_555
Fe0 O1 2.042511 1_555
Fe0 O11 2.050512 1_556
Fe1 O11 2.015159 1_555
Fe1 O8 2.058879 1_655
Fe1 O2 2.064753 1_565
Fe1 O0 2.228328 1_554
Fe1 O7 2.238132 1_555
Fe2 O10 1.942167 1_555
Fe2 O18 2.055344 1_455
Fe2 O1 2.090190 1_555
Fe2 O5 2.145362 1_555
Fe2 O4 2.311806 1_555
Fe3 O3 1.925040 1_555
Fe3 O13 1.941199 1_545
Fe3 O7 1.973539 1_445
Fe3 O9 2.035742 1_555
Fe3 O8 2.127287 1_545
Fe4 O19 1.899326 1_555
Fe4 O15 1.938845 1_665
Fe4 O9 1.956298 1_565
Fe4 O13 2.091688 1_555
Fe4 O14 2.098571 1_565
Fe5 O20 1.871819 1_555
Fe5 O18 1.975958 1_555
Fe5 O4 1.995343 1_655
Fe5 O22 2.020098 1_555
Fe5 O17 2.091124 1_555
Fe6 O21 2.008089 1_545
Fe6 O12 2.041079 1_555
Fe6 O14 2.087489 1_455
Fe6 O15 2.137060 1_555
Fe6 O23 2.282875 1_556
Fe7 O16 1.866833 1_555
Fe7 O12 1.978535 1_554
Fe7 O23 2.012825 1_555
Fe7 O17 2.019493 1_555
Fe7 O22 2.120026 1_555
B0 O3 1.387736 1_555
B0 O4 1.390962 1_555
B0 O22 1.391663 1_555
B1 O5 1.379999 1_555
B1 O21 1.380673 1_555
B1 O0 1.408425 1_455
B2 O20 1.335179 1_555
B2 O13 1.402008 1_555
B2 O7 1.411887 1_555
B3 O6 1.355241 1_555
B3 O12 1.387266 1_555
B3 O14 1.413440 1_555
B4 O10 1.338536 1_555
B4 O15 1.397549 1_555
B4 O9 1.421383 1_555
B5 O16 1.345626 1_555
B5 O11 1.382561 1_555
B5 O8 1.431359 1_555
B6 O19 1.376254 1_555
B6 O1 1.385126 1_555
B6 O18 1.391011 1_555
B7 O2 1.374736 1_555
B7 O23 1.401794 1_655
B7 O17 1.405512 1_555
