# generated using pymatgen
data_Mn6OF11
_symmetry_space_group_name_H-M   'P 1'
_cell_length_a   5.91765200
_cell_length_b   4.95145300
_cell_length_c   16.18459262
_cell_angle_alpha   89.88854205
_cell_angle_beta   90.00000000
_cell_angle_gamma   90.00000000
_symmetry_Int_Tables_number   1
_chemical_formula_structural   Mn6OF11
_chemical_formula_sum   'Mn12 O2 F22'
_cell_volume   474.22345866
_cell_formula_units_Z   2
loop_
 _symmetry_equiv_pos_site_id
 _symmetry_equiv_pos_as_xyz
  1  'x, y, z'
loop_
 _atom_site_type_symbol
 _atom_site_label
 _atom_site_symmetry_multiplicity
 _atom_site_fract_x
 _atom_site_fract_y
 _atom_site_fract_z
 _atom_site_occupancy
  Mn  Mn0  1  0.16552600  0.00000000  0.00000000  1
  Mn  Mn1  1  0.83224500  0.00895000  0.82699700  1
  Mn  Mn2  1  0.18623100  0.97140800  0.65819400  1
  Mn  Mn3  1  0.18623100  0.02859200  0.34180600  1
  Mn  Mn4  1  0.83224500  0.99105000  0.17300300  1
  Mn  Mn5  1  0.84137800  0.00000000  0.50000000  1
  Mn  Mn6  1  0.32935500  0.50101700  0.16807000  1
  Mn  Mn7  1  0.35079800  0.50000000  0.50000000  1
  Mn  Mn8  1  0.32935500  0.49898300  0.83193000  1
  Mn  Mn9  1  0.64493900  0.50593100  0.66223800  1
  Mn  Mn10  1  0.67210900  0.50000000  0.00000000  1
  Mn  Mn11  1  0.64493900  0.49406900  0.33776200  1
  O  O0  1  0.38908200  0.30661200  0.39701100  1
  O  O1  1  0.38908200  0.69338800  0.60298900  1
  F  F0  1  0.10088400  0.23378200  0.88906800  1
  F  F1  1  0.11006300  0.22049500  0.22656700  1
  F  F2  1  0.12154400  0.22821700  0.55218000  1
  F  F3  1  0.88270300  0.24229600  0.71437600  1
  F  F4  1  0.89296100  0.22679300  0.06030800  1
  F  F5  1  0.88647100  0.22830400  0.38895800  1
  F  F6  1  0.39089100  0.25381100  0.72285200  1
  F  F7  1  0.60575100  0.26924400  0.88896300  1
  F  F8  1  0.39275500  0.27162300  0.05755000  1
  F  F9  1  0.60554600  0.27423400  0.22663100  1
  F  F10  1  0.61367600  0.26476400  0.55473900  1
  F  F11  1  0.60554600  0.72576600  0.77336900  1
  F  F12  1  0.39275500  0.72837700  0.94245000  1
  F  F13  1  0.60575100  0.73075600  0.11103700  1
  F  F14  1  0.61367600  0.73523600  0.44526100  1
  F  F15  1  0.39089100  0.74618900  0.27714800  1
  F  F16  1  0.11006300  0.77950500  0.77343300  1
  F  F17  1  0.10088400  0.76621800  0.11093200  1
  F  F18  1  0.89296100  0.77320700  0.93969200  1
  F  F19  1  0.88647100  0.77169600  0.61104200  1
  F  F20  1  0.12154400  0.77178300  0.44782000  1
  F  F21  1  0.88270300  0.75770400  0.28562400  1
loop_
_geom_bond_atom_site_label_1
_geom_bond_atom_site_label_2
_geom_bond_distance
_geom_bond_site_symmetry_2
Mn2 O1 2.034472 1_555
Mn3 O0 2.034472 1_555
Mn7 O0 1.937209 1_555
Mn7 O1 1.937209 1_555
Mn9 O1 2.017426 1_555
Mn11 O0 2.017426 1_555
F0 Mn8 2.098260 1_555
F0 Mn0 2.168320 1_556
F0 Mn1 2.186335 1_455
F1 Mn6 2.122387 1_555
F1 Mn3 2.139563 1_555
F1 Mn4 2.179196 1_445
F2 Mn7 2.088116 1_555
F2 Mn2 2.167695 1_545
F2 Mn5 2.177738 1_455
F3 Mn9 2.095575 1_555
F3 Mn1 2.176751 1_555
F3 Mn2 2.420090 1_645
F4 Mn10 2.117924 1_555
F4 Mn4 2.193177 1_545
F4 Mn0 2.195353 1_655
F5 Mn11 2.111130 1_555
F5 Mn5 2.137991 1_555
F5 Mn3 2.170207 1_655
F6 Mn2 2.126691 1_545
F6 Mn8 2.175135 1_555
F6 Mn9 2.185438 1_555
F7 Mn1 2.113849 1_555
F7 Mn10 2.167302 1_556
F7 Mn8 2.194809 1_555
F8 Mn0 2.118814 1_555
F8 Mn6 2.153673 1_555
F8 Mn10 2.207931 1_555
F9 Mn11 2.117025 1_555
F9 Mn4 2.126933 1_545
F9 Mn6 2.196894 1_555
F10 Mn5 2.079344 1_555
F10 Mn9 2.120200 1_555
F10 Mn7 2.134824 1_555
F11 Mn9 2.117025 1_555
F11 Mn1 2.126933 1_565
F11 Mn8 2.196894 1_555
F12 Mn0 2.118814 1_566
F12 Mn8 2.153673 1_555
F12 Mn10 2.207931 1_556
F13 Mn4 2.113849 1_555
F13 Mn10 2.167302 1_555
F13 Mn6 2.194809 1_555
F14 Mn5 2.079344 1_565
F14 Mn11 2.120200 1_555
F14 Mn7 2.134824 1_555
F15 Mn3 2.126691 1_565
F15 Mn6 2.175135 1_555
F15 Mn11 2.185438 1_555
F16 Mn8 2.122387 1_555
F16 Mn2 2.139563 1_555
F16 Mn1 2.179196 1_465
F17 Mn6 2.098260 1_555
F17 Mn0 2.168320 1_565
F17 Mn4 2.186335 1_455
F18 Mn10 2.117924 1_556
F18 Mn1 2.193177 1_565
F18 Mn0 2.195353 1_666
F19 Mn9 2.111130 1_555
F19 Mn5 2.137991 1_565
F19 Mn2 2.170207 1_655
F20 Mn7 2.088116 1_555
F20 Mn3 2.167695 1_565
F20 Mn5 2.177738 1_465
F21 Mn11 2.095575 1_555
F21 Mn4 2.176751 1_555
F21 Mn3 2.420090 1_665
