# generated using pymatgen
data_LiTiO2
_symmetry_space_group_name_H-M   'P 1'
_cell_length_a   5.83094661
_cell_length_b   5.83094661
_cell_length_c   5.83094661
_cell_angle_alpha   120.49134975
_cell_angle_beta   120.26658763
_cell_angle_gamma   89.34496226
_symmetry_Int_Tables_number   1
_chemical_formula_structural   LiTiO2
_chemical_formula_sum   'Li4 Ti4 O8'
_cell_volume   139.37166012
_cell_formula_units_Z   4
loop_
 _symmetry_equiv_pos_site_id
 _symmetry_equiv_pos_as_xyz
  1  'x, y, z'
loop_
 _atom_site_type_symbol
 _atom_site_label
 _atom_site_symmetry_multiplicity
 _atom_site_fract_x
 _atom_site_fract_y
 _atom_site_fract_z
 _atom_site_occupancy
  Li  Li0  1  0.00000000  0.50000000  0.50000000  1
  Li  Li1  1  0.00000000  0.50000000  0.00000000  1
  Li  Li2  1  0.00000000  -0.00000000  0.50000000  1
  Li  Li3  1  0.50000000  -0.00000000  0.50000000  1
  Ti  Ti0  1  0.00000000  -0.00000000  0.00000000  1
  Ti  Ti1  1  0.50000000  -0.00000000  0.00000000  1
  Ti  Ti2  1  0.50000000  0.50000000  0.50000000  1
  Ti  Ti3  1  0.50000000  0.50000000  0.00000000  1
  O  O0  1  0.72884979  0.25000000  0.47884979  1
  O  O1  1  0.25020733  0.25020733  0.50000000  1
  O  O2  1  0.25020733  0.75020733  0.00000000  1
  O  O3  1  0.27115021  0.75000000  0.52115021  1
  O  O4  1  0.75847883  0.75000000  0.00847883  1
  O  O5  1  0.74979267  0.74979267  0.50000000  1
  O  O6  1  0.74979267  0.24979267  -0.00000000  1
  O  O7  1  0.24152117  0.25000000  0.99152117  1
loop_
_geom_bond_atom_site_label_1
_geom_bond_atom_site_label_2
_geom_bond_distance
_geom_bond_site_symmetry_2
Li0 O2 2.049734 1_556
Li0 O6 2.049734 1_455
Li0 O5 2.049734 1_455
Li0 O1 2.049734 1_555
Li0 O0 2.076937 1_455
Li0 O3 2.076937 1_555
Li1 O4 2.015155 1_455
Li1 O7 2.015155 1_554
Li1 O2 2.075021 1_555
Li1 O6 2.075021 1_455
Li1 O0 2.138493 1_454
Li1 O3 2.138493 1_555
Li2 O7 2.015155 1_555
Li2 O4 2.015155 1_445
Li2 O5 2.075021 1_445
Li2 O1 2.075021 1_555
Li2 O0 2.138493 1_455
Li2 O3 2.138493 1_545
Li3 O2 2.049734 1_545
Li3 O6 2.049734 1_556
Li3 O5 2.049734 1_545
Li3 O1 2.049734 1_555
Li3 O3 2.076937 1_545
Li3 O0 2.076937 1_555
O0 Ti1 1.964646 1_555
O0 Ti2 1.964646 1_555
O1 Ti3 2.049734 1_556
O1 Ti0 2.049734 1_555
O1 Ti2 2.071582 1_555
O2 Ti3 2.049734 1_555
O2 Ti0 2.049734 1_565
O2 Ti1 2.071582 1_565
O3 Ti2 1.964646 1_555
O3 Ti1 1.964646 1_566
O4 Ti0 2.073886 1_665
O4 Ti3 2.073886 1_555
O4 Ti2 2.084900 1_554
O4 Ti1 2.084900 1_565
O5 Ti0 2.049734 1_666
O5 Ti3 2.049734 1_555
O5 Ti2 2.071582 1_555
O6 Ti0 2.049734 1_655
O6 Ti3 2.049734 1_555
O6 Ti1 2.071582 1_555
O7 Ti3 2.073886 1_556
O7 Ti0 2.073886 1_556
O7 Ti2 2.084900 1_556
O7 Ti1 2.084900 1_556
