# generated using pymatgen
data_Hg(BiO3)2
_symmetry_space_group_name_H-M   'P 1'
_cell_length_a   5.00043560
_cell_length_b   5.00043560
_cell_length_c   10.38698211
_cell_angle_alpha   90.00000000
_cell_angle_beta   90.00000000
_cell_angle_gamma   90.00072095
_symmetry_Int_Tables_number   1
_chemical_formula_structural   Hg(BiO3)2
_chemical_formula_sum   'Hg2 Bi4 O12'
_cell_volume   259.71980040
_cell_formula_units_Z   2
loop_
 _symmetry_equiv_pos_site_id
 _symmetry_equiv_pos_as_xyz
  1  'x, y, z'
loop_
 _atom_site_type_symbol
 _atom_site_label
 _atom_site_symmetry_multiplicity
 _atom_site_fract_x
 _atom_site_fract_y
 _atom_site_fract_z
 _atom_site_occupancy
  Hg  Hg0  1  -0.00000000  -0.00000000  0.00000094  1
  Hg  Hg1  1  0.50000000  0.50000000  0.50000255  1
  Bi  Bi0  1  -0.00000000  -0.00000000  0.33248253  1
  Bi  Bi1  1  -0.00000000  -0.00000000  0.66751425  1
  Bi  Bi2  1  0.50000000  0.50000000  0.16751236  1
  Bi  Bi3  1  0.50000000  0.50000000  0.83248830  1
  O  O0  1  0.20039019  0.79960981  0.82301437  1
  O  O1  1  0.20039755  0.79960245  0.17699096  1
  O  O2  1  0.18437809  0.81562191  0.49999832  1
  O  O3  1  0.31562339  0.31562339  0.00000216  1
  O  O4  1  0.29959956  0.29959956  0.32300845  1
  O  O5  1  0.29960834  0.29960834  0.67698528  1
  O  O6  1  0.70040044  0.70040044  0.32300845  1
  O  O7  1  0.70039166  0.70039166  0.67698528  1
  O  O8  1  0.68437661  0.68437661  0.00000216  1
  O  O9  1  0.81562191  0.18437809  0.49999832  1
  O  O10  1  0.79960245  0.20039755  0.17699096  1
  O  O11  1  0.79960981  0.20039019  0.82301437  1
loop_
_geom_bond_atom_site_label_1
_geom_bond_atom_site_label_2
_geom_bond_distance
_geom_bond_site_symmetry_2
Hg0 O8 2.231975 1_445
Hg0 O3 2.231975 1_555
Hg0 O0 2.321151 1_544
Hg0 O11 2.321151 1_454
Hg0 O1 2.321211 1_545
Hg0 O10 2.321211 1_455
Hg1 O2 2.231992 1_555
Hg1 O9 2.231992 1_555
Hg1 O7 2.321115 1_555
Hg1 O5 2.321115 1_555
Hg1 O4 2.321246 1_555
Hg1 O6 2.321246 1_555
Bi0 O6 2.120944 1_445
Bi0 O4 2.120944 1_555
Bi0 O1 2.148684 1_545
Bi0 O10 2.148684 1_455
Bi0 O9 2.174310 1_455
Bi0 O2 2.174310 1_545
Bi1 O5 2.121005 1_555
Bi1 O7 2.121005 1_445
Bi1 O0 2.148717 1_545
Bi1 O11 2.148717 1_455
Bi1 O9 2.174311 1_455
Bi1 O2 2.174311 1_545
Bi2 O1 2.120993 1_555
Bi2 O10 2.120993 1_555
Bi2 O6 2.148721 1_555
Bi2 O4 2.148721 1_555
Bi2 O3 2.174247 1_555
Bi2 O8 2.174247 1_555
Bi3 O0 2.121043 1_555
Bi3 O11 2.121043 1_555
Bi3 O7 2.148734 1_555
Bi3 O5 2.148734 1_555
Bi3 O3 2.174278 1_556
Bi3 O8 2.174278 1_556
