# generated using pymatgen
data_Li3Co2(SiO4)2
_symmetry_space_group_name_H-M   'P 1'
_cell_length_a   5.22969095
_cell_length_b   5.23094021
_cell_length_c   6.41702061
_cell_angle_alpha   89.83289922
_cell_angle_beta   89.87707029
_cell_angle_gamma   88.58526747
_symmetry_Int_Tables_number   1
_chemical_formula_structural   Li3Co2(SiO4)2
_chemical_formula_sum   'Li3 Co2 Si2 O8'
_cell_volume   175.49066869
_cell_formula_units_Z   1
loop_
 _symmetry_equiv_pos_site_id
 _symmetry_equiv_pos_as_xyz
  1  'x, y, z'
loop_
 _atom_site_type_symbol
 _atom_site_label
 _atom_site_symmetry_multiplicity
 _atom_site_fract_x
 _atom_site_fract_y
 _atom_site_fract_z
 _atom_site_occupancy
  Li  Li0  1  0.81253900  0.80918300  0.75254400  1
  Li  Li1  1  0.68502700  0.31536400  0.49993600  1
  Li  Li2  1  0.19084700  0.18718200  0.24723500  1
  Co  Co0  1  0.82289200  0.81782900  0.24324200  1
  Co  Co1  1  0.18180300  0.17718200  0.75663100  1
  Si  Si0  1  0.67613000  0.32491200  0.99980300  1
  Si  Si1  1  0.31683200  0.68297700  0.50010000  1
  O  O0  1  0.80777300  0.20153100  0.78404900  1
  O  O1  1  0.79795300  0.19295600  0.21543200  1
  O  O2  1  0.73162700  0.63156200  0.00585500  1
  O  O3  1  0.63430700  0.71361000  0.49108500  1
  O  O4  1  0.36857700  0.26714200  0.99319400  1
  O  O5  1  0.28508500  0.36664500  0.50993700  1
  O  O6  1  0.18995900  0.81775300  0.70779400  1
  O  O7  1  0.18313500  0.80968700  0.29316900  1
loop_
_geom_bond_atom_site_label_1
_geom_bond_atom_site_label_2
_geom_bond_distance
_geom_bond_site_symmetry_2
Li0 O2 1.921518 1_556
Li0 O3 1.992066 1_555
Li0 O6 1.995540 1_655
Li0 O0 2.062402 1_565
Li1 O0 2.017512 1_555
Li1 O1 2.018750 1_555
Li1 O3 2.094135 1_555
Li1 O5 2.102992 1_555
Li2 O4 1.924861 1_554
Li2 O7 1.997061 1_545
Li2 O5 2.000400 1_555
Li2 O1 2.064730 1_455
Co0 O2 1.879468 1_555
Co0 O7 1.911102 1_655
Co0 O3 1.952960 1_555
Co0 O1 1.970982 1_565
Co1 O4 1.874343 1_555
Co1 O6 1.906416 1_545
Co1 O5 1.947715 1_555
Co1 O0 1.964613 1_455
O0 Si0 1.669288 1_555
O1 Si0 1.665369 1_554
O2 Si0 1.637735 1_554
O3 Si1 1.672805 1_555
O4 Si0 1.644524 1_555
O5 Si1 1.668094 1_555
O6 Si1 1.640779 1_555
O7 Si1 1.633226 1_555
