# generated using pymatgen
data_Ba2Ti6N2O11
_symmetry_space_group_name_H-M   'P 1'
_cell_length_a   7.95460278
_cell_length_b   7.95460278
_cell_length_c   9.19408657
_cell_angle_alpha   81.72700309
_cell_angle_beta   81.72700309
_cell_angle_gamma   28.74894010
_symmetry_Int_Tables_number   1
_chemical_formula_structural   Ba2Ti6N2O11
_chemical_formula_sum   'Ba2 Ti6 N2 O11'
_cell_volume   276.70758258
_cell_formula_units_Z   1
loop_
 _symmetry_equiv_pos_site_id
 _symmetry_equiv_pos_as_xyz
  1  'x, y, z'
loop_
 _atom_site_type_symbol
 _atom_site_label
 _atom_site_symmetry_multiplicity
 _atom_site_fract_x
 _atom_site_fract_y
 _atom_site_fract_z
 _atom_site_occupancy
  Ba  Ba0  1  0.54302000  0.54302000  0.23606900  1
  Ba  Ba1  1  0.44393300  0.44393300  0.77194600  1
  Ti  Ti0  1  0.11087900  0.11087900  0.90733700  1
  Ti  Ti1  1  0.16833400  0.16833400  0.56210300  1
  Ti  Ti2  1  0.23359200  0.23359200  0.22888200  1
  Ti  Ti3  1  0.75366000  0.75366000  0.75958400  1
  Ti  Ti4  1  0.82232800  0.82232800  0.43706700  1
  Ti  Ti5  1  0.86458900  0.86458900  0.10004200  1
  N  N0  1  0.70079500  0.70079500  0.57449200  1
  N  N1  1  0.75558900  0.75558900  0.23427100  1
  O  O0  1  0.07033700  0.07033700  0.70654800  1
  O  O1  1  0.12645900  0.12645900  0.38318000  1
  O  O2  1  0.15890500  0.15890500  0.08895000  1
  O  O3  1  0.63358700  0.63358700  0.88793500  1
  O  O4  1  0.23794100  0.23794100  0.76381900  1
  O  O5  1  0.29624600  0.29624600  0.42523500  1
  O  O6  1  0.35794000  0.35794000  0.10550500  1
  O  O7  1  0.83283400  0.83283400  0.90605000  1
  O  O8  1  0.86771400  0.86771400  0.61408200  1
  O  O9  1  0.92215800  0.92215800  0.29003400  1
  O  O10  1  0.99808800  0.99808800  0.99680100  1
loop_
_geom_bond_atom_site_label_1
_geom_bond_atom_site_label_2
_geom_bond_distance
_geom_bond_site_symmetry_2
Ba0 O9 2.709392 1_545
Ba0 O9 2.709392 1_455
Ba0 O1 2.810591 1_655
Ba0 O1 2.810591 1_565
Ba0 O2 2.863787 1_655
Ba0 O2 2.863787 1_565
Ba0 O10 3.109855 1_454
Ba0 O10 3.109855 1_544
Ba0 O6 3.254808 1_555
Ba0 N1 3.273518 1_555
Ba0 O3 3.296340 1_554
Ba1 O0 2.776365 1_655
Ba1 O0 2.776365 1_565
Ba1 O7 2.779276 1_455
Ba1 O7 2.779276 1_545
Ba1 O8 2.809385 1_455
Ba1 O8 2.809385 1_545
Ba1 O10 3.063138 1_545
Ba1 O10 3.063138 1_455
Ba1 O6 3.154991 1_556
Ba1 O4 3.186529 1_555
Ba1 O3 3.256668 1_555
N0 Ti3 1.992886 1_555
N0 Ti1 2.044501 1_565
N0 Ti1 2.044501 1_655
N0 Ti4 2.097947 1_555
N1 Ti5 1.931047 1_555
N1 Ti2 2.005538 1_565
N1 Ti2 2.005538 1_655
N1 Ti4 2.259209 1_555
O0 Ti1 1.857065 1_555
O0 Ti0 2.034948 1_555
O1 Ti1 1.854180 1_555
O1 Ti2 2.010628 1_555
O2 Ti2 1.849313 1_555
O2 Ti0 1.924335 1_554
O3 Ti0 2.008871 1_565
O3 Ti0 2.008871 1_655
O3 Ti3 2.041581 1_555
O4 Ti3 1.989276 1_545
O4 Ti3 1.989276 1_455
O4 Ti0 2.192705 1_555
O4 Ti1 2.276244 1_555
O5 Ti4 2.021438 1_545
O5 Ti4 2.021438 1_455
O5 Ti2 2.170077 1_555
O5 Ti1 2.175427 1_555
O6 Ti5 1.977704 1_545
O6 Ti5 1.977704 1_455
O6 Ti2 2.076853 1_555
O7 Ti5 1.918321 1_556
O7 Ti3 1.946873 1_555
O8 Ti4 1.864441 1_555
O8 Ti3 2.044644 1_555
O9 Ti4 1.891179 1_555
O9 Ti5 2.073369 1_555
O10 Ti0 1.809224 1_665
O10 Ti5 2.133921 1_556
