# generated using pymatgen
data_Li3Fe2(PO4)3
_symmetry_space_group_name_H-M   'P 1'
_cell_length_a   8.75837120
_cell_length_b   8.75837120
_cell_length_c   8.71305200
_cell_angle_alpha   60.25531282
_cell_angle_beta   60.25531282
_cell_angle_gamma   59.72603522
_symmetry_Int_Tables_number   1
_chemical_formula_structural   Li3Fe2(PO4)3
_chemical_formula_sum   'Li6 Fe4 P6 O24'
_cell_volume   473.42711210
_cell_formula_units_Z   2
loop_
 _symmetry_equiv_pos_site_id
 _symmetry_equiv_pos_as_xyz
  1  'x, y, z'
loop_
 _atom_site_type_symbol
 _atom_site_label
 _atom_site_symmetry_multiplicity
 _atom_site_fract_x
 _atom_site_fract_y
 _atom_site_fract_z
 _atom_site_occupancy
  Li  Li0  1  0.35461100  0.03557400  0.67366800  1
  Li  Li1  1  0.35997300  0.62480200  0.74617600  1
  Li  Li2  1  0.88683300  0.74150800  0.70045700  1
  Li  Li3  1  0.62480200  0.35997300  0.24617600  1
  Li  Li4  1  0.03557400  0.35461100  0.17366800  1
  Li  Li5  1  0.74150800  0.88683300  0.20045700  1
  Fe  Fe0  1  0.85468900  0.35379800  0.85655800  1
  Fe  Fe1  1  0.15372700  0.64679200  0.14217600  1
  Fe  Fe2  1  0.64679200  0.15372700  0.64217600  1
  Fe  Fe3  1  0.35379800  0.85468900  0.35655800  1
  P  P0  1  0.47193400  0.24997700  0.04180700  1
  P  P1  1  0.95080200  0.04521300  0.25491800  1
  P  P2  1  0.04521300  0.95080200  0.75491800  1
  P  P3  1  0.24997700  0.47193400  0.54180700  1
  P  P4  1  0.75174000  0.53052500  0.45612300  1
  P  P5  1  0.53052500  0.75174000  0.95612300  1
  O  O0  1  0.76440900  0.06064700  0.42142400  1
  O  O1  1  0.92840300  0.24148300  0.09740400  1
  O  O2  1  0.24148300  0.92840300  0.59740400  1
  O  O3  1  0.75499900  0.47923200  0.65041500  1
  O  O4  1  0.72107000  0.37716700  0.44373300  1
  O  O5  1  0.89027000  0.97968900  0.69565500  1
  O  O6  1  0.47923200  0.75499900  0.15041500  1
  O  O7  1  0.52520700  0.25814500  0.84124700  1
  O  O8  1  0.97968900  0.89027000  0.19565500  1
  O  O9  1  0.55277700  0.93398400  0.79299600  1
  O  O10  1  0.37716700  0.72107000  0.94373300  1
  O  O11  1  0.47436900  0.05386200  0.18673600  1
  O  O12  1  0.72337100  0.59420900  0.92153300  1
  O  O13  1  0.29096300  0.61875900  0.55345900  1
  O  O14  1  0.00603500  0.11536800  0.80609100  1
  O  O15  1  0.11536800  0.00603500  0.30609100  1
  O  O16  1  0.59420900  0.72337100  0.42153300  1
  O  O17  1  0.61875900  0.29096300  0.05345900  1
  O  O18  1  0.93398400  0.55277700  0.29299600  1
  O  O19  1  0.27425500  0.39983100  0.08187800  1
  O  O20  1  0.25814500  0.52520700  0.34124700  1
  O  O21  1  0.06064700  0.76440900  0.92142400  1
  O  O22  1  0.39983100  0.27425500  0.58187800  1
  O  O23  1  0.05386200  0.47436900  0.68673600  1
loop_
_geom_bond_atom_site_label_1
_geom_bond_atom_site_label_2
_geom_bond_distance
_geom_bond_site_symmetry_2
Li0 O22 2.006991 1_555
Li0 O9 2.049539 1_545
Li0 O2 2.124674 1_545
Li0 O14 2.508746 1_555
Li0 O10 2.577706 1_545
Li1 O13 2.077300 1_555
Li1 O2 2.227138 1_555
Li1 O21 2.312558 1_555
Li1 O10 2.349871 1_555
Li1 O16 2.561188 1_555
Li1 O19 2.568134 1_556
Li1 O7 2.637657 1_555
Li2 O12 2.020997 1_555
Li2 O23 2.069186 1_655
Li2 O5 2.080826 1_555
Li2 O9 2.467201 1_555
Li3 O17 2.077300 1_555
Li3 O1 2.227138 1_555
Li3 O0 2.312558 1_555
Li3 O4 2.349871 1_555
Li3 O12 2.561188 1_554
Li3 O22 2.568134 1_555
Li3 O20 2.637657 1_555
Li4 O19 2.006991 1_555
Li4 O18 2.049539 1_455
Li4 O1 2.124674 1_455
Li4 O15 2.508746 1_555
Li4 O4 2.577706 1_455
Li5 O16 2.020997 1_555
Li5 O11 2.069186 1_565
Li5 O8 2.080826 1_555
Li5 O18 2.467201 1_555
Fe0 O3 1.956109 1_555
Fe0 O14 1.962922 1_655
Fe0 O23 2.023184 1_655
Fe0 O12 2.042519 1_555
Fe0 O17 2.051364 1_556
Fe0 O1 2.108049 1_556
Fe1 O20 1.933441 1_555
Fe1 O10 2.013085 1_554
Fe1 O8 2.022827 1_455
Fe1 O18 2.030646 1_455
Fe1 O21 2.041674 1_554
Fe1 O19 2.084212 1_555
Fe2 O7 1.933441 1_555
Fe2 O4 2.013085 1_555
Fe2 O5 2.022827 1_545
Fe2 O9 2.030646 1_545
Fe2 O0 2.041674 1_555
Fe2 O22 2.084212 1_555
Fe3 O6 1.956109 1_555
Fe3 O15 1.962922 1_565
Fe3 O11 2.023184 1_565
Fe3 O16 2.042519 1_555
Fe3 O13 2.051364 1_555
Fe3 O2 2.108049 1_555
O0 P1 1.552444 1_555
O1 P1 1.569453 1_555
O2 P2 1.569453 1_555
O3 P4 1.532595 1_555
O4 P4 1.557031 1_555
O5 P2 1.546520 1_655
O6 P5 1.532595 1_554
O7 P0 1.541784 1_556
O8 P1 1.546520 1_565
O9 P5 1.547108 1_555
O10 P5 1.557031 1_555
O11 P0 1.543670 1_555
O12 P5 1.550835 1_555
O13 P3 1.556911 1_555
O14 P2 1.543109 1_545
O15 P1 1.543109 1_455
O16 P4 1.550835 1_555
O17 P0 1.556911 1_555
O18 P4 1.547108 1_555
O19 P0 1.551062 1_555
O20 P3 1.541784 1_555
O21 P2 1.552444 1_555
O22 P3 1.551062 1_555
O23 P3 1.543670 1_555
