# generated using pymatgen
data_Li2VPO5
_symmetry_space_group_name_H-M   'P 1'
_cell_length_a   5.13017600
_cell_length_b   12.66659100
_cell_length_c   13.17187197
_cell_angle_alpha   61.97958907
_cell_angle_beta   90.00000000
_cell_angle_gamma   90.00000000
_symmetry_Int_Tables_number   1
_chemical_formula_structural   Li2VPO5
_chemical_formula_sum   'Li16 V8 P8 O40'
_cell_volume   755.60033627
_cell_formula_units_Z   8
loop_
 _symmetry_equiv_pos_site_id
 _symmetry_equiv_pos_as_xyz
  1  'x, y, z'
loop_
 _atom_site_type_symbol
 _atom_site_label
 _atom_site_symmetry_multiplicity
 _atom_site_fract_x
 _atom_site_fract_y
 _atom_site_fract_z
 _atom_site_occupancy
  Li  Li0  1  0.73177000  0.81993400  0.35927800  1
  Li  Li1  1  0.76388700  0.34077300  0.08859000  1
  Li  Li2  1  0.21773400  0.17724200  0.14893100  1
  Li  Li3  1  0.72821100  0.57595600  0.58714000  1
  Li  Li4  1  0.22821100  0.92404400  0.41286000  1
  Li  Li5  1  0.71773400  0.32275800  0.85106900  1
  Li  Li6  1  0.76823000  0.31993400  0.35927800  1
  Li  Li7  1  0.73611300  0.84077300  0.08859000  1
  Li  Li8  1  0.26388700  0.15922700  0.91141000  1
  Li  Li9  1  0.23177000  0.68006600  0.64072200  1
  Li  Li10  1  0.28226600  0.67724200  0.14893100  1
  Li  Li11  1  0.77178900  0.07595600  0.58714000  1
  Li  Li12  1  0.27178900  0.42404400  0.41286000  1
  Li  Li13  1  0.78226600  0.82275800  0.85106900  1
  Li  Li14  1  0.23611300  0.65922700  0.91141000  1
  Li  Li15  1  0.26823000  0.18006600  0.64072200  1
  V  V0  1  0.73008600  0.13359000  0.05925900  1
  V  V1  1  0.26106000  0.69229100  0.43858100  1
  V  V2  1  0.76991400  0.63359000  0.05925900  1
  V  V3  1  0.76106000  0.80770900  0.56141900  1
  V  V4  1  0.23894000  0.19229100  0.43858100  1
  V  V5  1  0.23008600  0.36641000  0.94074100  1
  V  V6  1  0.73894000  0.30770900  0.56141900  1
  V  V7  1  0.26991400  0.86641000  0.94074100  1
  P  P0  1  0.22043800  0.92783800  0.16101200  1
  P  P1  1  0.23257400  0.41362000  0.66311700  1
  P  P2  1  0.27956200  0.42783800  0.16101200  1
  P  P3  1  0.73257400  0.08638000  0.33688300  1
  P  P4  1  0.26742600  0.91362000  0.66311700  1
  P  P5  1  0.72043800  0.57216200  0.83898800  1
  P  P6  1  0.76742600  0.58638000  0.33688300  1
  P  P7  1  0.77956200  0.07216200  0.83898800  1
  O  O0  1  0.92635400  0.95528800  0.12920600  1
  O  O1  1  0.02748400  0.22518900  0.98916900  1
  O  O2  1  0.37570700  0.04460300  0.12482300  1
  O  O3  1  0.61900600  0.65626000  0.38781600  1
  O  O4  1  0.24526400  0.85282900  0.29324000  1
  O  O5  1  0.15559100  0.35776900  0.10199500  1
  O  O6  1  0.80927300  0.14392600  0.20731100  1
  O  O7  1  0.93304400  0.40728300  0.64515500  1
  O  O8  1  0.96397800  0.72100900  0.50344800  1
  O  O9  1  0.57364600  0.45528800  0.12920600  1
  O  O10  1  0.47251600  0.72518900  0.98916900  1
  O  O11  1  0.32917200  0.54577400  0.60340800  1
  O  O12  1  0.82917200  0.95422600  0.39659200  1
  O  O13  1  0.12429300  0.54460300  0.12482300  1
  O  O14  1  0.46397800  0.77899100  0.49655200  1
  O  O15  1  0.43304400  0.09271700  0.35484500  1
  O  O16  1  0.88099400  0.15626000  0.38781600  1
  O  O17  1  0.25473600  0.35282900  0.29324000  1
  O  O18  1  0.30927300  0.35607400  0.79268900  1
  O  O19  1  0.65559100  0.14223100  0.89800500  1
  O  O20  1  0.34440900  0.85776900  0.10199500  1
  O  O21  1  0.69072700  0.64392600  0.20731100  1
  O  O22  1  0.74526400  0.64717100  0.70676000  1
  O  O23  1  0.11900600  0.84374000  0.61218400  1
  O  O24  1  0.56695600  0.90728300  0.64515500  1
  O  O25  1  0.53602200  0.22100900  0.50344800  1
  O  O26  1  0.87570700  0.45539700  0.87517700  1
  O  O27  1  0.17082800  0.04577400  0.60340800  1
  O  O28  1  0.67082800  0.45422600  0.39659200  1
  O  O29  1  0.52748400  0.27481100  0.01083100  1
  O  O30  1  0.42635400  0.54471200  0.87079400  1
  O  O31  1  0.03602200  0.27899100  0.49655200  1
  O  O32  1  0.06695600  0.59271700  0.35484500  1
  O  O33  1  0.19072700  0.85607400  0.79268900  1
  O  O34  1  0.84440900  0.64223100  0.89800500  1
  O  O35  1  0.75473600  0.14717100  0.70676000  1
  O  O36  1  0.38099400  0.34374000  0.61218400  1
  O  O37  1  0.62429300  0.95539700  0.87517700  1
  O  O38  1  0.97251600  0.77481100  0.01083100  1
  O  O39  1  0.07364600  0.04471200  0.87079400  1
loop_
_geom_bond_atom_site_label_1
_geom_bond_atom_site_label_2
_geom_bond_distance
_geom_bond_site_symmetry_2
Li0 O3 2.010439 1_555
Li0 O12 2.042120 1_555
Li0 O8 2.087982 1_555
Li0 O14 2.131831 1_555
Li1 O29 2.005502 1_555
Li1 O9 2.017880 1_555
Li1 O5 2.037491 1_655
Li1 O6 2.247906 1_555
Li1 O26 2.550364 1_554
Li2 O2 2.020293 1_555
Li2 O5 2.093897 1_555
Li2 O1 2.132838 1_554
Li2 O6 2.203527 1_455
Li2 O29 2.291106 1_555
Li2 O15 2.644691 1_555
Li3 O8 2.037382 1_555
Li3 O11 2.075063 1_555
Li3 O22 2.153910 1_555
Li3 O7 2.172299 1_555
Li3 O3 2.394247 1_555
Li4 O14 2.037382 1_555
Li4 O12 2.075063 1_455
Li4 O4 2.153910 1_555
Li4 O15 2.172299 1_565
Li4 O23 2.394247 1_555
Li5 O26 2.020293 1_555
Li5 O19 2.093897 1_555
Li5 O29 2.132838 1_556
Li5 O18 2.203527 1_555
Li5 O1 2.291106 1_655
Li5 O7 2.644691 1_555
Li6 O16 2.010439 1_555
Li6 O28 2.042120 1_555
Li6 O25 2.087982 1_555
Li6 O31 2.131831 1_655
Li7 O38 2.005502 1_555
Li7 O0 2.017880 1_555
Li7 O20 2.037491 1_555
Li7 O21 2.247906 1_555
Li7 O37 2.550364 1_554
Li8 O1 2.005502 1_555
Li8 O39 2.017880 1_555
Li8 O19 2.037491 1_555
Li8 O18 2.247906 1_555
Li8 O2 2.550364 1_556
Li9 O23 2.010439 1_555
Li9 O11 2.042120 1_555
Li9 O14 2.087982 1_555
Li9 O8 2.131831 1_455
Li10 O13 2.020293 1_555
Li10 O20 2.093897 1_555
Li10 O10 2.132838 1_554
Li10 O21 2.203527 1_555
Li10 O38 2.291106 1_455
Li10 O32 2.644691 1_555
Li11 O25 2.037382 1_555
Li11 O27 2.075063 1_655
Li11 O35 2.153910 1_555
Li11 O24 2.172299 1_545
Li11 O16 2.394247 1_555
Li12 O31 2.037382 1_555
Li12 O28 2.075063 1_555
Li12 O17 2.153910 1_555
Li12 O32 2.172299 1_555
Li12 O36 2.394247 1_555
Li13 O37 2.020293 1_555
Li13 O34 2.093897 1_555
Li13 O38 2.132838 1_556
Li13 O33 2.203527 1_655
Li13 O10 2.291106 1_555
Li13 O24 2.644691 1_555
Li14 O10 2.005502 1_555
Li14 O30 2.017880 1_555
Li14 O34 2.037491 1_455
Li14 O33 2.247906 1_555
Li14 O13 2.550364 1_556
Li15 O36 2.010439 1_555
Li15 O27 2.042120 1_555
Li15 O31 2.087982 1_555
Li15 O25 2.131831 1_555
O0 P0 1.560682 1_655
O0 V0 2.237931 1_565
O1 V0 1.876125 1_456
O1 V5 1.901286 1_555
O2 P0 1.544927 1_545
O2 V0 2.099268 1_555
O3 P6 1.539891 1_555
O3 V1 2.077074 1_555
O4 P0 1.548423 1_555
O4 V1 2.036880 1_555
O5 P2 1.563569 1_555
O5 V5 2.109752 1_554
O6 P3 1.558884 1_555
O6 V0 2.055489 1_555
O7 P1 1.562540 1_655
O7 V6 2.259637 1_555
O8 V1 1.864726 1_655
O8 V3 1.913290 1_555
O9 P2 1.560682 1_555
O9 V2 2.237931 1_555
O10 V2 1.876125 1_556
O10 V7 1.901286 1_555
O11 P1 1.558604 1_555
O11 V1 2.119948 1_555
O12 P3 1.558604 1_565
O12 V3 2.119948 1_555
O13 P2 1.544927 1_555
O13 V2 2.099268 1_455
O14 V3 1.864726 1_555
O14 V1 1.913290 1_555
O15 P3 1.562540 1_555
O15 V4 2.259637 1_555
O16 P3 1.539891 1_555
O16 V4 2.077074 1_655
O17 P2 1.548423 1_555
O17 V4 2.036880 1_555
O18 P1 1.558884 1_555
O18 V5 2.055489 1_555
O19 P7 1.563569 1_555
O19 V0 2.109752 1_556
O20 P0 1.563569 1_555
O20 V7 2.109752 1_554
O21 P6 1.558884 1_555
O21 V2 2.055489 1_555
O22 P5 1.548423 1_555
O22 V3 2.036880 1_555
O23 P4 1.539891 1_555
O23 V3 2.077074 1_455
O24 P4 1.562540 1_555
O24 V3 2.259637 1_555
O25 V4 1.864726 1_555
O25 V6 1.913290 1_555
O26 P5 1.544927 1_555
O26 V5 2.099268 1_655
O27 P4 1.558604 1_545
O27 V4 2.119948 1_555
O28 P6 1.558604 1_555
O28 V6 2.119948 1_555
O29 V5 1.876125 1_554
O29 V0 1.901286 1_555
O30 P5 1.560682 1_555
O30 V5 2.237931 1_555
O31 V6 1.864726 1_455
O31 V4 1.913290 1_555
O32 P6 1.562540 1_455
O32 V1 2.259637 1_555
O33 P4 1.558884 1_555
O33 V7 2.055489 1_555
O34 P5 1.563569 1_555
O34 V2 2.109752 1_556
O35 P7 1.548423 1_555
O35 V6 2.036880 1_555
O36 P1 1.539891 1_555
O36 V6 2.077074 1_555
O37 P7 1.544927 1_565
O37 V7 2.099268 1_555
O38 V7 1.876125 1_654
O38 V2 1.901286 1_555
O39 P7 1.560682 1_455
O39 V7 2.237931 1_545
