# generated using pymatgen
data_Zr2N2O
_symmetry_space_group_name_H-M   'P 1'
_cell_length_a   5.62505245
_cell_length_b   5.62505245
_cell_length_c   17.19992127
_cell_angle_alpha   75.03930413
_cell_angle_beta   75.03930413
_cell_angle_gamma   33.84241250
_symmetry_Int_Tables_number   1
_chemical_formula_structural   Zr2N2O
_chemical_formula_sum   'Zr8 N8 O4'
_cell_volume   291.84264967
_cell_formula_units_Z   4
loop_
 _symmetry_equiv_pos_site_id
 _symmetry_equiv_pos_as_xyz
  1  'x, y, z'
loop_
 _atom_site_type_symbol
 _atom_site_label
 _atom_site_symmetry_multiplicity
 _atom_site_fract_x
 _atom_site_fract_y
 _atom_site_fract_z
 _atom_site_occupancy
  Zr  Zr0  1  0.76026200  0.76026200  0.91467700  1
  Zr  Zr1  1  0.00138400  0.00138400  0.66818300  1
  Zr  Zr2  1  0.22615100  0.22615100  0.42460700  1
  Zr  Zr3  1  0.99861600  0.99861600  0.33181700  1
  Zr  Zr4  1  0.23973800  0.23973800  0.08532300  1
  Zr  Zr5  1  0.23134500  0.23134500  0.75658500  1
  Zr  Zr6  1  0.77384900  0.77384900  0.57539300  1
  Zr  Zr7  1  0.76865500  0.76865500  0.24341500  1
  N  N0  1  0.84513200  0.84513200  0.78224300  1
  N  N1  1  0.15486800  0.15486800  0.21775700  1
  N  N2  1  0.15559600  0.15559600  0.55359200  1
  N  N3  1  0.37807400  0.37807400  0.29688200  1
  N  N4  1  0.61864800  0.61864800  0.36920300  1
  N  N5  1  0.38135200  0.38135200  0.63079700  1
  N  N6  1  0.84440400  0.84440400  0.44640800  1
  N  N7  1  0.62192600  0.62192600  0.70311800  1
  O  O0  1  0.65297700  0.65297700  0.04262400  1
  O  O1  1  0.34702300  0.34702300  0.95737600  1
  O  O2  1  0.15459700  0.15459700  0.88135600  1
  O  O3  1  0.84540300  0.84540300  0.11864400  1
loop_
_geom_bond_atom_site_label_1
_geom_bond_atom_site_label_2
_geom_bond_distance
_geom_bond_site_symmetry_2
N0 Zr5 2.160270 1_565
N0 Zr5 2.160270 1_655
N0 Zr1 2.212797 1_665
N0 Zr0 2.213618 1_555
N1 Zr7 2.160270 1_455
N1 Zr7 2.160270 1_545
N1 Zr3 2.212797 1_445
N1 Zr4 2.213618 1_555
N2 Zr2 2.142275 1_555
N2 Zr6 2.167612 1_545
N2 Zr6 2.167612 1_455
N2 Zr1 2.207733 1_555
N3 Zr3 2.268362 1_545
N3 Zr3 2.268362 1_455
N3 Zr7 2.344692 1_545
N3 Zr7 2.344692 1_455
N3 Zr2 2.358239 1_555
N4 Zr3 2.282829 1_455
N4 Zr3 2.282829 1_545
N4 Zr7 2.324324 1_555
N4 Zr2 2.349977 1_565
N4 Zr2 2.349977 1_655
N5 Zr1 2.282829 1_655
N5 Zr1 2.282829 1_565
N5 Zr5 2.324324 1_555
N5 Zr6 2.349977 1_455
N5 Zr6 2.349977 1_545
N6 Zr6 2.142275 1_555
N6 Zr2 2.167612 1_565
N6 Zr2 2.167612 1_655
N6 Zr3 2.207733 1_555
N7 Zr1 2.268362 1_565
N7 Zr1 2.268362 1_655
N7 Zr5 2.344692 1_655
N7 Zr5 2.344692 1_565
N7 Zr6 2.358239 1_555
O0 Zr4 2.112331 1_565
O0 Zr4 2.112331 1_655
O0 Zr0 2.192018 1_554
O1 Zr0 2.112331 1_455
O1 Zr0 2.112331 1_545
O1 Zr4 2.192018 1_556
O2 Zr5 2.081149 1_555
O2 Zr0 2.157329 1_455
O2 Zr0 2.157329 1_545
O3 Zr7 2.081149 1_555
O3 Zr4 2.157329 1_565
O3 Zr4 2.157329 1_655
