# generated using pymatgen
data_Li4Nb2Fe3Co3O16
_symmetry_space_group_name_H-M   'P 1'
_cell_length_a   5.87788763
_cell_length_b   5.87788763
_cell_length_c   9.60763094
_cell_angle_alpha   88.89301550
_cell_angle_beta   88.89301550
_cell_angle_gamma   60.12543175
_symmetry_Int_Tables_number   1
_chemical_formula_structural   Li4Nb2Fe3Co3O16
_chemical_formula_sum   'Li4 Nb2 Fe3 Co3 O16'
_cell_volume   287.75892933
_cell_formula_units_Z   1
loop_
 _symmetry_equiv_pos_site_id
 _symmetry_equiv_pos_as_xyz
  1  'x, y, z'
loop_
 _atom_site_type_symbol
 _atom_site_label
 _atom_site_symmetry_multiplicity
 _atom_site_fract_x
 _atom_site_fract_y
 _atom_site_fract_z
 _atom_site_occupancy
  Li  Li0  1  0.66253900  0.66253900  0.09661000  1
  Li  Li1  1  0.00615200  0.00615200  0.00595300  1
  Li  Li2  1  0.00781500  0.00781500  0.50923100  1
  Li  Li3  1  0.32918000  0.32918000  0.60322000  1
  Nb  Nb0  1  0.66291300  0.66291300  0.50719300  1
  Nb  Nb1  1  0.33144400  0.33144400  0.00174700  1
  Fe  Fe0  1  0.82915800  0.82915800  0.78024300  1
  Fe  Fe1  1  0.16952700  0.65757300  0.28160900  1
  Fe  Fe2  1  0.65757300  0.16952700  0.28160900  1
  Co  Co0  1  0.34151700  0.83110900  0.78577100  1
  Co  Co1  1  0.83110900  0.34151700  0.78577100  1
  Co  Co2  1  0.17131600  0.17131600  0.28564800  1
  O  O0  1  0.33421300  0.84038500  0.40370600  1
  O  O1  1  0.52003300  0.52003300  0.66931200  1
  O  O2  1  0.66217200  0.66217200  0.88854000  1
  O  O3  1  0.00620500  0.00620500  0.69567200  1
  O  O4  1  0.00603500  0.00603500  0.19388600  1
  O  O5  1  0.84038500  0.33421300  0.40370600  1
  O  O6  1  0.50814900  0.96236200  0.66054800  1
  O  O7  1  0.96236200  0.50814900  0.66054800  1
  O  O8  1  0.16683000  0.16683000  0.89632900  1
  O  O9  1  0.83550100  0.83550100  0.41583700  1
  O  O10  1  0.03510900  0.47149100  0.15987200  1
  O  O11  1  0.47149100  0.03510900  0.15987200  1
  O  O12  1  0.33013800  0.33013800  0.39315400  1
  O  O13  1  0.16998900  0.67043500  0.90678200  1
  O  O14  1  0.48055900  0.48055900  0.15292800  1
  O  O15  1  0.67043500  0.16998900  0.90678200  1
loop_
_geom_bond_atom_site_label_1
_geom_bond_atom_site_label_2
_geom_bond_distance
_geom_bond_site_symmetry_2
Li0 O14 1.917344 1_555
Li0 O2 1.999147 1_554
Li0 O11 2.000354 1_565
Li0 O10 2.000354 1_655
Li1 O4 1.805565 1_555
Li1 O8 1.924831 1_554
Li1 O15 1.968055 1_454
Li1 O13 1.968055 1_544
Li2 O3 1.790966 1_555
Li2 O5 1.938977 1_455
Li2 O0 1.938977 1_545
Li2 O9 1.987216 1_445
Li3 O7 1.943136 1_455
Li3 O6 1.943136 1_545
Li3 O12 2.018043 1_555
Li3 O1 2.056422 1_555
Nb0 O9 1.945511 1_555
Nb0 O0 1.958559 1_555
Nb0 O5 1.958559 1_555
Nb0 O1 2.106715 1_555
Nb0 O6 2.133014 1_555
Nb0 O7 2.133014 1_555
Nb1 O15 1.944934 1_554
Nb1 O13 1.944934 1_554
Nb1 O8 1.976518 1_554
Nb1 O14 2.123642 1_555
Nb1 O11 2.130081 1_555
Nb1 O10 2.130081 1_555
Fe0 O3 1.959511 1_665
Fe0 O2 1.972357 1_555
Fe0 O6 2.018177 1_555
Fe0 O7 2.018177 1_555
Fe0 O13 2.133126 1_655
Fe0 O15 2.133126 1_565
Fe1 O4 1.957749 1_565
Fe1 O12 1.973136 1_555
Fe1 O14 2.005195 1_555
Fe1 O10 2.033369 1_555
Fe1 O9 2.126123 1_455
Fe1 O0 2.143961 1_555
Fe2 O4 1.957749 1_655
Fe2 O12 1.973136 1_555
Fe2 O14 2.005195 1_555
Fe2 O11 2.033369 1_555
Fe2 O9 2.126123 1_545
Fe2 O5 2.143961 1_555
Co0 O6 1.916591 1_555
Co0 O2 1.919077 1_555
Co0 O3 1.924539 1_565
Co0 O1 1.954126 1_555
Co0 O8 2.024090 1_565
Co0 O13 2.030028 1_555
Co1 O7 1.916591 1_555
Co1 O2 1.919077 1_555
Co1 O3 1.924539 1_655
Co1 O1 1.954126 1_555
Co1 O8 2.024090 1_655
Co1 O15 2.030028 1_555
Co2 O4 1.916066 1_555
Co2 O12 1.937143 1_555
Co2 O11 1.939610 1_555
Co2 O10 1.939610 1_555
Co2 O5 2.021962 1_455
Co2 O0 2.021962 1_545
