# generated using pymatgen
data_Cd2Si(P2O7)2
_symmetry_space_group_name_H-M   'P 1'
_cell_length_a   9.35897882
_cell_length_b   9.35897882
_cell_length_c   12.77963550
_cell_angle_alpha   77.43907770
_cell_angle_beta   77.43907770
_cell_angle_gamma   33.35687174
_symmetry_Int_Tables_number   1
_chemical_formula_structural   Cd2Si(P2O7)2
_chemical_formula_sum   'Cd4 Si2 P8 O28'
_cell_volume   599.41885466
_cell_formula_units_Z   2
loop_
 _symmetry_equiv_pos_site_id
 _symmetry_equiv_pos_as_xyz
  1  'x, y, z'
loop_
 _atom_site_type_symbol
 _atom_site_label
 _atom_site_symmetry_multiplicity
 _atom_site_fract_x
 _atom_site_fract_y
 _atom_site_fract_z
 _atom_site_occupancy
  Cd  Cd0  1  0.10404700  0.38646000  0.37054500  1
  Cd  Cd1  1  0.61354000  0.89595300  0.12945500  1
  Cd  Cd2  1  0.38646000  0.10404700  0.87054500  1
  Cd  Cd3  1  0.89595300  0.61354000  0.62945500  1
  Si  Si0  1  0.62348600  0.37651400  0.25000000  1
  Si  Si1  1  0.37651400  0.62348600  0.75000000  1
  P  P0  1  0.64709300  0.10071900  0.42781000  1
  P  P1  1  0.28532700  0.47691100  0.13850500  1
  P  P2  1  0.10071900  0.64709300  0.92781000  1
  P  P3  1  0.47691100  0.28532700  0.63850500  1
  P  P4  1  0.52308900  0.71467300  0.36149500  1
  P  P5  1  0.89928100  0.35290700  0.07219000  1
  P  P6  1  0.71467300  0.52308900  0.86149500  1
  P  P7  1  0.35290700  0.89928100  0.57219000  1
  O  O0  1  0.77135700  0.12178100  0.33188000  1
  O  O1  1  0.38059400  0.52879200  0.18761000  1
  O  O2  1  0.36685100  0.32168500  0.40390600  1
  O  O3  1  0.18074200  0.65313200  0.02679200  1
  O  O4  1  0.12178100  0.77135700  0.83188000  1
  O  O5  1  0.52879200  0.38059400  0.68761000  1
  O  O6  1  0.52497900  0.19169500  0.12039000  1
  O  O7  1  0.80948900  0.83036800  0.44980200  1
  O  O8  1  0.05346800  0.58452800  0.20226500  1
  O  O9  1  0.32168500  0.36685100  0.90390600  1
  O  O10  1  0.65313200  0.18074200  0.52679200  1
  O  O11  1  0.19169500  0.52497900  0.62039000  1
  O  O12  1  0.83036800  0.80948900  0.94980200  1
  O  O13  1  0.58452800  0.05346800  0.70226500  1
  O  O14  1  0.41547200  0.94653200  0.29773500  1
  O  O15  1  0.16963200  0.19051100  0.05019800  1
  O  O16  1  0.80830500  0.47502100  0.37961000  1
  O  O17  1  0.34686800  0.81925800  0.47320800  1
  O  O18  1  0.67831500  0.63314900  0.09609400  1
  O  O19  1  0.94653200  0.41547200  0.79773500  1
  O  O20  1  0.19051100  0.16963200  0.55019800  1
  O  O21  1  0.47502100  0.80830500  0.87961000  1
  O  O22  1  0.47120800  0.61940600  0.31239000  1
  O  O23  1  0.87821900  0.22864300  0.16812000  1
  O  O24  1  0.81925800  0.34686800  0.97320800  1
  O  O25  1  0.63314900  0.67831500  0.59609400  1
  O  O26  1  0.61940600  0.47120800  0.81239000  1
  O  O27  1  0.22864300  0.87821900  0.66812000  1
loop_
_geom_bond_atom_site_label_1
_geom_bond_atom_site_label_2
_geom_bond_distance
_geom_bond_site_symmetry_2
Cd0 O16 2.105065 1_455
Cd0 O2 2.109887 1_555
Cd0 O8 2.351211 1_555
Cd0 O20 2.466252 1_555
Cd0 O14 2.598603 1_545
Cd0 O7 2.714582 1_455
Cd1 O6 2.105065 1_565
Cd1 O18 2.109887 1_555
Cd1 O14 2.351211 1_555
Cd1 O12 2.466252 1_554
Cd1 O8 2.598603 1_655
Cd1 O15 2.714582 1_565
Cd2 O21 2.105065 1_545
Cd2 O9 2.109887 1_555
Cd2 O13 2.351211 1_555
Cd2 O15 2.466252 1_556
Cd2 O19 2.598603 1_455
Cd2 O12 2.714582 1_545
Cd3 O11 2.105065 1_655
Cd3 O25 2.109887 1_555
Cd3 O19 2.351211 1_555
Cd3 O7 2.466252 1_555
Cd3 O13 2.598603 1_565
Cd3 O20 2.714582 1_655
O0 P0 1.597514 1_555
O0 Si0 1.651376 1_555
O1 P1 1.588594 1_555
O1 Si0 1.648160 1_555
O2 P0 1.503947 1_555
O3 P1 1.613453 1_555
O3 P2 1.636482 1_554
O4 P2 1.597514 1_555
O4 Si1 1.651376 1_555
O5 P3 1.588594 1_555
O5 Si1 1.648160 1_555
O6 P1 1.500321 1_555
O7 P0 1.497767 1_565
O8 P1 1.524462 1_555
O9 P2 1.503947 1_555
O10 P3 1.613453 1_555
O10 P0 1.636482 1_555
O11 P3 1.500321 1_555
O12 P2 1.497767 1_655
O13 P3 1.524462 1_555
O14 P4 1.524462 1_555
O15 P5 1.497767 1_455
O16 P4 1.500321 1_555
O17 P4 1.613453 1_555
O17 P7 1.636482 1_555
O18 P5 1.503947 1_555
O19 P6 1.524462 1_555
O20 P7 1.497767 1_545
O21 P6 1.500321 1_555
O22 P4 1.588594 1_555
O22 Si0 1.648160 1_555
O23 P5 1.597514 1_555
O23 Si0 1.651376 1_555
O24 P6 1.613453 1_555
O24 P5 1.636482 1_556
O25 P7 1.503947 1_555
O26 P6 1.588594 1_555
O26 Si1 1.648160 1_555
O27 P7 1.597514 1_555
O27 Si1 1.651376 1_555
