# generated using pymatgen
data_Li2Cu4S3
_symmetry_space_group_name_H-M   'P 1'
_cell_length_a   7.29860222
_cell_length_b   7.29860222
_cell_length_c   6.04105662
_cell_angle_alpha   68.63149714
_cell_angle_beta   68.63149714
_cell_angle_gamma   79.04098738
_symmetry_Int_Tables_number   1
_chemical_formula_structural   Li2Cu4S3
_chemical_formula_sum   'Li4 Cu8 S6'
_cell_volume   278.47049209
_cell_formula_units_Z   2
loop_
 _symmetry_equiv_pos_site_id
 _symmetry_equiv_pos_as_xyz
  1  'x, y, z'
loop_
 _atom_site_type_symbol
 _atom_site_label
 _atom_site_symmetry_multiplicity
 _atom_site_fract_x
 _atom_site_fract_y
 _atom_site_fract_z
 _atom_site_occupancy
  Li  Li0  1  0.59664000  0.72305900  0.33281400  1
  Li  Li1  1  0.72305900  0.59664000  0.83281400  1
  Li  Li2  1  0.27694100  0.40336000  0.16718600  1
  Li  Li3  1  0.40336000  0.27694100  0.66718600  1
  Cu  Cu0  1  0.41206700  0.87974600  0.88453000  1
  Cu  Cu1  1  0.87974600  0.41206700  0.38453000  1
  Cu  Cu2  1  0.98588700  0.25141000  0.03428500  1
  Cu  Cu3  1  0.25141000  0.98588700  0.53428500  1
  Cu  Cu4  1  0.74859000  0.01411300  0.46571500  1
  Cu  Cu5  1  0.01411300  0.74859000  0.96571500  1
  Cu  Cu6  1  0.12025400  0.58793300  0.61547000  1
  Cu  Cu7  1  0.58793300  0.12025400  0.11547000  1
  S  S0  1  0.26973300  0.08839000  0.11689500  1
  S  S1  1  0.08839000  0.26973300  0.61689500  1
  S  S2  1  0.66002900  0.33997100  0.25000000  1
  S  S3  1  0.33997100  0.66002900  0.75000000  1
  S  S4  1  0.91161000  0.73026700  0.38310500  1
  S  S5  1  0.73026700  0.91161000  0.88310500  1
loop_
_geom_bond_atom_site_label_1
_geom_bond_atom_site_label_2
_geom_bond_distance
_geom_bond_site_symmetry_2
Li0 S4 2.438508 1_555
Li0 S5 2.465882 1_554
Li0 S3 2.472829 1_555
Li0 S2 2.939528 1_555
Li1 S5 2.438508 1_555
Li1 S4 2.465882 1_555
Li1 S2 2.472829 1_556
Li1 S3 2.939528 1_555
Li2 S0 2.438508 1_555
Li2 S1 2.465882 1_555
Li2 S3 2.472829 1_554
Li2 S2 2.939528 1_555
Li3 S1 2.438508 1_555
Li3 S0 2.465882 1_556
Li3 S2 2.472829 1_555
Li3 S3 2.939528 1_555
Cu0 S3 2.256369 1_555
Cu0 S0 2.293946 1_566
Cu0 S5 2.374258 1_555
Cu0 Li3 2.710900 1_565
Cu0 Li1 2.773008 1_555
Cu1 S2 2.256369 1_555
Cu1 S1 2.293946 1_655
Cu1 S4 2.374258 1_555
Cu1 Li2 2.710900 1_655
Cu1 Li0 2.773008 1_555
Cu2 S0 2.310863 1_655
Cu2 S1 2.313670 1_654
Cu2 S2 2.354384 1_555
Cu3 S1 2.310863 1_565
Cu3 S0 2.313670 1_565
Cu3 S3 2.354384 1_555
Cu4 S4 2.310863 1_545
Cu4 S5 2.313670 1_545
Cu4 S2 2.354384 1_555
Cu5 S5 2.310863 1_455
Cu5 S4 2.313670 1_456
Cu5 S3 2.354384 1_555
Cu6 S3 2.256369 1_555
Cu6 S4 2.293946 1_455
Cu6 S1 2.374258 1_555
Cu6 Li1 2.710900 1_455
Cu6 Li3 2.773008 1_555
Cu7 S2 2.256369 1_555
Cu7 S5 2.293946 1_544
Cu7 S0 2.374258 1_555
Cu7 Li0 2.710900 1_545
Cu7 Li2 2.773008 1_555
