# generated using pymatgen
data_Li2VCrO4
_symmetry_space_group_name_H-M   'P 1'
_cell_length_a   2.96647243
_cell_length_b   5.13147204
_cell_length_c   9.91704039
_cell_angle_alpha   99.19042678
_cell_angle_beta   89.96367313
_cell_angle_gamma   90.00892195
_symmetry_Int_Tables_number   1
_chemical_formula_structural   Li2VCrO4
_chemical_formula_sum   'Li4 V2 Cr2 O8'
_cell_volume   149.02294122
_cell_formula_units_Z   2
loop_
 _symmetry_equiv_pos_site_id
 _symmetry_equiv_pos_as_xyz
  1  'x, y, z'
loop_
 _atom_site_type_symbol
 _atom_site_label
 _atom_site_symmetry_multiplicity
 _atom_site_fract_x
 _atom_site_fract_y
 _atom_site_fract_z
 _atom_site_occupancy
  Li  Li0  1  0.50000300  0.49999300  0.00002800  1
  Li  Li1  1  0.50000000  0.00000700  0.49997100  1
  Li  Li2  1  0.00000200  0.00003300  0.00001600  1
  Li  Li3  1  0.00000100  0.49996600  0.49998400  1
  V  V0  1  0.00000000  0.25000100  0.75000000  1
  V  V1  1  0.00000000  0.75000000  0.25000000  1
  Cr  Cr0  1  0.49999100  0.25000100  0.24999900  1
  Cr  Cr1  1  0.50000000  0.75000100  0.75000200  1
  O  O0  1  0.99955600  0.12610700  0.36463000  1
  O  O1  1  0.99955800  0.62589700  0.86452100  1
  O  O2  1  0.00044500  0.37389300  0.13537000  1
  O  O3  1  0.00044500  0.87410300  0.63547900  1
  O  O4  1  0.50031100  0.88104300  0.13601500  1
  O  O5  1  0.50037100  0.38113800  0.63597200  1
  O  O6  1  0.49968800  0.61895700  0.36398500  1
  O  O7  1  0.49963100  0.11886200  0.86402800  1
loop_
_geom_bond_atom_site_label_1
_geom_bond_atom_site_label_2
_geom_bond_distance
_geom_bond_site_symmetry_2
Li0 O2 2.165848 1_555
Li0 O1 2.166534 1_554
Li0 O2 2.168946 1_655
Li0 O1 2.169644 1_454
Li0 O4 2.190832 1_555
Li0 O7 2.191223 1_554
Li1 O0 2.165838 1_555
Li1 O3 2.166541 1_545
Li1 O0 2.168943 1_455
Li1 O3 2.169651 1_645
Li1 O6 2.190828 1_545
Li1 O5 2.191228 1_555
Li2 O7 2.155719 1_554
Li2 O4 2.156235 1_445
Li2 O7 2.158539 1_454
Li2 O2 2.158627 1_555
Li2 O4 2.158801 1_545
Li2 O1 2.160416 1_444
Li3 O5 2.155719 1_455
Li3 O6 2.156228 1_555
Li3 O5 2.158535 1_555
Li3 O0 2.158623 1_455
Li3 O6 2.158812 1_455
Li3 O3 2.160420 1_555
Cr0 O2 2.031189 1_555
Cr0 O0 2.031246 1_555
Cr0 O0 2.031933 1_455
Cr0 O2 2.031958 1_655
Cr0 O6 2.044189 1_555
Cr0 O4 2.044189 1_545
Cr1 O1 2.030987 1_555
Cr1 O3 2.031001 1_555
Cr1 O1 2.031706 1_455
Cr1 O3 2.031732 1_655
Cr1 O7 2.043941 1_565
Cr1 O5 2.043966 1_555
O0 V1 2.077570 1_645
O1 V0 2.076227 1_655
O2 V1 2.077570 1_555
O3 V0 2.076236 1_565
O4 V1 2.042662 1_655
O4 V1 2.042809 1_555
O5 V0 2.042993 1_655
O5 V0 2.043398 1_555
O6 V1 2.042660 1_555
O6 V1 2.042811 1_655
O7 V0 2.043002 1_555
O7 V0 2.043398 1_655
