# generated using pymatgen
data_MnOF
_symmetry_space_group_name_H-M   'P 1'
_cell_length_a   4.61400600
_cell_length_b   4.65220800
_cell_length_c   9.53219135
_cell_angle_alpha   89.08844679
_cell_angle_beta   90.00000000
_cell_angle_gamma   90.00000000
_symmetry_Int_Tables_number   1
_chemical_formula_structural   MnOF
_chemical_formula_sum   'Mn6 O6 F6'
_cell_volume   204.58560124
_cell_formula_units_Z   6
loop_
 _symmetry_equiv_pos_site_id
 _symmetry_equiv_pos_as_xyz
  1  'x, y, z'
loop_
 _atom_site_type_symbol
 _atom_site_label
 _atom_site_symmetry_multiplicity
 _atom_site_fract_x
 _atom_site_fract_y
 _atom_site_fract_z
 _atom_site_occupancy
  Mn  Mn0  1  0.03577400  0.28236900  0.91690700  1
  Mn  Mn1  1  0.98498200  0.21491700  0.24826800  1
  Mn  Mn2  1  0.98513600  0.21977400  0.58547100  1
  Mn  Mn3  1  0.48498200  0.78508300  0.75173200  1
  Mn  Mn4  1  0.53577400  0.71763100  0.08309300  1
  Mn  Mn5  1  0.48513600  0.78022600  0.41452900  1
  O  O0  1  0.17358500  0.04488200  0.41140800  1
  O  O1  1  0.18860600  0.08251900  0.75203000  1
  O  O2  1  0.68860600  0.91748100  0.24797000  1
  O  O3  1  0.67358500  0.95511800  0.58859200  1
  O  O4  1  0.33607700  0.57189200  0.91674800  1
  O  O5  1  0.83607700  0.42810800  0.08325200  1
  F  F0  1  0.23434400  0.02294900  0.08351200  1
  F  F1  1  0.73434400  0.97705100  0.91648800  1
  F  F2  1  0.28832900  0.51874700  0.25480600  1
  F  F3  1  0.27316500  0.55293400  0.57400600  1
  F  F4  1  0.77316500  0.44706600  0.42599400  1
  F  F5  1  0.78832900  0.48125300  0.74519400  1
loop_
_geom_bond_atom_site_label_1
_geom_bond_atom_site_label_2
_geom_bond_distance
_geom_bond_site_symmetry_2
Mn0 O4 1.932362 1_555
Mn0 O5 1.963954 1_456
Mn0 O1 1.969322 1_555
Mn1 O0 1.939628 1_655
Mn1 O2 1.945471 1_545
Mn1 O5 1.969847 1_555
Mn2 O3 1.892633 1_545
Mn2 O1 1.943591 1_655
Mn2 O0 2.052789 1_655
Mn3 O3 1.939628 1_555
Mn3 O1 1.945471 1_565
Mn3 O4 1.969847 1_555
Mn4 O5 1.932362 1_555
Mn4 O4 1.963954 1_554
Mn4 O2 1.969322 1_555
Mn5 O0 1.892633 1_565
Mn5 O2 1.943591 1_555
Mn5 O3 2.052789 1_555
F0 Mn4 1.987980 1_545
F0 Mn1 2.152305 1_455
F0 Mn0 2.181075 1_554
F1 Mn0 1.987980 1_665
F1 Mn3 2.152305 1_555
F1 Mn4 2.181075 1_556
F2 Mn1 1.990884 1_455
F2 Mn5 2.163635 1_555
F2 Mn4 2.188727 1_555
F3 Mn2 2.043279 1_455
F3 Mn5 2.081928 1_555
F3 Mn3 2.247182 1_555
F4 Mn5 2.043279 1_555
F4 Mn2 2.081928 1_555
F4 Mn1 2.247182 1_555
F5 Mn3 1.990884 1_555
F5 Mn2 2.163635 1_555
F5 Mn0 2.188727 1_655
