# generated using pymatgen
data_K2Li2CoO4
_symmetry_space_group_name_H-M   'P 1'
_cell_length_a   5.60109000
_cell_length_b   8.99399288
_cell_length_c   10.40014603
_cell_angle_alpha   86.99007556
_cell_angle_beta   82.38619255
_cell_angle_gamma   89.60118114
_symmetry_Int_Tables_number   1
_chemical_formula_structural   K2Li2CoO4
_chemical_formula_sum   'K8 Li8 Co4 O16'
_cell_volume   518.58399655
_cell_formula_units_Z   4
loop_
 _symmetry_equiv_pos_site_id
 _symmetry_equiv_pos_as_xyz
  1  'x, y, z'
loop_
 _atom_site_type_symbol
 _atom_site_label
 _atom_site_symmetry_multiplicity
 _atom_site_fract_x
 _atom_site_fract_y
 _atom_site_fract_z
 _atom_site_occupancy
  K  K0  1  0.15192900  0.00376000  0.12793700  1
  K  K1  1  0.17757600  0.21142200  0.64213600  1
  K  K2  1  0.36018300  0.48566100  0.36959500  1
  K  K3  1  0.37881300  0.78153400  0.87506600  1
  K  K4  1  0.66704000  0.30850900  0.09407600  1
  K  K5  1  0.65925000  0.45232300  0.68722400  1
  K  K6  1  0.87123500  0.69077800  0.37840300  1
  K  K7  1  0.77762400  0.04763500  0.85377300  1
  Li  Li0  1  0.08876400  0.24739000  0.29370400  1
  Li  Li1  1  0.19286000  0.00272600  0.42577800  1
  Li  Li2  1  0.27613400  0.52043600  0.07350400  1
  Li  Li3  1  0.06244900  0.53114100  0.82693000  1
  Li  Li4  1  0.41097900  0.75316100  0.19590800  1
  Li  Li5  1  0.60955800  0.97462900  0.28923700  1
  Li  Li6  1  0.77843200  0.96775800  0.56023800  1
  Li  Li7  1  0.91081200  0.75476700  0.69794500  1
  Co  Co0  1  0.19828800  0.29651000  0.93856400  1
  Co  Co1  1  0.32560600  0.77765400  0.55815100  1
  Co  Co2  1  0.68414600  0.20140900  0.43336900  1
  Co  Co3  1  0.82252800  0.72018200  0.06162500  1
  O  O0  1  0.14894900  0.30682700  0.11597600  1
  O  O1  1  0.10655200  0.70448500  0.12913500  1
  O  O2  1  0.10688100  0.92189800  0.60838300  1
  O  O3  1  0.16280900  0.60881400  0.61337000  1
  O  O4  1  0.39969600  0.17612900  0.36467600  1
  O  O5  1  0.37693200  0.81145500  0.37898800  1
  O  O6  1  0.31433800  0.11783800  0.89734600  1
  O  O7  1  0.35485500  0.46968900  0.89287800  1
  O  O8  1  0.59969200  0.58794400  0.13811800  1
  O  O9  1  0.67177800  0.89518600  0.11270800  1
  O  O10  1  0.65615300  0.16478300  0.60355400  1
  O  O11  1  0.61159500  0.78280600  0.61959600  1
  O  O12  1  0.83326700  0.37505600  0.39344100  1
  O  O13  1  0.88308000  0.05027400  0.36618600  1
  O  O14  1  0.93405500  0.32753400  0.85839400  1
  O  O15  1  0.88640400  0.71842100  0.88543100  1
loop_
_geom_bond_atom_site_label_1
_geom_bond_atom_site_label_2
_geom_bond_distance
_geom_bond_site_symmetry_2
K0 O6 2.609209 1_554
K0 O1 2.704633 1_545
K0 O0 2.722122 1_555
K0 O13 2.773726 1_455
K0 O9 2.894313 1_445
K1 O2 2.684753 1_545
K1 O10 2.690600 1_555
K1 O14 2.724603 1_455
K1 O6 2.938589 1_555
K1 O4 3.019069 1_555
K1 O10 3.035090 1_455
K2 O8 2.714826 1_555
K2 O4 2.793785 1_555
K2 O12 2.860768 1_555
K2 O3 2.900325 1_555
K2 O5 2.939501 1_555
K2 O12 3.095529 1_455
K3 O11 2.799715 1_555
K3 O7 2.804092 1_555
K3 O15 2.806623 1_455
K3 O15 2.910182 1_555
K3 O1 2.922738 1_556
K3 O6 3.060921 1_565
K4 O8 2.594295 1_555
K4 O14 2.694838 1_554
K4 O0 2.738586 1_655
K4 O0 2.880640 1_555
K4 O4 3.183746 1_555
K5 O7 2.563375 1_555
K5 O14 2.700026 1_555
K5 O10 2.772463 1_555
K6 O1 2.745236 1_655
K6 O12 2.843585 1_555
K6 O11 2.885633 1_555
K6 O5 2.966109 1_555
K6 O5 3.041203 1_655
K6 O3 3.167615 1_655
K7 O6 2.652019 1_555
K7 O14 2.676178 1_555
K7 O10 2.918274 1_555
K7 O9 2.946860 1_546
K7 O15 3.028616 1_545
K7 O6 3.171536 1_655
K7 O2 3.196872 1_645
Li0 O0 1.884040 1_555
Li0 O12 2.037440 1_455
Li0 O4 2.064956 1_555
Li0 O13 2.167133 1_455
Li1 O13 1.955602 1_455
Li1 O4 1.975919 1_555
Li1 O2 1.996142 1_545
Li1 O5 2.046813 1_545
Li2 O7 1.949201 1_554
Li2 O1 1.977409 1_555
Li2 O0 2.059160 1_555
Li2 O8 2.117891 1_555
Li3 O7 1.924451 1_555
Li3 O14 1.967418 1_455
Li3 O15 2.026122 1_455
Li3 O3 2.291021 1_555
Li4 O8 1.894766 1_555
Li4 O1 1.984305 1_555
Li4 O5 1.985930 1_555
Li4 O9 2.022173 1_555
Li5 O13 1.961376 1_565
Li5 O9 1.991822 1_555
Li5 O5 2.069605 1_555
Li5 O4 2.270888 1_565
Li6 O11 1.944826 1_555
Li6 O10 1.948675 1_565
Li6 O2 2.004266 1_655
Li6 O13 2.121945 1_565
Li7 O15 1.946955 1_555
Li7 O11 1.967424 1_555
Li7 O2 1.984456 1_655
Li7 O3 2.062900 1_655
Co0 O6 1.781180 1_555
Co0 O7 1.803247 1_555
Co0 O14 1.805613 1_455
Co0 O0 1.836278 1_556
Co1 O11 1.803285 1_555
Co1 O3 1.804485 1_555
Co1 O2 1.826555 1_555
Co1 O5 1.856559 1_555
Co2 O10 1.769680 1_555
Co2 O12 1.779709 1_555
Co2 O4 1.850457 1_555
Co2 O13 1.857368 1_555
Co3 O8 1.806496 1_555
Co3 O15 1.820808 1_554
Co3 O1 1.823767 1_655
Co3 O9 1.850155 1_555
