# generated using pymatgen
data_LiTi4Mn(PO4)6
_symmetry_space_group_name_H-M   'P 1'
_cell_length_a   8.63910141
_cell_length_b   8.63910141
_cell_length_c   8.63910155
_cell_angle_alpha   60.14057012
_cell_angle_beta   60.14057012
_cell_angle_gamma   60.14056592
_symmetry_Int_Tables_number   1
_chemical_formula_structural   LiTi4Mn(PO4)6
_chemical_formula_sum   'Li1 Ti4 Mn1 P6 O24'
_cell_volume   457.37393629
_cell_formula_units_Z   1
loop_
 _symmetry_equiv_pos_site_id
 _symmetry_equiv_pos_as_xyz
  1  'x, y, z'
loop_
 _atom_site_type_symbol
 _atom_site_label
 _atom_site_symmetry_multiplicity
 _atom_site_fract_x
 _atom_site_fract_y
 _atom_site_fract_z
 _atom_site_occupancy
  Li  Li0  1  0.50000000  0.50000000  0.50000000  1
  Ti  Ti0  1  0.85469900  0.85469900  0.85469900  1
  Ti  Ti1  1  0.64195700  0.64195700  0.64195700  1
  Ti  Ti2  1  0.35804300  0.35804300  0.35804300  1
  Ti  Ti3  1  0.14530100  0.14530100  0.14530100  1
  Mn  Mn0  1  0.00000000  0.00000000  0.00000000  1
  P  P0  1  0.95848300  0.25128200  0.54260500  1
  P  P1  1  0.54260500  0.95848300  0.25128200  1
  P  P2  1  0.25128200  0.54260500  0.95848300  1
  P  P3  1  0.74871800  0.45739500  0.04151700  1
  P  P4  1  0.45739500  0.04151700  0.74871800  1
  P  P5  1  0.04151700  0.74871800  0.45739500  1
  O  O0  1  0.87695400  0.69309300  0.49994500  1
  O  O1  1  0.69309300  0.49994500  0.87695400  1
  O  O2  1  0.94402800  0.08528600  0.73460900  1
  O  O3  1  0.49994500  0.87695400  0.69309300  1
  O  O4  1  0.99885400  0.19154200  0.38099300  1
  O  O5  1  0.76810900  0.41489700  0.55938900  1
  O  O6  1  0.73460900  0.94402800  0.08528600  1
  O  O7  1  0.55938900  0.76810900  0.41489700  1
  O  O8  1  0.80845800  0.61900700  0.00114600  1
  O  O9  1  0.41489700  0.55938900  0.76810900  1
  O  O10  1  0.91471400  0.26539100  0.05597200  1
  O  O11  1  0.61900700  0.00114600  0.80845800  1
  O  O12  1  0.38099300  0.99885400  0.19154200  1
  O  O13  1  0.08528600  0.73460900  0.94402800  1
  O  O14  1  0.58510300  0.44061100  0.23189100  1
  O  O15  1  0.19154200  0.38099300  0.99885400  1
  O  O16  1  0.44061100  0.23189100  0.58510300  1
  O  O17  1  0.26539100  0.05597200  0.91471400  1
  O  O18  1  0.23189100  0.58510300  0.44061100  1
  O  O19  1  0.00114600  0.80845800  0.61900700  1
  O  O20  1  0.50005500  0.12304600  0.30690700  1
  O  O21  1  0.05597200  0.91471400  0.26539100  1
  O  O22  1  0.30690700  0.50005500  0.12304600  1
  O  O23  1  0.12304600  0.30690700  0.50005500  1
loop_
_geom_bond_atom_site_label_1
_geom_bond_atom_site_label_2
_geom_bond_distance
_geom_bond_site_symmetry_2
Li0 O5 2.297976 1_555
Li0 O18 2.297976 1_555
Li0 O9 2.297976 1_555
Li0 O14 2.297976 1_555
Li0 O7 2.297976 1_555
Li0 O16 2.297976 1_555
Mn0 O10 2.258411 1_455
Mn0 O13 2.258411 1_544
Mn0 O21 2.258411 1_545
Mn0 O2 2.258411 1_454
Mn0 O17 2.258411 1_554
Mn0 O6 2.258411 1_445
O0 P5 1.539879 1_655
O0 Ti1 1.922274 1_555
O1 P3 1.539879 1_556
O1 Ti1 1.922274 1_555
O2 P0 1.557878 1_555
O2 Ti0 2.077463 1_545
O3 P4 1.539878 1_565
O3 Ti1 1.922274 1_555
O4 P0 1.546196 1_555
O4 Ti3 1.909912 1_655
O5 P0 1.541324 1_555
O5 Ti1 2.008700 1_555
O6 P1 1.557878 1_555
O6 Ti0 2.077463 1_554
O7 P1 1.541324 1_555
O7 Ti1 2.008700 1_555
O8 P3 1.546196 1_555
O8 Ti0 1.909912 1_554
O9 P2 1.541324 1_555
O9 Ti1 2.008700 1_555
O10 P3 1.557878 1_555
O10 Ti3 2.077463 1_655
O11 P4 1.546196 1_555
O11 Ti0 1.909912 1_545
O12 P1 1.546196 1_555
O12 Ti3 1.909912 1_565
O13 P2 1.557878 1_555
O13 Ti0 2.077463 1_455
O14 P3 1.541324 1_555
O14 Ti2 2.008700 1_555
O15 P2 1.546196 1_555
O15 Ti3 1.909912 1_556
O16 P4 1.541324 1_555
O16 Ti2 2.008700 1_555
O17 P4 1.557878 1_555
O17 Ti3 2.077463 1_556
O18 P5 1.541324 1_555
O18 Ti2 2.008700 1_555
O19 P5 1.546196 1_555
O19 Ti0 1.909912 1_455
O20 P1 1.539878 1_545
O20 Ti2 1.922274 1_555
O21 P5 1.557878 1_555
O21 Ti3 2.077463 1_565
O22 P2 1.539879 1_554
O22 Ti2 1.922274 1_555
O23 P0 1.539879 1_455
O23 Ti2 1.922274 1_555
