# generated using pymatgen
data_LiMnOF2
_symmetry_space_group_name_H-M   'P 1'
_cell_length_a   3.68815909
_cell_length_b   9.95505264
_cell_length_c   6.85028856
_cell_angle_alpha   90.30528181
_cell_angle_beta   90.00082647
_cell_angle_gamma   89.99961494
_symmetry_Int_Tables_number   1
_chemical_formula_structural   LiMnOF2
_chemical_formula_sum   'Li4 Mn4 O4 F8'
_cell_volume   251.51037676
_cell_formula_units_Z   4
loop_
 _symmetry_equiv_pos_site_id
 _symmetry_equiv_pos_as_xyz
  1  'x, y, z'
loop_
 _atom_site_type_symbol
 _atom_site_label
 _atom_site_symmetry_multiplicity
 _atom_site_fract_x
 _atom_site_fract_y
 _atom_site_fract_z
 _atom_site_occupancy
  Li  Li0  1  0.25002700  0.78393500  0.44572200  1
  Li  Li1  1  0.25005100  0.71662200  0.94630500  1
  Li  Li2  1  0.74995000  0.28338700  0.05365500  1
  Li  Li3  1  0.74996700  0.21606100  0.55424700  1
  Mn  Mn0  1  0.25001100  0.47564400  0.33801200  1
  Mn  Mn1  1  0.24998800  0.02449400  0.83850800  1
  Mn  Mn2  1  0.75000000  0.97551000  0.16155300  1
  Mn  Mn3  1  0.75000200  0.52436900  0.66199000  1
  O  O0  1  0.25000200  0.93513200  0.09071400  1
  O  O1  1  0.25000200  0.56467000  0.59159100  1
  O  O2  1  0.75001100  0.43532900  0.40840800  1
  O  O3  1  0.74998000  0.06485100  0.90933500  1
  F  F0  1  0.24997100  0.36302300  0.11403000  1
  F  F1  1  0.24996800  0.13612000  0.61523100  1
  F  F2  1  0.25002600  0.65982700  0.21574000  1
  F  F3  1  0.25002400  0.83985800  0.71505500  1
  F  F4  1  0.74999600  0.16015600  0.28492100  1
  F  F5  1  0.74997400  0.34015900  0.78423100  1
  F  F6  1  0.75001200  0.86385500  0.38480600  1
  F  F7  1  0.75003700  0.63699800  0.88594600  1
loop_
_geom_bond_atom_site_label_1
_geom_bond_atom_site_label_2
_geom_bond_distance
_geom_bond_site_symmetry_2
Li0 O1 2.405478 1_555
Li1 O0 2.384850 1_556
Li2 O3 2.384835 1_554
Li3 O2 2.405419 1_555
Mn0 O1 1.945900 1_555
Mn0 O2 1.948404 1_555
Mn0 O2 1.948422 1_455
Mn1 O0 1.947476 1_546
Mn1 O3 1.948138 1_555
Mn1 O3 1.948202 1_455
Mn2 O3 1.947453 1_564
Mn2 O0 1.948222 1_555
Mn2 O0 1.948244 1_655
Mn3 O2 1.945981 1_555
Mn3 O1 1.948380 1_555
Mn3 O1 1.948398 1_655
F0 Mn0 1.895480 1_555
F0 Li2 2.048513 1_555
F0 Li2 2.048652 1_455
F1 Mn1 1.895357 1_555
F1 Li3 2.052313 1_455
F1 Li3 2.052327 1_555
F2 Li1 1.933244 1_554
F2 Li0 1.996933 1_555
F2 Mn0 2.019863 1_555
F3 Li0 1.924330 1_555
F3 Li1 2.008797 1_555
F3 Mn1 2.019181 1_565
F4 Li3 1.924233 1_555
F4 Li2 2.008853 1_555
F4 Mn2 2.019031 1_545
F5 Li2 1.933103 1_556
F5 Li3 1.996883 1_555
F5 Mn3 2.020019 1_555
F6 Mn2 1.895395 1_555
F6 Li0 2.052104 1_555
F6 Li0 2.052183 1_655
F7 Mn3 1.895383 1_555
F7 Li1 2.048469 1_555
F7 Li1 2.048560 1_655
