# generated using pymatgen
data_Zr2N2O
_symmetry_space_group_name_H-M   'P 1'
_cell_length_a   8.76555564
_cell_length_b   8.79193046
_cell_length_c   8.79927259
_cell_angle_alpha   109.46771139
_cell_angle_beta   109.44499001
_cell_angle_gamma   109.33759473
_symmetry_Int_Tables_number   1
_chemical_formula_structural   Zr2N2O
_chemical_formula_sum   'Zr16 N16 O8'
_cell_volume   523.07097423
_cell_formula_units_Z   8
loop_
 _symmetry_equiv_pos_site_id
 _symmetry_equiv_pos_as_xyz
  1  'x, y, z'
loop_
 _atom_site_type_symbol
 _atom_site_label
 _atom_site_symmetry_multiplicity
 _atom_site_fract_x
 _atom_site_fract_y
 _atom_site_fract_z
 _atom_site_occupancy
  Zr  Zr0  1  0.51239147  0.49939812  0.50093068  1
  Zr  Zr1  1  0.21832650  0.75606503  0.46176565  1
  Zr  Zr2  1  0.96445380  0.21338472  0.25606877  1
  Zr  Zr3  1  0.47111600  0.72034767  0.24733039  1
  Zr  Zr4  1  0.28435251  0.24168383  0.02949630  1
  Zr  Zr5  1  0.00275666  0.00877672  0.50045066  1
  Zr  Zr6  1  0.75677877  0.97053557  0.71198899  1
  Zr  Zr7  1  0.99065975  0.50255888  0.99257771  1
  Zr  Zr8  1  0.24507791  0.53572437  0.78568354  1
  Zr  Zr9  1  0.50169429  0.00691681  0.01158266  1
  Zr  Zr10  1  0.73655749  0.45813049  0.20792117  1
  Zr  Zr11  1  0.25088929  0.02858086  0.28696646  1
  Zr  Zr12  1  0.71883046  0.75046157  0.96908925  1
  Zr  Zr13  1  0.03137130  0.78882943  0.75551077  1
  Zr  Zr14  1  0.53687994  0.28080089  0.74922257  1
  Zr  Zr15  1  0.78375511  0.25025970  0.53609106  1
  N  N0  1  0.76928041  0.72683159  0.73724003  1
  N  N1  1  0.54531547  0.51416607  0.27543910  1
  N  N2  1  0.50745288  0.76677528  0.03796233  1
  N  N3  1  0.72839242  0.23615115  0.26837300  1
  N  N4  1  0.24068306  0.76804469  0.22934805  1
  N  N5  1  0.03369060  0.04709391  0.77174014  1
  N  N6  1  0.05183628  0.27456901  0.53476244  1
  N  N7  1  0.76259077  0.22828890  0.77818094  1
  N  N8  1  0.77162065  0.54518873  0.01165355  1
  N  N9  1  0.96671740  0.95992602  0.22651624  1
  N  N10  1  0.72579010  0.96458365  0.45618590  1
  N  N11  1  0.99417497  0.53608740  0.76560832  1
  N  N12  1  0.25965631  0.98760166  0.03255878  1
  N  N13  1  0.48559717  0.22489452  0.95487021  1
  N  N14  1  0.27186348  0.02695378  0.54602029  1
  N  N15  1  0.53131912  0.26410929  0.48810587  1
  O  O0  1  0.27236402  0.75794151  0.72326706  1
  O  O1  1  0.22653322  0.28007048  0.26239554  1
  O  O2  1  0.46164004  0.73653090  0.51656966  1
  O  O3  1  0.01330586  0.46648683  0.24049794  1
  O  O4  1  0.22533189  0.45145022  0.98414198  1
  O  O5  1  0.96008734  0.72358010  0.46764566  1
  O  O6  1  0.73668931  0.01159769  0.96527158  1
  O  O7  1  0.45217597  0.48862495  0.72296977  1
loop_
_geom_bond_atom_site_label_1
_geom_bond_atom_site_label_2
_geom_bond_distance
_geom_bond_site_symmetry_2
N0 Zr13 2.113582 1_655
N0 Zr0 2.126436 1_555
N0 Zr12 2.186265 1_555
N0 Zr6 2.260276 1_555
N1 Zr10 2.102557 1_555
N1 Zr0 2.136633 1_555
N1 Zr3 2.177788 1_555
N1 Zr4 2.296561 1_555
N2 Zr3 2.113745 1_555
N2 Zr12 2.164844 1_554
N2 Zr8 2.201073 1_554
N2 Zr9 2.214383 1_565
N3 Zr9 2.106889 1_555
N3 Zr10 2.172955 1_555
N3 Zr2 2.177710 1_555
N3 Zr15 2.191927 1_555
N4 Zr11 2.138215 1_565
N4 Zr1 2.151441 1_555
N4 Zr3 2.161752 1_555
N4 Zr7 2.218690 1_454
N5 Zr6 2.110360 1_445
N5 Zr4 2.122471 1_556
N5 Zr5 2.204089 1_555
N5 Zr13 2.219907 1_545
N6 Zr2 2.118268 1_455
N6 Zr5 2.124723 1_555
N6 Zr8 2.138024 1_555
N6 Zr15 2.292400 1_455
N7 Zr6 2.121620 1_545
N7 Zr14 2.130764 1_555
N7 Zr7 2.152774 1_555
N7 Zr15 2.263450 1_555
N8 Zr12 2.121257 1_554
N8 Zr7 2.122325 1_554
N8 Zr10 2.177519 1_555
N8 Zr14 2.249555 1_554
N9 Zr12 2.129828 1_554
N9 Zr2 2.163380 1_565
N9 Zr11 2.181756 1_665
N9 Zr5 2.192603 1_665
N10 Zr3 2.106005 1_555
N10 Zr6 2.155918 1_555
N10 Zr15 2.191065 1_565
N10 Zr5 2.200352 1_665
N11 Zr7 2.122236 1_555
N11 Zr8 2.148141 1_655
N11 Zr13 2.173237 1_655
N11 Zr15 2.205250 1_555
N12 Zr13 2.144211 1_554
N12 Zr9 2.146414 1_565
N12 Zr11 2.177689 1_565
N12 Zr4 2.182092 1_565
N13 Zr4 2.108039 1_556
N13 Zr14 2.169389 1_555
N13 Zr10 2.170247 1_556
N13 Zr9 2.170568 1_556
N14 Zr1 2.072027 1_545
N14 Zr14 2.171517 1_555
N14 Zr5 2.197378 1_555
N14 Zr11 2.230360 1_555
N15 Zr0 2.098501 1_555
N15 Zr15 2.163327 1_555
N15 Zr11 2.179972 1_555
N15 Zr14 2.235843 1_555
O0 Zr8 2.160805 1_555
O0 Zr1 2.182472 1_555
O0 Zr9 2.292923 1_566
O0 Zr13 2.311760 1_555
O1 Zr2 2.150674 1_455
O1 Zr4 2.216839 1_555
O1 Zr0 2.236757 1_555
O1 Zr11 2.362569 1_555
O2 Zr1 2.103282 1_555
O2 Zr0 2.242147 1_555
O2 Zr6 2.244449 1_555
O2 Zr3 2.356690 1_555
O3 Zr2 2.182916 1_455
O3 Zr1 2.199653 1_555
O3 Zr7 2.261312 1_454
O3 Zr10 2.318896 1_455
O4 Zr8 2.146443 1_555
O4 Zr4 2.193898 1_556
O4 Zr7 2.265032 1_455
O4 Zr3 2.291166 1_556
O5 Zr1 2.206320 1_655
O5 Zr13 2.208141 1_655
O5 Zr10 2.223468 1_555
O5 Zr5 2.309760 1_665
O6 Zr6 2.212591 1_545
O6 Zr2 2.215387 1_556
O6 Zr9 2.219166 1_556
O6 Zr12 2.261335 1_545
O7 Zr8 2.187217 1_555
O7 Zr0 2.209453 1_555
O7 Zr14 2.238036 1_555
O7 Zr12 2.279479 1_555
