# generated using pymatgen
data_Li2Co2C2O7
_symmetry_space_group_name_H-M   'P 1'
_cell_length_a   6.24694400
_cell_length_b   8.91478800
_cell_length_c   10.60852576
_cell_angle_alpha   67.07172826
_cell_angle_beta   90.00000000
_cell_angle_gamma   90.00000000
_symmetry_Int_Tables_number   1
_chemical_formula_structural   Li2Co2C2O7
_chemical_formula_sum   'Li8 Co8 C8 O28'
_cell_volume   544.11429031
_cell_formula_units_Z   4
loop_
 _symmetry_equiv_pos_site_id
 _symmetry_equiv_pos_as_xyz
  1  'x, y, z'
loop_
 _atom_site_type_symbol
 _atom_site_label
 _atom_site_symmetry_multiplicity
 _atom_site_fract_x
 _atom_site_fract_y
 _atom_site_fract_z
 _atom_site_occupancy
  Li  Li0  1  0.90558000  0.93545100  0.12495500  1
  Li  Li1  1  0.59442000  0.43545100  0.12495500  1
  Li  Li2  1  0.20438000  0.70867400  0.02729100  1
  Li  Li3  1  0.70438000  0.79132600  0.97270900  1
  Li  Li4  1  0.29562000  0.20867400  0.02729100  1
  Li  Li5  1  0.79562000  0.29132600  0.97270900  1
  Li  Li6  1  0.40558000  0.56454900  0.87504500  1
  Li  Li7  1  0.09442000  0.06454900  0.87504500  1
  Co  Co0  1  0.39713900  0.83286800  0.48849600  1
  Co  Co1  1  0.10286100  0.33286800  0.48849600  1
  Co  Co2  1  0.45200300  0.55138100  0.35406400  1
  Co  Co3  1  0.04799700  0.05138100  0.35406400  1
  Co  Co4  1  0.95200300  0.94861900  0.64593600  1
  Co  Co5  1  0.54799700  0.44861900  0.64593600  1
  Co  Co6  1  0.89713900  0.66713200  0.51150400  1
  Co  Co7  1  0.60286100  0.16713200  0.51150400  1
  C  C0  1  0.29304200  0.86914800  0.17274900  1
  C  C1  1  0.87128300  0.59140500  0.25484000  1
  C  C2  1  0.20695800  0.36914800  0.17274900  1
  C  C3  1  0.62871700  0.09140500  0.25484000  1
  C  C4  1  0.37128300  0.90859500  0.74516000  1
  C  C5  1  0.79304200  0.63085200  0.82725100  1
  C  C6  1  0.12871700  0.40859500  0.74516000  1
  C  C7  1  0.70695800  0.13085200  0.82725100  1
  O  O0  1  0.57380600  0.65568500  0.47524800  1
  O  O1  1  0.77967700  0.98833900  0.26498100  1
  O  O2  1  0.25051900  0.88879600  0.28358200  1
  O  O3  1  0.98179900  0.57620000  0.36442900  1
  O  O4  1  0.92619400  0.15568500  0.47524800  1
  O  O5  1  0.72032300  0.48833900  0.26498100  1
  O  O6  1  0.39810900  0.74296500  0.17285800  1
  O  O7  1  0.24948100  0.38879600  0.28358200  1
  O  O8  1  0.51820100  0.07620000  0.36442900  1
  O  O9  1  0.91266500  0.70819100  0.13845200  1
  O  O10  1  0.22152700  0.97480500  0.05606600  1
  O  O11  1  0.10189100  0.24296500  0.17285800  1
  O  O12  1  0.58733500  0.20819100  0.13845200  1
  O  O13  1  0.27847300  0.47480500  0.05606600  1
  O  O14  1  0.72152700  0.52519500  0.94393400  1
  O  O15  1  0.41266500  0.79180900  0.86154800  1
  O  O16  1  0.89810900  0.75703500  0.82714200  1
  O  O17  1  0.77847300  0.02519500  0.94393400  1
  O  O18  1  0.08733500  0.29180900  0.86154800  1
  O  O19  1  0.48179900  0.92380000  0.63557100  1
  O  O20  1  0.75051900  0.61120400  0.71641800  1
  O  O21  1  0.60189100  0.25703500  0.82714200  1
  O  O22  1  0.27967700  0.51166100  0.73501900  1
  O  O23  1  0.07380600  0.84431500  0.52475200  1
  O  O24  1  0.01820100  0.42380000  0.63557100  1
  O  O25  1  0.74948100  0.11120400  0.71641800  1
  O  O26  1  0.22032300  0.01166100  0.73501900  1
  O  O27  1  0.42619400  0.34431500  0.52475200  1
loop_
_geom_bond_atom_site_label_1
_geom_bond_atom_site_label_2
_geom_bond_distance
_geom_bond_site_symmetry_2
Li0 O1 1.895578 1_555
Li0 O17 1.939402 1_564
Li0 O9 1.975098 1_555
Li0 O10 2.086361 1_655
Li1 O5 1.895578 1_555
Li1 O14 1.939402 1_554
Li1 O12 1.975098 1_555
Li1 O13 2.086361 1_555
Li2 O13 2.039194 1_555
Li2 O6 2.076198 1_555
Li2 O15 2.078099 1_554
Li2 O9 2.169696 1_455
Li3 O17 2.039194 1_565
Li3 O16 2.076198 1_555
Li3 O9 2.078099 1_556
Li3 O15 2.169696 1_555
Li4 O10 2.039194 1_545
Li4 O11 2.076198 1_555
Li4 O18 2.078099 1_554
Li4 O12 2.169696 1_555
Li5 O14 2.039194 1_555
Li5 O21 2.076198 1_555
Li5 O12 2.078099 1_556
Li5 O18 2.169696 1_655
Li6 O22 1.895578 1_555
Li6 O13 1.939402 1_556
Li6 O15 1.975098 1_555
Li6 O14 2.086361 1_555
Li7 O26 1.895578 1_555
Li7 O10 1.939402 1_546
Li7 O18 1.975098 1_555
Li7 O17 2.086361 1_455
Co0 O0 1.976282 1_555
Co0 O23 2.066082 1_555
Co0 O19 2.087269 1_555
Co0 O8 2.187539 1_565
Co0 O2 2.229033 1_555
Co1 O4 1.976282 1_455
Co1 O27 2.066082 1_555
Co1 O24 2.087269 1_555
Co1 O3 2.187539 1_455
Co1 O7 2.229033 1_555
Co2 O0 2.006915 1_555
Co2 O27 2.026811 1_555
Co2 O6 2.041468 1_555
Co2 O5 2.105316 1_555
Co2 O7 2.259392 1_555
Co3 O4 2.006915 1_455
Co3 O23 2.026811 1_545
Co3 O11 2.041468 1_555
Co3 O1 2.105316 1_445
Co3 O2 2.259392 1_545
Co4 O23 2.006915 1_655
Co4 O4 2.026811 1_565
Co4 O16 2.041468 1_555
Co4 O26 2.105316 1_665
Co4 O25 2.259392 1_565
Co5 O27 2.006915 1_555
Co5 O0 2.026811 1_555
Co5 O21 2.041468 1_555
Co5 O22 2.105316 1_555
Co5 O20 2.259392 1_555
Co6 O23 1.976282 1_655
Co6 O0 2.066082 1_555
Co6 O3 2.087269 1_555
Co6 O24 2.187539 1_655
Co6 O20 2.229033 1_555
Co7 O27 1.976282 1_555
Co7 O4 2.066082 1_555
Co7 O8 2.087269 1_555
Co7 O19 2.187539 1_545
Co7 O25 2.229033 1_555
C0 O2 1.282246 1_555
C0 O6 1.301986 1_555
C0 O10 1.307889 1_555
C1 O5 1.291547 1_555
C1 O9 1.293704 1_555
C1 O3 1.312940 1_555
C2 O7 1.282246 1_555
C2 O11 1.301986 1_555
C2 O13 1.307889 1_555
C3 O1 1.291547 1_545
C3 O12 1.293704 1_555
C3 O8 1.312940 1_555
C4 O26 1.291547 1_565
C4 O15 1.293704 1_555
C4 O19 1.312940 1_555
C5 O20 1.282246 1_555
C5 O16 1.301986 1_555
C5 O14 1.307889 1_555
C6 O22 1.291547 1_555
C6 O18 1.293704 1_555
C6 O24 1.312940 1_555
C7 O25 1.282246 1_555
C7 O21 1.301986 1_555
C7 O17 1.307889 1_555
