# generated using pymatgen
data_Na7(WO3)9
_symmetry_space_group_name_H-M   'P 1'
_cell_length_a   6.69446042
_cell_length_b   8.63982042
_cell_length_c   9.46768307
_cell_angle_alpha   100.49631542
_cell_angle_beta   90.01545995
_cell_angle_gamma   104.95078709
_symmetry_Int_Tables_number   1
_chemical_formula_structural   Na7(WO3)9
_chemical_formula_sum   'Na7 W9 O27'
_cell_volume   519.56583851
_cell_formula_units_Z   1
loop_
 _symmetry_equiv_pos_site_id
 _symmetry_equiv_pos_as_xyz
  1  'x, y, z'
loop_
 _atom_site_type_symbol
 _atom_site_label
 _atom_site_symmetry_multiplicity
 _atom_site_fract_x
 _atom_site_fract_y
 _atom_site_fract_z
 _atom_site_occupancy
  Na  Na0  1  0.22345034  0.66740673  0.11069162  1
  Na  Na1  1  0.88891126  0.66908443  0.44359304  1
  Na  Na2  1  0.44860024  0.33028874  0.22035482  1
  Na  Na3  1  0.55786195  0.66335171  0.77835777  1
  Na  Na4  1  0.33668896  0.00247040  0.66793967  1
  Na  Na5  1  0.10703411  0.33049556  0.55436897  1
  Na  Na6  1  0.99721367  0.00344205  0.00065569  1
  W  W0  1  0.72225095  0.66671347  0.11125665  1
  W  W1  1  0.94224463  0.33195714  0.22108771  1
  W  W2  1  0.61130414  0.33117139  0.55564842  1
  W  W3  1  0.83269688  0.00213375  0.66656959  1
  W  W4  1  0.39039132  0.66835190  0.44372961  1
  W  W5  1  0.16593852  0.00034545  0.33310216  1
  W  W6  1  0.27833674  0.33306379  0.88924178  1
  W  W7  1  0.50213991  0.00132728  0.00123426  1
  W  W8  1  0.05395613  0.66492877  0.77852400  1
  O  O0  1  0.61014128  0.83161349  0.05325579  1
  O  O1  1  0.83392049  0.50161641  0.16912617  1
  O  O2  1  0.72223608  0.16660397  0.11112864  1
  O  O3  1  0.94688173  0.83147976  0.22143268  1
  O  O4  1  0.11503666  0.33310320  0.05759247  1
  O  O5  1  0.55413854  0.66282286  0.27735192  1
  O  O6  1  0.32932659  0.00044295  0.16477426  1
  O  O7  1  0.77818258  0.33673715  0.38923795  1
  O  O8  1  0.94436395  0.83302966  0.72215258  1
  O  O9  1  0.27396640  0.83160749  0.38909074  1
  O  O10  1  0.72214974  0.16668824  0.61109394  1
  O  O11  1  0.49959883  0.50022486  0.50024434  1
  O  O12  1  0.83365208  0.50146854  0.66460756  1
  O  O13  1  0.05869300  0.16844065  0.27766941  1
  O  O14  1  0.38603473  0.16824620  0.44525229  1
  O  O15  1  0.61057892  0.83194404  0.55748116  1
  O  O16  1  0.16634874  0.50040102  0.33366422  1
  O  O17  1  0.44056262  0.33284895  0.72023247  1
  O  O18  1  0.22217468  0.66683532  0.61118237  1
  O  O19  1  0.66566338  0.99659361  0.83288430  1
  O  O20  1  0.89010182  0.67030160  0.94495563  1
  O  O21  1  0.00369722  0.00038997  0.50209319  1
  O  O22  1  0.38556525  0.16498003  0.94484023  1
  O  O23  1  0.17039198  0.50171642  0.83313937  1
  O  O24  1  0.49736452  0.50196576  0.00093424  1
  O  O25  1  0.27763101  0.83299312  0.88884703  1
  O  O26  1  0.05813142  0.16503415  0.77715825  1
loop_
_geom_bond_atom_site_label_1
_geom_bond_atom_site_label_2
_geom_bond_distance
_geom_bond_site_symmetry_2
Na0 O24 2.701427 1_555
Na0 O3 2.711178 1_455
Na0 O0 2.719671 1_555
Na0 O25 2.723460 1_554
Na0 O23 2.728960 1_554
Na0 O6 2.730299 1_565
Na0 O5 2.730977 1_555
Na0 O9 2.732026 1_555
Na0 O20 2.735692 1_454
Na0 O16 2.740471 1_555
Na0 O4 2.740624 1_555
Na0 O1 2.742279 1_455
Na1 O9 2.698105 1_655
Na1 O1 2.708567 1_555
Na1 O3 2.708870 1_555
Na1 O21 2.716231 1_665
Na1 O5 2.721634 1_555
Na1 O15 2.723128 1_555
Na1 O7 2.724430 1_555
Na1 O12 2.727756 1_555
Na1 O8 2.732522 1_555
Na1 O16 2.738942 1_655
Na1 O18 2.743552 1_655
Na1 O11 2.744548 1_555
Na2 O2 2.688851 1_555
Na2 O6 2.704655 1_555
Na2 O7 2.707396 1_555
Na2 O22 2.711674 1_554
Na2 O1 2.715202 1_555
Na2 O4 2.720560 1_555
Na2 O5 2.726218 1_555
Na2 O14 2.730064 1_555
Na2 O13 2.730744 1_555
Na2 O24 2.737777 1_555
Na2 O11 2.759993 1_555
Na2 O16 2.782235 1_555
Na3 O12 2.703588 1_555
Na3 O24 2.707120 1_556
Na3 O20 2.707965 1_555
Na3 O23 2.709814 1_555
Na3 O17 2.709894 1_555
Na3 O0 2.714425 1_556
Na3 O11 2.726787 1_555
Na3 O8 2.730354 1_555
Na3 O19 2.731846 1_555
Na3 O15 2.732086 1_555
Na3 O18 2.757987 1_555
Na3 O25 2.760978 1_555
Na4 O17 2.708707 1_555
Na4 O26 2.709740 1_555
Na4 O10 2.711327 1_555
Na4 O22 2.715260 1_555
Na4 O19 2.715915 1_545
Na4 O21 2.720713 1_555
Na4 O15 2.731253 1_545
Na4 O14 2.731678 1_555
Na4 O25 2.737183 1_545
Na4 O18 2.751443 1_545
Na4 O9 2.754094 1_545
Na4 O8 2.755934 1_445
Na5 O21 2.706514 1_555
Na5 O10 2.706726 1_455
Na5 O14 2.710202 1_555
Na5 O13 2.712433 1_555
Na5 O7 2.717315 1_455
Na5 O17 2.723014 1_555
Na5 O12 2.730389 1_455
Na5 O26 2.730837 1_555
Na5 O16 2.737900 1_555
Na5 O23 2.754513 1_555
Na5 O18 2.757237 1_555
Na5 O11 2.757803 1_555
Na6 O2 2.696780 1_555
Na6 O4 2.703006 1_655
Na6 O19 2.710910 1_544
Na6 O26 2.715877 1_654
Na6 O22 2.717233 1_654
Na6 O6 2.720424 1_655
Na6 O13 2.722963 1_655
Na6 O0 2.729768 1_545
Na6 O20 2.731040 1_544
Na6 O8 2.749872 1_544
Na6 O3 2.750199 1_545
Na6 O25 2.769987 1_644
O0 W7 1.930103 1_565
O0 W0 1.931618 1_555
O1 W1 1.930688 1_555
O1 W0 1.930909 1_555
O2 W7 1.914373 1_555
O2 W1 1.914581 1_555
O3 W0 1.931194 1_555
O3 W5 1.931349 1_665
O4 W1 1.932581 1_455
O4 W6 1.933009 1_554
O5 W4 1.919833 1_555
O5 W0 1.934237 1_555
O6 W7 1.933015 1_555
O6 W5 1.933169 1_555
O7 W2 1.932217 1_555
O7 W1 1.934637 1_555
O8 W8 1.940220 1_655
O8 W3 1.952904 1_565
O9 W4 1.922874 1_555
O9 W5 1.937709 1_565
O10 W3 1.913001 1_555
O10 W2 1.913491 1_555
O11 W4 1.939512 1_555
O11 W2 1.951973 1_555
O12 W8 1.924132 1_655
O12 W2 1.939270 1_555
O13 W5 1.927591 1_555
O13 W1 1.932441 1_455
O14 W2 1.927670 1_555
O14 W5 1.933352 1_555
O15 W4 1.923512 1_555
O15 W3 1.938442 1_565
O16 W4 1.940693 1_555
O16 W1 1.952478 1_455
O17 W2 1.932892 1_555
O17 W6 1.934097 1_555
O18 W8 1.944086 1_555
O18 W4 1.944915 1_555
O19 W3 1.932063 1_565
O19 W7 1.934115 1_566
O20 W8 1.920634 1_655
O20 W0 1.934778 1_556
O21 W3 1.933109 1_455
O21 W5 1.934020 1_555
O22 W6 1.928080 1_555
O22 W7 1.933256 1_556
O23 W8 1.922497 1_555
O23 W6 1.937174 1_555
O24 W6 1.931472 1_554
O24 W0 1.932693 1_555
O25 W8 1.940688 1_555
O25 W7 1.952883 1_566
O26 W3 1.928981 1_455
O26 W6 1.934013 1_555
