# generated using pymatgen
data_Li2V3CoO8
_symmetry_space_group_name_H-M   'P 1'
_cell_length_a   6.39823739
_cell_length_b   6.39823739
_cell_length_c   6.52776002
_cell_angle_alpha   74.07695643
_cell_angle_beta   74.07695643
_cell_angle_gamma   36.45258597
_symmetry_Int_Tables_number   1
_chemical_formula_structural   Li2V3CoO8
_chemical_formula_sum   'Li2 V3 Co1 O8'
_cell_volume   152.00920573
_cell_formula_units_Z   1
loop_
 _symmetry_equiv_pos_site_id
 _symmetry_equiv_pos_as_xyz
  1  'x, y, z'
loop_
 _atom_site_type_symbol
 _atom_site_label
 _atom_site_symmetry_multiplicity
 _atom_site_fract_x
 _atom_site_fract_y
 _atom_site_fract_z
 _atom_site_occupancy
  Li  Li0  1  0.93982600  0.93982600  0.34594600  1
  Li  Li1  1  0.06021400  0.06021400  0.63715800  1
  V  V0  1  0.60786000  0.60786000  0.29764900  1
  V  V1  1  0.38870500  0.38870500  0.72217400  1
  V  V2  1  0.70885000  0.70885000  0.71187100  1
  Co  Co0  1  0.28945100  0.28945100  0.30141700  1
  O  O0  1  0.87891900  0.87891900  0.67088600  1
  O  O1  1  0.75856700  0.75856700  0.36317700  1
  O  O2  1  0.65532700  0.65532700  0.98860000  1
  O  O3  1  0.55980000  0.55980000  0.64028700  1
  O  O4  1  0.45204200  0.45204200  0.35275900  1
  O  O5  1  0.35519300  0.35519300  0.99022600  1
  O  O6  1  0.23367800  0.23367800  0.66171100  1
  O  O7  1  0.11156800  0.11156800  0.31614000  1
loop_
_geom_bond_atom_site_label_1
_geom_bond_atom_site_label_2
_geom_bond_distance
_geom_bond_site_symmetry_2
Li0 O4 2.008125 1_655
Li0 O4 2.008125 1_565
Li0 O0 2.034731 1_555
Li0 O7 2.039756 1_665
Li0 O1 2.173286 1_555
Li1 O3 2.001278 1_545
Li1 O3 2.001278 1_455
Li1 O7 2.006302 1_555
Li1 O0 2.150306 1_445
Li1 O6 2.160112 1_555
Co0 O5 1.956355 1_554
Co0 O1 2.054446 1_545
Co0 O1 2.054446 1_455
Co0 O4 2.097694 1_555
Co0 O7 2.136294 1_555
Co0 O6 2.251670 1_555
O0 V2 2.006239 1_555
O0 V1 2.038129 1_655
O0 V1 2.038129 1_565
O1 V0 1.997737 1_555
O1 V2 2.179824 1_555
O2 V2 1.734216 1_555
O2 V0 1.931421 1_556
O3 V1 1.992030 1_555
O3 V2 1.997336 1_555
O3 V0 2.142222 1_555
O4 V0 1.822809 1_555
O4 V1 2.309836 1_555
O5 V1 1.678069 1_555
O6 V1 2.033683 1_555
O6 V2 2.036155 1_455
O6 V2 2.036155 1_545
O7 V0 2.006109 1_545
O7 V0 2.006109 1_455
