# generated using pymatgen
data_Li3CoNi3O8
_symmetry_space_group_name_H-M   'P 1'
_cell_length_a   5.68312411
_cell_length_b   5.68209570
_cell_length_c   9.18631932
_cell_angle_alpha   90.02183186
_cell_angle_beta   89.91376052
_cell_angle_gamma   119.97467835
_symmetry_Int_Tables_number   1
_chemical_formula_structural   Li3CoNi3O8
_chemical_formula_sum   'Li6 Co2 Ni6 O16'
_cell_volume   256.96742925
_cell_formula_units_Z   2
loop_
 _symmetry_equiv_pos_site_id
 _symmetry_equiv_pos_as_xyz
  1  'x, y, z'
loop_
 _atom_site_type_symbol
 _atom_site_label
 _atom_site_symmetry_multiplicity
 _atom_site_fract_x
 _atom_site_fract_y
 _atom_site_fract_z
 _atom_site_occupancy
  Li  Li0  1  0.16888700  0.83070800  0.05333400  1
  Li  Li1  1  0.66297400  0.83176800  0.05314100  1
  Li  Li2  1  0.16864200  0.33797100  0.05333200  1
  Li  Li3  1  0.83085800  0.66209400  0.55304500  1
  Li  Li4  1  0.33813700  0.16909400  0.55312400  1
  Li  Li5  1  0.83105400  0.16831300  0.55274700  1
  Co  Co0  1  0.33342400  0.66666300  0.50871300  1
  Co  Co1  1  0.66664100  0.33344300  0.00864300  1
  Ni  Ni0  1  0.16977900  0.83007900  0.78617700  1
  Ni  Ni1  1  0.66007100  0.83012000  0.78609100  1
  Ni  Ni2  1  0.16980400  0.33976100  0.78612500  1
  Ni  Ni3  1  0.83011500  0.66032800  0.28614000  1
  Ni  Ni4  1  0.33976500  0.16994900  0.28613900  1
  Ni  Ni5  1  0.83004400  0.16986500  0.28613600  1
  O  O0  1  0.16389000  0.83627200  0.41004700  1
  O  O1  1  0.48188500  0.96346400  0.65103600  1
  O  O2  1  0.67283600  0.83656200  0.40946100  1
  O  O3  1  0.33138100  0.66619200  0.89476700  1
  O  O4  1  0.03626700  0.51768300  0.65056900  1
  O  O5  1  0.48177500  0.51818300  0.65157000  1
  O  O6  1  0.83626600  0.67290100  0.90965300  1
  O  O7  1  0.16383600  0.32754400  0.40971900  1
  O  O8  1  0.51822400  0.48196500  0.15043700  1
  O  O9  1  0.66511700  0.33341400  0.39486900  1
  O  O10  1  0.00139200  0.00003100  0.18685900  1
  O  O11  1  0.96339600  0.48152700  0.15120800  1
  O  O12  1  0.00155300  0.00037300  0.68688200  1
  O  O13  1  0.32754800  0.16404600  0.90999600  1
  O  O14  1  0.51815300  0.03628900  0.15083700  1
  O  O15  1  0.83645800  0.16339600  0.90931700  1
loop_
_geom_bond_atom_site_label_1
_geom_bond_atom_site_label_2
_geom_bond_distance
_geom_bond_site_symmetry_2
Li0 O11 1.947226 1_455
Li0 O14 1.947920 1_565
Li0 O10 2.060831 1_565
Li0 O13 2.103832 1_564
Li0 O6 2.105325 1_454
Li0 O3 2.169327 1_554
Li1 O14 1.945774 1_565
Li1 O8 1.947181 1_555
Li1 O10 2.071423 1_665
Li1 O6 2.098987 1_554
Li1 O15 2.099994 1_564
Li1 O3 2.188307 1_554
Li2 O11 1.944577 1_455
Li2 O8 1.947492 1_555
Li2 O10 2.066343 1_555
Li2 O13 2.100766 1_554
Li2 O15 2.105580 1_454
Li2 O3 2.174806 1_554
Li3 O5 1.948787 1_555
Li3 O4 1.949239 1_655
Li3 O12 2.070227 1_665
Li3 O0 2.099776 1_655
Li3 O2 2.103146 1_555
Li3 O9 2.175030 1_555
Li4 O1 1.948943 1_545
Li4 O5 1.949774 1_555
Li4 O12 2.061379 1_555
Li4 O0 2.101248 1_545
Li4 O7 2.103157 1_555
Li4 O9 2.167395 1_555
Li5 O1 1.948136 1_545
Li5 O4 1.948559 1_655
Li5 O12 2.072739 1_655
Li5 O2 2.098202 1_545
Li5 O7 2.098889 1_655
Li5 O9 2.182196 1_555
Co0 O0 1.899929 1_555
Co0 O7 1.901169 1_555
Co0 O2 1.902278 1_555
Co0 O4 1.957666 1_555
Co0 O1 1.960913 1_555
Co0 O5 1.964624 1_555
Co1 O13 1.900664 1_554
Co1 O6 1.901931 1_554
Co1 O15 1.904204 1_554
Co1 O8 1.956386 1_555
Co1 O14 1.960582 1_555
Co1 O11 1.963486 1_555
Ni0 O3 1.887798 1_555
Ni0 O12 1.900013 1_565
Ni0 O1 1.978017 1_555
Ni0 O4 1.983375 1_555
Ni0 O6 1.994890 1_455
Ni0 O13 1.999995 1_565
Ni1 O3 1.900034 1_555
Ni1 O12 1.911040 1_665
Ni1 O5 1.975576 1_555
Ni1 O1 1.977357 1_555
Ni1 O15 1.994323 1_565
Ni1 O6 1.996789 1_555
Ni2 O3 1.891831 1_555
Ni2 O12 1.903435 1_555
Ni2 O5 1.974176 1_555
Ni2 O4 1.979678 1_555
Ni2 O15 1.992806 1_455
Ni2 O13 1.998428 1_555
Ni3 O9 1.893551 1_555
Ni3 O10 1.904283 1_665
Ni3 O11 1.976744 1_555
Ni3 O8 1.983342 1_555
Ni3 O2 1.993880 1_555
Ni3 O0 2.000989 1_655
Ni4 O9 1.888912 1_555
Ni4 O10 1.900346 1_555
Ni4 O14 1.978460 1_555
Ni4 O8 1.981662 1_555
Ni4 O7 1.995179 1_555
Ni4 O0 1.998506 1_545
Ni5 O9 1.899128 1_555
Ni5 O10 1.909687 1_655
Ni5 O11 1.975991 1_555
Ni5 O14 1.980984 1_555
Ni5 O2 1.994052 1_545
Ni5 O7 1.999379 1_655
