# generated using pymatgen
data_Li2NiP2O7
_symmetry_space_group_name_H-M   'P 1'
_cell_length_a   7.75138538
_cell_length_b   7.75138538
_cell_length_c   7.90129899
_cell_angle_alpha   64.31874646
_cell_angle_beta   64.31874646
_cell_angle_gamma   42.16086359
_symmetry_Int_Tables_number   1
_chemical_formula_structural   Li2NiP2O7
_chemical_formula_sum   'Li4 Ni2 P4 O14'
_cell_volume   282.19971802
_cell_formula_units_Z   2
loop_
 _symmetry_equiv_pos_site_id
 _symmetry_equiv_pos_as_xyz
  1  'x, y, z'
loop_
 _atom_site_type_symbol
 _atom_site_label
 _atom_site_symmetry_multiplicity
 _atom_site_fract_x
 _atom_site_fract_y
 _atom_site_fract_z
 _atom_site_occupancy
  Li  Li0  1  0.93527400  0.62794200  0.80574600  1
  Li  Li1  1  0.37205800  0.06472600  0.69425400  1
  Li  Li2  1  0.62794200  0.93527400  0.30574600  1
  Li  Li3  1  0.06472600  0.37205800  0.19425400  1
  Ni  Ni0  1  0.00000000  0.00000000  0.50000000  1
  Ni  Ni1  1  0.00000000  0.00000000  0.00000000  1
  P  P0  1  0.53130600  0.24536500  0.85793400  1
  P  P1  1  0.24536500  0.53130600  0.35793400  1
  P  P2  1  0.75463500  0.46869400  0.64206600  1
  P  P3  1  0.46869400  0.75463500  0.14206600  1
  O  O0  1  0.70699100  0.05965200  0.71368700  1
  O  O1  1  0.25840200  0.35196400  0.91983000  1
  O  O2  1  0.11660600  0.66497100  0.52811000  1
  O  O3  1  0.05965200  0.70699100  0.21368700  1
  O  O4  1  0.35196400  0.25840200  0.41983000  1
  O  O5  1  0.66497100  0.11660600  0.02811000  1
  O  O6  1  0.33502900  0.88339400  0.97189000  1
  O  O7  1  0.64803600  0.74159800  0.58017000  1
  O  O8  1  0.94034800  0.29300900  0.78631300  1
  O  O9  1  0.88339400  0.33502900  0.47189000  1
  O  O10  1  0.74159800  0.64803600  0.08017000  1
  O  O11  1  0.29300900  0.94034800  0.28631300  1
  O  O12  1  0.50312000  0.49688000  0.75000000  1
  O  O13  1  0.49688000  0.50312000  0.25000000  1
loop_
_geom_bond_atom_site_label_1
_geom_bond_atom_site_label_2
_geom_bond_distance
_geom_bond_site_symmetry_2
Li0 O1 2.001078 1_655
Li0 O10 2.025903 1_556
Li0 O2 2.061599 1_655
Li0 O0 2.255121 1_565
Li1 O7 2.001078 1_545
Li1 O4 2.025903 1_555
Li1 O6 2.061599 1_545
Li1 O8 2.255121 1_455
Li2 O4 2.001078 1_565
Li2 O7 2.025903 1_555
Li2 O5 2.061599 1_565
Li2 O3 2.255121 1_655
Li3 O10 2.001078 1_455
Li3 O1 2.025903 1_554
Li3 O9 2.061599 1_455
Li3 O11 2.255121 1_545
Ni0 O9 1.950532 1_455
Ni0 O2 1.950532 1_545
Ni0 O11 2.004749 1_545
Ni0 O0 2.004749 1_455
Ni1 O6 1.950532 1_544
Ni1 O5 1.950532 1_455
Ni1 O8 2.004749 1_454
Ni1 O3 2.004749 1_545
O0 P0 1.547988 1_555
O1 P0 1.503004 1_555
O2 P1 1.545592 1_555
O3 P1 1.547988 1_555
O4 P1 1.503004 1_555
O5 P0 1.545592 1_554
O6 P3 1.545592 1_556
O7 P2 1.503004 1_555
O8 P2 1.547988 1_555
O9 P2 1.545592 1_555
O10 P3 1.503004 1_555
O11 P3 1.547988 1_555
O12 P2 1.632447 1_555
O12 P0 1.632447 1_555
O13 P3 1.632447 1_555
O13 P1 1.632447 1_555
