# generated using pymatgen
data_Rb3SbO3
_symmetry_space_group_name_H-M   'P 1'
_cell_length_a   8.73024333
_cell_length_b   8.73024333
_cell_length_c   8.73024333
_cell_angle_alpha   90.00000000
_cell_angle_beta   90.00000000
_cell_angle_gamma   90.00000000
_symmetry_Int_Tables_number   1
_chemical_formula_structural   Rb3SbO3
_chemical_formula_sum   'Rb12 Sb4 O12'
_cell_volume   665.39425321
_cell_formula_units_Z   4
loop_
 _symmetry_equiv_pos_site_id
 _symmetry_equiv_pos_as_xyz
  1  'x, y, z'
loop_
 _atom_site_type_symbol
 _atom_site_label
 _atom_site_symmetry_multiplicity
 _atom_site_fract_x
 _atom_site_fract_y
 _atom_site_fract_z
 _atom_site_occupancy
  Rb  Rb0  1  0.02330240  0.02330240  0.02330240  1
  Rb  Rb1  1  0.21423129  0.28576871  0.71423129  1
  Rb  Rb2  1  0.21976848  0.71976848  0.78023152  1
  Rb  Rb3  1  0.28023152  0.28023152  0.28023152  1
  Rb  Rb4  1  0.28576871  0.71423129  0.21423129  1
  Rb  Rb5  1  0.47669760  0.97669760  0.52330240  1
  Rb  Rb6  1  0.52330240  0.47669760  0.97669760  1
  Rb  Rb7  1  0.71423129  0.21423129  0.28576871  1
  Rb  Rb8  1  0.71976848  0.78023152  0.21976848  1
  Rb  Rb9  1  0.78023152  0.21976848  0.71976848  1
  Rb  Rb10  1  0.78576871  0.78576871  0.78576871  1
  Rb  Rb11  1  0.97669760  0.52330240  0.47669760  1
  Sb  Sb0  1  0.01021637  0.98978363  0.48978363  1
  Sb  Sb1  1  0.48978363  0.01021637  0.98978363  1
  Sb  Sb2  1  0.51021637  0.51021637  0.51021637  1
  Sb  Sb3  1  0.98978363  0.48978363  0.01021637  1
  O  O0  1  0.00581655  0.20877745  0.44817081  1
  O  O1  1  0.05182919  0.99418345  0.70877745  1
  O  O2  1  0.20877745  0.44817081  0.00581655  1
  O  O3  1  0.29122255  0.55182919  0.50581655  1
  O  O4  1  0.44817081  0.00581655  0.20877745  1
  O  O5  1  0.49418345  0.79122255  0.94817081  1
  O  O6  1  0.50581655  0.29122255  0.55182919  1
  O  O7  1  0.55182919  0.50581655  0.29122255  1
  O  O8  1  0.70877745  0.05182919  0.99418345  1
  O  O9  1  0.79122255  0.94817081  0.49418345  1
  O  O10  1  0.94817081  0.49418345  0.79122255  1
  O  O11  1  0.99418345  0.70877745  0.05182919  1
loop_
_geom_bond_atom_site_label_1
_geom_bond_atom_site_label_2
_geom_bond_distance
_geom_bond_site_symmetry_2
O0 Sb0 1.946458 1_545
O0 Rb11 2.768845 1_455
O0 Rb3 2.877180 1_555
O0 Rb7 2.914204 1_455
O0 Rb1 3.026167 1_555
O0 Rb9 3.083824 1_455
O1 Sb0 1.946458 1_555
O1 Rb0 2.768845 1_566
O1 Rb2 2.877180 1_555
O1 Rb1 2.914204 1_565
O1 Rb10 3.026167 1_455
O1 Rb9 3.083824 1_465
O2 Sb3 1.946458 1_455
O2 Rb6 2.768845 1_554
O2 Rb3 2.877180 1_555
O2 Rb1 2.914204 1_554
O2 Rb4 3.026167 1_555
O2 Rb2 3.083824 1_554
O3 Sb2 1.946458 1_555
O3 Rb11 2.768845 1_455
O3 Rb2 2.877180 1_555
O3 Rb4 2.914204 1_555
O3 Rb1 3.026167 1_555
O3 Rb3 3.083824 1_555
O4 Sb1 1.946458 1_554
O4 Rb5 2.768845 1_545
O4 Rb3 2.877180 1_555
O4 Rb4 2.914204 1_545
O4 Rb7 3.026167 1_555
O4 Rb8 3.083824 1_545
O5 Sb1 1.946458 1_565
O5 Rb6 2.768845 1_555
O5 Rb2 2.877180 1_555
O5 Rb10 2.914204 1_555
O5 Rb4 3.026167 1_556
O5 Rb8 3.083824 1_556
O6 Sb2 1.946458 1_555
O6 Rb5 2.768845 1_545
O6 Rb9 2.877180 1_555
O6 Rb1 2.914204 1_555
O6 Rb7 3.026167 1_555
O6 Rb3 3.083824 1_555
O7 Sb2 1.946458 1_555
O7 Rb6 2.768845 1_554
O7 Rb8 2.877180 1_555
O7 Rb7 2.914204 1_555
O7 Rb4 3.026167 1_555
O7 Rb3 3.083824 1_555
O8 Sb1 1.946458 1_555
O8 Rb0 2.768845 1_656
O8 Rb9 2.877180 1_555
O8 Rb7 2.914204 1_556
O8 Rb10 3.026167 1_545
O8 Rb8 3.083824 1_546
O9 Sb0 1.946458 1_655
O9 Rb5 2.768845 1_555
O9 Rb8 2.877180 1_555
O9 Rb10 2.914204 1_555
O9 Rb7 3.026167 1_565
O9 Rb9 3.083824 1_565
O10 Sb3 1.946458 1_556
O10 Rb11 2.768845 1_555
O10 Rb9 2.877180 1_555
O10 Rb10 2.914204 1_555
O10 Rb1 3.026167 1_655
O10 Rb2 3.083824 1_655
O11 Sb3 1.946458 1_555
O11 Rb0 2.768845 1_665
O11 Rb8 2.877180 1_555
O11 Rb4 2.914204 1_655
O11 Rb10 3.026167 1_554
O11 Rb2 3.083824 1_654
