# generated using pymatgen
data_YZr5O11
_symmetry_space_group_name_H-M   'P 1'
_cell_length_a   3.57782700
_cell_length_b   6.57055100
_cell_length_c   9.07689325
_cell_angle_alpha   89.73889846
_cell_angle_beta   90.00000000
_cell_angle_gamma   90.00000000
_symmetry_Int_Tables_number   1
_chemical_formula_structural   YZr5O11
_chemical_formula_sum   'Y1 Zr5 O11'
_cell_volume   213.38006648
_cell_formula_units_Z   1
loop_
 _symmetry_equiv_pos_site_id
 _symmetry_equiv_pos_as_xyz
  1  'x, y, z'
loop_
 _atom_site_type_symbol
 _atom_site_label
 _atom_site_symmetry_multiplicity
 _atom_site_fract_x
 _atom_site_fract_y
 _atom_site_fract_z
 _atom_site_occupancy
  Y  Y0  1  0.50000000  0.83187000  0.33367300  1
  Zr  Zr0  1  0.50000000  0.18381000  0.66768400  1
  Zr  Zr1  1  0.50000000  0.50646900  0.00492000  1
  Zr  Zr2  1  0.00000000  0.66558000  0.67095300  1
  Zr  Zr3  1  0.00000000  0.31599300  0.33298600  1
  Zr  Zr4  1  0.00000000  0.99061200  0.99860200  1
  O  O0  1  0.50000000  0.77523600  0.58547800  1
  O  O1  1  0.50000000  0.46408000  0.77360000  1
  O  O2  1  0.50000000  0.47879200  0.28095000  1
  O  O3  1  0.50000000  0.79522100  0.08832000  1
  O  O4  1  0.50000000  0.13074100  0.93151700  1
  O  O5  1  0.50000000  0.14410900  0.44029600  1
  O  O6  1  0.00000000  0.36957900  0.07570700  1
  O  O7  1  0.00000000  0.70208900  0.89815900  1
  O  O8  1  0.00000000  0.03433300  0.72271900  1
  O  O9  1  0.00000000  0.02611900  0.23172500  1
  O  O10  1  0.00000000  0.38809800  0.56134400  1
loop_
_geom_bond_atom_site_label_1
_geom_bond_atom_site_label_2
_geom_bond_distance
_geom_bond_site_symmetry_2
O0 Zr2 2.077541 1_655
O0 Zr2 2.077541 1_555
O0 Y0 2.314027 1_555
O0 Zr0 2.789602 1_565
O1 Zr0 2.081257 1_555
O1 Zr1 2.119317 1_556
O1 Zr2 2.410384 1_655
O1 Zr2 2.410384 1_555
O2 Zr3 2.136097 1_555
O2 Zr3 2.136097 1_655
O2 Y0 2.370897 1_555
O2 Zr1 2.511259 1_555
O3 Zr1 2.045911 1_555
O3 Y0 2.241115 1_555
O3 Zr4 2.345651 1_654
O3 Zr4 2.345651 1_554
O4 Zr4 2.100863 1_545
O4 Zr4 2.100863 1_645
O4 Zr0 2.418464 1_555
O4 Zr1 2.559997 1_556
O5 Zr0 2.081575 1_555
O5 Y0 2.272385 1_545
O5 Zr3 2.326892 1_655
O5 Zr3 2.326892 1_555
O6 Zr1 2.101614 1_455
O6 Zr1 2.101614 1_555
O6 Zr3 2.360100 1_555
O6 Zr4 2.589578 1_544
O7 Zr2 2.077315 1_555
O7 Zr4 2.107334 1_555
O7 Zr1 2.404165 1_556
O7 Zr1 2.404165 1_456
O8 Zr0 2.099976 1_455
O8 Zr0 2.099976 1_555
O8 Zr2 2.470152 1_545
O8 Zr4 2.519283 1_545
O9 Zr3 2.118582 1_555
O9 Zr4 2.129911 1_544
O9 Y0 2.382175 1_445
O9 Y0 2.382175 1_545
O10 Zr2 2.080978 1_555
O10 Zr3 2.128340 1_555
O10 Zr0 2.433478 1_555
O10 Zr0 2.433478 1_455
