# generated using pymatgen
data_CeZr7O16
_symmetry_space_group_name_H-M   'P 1'
_cell_length_a   7.43217040
_cell_length_b   7.43217040
_cell_length_c   6.46268434
_cell_angle_alpha   72.02095273
_cell_angle_beta   72.02095273
_cell_angle_gamma   59.17338316
_symmetry_Int_Tables_number   1
_chemical_formula_structural   CeZr7O16
_chemical_formula_sum   'Ce1 Zr7 O16'
_cell_volume   286.58594636
_cell_formula_units_Z   1
loop_
 _symmetry_equiv_pos_site_id
 _symmetry_equiv_pos_as_xyz
  1  'x, y, z'
loop_
 _atom_site_type_symbol
 _atom_site_label
 _atom_site_symmetry_multiplicity
 _atom_site_fract_x
 _atom_site_fract_y
 _atom_site_fract_z
 _atom_site_occupancy
  Ce  Ce0  1  0.00002500  0.00002500  0.99903800  1
  Zr  Zr0  1  0.25218000  0.74979900  0.49814700  1
  Zr  Zr1  1  0.25218900  0.25218900  0.49815200  1
  Zr  Zr2  1  0.49837500  0.49837500  0.99786600  1
  Zr  Zr3  1  0.74979900  0.25218000  0.49814700  1
  Zr  Zr4  1  0.50216200  0.99572100  0.00171800  1
  Zr  Zr5  1  0.74917500  0.74917500  0.50400100  1
  Zr  Zr6  1  0.99572100  0.50216200  0.00171800  1
  O  O0  1  0.07697100  0.07697100  0.63614500  1
  O  O1  1  0.20185700  0.20185700  0.90152800  1
  O  O2  1  0.42294200  0.92624100  0.34934200  1
  O  O3  1  0.17867400  0.67022300  0.84897500  1
  O  O4  1  0.31676400  0.78945600  0.10580100  1
  O  O5  1  0.04909300  0.54897500  0.59807000  1
  O  O6  1  0.70550300  0.70550300  0.88859700  1
  O  O7  1  0.57548900  0.57548900  0.65043600  1
  O  O8  1  0.44702500  0.44702500  0.41145200  1
  O  O9  1  0.32666000  0.32666000  0.15276200  1
  O  O10  1  0.92624100  0.42294200  0.34934200  1
  O  O11  1  0.54897500  0.04909300  0.59807000  1
  O  O12  1  0.67022300  0.17867400  0.84897500  1
  O  O13  1  0.78945600  0.31676400  0.10580100  1
  O  O14  1  0.94801300  0.94801300  0.40324300  1
  O  O15  1  0.81650000  0.81650000  0.15267300  1
loop_
_geom_bond_atom_site_label_1
_geom_bond_atom_site_label_2
_geom_bond_distance
_geom_bond_site_symmetry_2
Ce0 O0 2.198539 1_555
Ce0 O15 2.222929 1_446
Ce0 O4 2.242142 1_546
Ce0 O13 2.242142 1_456
Ce0 O14 2.455419 1_446
Ce0 O1 2.456914 1_555
Ce0 O12 2.459400 1_455
Ce0 O3 2.459400 1_545
O0 Zr1 2.119242 1_555
O0 Zr0 2.404239 1_545
O0 Zr3 2.404239 1_455
O1 Zr6 2.126767 1_456
O1 Zr4 2.126767 1_546
O1 Zr1 2.452578 1_555
O2 Zr0 2.104485 1_555
O2 Zr4 2.106965 1_555
O2 Zr1 2.436783 1_565
O2 Zr5 2.454288 1_555
O3 Zr0 2.127796 1_555
O3 Zr6 2.129397 1_456
O3 Zr2 2.396952 1_555
O4 Zr2 2.084765 1_554
O4 Zr4 2.378508 1_555
O4 Zr0 2.383035 1_555
O5 Zr1 2.103818 1_555
O5 Zr5 2.105018 1_455
O5 Zr6 2.454748 1_456
O5 Zr0 2.456647 1_555
O6 Zr6 2.102708 1_556
O6 Zr4 2.102708 1_556
O6 Zr5 2.345299 1_555
O6 Zr2 2.514916 1_555
O7 Zr5 2.104220 1_555
O7 Zr2 2.108613 1_555
O7 Zr3 2.429662 1_555
O7 Zr0 2.429662 1_555
O8 Zr0 2.100566 1_555
O8 Zr3 2.100566 1_555
O8 Zr1 2.378012 1_555
O8 Zr2 2.515029 1_554
O9 Zr2 2.086009 1_554
O9 Zr1 2.093739 1_555
O9 Zr4 2.472238 1_545
O9 Zr6 2.472238 1_455
O10 Zr3 2.104485 1_555
O10 Zr6 2.106965 1_555
O10 Zr1 2.436783 1_655
O10 Zr5 2.454288 1_555
O11 Zr1 2.103818 1_555
O11 Zr5 2.105018 1_545
O11 Zr4 2.454748 1_546
O11 Zr3 2.456647 1_555
O12 Zr3 2.127796 1_555
O12 Zr4 2.129397 1_546
O12 Zr2 2.396952 1_555
O13 Zr2 2.084765 1_554
O13 Zr6 2.378508 1_555
O13 Zr3 2.383035 1_555
O14 Zr3 2.131155 1_565
O14 Zr0 2.131155 1_655
O14 Zr5 2.417002 1_555
O15 Zr5 2.123651 1_555
O15 Zr6 2.366303 1_555
O15 Zr4 2.366303 1_555
