# generated using pymatgen
data_Li2FeF4
_symmetry_space_group_name_H-M   'P 1'
_cell_length_a   5.67682900
_cell_length_b   8.40922800
_cell_length_c   9.01008282
_cell_angle_alpha   74.33024064
_cell_angle_beta   90.00000000
_cell_angle_gamma   90.00000000
_symmetry_Int_Tables_number   1
_chemical_formula_structural   Li2FeF4
_chemical_formula_sum   'Li8 Fe4 F16'
_cell_volume   414.13538268
_cell_formula_units_Z   4
loop_
 _symmetry_equiv_pos_site_id
 _symmetry_equiv_pos_as_xyz
  1  'x, y, z'
loop_
 _atom_site_type_symbol
 _atom_site_label
 _atom_site_symmetry_multiplicity
 _atom_site_fract_x
 _atom_site_fract_y
 _atom_site_fract_z
 _atom_site_occupancy
  Li  Li0  1  0.10587900  0.87096000  0.96132100  1
  Li  Li1  1  0.39412100  0.87096000  0.46132100  1
  Li  Li2  1  0.09589500  0.62398000  0.72103500  1
  Li  Li3  1  0.40410500  0.62398000  0.22103500  1
  Li  Li4  1  0.59589500  0.37602000  0.77896500  1
  Li  Li5  1  0.90410500  0.37602000  0.27896500  1
  Li  Li6  1  0.60587900  0.12904000  0.53867900  1
  Li  Li7  1  0.89412100  0.12904000  0.03867900  1
  Fe  Fe0  1  0.59747900  0.74078800  0.84227100  1
  Fe  Fe1  1  0.90252100  0.74078800  0.34227100  1
  Fe  Fe2  1  0.09747900  0.25921200  0.65772900  1
  Fe  Fe3  1  0.40252100  0.25921200  0.15772900  1
  F  F0  1  0.52639200  0.90730400  0.64399900  1
  F  F1  1  0.40285500  0.76567100  0.01551100  1
  F  F2  1  0.94298900  0.73723600  0.85318500  1
  F  F3  1  0.97360800  0.90730400  0.14399900  1
  F  F4  1  0.09714500  0.76567100  0.51551100  1
  F  F5  1  0.40927600  0.56112500  0.78763900  1
  F  F6  1  0.55701100  0.73723600  0.35318500  1
  F  F7  1  0.09072400  0.56112500  0.28763900  1
  F  F8  1  0.90927600  0.43887500  0.71236100  1
  F  F9  1  0.44298900  0.26276400  0.64681500  1
  F  F10  1  0.59072400  0.43887500  0.21236100  1
  F  F11  1  0.90285500  0.23432900  0.48448900  1
  F  F12  1  0.02639200  0.09269600  0.85600100  1
  F  F13  1  0.05701100  0.26276400  0.14681500  1
  F  F14  1  0.59714500  0.23432900  0.98448900  1
  F  F15  1  0.47360800  0.09269600  0.35600100  1
loop_
_geom_bond_atom_site_label_1
_geom_bond_atom_site_label_2
_geom_bond_distance
_geom_bond_site_symmetry_2
F0 Li6 1.903977 1_565
F0 Li1 1.907379 1_555
F0 Fe0 1.990911 1_555
F1 Li0 1.905519 1_554
F1 Li3 1.912326 1_555
F1 Fe0 1.969095 1_554
F2 Li0 1.913305 1_655
F2 Li2 1.921149 1_655
F2 Fe0 1.963688 1_555
F3 Li7 1.903977 1_565
F3 Li0 1.907379 1_654
F3 Fe1 1.990911 1_555
F4 Li1 1.905519 1_555
F4 Li2 1.912326 1_555
F4 Fe1 1.969095 1_455
F5 Li4 1.901876 1_555
F5 Li2 1.906054 1_555
F5 Fe0 2.016952 1_555
F6 Li1 1.913305 1_555
F6 Li3 1.921149 1_555
F6 Fe1 1.963688 1_555
F7 Li5 1.901876 1_455
F7 Li3 1.906054 1_555
F7 Fe1 2.016952 1_455
F8 Li2 1.901876 1_655
F8 Li4 1.906054 1_555
F8 Fe2 2.016952 1_655
F9 Li6 1.913305 1_555
F9 Li4 1.921149 1_555
F9 Fe2 1.963688 1_555
F10 Li3 1.901876 1_555
F10 Li5 1.906054 1_555
F10 Fe3 2.016952 1_555
F11 Li6 1.905519 1_555
F11 Li5 1.912326 1_555
F11 Fe2 1.969095 1_655
F12 Li0 1.903977 1_545
F12 Li7 1.907379 1_456
F12 Fe2 1.990911 1_555
F13 Li7 1.913305 1_455
F13 Li5 1.921149 1_455
F13 Fe3 1.963688 1_555
F14 Li7 1.905519 1_556
F14 Li4 1.912326 1_555
F14 Fe3 1.969095 1_556
F15 Li1 1.903977 1_545
F15 Li6 1.907379 1_555
F15 Fe3 1.990911 1_555
