# generated using pymatgen
data_La4Al2O9
_symmetry_space_group_name_H-M   'P 1'
_cell_length_a   11.02568164
_cell_length_b   7.92385349
_cell_length_c   11.43296375
_cell_angle_alpha   70.21427153
_cell_angle_beta   90.00000000
_cell_angle_gamma   90.00000000
_symmetry_Int_Tables_number   1
_chemical_formula_structural   La4Al2O9
_chemical_formula_sum   'La16 Al8 O36'
_cell_volume   939.88395185
_cell_formula_units_Z   4
loop_
 _symmetry_equiv_pos_site_id
 _symmetry_equiv_pos_as_xyz
  1  'x, y, z'
loop_
 _atom_site_type_symbol
 _atom_site_label
 _atom_site_symmetry_multiplicity
 _atom_site_fract_x
 _atom_site_fract_y
 _atom_site_fract_z
 _atom_site_occupancy
  La  La0  1  0.62886778  0.91466300  0.92719070  1
  La  La1  1  0.87113222  0.91466300  0.42719070  1
  La  La2  1  0.41985739  0.77891324  0.68826533  1
  La  La3  1  0.90615525  0.72581054  0.79640845  1
  La  La4  1  0.08014261  0.77891324  0.18826533  1
  La  La5  1  0.12326167  0.58638170  0.58267490  1
  La  La6  1  0.59384475  0.72581054  0.29640845  1
  La  La7  1  0.62326167  0.41361830  0.91732510  1
  La  La8  1  0.37673833  0.58638170  0.08267490  1
  La  La9  1  0.40615525  0.27418946  0.70359155  1
  La  La10  1  0.87673833  0.41361830  0.41732510  1
  La  La11  1  0.91985739  0.22108676  0.81173467  1
  La  La12  1  0.09384475  0.27418946  0.20359155  1
  La  La13  1  0.58014261  0.22108676  0.31173467  1
  La  La14  1  0.12886778  0.08533700  0.57280930  1
  La  La15  1  0.37113222  0.08533700  0.07280930  1
  Al  Al0  1  0.19314671  0.97036938  0.87108180  1
  Al  Al1  1  0.30685329  0.97036938  0.37108180  1
  Al  Al2  1  0.69489505  0.59396737  0.62468367  1
  Al  Al3  1  0.19489505  0.40603263  0.87531633  1
  Al  Al4  1  0.80510495  0.59396737  0.12468367  1
  Al  Al5  1  0.30510495  0.40603263  0.37531633  1
  Al  Al6  1  0.69314671  0.02963062  0.62891820  1
  Al  Al7  1  0.80685329  0.02963062  0.12891820  1
  O  O0  1  0.04084121  0.94669869  0.83544861  1
  O  O1  1  0.28162830  0.97950757  0.73997183  1
  O  O2  1  0.00108269  0.83010689  0.60393258  1
  O  O3  1  0.72254163  0.81333133  0.62399067  1
  O  O4  1  0.50093240  0.68533889  0.89396134  1
  O  O5  1  0.45915879  0.94669869  0.33544861  1
  O  O6  1  0.21837170  0.97950757  0.23997183  1
  O  O7  1  0.76593884  0.61323868  0.97215557  1
  O  O8  1  0.26221630  0.83592859  0.51976770  1
  O  O9  1  0.28951468  0.52649736  0.75185694  1
  O  O10  1  0.49891731  0.83010689  0.10393258  1
  O  O11  1  0.77745837  0.81333133  0.12399067  1
  O  O12  1  0.04706606  0.47499186  0.82293532  1
  O  O13  1  0.99906760  0.68533889  0.39396134  1
  O  O14  1  0.54706606  0.52500814  0.67706468  1
  O  O15  1  0.73406116  0.61323868  0.47215557  1
  O  O16  1  0.78951468  0.47350264  0.74814306  1
  O  O17  1  0.23778370  0.83592859  0.01976770  1
  O  O18  1  0.76221630  0.16407141  0.98023230  1
  O  O19  1  0.21048532  0.52649736  0.25185694  1
  O  O20  1  0.26593884  0.38676132  0.52784443  1
  O  O21  1  0.45293394  0.47499186  0.32293532  1
  O  O22  1  0.00093240  0.31466111  0.60603866  1
  O  O23  1  0.95293394  0.52500814  0.17706468  1
  O  O24  1  0.22254163  0.18666867  0.87600933  1
  O  O25  1  0.50108269  0.16989311  0.89606742  1
  O  O26  1  0.71048532  0.47350264  0.24814306  1
  O  O27  1  0.73778370  0.16407141  0.48023230  1
  O  O28  1  0.23406116  0.38676132  0.02784443  1
  O  O29  1  0.78162830  0.02049243  0.76002817  1
  O  O30  1  0.54084121  0.05330131  0.66455139  1
  O  O31  1  0.49906760  0.31466111  0.10603866  1
  O  O32  1  0.27745837  0.18666867  0.37600933  1
  O  O33  1  0.99891731  0.16989311  0.39606742  1
  O  O34  1  0.71837170  0.02049243  0.26002817  1
  O  O35  1  0.95915879  0.05330131  0.16455139  1
loop_
_geom_bond_atom_site_label_1
_geom_bond_atom_site_label_2
_geom_bond_distance
_geom_bond_site_symmetry_2
La0 O10 2.380837 1_556
La0 O25 2.390521 1_565
La0 O4 2.429688 1_555
La0 O29 2.471351 1_565
La0 O11 2.677353 1_556
La0 O18 2.691921 1_565
La0 O7 2.724280 1_555
La0 O30 2.988653 1_565
La1 O2 2.380837 1_655
La1 O33 2.390521 1_565
La1 O13 2.429688 1_555
La1 O34 2.471351 1_565
La1 O3 2.677353 1_555
La1 O27 2.691921 1_565
La1 O15 2.724280 1_555
La1 O35 2.988653 1_565
La2 O9 2.368511 1_555
La2 O4 2.387236 1_555
La2 O1 2.415542 1_555
La2 O30 2.486159 1_565
La2 O14 2.491139 1_555
La2 O8 2.519327 1_555
La3 O2 2.321580 1_655
La3 O0 2.448849 1_655
La3 O7 2.451459 1_555
La3 O12 2.459199 1_655
La3 O16 2.588879 1_555
La3 O29 2.617804 1_565
La3 O3 2.745852 1_555
La4 O19 2.368511 1_555
La4 O13 2.387236 1_455
La4 O6 2.415542 1_555
La4 O35 2.486159 1_465
La4 O23 2.491139 1_455
La4 O17 2.519327 1_555
La5 O8 2.410747 1_555
La5 O2 2.433357 1_555
La5 O13 2.449406 1_455
La5 O20 2.457830 1_555
La5 O22 2.477273 1_555
La5 O9 2.589440 1_555
La5 O12 2.718238 1_555
La6 O10 2.321580 1_555
La6 O5 2.448849 1_555
La6 O15 2.451459 1_555
La6 O21 2.459199 1_555
La6 O26 2.588879 1_555
La6 O34 2.617804 1_565
La6 O11 2.745852 1_555
La7 O18 2.410747 1_555
La7 O25 2.433357 1_555
La7 O31 2.449406 1_556
La7 O7 2.457830 1_555
La7 O4 2.477273 1_555
La7 O16 2.589440 1_555
La7 O14 2.718238 1_555
La8 O17 2.410747 1_555
La8 O10 2.433357 1_555
La8 O4 2.449406 1_554
La8 O28 2.457830 1_555
La8 O31 2.477273 1_555
La8 O19 2.589440 1_555
La8 O21 2.718238 1_555
La9 O25 2.321580 1_555
La9 O30 2.448849 1_555
La9 O20 2.451459 1_555
La9 O14 2.459199 1_555
La9 O9 2.588879 1_555
La9 O1 2.617804 1_545
La9 O24 2.745852 1_555
La10 O27 2.410747 1_555
La10 O33 2.433357 1_555
La10 O22 2.449406 1_655
La10 O15 2.457830 1_555
La10 O13 2.477273 1_555
La10 O26 2.589440 1_555
La10 O23 2.718238 1_555
La11 O16 2.368511 1_555
La11 O22 2.387236 1_655
La11 O29 2.415542 1_555
La11 O0 2.486159 1_645
La11 O12 2.491139 1_655
La11 O18 2.519327 1_555
La12 O33 2.321580 1_455
La12 O35 2.448849 1_455
La12 O28 2.451459 1_555
La12 O23 2.459199 1_455
La12 O19 2.588879 1_555
La12 O6 2.617804 1_545
La12 O32 2.745852 1_555
La13 O26 2.368511 1_555
La13 O31 2.387236 1_555
La13 O34 2.415542 1_555
La13 O5 2.486159 1_545
La13 O21 2.491139 1_555
La13 O27 2.519327 1_555
La14 O33 2.380837 1_455
La14 O2 2.390521 1_545
La14 O22 2.429688 1_555
La14 O1 2.471351 1_545
La14 O32 2.677353 1_555
La14 O8 2.691921 1_545
La14 O20 2.724280 1_555
La14 O0 2.988653 1_545
La15 O25 2.380837 1_554
La15 O10 2.390521 1_545
La15 O31 2.429688 1_555
La15 O6 2.471351 1_545
La15 O24 2.677353 1_554
La15 O17 2.691921 1_545
La15 O28 2.724280 1_555
La15 O5 2.988653 1_545
Al0 O17 1.743786 1_556
Al0 O0 1.752950 1_555
Al0 O24 1.763836 1_565
Al0 O1 1.769301 1_555
Al1 O8 1.743786 1_555
Al1 O5 1.752950 1_555
Al1 O32 1.763836 1_565
Al1 O6 1.769301 1_555
Al2 O15 1.752291 1_555
Al2 O16 1.754909 1_555
Al2 O14 1.758495 1_555
Al2 O3 1.762107 1_555
Al3 O28 1.752291 1_556
Al3 O9 1.754909 1_555
Al3 O12 1.758495 1_555
Al3 O24 1.762107 1_555
Al4 O7 1.752291 1_554
Al4 O26 1.754909 1_555
Al4 O23 1.758495 1_555
Al4 O11 1.762107 1_555
Al5 O20 1.752291 1_555
Al5 O19 1.754909 1_555
Al5 O21 1.758495 1_555
Al5 O32 1.762107 1_555
Al6 O27 1.743786 1_555
Al6 O30 1.752950 1_555
Al6 O3 1.763836 1_545
Al6 O29 1.769301 1_555
Al7 O18 1.743786 1_554
Al7 O35 1.752950 1_555
Al7 O11 1.763836 1_545
Al7 O34 1.769301 1_555
