# generated using pymatgen
data_CsB10H13C
_symmetry_space_group_name_H-M   'P 1'
_cell_length_a   10.78228300
_cell_length_b   8.10194600
_cell_length_c   12.42363339
_cell_angle_alpha   86.31110874
_cell_angle_beta   90.00000000
_cell_angle_gamma   90.00000000
_symmetry_Int_Tables_number   1
_chemical_formula_structural   CsB10H13C
_chemical_formula_sum   'Cs4 B40 H52 C4'
_cell_volume   1083.04862312
_cell_formula_units_Z   4
loop_
 _symmetry_equiv_pos_site_id
 _symmetry_equiv_pos_as_xyz
  1  'x, y, z'
loop_
 _atom_site_type_symbol
 _atom_site_label
 _atom_site_symmetry_multiplicity
 _atom_site_fract_x
 _atom_site_fract_y
 _atom_site_fract_z
 _atom_site_occupancy
  Cs  Cs0  1  0.25715000  0.15672600  0.98879600  1
  Cs  Cs1  1  0.75715000  0.84327400  0.51120400  1
  Cs  Cs2  1  0.24285000  0.15672600  0.48879600  1
  Cs  Cs3  1  0.74285000  0.84327400  0.01120400  1
  B  B0  1  0.06852800  0.80708300  0.86594200  1
  B  B1  1  0.63588300  0.41254600  0.85719600  1
  B  B2  1  0.56969500  0.21461500  0.86167500  1
  B  B3  1  0.98463700  0.63106700  0.83684800  1
  B  B4  1  0.22523400  0.76963800  0.82350400  1
  B  B5  1  0.72687000  0.22313700  0.82526700  1
  B  B6  1  0.48434500  0.38767100  0.80410800  1
  B  B7  1  0.09457400  0.49589600  0.77817700  1
  B  B8  1  0.97350500  0.81172800  0.75039000  1
  B  B9  1  0.12442800  0.90584300  0.74413300  1
  B  B10  1  0.62442800  0.09415700  0.75586700  1
  B  B11  1  0.47350500  0.18827200  0.74961000  1
  B  B12  1  0.59457400  0.50410400  0.72182300  1
  B  B13  1  0.98434500  0.61232900  0.69589200  1
  B  B14  1  0.22687000  0.77686300  0.67473300  1
  B  B15  1  0.72523400  0.23036200  0.67649600  1
  B  B16  1  0.48463700  0.36893300  0.66315200  1
  B  B17  1  0.06969500  0.78538500  0.63832500  1
  B  B18  1  0.13588300  0.58745400  0.64280400  1
  B  B19  1  0.56852800  0.19291700  0.63405800  1
  B  B20  1  0.43147200  0.80708300  0.36594200  1
  B  B21  1  0.86411700  0.41254600  0.35719600  1
  B  B22  1  0.93030500  0.21461500  0.36167500  1
  B  B23  1  0.51536300  0.63106700  0.33684800  1
  B  B24  1  0.27476600  0.76963800  0.32350400  1
  B  B25  1  0.77313000  0.22313700  0.32526700  1
  B  B26  1  0.01565500  0.38767100  0.30410800  1
  B  B27  1  0.40542600  0.49589600  0.27817700  1
  B  B28  1  0.52649500  0.81172800  0.25039000  1
  B  B29  1  0.37557200  0.90584300  0.24413300  1
  B  B30  1  0.87557200  0.09415700  0.25586700  1
  B  B31  1  0.02649500  0.18827200  0.24961000  1
  B  B32  1  0.90542600  0.50410400  0.22182300  1
  B  B33  1  0.51565500  0.61232900  0.19589200  1
  B  B34  1  0.27313000  0.77686300  0.17473300  1
  B  B35  1  0.77476600  0.23036200  0.17649600  1
  B  B36  1  0.01536300  0.36893300  0.16315200  1
  B  B37  1  0.43030500  0.78538500  0.13832500  1
  B  B38  1  0.36411700  0.58745400  0.14280400  1
  B  B39  1  0.93147200  0.19291700  0.13405800  1
  H  H0  1  0.15355100  0.56649300  0.95420200  1
  H  H1  1  0.04988700  0.87724400  0.94645700  1
  H  H2  1  0.64584200  0.48485700  0.93791400  1
  H  H3  1  0.54758400  0.15380200  0.95060000  1
  H  H4  1  0.90571200  0.57258000  0.89523800  1
  H  H5  1  0.30865000  0.81969100  0.87647400  1
  H  H6  1  0.80521000  0.15937500  0.88230400  1
  H  H7  1  0.39696400  0.44596200  0.84802700  1
  H  H8  1  0.08134100  0.34993000  0.79800400  1
  H  H9  1  0.69946900  0.49551000  0.78510800  1
  H  H10  1  0.63404300  0.94613000  0.76600800  1
  H  H11  1  0.78772700  0.31093000  0.75332800  1
  H  H12  1  0.88042300  0.89268000  0.74333300  1
  H  H13  1  0.38042300  0.10732000  0.75666700  1
  H  H14  1  0.28772700  0.68907000  0.74667200  1
  H  H15  1  0.13404300  0.05387000  0.73399200  1
  H  H16  1  0.19946900  0.50449000  0.71489200  1
  H  H17  1  0.58134100  0.65007000  0.70199600  1
  H  H18  1  0.89696400  0.55403800  0.65197300  1
  H  H19  1  0.30521000  0.84062500  0.61769600  1
  H  H20  1  0.80865000  0.18030900  0.62352600  1
  H  H21  1  0.40571200  0.42742000  0.60476200  1
  H  H22  1  0.04758400  0.84619800  0.54940000  1
  H  H23  1  0.14584200  0.51514300  0.56208600  1
  H  H24  1  0.54988700  0.12275600  0.55354300  1
  H  H25  1  0.65355100  0.43350700  0.54579800  1
  H  H26  1  0.34644900  0.56649300  0.45420200  1
  H  H27  1  0.45011300  0.87724400  0.44645700  1
  H  H28  1  0.85415800  0.48485700  0.43791400  1
  H  H29  1  0.95241600  0.15380200  0.45060000  1
  H  H30  1  0.59428800  0.57258000  0.39523800  1
  H  H31  1  0.19135000  0.81969100  0.37647400  1
  H  H32  1  0.69479000  0.15937500  0.38230400  1
  H  H33  1  0.10303600  0.44596200  0.34802700  1
  H  H34  1  0.41865900  0.34993000  0.29800400  1
  H  H35  1  0.80053100  0.49551000  0.28510800  1
  H  H36  1  0.86595700  0.94613000  0.26600800  1
  H  H37  1  0.71227300  0.31093000  0.25332800  1
  H  H38  1  0.61957700  0.89268000  0.24333300  1
  H  H39  1  0.11957700  0.10732000  0.25666700  1
  H  H40  1  0.21227300  0.68907000  0.24667200  1
  H  H41  1  0.36595700  0.05387000  0.23399200  1
  H  H42  1  0.30053100  0.50449000  0.21489200  1
  H  H43  1  0.91865900  0.65007000  0.20199600  1
  H  H44  1  0.60303600  0.55403800  0.15197300  1
  H  H45  1  0.19479000  0.84062500  0.11769600  1
  H  H46  1  0.69135000  0.18030900  0.12352600  1
  H  H47  1  0.09428800  0.42742000  0.10476200  1
  H  H48  1  0.45241600  0.84619800  0.04940000  1
  H  H49  1  0.35415800  0.51514300  0.06208600  1
  H  H50  1  0.95011300  0.12275600  0.05354300  1
  H  H51  1  0.84644900  0.43350700  0.04579800  1
  C  C0  1  0.13467200  0.61892600  0.87308700  1
  C  C1  1  0.63467200  0.38107400  0.62691300  1
  C  C2  1  0.36532800  0.61892600  0.37308700  1
  C  C3  1  0.86532800  0.38107400  0.12691300  1
loop_
_geom_bond_atom_site_label_1
_geom_bond_atom_site_label_2
_geom_bond_distance
_geom_bond_site_symmetry_2
Cs0 H45 3.007948 1_546
Cs0 H3 3.167608 1_555
Cs0 H5 3.194109 1_545
Cs0 H7 3.208609 1_555
Cs0 H47 3.221145 1_556
Cs0 H13 3.223700 1_555
Cs0 H1 3.248293 1_545
Cs0 H49 3.270448 1_556
Cs0 H41 3.320189 1_556
Cs0 H48 3.329499 1_546
Cs0 H8 3.344348 1_555
Cs0 H50 3.413812 1_456
Cs1 H32 3.007948 1_565
Cs1 H22 3.167608 1_655
Cs1 H20 3.194109 1_565
Cs1 H18 3.208609 1_555
Cs1 H30 3.221145 1_555
Cs1 H12 3.223700 1_555
Cs1 H24 3.248293 1_565
Cs1 H28 3.270448 1_555
Cs1 H36 3.320189 1_555
Cs1 H29 3.329499 1_565
Cs1 H17 3.344348 1_555
Cs1 H27 3.413812 1_555
Cs2 H19 3.007948 1_545
Cs2 H29 3.167608 1_455
Cs2 H31 3.194109 1_545
Cs2 H33 3.208609 1_555
Cs2 H21 3.221145 1_555
Cs2 H39 3.223700 1_555
Cs2 H27 3.248293 1_545
Cs2 H23 3.270448 1_555
Cs2 H15 3.320189 1_555
Cs2 H22 3.329499 1_545
Cs2 H34 3.344348 1_555
Cs2 H24 3.413812 1_555
Cs3 H6 3.007948 1_564
Cs3 H48 3.167608 1_555
Cs3 H46 3.194109 1_565
Cs3 H44 3.208609 1_555
Cs3 H4 3.221145 1_554
Cs3 H38 3.223700 1_555
Cs3 H50 3.248293 1_565
Cs3 H2 3.270448 1_554
Cs3 H10 3.320189 1_554
Cs3 H3 3.329499 1_564
Cs3 H43 3.344348 1_555
Cs3 H1 3.413812 1_654
B0 H1 1.198861 1_555
B0 C0 1.680181 1_555
B1 H2 1.198328 1_555
B1 H9 1.283156 1_555
B2 H3 1.204190 1_555
B3 H4 1.196129 1_555
B3 C0 1.680385 1_655
B4 H5 1.200337 1_555
B4 H14 1.368003 1_555
B4 C0 1.651406 1_555
B5 H6 1.198074 1_555
B5 H11 1.285879 1_555
B6 H7 1.200663 1_555
B7 H8 1.200880 1_555
B7 H16 1.376640 1_555
B7 C0 1.649873 1_555
B8 H12 1.199057 1_555
B9 H15 1.202296 1_565
B10 H10 1.202296 1_545
B11 H13 1.199057 1_555
B12 H17 1.200880 1_555
B12 H9 1.376640 1_555
B12 C1 1.649873 1_555
B13 H18 1.200663 1_555
B14 H19 1.198074 1_555
B14 H14 1.285879 1_555
B15 H20 1.200337 1_555
B15 H11 1.368003 1_555
B15 C1 1.651406 1_555
B16 H21 1.196129 1_555
B16 C1 1.680385 1_555
B17 H22 1.204190 1_555
B18 H23 1.198328 1_555
B18 H16 1.283156 1_555
B19 H24 1.198861 1_555
B19 C1 1.680181 1_555
B20 H27 1.198861 1_555
B20 C2 1.680181 1_555
B21 H28 1.198328 1_555
B21 H35 1.283156 1_555
B22 H29 1.204190 1_555
B23 H30 1.196129 1_555
B23 C2 1.680385 1_555
B24 H31 1.200337 1_555
B24 H40 1.368003 1_555
B24 C2 1.651406 1_555
B25 H32 1.198074 1_555
B25 H37 1.285879 1_555
B26 H33 1.200663 1_555
B27 H34 1.200880 1_555
B27 H42 1.376640 1_555
B27 C2 1.649873 1_555
B28 H38 1.199057 1_555
B29 H41 1.202296 1_565
B30 H36 1.202296 1_545
B31 H39 1.199057 1_555
B32 H43 1.200880 1_555
B32 H35 1.376640 1_555
B32 C3 1.649873 1_555
B33 H44 1.200663 1_555
B34 H45 1.198074 1_555
B34 H40 1.285879 1_555
B35 H46 1.200337 1_555
B35 H37 1.368003 1_555
B35 C3 1.651406 1_555
B36 H47 1.196129 1_555
B36 C3 1.680385 1_455
B37 H48 1.204190 1_555
B38 H49 1.198328 1_555
B38 H42 1.283156 1_555
B39 H50 1.198861 1_555
B39 C3 1.680181 1_555
C0 H0 1.087363 1_555
C1 H25 1.087363 1_555
C2 H26 1.087363 1_555
C3 H51 1.087363 1_555
