# generated using pymatgen
data_Ti(SiO3)2
_symmetry_space_group_name_H-M   'P 1'
_cell_length_a   5.32393700
_cell_length_b   8.88943000
_cell_length_c   18.21317200
_cell_angle_alpha   90.00000000
_cell_angle_beta   90.00000000
_cell_angle_gamma   90.00000000
_symmetry_Int_Tables_number   1
_chemical_formula_structural   Ti(SiO3)2
_chemical_formula_sum   'Ti8 Si16 O48'
_cell_volume   861.97051636
_cell_formula_units_Z   8
loop_
 _symmetry_equiv_pos_site_id
 _symmetry_equiv_pos_as_xyz
  1  'x, y, z'
loop_
 _atom_site_type_symbol
 _atom_site_label
 _atom_site_symmetry_multiplicity
 _atom_site_fract_x
 _atom_site_fract_y
 _atom_site_fract_z
 _atom_site_occupancy
  Ti  Ti0  1  0.61790300  0.63816200  0.12617400  1
  Ti  Ti1  1  0.11790300  0.86183800  0.12617400  1
  Ti  Ti2  1  0.11790300  0.36183800  0.37382600  1
  Ti  Ti3  1  0.61790300  0.13816200  0.37382600  1
  Ti  Ti4  1  0.38209700  0.86183800  0.62617400  1
  Ti  Ti5  1  0.88209700  0.63816200  0.62617400  1
  Ti  Ti6  1  0.38209700  0.36183800  0.87382600  1
  Ti  Ti7  1  0.88209700  0.13816200  0.87382600  1
  Si  Si0  1  0.69350200  0.33156000  0.02437800  1
  Si  Si1  1  0.19350200  0.16844000  0.02437800  1
  Si  Si2  1  0.44717600  0.33322000  0.22485000  1
  Si  Si3  1  0.94717600  0.16678000  0.22485000  1
  Si  Si4  1  0.44717600  0.83322000  0.27515000  1
  Si  Si5  1  0.94717600  0.66678000  0.27515000  1
  Si  Si6  1  0.69350200  0.83156000  0.47562200  1
  Si  Si7  1  0.19350200  0.66844000  0.47562200  1
  Si  Si8  1  0.80649800  0.33156000  0.52437800  1
  Si  Si9  1  0.30649800  0.16844000  0.52437800  1
  Si  Si10  1  0.05282400  0.33322000  0.72485000  1
  Si  Si11  1  0.55282400  0.16678000  0.72485000  1
  Si  Si12  1  0.05282400  0.83322000  0.77515000  1
  Si  Si13  1  0.55282400  0.66678000  0.77515000  1
  Si  Si14  1  0.80649800  0.83156000  0.97562200  1
  Si  Si15  1  0.30649800  0.66844000  0.97562200  1
  O  O0  1  0.92646600  0.23184700  0.05500700  1
  O  O1  1  0.42646600  0.26815300  0.05500700  1
  O  O2  1  0.81191000  0.81515700  0.06637100  1
  O  O3  1  0.31191000  0.68484300  0.06637100  1
  O  O4  1  0.72611100  0.50256600  0.05648300  1
  O  O5  1  0.22611100  0.99743400  0.05648300  1
  O  O6  1  0.43149100  0.81936000  0.18417300  1
  O  O7  1  0.93149100  0.68064000  0.18417300  1
  O  O8  1  0.99016700  0.99543700  0.19406000  1
  O  O9  1  0.49016700  0.50456300  0.19406000  1
  O  O10  1  0.68023700  0.23167700  0.19486600  1
  O  O11  1  0.18023700  0.26832300  0.19486600  1
  O  O12  1  0.18023700  0.76832300  0.30513400  1
  O  O13  1  0.68023700  0.73167700  0.30513400  1
  O  O14  1  0.99016700  0.49543700  0.30594000  1
  O  O15  1  0.49016700  0.00456300  0.30594000  1
  O  O16  1  0.43149100  0.31936000  0.31582700  1
  O  O17  1  0.93149100  0.18064000  0.31582700  1
  O  O18  1  0.72611100  0.00256600  0.44351700  1
  O  O19  1  0.22611100  0.49743400  0.44351700  1
  O  O20  1  0.81191000  0.31515700  0.43362900  1
  O  O21  1  0.31191000  0.18484300  0.43362900  1
  O  O22  1  0.42646600  0.76815300  0.44499300  1
  O  O23  1  0.92646600  0.73184700  0.44499300  1
  O  O24  1  0.07353400  0.26815300  0.55500700  1
  O  O25  1  0.57353400  0.23184700  0.55500700  1
  O  O26  1  0.68809000  0.81515700  0.56637100  1
  O  O27  1  0.18809000  0.68484300  0.56637100  1
  O  O28  1  0.77388900  0.50256600  0.55648300  1
  O  O29  1  0.27388900  0.99743400  0.55648300  1
  O  O30  1  0.06850900  0.81936000  0.68417300  1
  O  O31  1  0.56850900  0.68064000  0.68417300  1
  O  O32  1  0.50983300  0.99543700  0.69406000  1
  O  O33  1  0.00983300  0.50456300  0.69406000  1
  O  O34  1  0.31976300  0.26832300  0.69486600  1
  O  O35  1  0.81976300  0.23167700  0.69486600  1
  O  O36  1  0.31976300  0.76832300  0.80513400  1
  O  O37  1  0.81976300  0.73167700  0.80513400  1
  O  O38  1  0.50983300  0.49543700  0.80594000  1
  O  O39  1  0.00983300  0.00456300  0.80594000  1
  O  O40  1  0.06850900  0.31936000  0.81582700  1
  O  O41  1  0.56850900  0.18064000  0.81582700  1
  O  O42  1  0.77388900  0.00256600  0.94351700  1
  O  O43  1  0.27388900  0.49743400  0.94351700  1
  O  O44  1  0.68809000  0.31515700  0.93362900  1
  O  O45  1  0.18809000  0.18484300  0.93362900  1
  O  O46  1  0.07353400  0.76815300  0.94499300  1
  O  O47  1  0.57353400  0.73184700  0.94499300  1
loop_
_geom_bond_atom_site_label_1
_geom_bond_atom_site_label_2
_geom_bond_distance
_geom_bond_site_symmetry_2
O0 Si0 1.623329 1_555
O0 Si1 1.627908 1_655
O1 Si1 1.623329 1_555
O1 Si0 1.627908 1_555
O2 Si14 1.659497 1_554
O2 Ti1 2.003119 1_655
O2 Ti0 2.174568 1_555
O3 Si15 1.659497 1_554
O3 Ti0 2.003119 1_555
O3 Ti1 2.174568 1_555
O4 Si0 1.637955 1_555
O4 Ti0 1.842799 1_555
O5 Si1 1.637955 1_565
O5 Ti1 1.842799 1_555
O6 Si4 1.663651 1_555
O6 Ti1 2.011407 1_555
O6 Ti0 2.166869 1_555
O7 Si5 1.663651 1_555
O7 Ti0 2.011407 1_555
O7 Ti1 2.166869 1_655
O8 Si3 1.639154 1_565
O8 Ti1 1.844357 1_655
O9 Si2 1.639154 1_555
O9 Ti0 1.844357 1_555
O10 Si3 1.628114 1_555
O10 Si2 1.628684 1_555
O11 Si2 1.628114 1_555
O11 Si3 1.628684 1_455
O12 Si4 1.628114 1_555
O12 Si5 1.628684 1_455
O13 Si5 1.628114 1_555
O13 Si4 1.628684 1_555
O14 Si5 1.639154 1_555
O14 Ti2 1.844357 1_655
O15 Si4 1.639154 1_545
O15 Ti3 1.844357 1_555
O16 Si2 1.663651 1_555
O16 Ti2 2.011407 1_555
O16 Ti3 2.166869 1_555
O17 Si3 1.663651 1_555
O17 Ti3 2.011407 1_555
O17 Ti2 2.166869 1_655
O18 Si6 1.637955 1_545
O18 Ti3 1.842799 1_555
O19 Si7 1.637955 1_555
O19 Ti2 1.842799 1_555
O20 Si8 1.659497 1_555
O20 Ti2 2.003119 1_655
O20 Ti3 2.174568 1_555
O21 Si9 1.659497 1_555
O21 Ti3 2.003119 1_555
O21 Ti2 2.174568 1_555
O22 Si7 1.623329 1_555
O22 Si6 1.627908 1_555
O23 Si6 1.623329 1_555
O23 Si7 1.627908 1_655
O24 Si9 1.623329 1_555
O24 Si8 1.627908 1_455
O25 Si8 1.623329 1_555
O25 Si9 1.627908 1_555
O26 Si6 1.659497 1_555
O26 Ti4 2.003119 1_555
O26 Ti5 2.174568 1_555
O27 Si7 1.659497 1_555
O27 Ti5 2.003119 1_455
O27 Ti4 2.174568 1_555
O28 Si8 1.637955 1_555
O28 Ti5 1.842799 1_555
O29 Si9 1.637955 1_565
O29 Ti4 1.842799 1_555
O30 Si12 1.663651 1_555
O30 Ti4 2.011407 1_555
O30 Ti5 2.166869 1_455
O31 Si13 1.663651 1_555
O31 Ti5 2.011407 1_555
O31 Ti4 2.166869 1_555
O32 Si11 1.639154 1_565
O32 Ti4 1.844357 1_555
O33 Si10 1.639154 1_555
O33 Ti5 1.844357 1_455
O34 Si10 1.628114 1_555
O34 Si11 1.628684 1_555
O35 Si11 1.628114 1_555
O35 Si10 1.628684 1_655
O36 Si12 1.628114 1_555
O36 Si13 1.628684 1_555
O37 Si13 1.628114 1_555
O37 Si12 1.628684 1_655
O38 Si13 1.639154 1_555
O38 Ti6 1.844357 1_555
O39 Si12 1.639154 1_545
O39 Ti7 1.844357 1_455
O40 Si10 1.663651 1_555
O40 Ti6 2.011407 1_555
O40 Ti7 2.166869 1_455
O41 Si11 1.663651 1_555
O41 Ti7 2.011407 1_555
O41 Ti6 2.166869 1_555
O42 Si14 1.637955 1_545
O42 Ti7 1.842799 1_555
O43 Si15 1.637955 1_555
O43 Ti6 1.842799 1_555
O44 Si0 1.659497 1_556
O44 Ti6 2.003119 1_555
O44 Ti7 2.174568 1_555
O45 Si1 1.659497 1_556
O45 Ti7 2.003119 1_455
O45 Ti6 2.174568 1_555
O46 Si15 1.623329 1_555
O46 Si14 1.627908 1_455
O47 Si14 1.623329 1_555
O47 Si15 1.627908 1_555
