# generated using pymatgen
data_Co(NiO2)2
_symmetry_space_group_name_H-M   'P 1'
_cell_length_a   5.74433011
_cell_length_b   5.74444966
_cell_length_c   5.74419924
_cell_angle_alpha   59.99408876
_cell_angle_beta   59.99587187
_cell_angle_gamma   59.99274158
_symmetry_Int_Tables_number   1
_chemical_formula_structural   Co(NiO2)2
_chemical_formula_sum   'Co2 Ni4 O8'
_cell_volume   134.01256941
_cell_formula_units_Z   2
loop_
 _symmetry_equiv_pos_site_id
 _symmetry_equiv_pos_as_xyz
  1  'x, y, z'
loop_
 _atom_site_type_symbol
 _atom_site_label
 _atom_site_symmetry_multiplicity
 _atom_site_fract_x
 _atom_site_fract_y
 _atom_site_fract_z
 _atom_site_occupancy
  Co  Co0  1  0.12510207  0.12510559  0.12514087  1
  Co  Co1  1  0.87489124  0.87489979  0.87486556  1
  Ni  Ni0  1  0.49999427  1.00000277  0.50000869  1
  Ni  Ni1  1  0.49999709  0.50000775  1.00000276  1
  Ni  Ni2  1  0.99999360  0.50000944  0.50000475  1
  Ni  Ni3  1  0.49999314  0.50000567  0.50000594  1
  O  O0  1  0.73009787  0.25675536  0.25675824  1
  O  O1  1  0.25681329  0.25680441  0.25685015  1
  O  O2  1  0.74324068  0.26992211  0.74323845  1
  O  O3  1  0.74326679  0.74327137  0.26986909  1
  O  O4  1  0.25673452  0.25671673  0.73013989  1
  O  O5  1  0.25676315  0.73008919  0.25674397  1
  O  O6  1  0.26991993  0.74323332  0.74323093  1
  O  O7  1  0.74319436  0.74317849  0.74313972  1
loop_
_geom_bond_atom_site_label_1
_geom_bond_atom_site_label_2
_geom_bond_distance
_geom_bond_site_symmetry_2
Co0 O4 1.852495 1_554
Co0 O0 1.852527 1_455
Co0 O5 1.852590 1_545
Co0 O1 1.853278 1_555
Co1 O3 1.852507 1_556
Co1 O2 1.852617 1_565
Co1 O6 1.852642 1_655
Co1 O7 1.853394 1_555
Ni0 O7 1.976797 1_555
Ni0 O1 1.976825 1_565
Ni0 O4 1.978885 1_565
Ni0 O6 1.978954 1_555
Ni0 O3 1.978991 1_555
Ni0 O0 1.978999 1_565
Ni1 O7 1.977087 1_555
Ni1 O1 1.977159 1_556
Ni1 O5 1.978800 1_556
Ni1 O6 1.978838 1_555
Ni1 O0 1.978863 1_556
Ni1 O2 1.978913 1_555
Ni2 O7 1.976758 1_555
Ni2 O1 1.976982 1_655
Ni2 O3 1.978882 1_555
Ni2 O2 1.978936 1_555
Ni2 O4 1.978939 1_655
Ni2 O5 1.978975 1_655
Ni3 O6 1.977270 1_555
Ni3 O2 1.977308 1_555
Ni3 O5 1.977357 1_555
Ni3 O0 1.977452 1_555
Ni3 O3 1.977680 1_555
Ni3 O4 1.977715 1_555
