# generated using pymatgen
data_FeO
_symmetry_space_group_name_H-M   'P 1'
_cell_length_a   3.40332037
_cell_length_b   3.40332037
_cell_length_c   10.71766800
_cell_angle_alpha   90.00000000
_cell_angle_beta   90.00000000
_cell_angle_gamma   120.00000712
_symmetry_Int_Tables_number   1
_chemical_formula_structural   FeO
_chemical_formula_sum   'Fe4 O4'
_cell_volume   107.50695611
_cell_formula_units_Z   4
loop_
 _symmetry_equiv_pos_site_id
 _symmetry_equiv_pos_as_xyz
  1  'x, y, z'
loop_
 _atom_site_type_symbol
 _atom_site_label
 _atom_site_symmetry_multiplicity
 _atom_site_fract_x
 _atom_site_fract_y
 _atom_site_fract_z
 _atom_site_occupancy
  Fe  Fe0  1  0.33333300  0.66666700  0.97174200  1
  Fe  Fe1  1  0.00000000  0.00000000  0.22366400  1
  Fe  Fe2  1  0.00000000  0.00000000  0.72366400  1
  Fe  Fe3  1  0.66666700  0.33333300  0.47174200  1
  O  O0  1  0.33333300  0.66666700  0.77744900  1
  O  O1  1  0.00000000  0.00000000  0.52714400  1
  O  O2  1  0.00000000  0.00000000  0.02714400  1
  O  O3  1  0.66666700  0.33333300  0.27744900  1
loop_
_geom_bond_atom_site_label_1
_geom_bond_atom_site_label_2
_geom_bond_distance
_geom_bond_site_symmetry_2
Fe0 O2 2.052664 1_566
Fe0 O2 2.052667 1_556
Fe0 O2 2.052667 1_666
Fe0 O0 2.082368 1_555
Fe1 O3 2.047718 1_455
Fe1 O3 2.047721 1_555
Fe1 O3 2.047721 1_445
Fe1 O2 2.106236 1_555
Fe2 O0 2.047718 1_545
Fe2 O0 2.047721 1_445
Fe2 O0 2.047721 1_555
Fe2 O1 2.106236 1_555
Fe3 O1 2.052664 1_655
Fe3 O1 2.052667 1_555
Fe3 O1 2.052667 1_665
Fe3 O3 2.082368 1_555
