# generated using pymatgen
data_Li5Mn7O12
_symmetry_space_group_name_H-M   'P 1'
_cell_length_a   5.24589662
_cell_length_b   5.24589662
_cell_length_c   9.97329832
_cell_angle_alpha   84.95020552
_cell_angle_beta   84.95020552
_cell_angle_gamma   120.26520547
_symmetry_Int_Tables_number   1
_chemical_formula_structural   Li5Mn7O12
_chemical_formula_sum   'Li5 Mn7 O12'
_cell_volume   233.31888852
_cell_formula_units_Z   1
loop_
 _symmetry_equiv_pos_site_id
 _symmetry_equiv_pos_as_xyz
  1  'x, y, z'
loop_
 _atom_site_type_symbol
 _atom_site_label
 _atom_site_symmetry_multiplicity
 _atom_site_fract_x
 _atom_site_fract_y
 _atom_site_fract_z
 _atom_site_occupancy
  Li  Li0  1  0.84188600  0.66410000  0.75300900  1
  Li  Li1  1  0.66793400  0.84369300  0.24518000  1
  Li  Li2  1  0.33590000  0.15811400  0.24699100  1
  Li  Li3  1  0.15630700  0.33206600  0.75482000  1
  Li  Li4  1  0.08454400  0.91545600  0.00000000  1
  Mn  Mn0  1  0.92129800  0.07870200  0.50000000  1
  Mn  Mn1  1  0.00173500  0.50881400  0.24417200  1
  Mn  Mn2  1  0.75071200  0.24928800  0.00000000  1
  Mn  Mn3  1  0.49118600  0.99826500  0.75582800  1
  Mn  Mn4  1  0.57858700  0.42141300  0.50000000  1
  Mn  Mn5  1  0.42241300  0.57758700  0.00000000  1
  Mn  Mn6  1  0.25006000  0.74994000  0.50000000  1
  O  O0  1  0.01778100  0.22480500  0.11933400  1
  O  O1  1  0.77519500  0.98221900  0.88066600  1
  O  O2  1  0.88966100  0.39164800  0.61754500  1
  O  O3  1  0.60835200  0.11033900  0.38245500  1
  O  O4  1  0.70605100  0.51775000  0.11536100  1
  O  O5  1  0.48225000  0.29394900  0.88463900  1
  O  O6  1  0.54881500  0.72446600  0.62506300  1
  O  O7  1  0.27553400  0.45118500  0.37493700  1
  O  O8  1  0.38759200  0.87235000  0.11857400  1
  O  O9  1  0.12765000  0.61240800  0.88142600  1
  O  O10  1  0.21838200  0.03982500  0.63062700  1
  O  O11  1  0.96017500  0.78161800  0.36937300  1
loop_
_geom_bond_atom_site_label_1
_geom_bond_atom_site_label_2
_geom_bond_distance
_geom_bond_site_symmetry_2
Li0 O5 2.115592 1_555
Li0 O10 2.122163 1_665
Li0 O2 2.138280 1_555
Li0 O9 2.155856 1_655
Li0 O6 2.203909 1_555
Li0 O1 2.326464 1_555
Li1 O8 2.072703 1_555
Li1 O0 2.096364 1_665
Li1 O3 2.152030 1_565
Li1 O11 2.181054 1_555
Li1 O7 2.222896 1_555
Li1 O4 2.308400 1_555
Li2 O4 2.115592 1_555
Li2 O11 2.122163 1_445
Li2 O3 2.138280 1_555
Li2 O8 2.155856 1_545
Li2 O7 2.203909 1_555
Li2 O0 2.326464 1_555
Li3 O9 2.072703 1_555
Li3 O1 2.096364 1_445
Li3 O2 2.152030 1_455
Li3 O10 2.181054 1_555
Li3 O6 2.222896 1_555
Li3 O5 2.308400 1_555
Li4 O5 2.149059 1_564
Li4 O4 2.149059 1_455
Li4 O8 2.150163 1_555
Li4 O9 2.150163 1_554
Li4 O0 2.238792 1_565
Li4 O1 2.238792 1_454
Mn0 O6 2.080826 1_545
Mn0 O7 2.080826 1_655
Mn0 O2 2.162447 1_555
Mn0 O3 2.162447 1_555
Mn0 O11 2.190596 1_545
Mn0 O10 2.190596 1_655
Mn1 O0 2.052193 1_555
Mn1 O11 2.058135 1_455
Mn1 O4 2.114726 1_455
Mn1 O8 2.131949 1_555
Mn1 O7 2.133845 1_555
Mn1 O3 2.274515 1_455
Mn2 O0 1.960566 1_655
Mn2 O1 1.960566 1_544
Mn2 O4 1.983021 1_555
Mn2 O5 1.983021 1_554
Mn2 O9 2.081355 1_654
Mn2 O8 2.081355 1_545
Mn3 O1 2.052193 1_555
Mn3 O10 2.058135 1_565
Mn3 O5 2.114726 1_565
Mn3 O9 2.131949 1_555
Mn3 O6 2.133845 1_555
Mn3 O2 2.274515 1_565
Mn4 O11 2.137666 1_555
Mn4 O10 2.137666 1_555
Mn4 O2 2.150132 1_555
Mn4 O3 2.150132 1_555
Mn4 O7 2.161622 1_555
Mn4 O6 2.161622 1_555
Mn5 O4 2.084418 1_555
Mn5 O5 2.084418 1_554
Mn5 O9 2.095587 1_554
Mn5 O8 2.095587 1_555
Mn5 O0 2.134205 1_555
Mn5 O1 2.134205 1_554
Mn6 O2 2.030132 1_455
Mn6 O3 2.030132 1_565
Mn6 O7 2.134415 1_555
Mn6 O6 2.134415 1_555
Mn6 O11 2.145412 1_455
Mn6 O10 2.145412 1_565
