# generated using pymatgen
data_ThNb4O12
_symmetry_space_group_name_H-M   'P 1'
_cell_length_a   8.90265744
_cell_length_b   8.90265744
_cell_length_c   8.90265744
_cell_angle_alpha   143.25515469
_cell_angle_beta   143.25515469
_cell_angle_gamma   52.94256642
_symmetry_Int_Tables_number   1
_chemical_formula_structural   ThNb4O12
_chemical_formula_sum   'Th1 Nb4 O12'
_cell_volume   250.99773149
_cell_formula_units_Z   1
loop_
 _symmetry_equiv_pos_site_id
 _symmetry_equiv_pos_as_xyz
  1  'x, y, z'
loop_
 _atom_site_type_symbol
 _atom_site_label
 _atom_site_symmetry_multiplicity
 _atom_site_fract_x
 _atom_site_fract_y
 _atom_site_fract_z
 _atom_site_occupancy
  Th  Th0  1  0.50000000  0.50000000  0.00000000  1
  Nb  Nb0  1  0.62794700  0.12794700  0.50000000  1
  Nb  Nb1  1  0.37205300  0.87205300  0.50000000  1
  Nb  Nb2  1  0.12794700  0.62794700  0.50000000  1
  Nb  Nb3  1  0.87205300  0.37205300  0.50000000  1
  O  O0  1  0.25000000  0.75000000  0.50000000  1
  O  O1  1  0.15252700  0.15252700  0.52981100  1
  O  O2  1  0.75000000  0.25000000  0.50000000  1
  O  O3  1  0.62271600  0.15252700  0.00000000  1
  O  O4  1  0.15252700  0.62271600  0.00000000  1
  O  O5  1  0.62271600  0.62271600  0.47018900  1
  O  O6  1  0.50000000  0.00000000  0.50000000  1
  O  O7  1  0.84747300  0.84747300  0.47018900  1
  O  O8  1  0.00000000  0.50000000  0.50000000  1
  O  O9  1  0.84747300  0.37728400  0.00000000  1
  O  O10  1  0.37728400  0.84747300  0.00000000  1
  O  O11  1  0.37728400  0.37728400  0.52981100  1
loop_
_geom_bond_atom_site_label_1
_geom_bond_atom_site_label_2
_geom_bond_distance
_geom_bond_site_symmetry_2
Nb0 O2 1.945350 1_555
Nb0 O10 2.003128 1_545
Nb0 O7 2.003128 1_545
Nb0 O11 2.003128 1_555
Nb0 O9 2.003128 1_556
Nb0 O6 2.039292 1_555
Nb1 O0 1.945350 1_555
Nb1 O5 2.003128 1_555
Nb1 O3 2.003128 1_566
Nb1 O4 2.003128 1_555
Nb1 O1 2.003128 1_565
Nb1 O6 2.039292 1_565
Nb2 O0 1.945350 1_555
Nb2 O11 2.003128 1_555
Nb2 O9 2.003128 1_455
Nb2 O7 2.003128 1_455
Nb2 O10 2.003128 1_556
Nb2 O8 2.039292 1_555
Nb3 O2 1.945350 1_555
Nb3 O3 2.003128 1_555
Nb3 O5 2.003128 1_555
Nb3 O4 2.003128 1_656
Nb3 O1 2.003128 1_655
Nb3 O8 2.039292 1_655
O1 Th0 2.586449 1_556
O3 Th0 2.586449 1_555
O4 Th0 2.586449 1_555
O5 Th0 2.586449 1_555
O6 Th0 2.806049 1_545
O6 Th0 2.806049 1_556
O7 Th0 2.586449 1_555
O8 Th0 2.806049 1_556
O8 Th0 2.806049 1_455
O9 Th0 2.586449 1_555
O10 Th0 2.586449 1_555
O11 Th0 2.586449 1_556
