# generated using pymatgen
data_LiLa3MnO7
_symmetry_space_group_name_H-M   'P 1'
_cell_length_a   5.45762300
_cell_length_b   5.47317300
_cell_length_c   20.99160717
_cell_angle_alpha   74.99388987
_cell_angle_beta   90.00000000
_cell_angle_gamma   90.00000000
_symmetry_Int_Tables_number   1
_chemical_formula_structural   LiLa3MnO7
_chemical_formula_sum   'Li4 La12 Mn4 O28'
_cell_volume   605.64727065
_cell_formula_units_Z   4
loop_
 _symmetry_equiv_pos_site_id
 _symmetry_equiv_pos_as_xyz
  1  'x, y, z'
loop_
 _atom_site_type_symbol
 _atom_site_label
 _atom_site_symmetry_multiplicity
 _atom_site_fract_x
 _atom_site_fract_y
 _atom_site_fract_z
 _atom_site_occupancy
  Li  Li0  1  0.24827900  0.34266000  0.40507700  1
  Li  Li1  1  0.25172100  0.34266000  0.90507700  1
  Li  Li2  1  0.74827900  0.65734000  0.09492300  1
  Li  Li3  1  0.75172100  0.65734000  0.59492300  1
  La  La0  1  0.24586100  0.91308000  0.82153400  1
  La  La1  1  0.23954500  0.56833500  0.17926500  1
  La  La2  1  0.25108200  0.75163100  0.00005600  1
  La  La3  1  0.24891800  0.75163100  0.50005600  1
  La  La4  1  0.26045500  0.56833500  0.67926500  1
  La  La5  1  0.25413900  0.91308000  0.32153400  1
  La  La6  1  0.74586100  0.08692000  0.67846600  1
  La  La7  1  0.73954500  0.43166500  0.32073500  1
  La  La8  1  0.75108200  0.24836900  0.49994400  1
  La  La9  1  0.74891800  0.24836900  0.99994400  1
  La  La10  1  0.76045500  0.43166500  0.82073500  1
  La  La11  1  0.75413900  0.08692000  0.17846600  1
  Mn  Mn0  1  0.24719600  0.15132100  0.59579900  1
  Mn  Mn1  1  0.25280400  0.15132100  0.09579900  1
  Mn  Mn2  1  0.74719600  0.84867900  0.90420100  1
  Mn  Mn3  1  0.75280400  0.84867900  0.40420100  1
  O  O0  1  0.99631000  0.09945800  0.39318400  1
  O  O1  1  0.00439200  0.91053800  0.09710200  1
  O  O2  1  0.00369000  0.90054200  0.60681600  1
  O  O3  1  0.00467300  0.39597900  0.59690400  1
  O  O4  1  0.99395100  0.59720700  0.91225900  1
  O  O5  1  0.99560800  0.08946200  0.90289800  1
  O  O6  1  0.00604900  0.40279300  0.08774100  1
  O  O7  1  0.99532700  0.60402100  0.40309600  1
  O  O8  1  0.21951000  0.21399300  0.50462500  1
  O  O9  1  0.22913600  0.07077900  0.19954300  1
  O  O10  1  0.21921000  0.49646000  0.79188900  1
  O  O11  1  0.27086400  0.07077900  0.69954300  1
  O  O12  1  0.28079000  0.49646000  0.29188900  1
  O  O13  1  0.28049000  0.21399300  0.00462500  1
  O  O14  1  0.50369000  0.09945800  0.89318400  1
  O  O15  1  0.49395100  0.40279300  0.58774100  1
  O  O16  1  0.50467300  0.60402100  0.90309600  1
  O  O17  1  0.49560800  0.91053800  0.59710200  1
  O  O18  1  0.49532700  0.39597900  0.09690400  1
  O  O19  1  0.49631000  0.90054200  0.10681600  1
  O  O20  1  0.50439200  0.08946200  0.40289800  1
  O  O21  1  0.50604900  0.59720700  0.41225900  1
  O  O22  1  0.71951000  0.78600700  0.99537500  1
  O  O23  1  0.72913600  0.92922100  0.30045700  1
  O  O24  1  0.71921000  0.50354000  0.70811100  1
  O  O25  1  0.77086400  0.92922100  0.80045700  1
  O  O26  1  0.78079000  0.50354000  0.20811100  1
  O  O27  1  0.78049000  0.78600700  0.49537500  1
loop_
_geom_bond_atom_site_label_1
_geom_bond_atom_site_label_2
_geom_bond_distance
_geom_bond_site_symmetry_2
Li0 O0 1.974144 1_455
Li0 O20 1.977146 1_555
Li0 O7 1.980658 1_455
Li0 O21 2.012850 1_555
Li0 O8 2.031072 1_555
Li0 O12 2.312945 1_555
Li1 O14 1.974144 1_555
Li1 O5 1.977146 1_455
Li1 O16 1.980658 1_555
Li1 O4 2.012850 1_455
Li1 O13 2.031072 1_556
Li1 O10 2.312945 1_555
Li2 O19 1.974144 1_555
Li2 O1 1.977146 1_655
Li2 O18 1.980658 1_555
Li2 O6 2.012850 1_655
Li2 O22 2.031072 1_554
Li2 O26 2.312945 1_555
Li3 O2 1.974144 1_655
Li3 O17 1.977146 1_555
Li3 O3 1.980658 1_655
Li3 O15 2.012850 1_555
Li3 O27 2.031072 1_555
Li3 O24 2.312945 1_555
La0 O14 2.465208 1_565
La0 O11 2.485287 1_565
La0 O16 2.507599 1_555
La0 O10 2.518468 1_555
La0 O5 2.562864 1_465
La0 O4 2.607870 1_455
La0 O25 2.627474 1_455
La0 O25 2.897081 1_555
La0 O10 3.094243 1_565
La1 O12 2.305008 1_555
La1 O19 2.480044 1_555
La1 O1 2.541033 1_555
La1 O26 2.578720 1_455
La1 O18 2.583062 1_555
La1 O9 2.645755 1_555
La1 O6 2.652810 1_555
La1 O9 2.890137 1_565
La1 O26 3.017750 1_555
La2 O13 2.562131 1_565
La2 O22 2.563433 1_554
La2 O4 2.624300 1_454
La2 O6 2.646083 1_555
La2 O16 2.749966 1_554
La2 O5 2.751291 1_464
La2 O1 2.763429 1_555
La2 O18 2.765812 1_555
La2 O14 2.888957 1_564
La2 O19 2.902357 1_555
La2 O22 2.907228 1_454
La2 O13 2.923631 1_555
La3 O8 2.562131 1_565
La3 O27 2.563433 1_455
La3 O21 2.624300 1_555
La3 O15 2.646083 1_555
La3 O7 2.749966 1_455
La3 O20 2.751291 1_565
La3 O17 2.763429 1_555
La3 O3 2.765812 1_555
La3 O0 2.888957 1_465
La3 O2 2.902357 1_555
La3 O27 2.907228 1_555
La3 O8 2.923631 1_555
La4 O10 2.305008 1_555
La4 O2 2.480044 1_555
La4 O17 2.541033 1_555
La4 O24 2.578720 1_555
La4 O3 2.583062 1_555
La4 O11 2.645755 1_555
La4 O15 2.652810 1_555
La4 O11 2.890137 1_565
La4 O24 3.017750 1_455
La5 O0 2.465208 1_465
La5 O9 2.485287 1_565
La5 O7 2.507599 1_455
La5 O12 2.518468 1_555
La5 O20 2.562864 1_565
La5 O21 2.607870 1_555
La5 O23 2.627474 1_555
La5 O23 2.897081 1_455
La5 O12 3.094243 1_565
La6 O2 2.465208 1_645
La6 O25 2.485287 1_545
La6 O3 2.507599 1_655
La6 O24 2.518468 1_555
La6 O17 2.562864 1_545
La6 O15 2.607870 1_555
La6 O11 2.627474 1_555
La6 O11 2.897081 1_655
La6 O24 3.094243 1_545
La7 O26 2.305008 1_555
La7 O0 2.480044 1_555
La7 O20 2.541033 1_555
La7 O12 2.578720 1_555
La7 O7 2.583062 1_555
La7 O23 2.645755 1_555
La7 O21 2.652810 1_555
La7 O23 2.890137 1_545
La7 O12 3.017750 1_655
La8 O27 2.562131 1_545
La8 O8 2.563433 1_655
La8 O15 2.624300 1_555
La8 O21 2.646083 1_555
La8 O3 2.749966 1_655
La8 O17 2.751291 1_545
La8 O20 2.763429 1_555
La8 O7 2.765812 1_555
La8 O2 2.888957 1_645
La8 O0 2.902357 1_555
La8 O8 2.907228 1_555
La8 O27 2.923631 1_555
La9 O22 2.562131 1_545
La9 O13 2.563433 1_556
La9 O6 2.624300 1_656
La9 O4 2.646083 1_555
La9 O18 2.749966 1_556
La9 O1 2.751291 1_646
La9 O5 2.763429 1_555
La9 O16 2.765812 1_555
La9 O19 2.888957 1_546
La9 O14 2.902357 1_555
La9 O13 2.907228 1_656
La9 O22 2.923631 1_555
La10 O24 2.305008 1_555
La10 O14 2.480044 1_555
La10 O5 2.541033 1_555
La10 O10 2.578720 1_655
La10 O16 2.583062 1_555
La10 O25 2.645755 1_555
La10 O4 2.652810 1_555
La10 O25 2.890137 1_545
La10 O10 3.017750 1_555
La11 O19 2.465208 1_545
La11 O23 2.485287 1_545
La11 O18 2.507599 1_555
La11 O26 2.518468 1_555
La11 O1 2.562864 1_645
La11 O6 2.607870 1_655
La11 O9 2.627474 1_655
La11 O9 2.897081 1_555
La11 O26 3.094243 1_545
Mn0 O8 1.861048 1_555
Mn0 O2 1.881267 1_545
Mn0 O17 1.885956 1_545
Mn0 O3 1.887222 1_555
Mn0 O15 1.901573 1_555
Mn0 O11 2.111040 1_555
Mn1 O13 1.861048 1_555
Mn1 O19 1.881267 1_545
Mn1 O1 1.885956 1_545
Mn1 O18 1.887222 1_555
Mn1 O6 1.901573 1_555
Mn1 O9 2.111040 1_555
Mn2 O22 1.861048 1_555
Mn2 O14 1.881267 1_565
Mn2 O5 1.885956 1_565
Mn2 O16 1.887222 1_555
Mn2 O4 1.901573 1_555
Mn2 O25 2.111040 1_555
Mn3 O27 1.861048 1_555
Mn3 O0 1.881267 1_565
Mn3 O20 1.885956 1_565
Mn3 O7 1.887222 1_555
Mn3 O21 1.901573 1_555
Mn3 O23 2.111040 1_555
