# generated using pymatgen
data_LiNbO3
_symmetry_space_group_name_H-M   'P 1'
_cell_length_a   5.27535238
_cell_length_b   5.27535238
_cell_length_c   10.04535152
_cell_angle_alpha   88.04950148
_cell_angle_beta   88.04950148
_cell_angle_gamma   114.93731973
_symmetry_Int_Tables_number   1
_chemical_formula_structural   LiNbO3
_chemical_formula_sum   'Li4 Nb4 O12'
_cell_volume   252.98420899
_cell_formula_units_Z   4
loop_
 _symmetry_equiv_pos_site_id
 _symmetry_equiv_pos_as_xyz
  1  'x, y, z'
loop_
 _atom_site_type_symbol
 _atom_site_label
 _atom_site_symmetry_multiplicity
 _atom_site_fract_x
 _atom_site_fract_y
 _atom_site_fract_z
 _atom_site_occupancy
  Li  Li0  1  0.37099800  0.62900200  0.25000000  1
  Li  Li1  1  0.25660900  0.74339100  0.75000000  1
  Li  Li2  1  0.74339100  0.25660900  0.25000000  1
  Li  Li3  1  0.62900200  0.37099800  0.75000000  1
  Nb  Nb0  1  0.67703900  0.82379200  0.51237000  1
  Nb  Nb1  1  0.17620800  0.32296100  0.98763000  1
  Nb  Nb2  1  0.32296100  0.17620800  0.48763000  1
  Nb  Nb3  1  0.82379200  0.67703900  0.01237000  1
  O  O0  1  0.00303400  0.15998600  0.39953300  1
  O  O1  1  0.84001400  0.99696600  0.10046700  1
  O  O2  1  0.51776800  0.60778500  0.88274500  1
  O  O3  1  0.39221500  0.48223200  0.61725500  1
  O  O4  1  0.55426100  0.05352700  0.62408300  1
  O  O5  1  0.44573900  0.94647300  0.37591700  1
  O  O6  1  0.05352700  0.55426100  0.12408300  1
  O  O7  1  0.94647300  0.44573900  0.87591700  1
  O  O8  1  0.15998600  0.00303400  0.89953300  1
  O  O9  1  0.99696600  0.84001400  0.60046700  1
  O  O10  1  0.60778500  0.51776800  0.38274500  1
  O  O11  1  0.48223200  0.39221500  0.11725500  1
loop_
_geom_bond_atom_site_label_1
_geom_bond_atom_site_label_2
_geom_bond_distance
_geom_bond_site_symmetry_2
Li0 O6 2.044887 1_555
Li0 O5 2.044887 1_555
Li0 O10 2.088308 1_555
Li0 O11 2.088308 1_555
Li1 O7 2.073613 1_455
Li1 O4 2.073613 1_565
Li1 O8 2.251427 1_565
Li1 O9 2.251427 1_455
Li1 O3 2.253702 1_555
Li1 O2 2.253702 1_555
Li2 O5 2.073613 1_545
Li2 O6 2.073613 1_655
Li2 O0 2.251427 1_655
Li2 O1 2.251427 1_545
Li2 O11 2.253702 1_555
Li2 O10 2.253702 1_555
Li3 O7 2.044887 1_555
Li3 O4 2.044887 1_555
Li3 O3 2.088308 1_555
Li3 O2 2.088308 1_555
Nb0 O9 1.903667 1_555
Nb0 O4 1.962816 1_565
Nb0 O3 2.023464 1_555
Nb0 O10 2.028147 1_555
Nb0 O5 2.122723 1_555
Nb0 O0 2.132196 1_665
Nb1 O8 1.903667 1_555
Nb1 O7 1.962816 1_455
Nb1 O2 2.023464 1_555
Nb1 O11 2.028147 1_556
Nb1 O6 2.122723 1_556
Nb1 O1 2.132196 1_446
Nb2 O0 1.903667 1_555
Nb2 O5 1.962816 1_545
Nb2 O10 2.023464 1_555
Nb2 O3 2.028147 1_555
Nb2 O4 2.122723 1_555
Nb2 O9 2.132196 1_445
Nb3 O1 1.903667 1_555
Nb3 O6 1.962816 1_655
Nb3 O11 2.023464 1_555
Nb3 O2 2.028147 1_554
Nb3 O7 2.122723 1_554
Nb3 O8 2.132196 1_664
