# generated using pymatgen
data_LiP2WO7
_symmetry_space_group_name_H-M   'P 1'
_cell_length_a   5.09656900
_cell_length_b   8.61048700
_cell_length_c   13.87921518
_cell_angle_alpha   64.83036075
_cell_angle_beta   90.00000000
_cell_angle_gamma   90.00000000
_symmetry_Int_Tables_number   1
_chemical_formula_structural   LiP2WO7
_chemical_formula_sum   'Li4 P8 W4 O28'
_cell_volume   551.24457177
_cell_formula_units_Z   4
loop_
 _symmetry_equiv_pos_site_id
 _symmetry_equiv_pos_as_xyz
  1  'x, y, z'
loop_
 _atom_site_type_symbol
 _atom_site_label
 _atom_site_symmetry_multiplicity
 _atom_site_fract_x
 _atom_site_fract_y
 _atom_site_fract_z
 _atom_site_occupancy
  Li  Li0  1  0.27971600  0.40782900  0.70921200  1
  Li  Li1  1  0.77971600  0.59217100  0.79078800  1
  Li  Li2  1  0.22028400  0.40782900  0.20921200  1
  Li  Li3  1  0.72028400  0.59217100  0.29078800  1
  P  P0  1  0.76083300  0.17401900  0.85104500  1
  P  P1  1  0.22888500  0.70027500  0.37832800  1
  P  P2  1  0.26083300  0.82598100  0.64895500  1
  P  P3  1  0.27111500  0.70027500  0.87832800  1
  P  P4  1  0.72888500  0.29972500  0.12167200  1
  P  P5  1  0.73916700  0.17401900  0.35104500  1
  P  P6  1  0.77111500  0.29972500  0.62167200  1
  P  P7  1  0.23916700  0.82598100  0.14895500  1
  W  W0  1  0.24264900  0.26918100  0.97058300  1
  W  W1  1  0.74264900  0.73081900  0.52941700  1
  W  W2  1  0.25735100  0.26918100  0.47058300  1
  W  W3  1  0.75735100  0.73081900  0.02941700  1
  O  O0  1  0.04212300  0.24765200  0.83928200  1
  O  O1  1  0.56251300  0.31003000  0.85339500  1
  O  O2  1  0.65169900  0.46270500  0.62471400  1
  O  O3  1  0.93073700  0.68234700  0.39979400  1
  O  O4  1  0.28350600  0.84602700  0.25917100  1
  O  O5  1  0.37123400  0.76093100  0.45135800  1
  O  O6  1  0.28295400  0.99992700  0.06140800  1
  O  O7  1  0.15169900  0.53729500  0.87528600  1
  O  O8  1  0.06251300  0.68997000  0.64660500  1
  O  O9  1  0.54212300  0.75234800  0.66071800  1
  O  O10  1  0.78295400  0.00007300  0.43859200  1
  O  O11  1  0.56926300  0.68234700  0.89979400  1
  O  O12  1  0.87123400  0.23906900  0.04864200  1
  O  O13  1  0.78350600  0.15397300  0.24082900  1
  O  O14  1  0.21649400  0.84602700  0.75917100  1
  O  O15  1  0.12876600  0.76093100  0.95135800  1
  O  O16  1  0.43073700  0.31765300  0.10020600  1
  O  O17  1  0.21704600  0.99992700  0.56140800  1
  O  O18  1  0.45787700  0.24765200  0.33928200  1
  O  O19  1  0.93748700  0.31003000  0.35339500  1
  O  O20  1  0.84830100  0.46270500  0.12471400  1
  O  O21  1  0.71704600  0.00007300  0.93859200  1
  O  O22  1  0.62876600  0.23906900  0.54864200  1
  O  O23  1  0.71649400  0.15397300  0.74082900  1
  O  O24  1  0.06926300  0.31765300  0.60020600  1
  O  O25  1  0.34830100  0.53729500  0.37528600  1
  O  O26  1  0.43748700  0.68997000  0.14660500  1
  O  O27  1  0.95787700  0.75234800  0.16071800  1
loop_
_geom_bond_atom_site_label_1
_geom_bond_atom_site_label_2
_geom_bond_distance
_geom_bond_site_symmetry_2
Li0 O0 2.123593 1_555
Li0 O2 2.172899 1_555
Li0 O24 2.245322 1_555
Li0 O1 2.314660 1_555
Li0 O8 2.467131 1_555
Li1 O9 2.123593 1_555
Li1 O7 2.172899 1_655
Li1 O11 2.245322 1_555
Li1 O8 2.314660 1_655
Li1 O1 2.467131 1_555
Li2 O18 2.123593 1_555
Li2 O20 2.172899 1_455
Li2 O16 2.245322 1_555
Li2 O19 2.314660 1_455
Li2 O26 2.467131 1_555
Li3 O27 2.123593 1_555
Li3 O25 2.172899 1_555
Li3 O3 2.245322 1_555
Li3 O26 2.314660 1_555
Li3 O19 2.467131 1_555
O0 P0 1.547848 1_455
O0 W0 2.164986 1_555
O1 P0 1.557786 1_555
O1 W0 2.222636 1_555
O2 P6 1.546591 1_555
O2 W1 2.167162 1_555
O3 P1 1.543519 1_655
O3 W1 2.229001 1_555
O4 P1 1.619305 1_555
O4 P7 1.626489 1_555
O5 P1 1.508902 1_555
O5 W1 2.141325 1_555
O6 P7 1.490472 1_555
O6 W0 2.126115 1_564
O7 P3 1.546591 1_555
O7 W0 2.167162 1_555
O8 P2 1.557786 1_555
O8 W1 2.222636 1_455
O9 P2 1.547848 1_555
O9 W1 2.164986 1_555
O10 P5 1.490472 1_555
O10 W1 2.126115 1_545
O11 P3 1.543519 1_555
O11 W3 2.229001 1_556
O12 P4 1.508902 1_555
O12 W0 2.141325 1_654
O13 P4 1.619305 1_555
O13 P5 1.626489 1_555
O14 P3 1.619305 1_555
O14 P2 1.626489 1_555
O15 P3 1.508902 1_555
O15 W3 2.141325 1_456
O16 P4 1.543519 1_555
O16 W0 2.229001 1_554
O17 P2 1.490472 1_555
O17 W2 2.126115 1_565
O18 P5 1.547848 1_555
O18 W2 2.164986 1_555
O19 P5 1.557786 1_555
O19 W2 2.222636 1_655
O20 P4 1.546591 1_555
O20 W3 2.167162 1_555
O21 P0 1.490472 1_555
O21 W3 2.126115 1_546
O22 P6 1.508902 1_555
O22 W2 2.141325 1_555
O23 P6 1.619305 1_555
O23 P0 1.626489 1_555
O24 P6 1.543519 1_455
O24 W2 2.229001 1_555
O25 P1 1.546591 1_555
O25 W2 2.167162 1_555
O26 P7 1.557786 1_555
O26 W3 2.222636 1_555
O27 P7 1.547848 1_655
O27 W3 2.164986 1_555
