# generated using pymatgen
data_AgClO3
_symmetry_space_group_name_H-M   'P 1'
_cell_length_a   6.62715870
_cell_length_b   6.62715870
_cell_length_c   6.62715870
_cell_angle_alpha   90.00000000
_cell_angle_beta   90.00000000
_cell_angle_gamma   90.00000000
_symmetry_Int_Tables_number   1
_chemical_formula_structural   AgClO3
_chemical_formula_sum   'Ag4 Cl4 O12'
_cell_volume   291.05972333
_cell_formula_units_Z   4
loop_
 _symmetry_equiv_pos_site_id
 _symmetry_equiv_pos_as_xyz
  1  'x, y, z'
loop_
 _atom_site_type_symbol
 _atom_site_label
 _atom_site_symmetry_multiplicity
 _atom_site_fract_x
 _atom_site_fract_y
 _atom_site_fract_z
 _atom_site_occupancy
  Ag  Ag0  1  0.07506671  0.07506671  0.07506671  1
  Ag  Ag1  1  0.42493329  0.92493429  0.57506571  1
  Ag  Ag2  1  0.57506571  0.42493329  0.92493429  1
  Ag  Ag3  1  0.92493429  0.57506571  0.42493329  1
  Cl  Cl0  1  0.08506676  0.58506676  0.91493324  1
  Cl  Cl1  1  0.41493324  0.41493324  0.41493324  1
  Cl  Cl2  1  0.58506676  0.91493324  0.08506676  1
  Cl  Cl3  1  0.91493324  0.08506676  0.58506676  1
  O  O0  1  0.00861863  0.20096230  0.41466852  1
  O  O1  1  0.08533148  0.99138137  0.70096230  1
  O  O2  1  0.20096230  0.41466852  0.00861863  1
  O  O3  1  0.29903770  0.58533148  0.50861863  1
  O  O4  1  0.41466852  0.00861863  0.20096230  1
  O  O5  1  0.49138137  0.79903770  0.91466852  1
  O  O6  1  0.50861863  0.29903770  0.58533148  1
  O  O7  1  0.58533148  0.50861863  0.29903770  1
  O  O8  1  0.70096230  0.08533148  0.99138137  1
  O  O9  1  0.79903770  0.91466852  0.49138137  1
  O  O10  1  0.91466852  0.49138137  0.79903770  1
  O  O11  1  0.99138137  0.70096230  0.08533148  1
loop_
_geom_bond_atom_site_label_1
_geom_bond_atom_site_label_2
_geom_bond_distance
_geom_bond_site_symmetry_2
Ag0 O2 2.440329 1_555
Ag0 O0 2.440329 1_555
Ag0 O4 2.440329 1_555
Ag0 O11 2.541433 1_445
Ag0 O1 2.541433 1_544
Ag0 O8 2.541433 1_454
Ag1 O1 2.440330 1_555
Ag1 O3 2.440333 1_555
Ag1 O5 2.440337 1_555
Ag1 O4 2.541425 1_565
Ag1 O6 2.541427 1_565
Ag1 O9 2.541432 1_555
Ag2 O8 2.440330 1_555
Ag2 O6 2.440333 1_555
Ag2 O10 2.440337 1_555
Ag2 O2 2.541425 1_556
Ag2 O7 2.541427 1_556
Ag2 O5 2.541432 1_555
Ag3 O11 2.440330 1_555
Ag3 O7 2.440333 1_555
Ag3 O9 2.440337 1_555
Ag3 O0 2.541425 1_655
Ag3 O3 2.541427 1_655
Ag3 O10 2.541432 1_555
Cl0 O2 1.500203 1_556
Cl0 O11 1.500203 1_456
Cl0 O10 1.500203 1_455
Cl1 O7 1.500203 1_555
Cl1 O3 1.500203 1_555
Cl1 O6 1.500203 1_555
Cl2 O8 1.500203 1_564
Cl2 O4 1.500203 1_565
Cl2 O5 1.500203 1_554
Cl3 O1 1.500203 1_645
Cl3 O0 1.500203 1_655
Cl3 O9 1.500203 1_545
