# generated using pymatgen
data_LiCrPO4
_symmetry_space_group_name_H-M   'P 1'
_cell_length_a   6.59956500
_cell_length_b   9.48267900
_cell_length_c   18.88944659
_cell_angle_alpha   60.45536970
_cell_angle_beta   90.00000000
_cell_angle_gamma   90.00000000
_symmetry_Int_Tables_number   1
_chemical_formula_structural   LiCrPO4
_chemical_formula_sum   'Li12 Cr12 P12 O48'
_cell_volume   1028.42067780
_cell_formula_units_Z   12
loop_
 _symmetry_equiv_pos_site_id
 _symmetry_equiv_pos_as_xyz
  1  'x, y, z'
loop_
 _atom_site_type_symbol
 _atom_site_label
 _atom_site_symmetry_multiplicity
 _atom_site_fract_x
 _atom_site_fract_y
 _atom_site_fract_z
 _atom_site_occupancy
  Li  Li0  1  0.02869500  0.32880500  0.91851300  1
  Li  Li1  1  0.98201400  0.66600700  0.58084400  1
  Li  Li2  1  0.84647300  0.99924600  0.24946100  1
  Li  Li3  1  0.34647300  0.00075400  0.25053900  1
  Li  Li4  1  0.48201400  0.33399300  0.91915600  1
  Li  Li5  1  0.52869500  0.67119500  0.58148700  1
  Li  Li6  1  0.47130500  0.32880500  0.41851300  1
  Li  Li7  1  0.51798600  0.66600700  0.08084400  1
  Li  Li8  1  0.65352700  0.99924600  0.74946100  1
  Li  Li9  1  0.15352700  0.00075400  0.75053900  1
  Li  Li10  1  0.01798600  0.33399300  0.41915600  1
  Li  Li11  1  0.97130500  0.67119500  0.08148700  1
  Cr  Cr0  1  0.74277100  0.60543800  0.39131500  1
  Cr  Cr1  1  0.75577800  0.28275600  0.80551400  1
  Cr  Cr2  1  0.75563600  0.10985500  0.05403300  1
  Cr  Cr3  1  0.25563600  0.89014500  0.44596700  1
  Cr  Cr4  1  0.25577800  0.71724400  0.69448600  1
  Cr  Cr5  1  0.24277100  0.39456200  0.10868500  1
  Cr  Cr6  1  0.75722900  0.60543800  0.89131500  1
  Cr  Cr7  1  0.74422200  0.28275600  0.30551400  1
  Cr  Cr8  1  0.74436400  0.10985500  0.55403300  1
  Cr  Cr9  1  0.24436400  0.89014500  0.94596700  1
  Cr  Cr10  1  0.24422200  0.71724400  0.19448600  1
  Cr  Cr11  1  0.25722900  0.39456200  0.60868500  1
  P  P0  1  0.24670200  0.63630200  0.40697300  1
  P  P1  1  0.25739900  0.31224900  0.77599800  1
  P  P2  1  0.25113900  0.04926000  0.06926700  1
  P  P3  1  0.75113900  0.95074000  0.43073300  1
  P  P4  1  0.75739900  0.68775100  0.72400200  1
  P  P5  1  0.74670200  0.36369800  0.09302700  1
  P  P6  1  0.25329800  0.63630200  0.90697300  1
  P  P7  1  0.24260100  0.31224900  0.27599800  1
  P  P8  1  0.24886100  0.04926000  0.56926700  1
  P  P9  1  0.74886100  0.95074000  0.93073300  1
  P  P10  1  0.74260100  0.68775100  0.22400200  1
  P  P11  1  0.75329800  0.36369800  0.59302700  1
  O  O0  1  0.56772100  0.43972400  0.61219800  1
  O  O1  1  0.94514400  0.43239900  0.61282900  1
  O  O2  1  0.76341500  0.08796300  0.95304300  1
  O  O3  1  0.06765300  0.26998600  0.83150000  1
  O  O4  1  0.44540800  0.27342700  0.83201800  1
  O  O5  1  0.74105000  0.78849800  0.26937500  1
  O  O6  1  0.24864500  0.59704900  0.49747400  1
  O  O7  1  0.25286700  0.96028400  0.16437900  1
  O  O8  1  0.44382900  0.15452400  0.03327800  1
  O  O9  1  0.25687200  0.49259700  0.70741800  1
  O  O10  1  0.25188800  0.82555500  0.35536700  1
  O  O11  1  0.06684500  0.16582600  0.03523700  1
  O  O12  1  0.56684500  0.83417400  0.46476300  1
  O  O13  1  0.75188800  0.17444500  0.14463300  1
  O  O14  1  0.75687200  0.50740300  0.79258200  1
  O  O15  1  0.94382900  0.84547600  0.46672200  1
  O  O16  1  0.75286700  0.03971600  0.33562100  1
  O  O17  1  0.74864500  0.40295100  0.00252600  1
  O  O18  1  0.94540800  0.72657300  0.66798200  1
  O  O19  1  0.24105000  0.21150200  0.23062500  1
  O  O20  1  0.56765300  0.73001400  0.66850000  1
  O  O21  1  0.26341500  0.91203700  0.54695700  1
  O  O22  1  0.44514400  0.56760100  0.88717100  1
  O  O23  1  0.06772100  0.56027600  0.88780200  1
  O  O24  1  0.93227900  0.43972400  0.11219800  1
  O  O25  1  0.55485600  0.43239900  0.11282900  1
  O  O26  1  0.73658500  0.08796300  0.45304300  1
  O  O27  1  0.43234700  0.26998600  0.33150000  1
  O  O28  1  0.75895000  0.78849800  0.76937500  1
  O  O29  1  0.05459200  0.27342700  0.33201800  1
  O  O30  1  0.25135500  0.59704900  0.99747400  1
  O  O31  1  0.24713300  0.96028400  0.66437900  1
  O  O32  1  0.05617100  0.15452400  0.53327800  1
  O  O33  1  0.24312800  0.49259700  0.20741800  1
  O  O34  1  0.24811200  0.82555500  0.85536700  1
  O  O35  1  0.43315500  0.16582600  0.53523700  1
  O  O36  1  0.93315500  0.83417400  0.96476300  1
  O  O37  1  0.74811200  0.17444500  0.64463300  1
  O  O38  1  0.74312800  0.50740300  0.29258200  1
  O  O39  1  0.55617100  0.84547600  0.96672200  1
  O  O40  1  0.74713300  0.03971600  0.83562100  1
  O  O41  1  0.75135500  0.40295100  0.50252600  1
  O  O42  1  0.25895000  0.21150200  0.73062500  1
  O  O43  1  0.55459200  0.72657300  0.16798200  1
  O  O44  1  0.93234700  0.73001400  0.16850000  1
  O  O45  1  0.23658500  0.91203700  0.04695700  1
  O  O46  1  0.05485600  0.56760100  0.38717100  1
  O  O47  1  0.43227900  0.56027600  0.38780200  1
loop_
_geom_bond_atom_site_label_1
_geom_bond_atom_site_label_2
_geom_bond_distance
_geom_bond_site_symmetry_2
Li0 O11 1.988147 1_556
Li0 O23 1.991225 1_555
Li0 O3 1.995699 1_555
Li1 O15 1.997193 1_555
Li1 O1 2.002886 1_555
Li1 O18 2.007433 1_555
Li2 O16 1.947734 1_565
Li2 O13 1.956115 1_565
Li2 O5 1.969267 1_555
Li3 O7 1.947734 1_545
Li3 O10 1.956115 1_545
Li3 O19 1.969267 1_555
Li4 O8 1.997193 1_556
Li4 O22 2.002886 1_555
Li4 O4 2.007433 1_555
Li5 O12 1.988147 1_555
Li5 O0 1.991225 1_555
Li5 O20 1.995699 1_555
Li6 O35 1.988147 1_555
Li6 O47 1.991225 1_555
Li6 O27 1.995699 1_555
Li7 O39 1.997193 1_554
Li7 O25 2.002886 1_555
Li7 O43 2.007433 1_555
Li8 O40 1.947734 1_565
Li8 O37 1.956115 1_565
Li8 O28 1.969267 1_555
Li9 O31 1.947734 1_545
Li9 O34 1.956115 1_545
Li9 O42 1.969267 1_555
Li10 O32 1.997193 1_555
Li10 O46 2.002886 1_555
Li10 O29 2.007433 1_555
Li11 O36 1.988147 1_554
Li11 O24 1.991225 1_555
Li11 O44 1.995699 1_555
Cr0 O41 2.031034 1_555
Cr0 O5 2.091833 1_555
Cr0 O46 2.098718 1_655
Cr0 O47 2.101117 1_555
Cr0 O38 2.460153 1_555
Cr1 O14 2.021019 1_555
Cr1 O40 2.084608 1_555
Cr1 O4 2.100085 1_555
Cr1 O3 2.105549 1_655
Cr1 O2 2.470614 1_555
Cr2 O2 2.018761 1_554
Cr2 O13 2.082864 1_555
Cr2 O8 2.098536 1_555
Cr2 O11 2.107176 1_655
Cr2 O17 2.450843 1_555
Cr3 O21 2.018761 1_555
Cr3 O10 2.082864 1_555
Cr3 O15 2.098536 1_455
Cr3 O12 2.107176 1_555
Cr3 O6 2.450843 1_555
Cr4 O9 2.021019 1_555
Cr4 O31 2.084608 1_555
Cr4 O18 2.100085 1_455
Cr4 O20 2.105549 1_555
Cr4 O21 2.470614 1_555
Cr5 O30 2.031034 1_554
Cr5 O19 2.091833 1_555
Cr5 O25 2.098718 1_555
Cr5 O24 2.101117 1_455
Cr5 O33 2.460153 1_555
Cr6 O17 2.031034 1_556
Cr6 O28 2.091833 1_555
Cr6 O22 2.098718 1_555
Cr6 O23 2.101117 1_655
Cr6 O14 2.460153 1_555
Cr7 O38 2.021019 1_555
Cr7 O16 2.084608 1_555
Cr7 O29 2.100085 1_655
Cr7 O27 2.105549 1_555
Cr7 O26 2.470614 1_555
Cr8 O26 2.018761 1_555
Cr8 O37 2.082864 1_555
Cr8 O32 2.098536 1_655
Cr8 O35 2.107176 1_555
Cr8 O41 2.450843 1_555
Cr9 O45 2.018761 1_556
Cr9 O34 2.082864 1_555
Cr9 O39 2.098536 1_555
Cr9 O36 2.107176 1_455
Cr9 O30 2.450843 1_555
Cr10 O33 2.021019 1_555
Cr10 O7 2.084608 1_555
Cr10 O43 2.100085 1_555
Cr10 O44 2.105549 1_455
Cr10 O45 2.470614 1_555
Cr11 O6 2.031034 1_555
Cr11 O42 2.091833 1_555
Cr11 O1 2.098718 1_455
Cr11 O0 2.101117 1_555
Cr11 O9 2.460153 1_555
O0 P11 1.551871 1_555
O1 P11 1.551662 1_555
O2 P9 1.555912 1_545
O3 P1 1.553545 1_555
O4 P1 1.552621 1_555
O5 P10 1.566805 1_555
O6 P0 1.560003 1_555
O7 P2 1.563613 1_565
O8 P2 1.551273 1_555
O9 P1 1.555001 1_555
O10 P0 1.564233 1_555
O11 P2 1.553569 1_555
O12 P3 1.553569 1_555
O13 P5 1.564233 1_555
O14 P4 1.555001 1_555
O15 P3 1.551273 1_555
O16 P3 1.563613 1_545
O17 P5 1.560003 1_555
O18 P4 1.552621 1_555
O19 P7 1.566805 1_555
O20 P4 1.553545 1_555
O21 P8 1.555912 1_565
O22 P6 1.551662 1_555
O23 P6 1.551871 1_555
O24 P5 1.551871 1_555
O25 P5 1.551662 1_555
O26 P3 1.555912 1_545
O27 P7 1.553545 1_555
O28 P4 1.566805 1_555
O29 P7 1.552621 1_555
O30 P6 1.560003 1_555
O31 P8 1.563613 1_565
O32 P8 1.551273 1_555
O33 P7 1.555001 1_555
O34 P6 1.564233 1_555
O35 P8 1.553569 1_555
O36 P9 1.553569 1_555
O37 P11 1.564233 1_555
O38 P10 1.555001 1_555
O39 P9 1.551273 1_555
O40 P9 1.563613 1_545
O41 P11 1.560003 1_555
O42 P1 1.566805 1_555
O43 P10 1.552621 1_555
O44 P10 1.553545 1_555
O45 P2 1.555912 1_565
O46 P0 1.551662 1_555
O47 P0 1.551871 1_555
