# generated using pymatgen
data_Bi2Te7Cl8
_symmetry_space_group_name_H-M   'P 1'
_cell_length_a   5.59870800
_cell_length_b   13.55310458
_cell_length_c   15.51883624
_cell_angle_alpha   103.82341231
_cell_angle_beta   95.23459659
_cell_angle_gamma   96.45966563
_symmetry_Int_Tables_number   1
_chemical_formula_structural   Bi2Te7Cl8
_chemical_formula_sum   'Bi4 Te14 Cl16'
_cell_volume   1127.65633992
_cell_formula_units_Z   2
loop_
 _symmetry_equiv_pos_site_id
 _symmetry_equiv_pos_as_xyz
  1  'x, y, z'
loop_
 _atom_site_type_symbol
 _atom_site_label
 _atom_site_symmetry_multiplicity
 _atom_site_fract_x
 _atom_site_fract_y
 _atom_site_fract_z
 _atom_site_occupancy
  Bi  Bi0  1  0.79431200  0.25893800  0.27728200  1
  Bi  Bi1  1  0.21018500  0.74391900  0.72808100  1
  Bi  Bi2  1  0.90329300  0.59478900  0.38871700  1
  Bi  Bi3  1  0.08672500  0.40935200  0.60903900  1
  Te  Te0  1  0.81277600  0.98182500  0.55962400  1
  Te  Te1  1  0.19113400  0.02032800  0.43561800  1
  Te  Te2  1  0.45892400  0.80750000  0.16616800  1
  Te  Te3  1  0.52818300  0.19036300  0.83069600  1
  Te  Te4  1  0.16804200  0.95879000  0.15406300  1
  Te  Te5  1  0.83361700  0.04696300  0.84987700  1
  Te  Te6  1  0.77197300  0.83517700  0.03309000  1
  Te  Te7  1  0.22318300  0.16000500  0.96421900  1
  Te  Te8  1  0.05360700  0.65135700  0.04912500  1
  Te  Te9  1  0.94442000  0.35305700  0.95562500  1
  Te  Te10  1  0.35085900  0.49079000  0.07107900  1
  Te  Te11  1  0.65269600  0.50952500  0.93407600  1
  Te  Te12  1  0.55618100  0.14379200  0.56164500  1
  Te  Te13  1  0.43780800  0.85463800  0.43901900  1
  Cl  Cl0  1  0.79961000  0.15522400  0.11379000  1
  Cl  Cl1  1  0.20298600  0.84462100  0.88820800  1
  Cl  Cl2  1  0.34514200  0.27559800  0.22908800  1
  Cl  Cl3  1  0.65134400  0.72208300  0.76928300  1
  Cl  Cl4  1  0.91131400  0.45116600  0.22502000  1
  Cl  Cl5  1  0.09269000  0.55356300  0.77566900  1
  Cl  Cl6  1  0.84237500  0.74173100  0.53503700  1
  Cl  Cl7  1  0.15944400  0.26389400  0.46351800  1
  Cl  Cl8  1  0.72936800  0.42635300  0.44372700  1
  Cl  Cl9  1  0.27384400  0.57958800  0.56165000  1
  Cl  Cl10  1  0.47813400  0.60159900  0.32915800  1
  Cl  Cl11  1  0.53414800  0.39631300  0.67224600  1
  Cl  Cl12  1  0.01776800  0.75443800  0.31254900  1
  Cl  Cl13  1  0.99442200  0.24551500  0.68832900  1
  Cl  Cl14  1  0.35281100  0.92176000  0.69077900  1
  Cl  Cl15  1  0.65081900  0.07996900  0.30614200  1
loop_
_geom_bond_atom_site_label_1
_geom_bond_atom_site_label_2
_geom_bond_distance
_geom_bond_site_symmetry_2
Bi0 Cl0 2.594802 1_555
Bi0 Cl2 2.607625 1_555
Bi0 Cl15 2.622172 1_555
Bi0 Cl4 2.932077 1_555
Bi0 Cl8 3.083653 1_555
Bi1 Cl1 2.539582 1_555
Bi1 Cl3 2.561964 1_555
Bi1 Cl14 2.664640 1_555
Bi1 Cl5 2.872513 1_555
Bi1 Cl9 3.058770 1_555
Bi2 Cl10 2.493511 1_555
Bi2 Cl6 2.715107 1_555
Bi2 Cl8 2.733328 1_555
Bi2 Cl12 2.745568 1_655
Bi2 Cl4 2.814618 1_555
Bi3 Cl11 2.646217 1_555
Bi3 Cl9 2.714627 1_555
Bi3 Cl7 2.715345 1_555
Bi3 Cl13 2.806291 1_455
Bi3 Cl5 2.839450 1_555
Bi3 Cl8 3.176037 1_455
Te0 Te12 2.751074 1_565
Te0 Te13 2.794416 1_555
Te0 Te1 3.072132 1_665
Te1 Te13 2.773813 1_545
Te1 Te12 2.781988 1_555
Te2 Te4 2.787733 1_555
Te2 Te6 2.891436 1_555
Te2 Te8 3.042638 1_555
Te3 Te5 2.778751 1_555
Te3 Te7 2.876430 1_555
Te3 Te9 3.166717 1_555
Te4 Te6 2.854810 1_455
Te5 Te7 2.737848 1_655
Te6 Te8 3.140615 1_655
Te7 Te9 3.216681 1_455
Te10 Te11 2.873616 1_554
Te10 Te9 2.928296 1_454
Te10 Te8 2.947411 1_555
Te11 Te9 2.880111 1_555
Te11 Te8 2.928971 1_656
Cl6 Te0 3.209556 1_555
Cl12 Te13 2.896937 1_555
Cl13 Te12 2.974791 1_555
