# generated using pymatgen
data_FeGe4H24C8(S5N)2
_symmetry_space_group_name_H-M   'P 1'
_cell_length_a   9.96855110
_cell_length_b   9.96855110
_cell_length_c   9.96855110
_cell_angle_alpha   122.55300512
_cell_angle_beta   122.55300512
_cell_angle_gamma   85.63216860
_symmetry_Int_Tables_number   1
_chemical_formula_structural   FeGe4H24C8(S5N)2
_chemical_formula_sum   'Fe1 Ge4 H24 C8 S10 N2'
_cell_volume   671.29979335
_cell_formula_units_Z   1
loop_
 _symmetry_equiv_pos_site_id
 _symmetry_equiv_pos_as_xyz
  1  'x, y, z'
loop_
 _atom_site_type_symbol
 _atom_site_label
 _atom_site_symmetry_multiplicity
 _atom_site_fract_x
 _atom_site_fract_y
 _atom_site_fract_z
 _atom_site_occupancy
  Fe  Fe0  1  0.75000000  0.25000000  0.50000000  1
  Ge  Ge0  1  0.97605300  0.73204300  0.88750700  1
  Ge  Ge1  1  0.84453700  0.08854700  0.11249300  1
  Ge  Ge2  1  0.91145300  0.02394700  0.75599000  1
  Ge  Ge3  1  0.26795700  0.15546300  0.24401000  1
  H  H0  1  0.41770500  0.51957800  0.77064400  1
  H  H1  1  0.74893400  0.64706100  0.22935600  1
  H  H2  1  0.35293900  0.58229500  0.10187300  1
  H  H3  1  0.48042200  0.25106600  0.89812700  1
  H  H4  1  0.32323600  0.61636700  0.89725800  1
  H  H5  1  0.71910900  0.42597800  0.10274200  1
  H  H6  1  0.57402200  0.67676400  0.29313100  1
  H  H7  1  0.38363300  0.28089100  0.70686900  1
  H  H8  1  0.53476300  0.71474100  0.01259700  1
  H  H9  1  0.70214400  0.52216700  0.98740300  1
  H  H10  1  0.47783300  0.46523700  0.17997700  1
  H  H11  1  0.28525900  0.29785600  0.82002300  1
  H  H12  1  0.25780800  0.91905800  0.43187600  1
  H  H13  1  0.48718200  0.82593200  0.56812400  1
  H  H14  1  0.17406800  0.74219200  0.66125000  1
  H  H15  1  0.08094200  0.51281800  0.33875000  1
  H  H16  1  0.10158400  0.91455400  0.46831700  1
  H  H17  1  0.44623700  0.63326700  0.53168300  1
  H  H18  1  0.36673300  0.89841600  0.81297000  1
  H  H19  1  0.08544600  0.55376300  0.18703000  1
  H  H20  1  0.31555300  0.01219400  0.67457300  1
  H  H21  1  0.33762100  0.64098000  0.32542700  1
  H  H22  1  0.35902000  0.68444700  0.69664100  1
  H  H23  1  0.98780600  0.66237900  0.30335900  1
  C  C0  1  0.43883500  0.59549700  0.91357000  1
  C  C1  1  0.68192800  0.52526500  0.08643000  1
  C  C2  1  0.47473500  0.56116500  0.15666200  1
  C  C3  1  0.40450300  0.31807200  0.84333800  1
  C  C4  1  0.22968800  0.91047600  0.51955700  1
  C  C5  1  0.39091800  0.71013100  0.48044300  1
  C  C6  1  0.28986900  0.77031200  0.68078700  1
  C  C7  1  0.08952400  0.60908200  0.31921300  1
  S  S0  1  0.24946400  0.88627600  0.13527000  1
  S  S1  1  0.75100600  0.11419300  0.86473000  1
  S  S2  1  0.88580700  0.75053600  0.63681300  1
  S  S3  1  0.11372400  0.24899400  0.36318700  1
  S  S4  1  0.81751500  0.81751500  0.00000000  1
  S  S5  1  0.18248500  0.18248500  0.00000000  1
  S  S6  1  0.97607600  0.47502300  0.79411200  1
  S  S7  1  0.68091100  0.18196400  0.20588800  1
  S  S8  1  0.81803500  0.02392400  0.49894600  1
  S  S9  1  0.52497700  0.31908900  0.50105400  1
  N  N0  1  0.50000000  0.50000000  0.00000000  1
  N  N1  1  0.25000000  0.75000000  0.50000000  1
loop_
_geom_bond_atom_site_label_1
_geom_bond_atom_site_label_2
_geom_bond_distance
_geom_bond_site_symmetry_2
Fe0 S8 2.299651 1_555
Fe0 S6 2.299657 1_555
Fe0 S7 2.299657 1_555
Fe0 S9 2.299660 1_555
Ge0 S6 2.205524 1_555
Ge0 S2 2.267086 1_555
Ge0 S4 2.270464 1_556
Ge0 S0 2.280321 1_656
Ge1 S7 2.205532 1_555
Ge1 S3 2.267084 1_655
Ge1 S4 2.270473 1_545
Ge1 S1 2.280306 1_554
Ge2 S8 2.205534 1_555
Ge2 S1 2.267083 1_555
Ge2 S5 2.270470 1_656
Ge2 S2 2.280324 1_545
Ge3 S9 2.205528 1_555
Ge3 S0 2.267084 1_545
Ge3 S5 2.270470 1_555
Ge3 S3 2.280315 1_555
C0 H0 1.089957 1_555
C0 H4 1.093564 1_555
C0 H8 1.093790 1_556
C0 N0 1.499748 1_556
C1 H1 1.089957 1_555
C1 H5 1.093562 1_555
C1 H9 1.093788 1_554
C1 N0 1.499757 1_555
C2 H2 1.089957 1_555
C2 H6 1.093564 1_555
C2 H10 1.093785 1_555
C2 N0 1.499748 1_555
C3 H3 1.089949 1_555
C3 H7 1.093567 1_555
C3 H11 1.093794 1_555
C3 N0 1.499755 1_556
C4 H20 1.082252 1_565
C4 H12 1.094375 1_555
C4 H16 1.098086 1_555
C4 N1 1.515126 1_555
C5 H21 1.082254 1_555
C5 H13 1.094380 1_555
C5 H17 1.098088 1_555
C5 N1 1.515117 1_555
C6 H22 1.082254 1_555
C6 H14 1.094380 1_555
C6 H18 1.098088 1_555
C6 N1 1.515117 1_555
C7 H23 1.082246 1_455
C7 H15 1.094378 1_555
C7 H19 1.098094 1_555
C7 N1 1.515121 1_555
