# generated using pymatgen
data_Na3Fe2(PO4)3
_symmetry_space_group_name_H-M   'P 1'
_cell_length_a   9.08727991
_cell_length_b   9.08727991
_cell_length_c   9.08728006
_cell_angle_alpha   58.24421691
_cell_angle_beta   58.24421691
_cell_angle_gamma   58.24421322
_symmetry_Int_Tables_number   1
_chemical_formula_structural   Na3Fe2(PO4)3
_chemical_formula_sum   'Na6 Fe4 P6 O24'
_cell_volume   509.28095318
_cell_formula_units_Z   2
loop_
 _symmetry_equiv_pos_site_id
 _symmetry_equiv_pos_as_xyz
  1  'x, y, z'
loop_
 _atom_site_type_symbol
 _atom_site_label
 _atom_site_symmetry_multiplicity
 _atom_site_fract_x
 _atom_site_fract_y
 _atom_site_fract_z
 _atom_site_occupancy
  Na  Na0  1  0.09041800  0.34101900  0.75012900  1
  Na  Na1  1  0.24987100  0.90958200  0.65898100  1
  Na  Na2  1  0.65898100  0.24987100  0.90958200  1
  Na  Na3  1  0.34101900  0.75012900  0.09041800  1
  Na  Na4  1  0.75012900  0.09041800  0.34101900  1
  Na  Na5  1  0.90958200  0.65898100  0.24987100  1
  Fe  Fe0  1  0.85146700  0.85146700  0.85146700  1
  Fe  Fe1  1  0.64966400  0.64966400  0.64966400  1
  Fe  Fe2  1  0.35033600  0.35033600  0.35033600  1
  Fe  Fe3  1  0.14853300  0.14853300  0.14853300  1
  P  P0  1  0.24887800  0.53506400  0.96307000  1
  P  P1  1  0.03693000  0.75112200  0.46493600  1
  P  P2  1  0.46493600  0.03693000  0.75112200  1
  P  P3  1  0.53506400  0.96307000  0.24887800  1
  P  P4  1  0.96307000  0.24887800  0.53506400  1
  P  P5  1  0.75112200  0.46493600  0.03693000  1
  O  O0  1  0.48367300  0.85029200  0.76100200  1
  O  O1  1  0.76100200  0.48367300  0.85029200  1
  O  O2  1  0.21726300  0.37211800  0.98769800  1
  O  O3  1  0.09314900  0.72130000  0.91394600  1
  O  O4  1  0.85029200  0.76100200  0.48367300  1
  O  O5  1  0.27870000  0.08605400  0.90685100  1
  O  O6  1  0.01230200  0.78273700  0.62788200  1
  O  O7  1  0.43925600  0.54258100  0.81295500  1
  O  O8  1  0.18704500  0.56074400  0.45741900  1
  O  O9  1  0.62788200  0.01230200  0.78273700  1
  O  O10  1  0.08605400  0.90685100  0.27870000  1
  O  O11  1  0.45741900  0.18704500  0.56074400  1
  O  O12  1  0.54258100  0.81295500  0.43925600  1
  O  O13  1  0.91394600  0.09314900  0.72130000  1
  O  O14  1  0.37211800  0.98769800  0.21726300  1
  O  O15  1  0.81295500  0.43925600  0.54258100  1
  O  O16  1  0.56074400  0.45741900  0.18704500  1
  O  O17  1  0.98769800  0.21726300  0.37211800  1
  O  O18  1  0.72130000  0.91394600  0.09314900  1
  O  O19  1  0.14970800  0.23899800  0.51632700  1
  O  O20  1  0.90685100  0.27870000  0.08605400  1
  O  O21  1  0.78273700  0.62788200  0.01230200  1
  O  O22  1  0.23899800  0.51632700  0.14970800  1
  O  O23  1  0.51632700  0.14970800  0.23899800  1
loop_
_geom_bond_atom_site_label_1
_geom_bond_atom_site_label_2
_geom_bond_distance
_geom_bond_site_symmetry_2
Na0 O5 2.289711 1_555
Na0 O8 2.372686 1_555
Na0 O1 2.399847 1_455
Na0 O19 2.450805 1_555
Na0 O20 2.497326 1_456
Na0 O11 2.761057 1_555
Na1 O3 2.289711 1_555
Na1 O12 2.372686 1_555
Na1 O19 2.399847 1_565
Na1 O0 2.450805 1_555
Na1 O13 2.497326 1_465
Na1 O7 2.761057 1_555
Na2 O13 2.289711 1_555
Na2 O7 2.372686 1_555
Na2 O23 2.399847 1_556
Na2 O1 2.450805 1_555
Na2 O18 2.497326 1_546
Na2 O15 2.761057 1_555
Na3 O10 2.289711 1_555
Na3 O16 2.372686 1_555
Na3 O0 2.399847 1_554
Na3 O22 2.450805 1_555
Na3 O5 2.497326 1_564
Na3 O8 2.761057 1_555
Na4 O20 2.289711 1_555
Na4 O11 2.372686 1_555
Na4 O4 2.399847 1_545
Na4 O23 2.450805 1_555
Na4 O10 2.497326 1_645
Na4 O16 2.761057 1_555
Na5 O18 2.289711 1_555
Na5 O15 2.372686 1_555
Na5 O22 2.399847 1_655
Na5 O4 2.450805 1_555
Na5 O3 2.497326 1_654
Na5 O12 2.761057 1_555
Fe0 O9 1.975722 1_565
Fe0 O6 1.975723 1_655
Fe0 O21 1.975723 1_556
Fe0 O3 2.101449 1_655
Fe0 O18 2.101449 1_556
Fe0 O13 2.101449 1_565
Fe1 O0 2.015777 1_555
Fe1 O1 2.015777 1_555
Fe1 O4 2.015777 1_555
Fe1 O15 2.063195 1_555
Fe1 O12 2.063195 1_555
Fe1 O7 2.063195 1_555
Fe2 O23 2.015777 1_555
Fe2 O22 2.015777 1_555
Fe2 O19 2.015777 1_555
Fe2 O8 2.063195 1_555
Fe2 O11 2.063195 1_555
Fe2 O16 2.063195 1_555
Fe3 O14 1.975722 1_545
Fe3 O17 1.975723 1_455
Fe3 O2 1.975723 1_554
Fe3 O20 2.101449 1_455
Fe3 O5 2.101449 1_554
Fe3 O10 2.101449 1_545
O0 P2 1.570164 1_565
O1 P5 1.570164 1_556
O2 P0 1.535085 1_555
O3 P0 1.553984 1_555
O4 P1 1.570164 1_655
O5 P2 1.553984 1_555
O6 P1 1.535085 1_555
O7 P0 1.549416 1_555
O8 P1 1.549416 1_555
O9 P2 1.535085 1_555
O10 P1 1.553984 1_555
O11 P2 1.549416 1_555
O12 P3 1.549416 1_555
O13 P4 1.553984 1_555
O14 P3 1.535085 1_555
O15 P4 1.549416 1_555
O16 P5 1.549416 1_555
O17 P4 1.535085 1_555
O18 P3 1.553984 1_555
O19 P4 1.570164 1_455
O20 P5 1.553984 1_555
O21 P5 1.535085 1_555
O22 P0 1.570164 1_554
O23 P3 1.570164 1_545
