# generated using pymatgen
data_Li3CoPCO7
_symmetry_space_group_name_H-M   'P 1'
_cell_length_a   6.39209700
_cell_length_b   9.44892000
_cell_length_c   9.73247832
_cell_angle_alpha   64.59275210
_cell_angle_beta   90.00000000
_cell_angle_gamma   90.00000000
_symmetry_Int_Tables_number   1
_chemical_formula_structural   Li3CoPCO7
_chemical_formula_sum   'Li12 Co4 P4 C4 O28'
_cell_volume   530.97229525
_cell_formula_units_Z   4
loop_
 _symmetry_equiv_pos_site_id
 _symmetry_equiv_pos_as_xyz
  1  'x, y, z'
loop_
 _atom_site_type_symbol
 _atom_site_label
 _atom_site_symmetry_multiplicity
 _atom_site_fract_x
 _atom_site_fract_y
 _atom_site_fract_z
 _atom_site_occupancy
  Li  Li0  1  0.24135100  0.10769000  0.55734100  1
  Li  Li1  1  0.25864900  0.10769000  0.05734100  1
  Li  Li2  1  0.50066500  0.28166200  0.73633500  1
  Li  Li3  1  0.99933500  0.28166200  0.23633500  1
  Li  Li4  1  0.74714500  0.35500700  0.93453300  1
  Li  Li5  1  0.75285500  0.35500700  0.43453300  1
  Li  Li6  1  0.24714500  0.64499300  0.56546700  1
  Li  Li7  1  0.25285500  0.64499300  0.06546700  1
  Li  Li8  1  0.00066500  0.71833800  0.76366500  1
  Li  Li9  1  0.49933500  0.71833800  0.26366500  1
  Li  Li10  1  0.74135100  0.89231000  0.94265900  1
  Li  Li11  1  0.75864900  0.89231000  0.44265900  1
  Co  Co0  1  0.00773300  0.26530700  0.74118000  1
  Co  Co1  1  0.49226700  0.26530700  0.24118000  1
  Co  Co2  1  0.50773300  0.73469300  0.75882000  1
  Co  Co3  1  0.99226700  0.73469300  0.25882000  1
  P  P0  1  0.25843300  0.40835800  0.93403100  1
  P  P1  1  0.24156700  0.40835800  0.43403100  1
  P  P2  1  0.75843300  0.59164200  0.56596900  1
  P  P3  1  0.74156700  0.59164200  0.06596900  1
  C  C0  1  0.74033600  0.04309500  0.62864800  1
  C  C1  1  0.75966400  0.04309500  0.12864800  1
  C  C2  1  0.24033600  0.95690500  0.87135200  1
  C  C3  1  0.25966400  0.95690500  0.37135200  1
  O  O0  1  0.76504900  0.06642000  0.98940900  1
  O  O1  1  0.73495100  0.06642000  0.48940900  1
  O  O2  1  0.23160800  0.10238000  0.76180900  1
  O  O3  1  0.75385800  0.15752300  0.66818300  1
  O  O4  1  0.26839200  0.10238000  0.26180900  1
  O  O5  1  0.74614200  0.15752300  0.16818300  1
  O  O6  1  0.05852800  0.31637500  0.92703500  1
  O  O7  1  0.44241300  0.30585300  0.92744400  1
  O  O8  1  0.05758700  0.30585300  0.42744400  1
  O  O9  1  0.44147200  0.31637500  0.42703500  1
  O  O10  1  0.75922600  0.42308900  0.69513600  1
  O  O11  1  0.23745100  0.41821500  0.59078100  1
  O  O12  1  0.74077400  0.42308900  0.19513600  1
  O  O13  1  0.26254900  0.41821500  0.09078100  1
  O  O14  1  0.73745100  0.58178500  0.90921900  1
  O  O15  1  0.25922600  0.57691100  0.80486400  1
  O  O16  1  0.76254900  0.58178500  0.40921900  1
  O  O17  1  0.24077400  0.57691100  0.30486400  1
  O  O18  1  0.94241300  0.69414700  0.57255600  1
  O  O19  1  0.55852800  0.68362500  0.57296500  1
  O  O20  1  0.94147200  0.68362500  0.07296500  1
  O  O21  1  0.55758700  0.69414700  0.07255600  1
  O  O22  1  0.25385800  0.84247700  0.83181700  1
  O  O23  1  0.73160800  0.89762000  0.73819100  1
  O  O24  1  0.24614200  0.84247700  0.33181700  1
  O  O25  1  0.76839200  0.89762000  0.23819100  1
  O  O26  1  0.26504900  0.93358000  0.51059100  1
  O  O27  1  0.23495100  0.93358000  0.01059100  1
loop_
_geom_bond_atom_site_label_1
_geom_bond_atom_site_label_2
_geom_bond_distance
_geom_bond_site_symmetry_2
Li0 O26 1.891773 1_545
Li0 O2 1.969960 1_555
Li0 O8 2.110154 1_555
Li0 O9 2.233160 1_555
Li1 O27 1.891773 1_545
Li1 O4 1.969960 1_555
Li1 O7 2.110154 1_554
Li1 O6 2.233160 1_554
Li2 O7 2.003792 1_555
Li2 O10 2.053860 1_555
Li2 O11 2.221240 1_555
Li2 O3 2.258934 1_555
Li2 O2 2.351303 1_555
Li3 O8 2.003792 1_655
Li3 O12 2.053860 1_555
Li3 O13 2.221240 1_655
Li3 O5 2.258934 1_555
Li3 O4 2.351303 1_655
Li4 O7 2.010521 1_555
Li4 O6 2.030538 1_655
Li4 O14 2.050159 1_555
Li4 O10 2.135930 1_555
Li4 O5 2.238731 1_556
Li4 O0 2.546425 1_555
Li5 O8 2.010521 1_655
Li5 O9 2.030538 1_555
Li5 O16 2.050159 1_555
Li5 O12 2.135930 1_555
Li5 O3 2.238731 1_555
Li5 O1 2.546425 1_555
Li6 O18 2.010521 1_455
Li6 O19 2.030538 1_555
Li6 O11 2.050159 1_555
Li6 O15 2.135930 1_555
Li6 O24 2.238731 1_555
Li6 O26 2.546425 1_555
Li7 O21 2.010521 1_555
Li7 O20 2.030538 1_455
Li7 O13 2.050159 1_555
Li7 O17 2.135930 1_555
Li7 O22 2.238731 1_554
Li7 O27 2.546425 1_555
Li8 O18 2.003792 1_455
Li8 O15 2.053860 1_555
Li8 O14 2.221240 1_455
Li8 O22 2.258934 1_555
Li8 O23 2.351303 1_455
Li9 O21 2.003792 1_555
Li9 O17 2.053860 1_555
Li9 O16 2.221240 1_555
Li9 O24 2.258934 1_555
Li9 O25 2.351303 1_555
Li10 O0 1.891773 1_565
Li10 O23 1.969960 1_555
Li10 O21 2.110154 1_556
Li10 O20 2.233160 1_556
Li11 O1 1.891773 1_565
Li11 O25 1.969960 1_555
Li11 O18 2.110154 1_555
Li11 O19 2.233160 1_555
Co0 O2 2.047668 1_555
Co0 O6 2.087846 1_555
Co0 O10 2.091289 1_455
Co0 O11 2.138096 1_555
Co0 O3 2.190042 1_455
Co1 O4 2.047668 1_555
Co1 O9 2.087846 1_555
Co1 O12 2.091289 1_555
Co1 O13 2.138096 1_555
Co1 O5 2.190042 1_555
Co2 O23 2.047668 1_555
Co2 O19 2.087846 1_555
Co2 O15 2.091289 1_555
Co2 O14 2.138096 1_555
Co2 O22 2.190042 1_555
Co3 O25 2.047668 1_555
Co3 O20 2.087846 1_555
Co3 O17 2.091289 1_655
Co3 O16 2.138096 1_555
Co3 O24 2.190042 1_655
C0 O1 1.276667 1_555
C0 O3 1.296746 1_555
C0 O23 1.331047 1_545
C1 O0 1.276667 1_554
C1 O5 1.296746 1_555
C1 O25 1.331047 1_545
C2 O27 1.276667 1_556
C2 O22 1.296746 1_555
C2 O2 1.331047 1_565
C3 O26 1.276667 1_555
C3 O24 1.296746 1_555
C3 O4 1.331047 1_565
O6 P0 1.563210 1_555
O7 P0 1.542245 1_555
O8 P1 1.542245 1_555
O9 P1 1.563210 1_555
O10 P2 1.548821 1_555
O11 P1 1.568006 1_555
O12 P3 1.548821 1_555
O13 P0 1.568006 1_554
O14 P3 1.568006 1_556
O15 P0 1.548821 1_555
O16 P2 1.568006 1_555
O17 P1 1.548821 1_555
O18 P2 1.542245 1_555
O19 P2 1.563210 1_555
O20 P3 1.563210 1_555
O21 P3 1.542245 1_555
