# generated using pymatgen
data_LiP3(WO6)2
_symmetry_space_group_name_H-M   'P 1'
_cell_length_a   8.87626289
_cell_length_b   8.87626289
_cell_length_c   8.87626306
_cell_angle_alpha   59.79763146
_cell_angle_beta   59.79763146
_cell_angle_gamma   59.79762881
_symmetry_Int_Tables_number   1
_chemical_formula_structural   LiP3(WO6)2
_chemical_formula_sum   'Li2 P6 W4 O24'
_cell_volume   492.23866269
_cell_formula_units_Z   2
loop_
 _symmetry_equiv_pos_site_id
 _symmetry_equiv_pos_as_xyz
  1  'x, y, z'
loop_
 _atom_site_type_symbol
 _atom_site_label
 _atom_site_symmetry_multiplicity
 _atom_site_fract_x
 _atom_site_fract_y
 _atom_site_fract_z
 _atom_site_occupancy
  Li  Li0  1  0.50000000  0.50000000  0.50000000  1
  Li  Li1  1  0.00000000  0.00000000  0.00000000  1
  P  P0  1  0.25000000  0.54093900  0.95906100  1
  P  P1  1  0.45906100  0.04093900  0.75000000  1
  P  P2  1  0.04093900  0.75000000  0.45906100  1
  P  P3  1  0.95906100  0.25000000  0.54093900  1
  P  P4  1  0.54093900  0.95906100  0.25000000  1
  P  P5  1  0.75000000  0.45906100  0.04093900  1
  W  W0  1  0.64133500  0.64133500  0.64133500  1
  W  W1  1  0.85866500  0.85866500  0.85866500  1
  W  W2  1  0.14133500  0.14133500  0.14133500  1
  W  W3  1  0.35866500  0.35866500  0.35866500  1
  O  O0  1  0.41169400  0.55880500  0.77162300  1
  O  O1  1  0.22837700  0.58830600  0.44119500  1
  O  O2  1  0.50554600  0.11615300  0.30356900  1
  O  O3  1  0.38384700  0.99445400  0.19643100  1
  O  O4  1  0.08830600  0.72837700  0.94119500  1
  O  O5  1  0.27162300  0.05880500  0.91169400  1
  O  O6  1  0.44119500  0.22837700  0.58830600  1
  O  O7  1  0.69643100  0.49445400  0.88384700  1
  O  O8  1  0.00554600  0.80356900  0.61615300  1
  O  O9  1  0.80356900  0.61615300  0.00554600  1
  O  O10  1  0.88384700  0.69643100  0.49445400  1
  O  O11  1  0.05880500  0.91169400  0.27162300  1
  O  O12  1  0.94119500  0.08830600  0.72837700  1
  O  O13  1  0.11615300  0.30356900  0.50554600  1
  O  O14  1  0.19643100  0.38384700  0.99445400  1
  O  O15  1  0.30356900  0.50554600  0.11615300  1
  O  O16  1  0.99445400  0.19643100  0.38384700  1
  O  O17  1  0.55880500  0.77162300  0.41169400  1
  O  O18  1  0.72837700  0.94119500  0.08830600  1
  O  O19  1  0.91169400  0.27162300  0.05880500  1
  O  O20  1  0.49445400  0.88384700  0.69643100  1
  O  O21  1  0.61615300  0.00554600  0.80356900  1
  O  O22  1  0.77162300  0.41169400  0.55880500  1
  O  O23  1  0.58830600  0.44119500  0.22837700  1
loop_
_geom_bond_atom_site_label_1
_geom_bond_atom_site_label_2
_geom_bond_distance
_geom_bond_site_symmetry_2
Li0 O22 2.377585 1_555
Li0 O1 2.377585 1_555
Li0 O17 2.377585 1_555
Li0 O6 2.377585 1_555
Li0 O0 2.377585 1_555
Li0 O23 2.377585 1_555
Li1 O4 2.377585 1_544
Li1 O19 2.377585 1_455
Li1 O18 2.377585 1_445
Li1 O5 2.377585 1_554
Li1 O12 2.377585 1_454
Li1 O11 2.377585 1_545
O0 P0 1.553766 1_555
O0 W0 2.075386 1_555
O1 P2 1.553766 1_555
O1 W3 2.075386 1_555
O2 P4 1.531391 1_545
O2 W3 2.041244 1_555
O3 P4 1.531391 1_555
O3 W2 2.041244 1_565
O4 P0 1.553766 1_555
O4 W1 2.075386 1_455
O5 P1 1.553766 1_555
O5 W2 2.075386 1_556
O6 P1 1.553766 1_555
O6 W3 2.075386 1_555
O7 P5 1.531391 1_556
O7 W0 2.041244 1_555
O8 P2 1.531391 1_555
O8 W1 2.041244 1_455
O9 P5 1.531391 1_555
O9 W1 2.041244 1_554
O10 P2 1.531391 1_655
O10 W0 2.041244 1_555
O11 P2 1.553766 1_555
O11 W2 2.075386 1_565
O12 P3 1.553766 1_555
O12 W1 2.075386 1_545
O13 P3 1.531391 1_455
O13 W3 2.041244 1_555
O14 P0 1.531391 1_555
O14 W2 2.041244 1_556
O15 P0 1.531391 1_554
O15 W3 2.041244 1_555
O16 P3 1.531391 1_555
O16 W2 2.041244 1_655
O17 P4 1.553766 1_555
O17 W0 2.075386 1_555
O18 P4 1.553766 1_555
O18 W1 2.075386 1_554
O19 P5 1.553766 1_555
O19 W2 2.075386 1_655
O20 P1 1.531391 1_565
O20 W0 2.041244 1_555
O21 P1 1.531391 1_555
O21 W1 2.041244 1_545
O22 P3 1.553766 1_555
O22 W0 2.075386 1_555
O23 P5 1.553766 1_555
O23 W3 2.075386 1_555
