# generated using pymatgen
data_LiCo2(PO4)2
_symmetry_space_group_name_H-M   'P 1'
_cell_length_a   5.48537801
_cell_length_b   7.78633755
_cell_length_c   8.53874691
_cell_angle_alpha   103.72066340
_cell_angle_beta   90.00693515
_cell_angle_gamma   89.99930069
_symmetry_Int_Tables_number   1
_chemical_formula_structural   LiCo2(PO4)2
_chemical_formula_sum   'Li2 Co4 P4 O16'
_cell_volume   354.29129184
_cell_formula_units_Z   2
loop_
 _symmetry_equiv_pos_site_id
 _symmetry_equiv_pos_as_xyz
  1  'x, y, z'
loop_
 _atom_site_type_symbol
 _atom_site_label
 _atom_site_symmetry_multiplicity
 _atom_site_fract_x
 _atom_site_fract_y
 _atom_site_fract_z
 _atom_site_occupancy
  Li  Li0  1  0.83838300  0.37144100  0.39897300  1
  Li  Li1  1  0.16163200  0.37140600  0.89896000  1
  Co  Co0  1  0.34433000  0.49851900  0.27903100  1
  Co  Co1  1  0.65565800  0.49845700  0.77904600  1
  Co  Co2  1  0.84854700  0.96587100  0.06917400  1
  Co  Co3  1  0.15151000  0.96589600  0.56917100  1
  P  P0  1  0.65978400  0.25142900  0.02124800  1
  P  P1  1  0.34021700  0.25144800  0.52122800  1
  P  P2  1  0.83954500  0.73625500  0.31597900  1
  P  P3  1  0.16044300  0.73620300  0.81591900  1
  O  O0  1  0.13966500  0.89169300  0.97197800  1
  O  O1  1  0.86029300  0.89168400  0.47212500  1
  O  O2  1  0.40267500  0.32941000  0.06556600  1
  O  O3  1  0.59733500  0.32940700  0.56555600  1
  O  O4  1  0.71905200  0.81484800  0.18179400  1
  O  O5  1  0.28092900  0.81469300  0.68165000  1
  O  O6  1  0.80651500  0.22272900  0.17272700  1
  O  O7  1  0.19349000  0.22274800  0.67271300  1
  O  O8  1  0.09377100  0.66728100  0.26273600  1
  O  O9  1  0.90621700  0.66718200  0.76270700  1
  O  O10  1  0.67249800  0.59113700  0.35210800  1
  O  O11  1  0.32751400  0.59112400  0.85211800  1
  O  O12  1  0.19577800  0.37273100  0.43469800  1
  O  O13  1  0.80424200  0.37269500  0.93471900  1
  O  O14  1  0.34879900  0.05595000  0.41892900  1
  O  O15  1  0.65117700  0.05595400  0.91895700  1
loop_
_geom_bond_atom_site_label_1
_geom_bond_atom_site_label_2
_geom_bond_distance
_geom_bond_site_symmetry_2
Li0 O12 1.983660 1_655
Li0 O6 2.010518 1_555
Li0 O3 2.024844 1_555
Li0 O10 2.058878 1_555
Li1 O13 1.983750 1_455
Li1 O7 2.010412 1_555
Li1 O2 2.024645 1_556
Li1 O11 2.059005 1_555
Co0 O8 1.929171 1_555
Co0 O10 1.983978 1_555
Co0 O12 2.001977 1_555
Co0 O2 2.005032 1_555
Co1 O9 1.929105 1_555
Co1 O11 1.984080 1_555
Co1 O13 2.001816 1_555
Co1 O3 2.004906 1_555
Co2 O0 1.829030 1_654
Co2 O4 1.829944 1_555
Co2 O15 1.932816 1_564
Co2 O6 1.999017 1_565
Co3 O1 1.828912 1_455
Co3 O5 1.829941 1_555
Co3 O14 1.932793 1_565
Co3 O7 1.998904 1_565
O0 P3 1.577713 1_555
O1 P2 1.577903 1_555
O2 P0 1.546624 1_555
O3 P1 1.546555 1_555
O4 P2 1.567339 1_555
O5 P3 1.567585 1_555
O6 P0 1.583543 1_555
O7 P1 1.583738 1_555
O8 P2 1.524509 1_455
O9 P3 1.524467 1_655
O10 P2 1.541758 1_555
O11 P3 1.541762 1_555
O12 P1 1.547993 1_555
O13 P0 1.548049 1_556
O14 P1 1.565761 1_555
O15 P0 1.565587 1_556
