# generated using pymatgen
data_Cr5(PO4)4
_symmetry_space_group_name_H-M   'P 1'
_cell_length_a   8.09349800
_cell_length_b   8.36122636
_cell_length_c   5.19897778
_cell_angle_alpha   91.64151722
_cell_angle_beta   99.12835829
_cell_angle_gamma   113.82089302
_symmetry_Int_Tables_number   1
_chemical_formula_structural   Cr5(PO4)4
_chemical_formula_sum   'Cr5 P4 O16'
_cell_volume   316.09714207
_cell_formula_units_Z   1
loop_
 _symmetry_equiv_pos_site_id
 _symmetry_equiv_pos_as_xyz
  1  'x, y, z'
loop_
 _atom_site_type_symbol
 _atom_site_label
 _atom_site_symmetry_multiplicity
 _atom_site_fract_x
 _atom_site_fract_y
 _atom_site_fract_z
 _atom_site_occupancy
  Cr  Cr0  1  0.76542000  0.11570100  0.24776500  1
  Cr  Cr1  1  0.00000000  0.00000000  0.00000000  1
  Cr  Cr2  1  0.66466600  0.64564200  0.41589000  1
  Cr  Cr3  1  0.33533400  0.35435800  0.58411000  1
  Cr  Cr4  1  0.23458000  0.88429900  0.75223500  1
  P  P0  1  0.42660000  0.14170900  0.19837200  1
  P  P1  1  0.02400400  0.64033800  0.30566100  1
  P  P2  1  0.97599600  0.35966200  0.69433900  1
  P  P3  1  0.57340000  0.85829100  0.80162800  1
  O  O0  1  0.95577700  0.34464400  0.23566300  1
  O  O1  1  0.88060500  0.79984000  0.33954800  1
  O  O2  1  0.55895100  0.33755000  0.17118200  1
  O  O3  1  0.26536100  0.04864300  0.01193900  1
  O  O4  1  0.55033900  0.91817500  0.25476000  1
  O  O5  1  0.08703700  0.75172600  0.17851600  1
  O  O6  1  0.81569900  0.33845400  0.49967700  1
  O  O7  1  0.36752200  0.26020800  0.34395700  1
  O  O8  1  0.63247800  0.73979200  0.65604300  1
  O  O9  1  0.18430100  0.66154600  0.50032300  1
  O  O10  1  0.91296300  0.24827400  0.82148400  1
  O  O11  1  0.44966100  0.08182500  0.74524000  1
  O  O12  1  0.73463900  0.95135700  0.98806100  1
  O  O13  1  0.44104900  0.66245000  0.82881800  1
  O  O14  1  0.11939500  0.20016000  0.66045200  1
  O  O15  1  0.04422300  0.65535600  0.76433700  1
loop_
_geom_bond_atom_site_label_1
_geom_bond_atom_site_label_2
_geom_bond_distance
_geom_bond_site_symmetry_2
Cr0 O12 1.812112 1_544
Cr0 O4 1.860231 1_545
Cr0 O0 1.922845 1_555
Cr0 O6 2.104441 1_555
Cr1 O3 2.008123 1_555
Cr1 O12 2.008123 1_444
Cr1 O1 2.501029 1_445
Cr1 O14 2.501029 1_554
Cr1 O5 2.598267 1_545
Cr1 O10 2.598267 1_454
Cr2 O8 1.568117 1_555
Cr2 O1 1.817567 1_555
Cr2 O2 2.583226 1_555
Cr3 O7 1.568117 1_555
Cr3 O14 1.817567 1_555
Cr3 O13 2.583226 1_555
Cr4 O3 1.812112 1_566
Cr4 O11 1.860231 1_565
Cr4 O15 1.922845 1_555
Cr4 O9 2.104441 1_555
O1 P1 2.111464 1_655
O2 P0 1.578987 1_555
O3 P0 1.408250 1_555
O5 P1 1.150256 1_555
O6 P2 1.458120 1_555
O7 P0 1.495904 1_555
O8 P3 1.495904 1_555
O9 P1 1.458120 1_555
O10 P2 1.150256 1_555
O12 P3 1.408250 1_555
O13 P3 1.578987 1_555
O14 P2 2.111464 1_455
