# generated using pymatgen
data_Li2Mn2Si2O9
_symmetry_space_group_name_H-M   'P 1'
_cell_length_a   5.12930200
_cell_length_b   8.42693900
_cell_length_c   13.93125100
_cell_angle_alpha   90.00000000
_cell_angle_beta   90.00000000
_cell_angle_gamma   90.00000000
_symmetry_Int_Tables_number   1
_chemical_formula_structural   Li2Mn2Si2O9
_chemical_formula_sum   'Li8 Mn8 Si8 O36'
_cell_volume   602.16878250
_cell_formula_units_Z   4
loop_
 _symmetry_equiv_pos_site_id
 _symmetry_equiv_pos_as_xyz
  1  'x, y, z'
loop_
 _atom_site_type_symbol
 _atom_site_label
 _atom_site_symmetry_multiplicity
 _atom_site_fract_x
 _atom_site_fract_y
 _atom_site_fract_z
 _atom_site_occupancy
  Li  Li0  1  0.36514000  0.94635600  0.66085800  1
  Li  Li1  1  0.86514000  0.55364400  0.66085800  1
  Li  Li2  1  0.86514000  0.44635600  0.83914200  1
  Li  Li3  1  0.36514000  0.05364400  0.83914200  1
  Li  Li4  1  0.63486000  0.94635600  0.16085800  1
  Li  Li5  1  0.13486000  0.55364400  0.16085800  1
  Li  Li6  1  0.13486000  0.44635600  0.33914200  1
  Li  Li7  1  0.63486000  0.05364400  0.33914200  1
  Mn  Mn0  1  0.37813300  0.34145900  0.67028100  1
  Mn  Mn1  1  0.87813300  0.15854100  0.67028100  1
  Mn  Mn2  1  0.87813300  0.84145900  0.82971900  1
  Mn  Mn3  1  0.37813300  0.65854100  0.82971900  1
  Mn  Mn4  1  0.62186700  0.34145900  0.17028100  1
  Mn  Mn5  1  0.12186700  0.15854100  0.17028100  1
  Mn  Mn6  1  0.12186700  0.84145900  0.32971900  1
  Mn  Mn7  1  0.62186700  0.65854100  0.32971900  1
  Si  Si0  1  0.78423600  0.84679800  0.52810200  1
  Si  Si1  1  0.28423600  0.65320200  0.52810200  1
  Si  Si2  1  0.28423600  0.34679800  0.97189800  1
  Si  Si3  1  0.78423600  0.15320200  0.97189800  1
  Si  Si4  1  0.21576400  0.84679800  0.02810200  1
  Si  Si5  1  0.71576400  0.65320200  0.02810200  1
  Si  Si6  1  0.71576400  0.34679800  0.47189800  1
  Si  Si7  1  0.21576400  0.15320200  0.47189800  1
  O  O0  1  0.55672700  0.72704500  0.56910500  1
  O  O1  1  0.05672700  0.77295500  0.56910500  1
  O  O2  1  0.72571400  0.01791200  0.57478000  1
  O  O3  1  0.22571400  0.48208800  0.57478000  1
  O  O4  1  0.71316800  0.34385600  0.59111500  1
  O  O5  1  0.21316800  0.15614400  0.59111500  1
  O  O6  1  0.56092600  0.17652300  0.73513200  1
  O  O7  1  0.06092600  0.32347700  0.73513200  1
  O  O8  1  0.02847700  0.00000000  0.75000000  1
  O  O9  1  0.52847700  0.50000000  0.75000000  1
  O  O10  1  0.56092600  0.82347700  0.76486800  1
  O  O11  1  0.06092600  0.67652300  0.76486800  1
  O  O12  1  0.21316800  0.84385600  0.90888500  1
  O  O13  1  0.71316800  0.65614400  0.90888500  1
  O  O14  1  0.72571400  0.98208800  0.92522000  1
  O  O15  1  0.22571400  0.51791200  0.92522000  1
  O  O16  1  0.55672700  0.27295500  0.93089500  1
  O  O17  1  0.05672700  0.22704500  0.93089500  1
  O  O18  1  0.94327300  0.77295500  0.06910500  1
  O  O19  1  0.44327300  0.72704500  0.06910500  1
  O  O20  1  0.77428600  0.48208800  0.07478000  1
  O  O21  1  0.27428600  0.01791200  0.07478000  1
  O  O22  1  0.28683200  0.34385600  0.09111500  1
  O  O23  1  0.78683200  0.15614400  0.09111500  1
  O  O24  1  0.93907400  0.32347700  0.23513200  1
  O  O25  1  0.43907400  0.17652300  0.23513200  1
  O  O26  1  0.97152300  0.00000000  0.25000000  1
  O  O27  1  0.47152300  0.50000000  0.25000000  1
  O  O28  1  0.43907400  0.82347700  0.26486800  1
  O  O29  1  0.93907400  0.67652300  0.26486800  1
  O  O30  1  0.78683200  0.84385600  0.40888500  1
  O  O31  1  0.28683200  0.65614400  0.40888500  1
  O  O32  1  0.27428600  0.98208800  0.42522000  1
  O  O33  1  0.77428600  0.51791200  0.42522000  1
  O  O34  1  0.44327300  0.27295500  0.43089500  1
  O  O35  1  0.94327300  0.22704500  0.43089500  1
loop_
_geom_bond_atom_site_label_1
_geom_bond_atom_site_label_2
_geom_bond_distance
_geom_bond_site_symmetry_2
Li0 O10 2.044585 1_555
Li0 O5 2.162643 1_565
Li0 O8 2.174527 1_565
Li0 O2 2.285224 1_565
Li0 O6 2.416865 1_565
Li0 O0 2.452579 1_555
Li0 O1 2.504326 1_555
Li1 O11 2.044585 1_655
Li1 O4 2.162643 1_555
Li1 O9 2.174527 1_555
Li1 O3 2.285224 1_655
Li1 O7 2.416865 1_655
Li1 O1 2.452579 1_655
Li1 O0 2.504326 1_555
Li2 O7 2.044585 1_655
Li2 O13 2.162643 1_555
Li2 O9 2.174527 1_555
Li2 O15 2.285224 1_655
Li2 O11 2.416865 1_655
Li2 O17 2.452579 1_655
Li2 O16 2.504326 1_555
Li3 O6 2.044585 1_555
Li3 O12 2.162643 1_545
Li3 O8 2.174527 1_555
Li3 O14 2.285224 1_545
Li3 O10 2.416865 1_545
Li3 O16 2.452579 1_555
Li3 O17 2.504326 1_555
Li4 O28 2.044585 1_555
Li4 O23 2.162643 1_565
Li4 O26 2.174527 1_565
Li4 O21 2.285224 1_565
Li4 O25 2.416865 1_565
Li4 O19 2.452579 1_555
Li4 O18 2.504326 1_555
Li5 O29 2.044585 1_455
Li5 O22 2.162643 1_555
Li5 O27 2.174527 1_555
Li5 O20 2.285224 1_455
Li5 O24 2.416865 1_455
Li5 O18 2.452579 1_455
Li5 O19 2.504326 1_555
Li6 O24 2.044585 1_455
Li6 O31 2.162643 1_555
Li6 O27 2.174527 1_555
Li6 O33 2.285224 1_455
Li6 O29 2.416865 1_455
Li6 O35 2.452579 1_455
Li6 O34 2.504326 1_555
Li7 O25 2.044585 1_555
Li7 O30 2.162643 1_545
Li7 O26 2.174527 1_555
Li7 O32 2.285224 1_545
Li7 O28 2.416865 1_545
Li7 O34 2.452579 1_555
Li7 O35 2.504326 1_555
Mn0 O7 1.867214 1_555
Mn0 O9 1.900796 1_555
Mn0 O6 1.904512 1_555
Mn0 O3 1.945689 1_555
Mn0 O4 2.042054 1_555
Mn0 O5 2.090703 1_555
Mn1 O6 1.867214 1_555
Mn1 O8 1.900796 1_655
Mn1 O7 1.904512 1_655
Mn1 O2 1.945689 1_555
Mn1 O5 2.042054 1_655
Mn1 O4 2.090703 1_555
Mn2 O10 1.867214 1_555
Mn2 O8 1.900796 1_665
Mn2 O11 1.904512 1_655
Mn2 O14 1.945689 1_555
Mn2 O12 2.042054 1_655
Mn2 O13 2.090703 1_555
Mn3 O11 1.867214 1_555
Mn3 O9 1.900796 1_555
Mn3 O10 1.904512 1_555
Mn3 O15 1.945689 1_555
Mn3 O13 2.042054 1_555
Mn3 O12 2.090703 1_555
Mn4 O24 1.867214 1_555
Mn4 O27 1.900796 1_555
Mn4 O25 1.904512 1_555
Mn4 O20 1.945689 1_555
Mn4 O22 2.042054 1_555
Mn4 O23 2.090703 1_555
Mn5 O25 1.867214 1_555
Mn5 O26 1.900796 1_455
Mn5 O24 1.904512 1_455
Mn5 O21 1.945689 1_555
Mn5 O23 2.042054 1_455
Mn5 O22 2.090703 1_555
Mn6 O28 1.867214 1_555
Mn6 O26 1.900796 1_465
Mn6 O29 1.904512 1_455
Mn6 O32 1.945689 1_555
Mn6 O30 2.042054 1_455
Mn6 O31 2.090703 1_555
Mn7 O29 1.867214 1_555
Mn7 O27 1.900796 1_555
Mn7 O28 1.904512 1_555
Mn7 O33 1.945689 1_555
Mn7 O31 2.042054 1_555
Mn7 O30 2.090703 1_555
O0 Si1 1.633110 1_555
O0 Si0 1.645139 1_555
O1 Si0 1.633110 1_455
O1 Si1 1.645139 1_555
O2 Si0 1.610045 1_545
O3 Si1 1.610045 1_555
O4 Si6 1.661080 1_555
O5 Si7 1.661080 1_555
O12 Si4 1.661080 1_556
O13 Si5 1.661080 1_556
O14 Si3 1.610045 1_565
O15 Si2 1.610045 1_555
O16 Si2 1.633110 1_555
O16 Si3 1.645139 1_555
O17 Si3 1.633110 1_455
O17 Si2 1.645139 1_555
O18 Si4 1.633110 1_655
O18 Si5 1.645139 1_555
O19 Si5 1.633110 1_555
O19 Si4 1.645139 1_555
O20 Si5 1.610045 1_555
O21 Si4 1.610045 1_545
O22 Si2 1.661080 1_554
O23 Si3 1.661080 1_554
O30 Si0 1.661080 1_555
O31 Si1 1.661080 1_555
O32 Si7 1.610045 1_565
O33 Si6 1.610045 1_555
O34 Si6 1.633110 1_555
O34 Si7 1.645139 1_555
O35 Si7 1.633110 1_655
O35 Si6 1.645139 1_555
