# generated using pymatgen
data_LiFe5(P2O7)4
_symmetry_space_group_name_H-M   'P 1'
_cell_length_a   9.45839900
_cell_length_b   10.72867943
_cell_length_c   12.72604808
_cell_angle_alpha   85.26791558
_cell_angle_beta   106.79908037
_cell_angle_gamma   115.98496526
_symmetry_Int_Tables_number   1
_chemical_formula_structural   LiFe5(P2O7)4
_chemical_formula_sum   'Li2 Fe10 P16 O56'
_cell_volume   1109.84000367
_cell_formula_units_Z   2
loop_
 _symmetry_equiv_pos_site_id
 _symmetry_equiv_pos_as_xyz
  1  'x, y, z'
loop_
 _atom_site_type_symbol
 _atom_site_label
 _atom_site_symmetry_multiplicity
 _atom_site_fract_x
 _atom_site_fract_y
 _atom_site_fract_z
 _atom_site_occupancy
  Li  Li0  1  0.50000000  0.50000000  0.00000000  1
  Li  Li1  1  0.50000000  0.50000000  0.50000000  1
  Fe  Fe0  1  0.51315700  0.75937000  0.07227300  1
  Fe  Fe1  1  0.91033600  0.28612500  0.37850300  1
  Fe  Fe2  1  0.09701000  0.70203000  0.10851900  1
  Fe  Fe3  1  0.08966400  0.71387500  0.62149700  1
  Fe  Fe4  1  0.17918700  0.98793300  0.25725400  1
  Fe  Fe5  1  0.90299000  0.29797000  0.89148100  1
  Fe  Fe6  1  0.48684300  0.24063000  0.92772700  1
  Fe  Fe7  1  0.82081300  0.01206700  0.74274600  1
  Fe  Fe8  1  0.51527700  0.25106500  0.43409100  1
  Fe  Fe9  1  0.48472300  0.74893500  0.56590900  1
  P  P0  1  0.18871500  0.45544700  0.59667800  1
  P  P1  1  0.83530700  0.70459500  0.20649400  1
  P  P2  1  0.56313800  0.19405700  0.68935100  1
  P  P3  1  0.43686200  0.80594300  0.31064900  1
  P  P4  1  0.20998700  0.45508600  0.09811700  1
  P  P5  1  0.29298100  0.95116100  0.53602600  1
  P  P6  1  0.20138900  0.29167800  0.29215300  1
  P  P7  1  0.30272900  0.96220800  0.04640200  1
  P  P8  1  0.79001300  0.54491400  0.90188300  1
  P  P9  1  0.54839200  0.19298700  0.19038600  1
  P  P10  1  0.79861100  0.70832200  0.70784700  1
  P  P11  1  0.16469300  0.29540500  0.79350600  1
  P  P12  1  0.69727100  0.03779200  0.95359800  1
  P  P13  1  0.45160800  0.80701300  0.80961400  1
  P  P14  1  0.70701900  0.04883900  0.46397400  1
  P  P15  1  0.81128500  0.54455300  0.40332200  1
  O  O0  1  0.04107100  0.14660300  0.74654500  1
  O  O1  1  0.13033900  0.14356600  0.24234800  1
  O  O2  1  0.25515600  0.38600100  0.70629100  1
  O  O3  1  0.47911100  0.72093300  0.90871900  1
  O  O4  1  0.30963100  0.81509300  0.52749800  1
  O  O5  1  0.32142700  0.04797300  0.94591000  1
  O  O6  1  0.35658800  0.54737500  0.05482200  1
  O  O7  1  0.93264500  0.67031200  0.70171000  1
  O  O8  1  0.69053600  0.69826700  0.10963400  1
  O  O9  1  0.92325300  0.66859600  0.48259500  1
  O  O10  1  0.64341200  0.45262500  0.94517800  1
  O  O11  1  0.07674700  0.33140400  0.51740500  1
  O  O12  1  0.10536300  0.53781900  0.62056500  1
  O  O13  1  0.71534000  0.18669600  0.96819400  1
  O  O14  1  0.55400500  0.28902600  0.59400600  1
  O  O15  1  0.89463700  0.46218100  0.37943500  1
  O  O16  1  0.95892900  0.85339700  0.25345500  1
  O  O17  1  0.85880800  0.08488600  0.42767900  1
  O  O18  1  0.70820200  0.59885400  0.78926600  1
  O  O19  1  0.47105800  0.03470200  0.14189500  1
  O  O20  1  0.50326700  0.77976400  0.22279400  1
  O  O21  1  0.44799100  0.18348400  0.27138800  1
  O  O22  1  0.55200900  0.81651600  0.72861200  1
  O  O23  1  0.08055500  0.32529600  0.02796000  1
  O  O24  1  0.73257600  0.19081100  0.73886200  1
  O  O25  1  0.52894200  0.96529800  0.85810500  1
  O  O26  1  0.69229800  0.96545100  0.56994900  1
  O  O27  1  0.67857300  0.95202700  0.05409000  1
  O  O28  1  0.34833000  0.54789700  0.56668200  1
  O  O29  1  0.30946400  0.30173300  0.89036600  1
  O  O30  1  0.07302600  0.37043800  0.81851600  1
  O  O31  1  0.28466000  0.81330400  0.03180600  1
  O  O32  1  0.49673300  0.22023600  0.77720600  1
  O  O33  1  0.26742400  0.80918900  0.26113800  1
  O  O34  1  0.66363300  0.68362700  0.59961400  1
  O  O35  1  0.86966100  0.85643400  0.75765200  1
  O  O36  1  0.54933800  0.96059800  0.36567300  1
  O  O37  1  0.86836000  0.45857700  0.87439500  1
  O  O38  1  0.06735500  0.32968800  0.29829000  1
  O  O39  1  0.27537800  0.77405400  0.75316100  1
  O  O40  1  0.92697400  0.62956200  0.18148400  1
  O  O41  1  0.69036900  0.18490700  0.47250200  1
  O  O42  1  0.33636700  0.31637300  0.40038600  1
  O  O43  1  0.13164000  0.54142300  0.12560500  1
  O  O44  1  0.14119200  0.91511400  0.57232100  1
  O  O45  1  0.44599500  0.71097400  0.40599400  1
  O  O46  1  0.83651200  0.05274000  0.90363500  1
  O  O47  1  0.91944500  0.67470400  0.97204000  1
  O  O48  1  0.52088900  0.27906700  0.09128100  1
  O  O49  1  0.72462200  0.22594600  0.24683900  1
  O  O50  1  0.45066200  0.03940200  0.63432700  1
  O  O51  1  0.16348800  0.94726000  0.09636500  1
  O  O52  1  0.29179800  0.40114600  0.21073400  1
  O  O53  1  0.30770200  0.03454900  0.43005100  1
  O  O54  1  0.74484400  0.61399900  0.29370900  1
  O  O55  1  0.65167000  0.45210300  0.43331800  1
loop_
_geom_bond_atom_site_label_1
_geom_bond_atom_site_label_2
_geom_bond_distance
_geom_bond_site_symmetry_2
Li0 O10 1.947998 1_554
Li0 O6 1.947998 1_555
Li0 O8 2.322984 1_555
Li0 O29 2.322984 1_554
Li0 O48 2.613480 1_555
Li0 O3 2.613480 1_554
Li1 O28 2.112752 1_555
Li1 O55 2.112752 1_555
Li1 O34 2.118904 1_555
Li1 O42 2.118904 1_555
Fe0 O20 1.979033 1_555
Fe0 O8 1.980354 1_555
Fe0 O27 2.017502 1_555
Fe0 O3 2.060046 1_554
Fe0 O6 2.087385 1_555
Fe0 O31 2.382060 1_555
Fe1 O38 1.911933 1_655
Fe1 O11 1.923926 1_655
Fe1 O49 1.947636 1_555
Fe1 O15 1.959699 1_555
Fe1 O17 2.078918 1_555
Fe1 O41 2.486637 1_555
Fe2 O43 1.874891 1_555
Fe2 O40 1.923963 1_455
Fe2 O47 1.972221 1_454
Fe2 O31 2.116839 1_555
Fe2 O33 2.151070 1_555
Fe2 O51 2.425050 1_555
Fe3 O7 1.911933 1_455
Fe3 O9 1.923926 1_455
Fe3 O39 1.947636 1_555
Fe3 O12 1.959699 1_555
Fe3 O44 2.078918 1_555
Fe3 O4 2.486637 1_555
Fe4 O1 1.900146 1_565
Fe4 O16 1.934982 1_455
Fe4 O51 2.078351 1_555
Fe4 O53 2.160333 1_565
Fe4 O33 2.395714 1_555
Fe4 O21 2.453951 1_565
Fe5 O37 1.874891 1_555
Fe5 O30 1.923963 1_655
Fe5 O23 1.972221 1_656
Fe5 O13 2.116839 1_555
Fe5 O24 2.151070 1_555
Fe5 O46 2.425050 1_555
Fe6 O32 1.979033 1_555
Fe6 O29 1.980354 1_555
Fe6 O5 2.017502 1_555
Fe6 O48 2.060046 1_556
Fe6 O10 2.087385 1_555
Fe6 O13 2.382060 1_555
Fe7 O35 1.900146 1_545
Fe7 O0 1.934982 1_655
Fe7 O46 2.078351 1_555
Fe7 O26 2.160333 1_545
Fe7 O24 2.395714 1_555
Fe7 O22 2.453951 1_545
Fe8 O55 1.970296 1_555
Fe8 O41 1.997556 1_555
Fe8 O14 2.004183 1_555
Fe8 O42 2.026892 1_555
Fe8 O21 2.073555 1_555
Fe8 O53 2.284355 1_555
Fe9 O28 1.970296 1_555
Fe9 O4 1.997556 1_555
Fe9 O45 2.004183 1_555
Fe9 O34 2.026892 1_555
Fe9 O22 2.073555 1_555
Fe9 O26 2.284355 1_555
O0 P11 1.546214 1_555
O1 P6 1.537086 1_555
O2 P11 1.597161 1_555
O2 P0 1.621107 1_555
O3 P13 1.529681 1_555
O4 P5 1.550856 1_555
O5 P7 1.519022 1_546
O6 P4 1.534657 1_555
O7 P10 1.514954 1_555
O8 P1 1.534834 1_555
O9 P15 1.509743 1_555
O10 P8 1.534657 1_555
O11 P0 1.509743 1_555
O12 P0 1.512719 1_555
O13 P12 1.551522 1_555
O14 P2 1.526571 1_555
O15 P15 1.512719 1_555
O16 P1 1.546214 1_555
O17 P14 1.513735 1_555
O18 P8 1.613123 1_555
O18 P10 1.617248 1_555
O19 P7 1.602833 1_545
O19 P9 1.619635 1_555
O20 P3 1.528303 1_555
O21 P9 1.561564 1_555
O22 P13 1.561564 1_555
O23 P4 1.521311 1_555
O24 P2 1.558263 1_555
O25 P12 1.602833 1_565
O25 P13 1.619635 1_555
O26 P14 1.561706 1_565
O27 P12 1.519022 1_564
O28 P0 1.538577 1_555
O29 P11 1.534834 1_555
O30 P11 1.521331 1_555
O31 P7 1.551522 1_555
O32 P2 1.528303 1_555
O33 P3 1.558263 1_555
O34 P10 1.531219 1_555
O35 P10 1.537086 1_555
O36 P14 1.601636 1_565
O36 P3 1.609196 1_555
O37 P8 1.527837 1_555
O38 P6 1.514954 1_555
O39 P13 1.500935 1_555
O40 P1 1.521331 1_555
O41 P14 1.550856 1_555
O42 P6 1.531219 1_555
O43 P4 1.527837 1_555
O44 P5 1.513735 1_555
O45 P3 1.526571 1_555
O46 P12 1.564167 1_555
O47 P8 1.521311 1_555
O48 P9 1.529681 1_555
O49 P9 1.500935 1_555
O50 P5 1.601636 1_545
O50 P2 1.609196 1_555
O51 P7 1.564167 1_555
O52 P4 1.613123 1_555
O52 P6 1.617248 1_555
O53 P5 1.561706 1_545
O54 P1 1.597161 1_555
O54 P15 1.621107 1_555
O55 P15 1.538577 1_555
