# generated using pymatgen
data_Mn3Sb(PO4)4
_symmetry_space_group_name_H-M   'P 1'
_cell_length_a   6.15350800
_cell_length_b   5.04097100
_cell_length_c   10.06642891
_cell_angle_alpha   88.85730748
_cell_angle_beta   90.00000000
_cell_angle_gamma   90.00000000
_symmetry_Int_Tables_number   1
_chemical_formula_structural   Mn3Sb(PO4)4
_chemical_formula_sum   'Mn3 Sb1 P4 O16'
_cell_volume   312.19505710
_cell_formula_units_Z   1
loop_
 _symmetry_equiv_pos_site_id
 _symmetry_equiv_pos_as_xyz
  1  'x, y, z'
loop_
 _atom_site_type_symbol
 _atom_site_label
 _atom_site_symmetry_multiplicity
 _atom_site_fract_x
 _atom_site_fract_y
 _atom_site_fract_z
 _atom_site_occupancy
  Mn  Mn0  1  0.50000000  0.91355500  0.28625300  1
  Mn  Mn1  1  0.50000000  0.57548800  0.79052600  1
  Mn  Mn2  1  0.00000000  0.41442700  0.21292800  1
  Sb  Sb0  1  0.00000000  0.04984200  0.71485100  1
  P  P0  1  0.00000000  0.89445500  0.38910000  1
  P  P1  1  0.00000000  0.58896800  0.91188700  1
  P  P2  1  0.50000000  0.41683700  0.10492600  1
  P  P3  1  0.50000000  0.10344400  0.59372100  1
  O  O0  1  0.00000000  0.81523500  0.53848500  1
  O  O1  1  0.19838200  0.76488300  0.31934100  1
  O  O2  1  0.80161800  0.76488300  0.31934100  1
  O  O3  1  0.50000000  0.80971500  0.63218700  1
  O  O4  1  0.50000000  0.72040500  0.12425700  1
  O  O5  1  0.19491800  0.73174200  0.83726700  1
  O  O6  1  0.80508200  0.73174200  0.83726700  1
  O  O7  1  0.00000000  0.65198800  0.05932200  1
  O  O8  1  0.50000000  0.36545800  0.95494000  1
  O  O9  1  0.69796500  0.27633800  0.17287300  1
  O  O10  1  0.30203500  0.27633800  0.17287300  1
  O  O11  1  0.00000000  0.28831300  0.89241600  1
  O  O12  1  0.00000000  0.19898600  0.37428500  1
  O  O13  1  0.69517100  0.25655200  0.65934000  1
  O  O14  1  0.30482900  0.25655200  0.65934000  1
  O  O15  1  0.50000000  0.13385700  0.44227400  1
loop_
_geom_bond_atom_site_label_1
_geom_bond_atom_site_label_2
_geom_bond_distance
_geom_bond_site_symmetry_2
Mn0 O4 1.915881 1_555
Mn0 O15 1.941536 1_565
Mn0 O1 2.026680 1_555
Mn0 O2 2.026680 1_555
Mn0 O9 2.459224 1_565
Mn0 O10 2.459224 1_565
Mn1 O8 1.946870 1_555
Mn1 O3 1.964589 1_555
Mn1 O5 2.093070 1_555
Mn1 O6 2.093070 1_555
Mn1 O13 2.419880 1_555
Mn1 O14 2.419880 1_555
Mn2 O12 1.935826 1_555
Mn2 O7 1.936795 1_555
Mn2 O9 2.027963 1_455
Mn2 O10 2.027963 1_555
Mn2 O1 2.415404 1_555
Mn2 O2 2.415404 1_455
O0 P0 1.548180 1_555
O0 Sb0 2.152756 1_565
O1 P0 1.558288 1_555
O2 P0 1.558288 1_655
O3 P3 1.522984 1_565
O4 P2 1.546445 1_555
O5 P1 1.580918 1_555
O5 Sb0 2.334455 1_565
O6 P1 1.580918 1_655
O6 Sb0 2.334455 1_665
O7 P1 1.523946 1_554
O8 P2 1.536959 1_556
O9 P2 1.560158 1_555
O10 P2 1.560158 1_555
O11 P1 1.532086 1_555
O11 Sb0 2.173883 1_555
O12 P0 1.539396 1_545
O13 P3 1.579469 1_555
O13 Sb0 2.212089 1_655
O14 P3 1.579469 1_555
O14 Sb0 2.212089 1_555
O15 P3 1.529175 1_555
