# generated using pymatgen
data_K2FePCO7
_symmetry_space_group_name_H-M   'P 1'
_cell_length_a   6.83733500
_cell_length_b   5.58082400
_cell_length_c   9.67066056
_cell_angle_alpha   88.63467731
_cell_angle_beta   90.00000000
_cell_angle_gamma   90.00000000
_symmetry_Int_Tables_number   1
_chemical_formula_structural   K2FePCO7
_chemical_formula_sum   'K4 Fe2 P2 C2 O14'
_cell_volume   368.90794541
_cell_formula_units_Z   2
loop_
 _symmetry_equiv_pos_site_id
 _symmetry_equiv_pos_as_xyz
  1  'x, y, z'
loop_
 _atom_site_type_symbol
 _atom_site_label
 _atom_site_symmetry_multiplicity
 _atom_site_fract_x
 _atom_site_fract_y
 _atom_site_fract_z
 _atom_site_occupancy
  K  K0  1  0.47908900  0.24478200  0.75742600  1
  K  K1  1  0.02091100  0.24478200  0.75742600  1
  K  K2  1  0.52091100  0.75521800  0.24257400  1
  K  K3  1  0.97908900  0.75521800  0.24257400  1
  Fe  Fe0  1  0.75000000  0.76941300  0.64059300  1
  Fe  Fe1  1  0.25000000  0.23058700  0.35940700  1
  P  P0  1  0.25000000  0.71865900  0.56728200  1
  P  P1  1  0.75000000  0.28134100  0.43271800  1
  C  C0  1  0.75000000  0.73064400  0.90141100  1
  C  C1  1  0.25000000  0.26935600  0.09858900  1
  O  O0  1  0.25000000  0.29168800  0.97011900  1
  O  O1  1  0.75000000  0.93805200  0.83260400  1
  O  O2  1  0.75000000  0.54768300  0.81610200  1
  O  O3  1  0.06310100  0.75554400  0.65490700  1
  O  O4  1  0.43689900  0.75554400  0.65490700  1
  O  O5  1  0.75000000  0.10430600  0.56045800  1
  O  O6  1  0.25000000  0.45344900  0.51490500  1
  O  O7  1  0.75000000  0.54655100  0.48509500  1
  O  O8  1  0.25000000  0.89569400  0.43954200  1
  O  O9  1  0.56310100  0.24445600  0.34509300  1
  O  O10  1  0.93689900  0.24445600  0.34509300  1
  O  O11  1  0.25000000  0.45231700  0.18389800  1
  O  O12  1  0.25000000  0.06194800  0.16739600  1
  O  O13  1  0.75000000  0.70831200  0.02988100  1
loop_
_geom_bond_atom_site_label_1
_geom_bond_atom_site_label_2
_geom_bond_distance
_geom_bond_site_symmetry_2
K0 O2 2.579985 1_555
K0 O0 2.603541 1_555
K0 O1 2.613538 1_545
K0 O5 2.783007 1_555
K0 O4 2.941081 1_545
K0 O4 3.009429 1_555
K0 O6 3.029864 1_555
K1 O2 2.579985 1_455
K1 O0 2.603541 1_555
K1 O1 2.613538 1_445
K1 O5 2.783007 1_455
K1 O3 2.941081 1_545
K1 O3 3.009429 1_555
K1 O6 3.029864 1_555
K2 O11 2.579985 1_555
K2 O13 2.603541 1_555
K2 O12 2.613538 1_565
K2 O8 2.783007 1_555
K2 O9 2.941081 1_565
K2 O9 3.009429 1_555
K2 O7 3.029864 1_555
K3 O11 2.579985 1_655
K3 O13 2.603541 1_555
K3 O12 2.613538 1_665
K3 O8 2.783007 1_655
K3 O10 2.941081 1_565
K3 O10 3.009429 1_555
K3 O7 3.029864 1_555
Fe0 O7 1.974176 1_555
Fe0 O5 2.006146 1_565
Fe0 O2 2.076523 1_555
Fe0 O1 2.101669 1_555
Fe0 O4 2.146524 1_555
Fe0 O3 2.146524 1_655
Fe1 O6 1.974176 1_555
Fe1 O8 2.006146 1_545
Fe1 O11 2.076523 1_555
Fe1 O12 2.101669 1_555
Fe1 O10 2.146524 1_455
Fe1 O9 2.146524 1_555
C0 O13 1.245667 1_556
C0 O1 1.321321 1_555
C0 O2 1.327912 1_555
C1 O0 1.245667 1_554
C1 O12 1.321321 1_555
C1 O11 1.327912 1_555
O3 P0 1.549763 1_555
O4 P0 1.549763 1_555
O5 P1 1.563338 1_555
O6 P0 1.575740 1_555
O7 P1 1.575740 1_555
O8 P0 1.563338 1_555
O9 P1 1.549763 1_555
O10 P1 1.549763 1_555
