# generated using pymatgen
data_Li5Fe8(BO3)8
_symmetry_space_group_name_H-M   'P 1'
_cell_length_a   5.25764500
_cell_length_b   9.09987390
_cell_length_c   11.36067476
_cell_angle_alpha   113.11549929
_cell_angle_beta   102.68460874
_cell_angle_gamma   89.79384522
_symmetry_Int_Tables_number   1
_chemical_formula_structural   Li5Fe8(BO3)8
_chemical_formula_sum   'Li5 Fe8 B8 O24'
_cell_volume   485.62910961
_cell_formula_units_Z   1
loop_
 _symmetry_equiv_pos_site_id
 _symmetry_equiv_pos_as_xyz
  1  'x, y, z'
loop_
 _atom_site_type_symbol
 _atom_site_label
 _atom_site_symmetry_multiplicity
 _atom_site_fract_x
 _atom_site_fract_y
 _atom_site_fract_z
 _atom_site_occupancy
  Li  Li0  1  0.02866300  0.03084800  0.40075000  1
  Li  Li1  1  0.48714100  0.50977600  0.66428600  1
  Li  Li2  1  0.52537500  0.52893600  0.39400400  1
  Li  Li3  1  0.98842200  0.00965000  0.66721700  1
  Li  Li4  1  0.75815600  0.74642500  0.15780700  1
  Fe  Fe0  1  0.02135300  0.35234400  0.37088400  1
  Fe  Fe1  1  0.27342800  0.93772700  0.88883500  1
  Fe  Fe2  1  0.47034600  0.15720900  0.63077200  1
  Fe  Fe3  1  0.23891700  0.55373600  0.12712700  1
  Fe  Fe4  1  0.77184500  0.43649700  0.88526700  1
  Fe  Fe5  1  0.52258200  0.84927000  0.38087800  1
  Fe  Fe6  1  0.97039700  0.65810300  0.63142000  1
  Fe  Fe7  1  0.74630800  0.06737400  0.12660500  1
  B  B0  1  0.02553800  0.68333700  0.37670700  1
  B  B1  1  0.26208300  0.60175200  0.87418800  1
  B  B2  1  0.47801400  0.81602900  0.62685900  1
  B  B3  1  0.23718600  0.89060500  0.13027400  1
  B  B4  1  0.51923600  0.19250600  0.38127900  1
  B  B5  1  0.76589800  0.10170300  0.87461100  1
  B  B6  1  0.97294000  0.31419900  0.62236500  1
  B  B7  1  0.73076400  0.40311900  0.13620700  1
  O  O0  1  0.01211200  0.07018100  0.85630700  1
  O  O1  1  0.13662700  0.71766800  0.83796100  1
  O  O2  1  0.13235200  0.51078100  0.91960100  1
  O  O3  1  0.08074600  0.17079000  0.60844700  1
  O  O4  1  0.08666600  0.42166500  0.58300000  1
  O  O5  1  0.24726800  0.84866600  0.67153400  1
  O  O6  1  0.26656500  0.65966800  0.34747900  1
  O  O7  1  0.51291400  0.57423100  0.85899000  1
  O  O8  1  0.64209900  0.22042800  0.84089900  1
  O  O9  1  0.41452400  0.07988300  0.41560100  1
  O  O10  1  0.38767800  0.32369900  0.38156200  1
  O  O11  1  0.63522700  0.01443500  0.92236600  1
  O  O12  1  0.34882800  0.98531300  0.07942100  1
  O  O13  1  0.58388900  0.67172300  0.60980500  1
  O  O14  1  0.59770000  0.92830700  0.59552300  1
  O  O15  1  0.39466700  0.78549000  0.16866700  1
  O  O16  1  0.48577100  0.40471100  0.14966600  1
  O  O17  1  0.74803300  0.35045000  0.67156700  1
  O  O18  1  0.76693000  0.17562200  0.34987400  1
  O  O19  1  0.91500800  0.57336900  0.41554800  1
  O  O20  1  0.89226700  0.81008700  0.36624900  1
  O  O21  1  0.83173600  0.50370700  0.08383600  1
  O  O22  1  0.90221000  0.30521700  0.18027000  1
  O  O23  1  0.98374100  0.90173000  0.14344600  1
loop_
_geom_bond_atom_site_label_1
_geom_bond_atom_site_label_2
_geom_bond_distance
_geom_bond_site_symmetry_2
Li0 O20 1.993049 1_445
Li0 O9 2.034788 1_555
Li0 O18 2.049110 1_455
Li0 O3 2.150287 1_555
Li1 O13 1.916625 1_555
Li1 O17 2.005098 1_555
Li1 O7 2.026191 1_555
Li1 O4 2.122709 1_555
Li2 O6 1.926763 1_555
Li2 O10 1.946704 1_555
Li2 O19 2.031753 1_555
Li2 O13 2.227993 1_555
Li2 O16 2.512093 1_555
Li3 O3 1.935912 1_655
Li3 O0 1.971688 1_655
Li3 O5 2.003321 1_645
Li3 O14 2.057697 1_545
Li4 O23 1.925798 1_555
Li4 O15 1.964206 1_555
Li4 O21 2.100832 1_555
Li4 O20 2.152422 1_555
Fe0 O10 1.926336 1_555
Fe0 O19 1.982575 1_455
Fe0 O22 1.985634 1_455
Fe0 O18 2.001584 1_455
Fe0 O4 2.183456 1_555
Fe1 O0 1.895204 1_565
Fe1 O11 1.932178 1_565
Fe1 O1 1.944343 1_555
Fe1 O12 1.980104 1_556
Fe1 O5 2.247424 1_555
Fe2 O3 2.017445 1_555
Fe2 O14 2.097686 1_545
Fe2 O17 2.126021 1_555
Fe2 O8 2.196314 1_555
Fe2 O9 2.211932 1_555
Fe3 O16 1.924343 1_555
Fe3 O21 2.097866 1_455
Fe3 O15 2.098127 1_555
Fe3 O2 2.173252 1_554
Fe3 O6 2.272350 1_555
Fe4 O7 1.901677 1_555
Fe4 O8 1.914639 1_555
Fe4 O2 1.918125 1_655
Fe4 O21 2.041646 1_556
Fe4 O17 2.213031 1_555
Fe5 O20 2.005734 1_555
Fe5 O6 2.052085 1_555
Fe5 O9 2.078978 1_565
Fe5 O15 2.189408 1_555
Fe5 O14 2.195822 1_555
Fe6 O13 2.002028 1_555
Fe6 O5 2.107165 1_655
Fe6 O4 2.124714 1_655
Fe6 O1 2.160465 1_655
Fe6 O19 2.212933 1_555
Fe7 O23 1.993748 1_545
Fe7 O12 2.101723 1_545
Fe7 O22 2.117824 1_555
Fe7 O11 2.118059 1_554
Fe7 O18 2.309552 1_555
B0 O6 1.374485 1_555
B0 O20 1.378643 1_455
B0 O19 1.413264 1_455
B1 O7 1.376729 1_555
B1 O2 1.382263 1_555
B1 O1 1.390591 1_555
B2 O13 1.383527 1_555
B2 O14 1.398289 1_555
B2 O5 1.402524 1_555
B3 O23 1.372213 1_455
B3 O15 1.397867 1_555
B3 O12 1.401628 1_555
B4 O10 1.376849 1_555
B4 O9 1.384759 1_555
B4 O18 1.416482 1_555
B5 O0 1.367472 1_655
B5 O11 1.379447 1_555
B5 O8 1.395677 1_555
B6 O3 1.386119 1_655
B6 O17 1.400792 1_555
B6 O4 1.406731 1_655
B7 O16 1.329427 1_555
B7 O22 1.415283 1_555
B7 O21 1.429502 1_555
