# generated using pymatgen
data_NaCuO2
_symmetry_space_group_name_H-M   'P 1'
_cell_length_a   5.52013400
_cell_length_b   5.56297219
_cell_length_c   7.15521914
_cell_angle_alpha   99.11235679
_cell_angle_beta   88.08035912
_cell_angle_gamma   104.58758160
_symmetry_Int_Tables_number   1
_chemical_formula_structural   NaCuO2
_chemical_formula_sum   'Na4 Cu4 O8'
_cell_volume   209.95358095
_cell_formula_units_Z   4
loop_
 _symmetry_equiv_pos_site_id
 _symmetry_equiv_pos_as_xyz
  1  'x, y, z'
loop_
 _atom_site_type_symbol
 _atom_site_label
 _atom_site_symmetry_multiplicity
 _atom_site_fract_x
 _atom_site_fract_y
 _atom_site_fract_z
 _atom_site_occupancy
  Na  Na0  1  0.00000000  0.50000000  0.50000000  1
  Na  Na1  1  0.22721900  0.39683200  0.06611100  1
  Na  Na2  1  0.50000000  0.50000000  0.50000000  1
  Na  Na3  1  0.77278100  0.60316800  0.93388900  1
  Cu  Cu0  1  0.38407300  0.95053600  0.27558600  1
  Cu  Cu1  1  0.88234800  0.94945800  0.28261400  1
  Cu  Cu2  1  0.11765200  0.05054200  0.71738600  1
  Cu  Cu3  1  0.61592700  0.04946400  0.72441400  1
  O  O0  1  0.07638300  0.72140600  0.22076000  1
  O  O1  1  0.31101800  0.82227500  0.66887400  1
  O  O2  1  0.57695500  0.71866700  0.22373600  1
  O  O3  1  0.81088500  0.81808900  0.67608800  1
  O  O4  1  0.18911500  0.18191100  0.32391200  1
  O  O5  1  0.42304500  0.28133300  0.77626400  1
  O  O6  1  0.68898200  0.17772500  0.33112600  1
  O  O7  1  0.92361700  0.27859400  0.77924000  1
loop_
_geom_bond_atom_site_label_1
_geom_bond_atom_site_label_2
_geom_bond_distance
_geom_bond_site_symmetry_2
Na0 O1 2.350363 1_555
Na0 O6 2.350363 1_455
Na0 O4 2.438174 1_555
Na0 O3 2.438174 1_455
Na0 O0 2.479586 1_555
Na0 O7 2.479586 1_455
Na1 O0 2.289242 1_555
Na1 O4 2.328565 1_555
Na1 O5 2.379095 1_554
Na1 O2 2.443319 1_555
Na1 O7 2.588858 1_454
Na2 O3 2.360676 1_555
Na2 O4 2.360676 1_555
Na2 O6 2.435976 1_555
Na2 O1 2.435976 1_555
Na2 O5 2.452084 1_555
Na2 O2 2.452084 1_555
Na3 O7 2.289242 1_555
Na3 O3 2.328565 1_555
Na3 O2 2.379095 1_556
Na3 O5 2.443319 1_555
Na3 O0 2.588858 1_656
Cu0 O6 1.844557 1_565
Cu0 O2 1.857108 1_555
Cu0 O0 1.859892 1_555
Cu0 O4 1.861806 1_565
Cu1 O6 1.841377 1_565
Cu1 O0 1.851343 1_655
Cu1 O4 1.853793 1_665
Cu1 O2 1.858444 1_555
Cu2 O1 1.841377 1_545
Cu2 O7 1.851343 1_455
Cu2 O3 1.853793 1_445
Cu2 O5 1.858444 1_555
Cu3 O1 1.844557 1_545
Cu3 O5 1.857108 1_555
Cu3 O7 1.859892 1_555
Cu3 O3 1.861806 1_545
