# generated using pymatgen
data_Sn2OF2
_symmetry_space_group_name_H-M   'P 1'
_cell_length_a   8.04110200
_cell_length_b   8.04110200
_cell_length_c   5.64574000
_cell_angle_alpha   90.00000000
_cell_angle_beta   90.00000000
_cell_angle_gamma   90.00000000
_symmetry_Int_Tables_number   1
_chemical_formula_structural   Sn2OF2
_chemical_formula_sum   'Sn8 O4 F8'
_cell_volume   365.04971706
_cell_formula_units_Z   4
loop_
 _symmetry_equiv_pos_site_id
 _symmetry_equiv_pos_as_xyz
  1  'x, y, z'
loop_
 _atom_site_type_symbol
 _atom_site_label
 _atom_site_symmetry_multiplicity
 _atom_site_fract_x
 _atom_site_fract_y
 _atom_site_fract_z
 _atom_site_occupancy
  Sn  Sn0  1  0.00000000  0.27486600  0.30908400  1
  Sn  Sn1  1  0.77486600  0.50000000  0.80908400  1
  Sn  Sn2  1  0.22513400  0.50000000  0.80908400  1
  Sn  Sn3  1  0.00000000  0.72513400  0.30908400  1
  Sn  Sn4  1  0.50000000  0.77486600  0.19091600  1
  Sn  Sn5  1  0.27486600  0.00000000  0.69091600  1
  Sn  Sn6  1  0.72513400  0.00000000  0.69091600  1
  Sn  Sn7  1  0.50000000  0.22513400  0.19091600  1
  O  O0  1  0.00000000  0.50000000  0.10173600  1
  O  O1  1  0.00000000  0.50000000  0.60173600  1
  O  O2  1  0.50000000  0.00000000  0.89826400  1
  O  O3  1  0.50000000  0.00000000  0.39826400  1
  F  F0  1  0.29595900  0.29595900  0.50000000  1
  F  F1  1  0.70404100  0.29595900  0.50000000  1
  F  F2  1  0.29595900  0.70404100  0.50000000  1
  F  F3  1  0.70404100  0.70404100  0.50000000  1
  F  F4  1  0.79595900  0.79595900  0.00000000  1
  F  F5  1  0.20404100  0.79595900  0.00000000  1
  F  F6  1  0.79595900  0.20404100  0.00000000  1
  F  F7  1  0.20404100  0.20404100  0.00000000  1
loop_
_geom_bond_atom_site_label_1
_geom_bond_atom_site_label_2
_geom_bond_distance
_geom_bond_site_symmetry_2
O0 Sn3 2.155843 1_555
O0 Sn0 2.155843 1_555
O0 Sn1 2.450952 1_454
O0 Sn2 2.450952 1_554
O1 Sn1 2.155843 1_455
O1 Sn2 2.155843 1_555
O1 Sn3 2.450952 1_555
O1 Sn0 2.450952 1_555
O2 Sn6 2.155843 1_555
O2 Sn5 2.155843 1_555
O2 Sn4 2.450952 1_546
O2 Sn7 2.450952 1_556
O3 Sn7 2.155843 1_555
O3 Sn4 2.155843 1_545
O3 Sn6 2.450952 1_555
O3 Sn5 2.450952 1_555
F0 Sn2 2.461979 1_555
F0 Sn7 2.461979 1_555
F0 Sn5 2.618048 1_555
F0 Sn0 2.618048 1_555
F1 Sn7 2.461979 1_555
F1 Sn1 2.461979 1_555
F1 Sn0 2.618048 1_655
F1 Sn6 2.618048 1_555
F2 Sn2 2.461979 1_555
F2 Sn4 2.461979 1_555
F2 Sn5 2.618048 1_565
F2 Sn3 2.618048 1_555
F3 Sn4 2.461979 1_555
F3 Sn1 2.461979 1_555
F3 Sn6 2.618048 1_565
F3 Sn3 2.618048 1_655
F4 Sn3 2.461979 1_655
F4 Sn6 2.461979 1_564
F4 Sn1 2.618048 1_554
F4 Sn4 2.618048 1_555
F5 Sn5 2.461979 1_564
F5 Sn3 2.461979 1_555
F5 Sn4 2.618048 1_555
F5 Sn2 2.618048 1_554
F6 Sn0 2.461979 1_655
F6 Sn6 2.461979 1_554
F6 Sn1 2.618048 1_554
F6 Sn7 2.618048 1_555
F7 Sn0 2.461979 1_555
F7 Sn5 2.461979 1_554
F7 Sn7 2.618048 1_555
F7 Sn2 2.618048 1_554
