# generated using pymatgen
data_LiFePO4
_symmetry_space_group_name_H-M   'P 1'
_cell_length_a   10.65159487
_cell_length_b   10.65159487
_cell_length_c   12.70458500
_cell_angle_alpha   90.00000000
_cell_angle_beta   90.00000000
_cell_angle_gamma   120.00000541
_symmetry_Int_Tables_number   1
_chemical_formula_structural   LiFePO4
_chemical_formula_sum   'Li12 Fe12 P12 O48'
_cell_volume   1248.30402534
_cell_formula_units_Z   12
loop_
 _symmetry_equiv_pos_site_id
 _symmetry_equiv_pos_as_xyz
  1  'x, y, z'
loop_
 _atom_site_type_symbol
 _atom_site_label
 _atom_site_symmetry_multiplicity
 _atom_site_fract_x
 _atom_site_fract_y
 _atom_site_fract_z
 _atom_site_occupancy
  Li  Li0  1  0.00000000  0.50000000  0.00749100  1
  Li  Li1  1  0.00000000  0.50000000  0.65917600  1
  Li  Li2  1  0.00000000  0.50000000  0.33333300  1
  Li  Li3  1  0.00000000  0.00000000  0.16666700  1
  Li  Li4  1  0.00000000  0.00000000  0.50000000  1
  Li  Li5  1  0.00000000  0.00000000  0.83333300  1
  Li  Li6  1  0.50000000  0.50000000  0.34082400  1
  Li  Li7  1  0.50000000  0.50000000  0.66666700  1
  Li  Li8  1  0.50000000  0.50000000  0.99250900  1
  Li  Li9  1  0.50000000  0.00000000  0.32584200  1
  Li  Li10  1  0.50000000  0.00000000  0.00000000  1
  Li  Li11  1  0.50000000  0.00000000  0.67415800  1
  Fe  Fe0  1  0.00000000  0.74738800  0.83333300  1
  Fe  Fe1  1  0.00000000  0.25261200  0.83333300  1
  Fe  Fe2  1  0.24781200  0.75218800  0.16666700  1
  Fe  Fe3  1  0.24781200  0.49562400  0.50000000  1
  Fe  Fe4  1  0.50437600  0.75218800  0.83333300  1
  Fe  Fe5  1  0.25261200  0.25261200  0.16666700  1
  Fe  Fe6  1  0.25261200  0.00000000  0.50000000  1
  Fe  Fe7  1  0.74738800  0.74738800  0.16666700  1
  Fe  Fe8  1  0.49562400  0.24781200  0.83333300  1
  Fe  Fe9  1  0.75218800  0.50437600  0.50000000  1
  Fe  Fe10  1  0.75218800  0.24781200  0.16666700  1
  Fe  Fe11  1  0.74738800  0.00000000  0.50000000  1
  P  P0  1  0.00000000  0.75682300  0.33333300  1
  P  P1  1  0.24785400  0.75214600  0.66666700  1
  P  P2  1  0.00000000  0.24317700  0.33333300  1
  P  P3  1  0.24785400  0.49570700  0.00000000  1
  P  P4  1  0.24317700  0.24317700  0.66666700  1
  P  P5  1  0.50429300  0.75214600  0.33333300  1
  P  P6  1  0.24317700  0.00000000  0.00000000  1
  P  P7  1  0.49570700  0.24785400  0.33333300  1
  P  P8  1  0.75682300  0.75682300  0.66666700  1
  P  P9  1  0.75214600  0.50429300  0.00000000  1
  P  P10  1  0.75214600  0.24785400  0.66666700  1
  P  P11  1  0.75682300  0.00000000  0.00000000  1
  O  O0  1  0.06560000  0.87614700  0.41951500  1
  O  O1  1  0.12385300  0.93440000  0.91381800  1
  O  O2  1  0.10443000  0.69981000  0.72854500  1
  O  O3  1  0.11137300  0.71914700  0.28404900  1
  O  O4  1  0.28085300  0.88862700  0.04928400  1
  O  O5  1  0.30019000  0.89557000  0.60478900  1
  O  O6  1  0.20452100  0.62088600  0.59289100  1
  O  O7  1  0.10443000  0.40462100  0.93812200  1
  O  O8  1  0.20452100  0.58363500  0.07377600  1
  O  O9  1  0.11137300  0.39222600  0.38261700  1
  O  O10  1  0.06560000  0.18945300  0.24715200  1
  O  O11  1  0.37911400  0.79547900  0.74044200  1
  O  O12  1  0.41636500  0.79547900  0.25955800  1
  O  O13  1  0.12385300  0.18945300  0.75284800  1
  O  O14  1  0.28085300  0.39222600  0.61738300  1
  O  O15  1  0.37911400  0.58363500  0.92622400  1
  O  O16  1  0.30019000  0.40462100  0.06187800  1
  O  O17  1  0.41636500  0.62088600  0.40710900  1
  O  O18  1  0.18945300  0.12385300  0.58048500  1
  O  O19  1  0.18945300  0.06560000  0.08618200  1
  O  O20  1  0.59537900  0.89557000  0.39521100  1
  O  O21  1  0.60777400  0.88862700  0.95071600  1
  O  O22  1  0.60777400  0.71914700  0.71595100  1
  O  O23  1  0.40462100  0.30019000  0.27145500  1
  O  O24  1  0.59537900  0.69981000  0.27145500  1
  O  O25  1  0.39222600  0.28085300  0.71595100  1
  O  O26  1  0.39222600  0.11137300  0.95071600  1
  O  O27  1  0.40462100  0.10443000  0.39521100  1
  O  O28  1  0.81054700  0.93440000  0.08618200  1
  O  O29  1  0.81054700  0.87614700  0.58048500  1
  O  O30  1  0.58363500  0.37911400  0.40710900  1
  O  O31  1  0.69981000  0.59537900  0.06187800  1
  O  O32  1  0.62088600  0.41636500  0.92622400  1
  O  O33  1  0.71914700  0.60777400  0.61738300  1
  O  O34  1  0.87614700  0.81054700  0.75284800  1
  O  O35  1  0.58363500  0.20452100  0.25955800  1
  O  O36  1  0.62088600  0.20452100  0.74044200  1
  O  O37  1  0.93440000  0.81054700  0.24715200  1
  O  O38  1  0.88862700  0.60777400  0.38261700  1
  O  O39  1  0.79547900  0.41636500  0.07377600  1
  O  O40  1  0.89557000  0.59537900  0.93812200  1
  O  O41  1  0.79547900  0.37911400  0.59289100  1
  O  O42  1  0.69981000  0.10443000  0.60478900  1
  O  O43  1  0.71914700  0.11137300  0.04928400  1
  O  O44  1  0.88862700  0.28085300  0.28404900  1
  O  O45  1  0.89557000  0.30019000  0.72854500  1
  O  O46  1  0.87614700  0.06560000  0.91381800  1
  O  O47  1  0.93440000  0.12385300  0.41951500  1
loop_
_geom_bond_atom_site_label_1
_geom_bond_atom_site_label_2
_geom_bond_distance
_geom_bond_site_symmetry_2
Li0 O40 2.043580 1_454
Li0 O7 2.043580 1_554
Li0 O8 2.075535 1_555
Li0 O39 2.075535 1_455
Li1 O45 2.043588 1_455
Li1 O2 2.043588 1_555
Li1 O6 2.075535 1_555
Li1 O41 2.075535 1_455
Li2 O3 2.116366 1_555
Li2 O44 2.116366 1_455
Li2 O38 2.116366 1_455
Li2 O9 2.116366 1_555
Li3 O19 2.048411 1_555
Li3 O10 2.048411 1_555
Li3 O28 2.048411 1_445
Li3 O37 2.048411 1_445
Li4 O18 2.048411 1_555
Li4 O29 2.048411 1_445
Li4 O47 2.048411 1_455
Li4 O0 2.048411 1_545
Li5 O13 2.048411 1_555
Li5 O34 2.048411 1_445
Li5 O1 2.048411 1_545
Li5 O46 2.048411 1_455
Li6 O23 2.043588 1_555
Li6 O24 2.043588 1_555
Li6 O17 2.075535 1_555
Li6 O30 2.075535 1_555
Li7 O22 2.116366 1_555
Li7 O33 2.116366 1_555
Li7 O25 2.116366 1_555
Li7 O14 2.116366 1_555
Li8 O16 2.043588 1_556
Li8 O31 2.043588 1_556
Li8 O32 2.075535 1_555
Li8 O15 2.075535 1_555
Li9 O20 2.043580 1_545
Li9 O27 2.043580 1_555
Li9 O35 2.075530 1_555
Li9 O12 2.075530 1_545
Li10 O43 2.116366 1_555
Li10 O4 2.116366 1_545
Li10 O21 2.116366 1_544
Li10 O26 2.116366 1_554
Li11 O5 2.043588 1_545
Li11 O42 2.043588 1_555
Li11 O36 2.075530 1_555
Li11 O11 2.075530 1_545
Fe0 O2 1.957086 1_555
Fe0 O40 1.957100 1_455
Fe0 O1 2.031262 1_555
Fe0 O34 2.031263 1_455
Fe1 O45 1.957086 1_455
Fe1 O7 1.957100 1_555
Fe1 O46 2.031262 1_455
Fe1 O13 2.031263 1_555
Fe2 O3 1.987057 1_555
Fe2 O4 1.987066 1_555
Fe2 O8 2.000201 1_555
Fe2 O12 2.000201 1_555
Fe3 O9 1.987066 1_555
Fe3 O14 1.987067 1_555
Fe3 O17 2.000201 1_555
Fe3 O6 2.000201 1_555
Fe4 O22 1.987057 1_555
Fe4 O21 1.987066 1_555
Fe4 O15 2.000201 1_555
Fe4 O11 2.000201 1_555
Fe5 O23 1.957093 1_555
Fe5 O16 1.957102 1_555
Fe5 O19 2.031263 1_555
Fe5 O10 2.031263 1_555
Fe6 O5 1.957095 1_545
Fe6 O27 1.957100 1_555
Fe6 O0 2.031262 1_545
Fe6 O18 2.031263 1_555
Fe7 O24 1.957093 1_555
Fe7 O31 1.957102 1_555
Fe7 O28 2.031263 1_555
Fe7 O37 2.031263 1_555
Fe8 O25 1.987057 1_555
Fe8 O26 1.987066 1_555
Fe8 O32 2.000201 1_555
Fe8 O36 2.000201 1_555
Fe9 O38 1.987066 1_555
Fe9 O33 1.987067 1_555
Fe9 O30 2.000201 1_555
Fe9 O41 2.000201 1_555
Fe10 O44 1.987057 1_555
Fe10 O43 1.987066 1_555
Fe10 O39 2.000201 1_555
Fe10 O35 2.000201 1_555
Fe11 O42 1.957095 1_555
Fe11 O20 1.957100 1_545
Fe11 O47 2.031262 1_555
Fe11 O29 2.031263 1_545
O0 P0 1.553829 1_555
O1 P6 1.553829 1_566
O2 P1 1.552736 1_555
O3 P0 1.560921 1_555
O4 P6 1.560921 1_565
O5 P1 1.552736 1_555
O6 P1 1.549515 1_555
O7 P3 1.552733 1_556
O8 P3 1.549523 1_555
O9 P2 1.560920 1_555
O10 P2 1.553820 1_555
O11 P1 1.549507 1_555
O12 P5 1.549515 1_555
O13 P4 1.553820 1_555
O14 P4 1.560920 1_555
O15 P3 1.549517 1_556
O16 P3 1.552719 1_555
O17 P5 1.549517 1_555
O18 P4 1.553829 1_555
O19 P6 1.553829 1_555
O20 P5 1.552733 1_555
O21 P11 1.560920 1_566
O22 P8 1.560920 1_555
O23 P7 1.552719 1_555
O24 P5 1.552719 1_555
O25 P4 1.560920 1_555
O26 P6 1.560920 1_556
O27 P7 1.552733 1_555
O28 P11 1.553829 1_565
O29 P8 1.553829 1_555
O30 P7 1.549517 1_555
O31 P9 1.552719 1_555
O32 P9 1.549517 1_556
O33 P8 1.560920 1_555
O34 P8 1.553820 1_555
O35 P7 1.549515 1_555
O36 P10 1.549507 1_555
O37 P0 1.553820 1_655
O38 P0 1.560920 1_655
O39 P9 1.549523 1_555
O40 P9 1.552733 1_556
O41 P10 1.549515 1_555
O42 P10 1.552736 1_555
O43 P11 1.560921 1_555
O44 P2 1.560921 1_655
O45 P10 1.552736 1_555
O46 P11 1.553829 1_556
O47 P2 1.553829 1_655
