# generated using pymatgen
data_Li3Mn3SbO8
_symmetry_space_group_name_H-M   'P 1'
_cell_length_a   6.11950214
_cell_length_b   6.11950214
_cell_length_c   6.11950171
_cell_angle_alpha   60.86162844
_cell_angle_beta   60.86162844
_cell_angle_gamma   60.86163068
_symmetry_Int_Tables_number   1
_chemical_formula_structural   Li3Mn3SbO8
_chemical_formula_sum   'Li3 Mn3 Sb1 O8'
_cell_volume   165.19200691
_cell_formula_units_Z   1
loop_
 _symmetry_equiv_pos_site_id
 _symmetry_equiv_pos_as_xyz
  1  'x, y, z'
loop_
 _atom_site_type_symbol
 _atom_site_label
 _atom_site_symmetry_multiplicity
 _atom_site_fract_x
 _atom_site_fract_y
 _atom_site_fract_z
 _atom_site_occupancy
  Li  Li0  1  0.00000000  0.00000000  0.50000000  1
  Li  Li1  1  0.50000000  0.00000000  0.00000000  1
  Li  Li2  1  0.00000000  0.50000000  0.00000000  1
  Mn  Mn0  1  0.50000000  0.50000000  0.00000000  1
  Mn  Mn1  1  0.00000000  0.50000000  0.50000000  1
  Mn  Mn2  1  0.50000000  0.00000000  0.50000000  1
  Sb  Sb0  1  0.00000000  0.00000000  0.00000000  1
  O  O0  1  0.27028600  0.27028600  0.27028600  1
  O  O1  1  0.76950400  0.76950400  0.22946200  1
  O  O2  1  0.22946200  0.76950400  0.76950400  1
  O  O3  1  0.72971400  0.72971400  0.72971400  1
  O  O4  1  0.76950400  0.22946200  0.76950400  1
  O  O5  1  0.23049600  0.23049600  0.77053800  1
  O  O6  1  0.77053800  0.23049600  0.23049600  1
  O  O7  1  0.23049600  0.77053800  0.23049600  1
loop_
_geom_bond_atom_site_label_1
_geom_bond_atom_site_label_2
_geom_bond_distance
_geom_bond_site_symmetry_2
Li0 O4 2.177681 1_455
Li0 O2 2.177681 1_545
Li0 O6 2.177681 1_455
Li0 O7 2.177681 1_545
Li0 O3 2.362892 1_445
Li0 O0 2.362892 1_555
Li1 O1 2.177681 1_545
Li1 O5 2.177681 1_554
Li1 O4 2.177681 1_554
Li1 O7 2.177681 1_545
Li1 O3 2.362892 1_544
Li1 O0 2.362892 1_555
Li2 O1 2.177681 1_455
Li2 O5 2.177681 1_554
Li2 O2 2.177681 1_554
Li2 O6 2.177681 1_455
Li2 O3 2.362892 1_454
Li2 O0 2.362892 1_555
Mn0 O3 2.020836 1_554
Mn0 O0 2.020836 1_555
Mn0 O7 2.190918 1_555
Mn0 O2 2.190918 1_554
Mn0 O6 2.190918 1_555
Mn0 O4 2.190918 1_554
Mn1 O3 2.020836 1_455
Mn1 O0 2.020836 1_555
Mn1 O5 2.190918 1_555
Mn1 O1 2.190918 1_455
Mn1 O7 2.190918 1_555
Mn1 O4 2.190918 1_455
Mn2 O0 2.020836 1_555
Mn2 O3 2.020836 1_545
Mn2 O5 2.190918 1_555
Mn2 O1 2.190918 1_545
Mn2 O6 2.190918 1_555
Mn2 O2 2.190918 1_545
O1 Sb0 2.007674 1_665
O2 Sb0 2.007674 1_566
O4 Sb0 2.007674 1_656
O5 Sb0 2.007674 1_556
O6 Sb0 2.007674 1_655
O7 Sb0 2.007674 1_565
