# generated using pymatgen
data_HfP2O7
_symmetry_space_group_name_H-M   'P 1'
_cell_length_a   12.87279418
_cell_length_b   5.34922268
_cell_length_c   10.06311855
_cell_angle_alpha   57.90090887
_cell_angle_beta   90.00000000
_cell_angle_gamma   90.00000000
_symmetry_Int_Tables_number   1
_chemical_formula_structural   HfP2O7
_chemical_formula_sum   'Hf4 P8 O28'
_cell_volume   587.01112684
_cell_formula_units_Z   4
loop_
 _symmetry_equiv_pos_site_id
 _symmetry_equiv_pos_as_xyz
  1  'x, y, z'
loop_
 _atom_site_type_symbol
 _atom_site_label
 _atom_site_symmetry_multiplicity
 _atom_site_fract_x
 _atom_site_fract_y
 _atom_site_fract_z
 _atom_site_occupancy
  Hf  Hf0  1  0.14822797  0.59927296  0.65887182  1
  Hf  Hf1  1  0.64822797  0.40072704  0.84112818  1
  Hf  Hf2  1  0.35177203  0.59927296  0.15887182  1
  Hf  Hf3  1  0.85177203  0.40072704  0.34112818  1
  P  P0  1  0.52666650  0.07036841  0.19578097  1
  P  P1  1  0.19046239  0.18457025  0.06700831  1
  P  P2  1  0.69046239  0.81542975  0.43299169  1
  P  P3  1  0.02666650  0.92963159  0.30421903  1
  P  P4  1  0.97333350  0.07036841  0.69578097  1
  P  P5  1  0.30953761  0.18457025  0.56700831  1
  P  P6  1  0.80953761  0.81542975  0.93299169  1
  P  P7  1  0.47333350  0.92963159  0.80421903  1
  O  O0  1  0.26769522  0.88523162  0.61370949  1
  O  O1  1  0.25331098  0.32766603  0.13538158  1
  O  O2  1  0.95101048  0.12223366  0.32410233  1
  O  O3  1  0.52726293  0.68276268  0.80079932  1
  O  O4  1  0.17726096  0.38423975  0.89246883  1
  O  O5  1  0.61408780  0.18133530  0.07765215  1
  O  O6  1  0.07599696  0.13844435  0.13496739  1
  O  O7  1  0.57599696  0.86155565  0.36503261  1
  O  O8  1  0.11408780  0.81866470  0.42234785  1
  O  O9  1  0.67726096  0.61576025  0.60753117  1
  O  O10  1  0.45101048  0.87776634  0.17589767  1
  O  O11  1  0.02726293  0.31723732  0.69920068  1
  O  O12  1  0.75331098  0.67233397  0.36461842  1
  O  O13  1  0.76769522  0.11476838  0.88629051  1
  O  O14  1  0.23230478  0.88523162  0.11370949  1
  O  O15  1  0.24668902  0.32766603  0.63538158  1
  O  O16  1  0.97273707  0.68276268  0.30079932  1
  O  O17  1  0.54898952  0.12223366  0.82410233  1
  O  O18  1  0.32273904  0.38423975  0.39246883  1
  O  O19  1  0.88591220  0.18133530  0.57765215  1
  O  O20  1  0.42400304  0.13844435  0.63496739  1
  O  O21  1  0.92400304  0.86155565  0.86503261  1
  O  O22  1  0.38591220  0.81866470  0.92234785  1
  O  O23  1  0.82273904  0.61576025  0.10753117  1
  O  O24  1  0.47273707  0.31723732  0.19920068  1
  O  O25  1  0.04898952  0.87776634  0.67589767  1
  O  O26  1  0.74668902  0.67233397  0.86461842  1
  O  O27  1  0.73230478  0.11476838  0.38629051  1
loop_
_geom_bond_atom_site_label_1
_geom_bond_atom_site_label_2
_geom_bond_distance
_geom_bond_site_symmetry_2
Hf0 O4 2.028540 1_555
Hf0 O15 2.034264 1_555
Hf0 O25 2.037605 1_555
Hf0 O0 2.042703 1_555
Hf0 O11 2.053005 1_555
Hf0 O8 2.065667 1_555
Hf1 O9 2.028540 1_555
Hf1 O26 2.034264 1_555
Hf1 O17 2.037605 1_555
Hf1 O13 2.042703 1_555
Hf1 O3 2.053005 1_555
Hf1 O5 2.065667 1_556
Hf2 O18 2.028540 1_555
Hf2 O1 2.034264 1_555
Hf2 O10 2.037605 1_555
Hf2 O14 2.042703 1_555
Hf2 O24 2.053005 1_555
Hf2 O22 2.065667 1_554
Hf3 O23 2.028540 1_555
Hf3 O12 2.034264 1_555
Hf3 O2 2.037605 1_555
Hf3 O27 2.042703 1_555
Hf3 O16 2.053005 1_555
Hf3 O19 2.065667 1_555
O0 P5 1.508366 1_565
O1 P1 1.507844 1_555
O2 P3 1.506343 1_645
O3 P7 1.508408 1_555
O4 P1 1.503632 1_556
O5 P0 1.510619 1_555
O6 P1 1.587581 1_555
O6 P3 1.590575 1_545
O7 P2 1.587581 1_555
O7 P0 1.590575 1_565
O8 P3 1.510619 1_555
O9 P2 1.503632 1_555
O10 P0 1.506343 1_565
O11 P4 1.508408 1_455
O12 P2 1.507844 1_555
O13 P6 1.508366 1_545
O14 P1 1.508366 1_565
O15 P5 1.507844 1_555
O16 P3 1.508408 1_655
O17 P7 1.506343 1_545
O18 P5 1.503632 1_555
O19 P4 1.510619 1_555
O20 P5 1.587581 1_555
O20 P7 1.590575 1_545
O21 P6 1.587581 1_555
O21 P4 1.590575 1_565
O22 P7 1.510619 1_555
O23 P6 1.503632 1_554
O24 P0 1.508408 1_555
O25 P4 1.506343 1_465
O26 P6 1.507844 1_555
O27 P2 1.508366 1_545
