# generated using pymatgen
data_Li5Cr17(SiO16)2
_symmetry_space_group_name_H-M   'P 1'
_cell_length_a   8.34248752
_cell_length_b   8.34248752
_cell_length_c   8.44506201
_cell_angle_alpha   89.82885562
_cell_angle_beta   89.82885562
_cell_angle_gamma   88.95989623
_symmetry_Int_Tables_number   1
_chemical_formula_structural   Li5Cr17(SiO16)2
_chemical_formula_sum   'Li5 Cr17 Si2 O32'
_cell_volume   587.64981663
_cell_formula_units_Z   1
loop_
 _symmetry_equiv_pos_site_id
 _symmetry_equiv_pos_as_xyz
  1  'x, y, z'
loop_
 _atom_site_type_symbol
 _atom_site_label
 _atom_site_symmetry_multiplicity
 _atom_site_fract_x
 _atom_site_fract_y
 _atom_site_fract_z
 _atom_site_occupancy
  Li  Li0  1  0.49792800  0.49792800  0.00356400  1
  Li  Li1  1  0.74590500  0.25303600  0.75223400  1
  Li  Li2  1  0.25303600  0.74590500  0.75223400  1
  Li  Li3  1  0.25428900  0.25428900  0.24531600  1
  Li  Li4  1  0.74642300  0.74642300  0.24417300  1
  Cr  Cr0  1  0.38263600  0.12304400  0.87507100  1
  Cr  Cr1  1  0.12304400  0.38263600  0.87507100  1
  Cr  Cr2  1  0.62192100  0.62192100  0.63124300  1
  Cr  Cr3  1  0.87673400  0.87673400  0.63019000  1
  Cr  Cr4  1  0.37783900  0.37783900  0.62367000  1
  Cr  Cr5  1  0.12233600  0.12233600  0.62180000  1
  Cr  Cr6  1  0.99590700  0.50184400  0.50044300  1
  Cr  Cr7  1  0.50184400  0.99590700  0.50044300  1
  Cr  Cr8  1  0.37780500  0.62317900  0.37460000  1
  Cr  Cr9  1  0.12260500  0.87694500  0.37795700  1
  Cr  Cr10  1  0.62317900  0.37780500  0.37460000  1
  Cr  Cr11  1  0.87694500  0.12260500  0.37795700  1
  Cr  Cr12  1  0.38065700  0.87259500  0.11970800  1
  Cr  Cr13  1  0.12208500  0.62463600  0.11902200  1
  Cr  Cr14  1  0.62463600  0.12208500  0.11902200  1
  Cr  Cr15  1  0.87259500  0.38065700  0.11970800  1
  Cr  Cr16  1  0.00113800  0.00113800  0.99749700  1
  Si  Si0  1  0.62264600  0.86988900  0.88323600  1
  Si  Si1  1  0.86988900  0.62264600  0.88323600  1
  O  O0  1  0.40900000  0.87644300  0.88231200  1
  O  O1  1  0.87644300  0.40900000  0.88231200  1
  O  O2  1  0.08886400  0.62426500  0.88161800  1
  O  O3  1  0.36072600  0.36072600  0.85970500  1
  O  O4  1  0.62426500  0.08886400  0.88161800  1
  O  O5  1  0.85154600  0.85154600  0.87445700  1
  O  O6  1  0.65079200  0.65079200  0.87264100  1
  O  O7  1  0.13581600  0.13581600  0.86808000  1
  O  O8  1  0.63251500  0.86946000  0.66347300  1
  O  O9  1  0.12917300  0.36792900  0.63301700  1
  O  O10  1  0.36792900  0.12917300  0.63301700  1
  O  O11  1  0.11397400  0.88507500  0.61453900  1
  O  O12  1  0.86946000  0.63251500  0.66347300  1
  O  O13  1  0.61470500  0.38639500  0.61325100  1
  O  O14  1  0.38639500  0.61470500  0.61325100  1
  O  O15  1  0.88507500  0.11397400  0.61453900  1
  O  O16  1  0.61667200  0.61667200  0.39364600  1
  O  O17  1  0.11333300  0.11333300  0.38804300  1
  O  O18  1  0.88373200  0.88373200  0.39351000  1
  O  O19  1  0.63126600  0.12823500  0.36089700  1
  O  O20  1  0.38739800  0.38739800  0.38728800  1
  O  O21  1  0.12823500  0.63126600  0.36089700  1
  O  O22  1  0.36823000  0.87228200  0.36042600  1
  O  O23  1  0.87228200  0.36823000  0.36042600  1
  O  O24  1  0.35953700  0.63694600  0.13816100  1
  O  O25  1  0.87176300  0.13337600  0.13237100  1
  O  O26  1  0.63694600  0.35953700  0.13816100  1
  O  O27  1  0.87861900  0.61994600  0.09417000  1
  O  O28  1  0.13337600  0.87176300  0.13237100  1
  O  O29  1  0.39072100  0.11097700  0.10781900  1
  O  O30  1  0.61994600  0.87861900  0.09417000  1
  O  O31  1  0.11097700  0.39072100  0.10781900  1
loop_
_geom_bond_atom_site_label_1
_geom_bond_atom_site_label_2
_geom_bond_distance
_geom_bond_site_symmetry_2
Li0 O24 1.980260 1_555
Li0 O26 1.980260 1_555
Li0 O3 2.039706 1_554
Li0 O6 2.125387 1_554
Li1 O13 1.941403 1_555
Li1 O15 1.999290 1_555
Li1 O4 2.033318 1_555
Li1 O1 2.037829 1_555
Li2 O14 1.941403 1_555
Li2 O11 1.999290 1_555
Li2 O2 2.033318 1_555
Li2 O0 2.037829 1_555
Li3 O20 1.991088 1_555
Li3 O31 2.006036 1_555
Li3 O29 2.006036 1_555
Li3 O17 2.061965 1_555
Li4 O27 1.972741 1_555
Li4 O30 1.972741 1_555
Li4 O16 1.990732 1_555
Li4 O18 2.068758 1_555
Cr0 O29 1.969141 1_556
Cr0 O3 1.991840 1_555
Cr0 O4 2.031617 1_555
Cr0 O10 2.048636 1_555
Cr0 O7 2.060928 1_555
Cr0 O0 2.065758 1_545
Cr1 O31 1.969141 1_556
Cr1 O3 1.991840 1_555
Cr1 O2 2.031617 1_555
Cr1 O9 2.048636 1_555
Cr1 O7 2.060928 1_555
Cr1 O1 2.065758 1_455
Cr2 O14 1.973213 1_555
Cr2 O13 1.973213 1_555
Cr2 O16 2.007756 1_555
Cr2 O6 2.068809 1_555
Cr2 O8 2.087253 1_555
Cr2 O12 2.087253 1_555
Cr3 O11 1.985652 1_655
Cr3 O15 1.985652 1_565
Cr3 O18 2.000164 1_555
Cr3 O8 2.057821 1_555
Cr3 O12 2.057821 1_555
Cr3 O5 2.083287 1_555
Cr4 O14 1.980319 1_555
Cr4 O13 1.980319 1_555
Cr4 O20 1.999026 1_555
Cr4 O3 2.002865 1_555
Cr4 O9 2.078893 1_555
Cr4 O10 2.078893 1_555
Cr5 O17 1.977448 1_555
Cr5 O11 1.982979 1_545
Cr5 O15 1.982979 1_455
Cr5 O9 2.053162 1_555
Cr5 O10 2.053162 1_555
Cr5 O7 2.086701 1_555
Cr6 O9 1.921588 1_655
Cr6 O23 1.939393 1_555
Cr6 O21 1.949654 1_655
Cr6 O12 2.038445 1_555
Cr7 O10 1.921588 1_565
Cr7 O22 1.939393 1_555
Cr7 O19 1.949654 1_565
Cr7 O8 2.038445 1_555
Cr8 O20 1.969785 1_555
Cr8 O16 1.999446 1_555
Cr8 O24 2.005794 1_555
Cr8 O14 2.017892 1_555
Cr8 O22 2.081325 1_555
Cr8 O21 2.085451 1_555
Cr9 O17 1.974260 1_565
Cr9 O18 1.996515 1_455
Cr9 O11 2.000340 1_555
Cr9 O22 2.053696 1_555
Cr9 O21 2.054737 1_555
Cr9 O28 2.076212 1_555
Cr10 O20 1.969785 1_555
Cr10 O16 1.999446 1_555
Cr10 O26 2.005794 1_555
Cr10 O13 2.017892 1_555
Cr10 O23 2.081325 1_555
Cr10 O19 2.085451 1_555
Cr11 O17 1.974260 1_655
Cr11 O18 1.996515 1_545
Cr11 O15 2.000340 1_555
Cr11 O23 2.053696 1_555
Cr11 O19 2.054737 1_555
Cr11 O25 2.076212 1_555
Cr12 O24 1.982591 1_555
Cr12 O29 1.994210 1_565
Cr12 O30 2.008761 1_555
Cr12 O0 2.018246 1_554
Cr12 O22 2.035207 1_555
Cr12 O28 2.065526 1_555
Cr13 O31 1.957894 1_555
Cr13 O24 1.992534 1_555
Cr13 O2 2.024796 1_554
Cr13 O27 2.043643 1_455
Cr13 O21 2.044386 1_555
Cr13 O28 2.068937 1_555
Cr14 O29 1.957894 1_555
Cr14 O26 1.992534 1_555
Cr14 O4 2.024796 1_554
Cr14 O30 2.043643 1_545
Cr14 O19 2.044386 1_555
Cr14 O25 2.068937 1_555
Cr15 O26 1.982591 1_555
Cr15 O31 1.994210 1_655
Cr15 O27 2.008761 1_555
Cr15 O1 2.018246 1_554
Cr15 O23 2.035207 1_555
Cr15 O25 2.065526 1_555
Cr16 O28 1.906894 1_546
Cr16 O25 1.906894 1_456
Cr16 O7 1.936593 1_555
Cr16 O5 2.065570 1_445
O0 Si0 1.782225 1_555
O1 Si1 1.782225 1_555
O2 Si1 1.827101 1_455
O4 Si0 1.827101 1_545
O5 Si1 1.914179 1_555
O5 Si0 1.914179 1_555
O6 Si0 1.841009 1_555
O6 Si1 1.841009 1_555
O8 Si0 1.857503 1_555
O12 Si1 1.857503 1_555
O27 Si1 1.783115 1_554
O30 Si0 1.783115 1_554
