# generated using pymatgen
data_Li6(NiO2)5
_symmetry_space_group_name_H-M   'P 1'
_cell_length_a   5.17384200
_cell_length_b   5.63596531
_cell_length_c   7.74511408
_cell_angle_alpha   70.79099217
_cell_angle_beta   70.80090629
_cell_angle_gamma   66.90567389
_symmetry_Int_Tables_number   1
_chemical_formula_structural   Li6(NiO2)5
_chemical_formula_sum   'Li6 Ni5 O10'
_cell_volume   190.91913435
_cell_formula_units_Z   1
loop_
 _symmetry_equiv_pos_site_id
 _symmetry_equiv_pos_as_xyz
  1  'x, y, z'
loop_
 _atom_site_type_symbol
 _atom_site_label
 _atom_site_symmetry_multiplicity
 _atom_site_fract_x
 _atom_site_fract_y
 _atom_site_fract_z
 _atom_site_occupancy
  Li  Li0  1  0.16352400  0.10527100  0.95522900  1
  Li  Li1  1  0.72277100  0.07357200  0.74586900  1
  Li  Li2  1  0.71909800  0.92452400  0.40625000  1
  Li  Li3  1  0.27722900  0.92642800  0.25413100  1
  Li  Li4  1  0.28090200  0.07547600  0.59375000  1
  Li  Li5  1  0.83647600  0.89472900  0.04477100  1
  Ni  Ni0  1  0.90283100  0.50417600  0.69731700  1
  Ni  Ni1  1  0.30844000  0.51243300  0.89542700  1
  Ni  Ni2  1  0.09716900  0.49582400  0.30268300  1
  Ni  Ni3  1  0.69156000  0.48756700  0.10457300  1
  Ni  Ni4  1  0.50000000  0.50000000  0.50000000  1
  O  O0  1  0.11477600  0.29281700  0.14176400  1
  O  O1  1  0.74343600  0.26807700  0.92049700  1
  O  O2  1  0.32995800  0.28562800  0.72434300  1
  O  O3  1  0.25656400  0.73192300  0.07950300  1
  O  O4  1  0.91953600  0.29630600  0.54019300  1
  O  O5  1  0.88522400  0.70718300  0.85823600  1
  O  O6  1  0.50445900  0.28594000  0.35230800  1
  O  O7  1  0.49554100  0.71406000  0.64769200  1
  O  O8  1  0.08046400  0.70369400  0.45980700  1
  O  O9  1  0.67004200  0.71437200  0.27565700  1
loop_
_geom_bond_atom_site_label_1
_geom_bond_atom_site_label_2
_geom_bond_distance
_geom_bond_site_symmetry_2
Li0 O2 1.857504 1_555
Li0 O3 1.939879 1_546
Li0 O0 1.955557 1_556
Li0 O1 2.072646 1_455
Li1 O5 1.914387 1_545
Li1 O4 1.941621 1_555
Li1 O2 1.942385 1_555
Li1 O1 2.050639 1_555
Li2 O6 1.878156 1_565
Li2 O8 1.887206 1_655
Li2 O9 1.919184 1_555
Li2 O7 2.106148 1_555
Li3 O0 1.914387 1_565
Li3 O8 1.941621 1_555
Li3 O9 1.942385 1_555
Li3 O3 2.050639 1_555
Li4 O7 1.878156 1_545
Li4 O4 1.887206 1_455
Li4 O2 1.919184 1_555
Li4 O6 2.106148 1_555
Li5 O9 1.857504 1_555
Li5 O1 1.939879 1_564
Li5 O5 1.955557 1_554
Li5 O3 2.072646 1_655
Ni0 O4 1.910626 1_555
Ni0 O5 1.911181 1_555
Ni0 O8 1.957207 1_655
Ni0 O1 1.961734 1_555
Ni0 O7 2.065317 1_555
Ni0 O2 2.108027 1_655
Ni1 O7 2.028928 1_555
Ni1 O3 2.069608 1_556
Ni1 O2 2.075584 1_555
Ni1 O0 2.082731 1_556
Ni1 O5 2.098486 1_455
Ni1 O1 2.163207 1_555
Ni2 O8 1.910626 1_555
Ni2 O0 1.911181 1_555
Ni2 O4 1.957207 1_455
Ni2 O3 1.961734 1_555
Ni2 O6 2.065317 1_555
Ni2 O9 2.108027 1_455
Ni3 O6 2.028928 1_555
Ni3 O1 2.069608 1_554
Ni3 O9 2.075584 1_555
Ni3 O5 2.082731 1_554
Ni3 O0 2.098486 1_655
Ni3 O3 2.163207 1_555
Ni4 O7 1.906152 1_555
Ni4 O6 1.906152 1_555
Ni4 O9 1.923512 1_555
Ni4 O2 1.923512 1_555
Ni4 O4 2.093033 1_555
Ni4 O8 2.093033 1_555
