# generated using pymatgen
data_Li3BiB4O9
_symmetry_space_group_name_H-M   'P 1'
_cell_length_a   8.67905700
_cell_length_b   5.71577700
_cell_length_c   7.47080613
_cell_angle_alpha   72.88072745
_cell_angle_beta   90.00000000
_cell_angle_gamma   90.00000000
_symmetry_Int_Tables_number   1
_chemical_formula_structural   Li3BiB4O9
_chemical_formula_sum   'Li6 Bi2 B8 O18'
_cell_volume   354.18826482
_cell_formula_units_Z   2
loop_
 _symmetry_equiv_pos_site_id
 _symmetry_equiv_pos_as_xyz
  1  'x, y, z'
loop_
 _atom_site_type_symbol
 _atom_site_label
 _atom_site_symmetry_multiplicity
 _atom_site_fract_x
 _atom_site_fract_y
 _atom_site_fract_z
 _atom_site_occupancy
  Li  Li0  1  0.46876300  0.78945000  0.25247800  1
  Li  Li1  1  0.03123700  0.78945000  0.25247800  1
  Li  Li2  1  0.75000000  0.56206900  0.48598900  1
  Li  Li3  1  0.25000000  0.43793100  0.51401100  1
  Li  Li4  1  0.96876300  0.21055000  0.74752200  1
  Li  Li5  1  0.53123700  0.21055000  0.74752200  1
  Bi  Bi0  1  0.75000000  0.65071600  0.93471400  1
  Bi  Bi1  1  0.25000000  0.34928400  0.06528600  1
  B  B0  1  0.75000000  0.97574400  0.27210700  1
  B  B1  1  0.25000000  0.90397800  0.44233600  1
  B  B2  1  0.44845500  0.71905800  0.68997300  1
  B  B3  1  0.05154500  0.71905800  0.68997300  1
  B  B4  1  0.94845500  0.28094200  0.31002700  1
  B  B5  1  0.55154500  0.28094200  0.31002700  1
  B  B6  1  0.75000000  0.09602200  0.55766400  1
  B  B7  1  0.25000000  0.02425600  0.72789300  1
  O  O0  1  0.10684200  0.86804900  0.79368100  1
  O  O1  1  0.39315800  0.86804900  0.79368100  1
  O  O2  1  0.75000000  0.89693000  0.47955000  1
  O  O3  1  0.25000000  0.96705600  0.23751500  1
  O  O4  1  0.38796200  0.73584400  0.51383400  1
  O  O5  1  0.11203800  0.73584400  0.51383400  1
  O  O6  1  0.75000000  0.76310800  0.20939000  1
  O  O7  1  0.94112500  0.54649500  0.76433400  1
  O  O8  1  0.55887500  0.54649500  0.76433400  1
  O  O9  1  0.44112500  0.45350500  0.23566600  1
  O  O10  1  0.05887500  0.45350500  0.23566600  1
  O  O11  1  0.25000000  0.23689200  0.79061000  1
  O  O12  1  0.88796200  0.26415600  0.48616600  1
  O  O13  1  0.61203800  0.26415600  0.48616600  1
  O  O14  1  0.75000000  0.03294400  0.76248500  1
  O  O15  1  0.25000000  0.10307000  0.52045000  1
  O  O16  1  0.89315800  0.13195100  0.20631900  1
  O  O17  1  0.60684200  0.13195100  0.20631900  1
loop_
_geom_bond_atom_site_label_1
_geom_bond_atom_site_label_2
_geom_bond_distance
_geom_bond_site_symmetry_2
Li0 O9 1.975453 1_555
Li0 O4 2.011436 1_555
Li0 O3 2.140357 1_555
Li0 O17 2.233844 1_565
Li0 O6 2.472384 1_555
Li1 O10 1.975453 1_555
Li1 O5 2.011436 1_555
Li1 O3 2.140357 1_555
Li1 O16 2.233844 1_465
Li1 O6 2.472384 1_455
Li2 O2 1.900387 1_555
Li2 O6 2.047576 1_555
Li2 O12 2.081331 1_555
Li2 O13 2.081331 1_555
Li3 O15 1.900387 1_555
Li3 O11 2.047576 1_555
Li3 O4 2.081331 1_555
Li3 O5 2.081331 1_555
Li4 O7 1.975453 1_555
Li4 O12 2.011436 1_555
Li4 O14 2.140357 1_555
Li4 O0 2.233844 1_645
Li4 O11 2.472384 1_655
Li5 O8 1.975453 1_555
Li5 O13 2.011436 1_555
Li5 O14 2.140357 1_555
Li5 O1 2.233844 1_545
Li5 O11 2.472384 1_555
Bi0 O14 2.184874 1_565
Bi0 O8 2.274433 1_555
Bi0 O7 2.274433 1_555
Bi0 O6 2.323723 1_556
Bi1 O3 2.184874 1_545
Bi1 O10 2.274433 1_555
Bi1 O9 2.274433 1_555
Bi1 O11 2.323723 1_554
B0 O6 1.425461 1_555
B0 O2 1.481114 1_555
B0 O16 1.524511 1_565
B0 O17 1.524511 1_565
B1 O15 1.423548 1_565
B1 O3 1.465142 1_555
B1 O4 1.529830 1_555
B1 O5 1.529830 1_555
B2 O8 1.370147 1_555
B2 O4 1.393599 1_555
B2 O1 1.394374 1_555
B3 O7 1.370147 1_455
B3 O5 1.393599 1_555
B3 O0 1.394374 1_555
B4 O10 1.370147 1_655
B4 O12 1.393599 1_555
B4 O16 1.394374 1_555
B5 O9 1.370147 1_555
B5 O13 1.393599 1_555
B5 O17 1.394374 1_555
B6 O2 1.423548 1_545
B6 O14 1.465142 1_555
B6 O12 1.529830 1_555
B6 O13 1.529830 1_555
B7 O11 1.425461 1_555
B7 O15 1.481114 1_555
B7 O1 1.524511 1_545
B7 O0 1.524511 1_545
