# generated using pymatgen
data_Gd2Nb2N2O5
_symmetry_space_group_name_H-M   'P 1'
_cell_length_a   7.89320981
_cell_length_b   13.58887318
_cell_length_c   5.54526757
_cell_angle_alpha   90.60591955
_cell_angle_beta   90.29651627
_cell_angle_gamma   98.48654524
_symmetry_Int_Tables_number   1
_chemical_formula_structural   Gd2Nb2N2O5
_chemical_formula_sum   'Gd8 Nb8 N8 O20'
_cell_volume   588.22533696
_cell_formula_units_Z   4
loop_
 _symmetry_equiv_pos_site_id
 _symmetry_equiv_pos_as_xyz
  1  'x, y, z'
loop_
 _atom_site_type_symbol
 _atom_site_label
 _atom_site_symmetry_multiplicity
 _atom_site_fract_x
 _atom_site_fract_y
 _atom_site_fract_z
 _atom_site_occupancy
  Gd  Gd0  1  0.12921400  0.56444400  0.34716400  1
  Gd  Gd1  1  0.22058700  0.91692600  0.76816100  1
  Gd  Gd2  1  0.27933400  0.12994100  0.25093400  1
  Gd  Gd3  1  0.34275000  0.38486600  0.75848100  1
  Gd  Gd4  1  0.66600300  0.60801900  0.27302100  1
  Gd  Gd5  1  0.72573500  0.87394400  0.74925500  1
  Gd  Gd6  1  0.77462300  0.08372400  0.27716100  1
  Gd  Gd7  1  0.86364600  0.43592600  0.82930700  1
  Nb  Nb0  1  0.07209800  0.32454400  0.28191200  1
  Nb  Nb1  1  0.01509200  0.10922200  0.75957600  1
  Nb  Nb2  1  0.41206700  0.67338700  0.78965500  1
  Nb  Nb3  1  0.46171100  0.88004700  0.27073000  1
  Nb  Nb4  1  0.53328100  0.12043300  0.76885300  1
  Nb  Nb5  1  0.60008300  0.32674800  0.27549700  1
  Nb  Nb6  1  0.97118600  0.87830000  0.25846200  1
  Nb  Nb7  1  0.92528300  0.67380600  0.79162500  1
  N  N0  1  0.08404500  0.41112400  0.55141600  1
  N  N1  1  0.22586000  0.88511900  0.33752600  1
  N  N2  1  0.94829700  0.98378700  0.54561600  1
  N  N3  1  0.86221900  0.56967500  0.55671000  1
  N  N4  1  0.77460300  0.11528300  0.84396900  1
  N  N5  1  0.82475200  0.30831900  0.17839700  1
  N  N6  1  0.98035600  0.82461300  0.92942400  1
  N  N7  1  0.92129700  0.58728500  0.05487300  1
  O  O0  1  0.02081900  0.18039700  0.43288600  1
  O  O1  1  0.17970600  0.69051800  0.66987700  1
  O  O2  1  0.14360800  0.43143900  0.05441400  1
  O  O3  1  0.06102500  0.02514700  0.04545200  1
  O  O4  1  0.13839800  0.22682000  0.94819300  1
  O  O5  1  0.36734200  0.61803500  0.08818700  1
  O  O6  1  0.42920300  0.82491200  0.92757800  1
  O  O7  1  0.27766100  0.08258100  0.65049600  1
  O  O8  1  0.32534700  0.29855600  0.37713800  1
  O  O9  1  0.41644700  0.55717100  0.58679800  1
  O  O10  1  0.55485300  0.97917300  0.53528300  1
  O  O11  1  0.51035300  0.77013200  0.45880300  1
  O  O12  1  0.48769100  0.23219500  0.96103200  1
  O  O13  1  0.44963300  0.02432600  0.03701400  1
  O  O14  1  0.58056900  0.44354500  0.08303200  1
  O  O15  1  0.66799300  0.69682100  0.86977000  1
  O  O16  1  0.72756700  0.92098400  0.14687200  1
  O  O17  1  0.56795900  0.17439700  0.43190300  1
  O  O18  1  0.62181300  0.38225300  0.59061600  1
  O  O19  1  0.85789100  0.77111800  0.44191200  1
loop_
_geom_bond_atom_site_label_1
_geom_bond_atom_site_label_2
_geom_bond_distance
_geom_bond_site_symmetry_2
Gd0 N7 2.355887 1_455
Gd0 N0 2.363379 1_555
Gd0 O5 2.402423 1_555
Gd0 N3 2.421657 1_455
Gd0 O2 2.432154 1_555
Gd0 O1 2.454092 1_555
Gd0 O9 2.636940 1_555
Gd1 N6 2.303916 1_455
Gd1 O7 2.330401 1_565
Gd1 O6 2.381671 1_555
Gd1 N1 2.423950 1_555
Gd1 O3 2.575299 1_566
Gd1 O13 2.601631 1_566
Gd1 N2 2.745958 1_455
Gd1 O10 2.957043 1_555
Gd1 O1 3.088123 1_555
Gd1 N1 3.192144 1_556
Gd2 O7 2.313339 1_555
Gd2 O3 2.348743 1_555
Gd2 O8 2.364215 1_555
Gd2 O13 2.413242 1_555
Gd2 O0 2.464029 1_555
Gd2 O17 2.473742 1_555
Gd2 O4 2.499719 1_554
Gd2 O12 2.572923 1_554
Gd3 O8 2.400663 1_555
Gd3 O18 2.400680 1_555
Gd3 N0 2.411436 1_555
Gd3 O2 2.421286 1_556
Gd3 O9 2.525452 1_555
Gd3 O14 2.625151 1_556
Gd3 O4 2.713635 1_555
Gd3 O12 2.758809 1_555
Gd4 N3 2.318457 1_555
Gd4 N7 2.406016 1_555
Gd4 O14 2.461297 1_555
Gd4 O15 2.551187 1_554
Gd4 O5 2.588244 1_555
Gd4 O19 2.652152 1_555
Gd4 O9 2.654099 1_555
Gd4 O11 2.861395 1_555
Gd5 O16 2.288558 1_556
Gd5 O10 2.420840 1_555
Gd5 N2 2.423114 1_555
Gd5 N6 2.424413 1_555
Gd5 O15 2.482117 1_555
Gd5 O19 2.518615 1_555
Gd5 O6 2.545136 1_555
Gd5 O11 2.586527 1_555
Gd6 O16 2.295967 1_545
Gd6 O0 2.335150 1_655
Gd6 O17 2.345380 1_555
Gd6 N4 2.444610 1_554
Gd6 O10 2.533318 1_545
Gd6 N2 2.551601 1_545
Gd6 O3 2.816833 1_655
Gd6 O13 2.887209 1_555
Gd6 N5 3.074465 1_555
Gd6 N4 3.167731 1_555
Gd7 O18 2.338817 1_555
Gd7 N3 2.377479 1_555
Gd7 N7 2.380231 1_556
Gd7 N0 2.388394 1_655
Gd7 O2 2.541251 1_656
Gd7 N5 2.601627 1_556
Gd7 O14 2.660923 1_556
Nb0 O2 1.955556 1_555
Nb0 O0 2.122682 1_555
Nb0 O8 2.144929 1_555
Nb0 O4 2.371725 1_554
Nb1 O4 2.022370 1_555
Nb1 O3 2.025927 1_556
Nb1 O0 2.060178 1_555
Nb1 O7 2.240991 1_555
Nb2 O5 1.839804 1_556
Nb2 O9 1.933790 1_555
Nb2 O1 1.993956 1_555
Nb2 O15 2.043854 1_555
Nb2 O6 2.174021 1_555
Nb2 O11 2.336852 1_555
Nb3 O11 1.914170 1_555
Nb3 O6 2.038661 1_554
Nb3 O10 2.040056 1_555
Nb3 O16 2.205257 1_555
Nb3 O13 2.374930 1_565
Nb4 O12 1.924248 1_555
Nb4 O17 2.019630 1_555
Nb4 O13 2.037033 1_556
Nb4 O7 2.106924 1_555
Nb4 O10 2.331835 1_545
Nb5 O18 1.892782 1_555
Nb5 O14 1.946299 1_555
Nb5 O8 2.222399 1_555
Nb5 O17 2.233359 1_555
Nb5 O12 2.253636 1_554
Nb6 O19 1.900585 1_555
Nb6 O16 2.177499 1_555
Nb6 O3 2.349661 1_665
Nb7 O1 2.103083 1_655
Nb7 O15 2.145606 1_555
Nb7 O19 2.458347 1_555
N0 Nb0 1.885512 1_555
N1 Nb3 1.911034 1_555
N1 Nb6 2.043706 1_455
N2 Nb1 2.067986 1_665
N2 Nb6 2.157342 1_555
N3 Nb7 1.921827 1_555
N4 Nb4 1.959192 1_555
N4 Nb1 1.970683 1_655
N5 Nb5 1.906712 1_555
N5 Nb0 2.012080 1_655
N6 Nb6 1.963531 1_556
N6 Nb7 2.161710 1_555
N7 Nb7 1.881524 1_554
