# generated using pymatgen
data_Li2SiNiO4
_symmetry_space_group_name_H-M   'P 1'
_cell_length_a   4.99560700
_cell_length_b   6.34085300
_cell_length_c   10.66518000
_cell_angle_alpha   90.00000000
_cell_angle_beta   90.00000000
_cell_angle_gamma   90.00000000
_symmetry_Int_Tables_number   1
_chemical_formula_structural   Li2SiNiO4
_chemical_formula_sum   'Li8 Si4 Ni4 O16'
_cell_volume   337.83461049
_cell_formula_units_Z   4
loop_
 _symmetry_equiv_pos_site_id
 _symmetry_equiv_pos_as_xyz
  1  'x, y, z'
loop_
 _atom_site_type_symbol
 _atom_site_label
 _atom_site_symmetry_multiplicity
 _atom_site_fract_x
 _atom_site_fract_y
 _atom_site_fract_z
 _atom_site_occupancy
  Li  Li0  1  0.20289300  0.99389500  0.66607400  1
  Li  Li1  1  0.29710700  0.99389500  0.16607400  1
  Li  Li2  1  0.20289300  0.50610500  0.66607400  1
  Li  Li3  1  0.29710700  0.50610500  0.16607400  1
  Li  Li4  1  0.70289300  0.49389500  0.83392600  1
  Li  Li5  1  0.79710700  0.49389500  0.33392600  1
  Li  Li6  1  0.79710700  0.00610500  0.33392600  1
  Li  Li7  1  0.70289300  0.00610500  0.83392600  1
  Si  Si0  1  0.19138100  0.25000000  0.91638400  1
  Si  Si1  1  0.30861900  0.25000000  0.41638400  1
  Si  Si2  1  0.69138100  0.75000000  0.58361600  1
  Si  Si3  1  0.80861900  0.75000000  0.08361600  1
  Ni  Ni0  1  0.80107000  0.25000000  0.58551300  1
  Ni  Ni1  1  0.69893000  0.25000000  0.08551300  1
  Ni  Ni2  1  0.30107000  0.75000000  0.91448700  1
  Ni  Ni3  1  0.19893000  0.75000000  0.41448700  1
  O  O0  1  0.29882900  0.03784500  0.84192700  1
  O  O1  1  0.20117100  0.03784500  0.34192700  1
  O  O2  1  0.85976500  0.25000000  0.91596600  1
  O  O3  1  0.20383800  0.25000000  0.56329200  1
  O  O4  1  0.29616200  0.25000000  0.06329200  1
  O  O5  1  0.64023500  0.25000000  0.41596600  1
  O  O6  1  0.29882900  0.46215500  0.84192700  1
  O  O7  1  0.20117100  0.46215500  0.34192700  1
  O  O8  1  0.70117100  0.53784500  0.15807300  1
  O  O9  1  0.79882900  0.53784500  0.65807300  1
  O  O10  1  0.70383800  0.75000000  0.93670800  1
  O  O11  1  0.35976500  0.75000000  0.58403400  1
  O  O12  1  0.79616200  0.75000000  0.43670800  1
  O  O13  1  0.14023500  0.75000000  0.08403400  1
  O  O14  1  0.79882900  0.96215500  0.65807300  1
  O  O15  1  0.70117100  0.96215500  0.15807300  1
loop_
_geom_bond_atom_site_label_1
_geom_bond_atom_site_label_2
_geom_bond_distance
_geom_bond_site_symmetry_2
Li0 O11 1.942005 1_555
Li0 O0 1.955727 1_565
Li0 O3 1.959281 1_565
Li0 O14 2.030347 1_455
Li1 O13 1.942005 1_555
Li1 O1 1.955727 1_565
Li1 O4 1.959281 1_565
Li1 O15 2.030347 1_555
Li2 O11 1.942005 1_555
Li2 O6 1.955727 1_555
Li2 O3 1.959281 1_555
Li2 O9 2.030347 1_455
Li3 O13 1.942005 1_555
Li3 O7 1.955727 1_555
Li3 O4 1.959281 1_555
Li3 O8 2.030347 1_555
Li4 O2 1.942005 1_555
Li4 O9 1.955727 1_555
Li4 O10 1.959281 1_555
Li4 O6 2.030347 1_555
Li5 O5 1.942005 1_555
Li5 O8 1.955727 1_555
Li5 O12 1.959281 1_555
Li5 O7 2.030347 1_655
Li6 O5 1.942005 1_555
Li6 O15 1.955727 1_545
Li6 O12 1.959281 1_545
Li6 O1 2.030347 1_655
Li7 O2 1.942005 1_555
Li7 O14 1.955727 1_545
Li7 O10 1.959281 1_545
Li7 O0 2.030347 1_555
Ni0 O5 1.978719 1_555
Ni0 O9 1.982495 1_555
Ni0 O14 1.982495 1_545
Ni0 O3 2.025980 1_655
Ni1 O2 1.978719 1_554
Ni1 O8 1.982495 1_555
Ni1 O15 1.982495 1_545
Ni1 O4 2.025980 1_555
Ni2 O13 1.978719 1_556
Ni2 O0 1.982495 1_565
Ni2 O6 1.982495 1_555
Ni2 O10 2.025980 1_555
Ni3 O11 1.978719 1_555
Ni3 O1 1.982495 1_565
Ni3 O7 1.982495 1_555
Ni3 O12 2.025980 1_455
O0 Si0 1.651784 1_555
O1 Si1 1.651784 1_555
O2 Si0 1.656629 1_655
O3 Si1 1.651925 1_555
O4 Si0 1.651925 1_554
O5 Si1 1.656629 1_555
O6 Si0 1.651784 1_555
O7 Si1 1.651784 1_555
O8 Si3 1.651784 1_555
O9 Si2 1.651784 1_555
O10 Si3 1.651925 1_556
O11 Si2 1.656629 1_555
O12 Si2 1.651925 1_555
O13 Si3 1.656629 1_455
O14 Si2 1.651784 1_555
O15 Si3 1.651784 1_555
