# generated using pymatgen
data_Li3VBO5
_symmetry_space_group_name_H-M   'P 1'
_cell_length_a   4.74924500
_cell_length_b   4.90922200
_cell_length_c   16.25552600
_cell_angle_alpha   90.00000000
_cell_angle_beta   90.00000000
_cell_angle_gamma   90.00000000
_symmetry_Int_Tables_number   1
_chemical_formula_structural   Li3VBO5
_chemical_formula_sum   'Li12 V4 B4 O20'
_cell_volume   378.99918234
_cell_formula_units_Z   4
loop_
 _symmetry_equiv_pos_site_id
 _symmetry_equiv_pos_as_xyz
  1  'x, y, z'
loop_
 _atom_site_type_symbol
 _atom_site_label
 _atom_site_symmetry_multiplicity
 _atom_site_fract_x
 _atom_site_fract_y
 _atom_site_fract_z
 _atom_site_occupancy
  Li  Li0  1  0.01145000  0.70317400  0.61408700  1
  Li  Li1  1  0.01145000  0.20317400  0.88591300  1
  Li  Li2  1  0.50895700  0.32255900  0.00657800  1
  Li  Li3  1  0.50895700  0.82255900  0.49342200  1
  Li  Li4  1  0.49781900  0.34979000  0.79064900  1
  Li  Li5  1  0.49781900  0.84979000  0.70935100  1
  Li  Li6  1  0.51145000  0.29682600  0.38591300  1
  Li  Li7  1  0.51145000  0.79682600  0.11408700  1
  Li  Li8  1  0.00895700  0.67744100  0.99342200  1
  Li  Li9  1  0.00895700  0.17744100  0.50657800  1
  Li  Li10  1  0.99781900  0.15021000  0.29064900  1
  Li  Li11  1  0.99781900  0.65021000  0.20935100  1
  V  V0  1  0.01466600  0.16379400  0.10183700  1
  V  V1  1  0.01466600  0.66379400  0.39816300  1
  V  V2  1  0.51466600  0.33620600  0.60183700  1
  V  V3  1  0.51466600  0.83620600  0.89816300  1
  B  B0  1  0.99533600  0.19011300  0.70763600  1
  B  B1  1  0.99533600  0.69011300  0.79236400  1
  B  B2  1  0.49533600  0.30988700  0.20763600  1
  B  B3  1  0.49533600  0.80988700  0.29236400  1
  O  O0  1  0.08998500  0.39317700  0.77414600  1
  O  O1  1  0.08998500  0.89317700  0.72585400  1
  O  O2  1  0.07984200  0.31599500  0.39333700  1
  O  O3  1  0.07984200  0.81599500  0.10666300  1
  O  O4  1  0.08743000  0.29847800  0.00395000  1
  O  O5  1  0.08743000  0.79847800  0.49605000  1
  O  O6  1  0.18682000  0.30852300  0.19840200  1
  O  O7  1  0.18682000  0.80852300  0.30159800  1
  O  O8  1  0.12269300  0.27679400  0.62690500  1
  O  O9  1  0.12269300  0.77679400  0.87309500  1
  O  O10  1  0.58998500  0.60682300  0.22585400  1
  O  O11  1  0.58998500  0.10682300  0.27414600  1
  O  O12  1  0.57984200  0.68400500  0.60666300  1
  O  O13  1  0.57984200  0.18400500  0.89333700  1
  O  O14  1  0.58743000  0.20152200  0.50395000  1
  O  O15  1  0.58743000  0.70152200  0.99605000  1
  O  O16  1  0.68682000  0.19147700  0.69840200  1
  O  O17  1  0.68682000  0.69147700  0.80159800  1
  O  O18  1  0.62269300  0.22320600  0.12690500  1
  O  O19  1  0.62269300  0.72320600  0.37309500  1
loop_
_geom_bond_atom_site_label_1
_geom_bond_atom_site_label_2
_geom_bond_distance
_geom_bond_site_symmetry_2
Li0 O5 2.007667 1_555
Li0 O12 2.055517 1_455
Li0 O1 2.076065 1_555
Li0 O8 2.168870 1_555
Li1 O4 2.007667 1_556
Li1 O13 2.055517 1_455
Li1 O0 2.076065 1_555
Li1 O9 2.168870 1_545
Li2 O15 1.905078 1_554
Li2 O13 1.991108 1_554
Li2 O4 2.005877 1_555
Li2 O18 2.086989 1_555
Li3 O14 1.905078 1_565
Li3 O12 1.991108 1_555
Li3 O5 2.005877 1_555
Li3 O19 2.086989 1_555
Li4 O13 1.897506 1_555
Li4 O17 1.910789 1_555
Li4 O16 1.912670 1_555
Li4 O0 1.966959 1_555
Li5 O12 1.897506 1_555
Li5 O16 1.910789 1_565
Li5 O17 1.912670 1_555
Li5 O1 1.966959 1_555
Li6 O14 2.007667 1_555
Li6 O2 2.055517 1_555
Li6 O11 2.076065 1_555
Li6 O19 2.168870 1_555
Li7 O15 2.007667 1_554
Li7 O3 2.055517 1_555
Li7 O10 2.076065 1_555
Li7 O18 2.168870 1_565
Li8 O4 1.905078 1_556
Li8 O3 1.991108 1_556
Li8 O15 2.005877 1_455
Li8 O9 2.086989 1_555
Li9 O5 1.905078 1_545
Li9 O2 1.991108 1_555
Li9 O14 2.005877 1_455
Li9 O8 2.086989 1_555
Li10 O2 1.897506 1_655
Li10 O7 1.910789 1_645
Li10 O6 1.912670 1_655
Li10 O11 1.966959 1_555
Li11 O3 1.897506 1_655
Li11 O6 1.910789 1_655
Li11 O7 1.912670 1_655
Li11 O10 1.966959 1_555
B0 O16 1.472902 1_555
B0 O8 1.506360 1_655
B0 O0 1.537771 1_655
B0 O1 1.553938 1_645
B1 O17 1.472902 1_555
B1 O9 1.506360 1_655
B1 O1 1.537771 1_655
B1 O0 1.553938 1_655
B2 O6 1.472902 1_555
B2 O18 1.506360 1_555
B2 O11 1.537771 1_555
B2 O10 1.553938 1_555
B3 O7 1.472902 1_555
B3 O19 1.506360 1_555
B3 O10 1.537771 1_555
B3 O11 1.553938 1_565
O2 V1 1.737026 1_555
O3 V0 1.737026 1_565
O4 V0 1.757422 1_555
O5 V1 1.757422 1_555
O6 V0 1.907170 1_555
O7 V1 1.907170 1_555
O8 V2 1.927845 1_555
O9 V3 1.927845 1_555
O12 V2 1.737026 1_555
O13 V3 1.737026 1_545
O14 V2 1.757422 1_555
O15 V3 1.757422 1_555
O16 V2 1.907170 1_555
O17 V3 1.907170 1_555
O18 V0 1.927845 1_655
O19 V1 1.927845 1_655
