# generated using pymatgen
data_Li4Cr5O10
_symmetry_space_group_name_H-M   'P 1'
_cell_length_a   6.64655712
_cell_length_b   6.64146733
_cell_length_c   8.91757699
_cell_angle_alpha   81.19423692
_cell_angle_beta   94.66283577
_cell_angle_gamma   107.96169746
_symmetry_Int_Tables_number   1
_chemical_formula_structural   Li4Cr5O10
_chemical_formula_sum   'Li8 Cr10 O20'
_cell_volume   369.80528663
_cell_formula_units_Z   2
loop_
 _symmetry_equiv_pos_site_id
 _symmetry_equiv_pos_as_xyz
  1  'x, y, z'
loop_
 _atom_site_type_symbol
 _atom_site_label
 _atom_site_symmetry_multiplicity
 _atom_site_fract_x
 _atom_site_fract_y
 _atom_site_fract_z
 _atom_site_occupancy
  Li  Li0  1  0.19207900  0.39729400  0.79781700  1
  Li  Li1  1  0.19067400  0.89382000  0.29425300  1
  Li  Li2  1  0.80933500  0.60616500  0.20575900  1
  Li  Li3  1  0.80790500  0.10268700  0.70218000  1
  Li  Li4  1  0.60738200  0.70456100  0.90212800  1
  Li  Li5  1  0.61084900  0.20901300  0.40271400  1
  Li  Li6  1  0.38913000  0.29095000  0.09730600  1
  Li  Li7  1  0.39258800  0.79540800  0.59787000  1
  Cr  Cr0  1  0.99999100  0.75001800  0.74999300  1
  Cr  Cr1  1  0.00003400  0.24999500  0.25003500  1
  Cr  Cr2  1  0.60591800  0.44889000  0.64935000  1
  Cr  Cr3  1  0.60428600  0.94801100  0.15034000  1
  Cr  Cr4  1  0.39573500  0.55201500  0.34965000  1
  Cr  Cr5  1  0.39407200  0.05112400  0.85063300  1
  Cr  Cr6  1  0.80238200  0.34572900  0.95067500  1
  Cr  Cr7  1  0.80195900  0.84503300  0.45151500  1
  Cr  Cr8  1  0.19804100  0.65495500  0.04846500  1
  Cr  Cr9  1  0.19762500  0.15428700  0.54930900  1
  O  O0  1  0.88932200  0.42745900  0.74176300  1
  O  O1  1  0.88897000  0.93265800  0.23864600  1
  O  O2  1  0.11103700  0.56733200  0.26136000  1
  O  O3  1  0.11066000  0.07259600  0.75827200  1
  O  O4  1  0.31545000  0.45537800  0.57024900  1
  O  O5  1  0.31975400  0.96748300  0.06987000  1
  O  O6  1  0.68025000  0.53253000  0.43013700  1
  O  O7  1  0.68455900  0.04462000  0.92973200  1
  O  O8  1  0.51638800  0.36592500  0.87086700  1
  O  O9  1  0.51160200  0.86627400  0.36983200  1
  O  O10  1  0.48840400  0.63372900  0.13014400  1
  O  O11  1  0.48363100  0.13409600  0.62914100  1
  O  O12  1  0.90020300  0.64795000  0.96707300  1
  O  O13  1  0.91648100  0.15958100  0.47053600  1
  O  O14  1  0.08352700  0.34041200  0.02947000  1
  O  O15  1  0.09978700  0.85203700  0.53289100  1
  O  O16  1  0.71301700  0.26676200  0.16580600  1
  O  O17  1  0.71006100  0.76374200  0.67141900  1
  O  O18  1  0.28990900  0.73626600  0.82860700  1
  O  O19  1  0.28700400  0.23321200  0.33419500  1
loop_
_geom_bond_atom_site_label_1
_geom_bond_atom_site_label_2
_geom_bond_distance
_geom_bond_site_symmetry_2
Li0 O0 2.096130 1_455
Li0 O3 2.132986 1_555
Li0 O14 2.183120 1_556
Li0 O4 2.185235 1_555
Li0 O18 2.196314 1_555
Li0 O8 2.263014 1_555
Li1 O1 2.109933 1_455
Li1 O2 2.128287 1_555
Li1 O5 2.167886 1_555
Li1 O15 2.212562 1_555
Li1 O19 2.221762 1_565
Li1 O9 2.237607 1_555
Li2 O2 2.109900 1_655
Li2 O1 2.128305 1_555
Li2 O6 2.167865 1_555
Li2 O12 2.212934 1_554
Li2 O16 2.221863 1_555
Li2 O10 2.237733 1_555
Li3 O3 2.095992 1_655
Li3 O0 2.133559 1_555
Li3 O13 2.183095 1_555
Li3 O7 2.185045 1_555
Li3 O17 2.196074 1_545
Li3 O11 2.262863 1_555
Li4 O12 2.113306 1_555
Li4 O17 2.160613 1_555
Li4 O10 2.172623 1_556
Li4 O8 2.197110 1_555
Li4 O7 2.204464 1_565
Li4 O18 2.221163 1_555
Li5 O6 2.102483 1_555
Li5 O11 2.179480 1_555
Li5 O13 2.179666 1_555
Li5 O16 2.212698 1_555
Li5 O9 2.224730 1_545
Li5 O19 2.236449 1_555
Li6 O5 2.102207 1_545
Li6 O14 2.179583 1_555
Li6 O8 2.179671 1_554
Li6 O19 2.212449 1_555
Li6 O10 2.224874 1_555
Li6 O16 2.236662 1_555
Li7 O15 2.113281 1_555
Li7 O18 2.160866 1_555
Li7 O9 2.172887 1_555
Li7 O11 2.197448 1_565
Li7 O4 2.204339 1_555
Li7 O17 2.221125 1_555
Cr0 O17 2.020394 1_555
Cr0 O18 2.020465 1_655
Cr0 O12 2.043654 1_555
Cr0 O15 2.043823 1_655
Cr0 O0 2.050177 1_555
Cr0 O3 2.050368 1_665
Cr1 O19 2.021506 1_555
Cr1 O16 2.021942 1_455
Cr1 O2 2.022488 1_555
Cr1 O1 2.022607 1_445
Cr1 O13 2.036126 1_455
Cr1 O14 2.036562 1_555
Cr2 O6 2.007331 1_555
Cr2 O4 2.011786 1_555
Cr2 O17 2.025242 1_555
Cr2 O11 2.026718 1_555
Cr2 O0 2.030921 1_555
Cr2 O8 2.053176 1_555
Cr3 O5 2.002483 1_555
Cr3 O1 2.015682 1_555
Cr3 O10 2.020757 1_555
Cr3 O7 2.034606 1_564
Cr3 O16 2.037762 1_565
Cr3 O9 2.042013 1_555
Cr4 O6 2.002444 1_555
Cr4 O2 2.015657 1_555
Cr4 O9 2.020582 1_555
Cr4 O4 2.034566 1_555
Cr4 O19 2.038068 1_555
Cr4 O10 2.042097 1_555
Cr5 O5 2.007513 1_546
Cr5 O7 2.011928 1_555
Cr5 O18 2.025194 1_545
Cr5 O8 2.026824 1_555
Cr5 O3 2.030902 1_555
Cr5 O11 2.053022 1_555
Cr6 O12 1.934539 1_555
Cr6 O0 1.941968 1_555
Cr6 O7 1.942175 1_555
Cr6 O14 1.951011 1_656
Cr6 O16 1.998344 1_556
Cr6 O8 2.011443 1_555
Cr7 O1 1.977186 1_555
Cr7 O6 2.014672 1_555
Cr7 O13 2.019676 1_565
Cr7 O15 2.041397 1_655
Cr7 O17 2.043852 1_555
Cr7 O9 2.045190 1_555
Cr8 O2 1.977389 1_555
Cr8 O5 2.014880 1_555
Cr8 O14 2.019594 1_555
Cr8 O12 2.041498 1_454
Cr8 O18 2.043409 1_554
Cr8 O10 2.045188 1_555
Cr9 O15 1.934760 1_545
Cr9 O4 1.942061 1_555
Cr9 O3 1.942433 1_555
Cr9 O13 1.950910 1_455
Cr9 O19 1.998222 1_555
Cr9 O11 2.011565 1_555
