# generated using pymatgen
data_LiP2WO8
_symmetry_space_group_name_H-M   'P 1'
_cell_length_a   8.06584300
_cell_length_b   4.98429700
_cell_length_c   16.17842961
_cell_angle_alpha   84.27110153
_cell_angle_beta   90.00000000
_cell_angle_gamma   90.00000000
_symmetry_Int_Tables_number   1
_chemical_formula_structural   LiP2WO8
_chemical_formula_sum   'Li4 P8 W4 O32'
_cell_volume   647.16564751
_cell_formula_units_Z   4
loop_
 _symmetry_equiv_pos_site_id
 _symmetry_equiv_pos_as_xyz
  1  'x, y, z'
loop_
 _atom_site_type_symbol
 _atom_site_label
 _atom_site_symmetry_multiplicity
 _atom_site_fract_x
 _atom_site_fract_y
 _atom_site_fract_z
 _atom_site_occupancy
  Li  Li0  1  0.83662300  0.62558100  0.47291000  1
  Li  Li1  1  0.33662300  0.37441900  0.02709000  1
  Li  Li2  1  0.66337700  0.62558100  0.97291000  1
  Li  Li3  1  0.16337700  0.37441900  0.52709000  1
  P  P0  1  0.62930400  0.87560800  0.24538200  1
  P  P1  1  0.19400300  0.84625600  0.41862600  1
  P  P2  1  0.69400300  0.15374400  0.08137400  1
  P  P3  1  0.12930400  0.12439200  0.25461800  1
  P  P4  1  0.87069600  0.87560800  0.74538200  1
  P  P5  1  0.30599700  0.84625600  0.91862600  1
  P  P6  1  0.80599700  0.15374400  0.58137400  1
  P  P7  1  0.37069600  0.12439200  0.75461800  1
  W  W0  1  0.03779700  0.35361300  0.85685600  1
  W  W1  1  0.53779700  0.64638700  0.64314400  1
  W  W2  1  0.46220300  0.35361300  0.35685600  1
  W  W3  1  0.96220300  0.64638700  0.14314400  1
  O  O0  1  0.72369900  0.40409200  0.61186600  1
  O  O1  1  0.49157400  0.36098700  0.74136100  1
  O  O2  1  0.80770500  0.78212200  0.23647000  1
  O  O3  1  0.38158700  0.53499400  0.57786600  1
  O  O4  1  0.88158700  0.46500600  0.92213400  1
  O  O5  1  0.08026400  0.75825600  0.48938500  1
  O  O6  1  0.82387400  0.93403500  0.06566700  1
  O  O7  1  0.11831700  0.93013300  0.18777600  1
  O  O8  1  0.99157400  0.63901300  0.75863900  1
  O  O9  1  0.22369900  0.59590800  0.88813400  1
  O  O10  1  0.57555600  0.02724000  0.15671000  1
  O  O11  1  0.07555600  0.97276000  0.34329000  1
  O  O12  1  0.61831700  0.06986700  0.31222400  1
  O  O13  1  0.69229500  0.78212200  0.73647000  1
  O  O14  1  0.32387400  0.06596500  0.43433300  1
  O  O15  1  0.58026400  0.24174400  0.01061500  1
  O  O16  1  0.41973600  0.75825600  0.98938500  1
  O  O17  1  0.67612600  0.93403500  0.56566700  1
  O  O18  1  0.30770500  0.21787800  0.26353000  1
  O  O19  1  0.38168300  0.93013300  0.68777600  1
  O  O20  1  0.92444400  0.02724000  0.65671000  1
  O  O21  1  0.42444400  0.97276000  0.84329000  1
  O  O22  1  0.77630100  0.40409200  0.11186600  1
  O  O23  1  0.00842600  0.36098700  0.24136100  1
  O  O24  1  0.88168300  0.06986700  0.81222400  1
  O  O25  1  0.17612600  0.06596500  0.93433300  1
  O  O26  1  0.91973600  0.24174400  0.51061500  1
  O  O27  1  0.11841300  0.53499400  0.07786600  1
  O  O28  1  0.61841300  0.46500600  0.42213400  1
  O  O29  1  0.19229500  0.21787800  0.76353000  1
  O  O30  1  0.50842600  0.63901300  0.25863900  1
  O  O31  1  0.27630100  0.59590800  0.38813400  1
loop_
_geom_bond_atom_site_label_1
_geom_bond_atom_site_label_2
_geom_bond_distance
_geom_bond_site_symmetry_2
Li0 O26 2.061236 1_555
Li0 O5 2.098912 1_655
Li0 O28 2.131764 1_555
Li0 O0 2.570366 1_555
Li0 O17 2.598484 1_555
Li1 O16 2.061236 1_554
Li1 O15 2.098912 1_555
Li1 O27 2.131764 1_555
Li1 O9 2.570366 1_554
Li1 O25 2.598484 1_554
Li2 O15 2.061236 1_556
Li2 O16 2.098912 1_555
Li2 O4 2.131764 1_555
Li2 O22 2.570366 1_556
Li2 O6 2.598484 1_556
Li3 O5 2.061236 1_555
Li3 O26 2.098912 1_455
Li3 O3 2.131764 1_555
Li3 O31 2.570366 1_555
Li3 O14 2.598484 1_555
O0 P6 1.537501 1_555
O0 W1 2.021115 1_555
O1 P7 1.528644 1_555
O1 W1 2.058203 1_555
O2 P0 1.523782 1_555
O2 W3 2.119965 1_555
O3 W1 1.768666 1_555
O4 W0 1.768666 1_655
O5 P1 1.498087 1_555
O6 P2 1.554561 1_565
O6 W3 2.124337 1_555
O7 P3 1.524405 1_565
O7 W3 2.076296 1_455
O8 P4 1.528644 1_555
O8 W0 2.058203 1_655
O9 P5 1.537501 1_555
O9 W0 2.021115 1_555
O10 P0 1.612665 1_545
O10 P2 1.625547 1_555
O11 P3 1.612665 1_565
O11 P1 1.625547 1_555
O12 P0 1.524405 1_545
O12 W2 2.076296 1_555
O13 P4 1.523782 1_555
O13 W1 2.119965 1_555
O14 P1 1.554561 1_545
O14 W2 2.124337 1_555
O15 P2 1.498087 1_555
O16 P5 1.498087 1_555
O17 P6 1.554561 1_565
O17 W1 2.124337 1_555
O18 P3 1.523782 1_555
O18 W2 2.119965 1_555
O19 P7 1.524405 1_565
O19 W1 2.076296 1_555
O20 P4 1.612665 1_545
O20 P6 1.625547 1_555
O21 P7 1.612665 1_565
O21 P5 1.625547 1_555
O22 P2 1.537501 1_555
O22 W3 2.021115 1_555
O23 P3 1.528644 1_555
O23 W3 2.058203 1_455
O24 P4 1.524405 1_545
O24 W0 2.076296 1_655
O25 P5 1.554561 1_545
O25 W0 2.124337 1_555
O26 P6 1.498087 1_555
O27 W3 1.768666 1_455
O28 W2 1.768666 1_555
O29 P7 1.523782 1_555
O29 W0 2.119965 1_555
O30 P0 1.528644 1_555
O30 W2 2.058203 1_555
O31 P1 1.537501 1_555
O31 W2 2.021115 1_555
