# generated using pymatgen
data_Li6MnO6
_symmetry_space_group_name_H-M   'P 1'
_cell_length_a   5.78081159
_cell_length_b   5.43492544
_cell_length_c   5.78187542
_cell_angle_alpha   121.75431059
_cell_angle_beta   119.84778131
_cell_angle_gamma   58.13931377
_symmetry_Int_Tables_number   1
_chemical_formula_structural   Li6MnO6
_chemical_formula_sum   'Li6 Mn1 O6'
_cell_volume   124.96291858
_cell_formula_units_Z   1
loop_
 _symmetry_equiv_pos_site_id
 _symmetry_equiv_pos_as_xyz
  1  'x, y, z'
loop_
 _atom_site_type_symbol
 _atom_site_label
 _atom_site_symmetry_multiplicity
 _atom_site_fract_x
 _atom_site_fract_y
 _atom_site_fract_z
 _atom_site_occupancy
  Li  Li0  1  0.28493600  0.28538700  0.49296500  1
  Li  Li1  1  0.07846300  0.71378200  0.28608500  1
  Li  Li2  1  0.49514100  0.70905900  0.92225200  1
  Li  Li3  1  0.50485900  0.29094100  0.07774800  1
  Li  Li4  1  0.92153700  0.28621800  0.71391500  1
  Li  Li5  1  0.71506400  0.71461300  0.50703500  1
  Mn  Mn0  1  0.00000000  0.00000000  0.00000000  1
  O  O0  1  0.09350000  0.75712500  0.64800900  1
  O  O1  1  0.20133500  0.24441500  0.09051100  1
  O  O2  1  0.64610500  0.23871600  0.79468200  1
  O  O3  1  0.35389500  0.76128400  0.20531800  1
  O  O4  1  0.79866500  0.75558500  0.90948900  1
  O  O5  1  0.90650000  0.24287500  0.35199100  1
loop_
_geom_bond_atom_site_label_1
_geom_bond_atom_site_label_2
_geom_bond_distance
_geom_bond_site_symmetry_2
Li0 O2 1.935949 1_555
Li0 O5 2.015962 1_455
Li0 O1 2.036326 1_555
Li0 O0 2.043193 1_555
Li0 O3 2.348080 1_545
Li1 O0 1.940031 1_555
Li1 O4 2.008995 1_454
Li1 O3 2.029993 1_555
Li1 O1 2.034959 1_555
Li1 O5 2.368175 1_465
Li2 O4 1.940357 1_555
Li2 O3 2.005608 1_556
Li2 O0 2.025923 1_555
Li2 O2 2.034996 1_555
Li2 O1 2.396919 1_566
Li3 O1 1.940357 1_555
Li3 O2 2.005608 1_554
Li3 O5 2.025923 1_555
Li3 O3 2.034996 1_555
Li3 O4 2.396919 1_544
Li4 O5 1.940031 1_555
Li4 O1 2.008995 1_656
Li4 O2 2.029993 1_555
Li4 O4 2.034959 1_555
Li4 O0 2.368175 1_645
Li5 O3 1.935949 1_555
Li5 O0 2.015962 1_655
Li5 O4 2.036326 1_555
Li5 O5 2.043193 1_555
Li5 O2 2.348080 1_565
Mn0 O2 1.918178 1_454
Mn0 O3 1.918178 1_545
Mn0 O1 1.920231 1_555
Mn0 O4 1.920231 1_444
Mn0 O0 1.921090 1_544
Mn0 O5 1.921090 1_455
