# generated using pymatgen
data_Co(NiO2)4
_symmetry_space_group_name_H-M   'P 1'
_cell_length_a   10.19614864
_cell_length_b   10.19614864
_cell_length_c   14.46867620
_cell_angle_alpha   18.85191160
_cell_angle_beta   18.85191160
_cell_angle_gamma   32.46643664
_symmetry_Int_Tables_number   1
_chemical_formula_structural   Co(NiO2)4
_chemical_formula_sum   'Co1 Ni4 O8'
_cell_volume   136.28507285
_cell_formula_units_Z   1
loop_
 _symmetry_equiv_pos_site_id
 _symmetry_equiv_pos_as_xyz
  1  'x, y, z'
loop_
 _atom_site_type_symbol
 _atom_site_label
 _atom_site_symmetry_multiplicity
 _atom_site_fract_x
 _atom_site_fract_y
 _atom_site_fract_z
 _atom_site_occupancy
  Co  Co0  1  0.50000000  0.50000000  0.00000000  1
  Ni  Ni0  1  0.00000000  0.50000000  0.00000000  1
  Ni  Ni1  1  0.00000000  0.00000000  0.00000000  1
  Ni  Ni2  1  0.00000000  0.00000000  0.50000000  1
  Ni  Ni3  1  0.50000000  0.00000000  0.00000000  1
  O  O0  1  0.00142900  0.53917200  0.70898800  1
  O  O1  1  0.99857100  0.46082800  0.29101200  1
  O  O2  1  0.00354700  0.00354700  0.26301100  1
  O  O3  1  0.99645300  0.99645300  0.73698900  1
  O  O4  1  0.45881400  0.45881400  0.79158300  1
  O  O5  1  0.54118600  0.54118600  0.20841700  1
  O  O6  1  0.53917200  0.00142900  0.70898800  1
  O  O7  1  0.46082800  0.99857100  0.29101200  1
loop_
_geom_bond_atom_site_label_1
_geom_bond_atom_site_label_2
_geom_bond_distance
_geom_bond_site_symmetry_2
Co0 O0 1.882964 1_654
Co0 O6 1.882964 1_564
Co0 O7 1.882964 1_545
Co0 O1 1.882964 1_455
Co0 O3 1.913962 1_445
Co0 O2 1.913962 1_664
Ni0 O7 1.877753 1_554
Ni0 O6 1.877753 1_455
Ni0 O4 1.880417 1_554
Ni0 O5 1.880417 1_455
Ni0 O2 1.896910 1_555
Ni0 O3 1.896910 1_454
Ni1 O6 2.039319 1_554
Ni1 O0 2.039319 1_554
Ni1 O1 2.039319 1_445
Ni1 O7 2.039319 1_445
Ni1 O5 2.053502 1_554
Ni1 O4 2.053502 1_445
Ni2 O4 2.060659 1_554
Ni2 O5 2.060659 1_446
Ni2 O1 2.073074 1_455
Ni2 O0 2.073074 1_545
Ni2 O7 2.073074 1_545
Ni2 O6 2.073074 1_455
Ni3 O1 1.877753 1_554
Ni3 O0 1.877753 1_545
Ni3 O4 1.880417 1_554
Ni3 O5 1.880417 1_545
Ni3 O3 1.896910 1_544
Ni3 O2 1.896910 1_555
