# generated using pymatgen
data_CsSmO2
_symmetry_space_group_name_H-M   'P 1'
_cell_length_a   3.62646364
_cell_length_b   3.62646282
_cell_length_c   13.74930084
_cell_angle_alpha   90.00000000
_cell_angle_beta   90.00000000
_cell_angle_gamma   120.00001676
_symmetry_Int_Tables_number   1
_chemical_formula_structural   CsSmO2
_chemical_formula_sum   'Cs2 Sm2 O4'
_cell_volume   156.59494189
_cell_formula_units_Z   2
loop_
 _symmetry_equiv_pos_site_id
 _symmetry_equiv_pos_as_xyz
  1  'x, y, z'
loop_
 _atom_site_type_symbol
 _atom_site_label
 _atom_site_symmetry_multiplicity
 _atom_site_fract_x
 _atom_site_fract_y
 _atom_site_fract_z
 _atom_site_occupancy
  Cs  Cs0  1  0.33333300  0.66666700  0.75000000  1
  Cs  Cs1  1  0.66666700  0.33333300  0.25000000  1
  Sm  Sm0  1  0.00000000  0.00000000  0.50000000  1
  Sm  Sm1  1  0.00000000  0.00000000  0.00000000  1
  O  O0  1  0.33333300  0.66666700  0.08434178  1
  O  O1  1  0.66666700  0.33333300  0.58434078  1
  O  O2  1  0.33333300  0.66666700  0.41565922  1
  O  O3  1  0.66666700  0.33333300  0.91565922  1
loop_
_geom_bond_atom_site_label_1
_geom_bond_atom_site_label_2
_geom_bond_distance
_geom_bond_site_symmetry_2
Cs0 O1 3.093807 1_565
Cs0 O3 3.093807 1_565
Cs0 O1 3.093808 1_455
Cs0 O3 3.093808 1_455
Cs0 O3 3.093812 1_555
Cs0 O1 3.093812 1_555
Cs1 O0 3.093797 1_545
Cs1 O0 3.093798 1_655
Cs1 O0 3.093802 1_555
Cs1 O2 3.093807 1_545
Cs1 O2 3.093808 1_655
Cs1 O2 3.093812 1_555
O0 Sm1 2.393429 1_565
O0 Sm1 2.393431 1_555
O0 Sm1 2.393432 1_665
O1 Sm0 2.393423 1_655
O1 Sm0 2.393425 1_665
O1 Sm0 2.393425 1_555
O2 Sm0 2.393423 1_565
O2 Sm0 2.393425 1_555
O2 Sm0 2.393425 1_665
O3 Sm1 2.393423 1_656
O3 Sm1 2.393425 1_666
O3 Sm1 2.393425 1_556
