# generated using pymatgen
data_Li5Mn8(BO3)8
_symmetry_space_group_name_H-M   'P 1'
_cell_length_a   5.32507300
_cell_length_b   9.10669990
_cell_length_c   10.32816999
_cell_angle_alpha   90.34111784
_cell_angle_beta   91.05397266
_cell_angle_gamma   90.02541180
_symmetry_Int_Tables_number   1
_chemical_formula_structural   Li5Mn8(BO3)8
_chemical_formula_sum   'Li5 Mn8 B8 O24'
_cell_volume   500.75895052
_cell_formula_units_Z   1
loop_
 _symmetry_equiv_pos_site_id
 _symmetry_equiv_pos_as_xyz
  1  'x, y, z'
loop_
 _atom_site_type_symbol
 _atom_site_label
 _atom_site_symmetry_multiplicity
 _atom_site_fract_x
 _atom_site_fract_y
 _atom_site_fract_z
 _atom_site_occupancy
  Li  Li0  1  0.86712400  0.98518000  0.33034100  1
  Li  Li1  1  0.83927700  0.00829600  0.82574900  1
  Li  Li2  1  0.36998200  0.51817900  0.84395100  1
  Li  Li3  1  0.33953700  0.48465700  0.31450500  1
  Li  Li4  1  0.15572400  0.01257200  0.59228400  1
  Mn  Mn0  1  0.85630600  0.32128800  0.86743800  1
  Mn  Mn1  1  0.83500100  0.63805600  0.37541000  1
  Mn  Mn2  1  0.66170500  0.15589300  0.11810400  1
  Mn  Mn3  1  0.64472900  0.81205200  0.62197700  1
  Mn  Mn4  1  0.34980600  0.17133200  0.36820800  1
  Mn  Mn5  1  0.34067100  0.85878600  0.88148100  1
  Mn  Mn6  1  0.17297700  0.35677900  0.61421900  1
  Mn  Mn7  1  0.13701000  0.68510700  0.12201500  1
  B  B0  1  0.83156100  0.32313600  0.37355000  1
  B  B1  1  0.83538100  0.66785000  0.87043800  1
  B  B2  1  0.66629900  0.81109100  0.13255700  1
  B  B3  1  0.66716900  0.16395700  0.63054000  1
  B  B4  1  0.32430400  0.82657300  0.37933700  1
  B  B5  1  0.33144500  0.18054000  0.86535700  1
  B  B6  1  0.16266600  0.33042700  0.11546300  1
  B  B7  1  0.17002000  0.69288000  0.63357800  1
  O  O0  1  0.93211600  0.29796000  0.04999100  1
  O  O1  1  0.93759500  0.69851000  0.57087800  1
  O  O2  1  0.78346100  0.68009900  0.17051600  1
  O  O3  1  0.78049300  0.94240900  0.15066700  1
  O  O4  1  0.80327900  0.28779400  0.67819800  1
  O  O5  1  0.78680600  0.02918500  0.63321400  1
  O  O6  1  0.74846900  0.18435200  0.33304100  1
  O  O7  1  0.72678500  0.53521800  0.86431500  1
  O  O8  1  0.71880300  0.79558300  0.81471900  1
  O  O9  1  0.66689100  0.43775800  0.37774300  1
  O  O10  1  0.58827400  0.16379300  0.89842700  1
  O  O11  1  0.56776300  0.80574100  0.43165000  1
  O  O12  1  0.43036700  0.80104200  0.07347500  1
  O  O13  1  0.42179600  0.17820200  0.58428600  1
  O  O14  1  0.29673600  0.21196400  0.16500000  1
  O  O15  1  0.28883100  0.56653700  0.66108000  1
  O  O16  1  0.28536500  0.82893100  0.66708300  1
  O  O17  1  0.23995200  0.47046400  0.13411300  1
  O  O18  1  0.21705600  0.70383800  0.31479200  1
  O  O19  1  0.23563900  0.31984000  0.83667100  1
  O  O20  1  0.20106200  0.95607600  0.39451600  1
  O  O21  1  0.17906800  0.06053700  0.86175500  1
  O  O22  1  0.08570600  0.34425100  0.41038100  1
  O  O23  1  0.07148600  0.69336000  0.92970300  1
loop_
_geom_bond_atom_site_label_1
_geom_bond_atom_site_label_2
_geom_bond_distance
_geom_bond_site_symmetry_2
Li0 O20 1.905483 1_655
Li0 O6 1.921182 1_565
Li0 O3 1.941108 1_555
Li0 O11 2.526998 1_555
Li1 O21 1.900255 1_655
Li1 O5 2.013116 1_555
Li1 O8 2.042188 1_545
Li1 O10 2.093118 1_555
Li2 O7 1.913889 1_555
Li2 O19 1.942961 1_555
Li2 O15 1.981918 1_555
Li2 O23 2.427594 1_555
Li3 O9 1.899942 1_555
Li3 O17 1.931284 1_555
Li3 O18 2.100151 1_555
Li3 O22 2.122556 1_555
Li4 O16 1.966464 1_545
Li4 O5 2.022613 1_455
Li4 O13 2.072025 1_555
Li4 O20 2.121525 1_545
Mn0 O0 1.933862 1_556
Mn0 O4 1.991325 1_555
Mn0 O19 2.050619 1_655
Mn0 O10 2.053570 1_555
Mn0 O7 2.067203 1_555
Mn1 O9 2.031994 1_555
Mn1 O1 2.150149 1_555
Mn1 O2 2.165297 1_555
Mn1 O11 2.171676 1_555
Mn1 O18 2.222645 1_655
Mn2 O0 2.070903 1_555
Mn2 O3 2.072183 1_545
Mn2 O14 2.074858 1_555
Mn2 O6 2.272428 1_555
Mn2 O10 2.296767 1_554
Mn3 O1 1.950647 1_555
Mn3 O16 1.983652 1_555
Mn3 O11 2.001092 1_555
Mn3 O8 2.028689 1_555
Mn3 O5 2.118620 1_565
Mn4 O20 2.134656 1_545
Mn4 O14 2.146887 1_555
Mn4 O22 2.159543 1_555
Mn4 O6 2.163650 1_555
Mn4 O13 2.257910 1_555
Mn5 O21 2.038892 1_565
Mn5 O12 2.101080 1_556
Mn5 O23 2.146054 1_555
Mn5 O8 2.215540 1_555
Mn5 O16 2.243373 1_555
Mn6 O15 2.059293 1_555
Mn6 O13 2.122927 1_555
Mn6 O22 2.149945 1_555
Mn6 O4 2.181437 1_455
Mn6 O19 2.341839 1_555
Mn7 O2 1.957641 1_455
Mn7 O12 1.959584 1_555
Mn7 O23 2.012166 1_554
Mn7 O17 2.034270 1_555
Mn7 O18 2.034618 1_555
B0 O9 1.364566 1_555
B0 O6 1.398061 1_555
B0 O22 1.411796 1_655
B1 O7 1.339556 1_555
B1 O23 1.406810 1_655
B1 O8 1.437049 1_555
B2 O3 1.351807 1_555
B2 O12 1.389312 1_555
B2 O2 1.401142 1_555
B3 O5 1.383262 1_555
B3 O13 1.389334 1_555
B3 O4 1.420902 1_555
B4 O20 1.359557 1_555
B4 O11 1.408663 1_555
B4 O18 1.412937 1_555
B5 O21 1.360766 1_555
B5 O19 1.398856 1_555
B5 O10 1.412076 1_555
B6 O17 1.351480 1_555
B6 O14 1.388922 1_555
B6 O0 1.420798 1_455
B7 O15 1.342645 1_555
B7 O1 1.387372 1_455
B7 O16 1.420731 1_555
