# generated using pymatgen
data_Zr6Nb2O17
_symmetry_space_group_name_H-M   'P 1'
_cell_length_a   21.18157278
_cell_length_b   21.18157278
_cell_length_c   5.03212662
_cell_angle_alpha   83.93717474
_cell_angle_beta   83.93717474
_cell_angle_gamma   14.46093887
_symmetry_Int_Tables_number   1
_chemical_formula_structural   Zr6Nb2O17
_chemical_formula_sum   'Zr12 Nb4 O34'
_cell_volume   560.59051975
_cell_formula_units_Z   2
loop_
 _symmetry_equiv_pos_site_id
 _symmetry_equiv_pos_as_xyz
  1  'x, y, z'
loop_
 _atom_site_type_symbol
 _atom_site_label
 _atom_site_symmetry_multiplicity
 _atom_site_fract_x
 _atom_site_fract_y
 _atom_site_fract_z
 _atom_site_occupancy
  Zr  Zr0  1  0.73784100  0.26215900  0.50000000  1
  Zr  Zr1  1  0.23502000  0.76498000  0.00000000  1
  Zr  Zr2  1  0.81273000  0.05486400  0.04255900  1
  Zr  Zr3  1  0.32693700  0.41495600  0.10998900  1
  Zr  Zr4  1  0.83143500  0.91164900  0.63791800  1
  Zr  Zr5  1  0.19530100  0.42192400  0.69840300  1
  Zr  Zr6  1  0.21889000  0.28200600  0.23910200  1
  Zr  Zr7  1  0.71799400  0.78111000  0.76089800  1
  Zr  Zr8  1  0.57807600  0.80469900  0.30159700  1
  Zr  Zr9  1  0.08835100  0.16856500  0.36208200  1
  Zr  Zr10  1  0.58504400  0.67306300  0.89001100  1
  Zr  Zr11  1  0.94513600  0.18727000  0.95744100  1
  Nb  Nb0  1  0.31322700  0.55355700  0.58257300  1
  Nb  Nb1  1  0.70100300  0.92063500  0.16288800  1
  Nb  Nb2  1  0.07936500  0.29899700  0.83711200  1
  Nb  Nb3  1  0.44644300  0.68677300  0.41742700  1
  O  O0  1  0.38089700  0.56501000  0.33229300  1
  O  O1  1  0.88814400  0.06345900  0.21473800  1
  O  O2  1  0.05707600  0.86935900  0.75963200  1
  O  O3  1  0.54628300  0.38005400  0.80122800  1
  O  O4  1  0.98381400  0.84784300  0.40488200  1
  O  O5  1  0.47059200  0.35827000  0.28717900  1
  O  O6  1  0.08935300  0.71698600  0.89093500  1
  O  O7  1  0.57394000  0.23223000  0.79486400  1
  O  O8  1  0.66798900  0.04647400  0.29081800  1
  O  O9  1  0.15980800  0.55193200  0.47605600  1
  O  O10  1  0.99826400  0.68272500  0.95200600  1
  O  O11  1  0.50673700  0.17356100  0.85540300  1
  O  O12  1  0.82584700  0.77826400  0.51564000  1
  O  O13  1  0.35629700  0.24725900  0.33467200  1
  O  O14  1  0.47224200  0.08760400  0.92188400  1
  O  O15  1  0.94933400  0.61304300  0.02676600  1
  O  O16  1  0.57415000  0.91291400  0.39094900  1
  O  O17  1  0.08708600  0.42585000  0.60905100  1
  O  O18  1  0.91239600  0.52775800  0.07811600  1
  O  O19  1  0.38695700  0.05066600  0.97323400  1
  O  O20  1  0.22173600  0.17415300  0.48436000  1
  O  O21  1  0.75274100  0.64370300  0.66532800  1
  O  O22  1  0.31727500  0.00173600  0.04799400  1
  O  O23  1  0.82643900  0.49326300  0.14459700  1
  O  O24  1  0.95352600  0.33201100  0.70918200  1
  O  O25  1  0.44806800  0.84019200  0.52394400  1
  O  O26  1  0.28301400  0.91064700  0.10906500  1
  O  O27  1  0.76777000  0.42606000  0.20513600  1
  O  O28  1  0.64173000  0.52940800  0.71282100  1
  O  O29  1  0.15215700  0.01618600  0.59511800  1
  O  O30  1  0.13064100  0.94292400  0.24036800  1
  O  O31  1  0.61994600  0.45371700  0.19877200  1
  O  O32  1  0.43499000  0.61910300  0.66770700  1
  O  O33  1  0.93654100  0.11185600  0.78526200  1
loop_
_geom_bond_atom_site_label_1
_geom_bond_atom_site_label_2
_geom_bond_distance
_geom_bond_site_symmetry_2
Nb0 O0 1.981689 1_555
Nb0 O5 1.995154 1_555
Nb0 O3 2.060239 1_555
Nb0 O4 2.061455 1_455
Nb0 O6 2.160443 1_555
Nb0 O7 2.209407 1_555
Nb0 O2 2.219860 1_555
Nb1 O12 1.911772 1_555
Nb1 O13 2.006185 1_565
Nb1 O15 2.097135 1_555
Nb1 O10 2.106003 1_554
Nb1 O14 2.145939 1_564
Nb1 O8 2.160039 1_565
Nb1 O11 2.220070 1_564
Nb2 O20 1.911772 1_555
Nb2 O21 2.006185 1_455
Nb2 O19 2.097135 1_555
Nb2 O22 2.106003 1_556
Nb2 O18 2.145939 1_456
Nb2 O24 2.160039 1_455
Nb2 O23 2.220070 1_456
Nb3 O32 1.981689 1_555
Nb3 O28 1.995154 1_555
Nb3 O31 2.060239 1_555
Nb3 O29 2.061455 1_565
Nb3 O26 2.160443 1_555
Nb3 O27 2.209407 1_555
Nb3 O30 2.219860 1_555
O0 Zr1 2.129187 1_555
O0 Zr0 2.302701 1_555
O1 Zr2 2.055325 1_555
O1 Zr0 2.066723 1_555
O1 Zr1 2.219894 1_645
O2 Zr2 2.119938 1_466
O2 Zr1 2.194825 1_556
O2 Zr0 2.696256 1_465
O3 Zr0 2.207862 1_555
O3 Zr2 2.273111 1_556
O3 Zr1 2.677842 1_556
O4 Zr2 2.148815 1_565
O4 Zr4 2.169476 1_555
O5 Zr3 2.183340 1_555
O5 Zr2 2.219480 1_555
O6 Zr3 2.191030 1_556
O6 Zr2 2.265349 1_466
O6 Zr4 2.281210 1_455
O7 Zr2 2.189281 1_556
O7 Zr4 2.231366 1_545
O7 Zr3 2.279318 1_556
O8 Zr4 2.066026 1_545
O8 Zr3 2.150951 1_555
O9 Zr3 2.050249 1_555
O9 Zr4 2.139271 1_455
O9 Zr5 2.217614 1_555
O10 Zr4 2.207852 1_555
O10 Zr3 2.239381 1_656
O10 Zr5 2.297334 1_655
O11 Zr5 2.197936 1_555
O11 Zr3 2.220447 1_556
O11 Zr4 2.253128 1_545
O12 Zr5 2.172470 1_655
O12 Zr7 2.428820 1_555
O13 Zr5 2.084549 1_555
O13 Zr6 2.305726 1_555
O14 Zr7 2.161735 1_545
O14 Zr5 2.255048 1_555
O14 Zr6 2.255302 1_556
O15 Zr5 2.238506 1_654
O15 Zr7 2.251712 1_554
O15 Zr6 2.253983 1_655
O16 Zr7 2.042053 1_555
O16 Zr6 2.085688 1_565
O16 Zr8 2.302989 1_555
O17 Zr6 2.042053 1_555
O17 Zr7 2.085688 1_455
O17 Zr5 2.302989 1_555
O18 Zr6 2.161735 1_655
O18 Zr8 2.255048 1_555
O18 Zr7 2.255302 1_554
O19 Zr8 2.238506 1_546
O19 Zr6 2.251712 1_556
O19 Zr7 2.253983 1_545
O20 Zr8 2.172470 1_545
O20 Zr6 2.428820 1_555
O21 Zr8 2.084549 1_555
O21 Zr7 2.305726 1_555
O22 Zr9 2.207852 1_555
O22 Zr10 2.239381 1_544
O22 Zr8 2.297334 1_545
O23 Zr8 2.197936 1_555
O23 Zr10 2.220447 1_554
O23 Zr9 2.253128 1_655
O24 Zr9 2.066026 1_655
O24 Zr10 2.150951 1_555
O25 Zr10 2.050249 1_555
O25 Zr9 2.139271 1_565
O25 Zr8 2.217614 1_555
O26 Zr10 2.191030 1_554
O26 Zr11 2.265349 1_464
O26 Zr9 2.281210 1_565
O27 Zr11 2.189281 1_554
O27 Zr9 2.231366 1_655
O27 Zr10 2.279318 1_554
O28 Zr10 2.183340 1_555
O28 Zr11 2.219480 1_555
O29 Zr11 2.148815 1_455
O29 Zr9 2.169476 1_555
O30 Zr11 2.119938 1_464
O30 Zr1 2.194825 1_555
O30 Zr0 2.696256 1_465
O31 Zr0 2.207862 1_555
O31 Zr11 2.273111 1_554
O31 Zr1 2.677842 1_555
O32 Zr1 2.129187 1_556
O32 Zr0 2.302701 1_555
O33 Zr11 2.055325 1_555
O33 Zr0 2.066723 1_555
O33 Zr1 2.219894 1_646
