# generated using pymatgen
data_Li5TiV3O8
_symmetry_space_group_name_H-M   'P 1'
_cell_length_a   6.59122899
_cell_length_b   6.59122899
_cell_length_c   6.74913687
_cell_angle_alpha   72.85805405
_cell_angle_beta   72.85805405
_cell_angle_gamma   37.15427537
_symmetry_Int_Tables_number   1
_chemical_formula_structural   Li5TiV3O8
_chemical_formula_sum   'Li5 Ti1 V3 O8'
_cell_volume   168.31052402
_cell_formula_units_Z   1
loop_
 _symmetry_equiv_pos_site_id
 _symmetry_equiv_pos_as_xyz
  1  'x, y, z'
loop_
 _atom_site_type_symbol
 _atom_site_label
 _atom_site_symmetry_multiplicity
 _atom_site_fract_x
 _atom_site_fract_y
 _atom_site_fract_z
 _atom_site_occupancy
  Li  Li0  1  0.93847700  0.93847700  0.36620000  1
  Li  Li1  1  0.80866800  0.80866800  0.99388400  1
  Li  Li2  1  0.17285400  0.17285400  0.99827400  1
  Li  Li3  1  0.49806500  0.49806500  0.98974200  1
  Li  Li4  1  0.05268800  0.05268800  0.63097000  1
  Ti  Ti0  1  0.27923600  0.27923600  0.31098700  1
  V  V0  1  0.38346300  0.38346300  0.67922400  1
  V  V1  1  0.71259900  0.71259900  0.67300500  1
  V  V2  1  0.60415800  0.60415800  0.31804900  1
  O  O0  1  0.88272100  0.88272100  0.67980500  1
  O  O1  1  0.43066800  0.43066800  0.34095700  1
  O  O2  1  0.77662500  0.77662500  0.32492200  1
  O  O3  1  0.33483500  0.33483500  0.01412000  1
  O  O4  1  0.22157300  0.22157300  0.64742500  1
  O  O5  1  0.54637300  0.54637300  0.65982800  1
  O  O6  1  0.64952200  0.64952200  0.99275000  1
  O  O7  1  0.11764700  0.11764700  0.31941500  1
loop_
_geom_bond_atom_site_label_1
_geom_bond_atom_site_label_2
_geom_bond_distance
_geom_bond_site_symmetry_2
Li0 O0 2.012013 1_555
Li0 O1 2.111449 1_655
Li0 O1 2.111449 1_565
Li0 O2 2.125618 1_555
Li0 O7 2.161587 1_665
Li1 O6 1.991017 1_555
Li1 O0 2.032196 1_555
Li1 O3 2.136040 1_566
Li1 O3 2.136040 1_656
Li1 O2 2.143768 1_556
Li2 O3 2.059812 1_556
Li2 O7 2.060045 1_556
Li2 O6 2.121905 1_545
Li2 O6 2.121905 1_455
Li2 O4 2.254157 1_555
Li3 O6 1.898956 1_555
Li3 O3 1.994636 1_556
Li3 O5 2.118117 1_555
Li3 O1 2.255346 1_556
Li4 O7 2.004719 1_555
Li4 O0 2.045483 1_445
Li4 O5 2.108064 1_455
Li4 O5 2.108064 1_545
Li4 O4 2.147446 1_555
O0 V0 2.099860 1_655
O0 V0 2.099860 1_565
O0 V1 2.140490 1_555
O1 Ti0 1.964556 1_555
O1 V2 2.124873 1_555
O1 V0 2.173157 1_555
O2 Ti0 2.101745 1_565
O2 Ti0 2.101745 1_655
O2 V2 2.169949 1_555
O2 V1 2.233888 1_555
O3 Ti0 1.905627 1_555
O3 V0 2.150323 1_554
O4 V0 2.099576 1_555
O4 V1 2.107053 1_545
O4 V1 2.107053 1_455
O4 Ti0 2.158156 1_555
O5 V0 1.998829 1_555
O5 V1 2.106442 1_555
O5 V2 2.192373 1_555
O6 V1 2.054373 1_555
O6 V2 2.089867 1_556
O7 Ti0 2.002194 1_555
O7 V2 2.106844 1_455
O7 V2 2.106844 1_545
