# generated using pymatgen
data_Li2Mn(PO3)4
_symmetry_space_group_name_H-M   'P 1'
_cell_length_a   11.14232900
_cell_length_b   7.49057200
_cell_length_c   13.21386225
_cell_angle_alpha   74.52130082
_cell_angle_beta   90.00000000
_cell_angle_gamma   90.00000000
_symmetry_Int_Tables_number   1
_chemical_formula_structural   Li2Mn(PO3)4
_chemical_formula_sum   'Li8 Mn4 P16 O48'
_cell_volume   1062.85983575
_cell_formula_units_Z   4
loop_
 _symmetry_equiv_pos_site_id
 _symmetry_equiv_pos_as_xyz
  1  'x, y, z'
loop_
 _atom_site_type_symbol
 _atom_site_label
 _atom_site_symmetry_multiplicity
 _atom_site_fract_x
 _atom_site_fract_y
 _atom_site_fract_z
 _atom_site_occupancy
  Li  Li0  1  0.90302900  0.62849200  0.26234200  1
  Li  Li1  1  0.40302900  0.37150800  0.23765800  1
  Li  Li2  1  0.05691700  0.33678200  0.46942700  1
  Li  Li3  1  0.55691700  0.66321800  0.03057300  1
  Li  Li4  1  0.44308300  0.33678200  0.96942700  1
  Li  Li5  1  0.94308300  0.66321800  0.53057300  1
  Li  Li6  1  0.59697100  0.62849200  0.76234200  1
  Li  Li7  1  0.09697100  0.37150800  0.73765800  1
  Mn  Mn0  1  0.74040200  0.02966200  0.66770400  1
  Mn  Mn1  1  0.24040200  0.97033800  0.83229600  1
  Mn  Mn2  1  0.75959800  0.02966200  0.16770400  1
  Mn  Mn3  1  0.25959800  0.97033800  0.33229600  1
  P  P0  1  0.27502000  0.96301400  0.08160900  1
  P  P1  1  0.61621100  0.63124400  0.29823400  1
  P  P2  1  0.25470300  0.59788300  0.02410900  1
  P  P3  1  0.75470300  0.40211700  0.47589100  1
  P  P4  1  0.72498000  0.03698600  0.91839100  1
  P  P5  1  0.11621100  0.36875600  0.20176600  1
  P  P6  1  0.95535300  0.99088100  0.82354800  1
  P  P7  1  0.45535300  0.00911900  0.67645200  1
  P  P8  1  0.77502000  0.03698600  0.41839100  1
  P  P9  1  0.22498000  0.96301400  0.58160900  1
  P  P10  1  0.54464700  0.99088100  0.32354800  1
  P  P11  1  0.04464700  0.00911900  0.17645200  1
  P  P12  1  0.88378900  0.63124400  0.79823400  1
  P  P13  1  0.24529700  0.59788300  0.52410900  1
  P  P14  1  0.74529700  0.40211700  0.97589100  1
  P  P15  1  0.38378900  0.36875600  0.70176600  1
  O  O0  1  0.24189000  0.75057900  0.08829900  1
  O  O1  1  0.64692300  0.53551900  0.42142200  1
  O  O2  1  0.54772600  0.50914500  0.24623100  1
  O  O3  1  0.87677200  0.49689800  0.44813000  1
  O  O4  1  0.72548300  0.32537200  0.58941800  1
  O  O5  1  0.37677200  0.50310200  0.05187000  1
  O  O6  1  0.26844900  0.28086300  0.75306500  1
  O  O7  1  0.47744500  0.21719400  0.68404800  1
  O  O8  1  0.04772600  0.49085500  0.25376900  1
  O  O9  1  0.65976700  0.03596500  0.82026600  1
  O  O10  1  0.33086900  0.05675700  0.97622800  1
  O  O11  1  0.14692300  0.46448100  0.07857800  1
  O  O12  1  0.74189000  0.24942100  0.41170100  1
  O  O13  1  0.06842200  0.06123300  0.86177300  1
  O  O14  1  0.85799500  0.95209600  0.91780700  1
  O  O15  1  0.90441600  0.10575100  0.72208000  1
  O  O16  1  0.40441600  0.89424900  0.77792000  1
  O  O17  1  0.77451700  0.32537200  0.08941800  1
  O  O18  1  0.35799500  0.04790400  0.58219300  1
  O  O19  1  0.56842200  0.93876700  0.63822700  1
  O  O20  1  0.23155100  0.28086300  0.25306500  1
  O  O21  1  0.02255500  0.21719400  0.18404800  1
  O  O22  1  0.83086900  0.94324300  0.52377200  1
  O  O23  1  0.15976700  0.96403500  0.67973400  1
  O  O24  1  0.84023300  0.03596500  0.32026600  1
  O  O25  1  0.16913100  0.05675700  0.47622800  1
  O  O26  1  0.97744500  0.78280600  0.81595200  1
  O  O27  1  0.76844900  0.71913700  0.74693500  1
  O  O28  1  0.43157800  0.06123300  0.36177300  1
  O  O29  1  0.64200500  0.95209600  0.41780700  1
  O  O30  1  0.22548300  0.67462800  0.91058200  1
  O  O31  1  0.59558400  0.10575100  0.22208000  1
  O  O32  1  0.09558400  0.89424900  0.27792000  1
  O  O33  1  0.14200500  0.04790400  0.08219300  1
  O  O34  1  0.93157800  0.93876700  0.13822700  1
  O  O35  1  0.25811000  0.75057900  0.58829900  1
  O  O36  1  0.85307700  0.53551900  0.92142200  1
  O  O37  1  0.66913100  0.94324300  0.02377200  1
  O  O38  1  0.34023300  0.96403500  0.17973400  1
  O  O39  1  0.95227400  0.50914500  0.74623100  1
  O  O40  1  0.52255500  0.78280600  0.31595200  1
  O  O41  1  0.73155100  0.71913700  0.24693500  1
  O  O42  1  0.62322800  0.49689800  0.94813000  1
  O  O43  1  0.27451700  0.67462800  0.41058200  1
  O  O44  1  0.12322800  0.50310200  0.55187000  1
  O  O45  1  0.45227400  0.49085500  0.75376900  1
  O  O46  1  0.35307700  0.46448100  0.57857800  1
  O  O47  1  0.75811000  0.24942100  0.91170100  1
loop_
_geom_bond_atom_site_label_1
_geom_bond_atom_site_label_2
_geom_bond_distance
_geom_bond_site_symmetry_2
Li0 O8 1.933256 1_655
Li0 O41 2.019733 1_555
Li0 O3 2.406759 1_555
Li0 O34 2.481534 1_555
Li1 O2 1.933256 1_555
Li1 O20 2.019733 1_555
Li1 O5 2.406759 1_555
Li1 O28 2.481534 1_555
Li2 O44 2.002299 1_555
Li2 O3 2.316570 1_455
Li2 O25 2.422907 1_555
Li3 O42 2.002299 1_554
Li3 O5 2.316570 1_555
Li3 O37 2.422907 1_555
Li4 O5 2.002299 1_556
Li4 O42 2.316570 1_555
Li4 O10 2.422907 1_555
Li5 O3 2.002299 1_555
Li5 O44 2.316570 1_655
Li5 O22 2.422907 1_555
Li6 O45 1.933256 1_555
Li6 O27 2.019733 1_555
Li6 O42 2.406759 1_555
Li6 O19 2.481534 1_555
Li7 O39 1.933256 1_455
Li7 O6 2.019733 1_555
Li7 O44 2.406759 1_555
Li7 O13 2.481534 1_555
Mn0 O15 2.097485 1_555
Mn0 O19 2.104489 1_545
Mn0 O4 2.186570 1_555
Mn0 O9 2.219066 1_555
Mn0 O27 2.303099 1_545
Mn0 O22 2.389451 1_545
Mn1 O16 2.097485 1_555
Mn1 O13 2.104489 1_565
Mn1 O30 2.186570 1_555
Mn1 O23 2.219066 1_555
Mn1 O6 2.303099 1_565
Mn1 O10 2.389451 1_565
Mn2 O31 2.097485 1_555
Mn2 O34 2.104489 1_545
Mn2 O17 2.186570 1_555
Mn2 O24 2.219066 1_555
Mn2 O41 2.303099 1_545
Mn2 O37 2.389451 1_545
Mn3 O32 2.097485 1_555
Mn3 O28 2.104489 1_565
Mn3 O43 2.186570 1_555
Mn3 O38 2.219066 1_555
Mn3 O20 2.303099 1_565
Mn3 O25 2.389451 1_565
O0 P2 1.601838 1_555
O0 P0 1.612795 1_555
O1 P3 1.604641 1_555
O1 P1 1.630320 1_555
O2 P1 1.492117 1_555
O3 P3 1.532829 1_555
O4 P3 1.492167 1_555
O5 P2 1.532829 1_555
O6 P15 1.518671 1_555
O7 P15 1.604540 1_555
O7 P7 1.607298 1_555
O8 P5 1.492117 1_555
O9 P4 1.488131 1_555
O10 P0 1.515729 1_546
O11 P2 1.604641 1_555
O11 P5 1.630320 1_555
O12 P3 1.601838 1_555
O12 P8 1.612795 1_555
O13 P6 1.504038 1_445
O14 P4 1.613576 1_565
O14 P6 1.618448 1_555
O15 P6 1.498133 1_545
O16 P7 1.498133 1_565
O17 P14 1.492167 1_554
O18 P9 1.613576 1_545
O18 P7 1.618448 1_555
O19 P7 1.504038 1_565
O20 P5 1.518671 1_555
O21 P5 1.604540 1_555
O21 P11 1.607298 1_555
O22 P8 1.515729 1_565
O23 P9 1.488131 1_555
O24 P8 1.488131 1_555
O25 P9 1.515729 1_545
O26 P12 1.604540 1_555
O26 P6 1.607298 1_555
O27 P12 1.518671 1_555
O28 P10 1.504038 1_545
O29 P8 1.613576 1_565
O29 P10 1.618448 1_555
O30 P2 1.492167 1_556
O31 P10 1.498133 1_545
O32 P11 1.498133 1_565
O33 P0 1.613576 1_545
O33 P11 1.618448 1_555
O34 P11 1.504038 1_665
O35 P13 1.601838 1_555
O35 P9 1.612795 1_555
O36 P14 1.604641 1_555
O36 P12 1.630320 1_555
O37 P4 1.515729 1_564
O38 P0 1.488131 1_555
O39 P12 1.492117 1_555
O40 P1 1.604540 1_555
O40 P10 1.607298 1_555
O41 P1 1.518671 1_555
O42 P14 1.532829 1_555
O43 P13 1.492167 1_555
O44 P13 1.532829 1_555
O45 P15 1.492117 1_555
O46 P13 1.604641 1_555
O46 P15 1.630320 1_555
O47 P14 1.601838 1_555
O47 P4 1.612795 1_555
