# generated using pymatgen
data_Ni6OF11
_symmetry_space_group_name_H-M   'P 1'
_cell_length_a   3.09575000
_cell_length_b   4.73515600
_cell_length_c   13.91462356
_cell_angle_alpha   89.59329055
_cell_angle_beta   90.00000000
_cell_angle_gamma   90.00000000
_symmetry_Int_Tables_number   1
_chemical_formula_structural   Ni6OF11
_chemical_formula_sum   'Ni6 O1 F11'
_cell_volume   203.96736860
_cell_formula_units_Z   1
loop_
 _symmetry_equiv_pos_site_id
 _symmetry_equiv_pos_as_xyz
  1  'x, y, z'
loop_
 _atom_site_type_symbol
 _atom_site_label
 _atom_site_symmetry_multiplicity
 _atom_site_fract_x
 _atom_site_fract_y
 _atom_site_fract_z
 _atom_site_occupancy
  Ni  Ni0  1  0.00000000  0.98804600  0.00456200  1
  Ni  Ni1  1  0.50000000  0.51281000  0.16390400  1
  Ni  Ni2  1  0.00000000  0.00443800  0.33251700  1
  Ni  Ni3  1  0.50000000  0.50075700  0.49999300  1
  Ni  Ni4  1  0.00000000  0.99916500  0.66687400  1
  Ni  Ni5  1  0.50000000  0.49590400  0.83381500  1
  O  O0  1  0.50000000  0.81245500  0.06927200  1
  F  F0  1  0.00000000  0.31699400  0.09721900  1
  F  F1  1  0.00000000  0.68303200  0.23800800  1
  F  F2  1  0.50000000  0.18769700  0.26070000  1
  F  F3  1  0.50000000  0.82027900  0.40298500  1
  F  F4  1  0.00000000  0.31793800  0.42973300  1
  F  F5  1  0.00000000  0.68259000  0.57005100  1
  F  F6  1  0.50000000  0.18174900  0.59633800  1
  F  F7  1  0.50000000  0.81636500  0.73693900  1
  F  F8  1  0.00000000  0.31737400  0.76275700  1
  F  F9  1  0.00000000  0.68242100  0.90270300  1
  F  F10  1  0.50000000  0.17998600  0.93163400  1
loop_
_geom_bond_atom_site_label_1
_geom_bond_atom_site_label_2
_geom_bond_distance
_geom_bond_site_symmetry_2
Ni0 O0 1.971636 1_555
Ni0 O0 1.971636 1_455
Ni1 O0 1.928869 1_555
F0 Ni0 2.029027 1_545
F0 Ni1 2.031959 1_555
F0 Ni1 2.031959 1_455
F1 Ni2 2.018413 1_565
F1 Ni1 2.029932 1_555
F1 Ni1 2.029932 1_455
F2 Ni2 2.033526 1_655
F2 Ni2 2.033526 1_555
F2 Ni1 2.038281 1_555
F3 Ni3 2.020439 1_555
F3 Ni2 2.026240 1_665
F3 Ni2 2.026240 1_565
F4 Ni2 2.015447 1_555
F4 Ni3 2.028081 1_555
F4 Ni3 2.028081 1_455
F5 Ni4 2.022589 1_555
F5 Ni3 2.024713 1_555
F5 Ni3 2.024713 1_455
F6 Ni3 2.012521 1_555
F6 Ni4 2.023524 1_645
F6 Ni4 2.023524 1_545
F7 Ni4 2.020807 1_655
F7 Ni4 2.020807 1_555
F7 Ni5 2.022535 1_555
F8 Ni4 2.019633 1_545
F8 Ni5 2.024857 1_555
F8 Ni5 2.024857 1_455
F9 Ni5 2.026518 1_455
F9 Ni5 2.026518 1_555
F9 Ni0 2.032801 1_556
F10 Ni5 2.015318 1_555
F10 Ni0 2.058788 1_546
F10 Ni0 2.058788 1_646
