# generated using pymatgen
data_Na4CoO4
_symmetry_space_group_name_H-M   'P 1'
_cell_length_a   6.04844200
_cell_length_b   10.07274700
_cell_length_c   17.83544613
_cell_angle_alpha   88.91936810
_cell_angle_beta   90.00000000
_cell_angle_gamma   90.00000000
_symmetry_Int_Tables_number   1
_chemical_formula_structural   Na4CoO4
_chemical_formula_sum   'Na32 Co8 O32'
_cell_volume   1086.42105791
_cell_formula_units_Z   8
loop_
 _symmetry_equiv_pos_site_id
 _symmetry_equiv_pos_as_xyz
  1  'x, y, z'
loop_
 _atom_site_type_symbol
 _atom_site_label
 _atom_site_symmetry_multiplicity
 _atom_site_fract_x
 _atom_site_fract_y
 _atom_site_fract_z
 _atom_site_occupancy
  Na  Na0  1  0.58817500  0.14603900  0.14340000  1
  Na  Na1  1  0.41182500  0.14603900  0.64340000  1
  Na  Na2  1  0.11215000  0.19980300  0.85717400  1
  Na  Na3  1  0.88785000  0.19980300  0.35717400  1
  Na  Na4  1  0.18741800  0.25560700  0.21028900  1
  Na  Na5  1  0.81258200  0.25560700  0.71028900  1
  Na  Na6  1  0.66135800  0.32839500  0.49762100  1
  Na  Na7  1  0.33864200  0.32839500  0.99762100  1
  Na  Na8  1  0.40296100  0.38734800  0.76415700  1
  Na  Na9  1  0.59703900  0.38734800  0.26415700  1
  Na  Na10  1  0.87665700  0.36324600  0.08109100  1
  Na  Na11  1  0.12334300  0.36324600  0.58109100  1
  Na  Na12  1  0.68056600  0.54782800  0.94244000  1
  Na  Na13  1  0.31943400  0.54782800  0.44244000  1
  Na  Na14  1  0.87819900  0.59161600  0.74561700  1
  Na  Na15  1  0.12180100  0.59161600  0.24561700  1
  Na  Na16  1  0.15742000  0.65066800  0.99680300  1
  Na  Na17  1  0.84258000  0.65066800  0.49680300  1
  Na  Na18  1  0.64465500  0.68652600  0.32300900  1
  Na  Na19  1  0.35534500  0.68652600  0.82300900  1
  Na  Na20  1  0.19034800  0.69384200  0.62754400  1
  Na  Na21  1  0.80965200  0.69384200  0.12754400  1
  Na  Na22  1  0.66385300  0.80213100  0.63386400  1
  Na  Na23  1  0.33614700  0.80213100  0.13386400  1
  Na  Na24  1  0.16392300  0.84677500  0.32544000  1
  Na  Na25  1  0.83607700  0.84677500  0.82544000  1
  Na  Na26  1  0.33563900  0.90171500  0.49293500  1
  Na  Na27  1  0.66436100  0.90171500  0.99293500  1
  Na  Na28  1  0.69273200  0.94919400  0.25397400  1
  Na  Na29  1  0.30726800  0.94919400  0.75397400  1
  Na  Na30  1  0.83660900  0.97645900  0.45335000  1
  Na  Na31  1  0.16339100  0.97645900  0.95335000  1
  Co  Co0  1  0.56738000  0.06927100  0.86678500  1
  Co  Co1  1  0.43262000  0.06927100  0.36678500  1
  Co  Co2  1  0.07942500  0.47503100  0.87565000  1
  Co  Co3  1  0.92057500  0.47503100  0.37565000  1
  Co  Co4  1  0.59082800  0.52889300  0.62391900  1
  Co  Co5  1  0.40917200  0.52889300  0.12391900  1
  Co  Co6  1  0.05916900  0.95361100  0.62567000  1
  Co  Co7  1  0.94083100  0.95361100  0.12567000  1
  O  O0  1  0.85670800  0.04363100  0.88463200  1
  O  O1  1  0.14329200  0.04363100  0.38463200  1
  O  O2  1  0.48372500  0.15147400  0.77919100  1
  O  O3  1  0.51627500  0.15147400  0.27919100  1
  O  O4  1  0.58122300  0.13644900  0.44334500  1
  O  O5  1  0.41877700  0.13644900  0.94334500  1
  O  O6  1  0.98517800  0.12905700  0.12949300  1
  O  O7  1  0.01482200  0.12905700  0.62949300  1
  O  O8  1  0.50359900  0.35743800  0.62398700  1
  O  O9  1  0.49640100  0.35743800  0.12398700  1
  O  O10  1  0.97657200  0.39970000  0.95971600  1
  O  O11  1  0.02342800  0.39970000  0.45971600  1
  O  O12  1  0.98471000  0.38850300  0.29030800  1
  O  O13  1  0.01529000  0.38850300  0.79030800  1
  O  O14  1  0.37472200  0.48233700  0.88490700  1
  O  O15  1  0.62527800  0.48233700  0.38490700  1
  O  O16  1  0.11158500  0.54038400  0.11873200  1
  O  O17  1  0.88841500  0.54038400  0.61873200  1
  O  O18  1  0.50119700  0.61017800  0.70951600  1
  O  O19  1  0.49880300  0.61017800  0.20951600  1
  O  O20  1  0.52132200  0.62898000  0.04760000  1
  O  O21  1  0.47867800  0.62898000  0.54760000  1
  O  O22  1  0.02391000  0.64650000  0.36985500  1
  O  O23  1  0.97609000  0.64650000  0.86985500  1
  O  O24  1  0.53662200  0.89182800  0.36605600  1
  O  O25  1  0.46337800  0.89182800  0.86605600  1
  O  O26  1  0.96082200  0.85553100  0.54788200  1
  O  O27  1  0.03917800  0.85553100  0.04788200  1
  O  O28  1  0.02156500  0.85263100  0.20798200  1
  O  O29  1  0.97843500  0.85263100  0.70798200  1
  O  O30  1  0.35885200  0.92978600  0.62359400  1
  O  O31  1  0.64114800  0.92978600  0.12359400  1
loop_
_geom_bond_atom_site_label_1
_geom_bond_atom_site_label_2
_geom_bond_distance
_geom_bond_site_symmetry_2
Na0 O9 2.221353 1_555
Na0 O31 2.236357 1_545
Na0 O6 2.420410 1_555
Na0 O3 2.462252 1_555
Na1 O8 2.221353 1_555
Na1 O30 2.236357 1_545
Na1 O7 2.420410 1_555
Na1 O2 2.462252 1_555
Na2 O0 2.252213 1_455
Na2 O13 2.300597 1_555
Na2 O5 2.484330 1_555
Na2 O2 2.692219 1_555
Na2 O10 2.865379 1_455
Na3 O1 2.252213 1_655
Na3 O12 2.300597 1_555
Na3 O4 2.484330 1_555
Na3 O3 2.692219 1_555
Na3 O11 2.865379 1_655
Na4 O6 2.295004 1_455
Na4 O12 2.324662 1_455
Na4 O3 2.553073 1_555
Na4 O9 2.618100 1_555
Na5 O7 2.295004 1_655
Na5 O13 2.324662 1_655
Na5 O2 2.553073 1_555
Na5 O8 2.618100 1_555
Na6 O4 2.231758 1_555
Na6 O11 2.398024 1_655
Na6 O8 2.469925 1_555
Na6 O15 2.525032 1_555
Na7 O5 2.231758 1_555
Na7 O10 2.398024 1_455
Na7 O9 2.469925 1_556
Na7 O14 2.525032 1_555
Na8 O14 2.379178 1_555
Na8 O13 2.390815 1_555
Na8 O2 2.435445 1_555
Na8 O18 2.501621 1_555
Na8 O8 2.596087 1_555
Na9 O15 2.379178 1_555
Na9 O12 2.390815 1_555
Na9 O3 2.435445 1_555
Na9 O19 2.501621 1_555
Na9 O9 2.596087 1_555
Na10 O10 2.270754 1_554
Na10 O16 2.387171 1_655
Na10 O9 2.424225 1_555
Na10 O6 2.581434 1_555
Na11 O11 2.270754 1_555
Na11 O17 2.387171 1_455
Na11 O8 2.424225 1_555
Na11 O7 2.581434 1_555
Na12 O14 2.221642 1_555
Na12 O20 2.274094 1_556
Na12 O10 2.347184 1_555
Na12 O23 2.410449 1_555
Na13 O15 2.221642 1_555
Na13 O21 2.274094 1_555
Na13 O11 2.347184 1_555
Na13 O22 2.410449 1_555
Na14 O17 2.331431 1_555
Na14 O13 2.333905 1_655
Na14 O23 2.369039 1_555
Na14 O18 2.375847 1_555
Na14 O29 2.768380 1_555
Na15 O16 2.331431 1_555
Na15 O12 2.333905 1_455
Na15 O22 2.369039 1_555
Na15 O19 2.375847 1_555
Na15 O28 2.768380 1_555
Na16 O27 2.381284 1_556
Na16 O20 2.388650 1_556
Na16 O16 2.439035 1_556
Na16 O23 2.516888 1_455
Na16 O10 2.843866 1_455
Na17 O26 2.381284 1_555
Na17 O21 2.388650 1_555
Na17 O17 2.439035 1_555
Na17 O22 2.516888 1_655
Na17 O11 2.843866 1_655
Na18 O24 2.313602 1_555
Na18 O15 2.318848 1_555
Na18 O19 2.350690 1_555
Na18 O22 2.471825 1_655
Na19 O25 2.313602 1_555
Na19 O14 2.318848 1_555
Na19 O18 2.350690 1_555
Na19 O23 2.471825 1_455
Na20 O21 2.352945 1_555
Na20 O17 2.399642 1_455
Na20 O18 2.517171 1_555
Na20 O29 2.519096 1_455
Na20 O26 2.551711 1_455
Na20 O30 2.585660 1_555
Na21 O20 2.352945 1_555
Na21 O16 2.399642 1_655
Na21 O19 2.517171 1_555
Na21 O28 2.519096 1_655
Na21 O27 2.551711 1_655
Na21 O31 2.585660 1_555
Na22 O30 2.254165 1_555
Na22 O29 2.377391 1_555
Na22 O26 2.415833 1_555
Na22 O18 2.535442 1_555
Na22 O21 2.600908 1_555
Na23 O31 2.254165 1_555
Na23 O28 2.377391 1_555
Na23 O27 2.415833 1_555
Na23 O19 2.535442 1_555
Na23 O20 2.600908 1_555
Na24 O28 2.264705 1_555
Na24 O1 2.267351 1_565
Na24 O22 2.313870 1_555
Na24 O24 2.413449 1_555
Na25 O29 2.264705 1_555
Na25 O0 2.267351 1_565
Na25 O23 2.313870 1_555
Na25 O25 2.413449 1_555
Na26 O30 2.356926 1_555
Na26 O26 2.509817 1_455
Na26 O24 2.572372 1_555
Na26 O1 2.650278 1_565
Na26 O4 2.915522 1_565
Na27 O31 2.356926 1_556
Na27 O27 2.509817 1_656
Na27 O25 2.572372 1_555
Na27 O0 2.650278 1_565
Na27 O5 2.915522 1_565
Na28 O24 2.275524 1_555
Na28 O3 2.351047 1_565
Na28 O31 2.357992 1_555
Na28 O28 2.367458 1_655
Na29 O25 2.275524 1_555
Na29 O2 2.351047 1_565
Na29 O30 2.357992 1_555
Na29 O29 2.367458 1_455
Na30 O26 2.193937 1_555
Na30 O4 2.236987 1_565
Na30 O1 2.317220 1_665
Na30 O24 2.548142 1_555
Na31 O27 2.193937 1_556
Na31 O5 2.236987 1_565
Na31 O0 2.317220 1_465
Na31 O25 2.548142 1_555
Co0 O5 1.779084 1_555
Co0 O0 1.796486 1_555
Co0 O2 1.825798 1_555
Co0 O25 1.895080 1_545
Co1 O4 1.779084 1_555
Co1 O1 1.796486 1_555
Co1 O3 1.825798 1_555
Co1 O24 1.895080 1_545
Co2 O10 1.779866 1_455
Co2 O14 1.795338 1_555
Co2 O13 1.810245 1_555
Co2 O23 1.837849 1_455
Co3 O11 1.779866 1_655
Co3 O15 1.795338 1_555
Co3 O12 1.810245 1_555
Co3 O22 1.837849 1_655
Co4 O8 1.805794 1_555
Co4 O17 1.805915 1_555
Co4 O21 1.810404 1_555
Co4 O18 1.828146 1_555
Co5 O9 1.805794 1_555
Co5 O16 1.805915 1_555
Co5 O20 1.810404 1_555
Co5 O19 1.828146 1_555
Co6 O7 1.790033 1_565
Co6 O26 1.818348 1_455
Co6 O30 1.828899 1_555
Co6 O29 1.836286 1_455
Co7 O6 1.790033 1_565
Co7 O27 1.818348 1_655
Co7 O31 1.828899 1_555
Co7 O28 1.836286 1_655
