# generated using pymatgen
data_Fe4O3F5
_symmetry_space_group_name_H-M   'P 1'
_cell_length_a   6.17844900
_cell_length_b   4.83753000
_cell_length_c   9.72194001
_cell_angle_alpha   89.05474773
_cell_angle_beta   90.00000000
_cell_angle_gamma   90.00000000
_symmetry_Int_Tables_number   1
_chemical_formula_structural   Fe4O3F5
_chemical_formula_sum   'Fe8 O6 F10'
_cell_volume   290.53400400
_cell_formula_units_Z   2
loop_
 _symmetry_equiv_pos_site_id
 _symmetry_equiv_pos_as_xyz
  1  'x, y, z'
loop_
 _atom_site_type_symbol
 _atom_site_label
 _atom_site_symmetry_multiplicity
 _atom_site_fract_x
 _atom_site_fract_y
 _atom_site_fract_z
 _atom_site_occupancy
  Fe  Fe0  1  0.00910400  0.97242300  0.02592300  1
  Fe  Fe1  1  0.49615600  0.03825500  0.98864800  1
  Fe  Fe2  1  0.99089600  0.97242300  0.52592300  1
  Fe  Fe3  1  0.50384400  0.03825500  0.48864800  1
  Fe  Fe4  1  0.25191900  0.50321600  0.75196700  1
  Fe  Fe5  1  0.74915400  0.46976800  0.73388200  1
  Fe  Fe6  1  0.25084600  0.46976800  0.23388200  1
  Fe  Fe7  1  0.74808100  0.50321600  0.25196700  1
  O  O0  1  0.75904400  0.18991800  0.59468000  1
  O  O1  1  0.24095600  0.18991800  0.09468000  1
  O  O2  1  0.50038200  0.33613700  0.83300700  1
  O  O3  1  0.49961800  0.33613700  0.33300700  1
  O  O4  1  0.00182600  0.68191900  0.66136600  1
  O  O5  1  0.99817400  0.68191900  0.16136600  1
  F  F0  1  0.23561800  0.20091300  0.60299300  1
  F  F1  1  0.76438200  0.20091300  0.10299300  1
  F  F2  1  0.99993800  0.29136900  0.85245500  1
  F  F3  1  0.00006200  0.29136900  0.35245500  1
  F  F4  1  0.49543100  0.70423600  0.64583900  1
  F  F5  1  0.50456900  0.70423600  0.14583900  1
  F  F6  1  0.76516000  0.79632000  0.40022600  1
  F  F7  1  0.76546900  0.81552600  0.90901400  1
  F  F8  1  0.23453100  0.81552600  0.40901400  1
  F  F9  1  0.23484000  0.79632000  0.90022600  1
loop_
_geom_bond_atom_site_label_1
_geom_bond_atom_site_label_2
_geom_bond_distance
_geom_bond_site_symmetry_2
Fe0 O1 1.905005 1_565
Fe0 O5 1.911103 1_455
Fe1 O1 2.027798 1_556
Fe1 O2 2.072397 1_555
Fe2 O0 1.905005 1_565
Fe2 O4 1.911103 1_655
Fe3 O0 2.027798 1_555
Fe3 O3 2.072397 1_555
Fe4 O2 1.899887 1_555
Fe4 O4 1.971204 1_555
Fe5 O2 1.920540 1_555
Fe5 O0 1.930898 1_555
Fe5 O4 1.990857 1_655
Fe6 O3 1.920540 1_555
Fe6 O1 1.930898 1_555
Fe6 O5 1.990857 1_455
Fe7 O3 1.899887 1_555
Fe7 O5 1.971204 1_555
F0 Fe2 2.024013 1_445
F0 Fe4 2.077561 1_555
F0 Fe3 2.151783 1_555
F1 Fe0 2.024013 1_645
F1 Fe7 2.077561 1_555
F1 Fe1 2.151783 1_554
F2 Fe4 2.096524 1_655
F2 Fe5 2.107518 1_555
F2 Fe0 2.267604 1_646
F3 Fe7 2.096524 1_455
F3 Fe6 2.107518 1_555
F3 Fe2 2.267604 1_445
F4 Fe4 2.059292 1_555
F4 Fe5 2.108209 1_555
F4 Fe3 2.206247 1_565
F5 Fe7 2.059292 1_555
F5 Fe6 2.108209 1_555
F5 Fe1 2.206247 1_564
F6 Fe7 2.041210 1_555
F6 Fe2 2.049049 1_555
F6 Fe3 2.179134 1_565
F7 Fe0 2.040157 1_656
F7 Fe1 2.134597 1_565
F7 Fe5 2.408461 1_555
F8 Fe2 2.040157 1_455
F8 Fe3 2.134597 1_565
F8 Fe6 2.408461 1_555
F9 Fe4 2.041210 1_555
F9 Fe0 2.049049 1_556
F9 Fe1 2.179134 1_565
