# generated using pymatgen
data_Co2P2H12O13
_symmetry_space_group_name_H-M   'P 1'
_cell_length_a   18.52900100
_cell_length_b   7.24528000
_cell_length_c   10.33116361
_cell_angle_alpha   47.86615445
_cell_angle_beta   90.00000000
_cell_angle_gamma   90.00000000
_symmetry_Int_Tables_number   1
_chemical_formula_structural   Co2P2H12O13
_chemical_formula_sum   'Co8 P8 H48 O52'
_cell_volume   1028.52354701
_cell_formula_units_Z   4
loop_
 _symmetry_equiv_pos_site_id
 _symmetry_equiv_pos_as_xyz
  1  'x, y, z'
loop_
 _atom_site_type_symbol
 _atom_site_label
 _atom_site_symmetry_multiplicity
 _atom_site_fract_x
 _atom_site_fract_y
 _atom_site_fract_z
 _atom_site_occupancy
  Co  Co0  1  0.00000000  0.00000000  0.00000000  1
  Co  Co1  1  0.50000000  0.00000000  0.00000000  1
  Co  Co2  1  0.75563700  0.67535300  0.52438900  1
  Co  Co3  1  0.25563700  0.32464700  0.97561100  1
  Co  Co4  1  0.00000000  0.00000000  0.50000000  1
  Co  Co5  1  0.50000000  0.00000000  0.50000000  1
  Co  Co6  1  0.74436300  0.67535300  0.02438900  1
  Co  Co7  1  0.24436300  0.32464700  0.47561100  1
  P  P0  1  0.60408200  0.84868500  0.31828000  1
  P  P1  1  0.59764000  0.50152400  0.70080200  1
  P  P2  1  0.09764000  0.49847600  0.79919800  1
  P  P3  1  0.10408200  0.15131500  0.18172000  1
  P  P4  1  0.89591800  0.84868500  0.81828000  1
  P  P5  1  0.90236000  0.50152400  0.20080200  1
  P  P6  1  0.40236000  0.49847600  0.29919800  1
  P  P7  1  0.39591800  0.15131500  0.68172000  1
  H  H0  1  0.67339500  0.06762700  0.92747200  1
  H  H1  1  0.83551000  0.70475300  0.29570500  1
  H  H2  1  0.71219200  0.93590600  0.10641100  1
  H  H3  1  0.85334600  0.31622100  0.79014900  1
  H  H4  1  0.23281400  0.80382000  0.34767600  1
  H  H5  1  0.88903400  0.73533200  0.40433600  1
  H  H6  1  0.00872600  0.77952700  0.37979500  1
  H  H7  1  0.26739500  0.62777500  0.53779000  1
  H  H8  1  0.99696700  0.57358000  0.58963200  1
  H  H9  1  0.42817000  0.69107500  0.47687500  1
  H  H10  1  0.36916400  0.41820700  0.77639500  1
  H  H11  1  0.88659000  0.05348700  0.14238200  1
  H  H12  1  0.86916400  0.58179300  0.72360500  1
  H  H13  1  0.38659000  0.94651300  0.35761800  1
  H  H14  1  0.49696700  0.42642000  0.91036800  1
  H  H15  1  0.76739500  0.37222500  0.96221000  1
  H  H16  1  0.92817000  0.30892500  0.02312500  1
  H  H17  1  0.50872600  0.22047300  0.12020500  1
  H  H18  1  0.38903400  0.26466800  0.09566400  1
  H  H19  1  0.35334600  0.68377900  0.70985100  1
  H  H20  1  0.73281400  0.19618000  0.15232400  1
  H  H21  1  0.21219200  0.06409400  0.39358900  1
  H  H22  1  0.17339500  0.93237300  0.57252800  1
  H  H23  1  0.33551000  0.29524700  0.20429500  1
  H  H24  1  0.66449000  0.70475300  0.79570500  1
  H  H25  1  0.82660500  0.06762700  0.42747200  1
  H  H26  1  0.78780800  0.93590600  0.60641100  1
  H  H27  1  0.26718600  0.80382000  0.84767600  1
  H  H28  1  0.64665400  0.31622100  0.29014900  1
  H  H29  1  0.61096600  0.73533200  0.90433600  1
  H  H30  1  0.49127400  0.77952700  0.87979500  1
  H  H31  1  0.07183000  0.69107500  0.97687500  1
  H  H32  1  0.23260500  0.62777500  0.03779000  1
  H  H33  1  0.50303300  0.57358000  0.08963200  1
  H  H34  1  0.61341000  0.05348700  0.64238200  1
  H  H35  1  0.13083600  0.41820700  0.27639500  1
  H  H36  1  0.11341000  0.94651300  0.85761800  1
  H  H37  1  0.63083600  0.58179300  0.22360500  1
  H  H38  1  0.57183000  0.30892500  0.52312500  1
  H  H39  1  0.00303300  0.42642000  0.41036800  1
  H  H40  1  0.73260500  0.37222500  0.46221000  1
  H  H41  1  0.99127400  0.22047300  0.62020500  1
  H  H42  1  0.11096600  0.26466800  0.59566400  1
  H  H43  1  0.76718600  0.19618000  0.65232400  1
  H  H44  1  0.14665400  0.68377900  0.20985100  1
  H  H45  1  0.28780800  0.06409400  0.89358900  1
  H  H46  1  0.16449000  0.29524700  0.70429500  1
  H  H47  1  0.32660500  0.93237300  0.07252800  1
  O  O0  1  0.57520000  0.80853100  0.20015700  1
  O  O1  1  0.59010000  0.21900100  0.83579900  1
  O  O2  1  0.28053200  0.01620500  0.00764100  1
  O  O3  1  0.58727700  0.57767000  0.51233700  1
  O  O4  1  0.26030500  0.64845000  0.43454500  1
  O  O5  1  0.84132400  0.78696100  0.34374400  1
  O  O6  1  0.03794100  0.36436500  0.78669800  1
  O  O7  1  0.06569600  0.95148500  0.19572600  1
  O  O8  1  0.68703000  0.88315200  0.30164700  1
  O  O9  1  0.83009400  0.47377000  0.73933900  1
  O  O10  1  0.97613400  0.72733100  0.47653300  1
  O  O11  1  0.17326100  0.40497800  0.80485500  1
  O  O12  1  0.91971900  0.15915500  0.04122800  1
  O  O13  1  0.67326100  0.59502200  0.69514500  1
  O  O14  1  0.33009400  0.52623000  0.76066100  1
  O  O15  1  0.41971900  0.84084500  0.45877200  1
  O  O16  1  0.47613400  0.27266900  0.02346700  1
  O  O17  1  0.18703000  0.11684800  0.19835300  1
  O  O18  1  0.53794100  0.63563500  0.71330200  1
  O  O19  1  0.56569600  0.04851500  0.30427400  1
  O  O20  1  0.08727700  0.42233000  0.98766300  1
  O  O21  1  0.34132400  0.21303900  0.15625600  1
  O  O22  1  0.76030500  0.35155000  0.06545500  1
  O  O23  1  0.09010000  0.78099900  0.66420100  1
  O  O24  1  0.78053200  0.98379500  0.49235900  1
  O  O25  1  0.07520000  0.19146900  0.29984300  1
  O  O26  1  0.92480000  0.80853100  0.70015700  1
  O  O27  1  0.21946800  0.01620500  0.50764100  1
  O  O28  1  0.90990000  0.21900100  0.33579900  1
  O  O29  1  0.23969500  0.64845000  0.93454500  1
  O  O30  1  0.65867600  0.78696100  0.84374400  1
  O  O31  1  0.91272300  0.57767000  0.01233700  1
  O  O32  1  0.43430400  0.95148500  0.69572600  1
  O  O33  1  0.46205900  0.36436500  0.28669800  1
  O  O34  1  0.81297000  0.88315200  0.80164700  1
  O  O35  1  0.52386600  0.72733100  0.97653300  1
  O  O36  1  0.58028100  0.15915500  0.54122800  1
  O  O37  1  0.66990600  0.47377000  0.23933900  1
  O  O38  1  0.32673900  0.40497800  0.30485500  1
  O  O39  1  0.08028100  0.84084500  0.95877200  1
  O  O40  1  0.82673900  0.59502200  0.19514500  1
  O  O41  1  0.02386600  0.27266900  0.52346700  1
  O  O42  1  0.16990600  0.52623000  0.26066100  1
  O  O43  1  0.31297000  0.11684800  0.69835300  1
  O  O44  1  0.93430400  0.04851500  0.80427400  1
  O  O45  1  0.96205900  0.63563500  0.21330200  1
  O  O46  1  0.15867600  0.21303900  0.65625600  1
  O  O47  1  0.73969500  0.35155000  0.56545500  1
  O  O48  1  0.41272300  0.42233000  0.48766300  1
  O  O49  1  0.71946800  0.98379500  0.99235900  1
  O  O50  1  0.40990000  0.78099900  0.16420100  1
  O  O51  1  0.42480000  0.19146900  0.79984300  1
loop_
_geom_bond_atom_site_label_1
_geom_bond_atom_site_label_2
_geom_bond_distance
_geom_bond_site_symmetry_2
Co0 O12 2.093524 1_455
Co0 O39 2.093524 1_544
Co0 O45 2.124626 1_445
Co0 O6 2.124626 1_554
Co0 O44 2.177261 1_454
Co0 O7 2.177261 1_545
Co1 O51 2.071972 1_554
Co1 O0 2.071972 1_545
Co1 O1 2.137989 1_554
Co1 O50 2.137989 1_545
Co1 O16 2.190848 1_555
Co1 O35 2.190848 1_544
Co2 O24 2.079466 1_555
Co2 O13 2.098318 1_555
Co2 O47 2.106111 1_555
Co2 O8 2.128295 1_555
Co2 O9 2.148531 1_555
Co2 O5 2.152393 1_555
Co3 O2 2.079466 1_556
Co3 O11 2.098318 1_555
Co3 O29 2.106111 1_555
Co3 O17 2.128295 1_556
Co3 O14 2.148531 1_555
Co3 O21 2.152393 1_556
Co4 O25 2.071972 1_555
Co4 O26 2.071972 1_445
Co4 O28 2.137989 1_455
Co4 O23 2.137989 1_545
Co4 O41 2.190848 1_555
Co4 O10 2.190848 1_445
Co5 O15 2.093524 1_545
Co5 O36 2.093524 1_555
Co5 O33 2.124626 1_555
Co5 O18 2.124626 1_545
Co5 O32 2.177261 1_545
Co5 O19 2.177261 1_555
Co6 O49 2.079466 1_554
Co6 O40 2.098318 1_555
Co6 O22 2.106111 1_555
Co6 O34 2.128295 1_554
Co6 O37 2.148531 1_555
Co6 O30 2.152393 1_554
Co7 O27 2.079466 1_555
Co7 O38 2.098318 1_555
Co7 O4 2.106111 1_555
Co7 O43 2.128295 1_555
Co7 O42 2.148531 1_555
Co7 O46 2.152393 1_555
H0 O49 1.000386 1_545
H0 O1 1.757315 1_555
H1 O5 1.004641 1_555
H1 O40 1.687015 1_555
H2 O49 0.989136 1_554
H3 O9 0.979898 1_555
H4 O4 0.988227 1_555
H5 O5 0.999546 1_555
H6 O10 0.999714 1_455
H6 O7 1.761790 1_555
H7 O4 0.981346 1_555
H8 O10 1.004384 1_555
H8 O6 1.696580 1_655
H9 O15 0.982190 1_555
H10 O14 0.996168 1_555
H11 O12 0.990739 1_555
H12 O9 0.996168 1_555
H13 O15 0.990739 1_555
H14 O16 1.004384 1_556
H14 O18 1.696580 1_555
H15 O22 0.981346 1_556
H16 O12 0.982190 1_555
H17 O16 0.999714 1_555
H17 O19 1.761790 1_555
H18 O21 0.999546 1_555
H19 O14 0.979898 1_555
H20 O22 0.988227 1_555
H21 O27 0.989136 1_555
H22 O27 1.000386 1_565
H22 O23 1.757315 1_555
H23 O21 1.004641 1_555
H23 O38 1.687015 1_555
H24 O30 1.004641 1_555
H24 O13 1.687015 1_555
H25 O24 1.000386 1_545
H25 O28 1.757315 1_555
H26 O24 0.989136 1_555
H27 O29 0.988227 1_555
H28 O37 0.979898 1_555
H29 O30 0.999546 1_555
H30 O35 0.999714 1_555
H30 O32 1.761790 1_555
H31 O39 0.982190 1_555
H32 O29 0.981346 1_554
H33 O35 1.004384 1_554
H33 O33 1.696580 1_555
H34 O36 0.990739 1_555
H35 O42 0.996168 1_555
H36 O39 0.990739 1_555
H37 O37 0.996168 1_555
H38 O36 0.982190 1_555
H39 O41 1.004384 1_555
H39 O45 1.696580 1_455
H40 O47 0.981346 1_555
H41 O41 0.999714 1_655
H41 O44 1.761790 1_555
H42 O46 0.999546 1_555
H43 O47 0.988227 1_555
H44 O42 0.979898 1_555
H45 O2 0.989136 1_556
H46 O46 1.004641 1_555
H46 O11 1.687015 1_555
H47 O2 1.000386 1_565
H47 O50 1.757315 1_555
O0 P0 1.528606 1_555
O1 P1 1.524549 1_555
O3 P0 1.640134 1_555
O3 P1 1.640433 1_555
O6 P2 1.533878 1_555
O7 P3 1.530335 1_565
O8 P0 1.548066 1_555
O11 P2 1.540293 1_555
O13 P1 1.540293 1_555
O17 P3 1.548066 1_555
O18 P1 1.533878 1_555
O19 P0 1.530335 1_545
O20 P3 1.640134 1_556
O20 P2 1.640433 1_555
O23 P2 1.524549 1_555
O25 P3 1.528606 1_555
O26 P4 1.528606 1_555
O28 P5 1.524549 1_555
O31 P4 1.640134 1_554
O31 P5 1.640433 1_555
O32 P7 1.530335 1_565
O33 P6 1.533878 1_555
O34 P4 1.548066 1_555
O38 P6 1.540293 1_555
O40 P5 1.540293 1_555
O43 P7 1.548066 1_555
O44 P4 1.530335 1_545
O45 P5 1.533878 1_555
O48 P7 1.640134 1_555
O48 P6 1.640433 1_555
O50 P6 1.524549 1_555
O51 P7 1.528606 1_555
