# generated using pymatgen
data_Mn6OF11
_symmetry_space_group_name_H-M   'P 1'
_cell_length_a   5.27021401
_cell_length_b   5.27021401
_cell_length_c   15.62250306
_cell_angle_alpha   88.53065143
_cell_angle_beta   88.53065143
_cell_angle_gamma   89.13748114
_symmetry_Int_Tables_number   1
_chemical_formula_structural   Mn6OF11
_chemical_formula_sum   'Mn12 O2 F22'
_cell_volume   433.58715150
_cell_formula_units_Z   2
loop_
 _symmetry_equiv_pos_site_id
 _symmetry_equiv_pos_as_xyz
  1  'x, y, z'
loop_
 _atom_site_type_symbol
 _atom_site_label
 _atom_site_symmetry_multiplicity
 _atom_site_fract_x
 _atom_site_fract_y
 _atom_site_fract_z
 _atom_site_occupancy
  Mn  Mn0  1  0.99933500  0.99933500  0.00091300  1
  Mn  Mn1  1  0.99784000  0.48758300  0.16964400  1
  Mn  Mn2  1  0.03960000  0.03960000  0.32908100  1
  Mn  Mn3  1  0.99398700  0.52515800  0.50118600  1
  Mn  Mn4  1  0.99684200  0.99684200  0.66530900  1
  Mn  Mn5  1  0.00340900  0.49792200  0.83269900  1
  Mn  Mn6  1  0.48758300  0.99784000  0.16964400  1
  Mn  Mn7  1  0.49983900  0.49983900  0.00149100  1
  Mn  Mn8  1  0.51773900  0.51773900  0.65643400  1
  Mn  Mn9  1  0.52515800  0.99398700  0.50118600  1
  Mn  Mn10  1  0.47391100  0.47391100  0.32745600  1
  Mn  Mn11  1  0.49792200  0.00340900  0.83269900  1
  O  O0  1  0.72054200  0.72054200  0.58029500  1
  O  O1  1  0.24569200  0.24569200  0.25707200  1
  F  F0  1  0.76008200  0.19200700  0.25446000  1
  F  F1  1  0.76730900  0.76730900  0.08434100  1
  F  F2  1  0.78514900  0.22681600  0.58031500  1
  F  F3  1  0.82834600  0.82834600  0.40862600  1
  F  F4  1  0.77103700  0.23100600  0.91396700  1
  F  F5  1  0.77465700  0.77465700  0.75292400  1
  F  F6  1  0.73209000  0.26676500  0.08668800  1
  F  F7  1  0.69452000  0.69452000  0.24438000  1
  F  F8  1  0.73215500  0.73215500  0.91720800  1
  F  F9  1  0.71203600  0.28187000  0.74587700  1
  F  F10  1  0.71451700  0.31464900  0.42059800  1
  F  F11  1  0.27209700  0.27209700  0.91636000  1
  F  F12  1  0.29031200  0.29031200  0.58490700  1
  F  F13  1  0.26676500  0.73209000  0.08668800  1
  F  F14  1  0.31464900  0.71451700  0.42059800  1
  F  F15  1  0.28187000  0.71203600  0.74587700  1
  F  F16  1  0.20856700  0.20856700  0.42718200  1
  F  F17  1  0.23250400  0.23250400  0.08309100  1
  F  F18  1  0.21211200  0.21211200  0.75205800  1
  F  F19  1  0.22681600  0.78514900  0.58031500  1
  F  F20  1  0.23100600  0.77103700  0.91396700  1
  F  F21  1  0.19200700  0.76008200  0.25446000  1
loop_
_geom_bond_atom_site_label_1
_geom_bond_atom_site_label_2
_geom_bond_distance
_geom_bond_site_symmetry_2
Mn1 O1 2.269141 1_655
Mn2 O1 1.880204 1_555
Mn3 O0 2.143309 1_555
Mn4 O0 2.503386 1_555
Mn6 O1 2.269141 1_565
Mn8 O0 1.898313 1_555
Mn9 O0 2.143309 1_555
Mn10 O1 2.069189 1_555
F0 Mn2 2.044182 1_655
F0 Mn6 2.253155 1_545
F0 Mn1 2.370689 1_555
F0 Mn10 2.390313 1_555
F1 Mn0 2.137964 1_555
F1 Mn6 2.313809 1_555
F1 Mn1 2.313809 1_555
F1 Mn7 2.428233 1_555
F2 Mn4 2.104642 1_545
F2 Mn3 2.257076 1_555
F2 Mn9 2.264199 1_545
F2 Mn8 2.386118 1_555
F3 Mn2 1.979597 1_665
F3 Mn9 2.304443 1_555
F3 Mn3 2.304443 1_555
F4 Mn0 2.176678 1_546
F4 Mn5 2.229580 1_655
F4 Mn11 2.312200 1_555
F4 Mn7 2.420320 1_556
F5 Mn4 2.119602 1_555
F5 Mn11 2.250470 1_565
F5 Mn5 2.250470 1_655
F5 Mn8 2.490692 1_555
F6 Mn7 2.175551 1_555
F6 Mn1 2.283631 1_555
F6 Mn6 2.285591 1_545
F6 Mn0 2.388745 1_545
F7 Mn10 2.067340 1_555
F7 Mn6 2.241676 1_555
F7 Mn1 2.241676 1_555
F8 Mn7 2.147463 1_556
F8 Mn5 2.290032 1_655
F8 Mn11 2.290032 1_565
F8 Mn0 2.433938 1_556
F9 Mn8 2.119502 1_555
F9 Mn11 2.266293 1_555
F9 Mn5 2.394365 1_655
F9 Mn4 2.454771 1_545
F10 Mn10 2.104694 1_555
F10 Mn3 2.280600 1_555
F10 Mn9 2.305246 1_545
F11 Mn7 2.203880 1_556
F11 Mn11 2.257047 1_555
F11 Mn5 2.257047 1_555
F11 Mn0 2.396914 1_446
F12 Mn8 2.074249 1_555
F12 Mn3 2.375920 1_455
F12 Mn9 2.375920 1_545
F12 Mn4 2.496947 1_445
F13 Mn7 2.175551 1_555
F13 Mn6 2.283631 1_555
F13 Mn1 2.285591 1_455
F13 Mn0 2.388745 1_455
F14 Mn10 2.104694 1_555
F14 Mn9 2.280600 1_555
F14 Mn3 2.305246 1_455
F15 Mn8 2.119502 1_555
F15 Mn5 2.266293 1_555
F15 Mn11 2.394365 1_565
F15 Mn4 2.454771 1_455
F16 Mn2 2.024505 1_555
F16 Mn3 2.318296 1_455
F16 Mn9 2.318296 1_545
F16 Mn10 2.484720 1_555
F17 Mn0 2.208084 1_445
F17 Mn6 2.263290 1_545
F17 Mn1 2.263290 1_455
F17 Mn7 2.338956 1_555
F18 Mn4 2.146483 1_445
F18 Mn11 2.245482 1_555
F18 Mn5 2.245482 1_555
F18 Mn8 2.692923 1_555
F19 Mn4 2.104642 1_455
F19 Mn9 2.257076 1_555
F19 Mn3 2.264199 1_455
F19 Mn8 2.386118 1_555
F20 Mn0 2.176678 1_456
F20 Mn11 2.229580 1_565
F20 Mn5 2.312200 1_555
F20 Mn7 2.420320 1_556
F21 Mn2 2.044182 1_565
F21 Mn1 2.253155 1_455
F21 Mn6 2.370689 1_555
F21 Mn10 2.390313 1_555
