# generated using pymatgen
data_H3Os4C12ClO12
_symmetry_space_group_name_H-M   'P 1'
_cell_length_a   16.88775100
_cell_length_b   9.64752200
_cell_length_c   15.25384235
_cell_angle_alpha   58.47357197
_cell_angle_beta   90.00000000
_cell_angle_gamma   90.00000000
_symmetry_Int_Tables_number   1
_chemical_formula_structural   H3Os4C12ClO12
_chemical_formula_sum   'H12 Os16 C48 Cl4 O48'
_cell_volume   2118.40900674
_cell_formula_units_Z   4
loop_
 _symmetry_equiv_pos_site_id
 _symmetry_equiv_pos_as_xyz
  1  'x, y, z'
loop_
 _atom_site_type_symbol
 _atom_site_label
 _atom_site_symmetry_multiplicity
 _atom_site_fract_x
 _atom_site_fract_y
 _atom_site_fract_z
 _atom_site_occupancy
  H  H0  1  0.28058600  0.49568100  0.34200000  1
  H  H1  1  0.21941400  0.49568100  0.84200000  1
  H  H2  1  0.71941400  0.50431900  0.65800000  1
  H  H3  1  0.78058600  0.50431900  0.15800000  1
  H  H4  1  0.23080000  0.00722200  0.49862300  1
  H  H5  1  0.26920000  0.00722200  0.99862300  1
  H  H6  1  0.76920000  0.99277800  0.50137700  1
  H  H7  1  0.73080000  0.99277800  0.00137700  1
  H  H8  1  0.25243900  0.25364900  0.27173800  1
  H  H9  1  0.24756100  0.25364900  0.77173800  1
  H  H10  1  0.74756100  0.74635100  0.72826200  1
  H  H11  1  0.75243900  0.74635100  0.22826200  1
  Os  Os0  1  0.35041100  0.35345900  0.43060100  1
  Os  Os1  1  0.14958900  0.35345900  0.93060100  1
  Os  Os2  1  0.64958900  0.64654100  0.56939900  1
  Os  Os3  1  0.85041100  0.64654100  0.06939900  1
  Os  Os4  1  0.30142800  0.10009600  0.38996500  1
  Os  Os5  1  0.19857200  0.10009600  0.88996500  1
  Os  Os6  1  0.69857200  0.89990400  0.61003500  1
  Os  Os7  1  0.80142800  0.89990400  0.11003500  1
  Os  Os8  1  0.15584000  0.14405400  0.49045500  1
  Os  Os9  1  0.34416000  0.14405400  0.99045500  1
  Os  Os10  1  0.84416000  0.85594600  0.50954500  1
  Os  Os11  1  0.65584000  0.85594600  0.00954500  1
  Os  Os12  1  0.20883300  0.40823100  0.29075000  1
  Os  Os13  1  0.29116700  0.40823100  0.79075000  1
  Os  Os14  1  0.79116700  0.59176900  0.70925000  1
  Os  Os15  1  0.70883300  0.59176900  0.20925000  1
  C  C0  1  0.37042700  0.53209500  0.45007400  1
  C  C1  1  0.12957300  0.53209500  0.95007400  1
  C  C2  1  0.62957300  0.46790500  0.54992600  1
  C  C3  1  0.87042700  0.46790500  0.04992600  1
  C  C4  1  0.42041600  0.42974000  0.31937000  1
  C  C5  1  0.07958400  0.42974000  0.81937000  1
  C  C6  1  0.57958400  0.57026000  0.68063000  1
  C  C7  1  0.92041600  0.57026000  0.18063000  1
  C  C8  1  0.42476500  0.20538400  0.53062400  1
  C  C9  1  0.07523500  0.20538400  0.03062400  1
  C  C10  1  0.57523500  0.79461600  0.46937600  1
  C  C11  1  0.92476500  0.79461600  0.96937600  1
  C  C12  1  0.38620100  0.15090000  0.29489900  1
  C  C13  1  0.11379900  0.15090000  0.79489900  1
  C  C14  1  0.61379900  0.84910000  0.70510100  1
  C  C15  1  0.88620100  0.84910000  0.20510100  1
  C  C16  1  0.36356500  0.94255700  0.50274200  1
  C  C17  1  0.13643500  0.94255700  0.00274200  1
  C  C18  1  0.63643500  0.05744300  0.49725800  1
  C  C19  1  0.86356500  0.05744300  0.99725800  1
  C  C20  1  0.25341800  0.95343300  0.35523300  1
  C  C21  1  0.24658200  0.95343300  0.85523300  1
  C  C22  1  0.74658200  0.04656700  0.64476700  1
  C  C23  1  0.75341800  0.04656700  0.14476700  1
  C  C24  1  0.07055400  0.27764300  0.48986600  1
  C  C25  1  0.42944600  0.27764300  0.98986600  1
  C  C26  1  0.92944600  0.72235700  0.51013400  1
  C  C27  1  0.57055400  0.72235700  0.01013400  1
  C  C28  1  0.09453100  0.06148100  0.42586500  1
  C  C29  1  0.40546900  0.06148100  0.92586500  1
  C  C30  1  0.90546900  0.93851900  0.57413500  1
  C  C31  1  0.59453100  0.93851900  0.07413500  1
  C  C32  1  0.13534200  0.96073700  0.62579100  1
  C  C33  1  0.36465800  0.96073700  0.12579100  1
  C  C34  1  0.86465800  0.03926300  0.37420900  1
  C  C35  1  0.63534200  0.03926300  0.87420900  1
  C  C36  1  0.12412200  0.36386400  0.22707100  1
  C  C37  1  0.37587800  0.36386400  0.72707100  1
  C  C38  1  0.87587800  0.63613600  0.77292900  1
  C  C39  1  0.62412200  0.63613600  0.27292900  1
  C  C40  1  0.14576400  0.55961600  0.30705700  1
  C  C41  1  0.35423600  0.55961600  0.80705700  1
  C  C42  1  0.85423600  0.44038400  0.69294300  1
  C  C43  1  0.64576400  0.44038400  0.19294300  1
  C  C44  1  0.26095900  0.55961500  0.16393800  1
  C  C45  1  0.23904100  0.55961500  0.66393800  1
  C  C46  1  0.73904100  0.44038500  0.83606200  1
  C  C47  1  0.76095900  0.44038500  0.33606200  1
  Cl  Cl0  1  0.24838100  0.25152400  0.56899500  1
  Cl  Cl1  1  0.25161900  0.25152400  0.06899500  1
  Cl  Cl2  1  0.75161900  0.74847600  0.43100500  1
  Cl  Cl3  1  0.74838100  0.74847600  0.93100500  1
  O  O0  1  0.38470000  0.63987700  0.46095700  1
  O  O1  1  0.11530000  0.63987700  0.96095700  1
  O  O2  1  0.61530000  0.36012300  0.53904300  1
  O  O3  1  0.88470000  0.36012300  0.03904300  1
  O  O4  1  0.46076600  0.48671800  0.24685000  1
  O  O5  1  0.03923400  0.48671800  0.74685000  1
  O  O6  1  0.53923400  0.51328200  0.75315000  1
  O  O7  1  0.96076600  0.51328200  0.25315000  1
  O  O8  1  0.46874800  0.11798200  0.59423000  1
  O  O9  1  0.03125200  0.11798200  0.09423000  1
  O  O10  1  0.53125200  0.88201800  0.40577000  1
  O  O11  1  0.96874800  0.88201800  0.90577000  1
  O  O12  1  0.43569400  0.17232200  0.23629400  1
  O  O13  1  0.06430600  0.17232200  0.73629400  1
  O  O14  1  0.56430600  0.82767800  0.76370600  1
  O  O15  1  0.93569400  0.82767800  0.26370600  1
  O  O16  1  0.40112400  0.84182900  0.57020200  1
  O  O17  1  0.09887600  0.84182900  0.07020200  1
  O  O18  1  0.59887600  0.15817100  0.42979800  1
  O  O19  1  0.90112400  0.15817100  0.92979800  1
  O  O20  1  0.22844000  0.86421700  0.33273700  1
  O  O21  1  0.27156000  0.86421700  0.83273700  1
  O  O22  1  0.77156000  0.13578300  0.66726300  1
  O  O23  1  0.72844000  0.13578300  0.16726300  1
  O  O24  1  0.01658400  0.34989600  0.49116500  1
  O  O25  1  0.48341600  0.34989600  0.99116500  1
  O  O26  1  0.98341600  0.65010400  0.50883500  1
  O  O27  1  0.51658400  0.65010400  0.00883500  1
  O  O28  1  0.05758500  0.00426400  0.38820000  1
  O  O29  1  0.44241500  0.00426400  0.88820000  1
  O  O30  1  0.94241500  0.99573600  0.61180000  1
  O  O31  1  0.55758500  0.99573600  0.11180000  1
  O  O32  1  0.12002300  0.84749400  0.70544200  1
  O  O33  1  0.37997700  0.84749400  0.20544200  1
  O  O34  1  0.87997700  0.15250600  0.29455800  1
  O  O35  1  0.62002300  0.15250600  0.79455800  1
  O  O36  1  0.07294300  0.34228200  0.18440000  1
  O  O37  1  0.42705700  0.34228200  0.68440000  1
  O  O38  1  0.92705700  0.65771800  0.81560000  1
  O  O39  1  0.57294300  0.65771800  0.31560000  1
  O  O40  1  0.10745000  0.65192900  0.31519600  1
  O  O41  1  0.39255000  0.65192900  0.81519600  1
  O  O42  1  0.89255000  0.34807100  0.68480400  1
  O  O43  1  0.60745000  0.34807100  0.18480400  1
  O  O44  1  0.29093700  0.65278100  0.08626800  1
  O  O45  1  0.20906300  0.65278100  0.58626800  1
  O  O46  1  0.70906300  0.34721900  0.91373200  1
  O  O47  1  0.79093700  0.34721900  0.41373200  1
loop_
_geom_bond_atom_site_label_1
_geom_bond_atom_site_label_2
_geom_bond_distance
_geom_bond_site_symmetry_2
H0 Os0 1.777749 1_555
H0 Os12 1.865748 1_555
H1 Os1 1.777749 1_555
H1 Os13 1.865748 1_555
H2 Os2 1.777749 1_555
H2 Os14 1.865748 1_555
H3 Os3 1.777749 1_555
H3 Os15 1.865748 1_555
H4 Os8 1.785686 1_555
H4 Os4 1.849200 1_555
H5 Os9 1.785686 1_555
H5 Os5 1.849200 1_555
H6 Os10 1.785686 1_555
H6 Os6 1.849200 1_555
H7 Os11 1.785686 1_555
H7 Os7 1.849200 1_555
H8 Os12 1.817353 1_555
H8 Os4 1.826859 1_555
H9 Os13 1.817353 1_555
H9 Os5 1.826859 1_555
H10 Os14 1.817353 1_555
H10 Os6 1.826859 1_555
H11 Os15 1.817353 1_555
H11 Os7 1.826859 1_555
C0 O0 1.160787 1_555
C0 Os0 1.925599 1_555
C1 O1 1.160787 1_555
C1 Os1 1.925599 1_555
C2 O2 1.160787 1_555
C2 Os2 1.925599 1_555
C3 O3 1.160787 1_555
C3 Os3 1.925599 1_555
C4 O4 1.163735 1_555
C4 Os0 1.874094 1_555
C5 O5 1.163735 1_555
C5 Os1 1.874094 1_555
C6 O6 1.163735 1_555
C6 Os2 1.874094 1_555
C7 O7 1.163735 1_555
C7 Os3 1.874094 1_555
C8 O8 1.161252 1_555
C8 Os0 1.914671 1_555
C9 O9 1.161252 1_555
C9 Os1 1.914671 1_554
C10 O10 1.161252 1_555
C10 Os2 1.914671 1_555
C11 O11 1.161252 1_555
C11 Os3 1.914671 1_556
C12 O12 1.160713 1_555
C12 Os4 1.910325 1_555
C13 O13 1.160713 1_555
C13 Os5 1.910325 1_555
C14 O14 1.160713 1_555
C14 Os6 1.910325 1_555
C15 O15 1.160713 1_555
C15 Os7 1.910325 1_555
C16 O16 1.166103 1_555
C16 Os4 1.906882 1_565
C17 O17 1.166103 1_555
C17 Os5 1.906882 1_564
C18 O18 1.166103 1_555
C18 Os6 1.906882 1_545
C19 O19 1.166103 1_555
C19 Os7 1.906882 1_546
C20 O20 1.159910 1_555
C20 Os4 1.929777 1_565
C21 O21 1.159910 1_555
C21 Os5 1.929777 1_565
C22 O22 1.159910 1_555
C22 Os6 1.929777 1_545
C23 O23 1.159910 1_555
C23 Os7 1.929777 1_545
C24 O24 1.153881 1_555
C24 Os8 1.929615 1_555
C25 O25 1.153881 1_555
C25 Os9 1.929615 1_555
C26 O26 1.153881 1_555
C26 Os10 1.929615 1_555
C27 O27 1.153881 1_555
C27 Os11 1.929615 1_555
C28 O28 1.164370 1_555
C28 Os8 1.870326 1_555
C29 O29 1.164370 1_555
C29 Os9 1.870326 1_555
C30 O30 1.164370 1_555
C30 Os10 1.870326 1_555
C31 O31 1.164370 1_555
C31 Os11 1.870326 1_555
C32 O32 1.161267 1_555
C32 Os8 1.921247 1_565
C33 O33 1.161267 1_555
C33 Os9 1.921247 1_564
C34 O34 1.161267 1_555
C34 Os10 1.921247 1_545
C35 O35 1.161267 1_555
C35 Os11 1.921247 1_546
C36 O36 1.164371 1_555
C36 Os12 1.899497 1_555
C37 O37 1.164371 1_555
C37 Os13 1.899497 1_555
C38 O38 1.164371 1_555
C38 Os14 1.899497 1_555
C39 O39 1.164371 1_555
C39 Os15 1.899497 1_555
C40 O40 1.158816 1_555
C40 Os12 1.925942 1_555
C41 O41 1.158816 1_555
C41 Os13 1.925942 1_555
C42 O42 1.158816 1_555
C42 Os14 1.925942 1_555
C43 O43 1.158816 1_555
C43 Os15 1.925942 1_555
C44 O44 1.163702 1_555
C44 Os12 1.922303 1_555
C45 O45 1.163702 1_555
C45 Os13 1.922303 1_555
C46 O46 1.163702 1_555
C46 Os14 1.922303 1_555
C47 O47 1.163702 1_555
C47 Os15 1.922303 1_555
Cl0 Os0 2.494282 1_555
Cl0 Os8 2.500335 1_555
Cl1 Os1 2.494282 1_554
Cl1 Os9 2.500335 1_554
Cl2 Os2 2.494282 1_555
Cl2 Os10 2.500335 1_555
Cl3 Os3 2.494282 1_556
Cl3 Os11 2.500335 1_556
