# generated using pymatgen
data_Li2Ti3VO8
_symmetry_space_group_name_H-M   'P 1'
_cell_length_a   5.98040853
_cell_length_b   6.07271908
_cell_length_c   8.49798432
_cell_angle_alpha   88.70740442
_cell_angle_beta   90.00716979
_cell_angle_gamma   89.68097839
_symmetry_Int_Tables_number   1
_chemical_formula_structural   Li2Ti3VO8
_chemical_formula_sum   'Li4 Ti6 V2 O16'
_cell_volume   308.54086700
_cell_formula_units_Z   2
loop_
 _symmetry_equiv_pos_site_id
 _symmetry_equiv_pos_as_xyz
  1  'x, y, z'
loop_
 _atom_site_type_symbol
 _atom_site_label
 _atom_site_symmetry_multiplicity
 _atom_site_fract_x
 _atom_site_fract_y
 _atom_site_fract_z
 _atom_site_occupancy
  Li  Li0  1  0.49999800  0.49999900  0.99999900  1
  Li  Li1  1  0.99999700  0.99999900  0.49999900  1
  Li  Li2  1  0.74999400  0.24999600  0.25000000  1
  Li  Li3  1  0.24999900  0.75000200  0.74999900  1
  Ti  Ti0  1  0.24999400  0.75000400  0.25000100  1
  Ti  Ti1  1  0.74999900  0.25000500  0.74999300  1
  Ti  Ti2  1  0.75000300  0.74999600  0.25000700  1
  Ti  Ti3  1  0.24999500  0.25000000  0.74999600  1
  Ti  Ti4  1  0.00000500  0.49999900  0.49999800  1
  Ti  Ti5  1  0.50000300  0.00000100  0.99999900  1
  V  V0  1  0.00001900  0.00001500  0.00000800  1
  V  V1  1  0.49997800  0.49997900  0.50000000  1
  O  O0  1  0.99938800  0.52716700  0.26381900  1
  O  O1  1  0.49938600  0.02715600  0.76381200  1
  O  O2  1  0.00061100  0.47283300  0.73617900  1
  O  O3  1  0.50061300  0.97284500  0.23618500  1
  O  O4  1  0.73259600  0.77373600  0.02035500  1
  O  O5  1  0.23258200  0.27370200  0.52034700  1
  O  O6  1  0.26741100  0.22626700  0.97964500  1
  O  O7  1  0.76742500  0.72630200  0.47965300  1
  O  O8  1  0.26775000  0.77021300  0.01430200  1
  O  O9  1  0.76777400  0.27016600  0.51429400  1
  O  O10  1  0.50449900  0.53323800  0.25114100  1
  O  O11  1  0.00449500  0.03324700  0.75117500  1
  O  O12  1  0.49550000  0.46676300  0.74886500  1
  O  O13  1  0.99550400  0.96675500  0.24883000  1
  O  O14  1  0.73225600  0.22978400  0.98569800  1
  O  O15  1  0.23223300  0.72982900  0.48570500  1
loop_
_geom_bond_atom_site_label_1
_geom_bond_atom_site_label_2
_geom_bond_distance
_geom_bond_site_symmetry_2
Li0 O12 2.148363 1_555
Li0 O10 2.148433 1_556
Li0 O8 2.149476 1_556
Li0 O14 2.149517 1_555
Li0 O6 2.183253 1_555
Li0 O4 2.183321 1_556
Li1 O13 2.148664 1_555
Li1 O11 2.148726 1_665
Li1 O9 2.149157 1_565
Li1 O15 2.149221 1_655
Li1 O7 2.183026 1_555
Li1 O5 2.183106 1_665
Li2 O9 2.254589 1_555
Li2 O14 2.254664 1_554
Li2 O10 2.255392 1_555
Li2 O13 2.255451 1_545
Li2 O3 2.259994 1_545
Li2 O0 2.260139 1_555
Li3 O15 2.254586 1_555
Li3 O8 2.254676 1_556
Li3 O12 2.255400 1_555
Li3 O11 2.255447 1_565
Li3 O1 2.260030 1_565
Li3 O2 2.260106 1_555
O0 Ti2 2.009858 1_555
O0 Ti4 2.010104 1_655
O0 Ti0 2.026487 1_655
O1 Ti3 2.009947 1_555
O1 Ti5 2.010167 1_555
O1 Ti1 2.026568 1_555
O2 Ti3 2.009872 1_555
O2 Ti4 2.010120 1_555
O2 Ti1 2.026476 1_455
O3 Ti2 2.009965 1_555
O3 Ti5 2.010159 1_564
O3 Ti0 2.026561 1_555
O4 Ti5 1.954670 1_564
O4 Ti2 1.956367 1_555
O4 V0 2.118893 1_665
O5 Ti4 1.954734 1_555
O5 Ti3 1.956331 1_555
O5 V1 2.118762 1_555
O6 Ti5 1.954669 1_555
O6 Ti3 1.956342 1_555
O6 V0 2.118655 1_556
O7 Ti4 1.954769 1_655
O7 Ti2 1.956306 1_555
O7 V1 2.119175 1_555
O8 Ti5 1.976165 1_564
O8 Ti0 2.006818 1_555
O8 V0 2.119743 1_565
O9 Ti4 1.976262 1_655
O9 Ti1 2.006813 1_555
O9 V1 2.120079 1_555
O10 Ti2 1.977213 1_555
O10 Ti0 2.006644 1_555
O10 V1 2.120072 1_555
O11 Ti3 1.977171 1_555
O11 Ti1 2.006569 1_455
O11 V0 2.119837 1_556
O12 Ti3 1.977238 1_555
O12 Ti1 2.006587 1_555
O12 V1 2.120101 1_555
O13 Ti2 1.977200 1_555
O13 Ti0 2.006515 1_655
O13 V0 2.119759 1_665
O14 Ti5 1.976142 1_555
O14 Ti1 2.006868 1_555
O14 V0 2.119762 1_656
O15 Ti4 1.976236 1_555
O15 Ti0 2.006854 1_555
O15 V1 2.119997 1_555
