# generated using pymatgen
data_Sm3MoO7
_symmetry_space_group_name_H-M   'P 1'
_cell_length_a   7.51331309
_cell_length_b   7.51950812
_cell_length_c   10.71513918
_cell_angle_alpha   90.00000000
_cell_angle_beta   90.00000000
_cell_angle_gamma   90.00000000
_symmetry_Int_Tables_number   1
_chemical_formula_structural   Sm3MoO7
_chemical_formula_sum   'Sm12 Mo4 O28'
_cell_volume   605.36699049
_cell_formula_units_Z   4
loop_
 _symmetry_equiv_pos_site_id
 _symmetry_equiv_pos_as_xyz
  1  'x, y, z'
loop_
 _atom_site_type_symbol
 _atom_site_label
 _atom_site_symmetry_multiplicity
 _atom_site_fract_x
 _atom_site_fract_y
 _atom_site_fract_z
 _atom_site_occupancy
  Sm  Sm0  1  0.23850804  0.71129304  0.00569520  1
  Sm  Sm1  1  0.00012275  0.55354428  0.73063811  1
  Sm  Sm2  1  0.00347841  0.53945796  0.27921097  1
  Sm  Sm3  1  0.49652159  0.46054204  0.77921097  1
  Sm  Sm4  1  0.49987725  0.44645572  0.23063811  1
  Sm  Sm5  1  0.26149196  0.28870696  0.50569520  1
  Sm  Sm6  1  0.76149196  0.21129304  0.49430480  1
  Sm  Sm7  1  -0.00012275  0.05354428  0.76936189  1
  Sm  Sm8  1  0.99652159  0.03945796  0.22078903  1
  Sm  Sm9  1  0.50347841  0.96054204  0.72078903  1
  Sm  Sm10  1  0.50012275  0.94645572  0.26936189  1
  Sm  Sm11  1  0.73850804  0.78870696  0.99430480  1
  Mo  Mo0  1  0.74644656  0.74548301  0.50111064  1
  Mo  Mo1  1  0.75355344  0.25451699  0.00111064  1
  Mo  Mo2  1  0.25355344  0.24548301  0.99888936  1
  Mo  Mo3  1  0.24644656  0.75451699  0.49888936  1
  O  O0  1  0.48549238  0.74149112  0.86811502  1
  O  O1  1  0.50332178  0.71347574  0.13284300  1
  O  O2  1  0.99711242  0.68301248  0.50736217  1
  O  O3  1  0.70495632  0.61340004  0.64763614  1
  O  O4  1  0.28571872  0.56352424  0.62635403  1
  O  O5  1  0.71569073  0.55843093  0.38027242  1
  O  O6  1  0.28520616  0.54013650  0.37933660  1
  O  O7  1  0.21479384  0.45986350  0.87933660  1
  O  O8  1  0.78430927  0.44156907  0.88027242  1
  O  O9  1  0.21428128  0.43647576  0.12635403  1
  O  O10  1  0.79504368  0.38659996  0.14763614  1
  O  O11  1  0.50288758  0.31698752  0.00736217  1
  O  O12  1  0.99667822  0.28652426  0.63284300  1
  O  O13  1  0.01450762  0.25850888  0.36811502  1
  O  O14  1  0.51450762  0.24149112  0.63188498  1
  O  O15  1  0.49667822  0.21347574  0.36715700  1
  O  O16  1  0.00288758  0.18301248  0.99263783  1
  O  O17  1  0.29504368  0.11340004  0.85236386  1
  O  O18  1  0.71428128  0.06352424  0.87364597  1
  O  O19  1  0.28430927  0.05843093  0.11972758  1
  O  O20  1  0.71479384  0.04013650  0.12066340  1
  O  O21  1  0.78520616  0.95986350  0.62066340  1
  O  O22  1  0.21569073  0.94156907  0.61972758  1
  O  O23  1  0.78571872  0.93647576  0.37364597  1
  O  O24  1  0.20495632  0.88659996  0.35236386  1
  O  O25  1  0.49711242  0.81698752  0.49263783  1
  O  O26  1  0.00332178  0.78652426  0.86715700  1
  O  O27  1  0.98549238  0.75850888  0.13188498  1
loop_
_geom_bond_atom_site_label_1
_geom_bond_atom_site_label_2
_geom_bond_distance
_geom_bond_site_symmetry_2
Mo0 O3 1.883786 1_555
Mo0 O5 1.925683 1_555
Mo0 O2 1.942186 1_555
Mo0 O25 1.951074 1_555
Mo0 O23 2.003763 1_555
Mo0 O21 2.079540 1_555
Mo1 O10 1.883786 1_555
Mo1 O8 1.925683 1_554
Mo1 O11 1.942186 1_555
Mo1 O16 1.951074 1_654
Mo1 O18 2.003763 1_554
Mo1 O20 2.079540 1_555
Mo2 O17 1.883786 1_555
Mo2 O19 1.925683 1_556
Mo2 O16 1.942186 1_555
Mo2 O11 1.951074 1_556
Mo2 O9 2.003763 1_556
Mo2 O7 2.079540 1_555
Mo3 O24 1.883786 1_555
Mo3 O22 1.925683 1_555
Mo3 O25 1.942186 1_555
Mo3 O2 1.951074 1_455
Mo3 O4 2.003763 1_555
Mo3 O6 2.079540 1_555
O0 Sm9 2.285480 1_555
O0 Sm3 2.318927 1_555
O0 Sm11 2.359679 1_555
O0 Sm0 2.380822 1_556
O1 Sm4 2.265003 1_555
O1 Sm10 2.282444 1_555
O1 Sm11 2.376135 1_554
O1 Sm0 2.411440 1_555
O2 Sm1 2.583026 1_655
O2 Sm2 2.672815 1_655
O3 Sm3 2.400267 1_555
O3 Sm1 2.431392 1_655
O4 Sm3 2.406414 1_555
O4 Sm1 2.420453 1_555
O4 Sm5 2.444391 1_555
O5 Sm2 2.422453 1_655
O5 Sm4 2.430819 1_555
O5 Sm6 2.902600 1_555
O6 Sm5 2.332251 1_555
O6 Sm2 2.373080 1_555
O6 Sm4 2.374095 1_555
O7 Sm0 2.332251 1_556
O7 Sm3 2.373080 1_555
O7 Sm1 2.374095 1_555
O8 Sm3 2.422453 1_555
O8 Sm1 2.430819 1_655
O8 Sm11 2.902600 1_555
O9 Sm2 2.406414 1_555
O9 Sm4 2.420453 1_555
O9 Sm0 2.444391 1_555
O10 Sm2 2.400267 1_655
O10 Sm4 2.431392 1_555
O11 Sm4 2.583026 1_555
O11 Sm3 2.672815 1_554
O12 Sm1 2.265003 1_655
O12 Sm7 2.282444 1_655
O12 Sm6 2.376135 1_555
O12 Sm5 2.411440 1_655
O13 Sm8 2.285480 1_455
O13 Sm2 2.318927 1_555
O13 Sm6 2.359679 1_455
O13 Sm5 2.380822 1_555
O14 Sm3 2.285480 1_555
O14 Sm9 2.318927 1_545
O14 Sm5 2.359679 1_555
O14 Sm6 2.380822 1_555
O15 Sm10 2.265003 1_545
O15 Sm4 2.282444 1_555
O15 Sm5 2.376135 1_555
O15 Sm6 2.411440 1_555
O16 Sm7 2.583026 1_555
O16 Sm8 2.672815 1_456
O17 Sm9 2.400267 1_545
O17 Sm7 2.431392 1_555
O18 Sm9 2.406414 1_545
O18 Sm7 2.420453 1_655
O18 Sm11 2.444391 1_545
O19 Sm8 2.422453 1_455
O19 Sm10 2.430819 1_545
O19 Sm0 2.902600 1_545
O20 Sm11 2.332251 1_544
O20 Sm8 2.373080 1_555
O20 Sm10 2.374095 1_545
O21 Sm6 2.332251 1_565
O21 Sm9 2.373080 1_555
O21 Sm7 2.374095 1_665
O22 Sm9 2.422453 1_555
O22 Sm7 2.430819 1_565
O22 Sm5 2.902600 1_565
O23 Sm8 2.406414 1_565
O23 Sm10 2.420453 1_555
O23 Sm6 2.444391 1_565
O24 Sm8 2.400267 1_465
O24 Sm10 2.431392 1_555
O25 Sm10 2.583026 1_555
O25 Sm9 2.672815 1_555
O26 Sm7 2.265003 1_565
O26 Sm1 2.282444 1_555
O26 Sm0 2.376135 1_556
O26 Sm11 2.411440 1_455
O27 Sm2 2.285480 1_655
O27 Sm8 2.318927 1_565
O27 Sm0 2.359679 1_655
O27 Sm11 2.380822 1_554
