# generated using pymatgen
data_LiCr2CoO6
_symmetry_space_group_name_H-M   'P 1'
_cell_length_a   6.58302865
_cell_length_b   2.90571161
_cell_length_c   5.93988782
_cell_angle_alpha   89.69866601
_cell_angle_beta   103.90831523
_cell_angle_gamma   102.55838813
_symmetry_Int_Tables_number   1
_chemical_formula_structural   LiCr2CoO6
_chemical_formula_sum   'Li1 Cr2 Co1 O6'
_cell_volume   107.51803673
_cell_formula_units_Z   1
loop_
 _symmetry_equiv_pos_site_id
 _symmetry_equiv_pos_as_xyz
  1  'x, y, z'
loop_
 _atom_site_type_symbol
 _atom_site_label
 _atom_site_symmetry_multiplicity
 _atom_site_fract_x
 _atom_site_fract_y
 _atom_site_fract_z
 _atom_site_occupancy
  Li  Li0  1  0.65792500  0.32881100  0.16121700  1
  Cr  Cr0  1  0.01418600  0.01206700  0.99166800  1
  Cr  Cr1  1  0.66140000  0.32811100  0.66523500  1
  Co  Co0  1  0.32667000  0.66446400  0.34174600  1
  O  O0  1  0.02292900  0.51640500  0.21917100  1
  O  O1  1  0.34219400  0.17193200  0.54795100  1
  O  O2  1  0.32605600  0.16488200  0.12713000  1
  O  O3  1  0.69597100  0.84441100  0.90809700  1
  O  O4  1  0.63009800  0.81508200  0.42507500  1
  O  O5  1  0.98378800  0.48444400  0.77966500  1
loop_
_geom_bond_atom_site_label_1
_geom_bond_atom_site_label_2
_geom_bond_distance
_geom_bond_site_symmetry_2
Li0 O2 2.092041 1_555
Li0 O3 2.135877 1_554
Li0 O3 2.158930 1_544
Li0 O4 2.170885 1_545
Li0 O4 2.181808 1_555
Li0 O0 2.285603 1_655
Cr0 O5 1.868139 1_455
Cr0 O5 1.934431 1_445
Cr0 O2 1.967937 1_556
Cr0 O0 1.970266 1_546
Cr0 O0 1.980852 1_556
Cr0 O3 1.982638 1_445
Cr1 O1 1.997945 1_555
Cr1 O4 2.010945 1_555
Cr1 O4 2.011748 1_545
Cr1 O5 2.015685 1_555
Cr1 O3 2.016969 1_545
Cr1 O3 2.024828 1_555
Co0 O1 1.882514 1_555
Co0 O4 1.890306 1_555
Co0 O1 1.891631 1_565
Co0 O0 1.908577 1_555
Co0 O2 1.928735 1_565
Co0 O2 1.935670 1_555
