# generated using pymatgen
data_Na5Mn2P2(CO7)2
_symmetry_space_group_name_H-M   'P 1'
_cell_length_a   6.64370000
_cell_length_b   5.24885200
_cell_length_c   17.96758190
_cell_angle_alpha   88.96987520
_cell_angle_beta   90.00000000
_cell_angle_gamma   90.00000000
_symmetry_Int_Tables_number   1
_chemical_formula_structural   Na5Mn2P2(CO7)2
_chemical_formula_sum   'Na10 Mn4 P4 C4 O28'
_cell_volume   626.46062293
_cell_formula_units_Z   2
loop_
 _symmetry_equiv_pos_site_id
 _symmetry_equiv_pos_as_xyz
  1  'x, y, z'
loop_
 _atom_site_type_symbol
 _atom_site_label
 _atom_site_symmetry_multiplicity
 _atom_site_fract_x
 _atom_site_fract_y
 _atom_site_fract_z
 _atom_site_occupancy
  Na  Na0  1  0.00991600  0.75534600  0.12420300  1
  Na  Na1  1  0.49008400  0.75534600  0.12420300  1
  Na  Na2  1  0.50991600  0.24465400  0.87579700  1
  Na  Na3  1  0.99008400  0.24465400  0.87579700  1
  Na  Na4  1  0.25000000  0.24010100  0.71155400  1
  Na  Na5  1  0.99559500  0.75169100  0.62620200  1
  Na  Na6  1  0.50440500  0.75169100  0.62620200  1
  Na  Na7  1  0.49559500  0.24830900  0.37379800  1
  Na  Na8  1  0.00440500  0.24830900  0.37379800  1
  Na  Na9  1  0.75000000  0.75989900  0.28844600  1
  Mn  Mn0  1  0.75000000  0.22069400  0.07123000  1
  Mn  Mn1  1  0.25000000  0.77930600  0.92877000  1
  Mn  Mn2  1  0.75000000  0.22132700  0.57309100  1
  Mn  Mn3  1  0.25000000  0.77867300  0.42690900  1
  P  P0  1  0.25000000  0.29575600  0.03975000  1
  P  P1  1  0.75000000  0.70424400  0.96025000  1
  P  P2  1  0.25000000  0.29802200  0.54044500  1
  P  P3  1  0.75000000  0.70197800  0.45955500  1
  C  C0  1  0.75000000  0.26901100  0.21808400  1
  C  C1  1  0.25000000  0.73098900  0.78191600  1
  C  C2  1  0.75000000  0.26984500  0.71503700  1
  C  C3  1  0.25000000  0.73015500  0.28496300  1
  O  O0  1  0.25000000  0.72472200  0.21460500  1
  O  O1  1  0.75000000  0.04965600  0.18479700  1
  O  O2  1  0.75000000  0.47545700  0.17724700  1
  O  O3  1  0.05916500  0.21729400  0.08485800  1
  O  O4  1  0.44083500  0.21729400  0.08485800  1
  O  O5  1  0.25000000  0.59577200  0.02973100  1
  O  O6  1  0.75000000  0.82800800  0.03818100  1
  O  O7  1  0.25000000  0.17199200  0.96181900  1
  O  O8  1  0.75000000  0.40422800  0.97026900  1
  O  O9  1  0.55916500  0.78270600  0.91514200  1
  O  O10  1  0.94083500  0.78270600  0.91514200  1
  O  O11  1  0.25000000  0.52454300  0.82275300  1
  O  O12  1  0.25000000  0.95034400  0.81520300  1
  O  O13  1  0.75000000  0.27527800  0.78539500  1
  O  O14  1  0.25000000  0.72213000  0.71024300  1
  O  O15  1  0.75000000  0.05150400  0.67907400  1
  O  O16  1  0.75000000  0.47291000  0.67194000  1
  O  O17  1  0.06436800  0.22420400  0.58906500  1
  O  O18  1  0.43563200  0.22420400  0.58906500  1
  O  O19  1  0.25000000  0.59548900  0.52715200  1
  O  O20  1  0.75000000  0.83422900  0.53562400  1
  O  O21  1  0.25000000  0.16577100  0.46437600  1
  O  O22  1  0.75000000  0.40451100  0.47284800  1
  O  O23  1  0.56436800  0.77579600  0.41093500  1
  O  O24  1  0.93563200  0.77579600  0.41093500  1
  O  O25  1  0.25000000  0.52709000  0.32806000  1
  O  O26  1  0.25000000  0.94849600  0.32092600  1
  O  O27  1  0.75000000  0.27787000  0.28975700  1
loop_
_geom_bond_atom_site_label_1
_geom_bond_atom_site_label_2
_geom_bond_distance
_geom_bond_site_symmetry_2
Na0 O0 2.280129 1_555
Na0 O6 2.344146 1_455
Na0 O2 2.449101 1_455
Na0 O5 2.485581 1_555
Na0 O3 2.534627 1_565
Na0 O1 2.571775 1_465
Na1 O0 2.280129 1_555
Na1 O6 2.344146 1_555
Na1 O2 2.449101 1_555
Na1 O5 2.485581 1_555
Na1 O4 2.534627 1_565
Na1 O1 2.571775 1_565
Na2 O13 2.280129 1_555
Na2 O7 2.344146 1_555
Na2 O11 2.449101 1_555
Na2 O8 2.485581 1_555
Na2 O9 2.534627 1_545
Na2 O12 2.571775 1_545
Na3 O13 2.280129 1_555
Na3 O7 2.344146 1_655
Na3 O11 2.449101 1_655
Na3 O8 2.485581 1_555
Na3 O10 2.534627 1_545
Na3 O12 2.571775 1_645
Na4 O12 2.383173 1_545
Na4 O11 2.515591 1_555
Na4 O18 2.525512 1_555
Na4 O17 2.525512 1_555
Na4 O14 2.529785 1_555
Na4 O14 2.719279 1_545
Na5 O14 2.269920 1_655
Na5 O16 2.331442 1_555
Na5 O20 2.339509 1_555
Na5 O15 2.468802 1_565
Na5 O17 2.597238 1_665
Na5 O19 2.597827 1_655
Na5 O17 2.895883 1_655
Na6 O14 2.269920 1_555
Na6 O16 2.331442 1_555
Na6 O20 2.339509 1_555
Na6 O15 2.468802 1_565
Na6 O18 2.597238 1_565
Na6 O19 2.597827 1_555
Na6 O18 2.895883 1_555
Na7 O27 2.269920 1_555
Na7 O25 2.331442 1_555
Na7 O21 2.339509 1_555
Na7 O26 2.468802 1_545
Na7 O23 2.597238 1_545
Na7 O22 2.597827 1_555
Na7 O23 2.895883 1_555
Na8 O27 2.269920 1_455
Na8 O25 2.331442 1_555
Na8 O21 2.339509 1_555
Na8 O26 2.468802 1_545
Na8 O24 2.597238 1_445
Na8 O22 2.597827 1_455
Na8 O24 2.895883 1_455
Na9 O1 2.383173 1_565
Na9 O2 2.515591 1_555
Na9 O23 2.525512 1_555
Na9 O24 2.525512 1_555
Na9 O27 2.529785 1_555
Na9 O27 2.719279 1_565
Mn0 O8 2.038598 1_554
Mn0 O3 2.068582 1_655
Mn0 O4 2.068582 1_555
Mn0 O6 2.155217 1_545
Mn0 O1 2.214460 1_555
Mn0 O2 2.346967 1_555
Mn1 O5 2.038598 1_556
Mn1 O10 2.068582 1_455
Mn1 O9 2.068582 1_555
Mn1 O7 2.155217 1_565
Mn1 O12 2.214460 1_555
Mn1 O11 2.346967 1_555
Mn2 O22 2.026394 1_555
Mn2 O15 2.087994 1_555
Mn2 O17 2.108286 1_655
Mn2 O18 2.108286 1_555
Mn2 O20 2.151897 1_545
Mn2 O16 2.232165 1_555
Mn3 O19 2.026394 1_555
Mn3 O26 2.087994 1_555
Mn3 O24 2.108286 1_455
Mn3 O23 2.108286 1_555
Mn3 O21 2.151897 1_565
Mn3 O25 2.232165 1_555
C0 O27 1.289465 1_555
C0 O2 1.297686 1_555
C0 O1 1.306944 1_555
C1 O14 1.289465 1_555
C1 O11 1.297686 1_555
C1 O12 1.306944 1_555
C2 O13 1.264997 1_555
C2 O16 1.306137 1_555
C2 O15 1.325733 1_555
C3 O0 1.264997 1_555
C3 O25 1.306137 1_555
C3 O26 1.325733 1_555
O3 P0 1.556256 1_555
O4 P0 1.556256 1_555
O5 P0 1.581777 1_555
O6 P1 1.554143 1_554
O7 P0 1.554143 1_556
O8 P1 1.581777 1_555
O9 P1 1.556256 1_555
O10 P1 1.556256 1_555
O17 P2 1.556307 1_555
O18 P2 1.556307 1_555
O19 P2 1.575272 1_555
O20 P3 1.544039 1_555
O21 P2 1.544039 1_555
O22 P3 1.575272 1_555
O23 P3 1.556307 1_555
O24 P3 1.556307 1_555
