# generated using pymatgen
data_Mg8V5O16
_symmetry_space_group_name_H-M   'P 1'
_cell_length_a   6.03811700
_cell_length_b   6.05324385
_cell_length_c   10.29576240
_cell_angle_alpha   73.80162094
_cell_angle_beta   73.57799877
_cell_angle_gamma   60.09268257
_symmetry_Int_Tables_number   1
_chemical_formula_structural   Mg8V5O16
_chemical_formula_sum   'Mg8 V5 O16'
_cell_volume   308.55268002
_cell_formula_units_Z   1
loop_
 _symmetry_equiv_pos_site_id
 _symmetry_equiv_pos_as_xyz
  1  'x, y, z'
loop_
 _atom_site_type_symbol
 _atom_site_label
 _atom_site_symmetry_multiplicity
 _atom_site_fract_x
 _atom_site_fract_y
 _atom_site_fract_z
 _atom_site_occupancy
  Mg  Mg0  1  0.68394000  0.18982000  0.92588500  1
  Mg  Mg1  1  0.50045700  0.99727900  0.50108400  1
  Mg  Mg2  1  0.75199200  0.24701100  0.24605500  1
  Mg  Mg3  1  0.24959600  0.75358900  0.75364100  1
  Mg  Mg4  1  0.99548000  0.50054800  0.50155400  1
  Mg  Mg5  1  0.50353900  0.49791500  0.50596200  1
  Mg  Mg6  1  0.99712800  0.00107100  0.50175300  1
  Mg  Mg7  1  0.31829400  0.81117800  0.07018500  1
  V  V0  1  0.73496500  0.75333100  0.75361600  1
  V  V1  1  0.24645700  0.24506600  0.75048000  1
  V  V2  1  0.99851300  0.50463000  0.99819100  1
  V  V3  1  0.75073000  0.75467700  0.24974500  1
  V  V4  1  0.26473100  0.24814300  0.24600800  1
  O  O0  1  0.88953900  0.38319800  0.86719400  1
  O  O1  1  0.88450100  0.84387900  0.86999400  1
  O  O2  1  0.38502100  0.87642500  0.86522100  1
  O  O3  1  0.61061000  0.12625000  0.62227500  1
  O  O4  1  0.34022000  0.38620000  0.87050800  1
  O  O5  1  0.85492200  0.88116700  0.37575800  1
  O  O6  1  0.36618600  0.35426500  0.36892100  1
  O  O7  1  0.12284900  0.62982100  0.62023200  1
  O  O8  1  0.87752800  0.37107200  0.37632400  1
  O  O9  1  0.62266400  0.64232900  0.62134400  1
  O  O10  1  0.65886400  0.61131900  0.13078000  1
  O  O11  1  0.14323300  0.12274200  0.62029800  1
  O  O12  1  0.38402700  0.88608600  0.36962800  1
  O  O13  1  0.60753200  0.12803200  0.13514900  1
  O  O14  1  0.12435700  0.15561200  0.13697400  1
  O  O15  1  0.11546800  0.60809800  0.13746400  1
loop_
_geom_bond_atom_site_label_1
_geom_bond_atom_site_label_2
_geom_bond_distance
_geom_bond_site_symmetry_2
Mg0 O4 1.968818 1_555
Mg0 O0 1.976567 1_555
Mg0 O1 1.982990 1_545
Mg0 O13 2.038429 1_556
Mg1 O11 2.031106 1_565
Mg1 O3 2.034521 1_565
Mg1 O9 2.036013 1_555
Mg1 O5 2.045535 1_555
Mg1 O12 2.072963 1_555
Mg1 O6 2.101104 1_565
Mg2 O13 2.057144 1_555
Mg2 O10 2.066018 1_555
Mg2 O14 2.073907 1_655
Mg2 O5 2.126163 1_545
Mg2 O8 2.154488 1_555
Mg2 O6 2.175388 1_555
Mg3 O2 2.038459 1_555
Mg3 O1 2.064986 1_455
Mg3 O4 2.087761 1_555
Mg3 O11 2.155548 1_565
Mg3 O9 2.155762 1_555
Mg3 O7 2.184927 1_555
Mg4 O7 2.088472 1_655
Mg4 O9 2.102223 1_555
Mg4 O8 2.103220 1_555
Mg4 O11 2.131414 1_655
Mg4 O6 2.151510 1_655
Mg4 O5 2.170898 1_555
Mg5 O9 2.093400 1_555
Mg5 O3 2.097077 1_555
Mg5 O7 2.114298 1_555
Mg5 O8 2.146858 1_555
Mg5 O12 2.248067 1_555
Mg5 O6 2.345205 1_555
Mg6 O7 2.099389 1_645
Mg6 O8 2.122777 1_555
Mg6 O11 2.137432 1_655
Mg6 O3 2.164346 1_555
Mg6 O5 2.173346 1_545
Mg6 O12 2.214146 1_645
Mg7 O10 1.976120 1_555
Mg7 O2 1.996110 1_554
Mg7 O15 2.009321 1_555
Mg7 O14 2.025108 1_565
O0 V1 2.021636 1_655
O0 V0 2.080499 1_555
O0 V2 2.080748 1_555
O1 V0 2.005742 1_555
O1 V2 2.006213 1_555
O2 V0 1.968544 1_555
O2 V1 2.073976 1_565
O3 V1 2.099035 1_555
O3 V0 2.160762 1_545
O4 V2 2.004083 1_455
O4 V1 2.011089 1_555
O5 V3 2.039951 1_555
O6 V4 1.916685 1_555
O7 V1 2.206723 1_555
O7 V0 2.222247 1_455
O8 V3 2.186199 1_555
O8 V4 2.206477 1_655
O9 V0 2.062257 1_555
O10 V3 2.004528 1_555
O10 V2 2.018589 1_554
O11 V1 2.054142 1_555
O12 V3 2.074859 1_555
O12 V4 2.080822 1_565
O13 V4 1.934481 1_555
O13 V3 2.094705 1_545
O14 V4 1.911694 1_555
O14 V2 2.100318 1_454
O15 V4 2.015302 1_555
O15 V3 2.039130 1_455
O15 V2 2.112294 1_454
