# generated using pymatgen
data_Li2Cr4P4O15
_symmetry_space_group_name_H-M   'P 1'
_cell_length_a   8.93959768
_cell_length_b   8.93959768
_cell_length_c   18.30889750
_cell_angle_alpha   82.83979830
_cell_angle_beta   82.83979830
_cell_angle_gamma   103.77606095
_symmetry_Int_Tables_number   1
_chemical_formula_structural   Li2Cr4P4O15
_chemical_formula_sum   'Li8 Cr16 P16 O60'
_cell_volume   1391.81059121
_cell_formula_units_Z   4
loop_
 _symmetry_equiv_pos_site_id
 _symmetry_equiv_pos_as_xyz
  1  'x, y, z'
loop_
 _atom_site_type_symbol
 _atom_site_label
 _atom_site_symmetry_multiplicity
 _atom_site_fract_x
 _atom_site_fract_y
 _atom_site_fract_z
 _atom_site_occupancy
  Li  Li0  1  0.53031200  0.98878600  0.24839400  1
  Li  Li1  1  0.68991500  0.54527400  0.05388000  1
  Li  Li2  1  0.45472600  0.31008500  0.44612000  1
  Li  Li3  1  0.98878600  0.53031200  0.74839400  1
  Li  Li4  1  0.01121400  0.46968800  0.25160600  1
  Li  Li5  1  0.54527400  0.68991500  0.55388000  1
  Li  Li6  1  0.31008500  0.45472600  0.94612000  1
  Li  Li7  1  0.46968800  0.01121400  0.75160600  1
  Cr  Cr0  1  0.04890600  0.15731700  0.43243300  1
  Cr  Cr1  1  0.09167300  0.71368900  0.06495300  1
  Cr  Cr2  1  0.00000000  0.50000000  0.50000000  1
  Cr  Cr3  1  0.15731700  0.04890600  0.93243300  1
  Cr  Cr4  1  0.18400900  0.81599100  0.25000000  1
  Cr  Cr5  1  0.45938000  0.54062000  0.25000000  1
  Cr  Cr6  1  0.94992600  0.05007400  0.25000000  1
  Cr  Cr7  1  0.71368900  0.09167300  0.56495300  1
  Cr  Cr8  1  0.28631100  0.90832700  0.43504700  1
  Cr  Cr9  1  0.05007400  0.94992600  0.75000000  1
  Cr  Cr10  1  0.81599100  0.18400900  0.75000000  1
  Cr  Cr11  1  0.54062000  0.45938000  0.75000000  1
  Cr  Cr12  1  0.84268300  0.95109400  0.06756700  1
  Cr  Cr13  1  0.90832700  0.28631100  0.93504700  1
  Cr  Cr14  1  0.95109400  0.84268300  0.56756700  1
  Cr  Cr15  1  0.50000000  0.00000000  0.00000000  1
  P  P0  1  0.22200700  0.08793000  0.10071300  1
  P  P1  1  0.02607100  0.30950800  0.10416800  1
  P  P2  1  0.30610800  0.16130100  0.32099700  1
  P  P3  1  0.08793000  0.22200700  0.60071300  1
  P  P4  1  0.30950800  0.02607100  0.60416800  1
  P  P5  1  0.24161000  0.55238200  0.37984200  1
  P  P6  1  0.16130100  0.30610800  0.82099700  1
  P  P7  1  0.44761800  0.75839000  0.12015800  1
  P  P8  1  0.55238200  0.24161000  0.87984200  1
  P  P9  1  0.83869900  0.69389200  0.17900300  1
  P  P10  1  0.75839000  0.44761800  0.62015800  1
  P  P11  1  0.69049200  0.97392900  0.39583200  1
  P  P12  1  0.91207000  0.77799300  0.39928700  1
  P  P13  1  0.69389200  0.83869900  0.67900300  1
  P  P14  1  0.97392900  0.69049200  0.89583200  1
  P  P15  1  0.77799300  0.91207000  0.89928700  1
  O  O0  1  0.15629100  0.02378800  0.18287500  1
  O  O1  1  0.13250800  0.16956100  0.32178900  1
  O  O2  1  0.19314900  0.25955600  0.08450900  1
  O  O3  1  0.39502000  0.10894900  0.07935000  1
  O  O4  1  0.07471400  0.47859800  0.06844600  1
  O  O5  1  0.02378800  0.15629100  0.68287500  1
  O  O6  1  0.32191600  0.15387000  0.40798700  1
  O  O7  1  0.11796900  0.40261900  0.42242900  1
  O  O8  1  0.99748800  0.66721600  0.19560000  1
  O  O9  1  0.16956100  0.13250800  0.82178900  1
  O  O10  1  0.42249600  0.29473500  0.26941000  1
  O  O11  1  0.25955600  0.19314900  0.58450900  1
  O  O12  1  0.10894900  0.39502000  0.57935000  1
  O  O13  1  0.47859800  0.07471400  0.56844600  1
  O  O14  1  0.18925600  0.59469800  0.30333900  1
  O  O15  1  0.72074500  0.02115200  0.31035700  1
  O  O16  1  0.12199500  0.98550400  0.05035300  1
  O  O17  1  0.90853000  0.20621900  0.06532700  1
  O  O18  1  0.32426300  0.76384000  0.06863100  1
  O  O19  1  0.15387000  0.32191600  0.90798700  1
  O  O20  1  0.47642600  0.59370800  0.13389100  1
  O  O21  1  0.40261900  0.11796900  0.92242900  1
  O  O22  1  0.40629200  0.52357400  0.36610900  1
  O  O23  1  0.23616000  0.67573700  0.43136900  1
  O  O24  1  0.79378100  0.09147000  0.43467300  1
  O  O25  1  0.01449600  0.87800500  0.44964700  1
  O  O26  1  0.66721600  0.99748800  0.69560000  1
  O  O27  1  0.29473500  0.42249600  0.76941000  1
  O  O28  1  0.97884800  0.27925500  0.18964300  1
  O  O29  1  0.40530200  0.81074400  0.19666100  1
  O  O30  1  0.59469800  0.18925600  0.80333900  1
  O  O31  1  0.02115200  0.72074500  0.81035700  1
  O  O32  1  0.70526500  0.57750400  0.23059000  1
  O  O33  1  0.33278400  0.00251200  0.30440000  1
  O  O34  1  0.98550400  0.12199500  0.55035300  1
  O  O35  1  0.20621900  0.90853000  0.56532700  1
  O  O36  1  0.76384000  0.32426300  0.56863100  1
  O  O37  1  0.59370800  0.47642600  0.63389100  1
  O  O38  1  0.59738100  0.88203100  0.07757100  1
  O  O39  1  0.52357400  0.40629200  0.86610900  1
  O  O40  1  0.84613000  0.67808400  0.09201300  1
  O  O41  1  0.67573700  0.23616000  0.93136900  1
  O  O42  1  0.09147000  0.79378100  0.93467300  1
  O  O43  1  0.87800500  0.01449600  0.94964700  1
  O  O44  1  0.27925500  0.97884800  0.68964300  1
  O  O45  1  0.81074400  0.40530200  0.69666100  1
  O  O46  1  0.52140200  0.92528600  0.43155400  1
  O  O47  1  0.89105100  0.60498000  0.42065000  1
  O  O48  1  0.74044400  0.80685100  0.41549100  1
  O  O49  1  0.57750400  0.70526500  0.73059000  1
  O  O50  1  0.83043900  0.86749200  0.17821100  1
  O  O51  1  0.00251200  0.33278400  0.80440000  1
  O  O52  1  0.88203100  0.59738100  0.57757100  1
  O  O53  1  0.67808400  0.84613000  0.59201300  1
  O  O54  1  0.97621200  0.84370900  0.31712500  1
  O  O55  1  0.92528600  0.52140200  0.93155400  1
  O  O56  1  0.60498000  0.89105100  0.92065000  1
  O  O57  1  0.80685100  0.74044400  0.91549100  1
  O  O58  1  0.86749200  0.83043900  0.67821100  1
  O  O59  1  0.84370900  0.97621200  0.81712500  1
loop_
_geom_bond_atom_site_label_1
_geom_bond_atom_site_label_2
_geom_bond_distance
_geom_bond_site_symmetry_2
Li0 O33 1.966677 1_565
Li0 O29 2.114679 1_555
Li0 O15 2.144199 1_565
Li1 O40 1.872783 1_555
Li1 O20 2.414653 1_555
Li2 O6 1.872783 1_555
Li2 O22 2.414653 1_555
Li3 O51 1.966677 1_655
Li3 O45 2.114679 1_555
Li3 O31 2.144199 1_655
Li4 O8 1.966677 1_455
Li4 O14 2.114679 1_555
Li4 O28 2.144199 1_455
Li5 O53 1.872783 1_555
Li5 O37 2.414653 1_555
Li6 O19 1.872783 1_555
Li6 O39 2.414653 1_555
Li7 O26 1.966677 1_545
Li7 O30 2.114679 1_555
Li7 O44 2.144199 1_545
Cr0 O1 2.050031 1_555
Cr0 O7 2.109603 1_555
Cr0 O34 2.126485 1_455
Cr0 O24 2.209326 1_455
Cr0 O25 2.417126 1_545
Cr0 O6 2.434080 1_555
Cr1 O18 2.031583 1_555
Cr1 O4 2.063058 1_555
Cr1 O40 2.126470 1_455
Cr1 O16 2.357063 1_555
Cr1 O8 2.384702 1_455
Cr1 O42 2.403783 1_554
Cr2 O52 2.063778 1_455
Cr2 O7 2.063778 1_555
Cr2 O47 2.094796 1_455
Cr2 O12 2.094796 1_555
Cr2 O36 2.402306 1_455
Cr2 O23 2.402306 1_555
Cr3 O9 2.050031 1_555
Cr3 O21 2.109603 1_555
Cr3 O16 2.126485 1_546
Cr3 O42 2.209326 1_545
Cr3 O43 2.417126 1_455
Cr3 O19 2.434080 1_555
Cr4 O29 2.107952 1_555
Cr4 O14 2.107952 1_555
Cr4 O0 2.179122 1_565
Cr4 O54 2.179122 1_455
Cr4 O8 2.286757 1_455
Cr4 O33 2.286757 1_565
Cr5 O20 2.097831 1_555
Cr5 O22 2.097831 1_555
Cr5 O32 2.120752 1_555
Cr5 O10 2.120752 1_555
Cr5 O29 2.665420 1_555
Cr5 O14 2.665420 1_555
Cr6 O28 2.144212 1_555
Cr6 O15 2.144212 1_555
Cr6 O0 2.163848 1_655
Cr6 O54 2.163848 1_545
Cr6 O50 2.363713 1_545
Cr6 O1 2.363713 1_655
Cr7 O36 2.031583 1_555
Cr7 O13 2.063058 1_555
Cr7 O53 2.126470 1_545
Cr7 O34 2.357063 1_555
Cr7 O26 2.384702 1_545
Cr7 O24 2.403783 1_555
Cr8 O23 2.031583 1_555
Cr8 O46 2.063058 1_555
Cr8 O6 2.126470 1_565
Cr8 O25 2.357063 1_555
Cr8 O33 2.384702 1_565
Cr8 O35 2.403783 1_555
Cr9 O44 2.144212 1_555
Cr9 O31 2.144212 1_555
Cr9 O59 2.163848 1_455
Cr9 O5 2.163848 1_565
Cr9 O9 2.363713 1_565
Cr9 O58 2.363713 1_455
Cr10 O45 2.107952 1_555
Cr10 O30 2.107952 1_555
Cr10 O5 2.179122 1_655
Cr10 O59 2.179122 1_545
Cr10 O26 2.286757 1_545
Cr10 O51 2.286757 1_655
Cr11 O39 2.097831 1_555
Cr11 O37 2.097831 1_555
Cr11 O27 2.120752 1_555
Cr11 O49 2.120752 1_555
Cr11 O30 2.665420 1_555
Cr11 O45 2.665420 1_555
Cr12 O50 2.050031 1_555
Cr12 O38 2.109603 1_555
Cr12 O43 2.126485 1_564
Cr12 O17 2.209326 1_565
Cr12 O16 2.417126 1_655
Cr12 O40 2.434080 1_555
Cr13 O41 2.031583 1_555
Cr13 O55 2.063058 1_555
Cr13 O19 2.126470 1_655
Cr13 O43 2.357063 1_555
Cr13 O51 2.384702 1_655
Cr13 O17 2.403783 1_556
Cr14 O58 2.050031 1_555
Cr14 O52 2.109603 1_555
Cr14 O25 2.126485 1_655
Cr14 O35 2.209326 1_655
Cr14 O34 2.417126 1_565
Cr14 O53 2.434080 1_555
Cr15 O21 2.063778 1_554
Cr15 O38 2.063778 1_545
Cr15 O56 2.094796 1_544
Cr15 O3 2.094796 1_555
Cr15 O18 2.402306 1_545
Cr15 O41 2.402306 1_554
O0 P0 1.530052 1_555
O1 P2 1.569501 1_555
O2 P0 1.613276 1_555
O2 P1 1.668392 1_555
O3 P0 1.507624 1_555
O4 P1 1.507107 1_555
O5 P3 1.530052 1_555
O6 P2 1.610979 1_555
O7 P5 1.562772 1_555
O8 P9 1.553995 1_555
O9 P6 1.569501 1_555
O10 P2 1.510166 1_555
O11 P3 1.613276 1_555
O11 P4 1.668392 1_555
O12 P3 1.507624 1_555
O13 P4 1.507107 1_555
O14 P5 1.561961 1_555
O15 P11 1.541382 1_545
O16 P0 1.585559 1_565
O17 P1 1.533074 1_655
O18 P7 1.543340 1_555
O19 P6 1.610979 1_555
O20 P7 1.549619 1_555
O21 P8 1.562772 1_555
O22 P5 1.549619 1_555
O23 P5 1.543340 1_555
O24 P11 1.533074 1_545
O25 P12 1.585559 1_455
O26 P13 1.553995 1_555
O27 P6 1.510166 1_555
O28 P1 1.541382 1_655
O29 P7 1.561961 1_555
O30 P8 1.561961 1_555
O31 P14 1.541382 1_455
O32 P9 1.510166 1_555
O33 P2 1.553995 1_555
O34 P3 1.585559 1_655
O35 P4 1.533074 1_565
O36 P10 1.543340 1_555
O37 P10 1.549619 1_555
O38 P7 1.562772 1_555
O39 P8 1.549619 1_555
O40 P9 1.610979 1_555
O41 P8 1.543340 1_555
O42 P14 1.533074 1_455
O43 P15 1.585559 1_545
O44 P4 1.541382 1_565
O45 P10 1.561961 1_555
O46 P11 1.507107 1_555
O47 P12 1.507624 1_555
O48 P12 1.613276 1_555
O48 P11 1.668392 1_555
O49 P13 1.510166 1_555
O50 P9 1.569501 1_555
O51 P6 1.553995 1_555
O52 P10 1.562772 1_555
O53 P13 1.610979 1_555
O54 P12 1.530052 1_555
O55 P14 1.507107 1_555
O56 P15 1.507624 1_555
O57 P15 1.613276 1_555
O57 P14 1.668392 1_555
O58 P13 1.569501 1_555
O59 P15 1.530052 1_555
