# generated using pymatgen
data_Li2Ti7Nb6O30
_symmetry_space_group_name_H-M   'P 1'
_cell_length_a   5.19335084
_cell_length_b   5.19335084
_cell_length_c   23.75020900
_cell_angle_alpha   90.00000000
_cell_angle_beta   90.00000000
_cell_angle_gamma   120.00001069
_symmetry_Int_Tables_number   1
_chemical_formula_structural   Li2Ti7Nb6O30
_chemical_formula_sum   'Li2 Ti7 Nb6 O30'
_cell_volume   554.74493512
_cell_formula_units_Z   1
loop_
 _symmetry_equiv_pos_site_id
 _symmetry_equiv_pos_as_xyz
  1  'x, y, z'
loop_
 _atom_site_type_symbol
 _atom_site_label
 _atom_site_symmetry_multiplicity
 _atom_site_fract_x
 _atom_site_fract_y
 _atom_site_fract_z
 _atom_site_occupancy
  Li  Li0  1  0.00000000  0.00000000  0.07561300  1
  Li  Li1  1  0.66666700  0.33333300  0.46901800  1
  Ti  Ti0  1  0.33333300  0.66666700  0.01682700  1
  Ti  Ti1  1  0.33333300  0.66666700  0.69319100  1
  Ti  Ti2  1  0.33333300  0.66666700  0.28394300  1
  Ti  Ti3  1  0.66666700  0.33333300  0.30669800  1
  Ti  Ti4  1  0.66666700  0.33333300  0.71687400  1
  Ti  Ti5  1  0.66666700  0.33333300  0.98773400  1
  Ti  Ti6  1  0.66666700  0.33333300  0.11339100  1
  Nb  Nb0  1  0.00000000  0.00000000  0.80043900  1
  Nb  Nb1  1  0.00000000  0.00000000  0.19994300  1
  Nb  Nb2  1  0.00000000  0.00000000  0.50093500  1
  Nb  Nb3  1  0.33333300  0.66666700  0.89061900  1
  Nb  Nb4  1  0.33333300  0.66666700  0.40816300  1
  Nb  Nb5  1  0.66666700  0.33333300  0.59333600  1
  O  O0  1  0.03021800  0.69935100  0.44985400  1
  O  O1  1  0.05043500  0.72143300  0.84668400  1
  O  O2  1  0.01477600  0.42310700  0.34592900  1
  O  O3  1  0.02102500  0.41368000  0.95262400  1
  O  O4  1  0.32811800  0.99875200  0.74714400  1
  O  O5  1  0.00124800  0.32936600  0.74714400  1
  O  O6  1  0.40833100  0.98522400  0.34592900  1
  O  O7  1  0.39265500  0.97897500  0.95262400  1
  O  O8  1  0.27856700  0.32900200  0.84668400  1
  O  O9  1  0.30064900  0.33086700  0.44985400  1
  O  O10  1  0.33024400  0.32924300  0.25305700  1
  O  O11  1  0.66913300  0.96978200  0.44985400  1
  O  O12  1  0.41984800  0.40485800  0.65479700  1
  O  O13  1  0.39226000  0.37055300  0.04999800  1
  O  O14  1  0.67099800  0.94956500  0.84668400  1
  O  O15  1  0.32649600  0.06253100  0.15146900  1
  O  O16  1  0.58632000  0.60734500  0.95262400  1
  O  O17  1  0.57689300  0.59166900  0.34592900  1
  O  O18  1  0.33730300  0.05542800  0.54738000  1
  O  O19  1  0.67063400  0.67188200  0.74714400  1
  O  O20  1  0.71812500  0.66269700  0.54738000  1
  O  O21  1  0.73603600  0.67350400  0.15146900  1
  O  O22  1  0.62944700  0.02170700  0.04999800  1
  O  O23  1  0.59514200  0.01499000  0.65479700  1
  O  O24  1  0.99900000  0.66975600  0.25305700  1
  O  O25  1  0.67075700  0.00100000  0.25305700  1
  O  O26  1  0.97829300  0.60774000  0.04999800  1
  O  O27  1  0.98501000  0.58015200  0.65479700  1
  O  O28  1  0.93746900  0.26396400  0.15146900  1
  O  O29  1  0.94457200  0.28187500  0.54738000  1
loop_
_geom_bond_atom_site_label_1
_geom_bond_atom_site_label_2
_geom_bond_distance
_geom_bond_site_symmetry_2
Li0 O13 2.074395 1_555
Li0 O26 2.074395 1_445
Li0 O22 2.074395 1_455
Li0 O28 2.382360 1_455
Li0 O21 2.382362 1_445
Li0 O15 2.382363 1_555
Li1 O11 1.948391 1_545
Li1 O0 1.948394 1_655
Li1 O9 1.948397 1_555
Li1 O29 2.450276 1_555
Li1 O18 2.450278 1_555
Li1 O20 2.450279 1_555
Nb0 O8 1.935662 1_555
Nb0 O14 1.935662 1_445
Nb0 O1 1.935662 1_545
Nb0 O19 2.125318 1_445
Nb0 O5 2.125318 1_555
Nb0 O4 2.125318 1_545
Nb1 O28 1.937862 1_455
Nb1 O21 1.937864 1_445
Nb1 O15 1.937866 1_555
Nb1 O25 2.126942 1_455
Nb1 O10 2.126943 1_555
Nb1 O24 2.126946 1_445
Nb2 O20 1.965696 1_445
Nb2 O18 1.965697 1_555
Nb2 O29 1.965697 1_455
Nb2 O9 2.044350 1_555
Nb2 O11 2.044351 1_445
Nb2 O0 2.044351 1_545
Nb3 O1 1.935483 1_555
Nb3 O14 1.935486 1_555
Nb3 O8 1.935487 1_555
Nb3 O7 2.096310 1_555
Nb3 O3 2.096311 1_555
Nb3 O16 2.096314 1_555
Nb4 O0 1.937653 1_555
Nb4 O11 1.937655 1_555
Nb4 O9 1.937658 1_555
Nb4 O6 2.104518 1_555
Nb4 O2 2.104519 1_555
Nb4 O17 2.104522 1_555
Nb5 O29 1.931684 1_555
Nb5 O18 1.931686 1_555
Nb5 O20 1.931688 1_555
Nb5 O23 2.094735 1_555
Nb5 O27 2.094736 1_555
Nb5 O12 2.094739 1_555
O2 Ti3 1.873759 1_455
O2 Ti2 2.100387 1_555
O3 Ti5 1.867692 1_455
O3 Ti0 2.133307 1_556
O4 Ti4 1.890057 1_565
O4 Ti1 2.159578 1_555
O5 Ti4 1.890055 1_455
O5 Ti1 2.159580 1_555
O6 Ti3 1.873760 1_565
O6 Ti2 2.100386 1_555
O7 Ti5 1.867693 1_565
O7 Ti0 2.133305 1_556
O10 Ti2 1.892356 1_555
O10 Ti3 2.153823 1_555
O12 Ti1 1.868948 1_555
O12 Ti4 2.104960 1_555
O13 Ti0 1.884100 1_555
O13 Ti5 2.128501 1_554
O13 Ti6 2.147216 1_555
O15 Ti6 1.852615 1_555
O16 Ti5 1.867696 1_555
O16 Ti0 2.133309 1_556
O17 Ti3 1.873764 1_555
O17 Ti2 2.100389 1_555
O19 Ti4 1.890060 1_555
O19 Ti1 2.159582 1_555
O21 Ti6 1.852616 1_555
O22 Ti0 1.884096 1_545
O22 Ti5 2.128497 1_554
O22 Ti6 2.147213 1_555
O23 Ti1 1.868944 1_545
O23 Ti4 2.104956 1_555
O24 Ti2 1.892346 1_655
O24 Ti3 2.153823 1_555
O25 Ti2 1.892351 1_545
O25 Ti3 2.153823 1_555
O26 Ti0 1.884095 1_655
O26 Ti5 2.128498 1_554
O26 Ti6 2.147214 1_555
O27 Ti1 1.868943 1_655
O27 Ti4 2.104957 1_555
O28 Ti6 1.852616 1_555
