# generated using pymatgen
data_LiNi9S10
_symmetry_space_group_name_H-M   'P 1'
_cell_length_a   5.96631800
_cell_length_b   6.24901210
_cell_length_c   7.92710867
_cell_angle_alpha   101.12953930
_cell_angle_beta   111.81943784
_cell_angle_gamma   90.05710313
_symmetry_Int_Tables_number   1
_chemical_formula_structural   LiNi9S10
_chemical_formula_sum   'Li1 Ni9 S10'
_cell_volume   268.35781380
_cell_formula_units_Z   1
loop_
 _symmetry_equiv_pos_site_id
 _symmetry_equiv_pos_as_xyz
  1  'x, y, z'
loop_
 _atom_site_type_symbol
 _atom_site_label
 _atom_site_symmetry_multiplicity
 _atom_site_fract_x
 _atom_site_fract_y
 _atom_site_fract_z
 _atom_site_occupancy
  Li  Li0  1  0.00000000  0.00000000  0.50000000  1
  Ni  Ni0  1  0.09695400  0.70712200  0.69817200  1
  Ni  Ni1  1  0.19514100  0.39601200  0.89322400  1
  Ni  Ni2  1  0.40089000  0.80541800  0.30574100  1
  Ni  Ni3  1  0.59911000  0.19458200  0.69425900  1
  Ni  Ni4  1  0.50000000  0.50000000  0.50000000  1
  Ni  Ni5  1  0.69684800  0.89668500  0.89970100  1
  Ni  Ni6  1  0.80485900  0.60398800  0.10677600  1
  Ni  Ni7  1  0.90304600  0.29287800  0.30182800  1
  Ni  Ni8  1  0.30315200  0.10331500  0.10029900  1
  S  S0  1  0.47856900  0.54305500  0.80350200  1
  S  S1  1  0.70815800  0.84559900  0.60797700  1
  S  S2  1  0.87624400  0.36610500  0.59697700  1
  S  S3  1  0.31971000  0.04615400  0.80614800  1
  S  S4  1  0.12375600  0.63389500  0.40302300  1
  S  S5  1  0.08073000  0.74959200  0.00132900  1
  S  S6  1  0.29184200  0.15440100  0.39202300  1
  S  S7  1  0.52143100  0.45694500  0.19649800  1
  S  S8  1  0.68029000  0.95384600  0.19385200  1
  S  S9  1  0.91927000  0.25040800  0.99867100  1
loop_
_geom_bond_atom_site_label_1
_geom_bond_atom_site_label_2
_geom_bond_distance
_geom_bond_site_symmetry_2
Li0 S3 2.428759 1_555
Li0 S8 2.428759 1_445
Li0 S2 2.473157 1_455
Li0 S4 2.473157 1_545
Li0 S6 2.473626 1_555
Li0 S1 2.473626 1_445
Li0 Ni7 2.566830 1_455
Li0 Ni0 2.566830 1_545
Ni0 S3 2.331560 1_565
Ni0 S2 2.338372 1_455
Ni0 S4 2.360933 1_555
Ni0 S1 2.377162 1_455
Ni0 S5 2.404522 1_556
Ni0 S0 2.419554 1_555
Ni1 S0 2.313655 1_555
Ni1 S9 2.355645 1_455
Ni1 S3 2.368670 1_555
Ni1 S2 2.382913 1_455
Ni1 S5 2.406078 1_556
Ni1 S7 2.424976 1_556
Ni2 S6 2.324819 1_565
Ni2 S1 2.380300 1_555
Ni2 S4 2.396028 1_555
Ni2 S7 2.397337 1_555
Ni2 S8 2.416500 1_555
Ni2 S5 2.416759 1_555
Ni3 S1 2.324819 1_545
Ni3 S6 2.380300 1_555
Ni3 S2 2.396028 1_555
Ni3 S0 2.397337 1_555
Ni3 S3 2.416500 1_555
Ni3 S9 2.416759 1_555
Ni4 S4 2.302043 1_555
Ni4 S2 2.302043 1_555
Ni4 S1 2.330223 1_555
Ni4 S6 2.330223 1_555
Ni4 S7 2.419899 1_555
Ni4 S0 2.419899 1_555
Ni5 S1 2.298976 1_555
Ni5 S8 2.329002 1_556
Ni5 S3 2.348746 1_565
Ni5 S5 2.378683 1_656
Ni5 S0 2.401331 1_555
Ni5 S9 2.411064 1_565
Ni6 S7 2.313655 1_555
Ni6 S5 2.355645 1_655
Ni6 S8 2.368670 1_555
Ni6 S4 2.382913 1_655
Ni6 S9 2.406078 1_554
Ni6 S0 2.424976 1_554
Ni7 S8 2.331560 1_545
Ni7 S4 2.338372 1_655
Ni7 S2 2.360933 1_555
Ni7 S6 2.377162 1_655
Ni7 S9 2.404522 1_554
Ni7 S7 2.419554 1_555
Ni8 S6 2.298976 1_555
Ni8 S3 2.329002 1_554
Ni8 S8 2.348746 1_545
Ni8 S9 2.378683 1_454
Ni8 S7 2.401331 1_555
Ni8 S5 2.411064 1_545
