# generated using pymatgen
data_Li2Cr2Si2O7
_symmetry_space_group_name_H-M   'P 1'
_cell_length_a   13.64526700
_cell_length_b   5.62913500
_cell_length_c   9.80934110
_cell_angle_alpha   55.37462796
_cell_angle_beta   90.00000000
_cell_angle_gamma   90.00000000
_symmetry_Int_Tables_number   1
_chemical_formula_structural   Li2Cr2Si2O7
_chemical_formula_sum   'Li8 Cr8 Si8 O28'
_cell_volume   620.01556997
_cell_formula_units_Z   4
loop_
 _symmetry_equiv_pos_site_id
 _symmetry_equiv_pos_as_xyz
  1  'x, y, z'
loop_
 _atom_site_type_symbol
 _atom_site_label
 _atom_site_symmetry_multiplicity
 _atom_site_fract_x
 _atom_site_fract_y
 _atom_site_fract_z
 _atom_site_occupancy
  Li  Li0  1  0.34765500  0.73321700  0.11568800  1
  Li  Li1  1  0.74885700  0.02303600  0.18240600  1
  Li  Li2  1  0.24885700  0.97696400  0.31759400  1
  Li  Li3  1  0.84765500  0.26678300  0.38431200  1
  Li  Li4  1  0.15234500  0.73321700  0.61568800  1
  Li  Li5  1  0.75114300  0.02303600  0.68240600  1
  Li  Li6  1  0.25114300  0.97696400  0.81759400  1
  Li  Li7  1  0.65234500  0.26678300  0.88431200  1
  Cr  Cr0  1  0.08318000  0.55147300  0.09905500  1
  Cr  Cr1  1  0.49140200  0.18040000  0.17513300  1
  Cr  Cr2  1  0.99140200  0.81960000  0.32486700  1
  Cr  Cr3  1  0.58318000  0.44852700  0.40094500  1
  Cr  Cr4  1  0.41682000  0.55147300  0.59905500  1
  Cr  Cr5  1  0.00859800  0.18040000  0.67513300  1
  Cr  Cr6  1  0.50859800  0.81960000  0.82486700  1
  Cr  Cr7  1  0.91682000  0.44852700  0.90094500  1
  Si  Si0  1  0.88471100  0.78523400  0.04420700  1
  Si  Si1  1  0.67819900  0.63673100  0.05267800  1
  Si  Si2  1  0.17819900  0.36326900  0.44732200  1
  Si  Si3  1  0.38471100  0.21476600  0.45579300  1
  Si  Si4  1  0.61528900  0.78523400  0.54420700  1
  Si  Si5  1  0.82180100  0.63673100  0.55267800  1
  Si  Si6  1  0.32180100  0.36326900  0.94732200  1
  Si  Si7  1  0.11528900  0.21476600  0.95579300  1
  O  O0  1  0.79756300  0.57609200  0.04538700  1
  O  O1  1  0.16594900  0.91083600  0.01508000  1
  O  O2  1  0.03048900  0.20622300  0.08166100  1
  O  O3  1  0.62975400  0.33614600  0.09102300  1
  O  O4  1  0.35605300  0.07872500  0.13077700  1
  O  O5  1  0.66199800  0.70983300  0.18950500  1
  O  O6  1  0.93351600  0.59743700  0.22980900  1
  O  O7  1  0.43351600  0.40256300  0.27019100  1
  O  O8  1  0.16199800  0.29016700  0.31049500  1
  O  O9  1  0.85605300  0.92127500  0.36922300  1
  O  O10  1  0.12975400  0.66385400  0.40897700  1
  O  O11  1  0.53048900  0.79377700  0.41833900  1
  O  O12  1  0.66594900  0.08916400  0.48492000  1
  O  O13  1  0.29756300  0.42390800  0.45461300  1
  O  O14  1  0.70243700  0.57609200  0.54538700  1
  O  O15  1  0.33405100  0.91083600  0.51508000  1
  O  O16  1  0.46951100  0.20622300  0.58166100  1
  O  O17  1  0.87024600  0.33614600  0.59102300  1
  O  O18  1  0.14394700  0.07872500  0.63077700  1
  O  O19  1  0.83800200  0.70983300  0.68950500  1
  O  O20  1  0.56648400  0.59743700  0.72980900  1
  O  O21  1  0.06648400  0.40256300  0.77019100  1
  O  O22  1  0.33800200  0.29016700  0.81049500  1
  O  O23  1  0.64394700  0.92127500  0.86922300  1
  O  O24  1  0.37024600  0.66385400  0.90897700  1
  O  O25  1  0.96951100  0.79377700  0.91833900  1
  O  O26  1  0.83405100  0.08916400  0.98492000  1
  O  O27  1  0.20243700  0.42390800  0.95461300  1
loop_
_geom_bond_atom_site_label_1
_geom_bond_atom_site_label_2
_geom_bond_distance
_geom_bond_site_symmetry_2
Li0 O7 1.981987 1_555
Li0 O4 2.035893 1_565
Li0 O24 2.293200 1_554
Li1 O5 2.092474 1_545
Li1 O26 2.103152 1_554
Li1 O9 2.152437 1_545
Li1 O3 2.180792 1_555
Li2 O8 2.092474 1_565
Li2 O15 2.103152 1_555
Li2 O4 2.152437 1_565
Li2 O10 2.180792 1_555
Li3 O6 1.981987 1_555
Li3 O9 2.035893 1_545
Li3 O17 2.293200 1_555
Li4 O21 1.981987 1_555
Li4 O18 2.035893 1_565
Li4 O10 2.293200 1_555
Li5 O19 2.092474 1_545
Li5 O12 2.103152 1_555
Li5 O23 2.152437 1_545
Li5 O17 2.180792 1_555
Li6 O22 2.092474 1_565
Li6 O1 2.103152 1_556
Li6 O18 2.152437 1_565
Li6 O24 2.180792 1_555
Li7 O20 1.981987 1_555
Li7 O23 2.035893 1_545
Li7 O3 2.293200 1_556
Cr0 O1 2.037787 1_555
Cr0 O8 2.038415 1_555
Cr0 O25 2.158904 1_454
Cr0 O2 2.167929 1_555
Cr0 O6 2.501953 1_455
Cr0 O27 2.515453 1_554
Cr1 O3 2.047270 1_555
Cr1 O4 2.052031 1_555
Cr1 O7 2.093449 1_555
Cr1 O11 2.193651 1_545
Cr2 O10 2.047270 1_655
Cr2 O9 2.052031 1_555
Cr2 O6 2.093449 1_555
Cr2 O2 2.193651 1_665
Cr3 O12 2.037787 1_555
Cr3 O5 2.038415 1_555
Cr3 O16 2.158904 1_555
Cr3 O11 2.167929 1_555
Cr3 O7 2.501953 1_555
Cr3 O14 2.515453 1_555
Cr4 O15 2.037787 1_555
Cr4 O22 2.038415 1_555
Cr4 O11 2.158904 1_555
Cr4 O16 2.167929 1_555
Cr4 O20 2.501953 1_555
Cr4 O13 2.515453 1_555
Cr5 O17 2.047270 1_455
Cr5 O18 2.052031 1_555
Cr5 O21 2.093449 1_555
Cr5 O25 2.193651 1_445
Cr6 O24 2.047270 1_555
Cr6 O23 2.052031 1_555
Cr6 O20 2.093449 1_555
Cr6 O16 2.193651 1_565
Cr7 O26 2.037787 1_555
Cr7 O19 2.038415 1_555
Cr7 O2 2.158904 1_656
Cr7 O25 2.167929 1_555
Cr7 O21 2.501953 1_655
Cr7 O0 2.515453 1_556
O0 Si0 1.668758 1_555
O0 Si1 1.673981 1_555
O1 Si7 1.616296 1_564
O2 Si7 1.672782 1_554
O3 Si1 1.648690 1_555
O4 Si6 1.657350 1_554
O5 Si1 1.627056 1_555
O6 Si0 1.639674 1_555
O7 Si3 1.639674 1_555
O8 Si2 1.627056 1_555
O9 Si5 1.657350 1_555
O10 Si2 1.648690 1_555
O11 Si4 1.672782 1_555
O12 Si4 1.616296 1_545
O13 Si3 1.668758 1_555
O13 Si2 1.673981 1_555
O14 Si4 1.668758 1_555
O14 Si5 1.673981 1_555
O15 Si3 1.616296 1_565
O16 Si3 1.672782 1_555
O17 Si5 1.648690 1_555
O18 Si2 1.657350 1_555
O19 Si5 1.627056 1_555
O20 Si4 1.639674 1_555
O21 Si7 1.639674 1_555
O22 Si6 1.627056 1_555
O23 Si1 1.657350 1_556
O24 Si6 1.648690 1_555
O25 Si0 1.672782 1_556
O26 Si0 1.616296 1_546
O27 Si7 1.668758 1_555
O27 Si6 1.673981 1_555
