# generated using pymatgen
data_Li5Ti3O8
_symmetry_space_group_name_H-M   'P 1'
_cell_length_a   5.94514495
_cell_length_b   5.94514495
_cell_length_c   5.94514496
_cell_angle_alpha   59.61130478
_cell_angle_beta   59.61130478
_cell_angle_gamma   59.61130099
_symmetry_Int_Tables_number   1
_chemical_formula_structural   Li5Ti3O8
_chemical_formula_sum   'Li5 Ti3 O8'
_cell_volume   147.27150964
_cell_formula_units_Z   1
loop_
 _symmetry_equiv_pos_site_id
 _symmetry_equiv_pos_as_xyz
  1  'x, y, z'
loop_
 _atom_site_type_symbol
 _atom_site_label
 _atom_site_symmetry_multiplicity
 _atom_site_fract_x
 _atom_site_fract_y
 _atom_site_fract_z
 _atom_site_occupancy
  Li  Li0  1  0.00000000  0.50000000  0.50000000  1
  Li  Li1  1  0.50000000  0.50000000  0.50000000  1
  Li  Li2  1  0.50000000  0.00000000  0.50000000  1
  Li  Li3  1  0.50000000  0.50000000  0.00000000  1
  Li  Li4  1  0.00000000  0.00000000  0.00000000  1
  Ti  Ti0  1  0.00000000  0.00000000  0.50000000  1
  Ti  Ti1  1  0.00000000  0.50000000  0.00000000  1
  Ti  Ti2  1  0.50000000  0.00000000  0.00000000  1
  O  O0  1  0.75510300  0.75510300  0.75510300  1
  O  O1  1  0.22550200  0.75038300  0.75038300  1
  O  O2  1  0.75038300  0.75038300  0.22550200  1
  O  O3  1  0.24961700  0.77449800  0.24961700  1
  O  O4  1  0.24961700  0.24961700  0.77449800  1
  O  O5  1  0.75038300  0.22550200  0.75038300  1
  O  O6  1  0.77449800  0.24961700  0.24961700  1
  O  O7  1  0.24489700  0.24489700  0.24489700  1
loop_
_geom_bond_atom_site_label_1
_geom_bond_atom_site_label_2
_geom_bond_distance
_geom_bond_site_symmetry_2
Li0 O0 2.139898 1_455
Li0 O7 2.139898 1_555
Li0 O4 2.199735 1_555
Li0 O2 2.199735 1_455
Li0 O3 2.199735 1_555
Li0 O5 2.199735 1_455
Li1 O1 2.102666 1_555
Li1 O5 2.102666 1_555
Li1 O6 2.102666 1_555
Li1 O3 2.102666 1_555
Li1 O2 2.102666 1_555
Li1 O4 2.102666 1_555
Li2 O0 2.139898 1_545
Li2 O7 2.139898 1_555
Li2 O4 2.199735 1_555
Li2 O2 2.199735 1_545
Li2 O6 2.199735 1_555
Li2 O1 2.199735 1_545
Li3 O0 2.139898 1_554
Li3 O7 2.139898 1_555
Li3 O3 2.199735 1_555
Li3 O6 2.199735 1_555
Li3 O5 2.199735 1_554
Li3 O1 2.199735 1_554
Li4 O3 2.098639 1_545
Li4 O6 2.098639 1_455
Li4 O5 2.098639 1_454
Li4 O1 2.098639 1_544
Li4 O4 2.098639 1_554
Li4 O2 2.098639 1_445
O0 Ti2 2.053368 1_566
O0 Ti1 2.053368 1_656
O0 Ti0 2.053368 1_665
O1 Ti0 1.996661 1_565
O1 Ti1 1.996661 1_556
O2 Ti1 1.996661 1_655
O2 Ti2 1.996661 1_565
O3 Ti0 1.996661 1_565
O3 Ti2 1.996661 1_565
O4 Ti2 1.996661 1_556
O4 Ti1 1.996661 1_556
O5 Ti0 1.996661 1_655
O5 Ti2 1.996661 1_556
O6 Ti0 1.996661 1_655
O6 Ti1 1.996661 1_655
O7 Ti1 2.053368 1_555
O7 Ti2 2.053368 1_555
O7 Ti0 2.053368 1_555
