# generated using pymatgen
data_Ti17(NO4)6
_symmetry_space_group_name_H-M   'P 1'
_cell_length_a   10.39552600
_cell_length_b   11.29138754
_cell_length_c   11.47774017
_cell_angle_alpha   80.24753596
_cell_angle_beta   68.39152203
_cell_angle_gamma   62.66307584
_symmetry_Int_Tables_number   1
_chemical_formula_structural   Ti17(NO4)6
_chemical_formula_sum   'Ti34 N12 O48'
_cell_volume   1112.68803172
_cell_formula_units_Z   2
loop_
 _symmetry_equiv_pos_site_id
 _symmetry_equiv_pos_as_xyz
  1  'x, y, z'
loop_
 _atom_site_type_symbol
 _atom_site_label
 _atom_site_symmetry_multiplicity
 _atom_site_fract_x
 _atom_site_fract_y
 _atom_site_fract_z
 _atom_site_occupancy
  Ti  Ti0  1  0.92375100  0.92875700  0.12084800  1
  Ti  Ti1  1  0.82302300  0.24969100  0.10108600  1
  Ti  Ti2  1  0.39962900  0.42846300  0.21114900  1
  Ti  Ti3  1  0.43015100  0.92342700  0.12383400  1
  Ti  Ti4  1  0.60429300  0.57750800  0.12351900  1
  Ti  Ti5  1  0.17767300  0.75095400  0.23134600  1
  Ti  Ti6  1  0.89169400  0.44263700  0.21234800  1
  Ti  Ti7  1  0.32327500  0.24938800  0.10334800  1
  Ti  Ti8  1  0.07356800  0.07517600  0.21270200  1
  Ti  Ti9  1  0.92511400  0.92770700  0.45309400  1
  Ti  Ti10  1  0.10203600  0.57021200  0.12127500  1
  Ti  Ti11  1  0.39766400  0.42329700  0.55191600  1
  Ti  Ti12  1  0.58789300  0.05317700  0.21170000  1
  Ti  Ti13  1  0.60233600  0.57670300  0.44808400  1
  Ti  Ti14  1  0.82135900  0.25052000  0.43321200  1
  Ti  Ti15  1  0.17864100  0.74948000  0.56678800  1
  Ti  Ti16  1  0.43072300  0.92346100  0.44807000  1
  Ti  Ti17  1  0.07488600  0.07229300  0.54690600  1
  Ti  Ti18  1  0.92643200  0.92482400  0.78729800  1
  Ti  Ti19  1  0.67713400  0.75040400  0.56843700  1
  Ti  Ti20  1  0.89490400  0.42822000  0.54733200  1
  Ti  Ti21  1  0.10509600  0.57178000  0.45266800  1
  Ti  Ti22  1  0.32286600  0.24959600  0.43156300  1
  Ti  Ti23  1  0.39570700  0.42249200  0.87648100  1
  Ti  Ti24  1  0.17697700  0.75030900  0.89891400  1
  Ti  Ti25  1  0.60037100  0.57153700  0.78885100  1
  Ti  Ti26  1  0.56927700  0.07653900  0.55193000  1
  Ti  Ti27  1  0.82232700  0.24904600  0.76865400  1
  Ti  Ti28  1  0.41210700  0.94682300  0.78830000  1
  Ti  Ti29  1  0.07624900  0.07124300  0.87915200  1
  Ti  Ti30  1  0.10830600  0.55736300  0.78765200  1
  Ti  Ti31  1  0.67672500  0.75061200  0.89665200  1
  Ti  Ti32  1  0.89796400  0.42978800  0.87872500  1
  Ti  Ti33  1  0.56984900  0.07657300  0.87616600  1
  N  N0  1  0.10820800  0.74993100  0.08852600  1
  N  N1  1  0.59547100  0.75066000  0.07968300  1
  N  N2  1  0.10542500  0.74994600  0.42391600  1
  N  N3  1  0.89361600  0.25090800  0.24404200  1
  N  N4  1  0.59462700  0.75044400  0.44135500  1
  N  N5  1  0.39725000  0.25059700  0.24306700  1
  N  N6  1  0.10638400  0.74909200  0.75595800  1
  N  N7  1  0.89457500  0.25005400  0.57608400  1
  N  N8  1  0.60275000  0.74940300  0.75693300  1
  N  N9  1  0.40537300  0.24955600  0.55864500  1
  N  N10  1  0.89179200  0.25006900  0.91147400  1
  N  N11  1  0.40452900  0.24934000  0.92031700  1
  O  O0  1  0.34585900  0.43399200  0.06432600  1
  O  O1  1  0.73759300  0.12228400  0.15072700  1
  O  O2  1  0.39243900  0.61824500  0.18370900  1
  O  O3  1  0.03101100  0.06565500  0.06239100  1
  O  O4  1  0.84099700  0.43878700  0.06363000  1
  O  O5  1  0.96940900  0.93687200  0.27087500  1
  O  O6  1  0.60769500  0.38076800  0.14838400  1
  O  O7  1  0.26127300  0.88073900  0.18363900  1
  O  O8  1  0.34180600  0.43630200  0.39481800  1
  O  O9  1  0.11055000  0.37709500  0.15083000  1
  O  O10  1  0.23776900  0.11894900  0.14886300  1
  O  O11  1  0.52929900  0.06158500  0.06503600  1
  O  O12  1  0.65011900  0.55166400  0.27493000  1
  O  O13  1  0.45138000  0.94855100  0.27487900  1
  O  O14  1  0.90244400  0.60912100  0.18070800  1
  O  O15  1  0.76198600  0.88924000  0.18139600  1
  O  O16  1  0.39207700  0.61968100  0.51239000  1
  O  O17  1  0.03070600  0.06418400  0.39564100  1
  O  O18  1  0.73937700  0.11823500  0.48437400  1
  O  O19  1  0.96929400  0.93581600  0.60435900  1
  O  O20  1  0.60792300  0.38031900  0.48761000  1
  O  O21  1  0.15551500  0.56475800  0.27089400  1
  O  O22  1  0.84208500  0.43823700  0.39604700  1
  O  O23  1  0.26062300  0.88176500  0.51562600  1
  O  O24  1  0.34988100  0.44833600  0.72507000  1
  O  O25  1  0.52855100  0.06174700  0.39504400  1
  O  O26  1  0.65819400  0.56369800  0.60518200  1
  O  O27  1  0.47144900  0.93825300  0.60495600  1
  O  O28  1  0.89348400  0.61842800  0.51610000  1
  O  O29  1  0.10651600  0.38157200  0.48390000  1
  O  O30  1  0.76383600  0.87959300  0.51284900  1
  O  O31  1  0.23616400  0.12040700  0.48715100  1
  O  O32  1  0.39230500  0.61923200  0.85161600  1
  O  O33  1  0.73872700  0.11926100  0.81636100  1
  O  O34  1  0.03059100  0.06312800  0.72912500  1
  O  O35  1  0.60756100  0.38175500  0.81629100  1
  O  O36  1  0.84448500  0.43524200  0.72910600  1
  O  O37  1  0.96898900  0.93434500  0.93760900  1
  O  O38  1  0.26240700  0.87771600  0.84927300  1
  O  O39  1  0.15791500  0.56176300  0.60395300  1
  O  O40  1  0.65414100  0.56600800  0.93567400  1
  O  O41  1  0.88945000  0.62290500  0.84917000  1
  O  O42  1  0.76223100  0.88105100  0.85113700  1
  O  O43  1  0.23801400  0.11076000  0.81860400  1
  O  O44  1  0.47070100  0.93841500  0.93496400  1
  O  O45  1  0.09755600  0.39087900  0.81929200  1
  O  O46  1  0.54862000  0.05144900  0.72512100  1
  O  O47  1  0.15900300  0.56121300  0.93637000  1
loop_
_geom_bond_atom_site_label_1
_geom_bond_atom_site_label_2
_geom_bond_distance
_geom_bond_site_symmetry_2
N0 Ti0 2.016292 1_455
N0 Ti5 2.023530 1_555
N0 Ti24 2.025140 1_554
N0 Ti10 2.026518 1_555
N1 Ti4 1.902662 1_555
N1 Ti3 1.905306 1_555
N1 Ti31 1.954426 1_554
N2 Ti21 1.984085 1_555
N2 Ti9 1.991052 1_455
N2 Ti15 2.044773 1_555
N2 Ti5 2.055766 1_555
N3 Ti8 1.975641 1_655
N3 Ti14 2.019190 1_555
N3 Ti1 2.033408 1_555
N3 Ti6 2.125626 1_555
N4 Ti16 1.903352 1_555
N4 Ti13 1.915670 1_555
N4 Ti19 1.945268 1_555
N5 Ti2 1.989470 1_555
N5 Ti22 2.011566 1_555
N5 Ti7 2.022039 1_555
N5 Ti12 2.171462 1_555
N6 Ti18 1.975641 1_455
N6 Ti15 2.019190 1_555
N6 Ti24 2.033408 1_555
N6 Ti30 2.125626 1_555
N7 Ti20 1.984085 1_555
N7 Ti17 1.991052 1_655
N7 Ti14 2.044773 1_555
N7 Ti27 2.055766 1_555
N8 Ti25 1.989470 1_555
N8 Ti19 2.011566 1_555
N8 Ti31 2.022039 1_555
N8 Ti28 2.171462 1_555
N9 Ti26 1.903352 1_555
N9 Ti11 1.915670 1_555
N9 Ti22 1.945268 1_555
N10 Ti29 2.016292 1_655
N10 Ti27 2.023530 1_555
N10 Ti1 2.025140 1_556
N10 Ti32 2.026518 1_555
N11 Ti23 1.902662 1_555
N11 Ti33 1.905306 1_555
N11 Ti7 1.954426 1_556
O0 Ti2 1.944819 1_555
O0 Ti23 2.035693 1_554
O0 Ti7 2.157850 1_555
O0 Ti10 2.181121 1_555
O1 Ti12 1.910130 1_555
O1 Ti1 1.925084 1_555
O1 Ti0 2.125760 1_545
O2 Ti4 1.896252 1_555
O2 Ti5 1.958246 1_555
O2 Ti2 2.082881 1_555
O3 Ti8 1.962744 1_555
O3 Ti29 1.975420 1_554
O3 Ti1 2.160820 1_455
O3 Ti0 2.182539 1_445
O4 Ti6 1.975365 1_555
O4 Ti32 1.989286 1_554
O4 Ti4 2.135388 1_555
O4 Ti1 2.185155 1_555
O5 Ti9 1.964200 1_555
O5 Ti0 1.973381 1_555
O5 Ti8 2.173537 1_665
O5 Ti5 2.173705 1_655
O6 Ti2 1.844269 1_555
O6 Ti1 1.957106 1_555
O6 Ti4 2.176720 1_555
O7 Ti3 1.887614 1_555
O7 Ti5 1.936497 1_555
O7 Ti8 2.138450 1_565
O8 Ti2 1.973398 1_555
O8 Ti11 2.052600 1_555
O8 Ti21 2.125932 1_555
O8 Ti22 2.163300 1_555
O9 Ti6 1.915692 1_455
O9 Ti7 1.927808 1_555
O9 Ti10 2.114711 1_555
O10 Ti8 1.850908 1_555
O10 Ti7 1.957548 1_555
O10 Ti3 2.166274 1_545
O11 Ti12 1.965128 1_555
O11 Ti33 2.043008 1_554
O11 Ti3 2.135212 1_545
O11 Ti7 2.174425 1_555
O12 Ti13 1.900203 1_555
O12 Ti4 1.908538 1_555
O12 Ti6 2.114155 1_555
O13 Ti16 1.904881 1_555
O13 Ti3 1.908048 1_555
O13 Ti12 2.104048 1_565
O14 Ti10 1.784730 1_655
O14 Ti6 1.899980 1_555
O15 Ti0 1.798138 1_555
O15 Ti12 1.870949 1_565
O16 Ti13 1.875291 1_555
O16 Ti15 1.940066 1_555
O16 Ti11 2.164849 1_555
O17 Ti8 1.973883 1_555
O17 Ti17 1.978234 1_555
O17 Ti9 2.165797 1_445
O17 Ti14 2.181661 1_455
O18 Ti26 1.892297 1_555
O18 Ti14 1.950807 1_555
O18 Ti9 2.102674 1_545
O19 Ti18 1.973883 1_555
O19 Ti9 1.978234 1_555
O19 Ti17 2.165797 1_665
O19 Ti15 2.181661 1_655
O20 Ti11 1.875291 1_555
O20 Ti14 1.940066 1_555
O20 Ti13 2.164849 1_555
O21 Ti21 1.961210 1_555
O21 Ti10 1.974295 1_555
O21 Ti5 2.173407 1_555
O21 Ti2 2.183450 1_555
O22 Ti6 1.975138 1_555
O22 Ti20 1.976879 1_555
O22 Ti13 2.157297 1_555
O22 Ti14 2.183222 1_555
O23 Ti16 1.892297 1_555
O23 Ti15 1.950807 1_555
O23 Ti17 2.102674 1_565
O24 Ti11 1.900203 1_555
O24 Ti23 1.908538 1_555
O24 Ti30 2.114155 1_555
O25 Ti12 1.968842 1_555
O25 Ti26 2.044010 1_555
O25 Ti16 2.126820 1_545
O25 Ti22 2.173075 1_555
O26 Ti25 1.973398 1_555
O26 Ti13 2.052600 1_555
O26 Ti20 2.125932 1_555
O26 Ti19 2.163300 1_555
O27 Ti28 1.968842 1_555
O27 Ti16 2.044010 1_555
O27 Ti26 2.126820 1_565
O27 Ti19 2.173075 1_555
O28 Ti21 1.879578 1_655
O28 Ti19 1.967190 1_555
O28 Ti20 2.110767 1_555
O29 Ti20 1.879578 1_455
O29 Ti22 1.967190 1_555
O29 Ti21 2.110767 1_555
O30 Ti9 1.854678 1_555
O30 Ti19 1.953459 1_555
O30 Ti26 2.185402 1_565
O31 Ti17 1.854678 1_555
O31 Ti22 1.953459 1_555
O31 Ti16 2.185402 1_545
O32 Ti25 1.844269 1_555
O32 Ti24 1.957106 1_555
O32 Ti23 2.176720 1_555
O33 Ti33 1.887614 1_555
O33 Ti27 1.936497 1_555
O33 Ti18 2.138450 1_545
O34 Ti17 1.964200 1_555
O34 Ti29 1.973381 1_555
O34 Ti18 2.173537 1_445
O34 Ti27 2.173705 1_455
O35 Ti23 1.896252 1_555
O35 Ti27 1.958246 1_555
O35 Ti25 2.082881 1_555
O36 Ti20 1.961210 1_555
O36 Ti32 1.974295 1_555
O36 Ti27 2.173407 1_555
O36 Ti25 2.183450 1_555
O37 Ti18 1.962744 1_555
O37 Ti0 1.975420 1_556
O37 Ti24 2.160820 1_655
O37 Ti29 2.182539 1_665
O38 Ti28 1.910130 1_555
O38 Ti24 1.925084 1_555
O38 Ti29 2.125760 1_565
O39 Ti30 1.975138 1_555
O39 Ti21 1.976879 1_555
O39 Ti11 2.157297 1_555
O39 Ti15 2.183222 1_555
O40 Ti25 1.944819 1_555
O40 Ti4 2.035693 1_556
O40 Ti31 2.157850 1_555
O40 Ti32 2.181121 1_555
O41 Ti30 1.915692 1_655
O41 Ti31 1.927808 1_555
O41 Ti32 2.114711 1_555
O42 Ti18 1.850908 1_555
O42 Ti31 1.957548 1_555
O42 Ti33 2.166274 1_565
O43 Ti29 1.798138 1_555
O43 Ti28 1.870949 1_545
O44 Ti28 1.965128 1_555
O44 Ti3 2.043008 1_556
O44 Ti33 2.135212 1_565
O44 Ti31 2.174425 1_555
O45 Ti32 1.784730 1_455
O45 Ti30 1.899980 1_555
O46 Ti26 1.904881 1_555
O46 Ti33 1.908048 1_555
O46 Ti28 2.104048 1_545
O47 Ti30 1.975365 1_555
O47 Ti10 1.989286 1_556
O47 Ti23 2.135388 1_555
O47 Ti24 2.185155 1_555
