# generated using pymatgen
data_Li3Mn2Ni5O12
_symmetry_space_group_name_H-M   'P 1'
_cell_length_a   5.05438063
_cell_length_b   5.05438063
_cell_length_c   9.78186916
_cell_angle_alpha   84.71083378
_cell_angle_beta   84.71083378
_cell_angle_gamma   121.47439646
_symmetry_Int_Tables_number   1
_chemical_formula_structural   Li3Mn2Ni5O12
_chemical_formula_sum   'Li3 Mn2 Ni5 O12'
_cell_volume   209.30481512
_cell_formula_units_Z   1
loop_
 _symmetry_equiv_pos_site_id
 _symmetry_equiv_pos_as_xyz
  1  'x, y, z'
loop_
 _atom_site_type_symbol
 _atom_site_label
 _atom_site_symmetry_multiplicity
 _atom_site_fract_x
 _atom_site_fract_y
 _atom_site_fract_z
 _atom_site_occupancy
  Li  Li0  1  0.67667300  0.82690200  0.24505400  1
  Li  Li1  1  0.17309800  0.32332700  0.75494600  1
  Li  Li2  1  0.08335100  0.91664900  0.00000000  1
  Mn  Mn0  1  0.25150900  0.74849100  0.50000000  1
  Mn  Mn1  1  0.74399800  0.25600200  0.00000000  1
  Ni  Ni0  1  0.42017300  0.57982700  0.00000000  1
  Ni  Ni1  1  0.49421100  0.00081700  0.75353000  1
  Ni  Ni2  1  0.92092400  0.07907600  0.50000000  1
  Ni  Ni3  1  0.99918300  0.50578900  0.24647000  1
  Ni  Ni4  1  0.58627200  0.41372800  0.50000000  1
  O  O0  1  0.75695300  0.96385500  0.88904200  1
  O  O1  1  0.51284300  0.70567700  0.61415600  1
  O  O2  1  0.39919300  0.85811800  0.11139400  1
  O  O3  1  0.29432300  0.48715700  0.38584400  1
  O  O4  1  0.03614500  0.24304700  0.11095800  1
  O  O5  1  0.14188200  0.60080700  0.88860600  1
  O  O6  1  0.88159100  0.37825900  0.61355800  1
  O  O7  1  0.94657100  0.75767100  0.38929000  1
  O  O8  1  0.62174100  0.11840900  0.38644200  1
  O  O9  1  0.70701700  0.53369600  0.10849200  1
  O  O10  1  0.46630400  0.29298300  0.89150800  1
  O  O11  1  0.24232900  0.05342900  0.61071000  1
loop_
_geom_bond_atom_site_label_1
_geom_bond_atom_site_label_2
_geom_bond_distance
_geom_bond_site_symmetry_2
Li0 O3 2.046485 1_555
Li0 O2 2.057276 1_555
Li0 O4 2.123003 1_665
Li0 O9 2.137468 1_555
Li0 O7 2.176309 1_555
Li0 O8 2.211973 1_565
Li1 O1 2.046485 1_555
Li1 O5 2.057276 1_555
Li1 O0 2.123003 1_445
Li1 O10 2.137468 1_555
Li1 O11 2.176309 1_555
Li1 O6 2.211973 1_455
Li2 O9 1.973675 1_455
Li2 O10 1.973675 1_564
Li2 O2 2.139560 1_555
Li2 O5 2.139560 1_554
Li2 O4 2.156391 1_565
Li2 O0 2.156391 1_454
Mn0 O1 1.887948 1_555
Mn0 O3 1.887948 1_555
Mn0 O6 1.952375 1_455
Mn0 O8 1.952375 1_565
Mn0 O11 1.980807 1_565
Mn0 O7 1.980807 1_455
Mn1 O9 1.908721 1_555
Mn1 O10 1.908721 1_554
Mn1 O0 1.935481 1_544
Mn1 O4 1.935481 1_655
Mn1 O2 1.963407 1_545
Mn1 O5 1.963407 1_654
Ni0 O2 1.895805 1_555
Ni0 O5 1.895805 1_554
Ni0 O4 1.914139 1_555
Ni0 O0 1.914139 1_554
Ni0 O9 1.968158 1_555
Ni0 O10 1.968158 1_554
Ni1 O0 2.023253 1_545
Ni1 O11 2.063055 1_555
Ni1 O5 2.078162 1_545
Ni1 O6 2.114576 1_555
Ni1 O10 2.138248 1_555
Ni1 O1 2.142629 1_545
Ni2 O6 2.035442 1_555
Ni2 O8 2.035442 1_555
Ni2 O1 2.045734 1_545
Ni2 O3 2.045734 1_655
Ni2 O7 2.084936 1_545
Ni2 O11 2.084936 1_655
Ni3 O4 2.023253 1_655
Ni3 O7 2.063055 1_555
Ni3 O2 2.078162 1_655
Ni3 O8 2.114576 1_555
Ni3 O9 2.138248 1_555
Ni3 O3 2.142629 1_655
Ni4 O7 1.869414 1_555
Ni4 O11 1.869414 1_555
Ni4 O6 2.010587 1_555
Ni4 O8 2.010587 1_555
Ni4 O1 2.088396 1_555
Ni4 O3 2.088396 1_555
