# generated using pymatgen
data_H16AuC6S2N4ClO4
_symmetry_space_group_name_H-M   'P 1'
_cell_length_a   6.55121900
_cell_length_b   14.17913200
_cell_length_c   16.85131500
_cell_angle_alpha   90.00000000
_cell_angle_beta   90.00000000
_cell_angle_gamma   90.00000000
_symmetry_Int_Tables_number   1
_chemical_formula_structural   H16AuC6S2N4ClO4
_chemical_formula_sum   'H64 Au4 C24 S8 N16 Cl4 O16'
_cell_volume   1565.32874365
_cell_formula_units_Z   4
loop_
 _symmetry_equiv_pos_site_id
 _symmetry_equiv_pos_as_xyz
  1  'x, y, z'
loop_
 _atom_site_type_symbol
 _atom_site_label
 _atom_site_symmetry_multiplicity
 _atom_site_fract_x
 _atom_site_fract_y
 _atom_site_fract_z
 _atom_site_occupancy
  H  H0  1  0.06569900  0.67712500  0.85879300  1
  H  H1  1  0.56569900  0.82287500  0.64120700  1
  H  H2  1  0.93430100  0.17712500  0.64120700  1
  H  H3  1  0.43430100  0.32287500  0.85879300  1
  H  H4  1  0.93430100  0.32287500  0.14120700  1
  H  H5  1  0.43430100  0.17712500  0.35879300  1
  H  H6  1  0.06569900  0.82287500  0.35879300  1
  H  H7  1  0.56569900  0.67712500  0.14120700  1
  H  H8  1  0.98500000  0.91941600  0.84282000  1
  H  H9  1  0.48500000  0.58058400  0.65718000  1
  H  H10  1  0.01500000  0.41941600  0.65718000  1
  H  H11  1  0.51500000  0.08058400  0.84282000  1
  H  H12  1  0.01500000  0.08058400  0.15718000  1
  H  H13  1  0.51500000  0.41941600  0.34282000  1
  H  H14  1  0.98500000  0.58058400  0.34282000  1
  H  H15  1  0.48500000  0.91941600  0.15718000  1
  H  H16  1  0.90602500  0.56270700  0.92859800  1
  H  H17  1  0.40602500  0.93729300  0.57140200  1
  H  H18  1  0.09397500  0.06270700  0.57140200  1
  H  H19  1  0.59397500  0.43729300  0.92859800  1
  H  H20  1  0.09397500  0.43729300  0.07140200  1
  H  H21  1  0.59397500  0.06270700  0.42859800  1
  H  H22  1  0.90602500  0.93729300  0.42859800  1
  H  H23  1  0.40602500  0.56270700  0.07140200  1
  H  H24  1  0.84893300  0.64799700  0.00313200  1
  H  H25  1  0.34893300  0.85200300  0.49686800  1
  H  H26  1  0.15106700  0.14799700  0.49686800  1
  H  H27  1  0.65106700  0.35200300  0.00313200  1
  H  H28  1  0.15106700  0.35200300  0.99686800  1
  H  H29  1  0.65106700  0.14799700  0.50313200  1
  H  H30  1  0.84893300  0.85200300  0.50313200  1
  H  H31  1  0.34893300  0.64799700  0.99686800  1
  H  H32  1  0.67579400  0.62899200  0.92216800  1
  H  H33  1  0.17579400  0.87100800  0.57783200  1
  H  H34  1  0.32420600  0.12899200  0.57783200  1
  H  H35  1  0.82420600  0.37100800  0.92216800  1
  H  H36  1  0.32420600  0.37100800  0.07783200  1
  H  H37  1  0.82420600  0.12899200  0.42216800  1
  H  H38  1  0.67579400  0.87100800  0.42216800  1
  H  H39  1  0.17579400  0.62899200  0.07783200  1
  H  H40  1  0.25654100  0.87831000  0.76433200  1
  H  H41  1  0.75654100  0.62169000  0.73566800  1
  H  H42  1  0.74345900  0.37831000  0.73566800  1
  H  H43  1  0.24345900  0.12169000  0.76433200  1
  H  H44  1  0.74345900  0.12169000  0.23566800  1
  H  H45  1  0.24345900  0.37831000  0.26433200  1
  H  H46  1  0.25654100  0.62169000  0.26433200  1
  H  H47  1  0.75654100  0.87831000  0.23566800  1
  H  H48  1  0.31356000  0.78638400  0.83222200  1
  H  H49  1  0.81356000  0.71361600  0.66777800  1
  H  H50  1  0.68644000  0.28638400  0.66777800  1
  H  H51  1  0.18644000  0.21361600  0.83222200  1
  H  H52  1  0.68644000  0.21361600  0.16777800  1
  H  H53  1  0.18644000  0.28638400  0.33222200  1
  H  H54  1  0.31356000  0.71361600  0.33222200  1
  H  H55  1  0.81356000  0.78638400  0.16777800  1
  H  H56  1  0.14189000  0.76592500  0.75080700  1
  H  H57  1  0.64189000  0.73407500  0.74919300  1
  H  H58  1  0.85811000  0.26592500  0.74919300  1
  H  H59  1  0.35811000  0.23407500  0.75080700  1
  H  H60  1  0.85811000  0.23407500  0.24919300  1
  H  H61  1  0.35811000  0.26592500  0.25080700  1
  H  H62  1  0.14189000  0.73407500  0.25080700  1
  H  H63  1  0.64189000  0.76592500  0.24919300  1
  Au  Au0  1  0.75000000  0.00000000  0.94914600  1
  Au  Au1  1  0.25000000  0.50000000  0.55085400  1
  Au  Au2  1  0.25000000  0.00000000  0.05085400  1
  Au  Au3  1  0.75000000  0.50000000  0.44914600  1
  C  C0  1  0.90744300  0.79409100  0.89068300  1
  C  C1  1  0.40744300  0.70590900  0.60931700  1
  C  C2  1  0.09255700  0.29409100  0.60931700  1
  C  C3  1  0.59255700  0.20590900  0.89068300  1
  C  C4  1  0.09255700  0.20590900  0.10931700  1
  C  C5  1  0.59255700  0.29409100  0.39068300  1
  C  C6  1  0.90744300  0.70590900  0.39068300  1
  C  C7  1  0.40744300  0.79409100  0.10931700  1
  C  C8  1  0.83735900  0.63196600  0.93948400  1
  C  C9  1  0.33735900  0.86803400  0.56051600  1
  C  C10  1  0.16264100  0.13196600  0.56051600  1
  C  C11  1  0.66264100  0.36803400  0.93948400  1
  C  C12  1  0.16264100  0.36803400  0.06051600  1
  C  C13  1  0.66264100  0.13196600  0.43948400  1
  C  C14  1  0.83735900  0.86803400  0.43948400  1
  C  C15  1  0.33735900  0.63196600  0.06051600  1
  C  C16  1  0.19204100  0.81760100  0.79555800  1
  C  C17  1  0.69204100  0.68239900  0.70444200  1
  C  C18  1  0.80795900  0.31760100  0.70444200  1
  C  C19  1  0.30795900  0.18239900  0.79555800  1
  C  C20  1  0.80795900  0.18239900  0.20444200  1
  C  C21  1  0.30795900  0.31760100  0.29555800  1
  C  C22  1  0.19204100  0.68239900  0.29555800  1
  C  C23  1  0.69204100  0.81760100  0.20444200  1
  S  S0  1  0.70721600  0.83759300  0.94759800  1
  S  S1  1  0.20721600  0.66240700  0.55240200  1
  S  S2  1  0.29278400  0.33759300  0.55240200  1
  S  S3  1  0.79278400  0.16240700  0.94759800  1
  S  S4  1  0.29278400  0.16240700  0.05240200  1
  S  S5  1  0.79278400  0.33759300  0.44759800  1
  S  S6  1  0.70721600  0.66240700  0.44759800  1
  S  S7  1  0.20721600  0.83759300  0.05240200  1
  N  N0  1  0.94615700  0.70147100  0.89193800  1
  N  N1  1  0.44615700  0.79852900  0.60806200  1
  N  N2  1  0.05384300  0.20147100  0.60806200  1
  N  N3  1  0.55384300  0.29852900  0.89193800  1
  N  N4  1  0.05384300  0.29852900  0.10806200  1
  N  N5  1  0.55384300  0.20147100  0.39193800  1
  N  N6  1  0.94615700  0.79852900  0.39193800  1
  N  N7  1  0.44615700  0.70147100  0.10806200  1
  N  N8  1  0.02257100  0.84972500  0.84440100  1
  N  N9  1  0.52257100  0.65027500  0.65559900  1
  N  N10  1  0.97742900  0.34972500  0.65559900  1
  N  N11  1  0.47742900  0.15027500  0.84440100  1
  N  N12  1  0.97742900  0.15027500  0.15559900  1
  N  N13  1  0.47742900  0.34972500  0.34440100  1
  N  N14  1  0.02257100  0.65027500  0.34440100  1
  N  N15  1  0.52257100  0.84972500  0.15559900  1
  Cl  Cl0  1  0.25000000  0.50000000  0.80514700  1
  Cl  Cl1  1  0.75000000  0.00000000  0.69485300  1
  Cl  Cl2  1  0.75000000  0.50000000  0.19485300  1
  Cl  Cl3  1  0.25000000  0.00000000  0.30514700  1
  O  O0  1  0.18261900  0.42150500  0.85537400  1
  O  O1  1  0.68261900  0.07849500  0.64462600  1
  O  O2  1  0.81738100  0.92150500  0.64462600  1
  O  O3  1  0.31738100  0.57849500  0.85537400  1
  O  O4  1  0.81738100  0.57849500  0.14462600  1
  O  O5  1  0.31738100  0.92150500  0.35537400  1
  O  O6  1  0.18261900  0.07849500  0.35537400  1
  O  O7  1  0.68261900  0.42150500  0.14462600  1
  O  O8  1  0.08048800  0.53193200  0.75558000  1
  O  O9  1  0.58048800  0.96806800  0.74442000  1
  O  O10  1  0.91951200  0.03193200  0.74442000  1
  O  O11  1  0.41951200  0.46806800  0.75558000  1
  O  O12  1  0.91951200  0.46806800  0.24442000  1
  O  O13  1  0.41951200  0.03193200  0.25558000  1
  O  O14  1  0.08048800  0.96806800  0.25558000  1
  O  O15  1  0.58048800  0.53193200  0.24442000  1
loop_
_geom_bond_atom_site_label_1
_geom_bond_atom_site_label_2
_geom_bond_distance
_geom_bond_site_symmetry_2
H0 N0 1.021982 1_455
H1 N1 1.021982 1_555
H2 N2 1.021982 1_655
H3 N3 1.021982 1_555
H4 N4 1.021982 1_655
H5 N5 1.021982 1_555
H6 N6 1.021982 1_455
H7 N7 1.021982 1_555
H8 N8 1.018699 1_655
H9 N9 1.018699 1_555
H10 N10 1.018699 1_455
H11 N11 1.018699 1_555
H12 N12 1.018699 1_455
H13 N13 1.018699 1_555
H14 N14 1.018699 1_655
H15 N15 1.018699 1_555
Au0 S0 2.319932 1_545
Au0 S3 2.319932 1_555
Au1 S1 2.319932 1_555
Au1 S2 2.319932 1_555
Au2 S7 2.319932 1_545
Au2 S4 2.319932 1_555
Au3 S6 2.319932 1_555
Au3 S5 2.319932 1_555
C0 N0 1.337705 1_555
C0 N8 1.341416 1_655
C0 S0 1.738092 1_555
C1 N1 1.337705 1_555
C1 N9 1.341416 1_555
C1 S1 1.738092 1_555
C2 N2 1.337705 1_555
C2 N10 1.341416 1_455
C2 S2 1.738092 1_555
C3 N3 1.337705 1_555
C3 N11 1.341416 1_555
C3 S3 1.738092 1_555
C4 N4 1.337705 1_555
C4 N12 1.341416 1_455
C4 S4 1.738092 1_555
C5 N5 1.337705 1_555
C5 N13 1.341416 1_555
C5 S5 1.738092 1_555
C6 N6 1.337705 1_555
C6 N14 1.341416 1_655
C6 S6 1.738092 1_555
C7 N7 1.337705 1_555
C7 N15 1.341416 1_555
C7 S7 1.738092 1_555
C8 H16 1.095628 1_555
C8 H32 1.098743 1_555
C8 H24 1.098993 1_556
C8 N0 1.456440 1_555
C9 H17 1.095628 1_555
C9 H33 1.098743 1_555
C9 H25 1.098993 1_555
C9 N1 1.456440 1_555
C10 H18 1.095628 1_555
C10 H34 1.098743 1_555
C10 H26 1.098993 1_555
C10 N2 1.456440 1_555
C11 H19 1.095628 1_555
C11 H35 1.098743 1_555
C11 H27 1.098993 1_556
C11 N3 1.456440 1_555
C12 H20 1.095628 1_555
C12 H36 1.098743 1_555
C12 H28 1.098993 1_554
C12 N4 1.456440 1_555
C13 H21 1.095628 1_555
C13 H37 1.098743 1_555
C13 H29 1.098993 1_555
C13 N5 1.456440 1_555
C14 H22 1.095628 1_555
C14 H38 1.098743 1_555
C14 H30 1.098993 1_555
C14 N6 1.456440 1_555
C15 H23 1.095628 1_555
C15 H39 1.098743 1_555
C15 H31 1.098993 1_554
C15 N7 1.456440 1_555
C16 H40 1.093808 1_555
C16 H48 1.100643 1_555
C16 H56 1.101595 1_555
C16 N8 1.455175 1_555
C17 H41 1.093808 1_555
C17 H49 1.100643 1_555
C17 H57 1.101595 1_555
C17 N9 1.455175 1_555
C18 H42 1.093808 1_555
C18 H50 1.100643 1_555
C18 H58 1.101595 1_555
C18 N10 1.455175 1_555
C19 H43 1.093808 1_555
C19 H51 1.100643 1_555
C19 H59 1.101595 1_555
C19 N11 1.455175 1_555
C20 H44 1.093808 1_555
C20 H52 1.100643 1_555
C20 H60 1.101595 1_555
C20 N12 1.455175 1_555
C21 H45 1.093808 1_555
C21 H53 1.100643 1_555
C21 H61 1.101595 1_555
C21 N13 1.455175 1_555
C22 H46 1.093808 1_555
C22 H54 1.100643 1_555
C22 H62 1.101595 1_555
C22 N14 1.455175 1_555
C23 H47 1.093808 1_555
C23 H55 1.100643 1_555
C23 H63 1.101595 1_555
C23 N15 1.455175 1_555
Cl0 O8 1.461474 1_555
Cl0 O11 1.461474 1_555
Cl0 O0 1.466283 1_555
Cl0 O3 1.466283 1_555
Cl1 O9 1.461474 1_545
Cl1 O10 1.461474 1_555
Cl1 O2 1.466283 1_545
Cl1 O1 1.466283 1_555
Cl2 O12 1.461474 1_555
Cl2 O15 1.461474 1_555
Cl2 O7 1.466283 1_555
Cl2 O4 1.466283 1_555
Cl3 O14 1.461474 1_545
Cl3 O13 1.461474 1_555
Cl3 O5 1.466283 1_545
Cl3 O6 1.466283 1_555
