# generated using pymatgen
data_Fe7P12WO48
_symmetry_space_group_name_H-M   'P 1'
_cell_length_a   8.79029400
_cell_length_b   8.79641600
_cell_length_c   12.24194060
_cell_angle_alpha   89.86247151
_cell_angle_beta   89.85462081
_cell_angle_gamma   89.94536444
_symmetry_Int_Tables_number   1
_chemical_formula_structural   Fe7P12WO48
_chemical_formula_sum   'Fe7 P12 W1 O48'
_cell_volume   946.57838774
_cell_formula_units_Z   1
loop_
 _symmetry_equiv_pos_site_id
 _symmetry_equiv_pos_as_xyz
  1  'x, y, z'
loop_
 _atom_site_type_symbol
 _atom_site_label
 _atom_site_symmetry_multiplicity
 _atom_site_fract_x
 _atom_site_fract_y
 _atom_site_fract_z
 _atom_site_occupancy
  Fe  Fe0  1  0.03579100  0.25018300  0.61868100  1
  Fe  Fe1  1  0.46591300  0.25068400  0.38311400  1
  Fe  Fe2  1  0.96397500  0.24953300  0.11935700  1
  Fe  Fe3  1  0.53483400  0.24914400  0.88094900  1
  Fe  Fe4  1  0.46281200  0.75151600  0.11895300  1
  Fe  Fe5  1  0.03600200  0.75180300  0.88069200  1
  Fe  Fe6  1  0.96465500  0.74956400  0.38105000  1
  P  P0  1  0.75419200  0.03529700  0.49883300  1
  P  P1  1  0.60651100  0.10684400  0.14505500  1
  P  P2  1  0.89395100  0.10886600  0.85556600  1
  P  P3  1  0.39345100  0.38906000  0.64474000  1
  P  P4  1  0.10625600  0.39195200  0.35535600  1
  P  P5  1  0.24948400  0.46738600  0.00132600  1
  P  P6  1  0.74928800  0.53395500  0.00152500  1
  P  P7  1  0.60760200  0.60712700  0.35222000  1
  P  P8  1  0.89508800  0.60647500  0.64377300  1
  P  P9  1  0.39048100  0.89345300  0.85660700  1
  P  P10  1  0.10568700  0.89120000  0.14506800  1
  P  P11  1  0.24864400  0.96644700  0.49718400  1
  W  W0  1  0.53461000  0.74929100  0.61598100  1
  O  O0  1  0.34918700  0.06294800  0.42289600  1
  O  O1  1  0.15810900  0.06243000  0.57858200  1
  O  O2  1  0.09196700  0.06562900  0.14810900  1
  O  O3  1  0.40932300  0.06471700  0.85273000  1
  O  O4  1  0.85036900  0.12821800  0.57770200  1
  O  O5  1  0.65287700  0.14049900  0.43200200  1
  O  O6  1  0.55725200  0.17019000  0.03387000  1
  O  O7  1  0.94228900  0.16935200  0.96790100  1
  O  O8  1  0.77279000  0.14933300  0.16787200  1
  O  O9  1  0.72722600  0.15154600  0.83343700  1
  O  O10  1  0.50067100  0.17456700  0.23207300  1
  O  O11  1  0.00179100  0.18067100  0.77087400  1
  O  O12  1  0.00030400  0.32045200  0.27008800  1
  O  O13  1  0.49793200  0.32138800  0.73076500  1
  O  O14  1  0.22393900  0.36063200  0.66562900  1
  O  O15  1  0.27363000  0.34941400  0.33312900  1
  O  O16  1  0.44188300  0.33522400  0.53128900  1
  O  O17  1  0.05668000  0.33188700  0.46809100  1
  O  O18  1  0.15101300  0.36197100  0.07209700  1
  O  O19  1  0.35182600  0.36749000  0.92960800  1
  O  O20  1  0.90037500  0.43301600  0.64936800  1
  O  O21  1  0.59018400  0.43496700  0.34772200  1
  O  O22  1  0.84943600  0.43626900  0.07668500  1
  O  O23  1  0.65298900  0.43646400  0.92394500  1
  O  O24  1  0.34470500  0.56566200  0.07907800  1
  O  O25  1  0.15068700  0.56473500  0.92501900  1
  O  O26  1  0.41869600  0.56885500  0.65001400  1
  O  O27  1  0.09162200  0.56552900  0.34892700  1
  O  O28  1  0.64770000  0.63154300  0.07506600  1
  O  O29  1  0.84695100  0.63969300  0.93047700  1
  O  O30  1  0.93972100  0.66686400  0.53211700  1
  O  O31  1  0.56433000  0.66449900  0.47205700  1
  O  O32  1  0.77305000  0.65056900  0.33154800  1
  O  O33  1  0.72218100  0.65518000  0.66528500  1
  O  O34  1  0.49685000  0.68609000  0.27448000  1
  O  O35  1  0.99492600  0.67735000  0.73147200  1
  O  O36  1  0.99854300  0.82128000  0.22982200  1
  O  O37  1  0.49626400  0.82515400  0.76093000  1
  O  O38  1  0.27238900  0.85118800  0.16782600  1
  O  O39  1  0.22724500  0.84902900  0.82947000  1
  O  O40  1  0.44536900  0.82454200  0.96340000  1
  O  O41  1  0.05885500  0.83203300  0.03201200  1
  O  O42  1  0.35526700  0.85712000  0.56672000  1
  O  O43  1  0.14911600  0.86180100  0.42918200  1
  O  O44  1  0.90797700  0.93508500  0.85238600  1
  O  O45  1  0.59375200  0.93310100  0.14581100  1
  O  O46  1  0.84856400  0.93731500  0.42192200  1
  O  O47  1  0.65196700  0.92673400  0.57248700  1
loop_
_geom_bond_atom_site_label_1
_geom_bond_atom_site_label_2
_geom_bond_distance
_geom_bond_site_symmetry_2
Fe0 O11 1.981549 1_555
Fe0 O17 1.985187 1_555
Fe0 O14 2.005022 1_555
Fe0 O4 2.017268 1_455
Fe0 O1 2.030396 1_555
Fe0 O20 2.035087 1_455
Fe1 O16 1.972885 1_555
Fe1 O10 1.990797 1_555
Fe1 O15 1.996355 1_555
Fe1 O5 1.999438 1_555
Fe1 O21 2.001588 1_555
Fe1 O0 2.003481 1_555
Fe2 O12 1.976096 1_655
Fe2 O8 1.987253 1_555
Fe2 O7 1.994960 1_554
Fe2 O22 1.995032 1_555
Fe2 O2 2.000614 1_655
Fe2 O18 2.002898 1_655
Fe3 O13 1.971379 1_555
Fe3 O9 1.982443 1_555
Fe3 O3 1.994103 1_555
Fe3 O6 2.005273 1_556
Fe3 O19 2.005337 1_555
Fe3 O23 2.020158 1_555
Fe4 O38 1.980696 1_555
Fe4 O45 1.998053 1_555
Fe4 O24 1.999627 1_555
Fe4 O28 2.009661 1_555
Fe4 O34 2.010740 1_555
Fe4 O40 2.014401 1_554
Fe5 O35 1.976315 1_455
Fe5 O39 1.986326 1_555
Fe5 O41 1.994599 1_556
Fe5 O44 1.995409 1_455
Fe5 O25 2.003460 1_555
Fe5 O29 2.025018 1_455
Fe6 O36 1.976374 1_555
Fe6 O43 1.990419 1_655
Fe6 O32 1.993185 1_555
Fe6 O30 1.997283 1_555
Fe6 O46 2.004358 1_555
Fe6 O27 2.004576 1_655
O0 P11 1.523937 1_545
O1 P11 1.529013 1_545
O2 P10 1.539500 1_545
O3 P9 1.516360 1_545
O4 P0 1.524564 1_555
O5 P0 1.522288 1_555
O6 P1 1.532814 1_555
O7 P2 1.536786 1_555
O8 P1 1.535488 1_555
O9 P2 1.537103 1_555
O10 P1 1.533695 1_555
O11 P2 1.538020 1_455
O12 P4 1.536814 1_555
O13 P3 1.519126 1_555
O14 P3 1.531886 1_555
O15 P4 1.541455 1_555
O16 P3 1.527814 1_555
O17 P4 1.538708 1_555
O18 P5 1.534130 1_555
O19 P5 1.533129 1_556
O20 P8 1.527858 1_555
O21 P7 1.523397 1_555
O22 P6 1.535845 1_555
O23 P6 1.537318 1_556
O24 P5 1.537299 1_555
O25 P5 1.535900 1_556
O26 P3 1.598734 1_555
O26 W0 1.930985 1_555
O27 P4 1.533991 1_555
O28 P6 1.530687 1_555
O29 P6 1.533772 1_556
O30 P8 1.516139 1_555
O31 P7 1.597476 1_555
O31 W0 1.931966 1_555
O32 P7 1.524431 1_555
O33 P8 1.600087 1_555
O33 W0 1.941192 1_555
O34 P7 1.528461 1_555
O35 P8 1.523333 1_555
O36 P10 1.528044 1_655
O37 P9 1.610669 1_555
O37 W0 1.926099 1_555
O38 P10 1.532773 1_555
O39 P9 1.525154 1_555
O40 P9 1.519290 1_555
O41 P10 1.537084 1_555
O42 P11 1.589436 1_555
O42 W0 1.935936 1_555
O43 P11 1.521408 1_555
O44 P2 1.534076 1_565
O45 P1 1.532536 1_565
O46 P0 1.521870 1_565
O47 P0 1.589281 1_565
O47 W0 1.944298 1_555
