# generated using pymatgen
data_LuHO2
_symmetry_space_group_name_H-M   'P 1'
_cell_length_a   5.30649841
_cell_length_b   4.72908572
_cell_length_c   3.35851049
_cell_angle_alpha   90.00000000
_cell_angle_beta   90.00000000
_cell_angle_gamma   90.00000000
_symmetry_Int_Tables_number   1
_chemical_formula_structural   LuHO2
_chemical_formula_sum   'Lu2 H2 O4'
_cell_volume   84.28143739
_cell_formula_units_Z   2
loop_
 _symmetry_equiv_pos_site_id
 _symmetry_equiv_pos_as_xyz
  1  'x, y, z'
loop_
 _atom_site_type_symbol
 _atom_site_label
 _atom_site_symmetry_multiplicity
 _atom_site_fract_x
 _atom_site_fract_y
 _atom_site_fract_z
 _atom_site_occupancy
  Lu  Lu0  1  0.01587140  0.27854895  0.00000000  1
  Lu  Lu1  1  0.51587140  0.72145105  0.50000000  1
  H  H0  1  0.03828865  0.81231680  0.50000000  1
  H  H1  1  0.53828865  0.18768320  0.00000000  1
  O  O0  1  0.14918318  0.98482973  0.50000000  1
  O  O1  1  0.37388176  0.48448595  0.00000000  1
  O  O2  1  0.64918318  0.01517027  -0.00000000  1
  O  O3  1  0.87388176  0.51551405  0.50000000  1
loop_
_geom_bond_atom_site_label_1
_geom_bond_atom_site_label_2
_geom_bond_distance
_geom_bond_site_symmetry_2
Lu0 O1 2.134863 1_555
Lu0 O3 2.154860 1_455
Lu0 O3 2.154860 1_454
Lu0 O0 2.291228 1_545
Lu0 O0 2.291228 1_544
Lu0 O2 2.310330 1_455
Lu1 O3 2.134863 1_555
Lu1 O1 2.154860 1_555
Lu1 O1 2.154860 1_556
Lu1 O2 2.291228 1_566
Lu1 O2 2.291228 1_565
Lu1 O0 2.310330 1_555
H0 O0 1.005914 1_555
H0 O3 1.652645 1_455
H1 O2 1.005914 1_555
H1 O1 1.652645 1_555
