# generated using pymatgen
data_Li3Co2(SiO4)2
_symmetry_space_group_name_H-M   'P 1'
_cell_length_a   5.24528300
_cell_length_b   5.25912814
_cell_length_c   6.40924984
_cell_angle_alpha   90.00549592
_cell_angle_beta   90.58711491
_cell_angle_gamma   91.31977228
_symmetry_Int_Tables_number   1
_chemical_formula_structural   Li3Co2(SiO4)2
_chemical_formula_sum   'Li3 Co2 Si2 O8'
_cell_volume   176.74690952
_cell_formula_units_Z   1
loop_
 _symmetry_equiv_pos_site_id
 _symmetry_equiv_pos_as_xyz
  1  'x, y, z'
loop_
 _atom_site_type_symbol
 _atom_site_label
 _atom_site_symmetry_multiplicity
 _atom_site_fract_x
 _atom_site_fract_y
 _atom_site_fract_z
 _atom_site_occupancy
  Li  Li0  1  0.18711400  0.81730600  0.75315000  1
  Li  Li1  1  0.68774900  0.67810400  0.50484700  1
  Li  Li2  1  0.80997800  0.19033700  0.24944000  1
  Co  Co0  1  0.17991400  0.82320200  0.24288600  1
  Co  Co1  1  0.82108200  0.18709200  0.75797300  1
  Si  Si0  1  0.67985800  0.67363700  0.00179300  1
  Si  Si1  1  0.31926200  0.31314000  0.49617600  1
  O  O0  1  0.79772700  0.80306000  0.78810600  1
  O  O1  1  0.81633900  0.79930300  0.21891700  1
  O  O2  1  0.37320000  0.74303200  0.01460900  1
  O  O3  1  0.27291900  0.62892200  0.48050800  1
  O  O4  1  0.72504800  0.37053900  0.00427800  1
  O  O5  1  0.63272700  0.29522100  0.50139800  1
  O  O6  1  0.18750400  0.18765100  0.69978900  1
  O  O7  1  0.19406600  0.17394100  0.28613300  1
loop_
_geom_bond_atom_site_label_1
_geom_bond_atom_site_label_2
_geom_bond_distance
_geom_bond_site_symmetry_2
Li0 O2 1.974241 1_556
Li0 O6 1.977481 1_565
Li0 O0 2.056629 1_455
Li0 O3 2.067356 1_555
Li1 O0 2.005352 1_555
Li1 O5 2.027703 1_555
Li1 O1 2.055573 1_555
Li1 O3 2.189267 1_555
Li2 O4 1.889705 1_555
Li2 O5 1.957208 1_555
Li2 O7 2.029742 1_655
Li2 O1 2.066830 1_545
Co0 O2 1.842885 1_555
Co0 O7 1.864938 1_565
Co0 O3 1.899853 1_555
Co0 O1 1.912904 1_455
Co1 O4 1.927430 1_556
Co1 O6 1.961514 1_655
Co1 O5 1.999116 1_555
Co1 O0 2.029914 1_545
O0 Si0 1.649062 1_556
O1 Si0 1.686249 1_555
O2 Si0 1.660416 1_555
O3 Si1 1.686817 1_555
O4 Si0 1.617006 1_555
O5 Si1 1.649074 1_555
O6 Si1 1.616744 1_555
O7 Si1 1.654996 1_555
