# generated using pymatgen
data_Cs6Ti2O7
_symmetry_space_group_name_H-M   'P 1'
_cell_length_a   10.01986071
_cell_length_b   7.21940021
_cell_length_c   12.19208161
_cell_angle_alpha   55.59970122
_cell_angle_beta   90.00000000
_cell_angle_gamma   90.00000000
_symmetry_Int_Tables_number   1
_chemical_formula_structural   Cs6Ti2O7
_chemical_formula_sum   'Cs12 Ti4 O14'
_cell_volume   727.70071953
_cell_formula_units_Z   2
loop_
 _symmetry_equiv_pos_site_id
 _symmetry_equiv_pos_as_xyz
  1  'x, y, z'
loop_
 _atom_site_type_symbol
 _atom_site_label
 _atom_site_symmetry_multiplicity
 _atom_site_fract_x
 _atom_site_fract_y
 _atom_site_fract_z
 _atom_site_occupancy
  Cs  Cs0  1  0.21515358  0.60165145  0.77815956  1
  Cs  Cs1  1  0.35065939  0.96368383  0.41849143  1
  Cs  Cs2  1  0.47492778  0.20370177  0.04947097  1
  Cs  Cs3  1  0.97492778  0.79629823  0.45052903  1
  Cs  Cs4  1  0.71515358  0.39834855  0.72184044  1
  Cs  Cs5  1  0.85065939  0.03631617  0.08150857  1
  Cs  Cs6  1  0.14934061  0.96368383  0.91849143  1
  Cs  Cs7  1  0.28484642  0.60165145  0.27815956  1
  Cs  Cs8  1  0.02507222  0.20370177  0.54947097  1
  Cs  Cs9  1  0.52507222  0.79629823  0.95052903  1
  Cs  Cs10  1  0.64934061  0.03631617  0.58150857  1
  Cs  Cs11  1  0.78484642  0.39834855  0.22184044  1
  Ti  Ti0  1  0.13478396  0.32354893  0.12723925  1
  Ti  Ti1  1  0.63478396  0.67645107  0.37276075  1
  Ti  Ti2  1  0.36521604  0.32354893  0.62723925  1
  Ti  Ti3  1  0.86521604  0.67645107  0.87276075  1
  O  O0  1  0.00000000  0.50000000  0.00000000  1
  O  O1  1  0.91337168  0.74079511  0.71174763  1
  O  O2  1  0.71528606  0.50682688  0.92717840  1
  O  O3  1  0.66167669  0.93191708  0.36578431  1
  O  O4  1  0.16167669  0.06808292  0.13421569  1
  O  O5  1  0.21528606  0.49317312  0.57282160  1
  O  O6  1  0.41337168  0.25920489  0.78825237  1
  O  O7  1  0.50000000  0.50000000  0.50000000  1
  O  O8  1  0.58662832  0.74079511  0.21174763  1
  O  O9  1  0.78471394  0.50682688  0.42717840  1
  O  O10  1  0.83832331  0.93191708  0.86578431  1
  O  O11  1  0.33832331  0.06808292  0.63421569  1
  O  O12  1  0.28471394  0.49317312  0.07282160  1
  O  O13  1  0.08662832  0.25920489  0.28825237  1
loop_
_geom_bond_atom_site_label_1
_geom_bond_atom_site_label_2
_geom_bond_distance
_geom_bond_site_symmetry_2
Cs0 O5 3.015990 1_555
Cs0 O11 3.043779 1_565
Cs0 O6 3.118994 1_555
Cs0 O1 3.144691 1_455
Cs0 O0 3.202914 1_556
Cs0 O12 3.290348 1_556
Cs1 O5 3.113942 1_555
Cs1 O11 3.121029 1_565
Cs1 O13 3.200649 1_565
Cs1 O3 3.216163 1_555
Cs1 O7 3.267059 1_555
Cs1 O4 3.635184 1_565
Cs2 O12 2.958570 1_555
Cs2 O8 2.977303 1_545
Cs2 O2 3.020830 1_554
Cs2 O6 3.040058 1_554
Cs2 O4 3.276389 1_555
Cs3 O9 2.958570 1_555
Cs3 O13 2.977303 1_665
Cs3 O5 3.020830 1_655
Cs3 O1 3.040058 1_555
Cs3 O3 3.276389 1_555
Cs4 O2 3.015990 1_555
Cs4 O10 3.043779 1_545
Cs4 O1 3.118994 1_555
Cs4 O6 3.144691 1_555
Cs4 O7 3.202914 1_555
Cs4 O9 3.290348 1_555
Cs5 O2 3.113942 1_554
Cs5 O10 3.121029 1_544
Cs5 O8 3.200649 1_545
Cs5 O4 3.216163 1_655
Cs5 O0 3.267059 1_655
Cs5 O3 3.635184 1_545
Cs6 O12 3.113942 1_556
Cs6 O4 3.121029 1_566
Cs6 O6 3.200649 1_565
Cs6 O10 3.216163 1_455
Cs6 O0 3.267059 1_556
Cs6 O11 3.635184 1_565
Cs7 O12 3.015990 1_555
Cs7 O4 3.043779 1_565
Cs7 O13 3.118994 1_555
Cs7 O8 3.144691 1_555
Cs7 O7 3.202914 1_555
Cs7 O5 3.290348 1_555
Cs8 O5 2.958570 1_555
Cs8 O1 2.977303 1_445
Cs8 O9 3.020830 1_455
Cs8 O13 3.040058 1_555
Cs8 O11 3.276389 1_555
Cs9 O2 2.958570 1_555
Cs9 O6 2.977303 1_565
Cs9 O12 3.020830 1_556
Cs9 O8 3.040058 1_556
Cs9 O10 3.276389 1_555
Cs10 O9 3.113942 1_555
Cs10 O3 3.121029 1_545
Cs10 O1 3.200649 1_545
Cs10 O11 3.216163 1_555
Cs10 O7 3.267059 1_555
Cs10 O10 3.635184 1_545
Cs11 O9 3.015990 1_555
Cs11 O3 3.043779 1_545
Cs11 O8 3.118994 1_555
Cs11 O13 3.144691 1_655
Cs11 O0 3.202914 1_655
Cs11 O2 3.290348 1_554
O0 Ti0 1.902695 1_555
O0 Ti3 1.902695 1_454
O1 Ti3 1.808842 1_555
O2 Ti3 1.810687 1_555
O3 Ti1 1.817711 1_555
O4 Ti0 1.817711 1_555
O5 Ti2 1.810687 1_555
O6 Ti2 1.808842 1_555
O7 Ti2 1.902695 1_555
O7 Ti1 1.902695 1_555
O8 Ti1 1.808842 1_555
O9 Ti1 1.810687 1_555
O10 Ti3 1.817711 1_555
O11 Ti2 1.817711 1_555
O12 Ti0 1.810687 1_555
O13 Ti0 1.808842 1_555
