# generated using pymatgen
data_La4Mn5Co(PbO9)2
_symmetry_space_group_name_H-M   'P 1'
_cell_length_a   5.52535900
_cell_length_b   7.91423060
_cell_length_c   9.61037072
_cell_angle_alpha   114.08195920
_cell_angle_beta   106.34199377
_cell_angle_gamma   90.63861740
_symmetry_Int_Tables_number   1
_chemical_formula_structural   La4Mn5Co(PbO9)2
_chemical_formula_sum   'La4 Mn5 Co1 Pb2 O18'
_cell_volume   364.34822651
_cell_formula_units_Z   1
loop_
 _symmetry_equiv_pos_site_id
 _symmetry_equiv_pos_as_xyz
  1  'x, y, z'
loop_
 _atom_site_type_symbol
 _atom_site_label
 _atom_site_symmetry_multiplicity
 _atom_site_fract_x
 _atom_site_fract_y
 _atom_site_fract_z
 _atom_site_occupancy
  La  La0  1  0.16690900  0.91902200  0.33319700  1
  La  La1  1  0.49997600  0.75216200  0.00047400  1
  La  La2  1  0.83346000  0.08602600  0.66700400  1
  La  La3  1  0.16537200  0.41132900  0.33197600  1
  Mn  Mn0  1  0.99905600  0.00015800  0.00015700  1
  Mn  Mn1  1  0.33449600  0.33296000  0.66670100  1
  Mn  Mn2  1  0.66682400  0.66635700  0.33311500  1
  Mn  Mn3  1  0.00016900  0.49999200  0.00024200  1
  Mn  Mn4  1  0.33241200  0.83321600  0.66654600  1
  Co  Co0  1  0.66640600  0.16671600  0.33297900  1
  Pb  Pb0  1  0.49986000  0.24920700  0.00131100  1
  Pb  Pb1  1  0.83235800  0.58106400  0.66515700  1
  O  O0  1  0.64793900  0.45303000  0.85157100  1
  O  O1  1  0.98343400  0.23361100  0.96813300  1
  O  O2  1  0.98706900  0.79431900  0.51474300  1
  O  O3  1  0.13953600  0.42862300  0.81935100  1
  O  O4  1  0.20203200  0.89828000  0.85117900  1
  O  O5  1  0.34589300  0.09510300  0.69011400  1
  O  O6  1  0.31432300  0.56368600  0.62832200  1
  O  O7  1  0.30781000  0.10861200  0.18552200  1
  O  O8  1  0.46522400  0.77111200  0.48381900  1
  O  O9  1  0.52356300  0.22367700  0.51455800  1
  O  O10  1  0.68079200  0.88995300  0.81913000  1
  O  O11  1  0.67664800  0.43591500  0.35616800  1
  O  O12  1  0.65081400  0.89257200  0.29859200  1
  O  O13  1  0.81608000  0.08857400  0.15515000  1
  O  O14  1  0.88167800  0.57761100  0.19040300  1
  O  O15  1  0.02101900  0.21622500  0.48682200  1
  O  O16  1  0.01590900  0.76644100  0.03264000  1
  O  O17  1  0.34293900  0.56444800  0.15492300  1
loop_
_geom_bond_atom_site_label_1
_geom_bond_atom_site_label_2
_geom_bond_distance
_geom_bond_site_symmetry_2
La0 O15 2.498008 1_565
La0 O8 2.503137 1_555
La0 O16 2.504477 1_555
La0 O7 2.684251 1_565
La0 O9 2.695630 1_565
La0 O14 2.707364 1_455
La0 O2 2.713759 1_455
La0 O12 2.771697 1_455
La0 O12 2.785571 1_555
La0 O13 2.924265 1_465
La0 O17 2.971702 1_555
La0 O5 2.974065 1_565
La1 O4 2.484613 1_554
La1 O12 2.485010 1_555
La1 O0 2.501510 1_554
La1 O13 2.748510 1_565
La1 O17 2.767434 1_555
La1 O16 2.775484 1_655
La1 O16 2.775888 1_555
La1 O10 2.780500 1_554
La1 O3 2.801937 1_554
La1 O7 3.046868 1_565
La1 O6 3.101022 1_554
La1 O14 3.105558 1_555
La2 O2 2.485368 1_545
La2 O9 2.489486 1_555
La2 O1 2.509250 1_555
La2 O15 2.752534 1_655
La2 O3 2.760448 1_655
La2 O5 2.764059 1_555
La2 O5 2.774843 1_655
La2 O8 2.782295 1_545
La2 O10 2.788046 1_545
La2 O12 3.070707 1_545
La2 O0 3.085210 1_555
La2 O4 3.110186 1_645
La3 O6 2.469554 1_555
La3 O7 2.500733 1_555
La3 O14 2.519346 1_455
La3 O13 2.763941 1_455
La3 O11 2.766527 1_555
La3 O11 2.777056 1_455
La3 O15 2.783995 1_555
La3 O17 2.814613 1_555
La3 O8 2.850525 1_555
La3 O1 3.031884 1_454
La3 O9 3.072357 1_555
La3 O2 3.152569 1_455
Mn0 O13 1.934716 1_555
Mn0 O7 1.957008 1_655
Mn0 O10 1.971210 1_544
Mn0 O4 1.984800 1_644
Mn0 O1 1.992096 1_554
Mn0 O16 1.996544 1_645
Mn1 O15 1.953973 1_555
Mn1 O9 1.955740 1_555
Mn1 O3 1.971507 1_555
Mn1 O0 1.978117 1_555
Mn1 O5 1.984582 1_555
Mn1 O6 2.003459 1_555
Mn2 O11 1.924410 1_555
Mn2 O12 1.948050 1_555
Mn2 O17 1.975294 1_555
Mn2 O14 1.983022 1_555
Mn2 O8 1.993569 1_555
Mn2 O2 1.995692 1_555
Mn3 O17 1.957617 1_555
Mn3 O3 1.973790 1_554
Mn3 O14 1.977859 1_455
Mn3 O0 1.988200 1_454
Mn3 O16 1.999035 1_555
Mn3 O1 1.999244 1_454
Mn4 O8 1.973001 1_555
Mn4 O10 1.977928 1_555
Mn4 O4 1.978520 1_555
Mn4 O2 1.979390 1_455
Mn4 O5 1.989125 1_565
Mn4 O6 2.007548 1_555
Co0 O13 1.982753 1_555
Co0 O9 2.003078 1_555
Co0 O7 2.003325 1_555
Co0 O15 2.014567 1_655
Co0 O11 2.048085 1_555
Co0 O12 2.053933 1_545
O3 Pb1 2.573217 1_455
O5 Pb0 2.593068 1_556
O10 Pb1 2.580311 1_555
O11 Pb1 2.575691 1_555
O13 Pb0 2.642821 1_555
O17 Pb0 2.630282 1_555
