# generated using pymatgen
data_Li4Mn3Cr2Co3O16
_symmetry_space_group_name_H-M   'P 1'
_cell_length_a   5.77565960
_cell_length_b   5.77565960
_cell_length_c   9.48454914
_cell_angle_alpha   89.59681369
_cell_angle_beta   89.59681369
_cell_angle_gamma   60.32446618
_symmetry_Int_Tables_number   1
_chemical_formula_structural   Li4Mn3Cr2Co3O16
_chemical_formula_sum   'Li4 Mn3 Cr2 Co3 O16'
_cell_volume   274.88231068
_cell_formula_units_Z   1
loop_
 _symmetry_equiv_pos_site_id
 _symmetry_equiv_pos_as_xyz
  1  'x, y, z'
loop_
 _atom_site_type_symbol
 _atom_site_label
 _atom_site_symmetry_multiplicity
 _atom_site_fract_x
 _atom_site_fract_y
 _atom_site_fract_z
 _atom_site_occupancy
  Li  Li0  1  0.33276600  0.33276600  0.10540900  1
  Li  Li1  1  0.99739300  0.99739300  0.00117600  1
  Li  Li2  1  0.99605400  0.99605400  0.50467300  1
  Li  Li3  1  0.66729100  0.66729100  0.61033500  1
  Mn  Mn0  1  0.17042800  0.17042800  0.78522300  1
  Mn  Mn1  1  0.83238200  0.33941700  0.28512800  1
  Mn  Mn2  1  0.33941700  0.83238200  0.28512800  1
  Cr  Cr0  1  0.33806300  0.33806300  0.51632400  1
  Cr  Cr1  1  0.66879600  0.66879600  0.01396700  1
  Co  Co0  1  0.66264200  0.17065000  0.78744600  1
  Co  Co1  1  0.17065000  0.66264200  0.78744600  1
  Co  Co2  1  0.83313700  0.83313700  0.28870900  1
  O  O0  1  0.67454500  0.16980200  0.39865800  1
  O  O1  1  0.48227100  0.48227100  0.66370200  1
  O  O2  1  0.33472600  0.33472600  0.88966100  1
  O  O3  1  0.99997000  0.99997000  0.69297600  1
  O  O4  1  0.00020400  0.00020400  0.19015700  1
  O  O5  1  0.16980200  0.67454500  0.39865800  1
  O  O6  1  0.48183200  0.03832100  0.66502100  1
  O  O7  1  0.03832100  0.48183200  0.66502100  1
  O  O8  1  0.83657900  0.83657900  0.89499400  1
  O  O9  1  0.16158600  0.16158600  0.39711100  1
  O  O10  1  0.96324200  0.51283100  0.15849500  1
  O  O11  1  0.51283100  0.96324200  0.15849500  1
  O  O12  1  0.66721900  0.66721900  0.39035600  1
  O  O13  1  0.83764200  0.32349600  0.89629600  1
  O  O14  1  0.51876800  0.51876800  0.16445600  1
  O  O15  1  0.32349600  0.83764200  0.89629600  1
loop_
_geom_bond_atom_site_label_1
_geom_bond_atom_site_label_2
_geom_bond_distance
_geom_bond_site_symmetry_2
Li0 O10 1.919518 1_455
Li0 O11 1.919518 1_545
Li0 O14 1.944606 1_555
Li0 O2 2.046207 1_554
Li1 O4 1.792848 1_665
Li1 O8 1.902663 1_554
Li1 O13 1.911559 1_564
Li1 O15 1.911559 1_654
Li2 O3 1.786715 1_555
Li2 O5 1.906092 1_655
Li2 O0 1.906092 1_565
Li2 O9 1.935577 1_665
Li3 O1 1.911950 1_555
Li3 O6 1.934825 1_565
Li3 O7 1.934825 1_655
Li3 O12 2.086408 1_555
Mn0 O3 1.920410 1_445
Mn0 O2 1.923589 1_555
Mn0 O7 1.934245 1_555
Mn0 O6 1.934245 1_555
Mn0 O15 1.971744 1_545
Mn0 O13 1.971744 1_455
Mn1 O12 1.927547 1_555
Mn1 O4 1.929109 1_655
Mn1 O10 1.933079 1_555
Mn1 O0 1.950847 1_555
Mn1 O14 1.954094 1_555
Mn1 O9 1.969155 1_655
Mn2 O12 1.927547 1_555
Mn2 O4 1.929109 1_565
Mn2 O11 1.933079 1_555
Mn2 O5 1.950847 1_555
Mn2 O14 1.954094 1_555
Mn2 O9 1.969155 1_565
Cr0 O1 2.015189 1_555
Cr0 O5 2.020245 1_555
Cr0 O0 2.020245 1_555
Cr0 O6 2.057744 1_555
Cr0 O7 2.057744 1_555
Cr0 O9 2.101764 1_555
Cr1 O8 2.012588 1_554
Cr1 O10 2.020187 1_555
Cr1 O11 2.020187 1_555
Cr1 O14 2.060965 1_555
Cr1 O13 2.064996 1_554
Cr1 O15 2.064996 1_554
Co0 O2 1.906518 1_555
Co0 O3 1.912217 1_545
Co0 O13 1.943646 1_555
Co0 O1 1.957804 1_555
Co0 O8 1.959596 1_545
Co0 O6 1.960308 1_555
Co1 O2 1.906518 1_555
Co1 O3 1.912217 1_455
Co1 O15 1.943646 1_555
Co1 O1 1.957804 1_555
Co1 O8 1.959596 1_455
Co1 O7 1.960308 1_555
Co2 O4 1.905884 1_665
Co2 O12 1.910328 1_555
Co2 O5 1.989705 1_655
Co2 O0 1.989705 1_565
Co2 O11 2.038373 1_555
Co2 O10 2.038373 1_555
