# generated using pymatgen
data_VF5
_symmetry_space_group_name_H-M   'P 1'
_cell_length_a   7.49960600
_cell_length_b   6.56777300
_cell_length_c   14.89730122
_cell_angle_alpha   84.09927071
_cell_angle_beta   90.00000000
_cell_angle_gamma   90.00000000
_symmetry_Int_Tables_number   1
_chemical_formula_structural   VF5
_chemical_formula_sum   'V8 F40'
_cell_volume   729.88923388
_cell_formula_units_Z   8
loop_
 _symmetry_equiv_pos_site_id
 _symmetry_equiv_pos_as_xyz
  1  'x, y, z'
loop_
 _atom_site_type_symbol
 _atom_site_label
 _atom_site_symmetry_multiplicity
 _atom_site_fract_x
 _atom_site_fract_y
 _atom_site_fract_z
 _atom_site_occupancy
  V  V0  1  0.68733200  0.82956500  0.62380500  1
  V  V1  1  0.81266800  0.82956500  0.12380500  1
  V  V2  1  0.62662200  0.50087900  0.84620700  1
  V  V3  1  0.12662200  0.49912100  0.65379300  1
  V  V4  1  0.87337800  0.50087900  0.34620700  1
  V  V5  1  0.37337800  0.49912100  0.15379300  1
  V  V6  1  0.18733200  0.17043500  0.87619500  1
  V  V7  1  0.31266800  0.17043500  0.37619500  1
  F  F0  1  0.01010800  0.99892300  0.89080800  1
  F  F1  1  0.80597500  0.95663500  0.70392100  1
  F  F2  1  0.48989200  0.99892300  0.39080800  1
  F  F3  1  0.81443100  0.93581700  0.53276400  1
  F  F4  1  0.69402500  0.95663500  0.20392100  1
  F  F5  1  0.68556900  0.93581700  0.03276400  1
  F  F6  1  0.52558500  0.70157500  0.89805000  1
  F  F7  1  0.16578200  0.67790500  0.73219200  1
  F  F8  1  0.56953300  0.68491000  0.72990200  1
  F  F9  1  0.97441500  0.70157500  0.39805000  1
  F  F10  1  0.83642600  0.61556800  0.83958800  1
  F  F11  1  0.18061200  0.66005800  0.55741100  1
  F  F12  1  0.58993300  0.64054500  0.56257900  1
  F  F13  1  0.33421800  0.67790500  0.23219200  1
  F  F14  1  0.93046700  0.68491000  0.22990200  1
  F  F15  1  0.88223200  0.61238400  0.64793800  1
  F  F16  1  0.66357400  0.61556800  0.33958800  1
  F  F17  1  0.31938800  0.66005800  0.05741100  1
  F  F18  1  0.91006700  0.64054500  0.06257900  1
  F  F19  1  0.61776800  0.61238400  0.14793800  1
  F  F20  1  0.38223200  0.38761600  0.85206200  1
  F  F21  1  0.08993300  0.35945500  0.93742100  1
  F  F22  1  0.68061200  0.33994200  0.94258900  1
  F  F23  1  0.33642600  0.38443200  0.66041200  1
  F  F24  1  0.11776800  0.38761600  0.35206200  1
  F  F25  1  0.06953300  0.31509000  0.77009800  1
  F  F26  1  0.66578200  0.32209500  0.76780800  1
  F  F27  1  0.41006700  0.35945500  0.43742100  1
  F  F28  1  0.81938800  0.33994200  0.44258900  1
  F  F29  1  0.16357400  0.38443200  0.16041200  1
  F  F30  1  0.02558500  0.29842500  0.60195000  1
  F  F31  1  0.43046700  0.31509000  0.27009800  1
  F  F32  1  0.83421800  0.32209500  0.26780800  1
  F  F33  1  0.47441500  0.29842500  0.10195000  1
  F  F34  1  0.31443100  0.06418300  0.96723600  1
  F  F35  1  0.30597500  0.04336500  0.79607900  1
  F  F36  1  0.18556900  0.06418300  0.46723600  1
  F  F37  1  0.51010800  0.00107700  0.60919200  1
  F  F38  1  0.19402500  0.04336500  0.29607900  1
  F  F39  1  0.98989200  0.00107700  0.10919200  1
loop_
_geom_bond_atom_site_label_1
_geom_bond_atom_site_label_2
_geom_bond_distance
_geom_bond_site_symmetry_2
F0 V6 1.741378 1_565
F1 V0 1.765637 1_555
F2 V7 1.741378 1_565
F3 V0 1.743677 1_555
F4 V1 1.765637 1_555
F5 V1 1.743677 1_555
F6 V2 1.765621 1_555
F7 V3 1.763822 1_555
F8 V0 1.967869 1_555
F8 V2 2.053198 1_555
F9 V4 1.765621 1_555
F10 V2 1.742864 1_555
F11 V3 1.740906 1_555
F12 V0 1.771859 1_555
F13 V5 1.763822 1_555
F14 V1 1.967869 1_555
F14 V4 2.053198 1_555
F15 V3 1.976586 1_655
F15 V0 2.048147 1_555
F16 V4 1.742864 1_555
F17 V5 1.740906 1_555
F18 V1 1.771859 1_555
F19 V5 1.976586 1_555
F19 V1 2.048147 1_555
F20 V2 1.976586 1_555
F20 V6 2.048147 1_555
F21 V6 1.771859 1_555
F22 V2 1.740906 1_555
F23 V3 1.742864 1_555
F24 V4 1.976586 1_455
F24 V7 2.048147 1_555
F25 V6 1.967869 1_555
F25 V3 2.053198 1_555
F26 V2 1.763822 1_555
F27 V7 1.771859 1_555
F28 V4 1.740906 1_555
F29 V5 1.742864 1_555
F30 V3 1.765621 1_555
F31 V7 1.967869 1_555
F31 V5 2.053198 1_555
F32 V4 1.763822 1_555
F33 V5 1.765621 1_555
F34 V6 1.743677 1_555
F35 V6 1.765637 1_555
F36 V7 1.743677 1_555
F37 V0 1.741378 1_545
F38 V7 1.765637 1_555
F39 V1 1.741378 1_545
