# generated using pymatgen
data_LiCoBO3
_symmetry_space_group_name_H-M   'P 1'
_cell_length_a   5.04446932
_cell_length_b   6.44486277
_cell_length_c   8.86372595
_cell_angle_alpha   77.95303388
_cell_angle_beta   91.54454336
_cell_angle_gamma   114.07407616
_symmetry_Int_Tables_number   1
_chemical_formula_structural   LiCoBO3
_chemical_formula_sum   'Li4 Co4 B4 O12'
_cell_volume   256.76144082
_cell_formula_units_Z   4
loop_
 _symmetry_equiv_pos_site_id
 _symmetry_equiv_pos_as_xyz
  1  'x, y, z'
loop_
 _atom_site_type_symbol
 _atom_site_label
 _atom_site_symmetry_multiplicity
 _atom_site_fract_x
 _atom_site_fract_y
 _atom_site_fract_z
 _atom_site_occupancy
  Li  Li0  1  0.73451700  0.65614500  0.32130100  1
  Li  Li1  1  0.23453900  0.65607700  0.82132500  1
  Li  Li2  1  0.76548300  0.34385700  0.17870000  1
  Li  Li3  1  0.26544400  0.34394400  0.67867900  1
  Co  Co0  1  0.80697700  0.82483300  0.62726600  1
  Co  Co1  1  0.69302200  0.17516700  0.87274400  1
  Co  Co2  1  0.30704600  0.82483800  0.12724500  1
  Co  Co3  1  0.19290800  0.17511600  0.37276700  1
  B  B0  1  0.28350300  0.74703500  0.46601800  1
  B  B1  1  0.78353100  0.74701500  0.96595500  1
  B  B2  1  0.21649300  0.25297200  0.03397600  1
  B  B3  1  0.71649100  0.25300400  0.53402200  1
  O  O0  1  0.40730300  0.73201900  0.33537400  1
  O  O1  1  0.90729200  0.73193700  0.83531400  1
  O  O2  1  0.09267900  0.26797500  0.16464000  1
  O  O3  1  0.59270400  0.26805100  0.66469300  1
  O  O4  1  0.05339200  0.81976000  0.45343800  1
  O  O5  1  0.55345100  0.81980300  0.95339100  1
  O  O6  1  0.44661400  0.18021800  0.04656900  1
  O  O7  1  0.94658800  0.18020700  0.54660400  1
  O  O8  1  0.88054300  0.69066400  0.10993600  1
  O  O9  1  0.38048100  0.69069400  0.60997400  1
  O  O10  1  0.61946100  0.30935200  0.39004500  1
  O  O11  1  0.11953900  0.30931800  0.89002300  1
loop_
_geom_bond_atom_site_label_1
_geom_bond_atom_site_label_2
_geom_bond_distance
_geom_bond_site_symmetry_2
Li0 O0 1.916844 1_555
Li0 O8 1.966916 1_555
Li0 O10 2.023807 1_555
Li0 O4 2.025169 1_655
Li1 O1 1.916844 1_455
Li1 O9 1.966499 1_555
Li1 O11 2.023616 1_555
Li1 O5 2.025083 1_555
Li2 O2 1.916772 1_655
Li2 O10 1.966764 1_555
Li2 O8 2.023901 1_555
Li2 O6 2.025165 1_555
Li3 O3 1.917035 1_555
Li3 O11 1.966361 1_555
Li3 O9 2.023538 1_555
Li3 O7 2.024998 1_455
Co0 O1 1.936789 1_555
Co0 O9 1.979827 1_555
Co0 O4 2.019303 1_655
Co0 O7 2.068929 1_565
Co1 O3 1.936801 1_555
Co1 O11 1.979908 1_655
Co1 O6 2.019199 1_556
Co1 O5 2.068875 1_545
Co2 O0 1.937208 1_555
Co2 O8 1.979882 1_455
Co2 O5 2.019346 1_554
Co2 O6 2.069001 1_565
Co3 O2 1.937197 1_555
Co3 O10 1.980076 1_555
Co3 O7 2.019107 1_455
Co3 O4 2.068883 1_545
B0 O0 1.369449 1_555
B0 O9 1.384621 1_555
B0 O4 1.412309 1_555
B1 O1 1.369499 1_555
B1 O8 1.384900 1_556
B1 O5 1.412426 1_555
B2 O2 1.369603 1_555
B2 O11 1.384553 1_554
B2 O6 1.412478 1_555
B3 O3 1.369711 1_555
B3 O10 1.384905 1_555
B3 O7 1.412543 1_555
