# generated using pymatgen
data_Ag2TeO4
_symmetry_space_group_name_H-M   'P 1'
_cell_length_a   8.37137800
_cell_length_b   6.20979296
_cell_length_c   7.31580787
_cell_angle_alpha   76.65586831
_cell_angle_beta   46.27555428
_cell_angle_gamma   57.95852346
_symmetry_Int_Tables_number   1
_chemical_formula_structural   Ag2TeO4
_chemical_formula_sum   'Ag4 Te2 O8'
_cell_volume   227.16555706
_cell_formula_units_Z   2
loop_
 _symmetry_equiv_pos_site_id
 _symmetry_equiv_pos_as_xyz
  1  'x, y, z'
loop_
 _atom_site_type_symbol
 _atom_site_label
 _atom_site_symmetry_multiplicity
 _atom_site_fract_x
 _atom_site_fract_y
 _atom_site_fract_z
 _atom_site_occupancy
  Ag  Ag0  1  0.22233500  0.22873500  0.52869800  1
  Ag  Ag1  1  0.52811200  0.53371800  0.22111200  1
  Ag  Ag2  1  0.77670600  0.78128400  0.47136600  1
  Ag  Ag3  1  0.47574500  0.47297200  0.77237300  1
  Te  Te0  1  0.12773400  0.12706100  0.12305400  1
  Te  Te1  1  0.87168100  0.87849500  0.87718600  1
  O  O0  1  0.15370300  0.31980500  0.25431400  1
  O  O1  1  0.77976400  0.25929400  0.31066100  1
  O  O2  1  0.25598300  0.78019900  0.15166300  1
  O  O3  1  0.31963400  0.15010700  0.77553700  1
  O  O4  1  0.68008500  0.85563000  0.22515600  1
  O  O5  1  0.74273700  0.22663400  0.85043500  1
  O  O6  1  0.22219400  0.73967500  0.68360000  1
  O  O7  1  0.84211000  0.68820400  0.74891200  1
loop_
_geom_bond_atom_site_label_1
_geom_bond_atom_site_label_2
_geom_bond_distance
_geom_bond_site_symmetry_2
Ag0 O3 2.316724 1_555
Ag0 O0 2.324839 1_555
Ag0 O4 2.484860 1_545
Ag0 O7 2.502883 1_455
Ag1 O2 2.309085 1_555
Ag1 O1 2.313993 1_555
Ag1 O6 2.487166 1_555
Ag1 O5 2.496920 1_554
Ag2 O4 2.312084 1_555
Ag2 O7 2.327227 1_555
Ag2 O3 2.474190 1_565
Ag2 O0 2.504057 1_655
Ag3 O6 2.312811 1_555
Ag3 O5 2.322761 1_555
Ag3 O1 2.499841 1_555
Ag3 O2 2.527151 1_556
O0 Te0 1.870073 1_555
O1 Te0 1.870522 1_655
O2 Te0 1.866744 1_565
O3 Te0 1.869460 1_556
O4 Te1 1.871804 1_554
O5 Te1 1.870240 1_545
O6 Te1 1.869161 1_455
O7 Te1 1.865921 1_555
