# generated using pymatgen
data_LiCoPO4
_symmetry_space_group_name_H-M   'P 1'
_cell_length_a   7.58573456
_cell_length_b   7.58573456
_cell_length_c   9.71995000
_cell_angle_alpha   90.00000000
_cell_angle_beta   90.00000000
_cell_angle_gamma   120.00000491
_symmetry_Int_Tables_number   1
_chemical_formula_structural   LiCoPO4
_chemical_formula_sum   'Li6 Co6 P6 O24'
_cell_volume   484.38415143
_cell_formula_units_Z   6
loop_
 _symmetry_equiv_pos_site_id
 _symmetry_equiv_pos_as_xyz
  1  'x, y, z'
loop_
 _atom_site_type_symbol
 _atom_site_label
 _atom_site_symmetry_multiplicity
 _atom_site_fract_x
 _atom_site_fract_y
 _atom_site_fract_z
 _atom_site_occupancy
  Li  Li0  1  0.05648800  0.59096200  0.48673200  1
  Li  Li1  1  0.53447400  0.94351200  0.48673200  1
  Li  Li2  1  0.40903800  0.46552600  0.48673200  1
  Li  Li3  1  0.46552600  0.40903800  0.98673200  1
  Li  Li4  1  0.59096200  0.05648800  0.98673200  1
  Li  Li5  1  0.94351200  0.53447400  0.98673200  1
  Co  Co0  1  0.22384100  0.94949100  0.26706800  1
  Co  Co1  1  0.05050900  0.27435000  0.26706800  1
  Co  Co2  1  0.27435000  0.05050900  0.76706800  1
  Co  Co3  1  0.72565000  0.77615900  0.26706800  1
  Co  Co4  1  0.77615900  0.72565000  0.76706800  1
  Co  Co5  1  0.94949100  0.22384100  0.76706800  1
  P  P0  1  0.33333300  0.66666700  0.18583000  1
  P  P1  1  0.00000000  0.00000000  0.00106400  1
  P  P2  1  0.00000000  0.00000000  0.50106400  1
  P  P3  1  0.33333300  0.66666700  0.76997200  1
  P  P4  1  0.66666700  0.33333300  0.68583000  1
  P  P5  1  0.66666700  0.33333300  0.26997200  1
  O  O0  1  0.08546300  0.86495200  0.44927400  1
  O  O1  1  0.19076100  0.74443700  0.13104900  1
  O  O2  1  0.37689400  0.87646200  0.82854800  1
  O  O3  1  0.12353800  0.50043300  0.82854800  1
  O  O4  1  0.25556300  0.44632400  0.13104900  1
  O  O5  1  0.33333300  0.66666700  0.34430900  1
  O  O6  1  0.00000000  0.00000000  0.16588800  1
  O  O7  1  0.00000000  0.00000000  0.66588800  1
  O  O8  1  0.33333300  0.66666700  0.61201700  1
  O  O9  1  0.13504800  0.22051100  0.44927400  1
  O  O10  1  0.22051100  0.13504800  0.94927400  1
  O  O11  1  0.55367600  0.80923900  0.13104900  1
  O  O12  1  0.49956700  0.62310600  0.82854800  1
  O  O13  1  0.77948900  0.91453700  0.44927400  1
  O  O14  1  0.44632400  0.25556300  0.63104900  1
  O  O15  1  0.50043300  0.12353800  0.32854800  1
  O  O16  1  0.62310600  0.49956700  0.32854800  1
  O  O17  1  0.80923900  0.55367600  0.63104900  1
  O  O18  1  0.66666700  0.33333300  0.84430900  1
  O  O19  1  0.66666700  0.33333300  0.11201700  1
  O  O20  1  0.91453700  0.77948900  0.94927400  1
  O  O21  1  0.74443700  0.19076100  0.63104900  1
  O  O22  1  0.87646200  0.37689400  0.32854800  1
  O  O23  1  0.86495200  0.08546300  0.94927400  1
loop_
_geom_bond_atom_site_label_1
_geom_bond_atom_site_label_2
_geom_bond_distance
_geom_bond_site_symmetry_2
Li0 O0 2.010934 1_555
Li0 O22 2.155994 1_455
Li0 O8 2.239871 1_555
Li0 O17 2.243875 1_455
Li0 O5 2.334627 1_555
Li1 O13 2.010934 1_555
Li1 O15 2.155991 1_565
Li1 O8 2.239873 1_555
Li1 O21 2.243875 1_565
Li1 O5 2.334629 1_555
Li2 O9 2.010933 1_555
Li2 O16 2.155996 1_555
Li2 O8 2.239878 1_555
Li2 O14 2.243875 1_555
Li2 O5 2.334633 1_555
Li3 O10 2.010933 1_555
Li3 O12 2.155996 1_555
Li3 O19 2.239878 1_556
Li3 O4 2.243875 1_556
Li3 O18 2.334633 1_555
Li4 O23 2.010934 1_555
Li4 O2 2.155994 1_545
Li4 O19 2.239871 1_556
Li4 O11 2.243875 1_546
Li4 O18 2.334627 1_555
Li5 O20 2.010934 1_555
Li5 O3 2.155991 1_655
Li5 O19 2.239873 1_556
Li5 O1 2.243875 1_656
Li5 O18 2.334629 1_555
Co0 O15 1.931926 1_565
Co0 O1 1.959622 1_555
Co0 O0 1.994121 1_555
Co0 O6 2.155873 1_565
Co1 O22 1.931921 1_455
Co1 O4 1.959622 1_555
Co1 O9 1.994121 1_555
Co1 O6 2.155873 1_555
Co2 O2 1.931921 1_545
Co2 O14 1.959622 1_555
Co2 O10 1.994121 1_555
Co2 O7 2.155873 1_555
Co3 O16 1.931927 1_555
Co3 O11 1.959622 1_555
Co3 O13 1.994121 1_555
Co3 O6 2.155873 1_665
Co4 O12 1.931927 1_555
Co4 O17 1.959622 1_555
Co4 O20 1.994121 1_555
Co4 O7 2.155873 1_665
Co5 O3 1.931926 1_655
Co5 O21 1.959622 1_555
Co5 O23 1.994121 1_555
Co5 O7 2.155873 1_655
O0 P2 1.545094 1_565
O1 P0 1.561812 1_555
O2 P3 1.562110 1_555
O3 P3 1.562110 1_555
O4 P0 1.561819 1_555
O5 P0 1.540408 1_555
O6 P1 1.602081 1_555
O7 P2 1.602081 1_555
O8 P3 1.535315 1_555
O9 P2 1.545094 1_555
O10 P1 1.545094 1_556
O11 P0 1.561817 1_555
O12 P3 1.562110 1_555
O13 P2 1.545094 1_665
O14 P4 1.561819 1_555
O15 P5 1.562110 1_555
O16 P5 1.562110 1_555
O17 P4 1.561817 1_555
O18 P4 1.540408 1_555
O19 P5 1.535315 1_555
O20 P1 1.545094 1_666
O21 P4 1.561812 1_555
O22 P5 1.562110 1_555
O23 P1 1.545094 1_656
