# generated using pymatgen
data_LiV2OF5
_symmetry_space_group_name_H-M   'P 1'
_cell_length_a   5.16717300
_cell_length_b   5.49264081
_cell_length_c   11.90728396
_cell_angle_alpha   98.54545628
_cell_angle_beta   102.47850731
_cell_angle_gamma   90.56895724
_symmetry_Int_Tables_number   1
_chemical_formula_structural   LiV2OF5
_chemical_formula_sum   'Li3 V6 O3 F15'
_cell_volume   325.98989279
_cell_formula_units_Z   3
loop_
 _symmetry_equiv_pos_site_id
 _symmetry_equiv_pos_as_xyz
  1  'x, y, z'
loop_
 _atom_site_type_symbol
 _atom_site_label
 _atom_site_symmetry_multiplicity
 _atom_site_fract_x
 _atom_site_fract_y
 _atom_site_fract_z
 _atom_site_occupancy
  Li  Li0  1  0.40914200  0.98849100  0.84844200  1
  Li  Li1  1  0.73454700  0.19595200  0.48344600  1
  Li  Li2  1  0.60567900  0.15980800  0.18319300  1
  V  V0  1  0.32121600  0.32256100  0.66871800  1
  V  V1  1  0.18368400  0.17772700  0.33473300  1
  V  V2  1  0.65492700  0.65206400  0.33606300  1
  V  V3  1  0.84981400  0.84041800  0.66931500  1
  V  V4  1  0.51545600  0.49043800  0.00122300  1
  V  V5  1  0.98279500  0.01278600  0.00247800  1
  O  O0  1  0.15658300  0.04814500  0.70434000  1
  O  O1  1  0.49881900  0.37007400  0.36905800  1
  O  O2  1  0.70731400  0.21092800  0.03705000  1
  F  F0  1  0.18069000  0.26918600  0.95205700  1
  F  F1  1  0.05074000  0.55333600  0.71143900  1
  F  F2  1  0.29341500  0.79427300  0.95867600  1
  F  F3  1  0.10673400  0.26126100  0.49829900  1
  F  F4  1  0.22841100  0.08156000  0.16698900  1
  F  F5  1  0.53572700  0.40845300  0.83414000  1
  F  F6  1  0.52082800  0.61089600  0.63096600  1
  F  F7  1  0.38193600  0.88996900  0.38021900  1
  F  F8  1  0.62023600  0.11892900  0.61802900  1
  F  F9  1  0.47029100  0.58092400  0.16702100  1
  F  F10  1  0.77004900  0.91531900  0.83367900  1
  F  F11  1  0.86613000  0.76316000  0.49568400  1
  F  F12  1  0.82749300  0.96515000  0.29535700  1
  F  F13  1  0.83543500  0.72123100  0.04623800  1
  F  F14  1  0.93694600  0.43192600  0.28375700  1
loop_
_geom_bond_atom_site_label_1
_geom_bond_atom_site_label_2
_geom_bond_distance
_geom_bond_site_symmetry_2
Li0 O0 1.990607 1_565
Li0 O2 2.561647 1_566
Li1 O1 1.986660 1_555
Li2 O2 1.979906 1_555
Li2 O1 2.513540 1_555
O0 V0 1.869734 1_555
O0 V3 1.877594 1_445
O1 V1 1.866727 1_555
O1 V2 1.870027 1_555
O2 V5 1.879093 1_555
O2 V4 1.887825 1_555
F0 V5 1.969113 1_456
F0 V4 2.030015 1_556
F0 Li0 2.322261 1_545
F1 V3 1.964287 1_455
F1 V0 1.992373 1_555
F2 Li0 1.990257 1_555
F2 V4 2.096712 1_556
F2 V5 2.121941 1_466
F3 Li1 1.918057 1_455
F3 V1 2.057808 1_555
F3 V0 2.068105 1_555
F4 Li2 1.954051 1_555
F4 V1 2.051900 1_555
F4 V5 2.070467 1_455
F5 V4 1.999156 1_556
F5 V0 2.025076 1_555
F5 Li0 2.431587 1_545
F6 V3 2.034328 1_555
F6 V0 2.038035 1_555
F7 V1 1.971721 1_565
F7 V2 2.031422 1_555
F7 Li1 2.452054 1_565
F8 Li1 1.923927 1_555
F8 V3 2.030010 1_545
F8 V0 2.058952 1_555
F9 V2 2.010812 1_555
F9 V4 2.027010 1_555
F9 Li2 2.446002 1_555
F10 Li0 1.950826 1_555
F10 V5 2.061212 1_566
F10 V3 2.069336 1_555
F11 V2 1.980290 1_555
F11 V3 2.068074 1_555
F11 Li1 2.495333 1_565
F12 Li2 2.006929 1_565
F12 V2 2.095546 1_555
F12 V1 2.095780 1_665
F13 V5 1.952183 1_565
F13 V4 2.000356 1_555
F14 V1 1.973862 1_655
F14 V2 2.043742 1_555
F14 Li2 2.264804 1_555
