# generated using pymatgen
data_V2NiP2H6O13
_symmetry_space_group_name_H-M   'P 1'
_cell_length_a   9.55650700
_cell_length_b   10.61960700
_cell_length_c   10.62382300
_cell_angle_alpha   90.00000000
_cell_angle_beta   90.00000000
_cell_angle_gamma   90.00000000
_symmetry_Int_Tables_number   1
_chemical_formula_structural   V2NiP2H6O13
_chemical_formula_sum   'V8 Ni4 P8 H24 O52'
_cell_volume   1078.17300479
_cell_formula_units_Z   4
loop_
 _symmetry_equiv_pos_site_id
 _symmetry_equiv_pos_as_xyz
  1  'x, y, z'
loop_
 _atom_site_type_symbol
 _atom_site_label
 _atom_site_symmetry_multiplicity
 _atom_site_fract_x
 _atom_site_fract_y
 _atom_site_fract_z
 _atom_site_occupancy
  V  V0  1  0.25000000  0.18602500  0.67614800  1
  V  V1  1  0.25000000  0.31397500  0.17614800  1
  V  V2  1  0.75000000  0.81397500  0.32385200  1
  V  V3  1  0.75000000  0.68602500  0.82385200  1
  V  V4  1  0.25000000  0.91183300  0.48554300  1
  V  V5  1  0.25000000  0.58816700  0.98554300  1
  V  V6  1  0.75000000  0.08816700  0.51445700  1
  V  V7  1  0.75000000  0.41183300  0.01445700  1
  Ni  Ni0  1  0.25000000  0.85727900  0.74365600  1
  Ni  Ni1  1  0.25000000  0.64272100  0.24365600  1
  Ni  Ni2  1  0.75000000  0.14272100  0.25634400  1
  Ni  Ni3  1  0.75000000  0.35727900  0.75634400  1
  P  P0  1  0.55616600  0.80872800  0.58618000  1
  P  P1  1  0.94383400  0.69127200  0.08618000  1
  P  P2  1  0.05616600  0.19127200  0.41382000  1
  P  P3  1  0.44383400  0.30872800  0.91382000  1
  P  P4  1  0.44383400  0.19127200  0.41382000  1
  P  P5  1  0.05616600  0.30872800  0.91382000  1
  P  P6  1  0.94383400  0.80872800  0.58618000  1
  P  P7  1  0.55616600  0.69127200  0.08618000  1
  H  H0  1  0.60447000  0.89870700  0.93137400  1
  H  H1  1  0.89553000  0.60129300  0.43137400  1
  H  H2  1  0.10447000  0.10129300  0.06862600  1
  H  H3  1  0.39553000  0.39870700  0.56862600  1
  H  H4  1  0.39553000  0.10129300  0.06862600  1
  H  H5  1  0.10447000  0.39870700  0.56862600  1
  H  H6  1  0.89553000  0.89870700  0.93137400  1
  H  H7  1  0.60447000  0.60129300  0.43137400  1
  H  H8  1  0.71057100  0.10128100  0.74011800  1
  H  H9  1  0.78942900  0.39871900  0.24011800  1
  H  H10  1  0.21057100  0.89871900  0.25988200  1
  H  H11  1  0.28942900  0.60128100  0.75988200  1
  H  H12  1  0.28942900  0.89871900  0.25988200  1
  H  H13  1  0.21057100  0.60128100  0.75988200  1
  H  H14  1  0.78942900  0.10128100  0.74011800  1
  H  H15  1  0.71057100  0.39871900  0.24011800  1
  H  H16  1  0.25000000  0.07400200  0.37729400  1
  H  H17  1  0.25000000  0.42599800  0.87729400  1
  H  H18  1  0.75000000  0.92599800  0.62270600  1
  H  H19  1  0.75000000  0.57400200  0.12270600  1
  H  H20  1  0.25000000  0.82931800  0.96827200  1
  H  H21  1  0.25000000  0.67068200  0.46827200  1
  H  H22  1  0.75000000  0.17068200  0.03172800  1
  H  H23  1  0.75000000  0.32931800  0.53172800  1
  O  O0  1  0.37409900  0.05538600  0.39733500  1
  O  O1  1  0.12590100  0.44461400  0.89733500  1
  O  O2  1  0.87409900  0.94461400  0.60266500  1
  O  O3  1  0.62590100  0.55538600  0.10266500  1
  O  O4  1  0.62590100  0.94461400  0.60266500  1
  O  O5  1  0.87409900  0.55538600  0.10266500  1
  O  O6  1  0.12590100  0.05538600  0.39733500  1
  O  O7  1  0.37409900  0.44461400  0.89733500  1
  O  O8  1  0.39464900  0.82223300  0.59904500  1
  O  O9  1  0.10535100  0.67776700  0.09904500  1
  O  O10  1  0.89464900  0.17776700  0.40095500  1
  O  O11  1  0.60535100  0.32223300  0.90095500  1
  O  O12  1  0.60535100  0.17776700  0.40095500  1
  O  O13  1  0.89464900  0.32223300  0.90095500  1
  O  O14  1  0.10535100  0.82223300  0.59904500  1
  O  O15  1  0.39464900  0.67776700  0.09904500  1
  O  O16  1  0.59661400  0.76012500  0.45463600  1
  O  O17  1  0.90338600  0.73987500  0.95463600  1
  O  O18  1  0.09661400  0.23987500  0.54536400  1
  O  O19  1  0.40338600  0.26012500  0.04536400  1
  O  O20  1  0.40338600  0.23987500  0.54536400  1
  O  O21  1  0.09661400  0.26012500  0.04536400  1
  O  O22  1  0.90338600  0.76012500  0.45463600  1
  O  O23  1  0.59661400  0.73987500  0.95463600  1
  O  O24  1  0.25000000  0.01468900  0.64741500  1
  O  O25  1  0.25000000  0.48531100  0.14741500  1
  O  O26  1  0.75000000  0.98531100  0.35258500  1
  O  O27  1  0.75000000  0.51468900  0.85258500  1
  O  O28  1  0.25000000  0.76674700  0.89946300  1
  O  O29  1  0.25000000  0.73325300  0.39946300  1
  O  O30  1  0.75000000  0.23325300  0.10053700  1
  O  O31  1  0.75000000  0.26674700  0.60053700  1
  O  O32  1  0.60521700  0.72569900  0.69370400  1
  O  O33  1  0.89478300  0.77430100  0.19370400  1
  O  O34  1  0.10521700  0.27430100  0.30629600  1
  O  O35  1  0.39478300  0.22569900  0.80629600  1
  O  O36  1  0.39478300  0.27430100  0.30629600  1
  O  O37  1  0.10521700  0.22569900  0.80629600  1
  O  O38  1  0.89478300  0.72569900  0.69370400  1
  O  O39  1  0.60521700  0.77430100  0.19370400  1
  O  O40  1  0.12536500  0.01371300  0.09854400  1
  O  O41  1  0.37463500  0.48628700  0.59854400  1
  O  O42  1  0.62536500  0.98628700  0.90145600  1
  O  O43  1  0.87463500  0.51371300  0.40145600  1
  O  O44  1  0.87463500  0.98628700  0.90145600  1
  O  O45  1  0.62536500  0.51371300  0.40145600  1
  O  O46  1  0.37463500  0.01371300  0.09854400  1
  O  O47  1  0.12536500  0.48628700  0.59854400  1
  O  O48  1  0.25000000  0.51550200  0.52672000  1
  O  O49  1  0.25000000  0.98449800  0.02672000  1
  O  O50  1  0.75000000  0.48449800  0.47328000  1
  O  O51  1  0.75000000  0.01550200  0.97328000  1
loop_
_geom_bond_atom_site_label_1
_geom_bond_atom_site_label_2
_geom_bond_distance
_geom_bond_site_symmetry_2
Ni0 O28 1.914216 1_555
Ni0 O24 1.959529 1_565
Ni0 O8 2.099919 1_555
Ni0 O14 2.099919 1_555
Ni1 O29 1.914216 1_555
Ni1 O25 1.959529 1_555
Ni1 O9 2.099919 1_555
Ni1 O15 2.099919 1_555
Ni2 O30 1.914216 1_555
Ni2 O26 1.959529 1_545
Ni2 O10 2.099919 1_555
Ni2 O12 2.099919 1_555
Ni3 O31 1.914216 1_555
Ni3 O27 1.959529 1_555
Ni3 O11 2.099919 1_555
Ni3 O13 2.099919 1_555
H0 O42 1.002955 1_555
H0 O23 1.706394 1_555
H1 O43 1.002955 1_555
H1 O22 1.706394 1_555
H2 O40 1.002955 1_555
H2 O21 1.706394 1_555
H3 O41 1.002955 1_555
H3 O20 1.706394 1_555
H4 O46 1.002955 1_555
H4 O19 1.706394 1_555
H5 O47 1.002955 1_555
H5 O18 1.706394 1_555
H6 O44 1.002955 1_555
H6 O17 1.706394 1_555
H7 O45 1.002955 1_555
H7 O16 1.706394 1_555
H10 H12 0.753607 1_555
H11 H13 0.753607 1_555
H14 H8 0.753607 1_555
H15 H9 0.753607 1_555
H16 O6 1.221024 1_555
H16 O0 1.221024 1_555
H16 V4 2.070849 1_545
H17 O1 1.221024 1_555
H17 O7 1.221024 1_555
H17 V5 2.070849 1_555
H18 O2 1.221024 1_555
H18 O4 1.221024 1_555
H18 V6 2.070849 1_565
H19 O5 1.221024 1_555
H19 O3 1.221024 1_555
H19 V7 2.070849 1_555
H20 O28 0.987884 1_555
H20 O49 1.761053 1_556
H21 O29 0.987884 1_555
H21 O48 1.761053 1_555
H22 O30 0.987884 1_555
H22 O51 1.761053 1_554
H23 O31 0.987884 1_555
H23 O50 1.761053 1_555
O0 P4 1.599125 1_555
O0 V4 2.146784 1_545
O1 P5 1.599125 1_555
O1 V5 2.146784 1_555
O2 P6 1.599125 1_555
O2 V6 2.146784 1_565
O3 P7 1.599125 1_555
O3 V7 2.146784 1_555
O4 P0 1.599125 1_555
O4 V6 2.146784 1_565
O5 P1 1.599125 1_555
O5 V7 2.146784 1_555
O6 P2 1.599125 1_555
O6 V4 2.146784 1_545
O7 P3 1.599125 1_555
O7 V5 2.146784 1_555
O8 P0 1.556200 1_555
O8 V4 2.066461 1_555
O9 P1 1.556200 1_455
O9 V5 2.066461 1_554
O10 P2 1.556200 1_655
O10 V6 2.066461 1_555
O11 P3 1.556200 1_555
O11 V7 2.066461 1_556
O12 P4 1.556200 1_555
O12 V6 2.066461 1_555
O13 P5 1.556200 1_655
O13 V7 2.066461 1_556
O14 P6 1.556200 1_455
O14 V4 2.066461 1_555
O15 P7 1.556200 1_555
O15 V5 2.066461 1_554
O16 P0 1.539099 1_555
O16 V2 2.099096 1_555
O17 P1 1.539099 1_556
O17 V3 2.099096 1_555
O18 P2 1.539099 1_555
O18 V0 2.099096 1_555
O19 P3 1.539099 1_554
O19 V1 2.099096 1_555
O20 P4 1.539099 1_555
O20 V0 2.099096 1_555
O21 P5 1.539099 1_554
O21 V1 2.099096 1_555
O22 P6 1.539099 1_555
O22 V2 2.099096 1_555
O23 P7 1.539099 1_556
O23 V3 2.099096 1_555
O24 V0 1.844949 1_555
O24 V4 2.037269 1_545
O25 V1 1.844949 1_555
O25 V5 2.037269 1_554
O26 V2 1.844949 1_555
O26 V6 2.037269 1_565
O27 V3 1.844949 1_555
O27 V7 2.037269 1_556
O28 V5 2.105428 1_555
O29 V4 2.105428 1_555
O30 V7 2.105428 1_555
O31 V6 2.105428 1_555
O32 P0 1.517259 1_555
O32 V3 2.000922 1_555
O33 P1 1.517259 1_555
O33 V2 2.000922 1_555
O34 P2 1.517259 1_555
O34 V1 2.000922 1_555
O35 P3 1.517259 1_555
O35 V0 2.000922 1_555
O36 P4 1.517259 1_555
O36 V1 2.000922 1_555
O37 P5 1.517259 1_555
O37 V0 2.000922 1_555
O38 P6 1.517259 1_555
O38 V3 2.000922 1_555
O39 P7 1.517259 1_555
O39 V2 2.000922 1_555
O40 O49 1.448156 1_545
O41 O48 1.448156 1_555
O42 O51 1.448156 1_565
O43 O50 1.448156 1_555
O44 O51 1.448156 1_565
O45 O50 1.448156 1_555
O46 O49 1.448156 1_545
O47 O48 1.448156 1_555
