# generated using pymatgen
data_LiFe2(BO3)2
_symmetry_space_group_name_H-M   'P 1'
_cell_length_a   5.19722269
_cell_length_b   5.19722269
_cell_length_c   9.77553563
_cell_angle_alpha   90.79041099
_cell_angle_beta   90.79041099
_cell_angle_gamma   120.26837591
_symmetry_Int_Tables_number   1
_chemical_formula_structural   LiFe2(BO3)2
_chemical_formula_sum   'Li2 Fe4 B4 O12'
_cell_volume   227.96401646
_cell_formula_units_Z   2
loop_
 _symmetry_equiv_pos_site_id
 _symmetry_equiv_pos_as_xyz
  1  'x, y, z'
loop_
 _atom_site_type_symbol
 _atom_site_label
 _atom_site_symmetry_multiplicity
 _atom_site_fract_x
 _atom_site_fract_y
 _atom_site_fract_z
 _atom_site_occupancy
  Li  Li0  1  0.84159659  0.86371014  0.16547475  1
  Li  Li1  1  0.86371014  0.84159659  0.66547475  1
  Fe  Fe0  1  0.48370676  0.81647966  0.87656826  1
  Fe  Fe1  1  0.81647966  0.48370676  0.37656826  1
  Fe  Fe2  1  0.18986984  0.50355373  0.63275147  1
  Fe  Fe3  1  0.50355373  0.18986984  0.13275147  1
  B  B0  1  0.82054113  0.48690932  0.87555993  1
  B  B1  1  0.48690932  0.82054113  0.37555993  1
  B  B2  1  0.50934138  0.17449346  0.62762758  1
  B  B3  1  0.17449346  0.50934138  0.12762758  1
  O  O0  1  0.73117155  0.79315900  0.35923801  1
  O  O1  1  0.92705011  0.53117473  0.16433184  1
  O  O2  1  0.53117473  0.92705011  0.66433184  1
  O  O3  1  0.43141652  0.76692838  0.08950252  1
  O  O4  1  0.76692838  0.43141652  0.58950252  1
  O  O5  1  0.16645197  0.24464311  0.13188934  1
  O  O6  1  0.79315900  0.73117155  0.85923801  1
  O  O7  1  0.22708233  0.59776045  0.42799138  1
  O  O8  1  0.59776045  0.22708233  0.92799138  1
  O  O9  1  0.50127954  0.08193028  0.33393893  1
  O  O10  1  0.08193028  0.50127954  0.83393893  1
  O  O11  1  0.24464311  0.16645197  0.63188934  1
loop_
_geom_bond_atom_site_label_1
_geom_bond_atom_site_label_2
_geom_bond_distance
_geom_bond_site_symmetry_2
Li0 O5 1.881875 1_665
Li0 O0 1.971951 1_555
Li0 O1 1.989380 1_555
Li0 O3 2.052842 1_555
Li1 O11 1.881875 1_665
Li1 O6 1.971951 1_555
Li1 O2 1.989380 1_555
Li1 O4 2.052842 1_555
Fe0 O6 1.880468 1_555
Fe0 O10 1.930350 1_555
Fe0 O8 1.960861 1_565
Fe0 O3 2.105435 1_556
Fe0 O2 2.144685 1_555
Fe1 O0 1.880468 1_555
Fe1 O9 1.930350 1_555
Fe1 O7 1.960861 1_655
Fe1 O4 2.105435 1_555
Fe1 O1 2.144685 1_555
Fe2 O11 1.911289 1_555
Fe2 O2 2.028920 1_555
Fe2 O10 2.051149 1_555
Fe2 O7 2.055711 1_555
Fe2 O4 2.071291 1_455
Fe3 O5 1.911289 1_555
Fe3 O1 2.028920 1_555
Fe3 O9 2.051149 1_555
Fe3 O8 2.055711 1_554
Fe3 O3 2.071291 1_545
B0 O6 1.358083 1_555
B0 O8 1.373353 1_555
B0 O10 1.389403 1_655
B1 O0 1.358083 1_555
B1 O7 1.373353 1_555
B1 O9 1.389403 1_565
B2 O11 1.356352 1_555
B2 O4 1.392667 1_555
B2 O2 1.397919 1_545
B3 O5 1.356352 1_555
B3 O3 1.392667 1_555
B3 O1 1.397919 1_455
