# generated using pymatgen
data_V3(PO4)2
_symmetry_space_group_name_H-M   'P 1'
_cell_length_a   8.79027948
_cell_length_b   9.34978818
_cell_length_c   9.70916881
_cell_angle_alpha   116.71194950
_cell_angle_beta   92.42121008
_cell_angle_gamma   113.47214649
_symmetry_Int_Tables_number   1
_chemical_formula_structural   V3(PO4)2
_chemical_formula_sum   'V12 P8 O32'
_cell_volume   629.53079964
_cell_formula_units_Z   4
loop_
 _symmetry_equiv_pos_site_id
 _symmetry_equiv_pos_as_xyz
  1  'x, y, z'
loop_
 _atom_site_type_symbol
 _atom_site_label
 _atom_site_symmetry_multiplicity
 _atom_site_fract_x
 _atom_site_fract_y
 _atom_site_fract_z
 _atom_site_occupancy
  V  V0  1  0.00152900  0.26826900  0.53462500  1
  V  V1  1  0.06983900  0.33979700  0.89229800  1
  V  V2  1  0.11451900  0.18877100  0.16224300  1
  V  V3  1  0.40312200  0.80072200  0.32361600  1
  V  V4  1  0.51885600  0.89289900  0.82568200  1
  V  V5  1  0.39833700  0.47590300  0.73758100  1
  V  V6  1  0.60166300  0.52409700  0.26241900  1
  V  V7  1  0.48114400  0.10710100  0.17431800  1
  V  V8  1  0.59687800  0.19927800  0.67638400  1
  V  V9  1  0.88548100  0.81122900  0.83775700  1
  V  V10  1  0.93016100  0.66020300  0.10770200  1
  V  V11  1  0.99847100  0.73173100  0.46537500  1
  P  P0  1  0.17565100  0.68489700  0.93190200  1
  P  P1  1  0.27477700  0.56312200  0.44991400  1
  P  P2  1  0.23626000  0.06392100  0.39785200  1
  P  P3  1  0.31658300  0.17089000  0.90376100  1
  P  P4  1  0.68341700  0.82911000  0.09623900  1
  P  P5  1  0.76374000  0.93607800  0.60214800  1
  P  P6  1  0.72522300  0.43687800  0.55008600  1
  P  P7  1  0.82434900  0.31510300  0.06809800  1
  O  O0  1  0.07217600  0.88305700  0.34623200  1
  O  O1  1  0.00525000  0.69455100  0.91596700  1
  O  O2  1  0.22653500  0.70902200  0.45765800  1
  O  O3  1  0.19016200  0.65673500  0.07993800  1
  O  O4  1  0.16132300  0.50660000  0.78415500  1
  O  O5  1  0.32605100  0.85346700  0.95073000  1
  O  O6  1  0.11017100  0.38082500  0.39385000  1
  O  O7  1  0.13165800  0.04424000  0.89797100  1
  O  O8  1  0.38640100  0.62534500  0.61250300  1
  O  O9  1  0.22150700  0.22224800  0.53513500  1
  O  O10  1  0.36902500  0.53421900  0.31352000  1
  O  O11  1  0.30855400  0.32021900  0.87550500  1
  O  O12  1  0.60049500  0.94372000  0.54742200  1
  O  O13  1  0.59569300  0.92502300  0.21427200  1
  O  O14  1  0.24905700  0.08476700  0.24848100  1
  O  O15  1  0.57911300  0.74048600  0.91904400  1
  O  O16  1  0.42088700  0.25951400  0.08095600  1
  O  O17  1  0.75094300  0.91523300  0.75151900  1
  O  O18  1  0.40430700  0.07497700  0.78572800  1
  O  O19  1  0.39950500  0.05628000  0.45257800  1
  O  O20  1  0.69144600  0.67978100  0.12449500  1
  O  O21  1  0.63097500  0.46578100  0.68648000  1
  O  O22  1  0.77849300  0.77775200  0.46486500  1
  O  O23  1  0.61359900  0.37465500  0.38749700  1
  O  O24  1  0.86834200  0.95576000  0.10202900  1
  O  O25  1  0.88982900  0.61917500  0.60615000  1
  O  O26  1  0.67394900  0.14653300  0.04927000  1
  O  O27  1  0.83867700  0.49340000  0.21584500  1
  O  O28  1  0.80983800  0.34326500  0.92006200  1
  O  O29  1  0.77346500  0.29097800  0.54234100  1
  O  O30  1  0.99475000  0.30544900  0.08403300  1
  O  O31  1  0.92782400  0.11694300  0.65376800  1
loop_
_geom_bond_atom_site_label_1
_geom_bond_atom_site_label_2
_geom_bond_distance
_geom_bond_site_symmetry_2
O0 P2 1.557298 1_565
O0 V11 2.136408 1_455
O0 V10 2.146833 1_455
O1 P0 1.541552 1_555
O1 V9 2.113577 1_455
O1 V10 2.115830 1_456
O2 P1 1.554878 1_555
O2 V11 2.099327 1_455
O2 V3 2.225299 1_555
O3 P0 1.582072 1_554
O3 V10 2.323870 1_455
O3 V3 2.380968 1_555
O3 V1 2.388710 1_554
O4 P0 1.587542 1_555
O4 V1 2.173896 1_555
O4 V5 2.250945 1_555
O4 V0 2.274589 1_555
O5 P0 1.525126 1_555
O5 V4 2.135624 1_555
O5 V7 2.177448 1_566
O6 P1 1.558779 1_555
O6 V0 2.119077 1_555
O6 V2 2.171259 1_555
O7 P3 1.564231 1_555
O7 V9 2.182515 1_445
O7 V2 2.347363 1_556
O8 P1 1.543363 1_555
O8 V4 2.172296 1_555
O8 V5 2.251572 1_555
O9 P2 1.542231 1_555
O9 V5 2.125702 1_555
O9 V0 2.141997 1_555
O10 P1 1.569203 1_555
O10 V6 2.152820 1_555
O10 V3 2.343341 1_555
O10 V2 2.701056 1_555
O11 P3 1.565509 1_555
O11 V1 2.184333 1_555
O11 V5 2.336983 1_555
O12 P5 1.548533 1_555
O12 V8 2.156919 1_565
O12 V3 2.177436 1_555
O13 P4 1.553626 1_555
O13 V3 2.244342 1_555
O13 V7 2.447185 1_565
O14 P2 1.550599 1_555
O14 V2 2.147017 1_555
O14 V7 2.155011 1_555
O15 P4 1.570667 1_556
O15 V5 2.112485 1_555
O15 V4 2.203396 1_555
O15 V9 2.746426 1_555
O16 P3 1.570667 1_554
O16 V6 2.112485 1_555
O16 V7 2.203396 1_555
O16 V2 2.746426 1_555
O17 P5 1.550594 1_555
O17 V9 2.147017 1_555
O17 V4 2.155011 1_555
O18 P3 1.553626 1_555
O18 V8 2.244342 1_555
O18 V4 2.447185 1_545
O19 P2 1.548528 1_555
O19 V3 2.156919 1_545
O19 V8 2.177436 1_555
O20 P4 1.565509 1_555
O20 V10 2.184333 1_555
O20 V6 2.336983 1_555
O21 P6 1.569203 1_555
O21 V5 2.152820 1_555
O21 V8 2.343341 1_555
O21 V9 2.701056 1_555
O22 P5 1.542225 1_555
O22 V6 2.125702 1_555
O22 V11 2.141997 1_555
O23 P6 1.543363 1_555
O23 V7 2.172296 1_555
O23 V6 2.251572 1_555
O24 P4 1.564231 1_555
O24 V2 2.182515 1_665
O24 V9 2.347363 1_554
O25 P6 1.558779 1_555
O25 V11 2.119077 1_555
O25 V9 2.171259 1_555
O26 P7 1.525126 1_555
O26 V7 2.135624 1_555
O26 V4 2.177448 1_544
O27 P7 1.587542 1_555
O27 V10 2.173896 1_555
O27 V6 2.250945 1_555
O27 V11 2.274589 1_555
O28 P7 1.582072 1_556
O28 V1 2.323870 1_655
O28 V8 2.380968 1_555
O28 V10 2.388710 1_556
O29 P6 1.554875 1_555
O29 V0 2.099327 1_655
O29 V8 2.225306 1_555
O30 P7 1.541552 1_555
O30 V2 2.113577 1_655
O30 V1 2.115830 1_654
O31 P5 1.557303 1_545
O31 V0 2.136408 1_655
O31 V1 2.146833 1_655
