# generated using pymatgen
data_Li5Mn3F14
_symmetry_space_group_name_H-M   'P 1'
_cell_length_a   7.42361300
_cell_length_b   11.27774600
_cell_length_c   12.57355600
_cell_angle_alpha   90.00000000
_cell_angle_beta   90.00000000
_cell_angle_gamma   90.00000000
_symmetry_Int_Tables_number   1
_chemical_formula_structural   Li5Mn3F14
_chemical_formula_sum   'Li20 Mn12 F56'
_cell_volume   1052.67850032
_cell_formula_units_Z   4
loop_
 _symmetry_equiv_pos_site_id
 _symmetry_equiv_pos_as_xyz
  1  'x, y, z'
loop_
 _atom_site_type_symbol
 _atom_site_label
 _atom_site_symmetry_multiplicity
 _atom_site_fract_x
 _atom_site_fract_y
 _atom_site_fract_z
 _atom_site_occupancy
  Li  Li0  1  0.01046200  0.01022900  0.00837300  1
  Li  Li1  1  0.79977700  0.08906600  0.26385100  1
  Li  Li2  1  0.31960300  0.08736100  0.26772600  1
  Li  Li3  1  0.76350700  0.23985100  0.03091400  1
  Li  Li4  1  0.79139500  0.22656600  0.48520700  1
  Li  Li5  1  0.29139500  0.27343400  0.98520700  1
  Li  Li6  1  0.26350700  0.26014900  0.53091400  1
  Li  Li7  1  0.81960300  0.41263900  0.76772600  1
  Li  Li8  1  0.29977700  0.41093400  0.76385100  1
  Li  Li9  1  0.51046200  0.48977100  0.50837300  1
  Li  Li10  1  0.48953800  0.51022900  0.00837300  1
  Li  Li11  1  0.70022300  0.58906600  0.26385100  1
  Li  Li12  1  0.18039700  0.58736100  0.26772600  1
  Li  Li13  1  0.73649300  0.73985100  0.03091400  1
  Li  Li14  1  0.70860500  0.72656600  0.48520700  1
  Li  Li15  1  0.20860500  0.77343400  0.98520700  1
  Li  Li16  1  0.23649300  0.76014900  0.53091400  1
  Li  Li17  1  0.68039700  0.91263900  0.76772600  1
  Li  Li18  1  0.20022300  0.91093400  0.76385100  1
  Li  Li19  1  0.98953800  0.98977100  0.50837300  1
  Mn  Mn0  1  0.50411400  0.99993900  0.49571000  1
  Mn  Mn1  1  0.99969500  0.15442600  0.75087400  1
  Mn  Mn2  1  0.49994900  0.17792600  0.74691400  1
  Mn  Mn3  1  0.99994900  0.32207400  0.24691400  1
  Mn  Mn4  1  0.49969500  0.34557400  0.25087400  1
  Mn  Mn5  1  0.00411400  0.50006100  0.99571000  1
  Mn  Mn6  1  0.99588600  0.49993900  0.49571000  1
  Mn  Mn7  1  0.50030500  0.65442600  0.75087400  1
  Mn  Mn8  1  0.00005100  0.67792600  0.74691400  1
  Mn  Mn9  1  0.50005100  0.82207400  0.24691400  1
  Mn  Mn10  1  0.00030500  0.84557400  0.25087400  1
  Mn  Mn11  1  0.49588600  0.00006100  0.99571000  1
  F  F0  1  0.91946800  0.99672200  0.75053900  1
  F  F1  1  0.72050200  0.06962400  0.44239600  1
  F  F2  1  0.70905900  0.07476700  0.04317600  1
  F  F3  1  0.57605000  0.05703000  0.84298500  1
  F  F4  1  0.58177500  0.07645100  0.63931700  1
  F  F5  1  0.35916500  0.13045300  0.45584300  1
  F  F6  1  0.35018600  0.12622600  0.04034200  1
  F  F7  1  0.25645500  0.08147600  0.74387300  1
  F  F8  1  0.01349700  0.14309000  0.90668100  1
  F  F9  1  0.00386300  0.14522200  0.59020100  1
  F  F10  1  0.58198500  0.18690300  0.24964800  1
  F  F11  1  0.93054400  0.21880600  0.35665100  1
  F  F12  1  0.92481600  0.20669400  0.14746900  1
  F  F13  1  0.75714400  0.24814200  0.75258600  1
  F  F14  1  0.25714400  0.25185800  0.25258600  1
  F  F15  1  0.42481600  0.29330600  0.64746900  1
  F  F16  1  0.43054400  0.28119400  0.85665100  1
  F  F17  1  0.08198500  0.31309700  0.74964800  1
  F  F18  1  0.50386300  0.35477800  0.09020100  1
  F  F19  1  0.51349700  0.35691000  0.40668100  1
  F  F20  1  0.85018600  0.37377400  0.54034200  1
  F  F21  1  0.75645500  0.41852400  0.24387300  1
  F  F22  1  0.85916500  0.36954700  0.95584300  1
  F  F23  1  0.08177500  0.42354900  0.13931700  1
  F  F24  1  0.07605000  0.44297000  0.34298500  1
  F  F25  1  0.20905900  0.42523300  0.54317600  1
  F  F26  1  0.22050200  0.43037600  0.94239600  1
  F  F27  1  0.41946800  0.50327800  0.25053900  1
  F  F28  1  0.58053200  0.49672200  0.75053900  1
  F  F29  1  0.77949800  0.56962400  0.44239600  1
  F  F30  1  0.79094100  0.57476700  0.04317600  1
  F  F31  1  0.92395000  0.55703000  0.84298500  1
  F  F32  1  0.91822500  0.57645100  0.63931700  1
  F  F33  1  0.14083500  0.63045300  0.45584300  1
  F  F34  1  0.14981400  0.62622600  0.04034200  1
  F  F35  1  0.24354500  0.58147600  0.74387300  1
  F  F36  1  0.48650300  0.64309000  0.90668100  1
  F  F37  1  0.49613700  0.64522200  0.59020100  1
  F  F38  1  0.91801500  0.68690300  0.24964800  1
  F  F39  1  0.56945600  0.71880600  0.35665100  1
  F  F40  1  0.57518400  0.70669400  0.14746900  1
  F  F41  1  0.74285600  0.74814200  0.75258600  1
  F  F42  1  0.24285600  0.75185800  0.25258600  1
  F  F43  1  0.07518400  0.79330600  0.64746900  1
  F  F44  1  0.06945600  0.78119400  0.85665100  1
  F  F45  1  0.41801500  0.81309700  0.74964800  1
  F  F46  1  0.99613700  0.85477800  0.09020100  1
  F  F47  1  0.98650300  0.85691000  0.40668100  1
  F  F48  1  0.64981400  0.87377400  0.54034200  1
  F  F49  1  0.74354500  0.91852400  0.24387300  1
  F  F50  1  0.64083500  0.86954700  0.95584300  1
  F  F51  1  0.41822500  0.92354900  0.13931700  1
  F  F52  1  0.42395000  0.94297000  0.34298500  1
  F  F53  1  0.29094100  0.92523300  0.54317600  1
  F  F54  1  0.27949800  0.93037600  0.94239600  1
  F  F55  1  0.08053200  0.00327800  0.25053900  1
loop_
_geom_bond_atom_site_label_1
_geom_bond_atom_site_label_2
_geom_bond_distance
_geom_bond_site_symmetry_2
F0 Mn1 1.875620 1_565
F0 Li17 2.023789 1_555
F0 Li18 2.303914 1_655
F1 Mn0 1.909829 1_545
F1 Li4 1.923397 1_555
F1 Li1 2.331136 1_555
F1 Li19 2.342664 1_545
F2 Mn11 1.889543 1_554
F2 Li3 1.911376 1_555
F2 Li0 2.393251 1_655
F3 Mn2 1.907162 1_555
F3 Li17 2.036465 1_545
F3 Mn11 2.110562 1_555
F4 Mn2 1.873216 1_555
F4 Mn0 2.082624 1_545
F4 Li17 2.560432 1_545
F5 Li6 1.880073 1_555
F5 Mn0 1.890938 1_545
F5 Li2 2.432504 1_555
F6 Li5 1.851282 1_554
F6 Mn11 1.873326 1_554
F7 Li18 1.984075 1_545
F7 Mn1 2.077925 1_455
F7 Mn2 2.109994 1_555
F8 Mn1 1.965887 1_455
F8 Li0 1.969904 1_556
F9 Mn1 2.023132 1_455
F9 Li19 2.035527 1_445
F9 Li4 2.252151 1_455
F9 Li6 2.439438 1_555
F10 Mn4 1.890915 1_555
F10 Li1 1.965552 1_555
F10 Li2 2.259631 1_555
F11 Mn3 1.877668 1_555
F11 Li4 1.920284 1_555
F11 Li1 2.108256 1_555
F12 Mn3 1.888843 1_555
F12 Li3 1.929131 1_555
F12 Li1 2.182383 1_555
F13 Li7 1.921674 1_555
F13 Mn2 2.068247 1_555
F13 Mn1 2.087987 1_555
F14 Li2 1.921674 1_555
F14 Mn3 2.068247 1_455
F14 Mn4 2.087987 1_555
F15 Mn2 1.888843 1_555
F15 Li6 1.929131 1_555
F15 Li8 2.182383 1_555
F16 Mn2 1.877668 1_555
F16 Li5 1.920284 1_555
F16 Li8 2.108256 1_555
F17 Mn1 1.890915 1_455
F17 Li8 1.965552 1_555
F17 Li7 2.259631 1_455
F18 Mn4 2.023132 1_555
F18 Li10 2.035527 1_555
F18 Li5 2.252151 1_554
F18 Li3 2.439438 1_555
F19 Mn4 1.965887 1_555
F19 Li9 1.969904 1_555
F20 Li4 1.851282 1_555
F20 Mn6 1.873326 1_555
F21 Li11 1.984075 1_555
F21 Mn4 2.077925 1_555
F21 Mn3 2.109994 1_555
F22 Li3 1.880073 1_556
F22 Mn5 1.890938 1_655
F22 Li7 2.432504 1_555
F23 Mn3 1.873216 1_455
F23 Mn5 2.082624 1_554
F23 Li12 2.560432 1_555
F24 Mn3 1.907162 1_455
F24 Li12 2.036465 1_555
F24 Mn6 2.110562 1_455
F25 Mn6 1.889543 1_455
F25 Li6 1.911376 1_555
F25 Li9 2.393251 1_555
F26 Mn5 1.909829 1_555
F26 Li5 1.923397 1_555
F26 Li8 2.331136 1_555
F26 Li10 2.342664 1_556
F27 Mn4 1.875620 1_555
F27 Li12 2.023789 1_555
F27 Li11 2.303914 1_555
F28 Mn7 1.875620 1_555
F28 Li7 2.023789 1_555
F28 Li8 2.303914 1_555
F29 Mn6 1.909829 1_555
F29 Li14 1.923397 1_555
F29 Li11 2.331136 1_555
F29 Li9 2.342664 1_555
F30 Mn5 1.889543 1_654
F30 Li13 1.911376 1_555
F30 Li10 2.393251 1_555
F31 Mn8 1.907162 1_655
F31 Li7 2.036465 1_555
F31 Mn5 2.110562 1_655
F32 Mn8 1.873216 1_655
F32 Mn6 2.082624 1_555
F32 Li7 2.560432 1_555
F33 Li16 1.880073 1_555
F33 Mn6 1.890938 1_455
F33 Li12 2.432504 1_555
F34 Li15 1.851282 1_554
F34 Mn5 1.873326 1_554
F35 Li8 1.984075 1_555
F35 Mn7 2.077925 1_555
F35 Mn8 2.109994 1_555
F36 Mn7 1.965887 1_555
F36 Li10 1.969904 1_556
F37 Mn7 2.023132 1_555
F37 Li9 2.035527 1_555
F37 Li14 2.252151 1_555
F37 Li16 2.439438 1_555
F38 Mn10 1.890915 1_655
F38 Li11 1.965552 1_555
F38 Li12 2.259631 1_655
F39 Mn9 1.877668 1_555
F39 Li14 1.920284 1_555
F39 Li11 2.108256 1_555
F40 Mn9 1.888843 1_555
F40 Li13 1.929131 1_555
F40 Li11 2.182383 1_555
F41 Li17 1.921674 1_555
F41 Mn8 2.068247 1_655
F41 Mn7 2.087987 1_555
F42 Li12 1.921674 1_555
F42 Mn9 2.068247 1_555
F42 Mn10 2.087987 1_555
F43 Mn8 1.888843 1_555
F43 Li16 1.929131 1_555
F43 Li18 2.182383 1_555
F44 Mn8 1.877668 1_555
F44 Li15 1.920284 1_555
F44 Li18 2.108256 1_555
F45 Mn7 1.890915 1_555
F45 Li18 1.965552 1_555
F45 Li17 2.259631 1_555
F46 Mn10 2.023132 1_655
F46 Li0 2.035527 1_665
F46 Li15 2.252151 1_654
F46 Li13 2.439438 1_555
F47 Mn10 1.965887 1_655
F47 Li19 1.969904 1_555
F48 Li14 1.851282 1_555
F48 Mn0 1.873326 1_555
F49 Li1 1.984075 1_565
F49 Mn10 2.077925 1_655
F49 Mn9 2.109994 1_555
F50 Li13 1.880073 1_556
F50 Mn11 1.890938 1_565
F50 Li17 2.432504 1_555
F51 Mn9 1.873216 1_555
F51 Mn11 2.082624 1_564
F51 Li2 2.560432 1_565
F52 Mn9 1.907162 1_555
F52 Li2 2.036465 1_565
F52 Mn0 2.110562 1_555
F53 Mn0 1.889543 1_555
F53 Li16 1.911376 1_555
F53 Li19 2.393251 1_455
F54 Mn11 1.909829 1_565
F54 Li15 1.923397 1_555
F54 Li18 2.331136 1_555
F54 Li0 2.342664 1_566
F55 Mn10 1.875620 1_545
F55 Li2 2.023789 1_555
F55 Li1 2.303914 1_455
