# generated using pymatgen
data_Li3NbOF6
_symmetry_space_group_name_H-M   'P 1'
_cell_length_a   5.29868500
_cell_length_b   5.36050400
_cell_length_c   16.57991000
_cell_angle_alpha   90.00000000
_cell_angle_beta   90.00000000
_cell_angle_gamma   90.00000000
_symmetry_Int_Tables_number   1
_chemical_formula_structural   Li3NbOF6
_chemical_formula_sum   'Li12 Nb4 O4 F24'
_cell_volume   470.92949871
_cell_formula_units_Z   4
loop_
 _symmetry_equiv_pos_site_id
 _symmetry_equiv_pos_as_xyz
  1  'x, y, z'
loop_
 _atom_site_type_symbol
 _atom_site_label
 _atom_site_symmetry_multiplicity
 _atom_site_fract_x
 _atom_site_fract_y
 _atom_site_fract_z
 _atom_site_occupancy
  Li  Li0  1  0.75431100  0.96650900  0.24650800  1
  Li  Li1  1  0.26075400  0.99631400  0.12826900  1
  Li  Li2  1  0.78069500  0.98342700  0.50849400  1
  Li  Li3  1  0.71930500  0.01657300  0.00849400  1
  Li  Li4  1  0.23924600  0.00368600  0.62826900  1
  Li  Li5  1  0.74568900  0.03349100  0.74650800  1
  Li  Li6  1  0.24568900  0.46650900  0.25349200  1
  Li  Li7  1  0.73924600  0.49631400  0.37173100  1
  Li  Li8  1  0.21930500  0.48342700  0.99150600  1
  Li  Li9  1  0.28069500  0.51657300  0.49150600  1
  Li  Li10  1  0.76075400  0.50368600  0.87173100  1
  Li  Li11  1  0.25431100  0.53349100  0.75349200  1
  Nb  Nb0  1  0.24261800  0.00207300  0.87459900  1
  Nb  Nb1  1  0.25738200  0.99792700  0.37459900  1
  Nb  Nb2  1  0.75738200  0.50207300  0.62540100  1
  Nb  Nb3  1  0.74261800  0.49792700  0.12540100  1
  O  O0  1  0.91804200  0.78844200  0.64119700  1
  O  O1  1  0.58195800  0.21155800  0.14119700  1
  O  O2  1  0.08195800  0.28844200  0.85880300  1
  O  O3  1  0.41804200  0.71155800  0.35880300  1
  F  F0  1  0.98485200  0.79581500  0.80646400  1
  F  F1  1  0.92919600  0.84896700  0.11270900  1
  F  F2  1  0.99863900  0.82778600  0.95201800  1
  F  F3  1  0.89751900  0.86863700  0.37310000  1
  F  F4  1  0.16178500  0.88175900  0.49153400  1
  F  F5  1  0.37689900  0.96901000  0.75728500  1
  F  F6  1  0.12310100  0.03099000  0.25728500  1
  F  F7  1  0.33821500  0.11824100  0.99153400  1
  F  F8  1  0.60248100  0.13136300  0.87310000  1
  F  F9  1  0.50136100  0.17221400  0.45201800  1
  F  F10  1  0.57080400  0.15103300  0.61270900  1
  F  F11  1  0.51514800  0.20418500  0.30646400  1
  F  F12  1  0.01514800  0.29581500  0.69353600  1
  F  F13  1  0.07080400  0.34896700  0.38729100  1
  F  F14  1  0.00136100  0.32778600  0.54798200  1
  F  F15  1  0.10248100  0.36863700  0.12690000  1
  F  F16  1  0.83821500  0.38175900  0.00846600  1
  F  F17  1  0.62310100  0.46901000  0.74271500  1
  F  F18  1  0.87689900  0.53099000  0.24271500  1
  F  F19  1  0.66178500  0.61824100  0.50846600  1
  F  F20  1  0.39751900  0.63136300  0.62690000  1
  F  F21  1  0.49863900  0.67221400  0.04798200  1
  F  F22  1  0.42919600  0.65103300  0.88729100  1
  F  F23  1  0.48485200  0.70418500  0.19353600  1
loop_
_geom_bond_atom_site_label_1
_geom_bond_atom_site_label_2
_geom_bond_distance
_geom_bond_site_symmetry_2
Li0 O1 2.368165 1_565
Li1 O1 2.067341 1_565
Li2 O0 2.542245 1_555
Li3 O1 2.542245 1_555
Li4 O0 2.067341 1_445
Li5 O0 2.368165 1_545
Li6 O3 2.368165 1_555
Li7 O3 2.067341 1_555
Li8 O2 2.542245 1_555
Li9 O3 2.542245 1_555
Li10 O2 2.067341 1_655
Li11 O2 2.368165 1_555
Nb0 O2 1.774755 1_555
Nb1 O3 1.774755 1_555
Nb2 O0 1.774755 1_555
Nb3 O1 1.774755 1_555
F0 Li5 2.053612 1_565
F0 Nb0 2.089038 1_665
F0 Li11 2.187985 1_655
F0 Li10 2.243477 1_555
F1 Li1 1.943411 1_655
F1 Nb3 2.136033 1_555
F1 Li3 2.242686 1_565
F1 Li0 2.485336 1_555
F2 Li3 2.022775 1_566
F2 Nb0 2.047372 1_665
F2 Li8 2.281063 1_655
F2 Li10 2.525691 1_555
F3 Nb1 2.028999 1_655
F3 Li7 2.164995 1_555
F3 Li0 2.292676 1_555
F3 Li2 2.408533 1_555
F4 Li9 2.056479 1_555
F4 Nb1 2.098379 1_555
F4 Li2 2.110346 1_455
F4 Li4 2.394823 1_565
F5 Li5 1.992465 1_565
F5 Nb0 2.078678 1_565
F5 Li4 2.267638 1_565
F5 Li11 2.424096 1_555
F6 Li0 1.992465 1_445
F6 Nb1 2.078678 1_545
F6 Li1 2.267638 1_545
F6 Li6 2.424096 1_555
F7 Li8 2.056479 1_555
F7 Nb0 2.098379 1_555
F7 Li3 2.110346 1_556
F7 Li1 2.394823 1_546
F8 Nb0 2.028999 1_555
F8 Li10 2.164995 1_555
F8 Li5 2.292676 1_555
F8 Li3 2.408533 1_556
F9 Li2 2.022775 1_545
F9 Nb1 2.047372 1_545
F9 Li9 2.281063 1_555
F9 Li7 2.525691 1_555
F10 Li4 1.943411 1_555
F10 Nb2 2.136033 1_555
F10 Li2 2.242686 1_545
F10 Li5 2.485336 1_555
F11 Li0 2.053612 1_545
F11 Nb1 2.089038 1_545
F11 Li6 2.187985 1_555
F11 Li7 2.243477 1_555
F12 Li11 2.053612 1_555
F12 Nb2 2.089038 1_455
F12 Li5 2.187985 1_455
F12 Li4 2.243477 1_555
F13 Li7 1.943411 1_455
F13 Nb1 2.136033 1_545
F13 Li9 2.242686 1_555
F13 Li6 2.485336 1_555
F14 Li9 2.022775 1_555
F14 Nb2 2.047372 1_455
F14 Li2 2.281063 1_445
F14 Li4 2.525691 1_555
F15 Nb3 2.028999 1_455
F15 Li1 2.164995 1_545
F15 Li6 2.292676 1_555
F15 Li8 2.408533 1_554
F16 Li3 2.056479 1_555
F16 Nb3 2.098379 1_555
F16 Li8 2.110346 1_654
F16 Li10 2.394823 1_554
F17 Li11 1.992465 1_555
F17 Nb2 2.078678 1_555
F17 Li10 2.267638 1_555
F17 Li5 2.424096 1_555
F18 Li6 1.992465 1_655
F18 Nb3 2.078678 1_555
F18 Li7 2.267638 1_555
F18 Li0 2.424096 1_555
F19 Li2 2.056479 1_555
F19 Nb2 2.098379 1_555
F19 Li9 2.110346 1_555
F19 Li7 2.394823 1_555
F20 Nb2 2.028999 1_555
F20 Li4 2.164995 1_565
F20 Li11 2.292676 1_555
F20 Li9 2.408533 1_555
F21 Li8 2.022775 1_554
F21 Nb3 2.047372 1_555
F21 Li3 2.281063 1_565
F21 Li1 2.525691 1_555
F22 Li10 1.943411 1_555
F22 Nb0 2.136033 1_565
F22 Li8 2.242686 1_555
F22 Li11 2.485336 1_555
F23 Li6 2.053612 1_555
F23 Nb3 2.089038 1_555
F23 Li0 2.187985 1_555
F23 Li1 2.243477 1_555
