# generated using pymatgen
data_Li4Ti3Fe2Sn3O16
_symmetry_space_group_name_H-M   'P 1'
_cell_length_a   6.11680952
_cell_length_b   19.90347737
_cell_length_c   6.14463081
_cell_angle_alpha   89.73758227
_cell_angle_beta   60.14536633
_cell_angle_gamma   90.23919241
_symmetry_Int_Tables_number   1
_chemical_formula_structural   Li4Ti3Fe2Sn3O16
_chemical_formula_sum   'Li8 Ti6 Fe4 Sn6 O32'
_cell_volume   648.78089835
_cell_formula_units_Z   2
loop_
 _symmetry_equiv_pos_site_id
 _symmetry_equiv_pos_as_xyz
  1  'x, y, z'
loop_
 _atom_site_type_symbol
 _atom_site_label
 _atom_site_symmetry_multiplicity
 _atom_site_fract_x
 _atom_site_fract_y
 _atom_site_fract_z
 _atom_site_occupancy
  Li  Li0  1  0.33211300  0.44336900  0.33785000  1
  Li  Li1  1  0.33207000  0.94318100  0.33871600  1
  Li  Li2  1  0.00972400  0.49813200  0.97881800  1
  Li  Li3  1  0.00907000  0.99821700  0.97736600  1
  Li  Li4  1  0.00513500  0.25061300  0.98683700  1
  Li  Li5  1  0.00509800  0.75070800  0.98752900  1
  Li  Li6  1  0.66641200  0.19592000  0.67098100  1
  Li  Li7  1  0.66515100  0.69620000  0.67044600  1
  Ti  Ti0  1  0.17567900  0.10956400  0.66025900  1
  Ti  Ti1  1  0.16917300  0.60849300  0.66268700  1
  Ti  Ti2  1  0.33622700  0.35763300  0.83246100  1
  Ti  Ti3  1  0.33759600  0.85740600  0.83304200  1
  Ti  Ti4  1  0.83175300  0.35830400  0.83039700  1
  Ti  Ti5  1  0.83168500  0.85851100  0.83143700  1
  Fe  Fe0  1  0.33175700  0.74829800  0.33577300  1
  Fe  Fe1  1  0.66692900  0.99625900  0.67429500  1
  Fe  Fe2  1  0.33349300  0.24851100  0.33537400  1
  Fe  Fe3  1  0.66399200  0.49603000  0.67074000  1
  Sn  Sn0  1  0.82884900  0.35673000  0.34030100  1
  Sn  Sn1  1  0.82956900  0.85702700  0.33982700  1
  Sn  Sn2  1  0.66274400  0.10657100  0.16539000  1
  Sn  Sn3  1  0.66193500  0.60728500  0.16915500  1
  Sn  Sn4  1  0.16661800  0.10731200  0.17026500  1
  Sn  Sn5  1  0.16792400  0.60734000  0.17010900  1
  O  O0  1  0.48413800  0.16787000  0.03121600  1
  O  O1  1  0.48435600  0.66779500  0.03184900  1
  O  O2  1  0.32414600  0.04956200  0.34780900  1
  O  O3  1  0.32513800  0.54934200  0.34847500  1
  O  O4  1  0.00561900  0.15982800  0.98650100  1
  O  O5  1  0.00562800  0.65984400  0.98977400  1
  O  O6  1  0.00411500  0.40748900  0.98991300  1
  O  O7  1  0.00611700  0.90761100  0.98883900  1
  O  O8  1  0.84423700  0.04860000  0.30754400  1
  O  O9  1  0.84307200  0.54837700  0.31203200  1
  O  O10  1  0.15502000  0.30653600  0.68916800  1
  O  O11  1  0.15623900  0.80626200  0.68957700  1
  O  O12  1  0.65518800  0.30174000  0.68813000  1
  O  O13  1  0.65614600  0.80180200  0.68582100  1
  O  O14  1  0.52044300  0.41281300  0.96135100  1
  O  O15  1  0.51750200  0.91120300  0.96630600  1
  O  O16  1  0.68436700  0.30161300  0.15115800  1
  O  O17  1  0.68680600  0.80237700  0.14911100  1
  O  O18  1  0.16203300  0.30254500  0.14784900  1
  O  O19  1  0.16373000  0.80235200  0.14884200  1
  O  O20  1  0.47539300  0.16480500  0.49478500  1
  O  O21  1  0.47264300  0.66576500  0.49467600  1
  O  O22  1  0.03573500  0.16699900  0.49102600  1
  O  O23  1  0.03255700  0.66562600  0.49575800  1
  O  O24  1  0.96608500  0.41434500  0.52925500  1
  O  O25  1  0.96744200  0.91411200  0.52873600  1
  O  O26  1  0.50599500  0.41446600  0.52898500  1
  O  O27  1  0.50932100  0.91629000  0.53174100  1
  O  O28  1  0.85060500  0.05266400  0.82827900  1
  O  O29  1  0.85296100  0.55298600  0.83223300  1
  O  O30  1  0.31283800  0.05344400  0.83109900  1
  O  O31  1  0.31429400  0.55315900  0.83210200  1
loop_
_geom_bond_atom_site_label_1
_geom_bond_atom_site_label_2
_geom_bond_distance
_geom_bond_site_symmetry_2
Li0 O26 2.020918 1_555
Li0 O24 2.022638 1_455
Li0 O14 2.101043 1_554
Li0 O3 2.110492 1_555
Li1 O25 2.015655 1_455
Li1 O27 2.036678 1_555
Li1 O15 2.088850 1_554
Li1 O2 2.118465 1_565
Li2 O6 1.804624 1_555
Li2 O29 1.944829 1_455
Li2 O31 1.945456 1_555
Li2 O9 2.044673 1_456
Li3 O7 1.804093 1_555
Li3 O30 1.944170 1_565
Li3 O28 1.958790 1_465
Li3 O8 2.031945 1_466
Li4 O4 1.806961 1_555
Li4 O10 1.930863 1_555
Li4 O18 1.978556 1_556
Li4 O16 1.988276 1_456
Li5 O5 1.808528 1_555
Li5 O11 1.927938 1_555
Li5 O17 1.983796 1_456
Li5 O19 1.984730 1_556
Li6 O0 1.995198 1_556
Li6 O20 2.044614 1_555
Li6 O22 2.046256 1_655
Li6 O12 2.108998 1_555
Li7 O1 2.003078 1_556
Li7 O21 2.046035 1_555
Li7 O23 2.046654 1_655
Li7 O13 2.104121 1_555
Fe0 O17 2.163294 1_555
Fe0 O19 2.169430 1_555
Fe0 O11 2.217981 1_555
Fe0 O23 2.278639 1_555
Fe0 O21 2.286770 1_555
Fe0 O1 2.287043 1_555
Fe1 O28 2.115524 1_565
Fe1 O30 2.206330 1_565
Fe1 O8 2.208107 1_565
Fe1 O27 2.251837 1_555
Fe1 O15 2.290705 1_555
Fe1 O25 2.292111 1_555
Fe2 O16 2.134488 1_555
Fe2 O18 2.187590 1_555
Fe2 O10 2.218618 1_555
Fe2 O22 2.256300 1_555
Fe2 O0 2.289849 1_555
Fe2 O20 2.309139 1_555
Fe3 O9 2.170084 1_555
Fe3 O29 2.178804 1_555
Fe3 O31 2.184164 1_555
Fe3 O14 2.258931 1_555
Fe3 O26 2.272905 1_555
Fe3 O24 2.291778 1_555
O0 Sn2 2.064095 1_555
O0 Sn4 2.067330 1_555
O1 Sn5 2.061558 1_555
O1 Sn3 2.063053 1_555
O2 Ti0 2.056969 1_555
O2 Sn4 2.117578 1_555
O2 Sn2 2.119180 1_555
O3 Ti1 2.054322 1_555
O3 Sn3 2.120558 1_555
O3 Sn5 2.122622 1_555
O4 Ti0 2.013070 1_555
O4 Sn2 2.099062 1_456
O4 Sn4 2.107672 1_556
O5 Ti1 2.027409 1_555
O5 Sn3 2.095943 1_456
O5 Sn5 2.097307 1_556
O6 Ti4 2.014859 1_455
O6 Ti2 2.028894 1_555
O6 Sn0 2.116233 1_456
O7 Ti5 2.014013 1_455
O7 Ti3 2.029598 1_555
O7 Sn1 2.117406 1_456
O8 Sn4 2.069135 1_655
O8 Sn2 2.072110 1_555
O9 Sn5 2.081368 1_655
O9 Sn3 2.083971 1_555
O10 Ti2 2.002138 1_555
O10 Ti4 2.010343 1_455
O11 Ti3 2.004079 1_555
O11 Ti5 2.021167 1_455
O12 Ti2 2.033489 1_555
O12 Ti4 2.033944 1_555
O12 Sn0 2.145409 1_555
O13 Ti3 2.027833 1_555
O13 Ti5 2.045269 1_555
O13 Sn1 2.139364 1_555
O14 Ti4 1.987543 1_555
O14 Ti2 1.997317 1_555
O15 Ti5 1.979679 1_555
O15 Ti3 1.980748 1_555
O16 Ti4 2.042712 1_554
O16 Sn0 2.088405 1_555
O17 Ti5 2.023215 1_554
O17 Sn1 2.083654 1_555
O18 Ti2 2.002021 1_554
O18 Sn0 2.084617 1_455
O19 Ti3 2.003335 1_554
O19 Sn1 2.093193 1_455
O20 Ti0 1.928925 1_555
O20 Sn2 2.115801 1_555
O21 Ti1 1.968386 1_555
O21 Sn3 2.103108 1_555
O22 Ti0 2.001102 1_555
O22 Sn4 2.096500 1_555
O23 Ti1 1.973357 1_555
O23 Sn5 2.101218 1_555
O24 Ti4 1.950125 1_555
O24 Sn0 2.083804 1_555
O25 Ti5 1.951801 1_555
O25 Sn1 2.080448 1_555
O26 Ti2 1.969303 1_555
O26 Sn0 2.077575 1_555
O27 Ti3 1.984501 1_555
O27 Sn1 2.085996 1_555
O28 Ti0 2.056428 1_655
O28 Sn2 2.103156 1_556
O29 Ti1 2.003116 1_655
O29 Sn3 2.107591 1_556
O30 Ti0 1.981774 1_555
O30 Sn4 2.113159 1_556
O31 Ti1 2.000562 1_555
O31 Sn5 2.110781 1_556
