# generated using pymatgen
data_Li6Mn5O12
_symmetry_space_group_name_H-M   'P 1'
_cell_length_a   5.04397333
_cell_length_b   5.04397333
_cell_length_c   9.54515962
_cell_angle_alpha   85.85631479
_cell_angle_beta   85.85631479
_cell_angle_gamma   117.83746845
_symmetry_Int_Tables_number   1
_chemical_formula_structural   Li6Mn5O12
_chemical_formula_sum   'Li6 Mn5 O12'
_cell_volume   212.62790181
_cell_formula_units_Z   1
loop_
 _symmetry_equiv_pos_site_id
 _symmetry_equiv_pos_as_xyz
  1  'x, y, z'
loop_
 _atom_site_type_symbol
 _atom_site_label
 _atom_site_symmetry_multiplicity
 _atom_site_fract_x
 _atom_site_fract_y
 _atom_site_fract_z
 _atom_site_occupancy
  Li  Li0  1  0.74437300  0.25562700  0.50000000  1
  Li  Li1  1  0.81826600  0.63992700  0.26440600  1
  Li  Li2  1  0.68866100  0.86174200  0.73471200  1
  Li  Li3  1  0.36007300  0.18173400  0.73559400  1
  Li  Li4  1  0.13825800  0.31133900  0.26528800  1
  Li  Li5  1  0.08127300  0.91872700  0.50000000  1
  Mn  Mn0  1  0.92768000  0.07232000  0.00000000  1
  Mn  Mn1  1  0.58030800  0.41969200  0.00000000  1
  Mn  Mn2  1  0.47974700  0.98487300  0.25364800  1
  Mn  Mn3  1  0.01512700  0.52025300  0.74635200  1
  Mn  Mn4  1  0.42061000  0.57939000  0.50000000  1
  O  O0  1  0.82689300  0.31156200  0.12715100  1
  O  O1  1  0.68843800  0.17310700  0.87284900  1
  O  O2  1  0.91362700  0.76471900  0.88043400  1
  O  O3  1  0.70337700  0.55267400  0.61814900  1
  O  O4  1  0.74069300  0.93129800  0.37872400  1
  O  O5  1  0.44732600  0.29662300  0.38185100  1
  O  O6  1  0.59506700  0.72679200  0.11200000  1
  O  O7  1  0.23528100  0.08637300  0.11956600  1
  O  O8  1  0.35176500  0.84225500  0.63333800  1
  O  O9  1  0.27320800  0.40493300  0.88800000  1
  O  O10  1  0.06870200  0.25930700  0.62127600  1
  O  O11  1  0.15774500  0.64823500  0.36666200  1
loop_
_geom_bond_atom_site_label_1
_geom_bond_atom_site_label_2
_geom_bond_distance
_geom_bond_site_symmetry_2
Li0 O3 2.014774 1_555
Li0 O5 2.014774 1_555
Li0 O4 2.065185 1_545
Li0 O10 2.065185 1_655
Li0 O8 2.298889 1_545
Li0 O11 2.298889 1_655
Li1 O11 2.016657 1_655
Li1 O5 2.036277 1_555
Li1 O6 2.044733 1_555
Li1 O4 2.052026 1_555
Li1 O0 2.198677 1_555
Li1 O7 2.472403 1_665
Li2 O8 1.982158 1_555
Li2 O3 2.005113 1_555
Li2 O2 2.027350 1_555
Li2 O1 2.122680 1_565
Li2 O10 2.159731 1_665
Li2 O9 2.530106 1_555
Li3 O8 2.016657 1_545
Li3 O3 2.036277 1_555
Li3 O9 2.044733 1_555
Li3 O10 2.052026 1_555
Li3 O1 2.198677 1_555
Li3 O2 2.472403 1_445
Li4 O11 1.982158 1_555
Li4 O5 2.005113 1_555
Li4 O7 2.027350 1_555
Li4 O0 2.122680 1_455
Li4 O4 2.159731 1_445
Li4 O6 2.530106 1_555
Li5 O11 2.074026 1_555
Li5 O8 2.074026 1_555
Li5 O3 2.101355 1_455
Li5 O5 2.101355 1_565
Li5 O4 2.161866 1_455
Li5 O10 2.161866 1_565
Mn0 O6 1.932820 1_545
Mn0 O9 1.932820 1_654
Mn0 O2 1.969686 1_544
Mn0 O7 1.969686 1_655
Mn0 O1 1.970550 1_554
Mn0 O0 1.970550 1_555
Mn1 O9 1.921187 1_554
Mn1 O6 1.921187 1_555
Mn1 O2 1.964913 1_554
Mn1 O7 1.964913 1_555
Mn1 O0 2.018283 1_555
Mn1 O1 2.018283 1_554
Mn2 O11 1.895060 1_555
Mn2 O4 1.934784 1_555
Mn2 O0 1.987817 1_565
Mn2 O7 2.035565 1_565
Mn2 O5 2.118059 1_565
Mn2 O6 2.169980 1_555
Mn3 O8 1.895060 1_555
Mn3 O10 1.934784 1_555
Mn3 O1 1.987817 1_455
Mn3 O2 2.035565 1_455
Mn3 O3 2.118059 1_455
Mn3 O9 2.169980 1_555
Mn4 O3 1.927229 1_555
Mn4 O5 1.927229 1_555
Mn4 O10 1.963123 1_555
Mn4 O4 1.963123 1_555
Mn4 O8 2.026918 1_555
Mn4 O11 2.026918 1_555
