# generated using pymatgen
data_Li2FeF4
_symmetry_space_group_name_H-M   'P 1'
_cell_length_a   5.83722716
_cell_length_b   5.83722716
_cell_length_c   5.40932712
_cell_angle_alpha   87.08248551
_cell_angle_beta   87.08248551
_cell_angle_gamma   58.87469469
_symmetry_Int_Tables_number   1
_chemical_formula_structural   Li2FeF4
_chemical_formula_sum   'Li4 Fe2 F8'
_cell_volume   157.50957067
_cell_formula_units_Z   2
loop_
 _symmetry_equiv_pos_site_id
 _symmetry_equiv_pos_as_xyz
  1  'x, y, z'
loop_
 _atom_site_type_symbol
 _atom_site_label
 _atom_site_symmetry_multiplicity
 _atom_site_fract_x
 _atom_site_fract_y
 _atom_site_fract_z
 _atom_site_occupancy
  Li  Li0  1  0.65845500  0.93818400  0.28469900  1
  Li  Li1  1  0.93818400  0.65845500  0.78469900  1
  Li  Li2  1  0.06181600  0.34154500  0.21530100  1
  Li  Li3  1  0.34154500  0.06181600  0.71530100  1
  Fe  Fe0  1  0.35410300  0.64589700  0.25000000  1
  Fe  Fe1  1  0.64589700  0.35410300  0.75000000  1
  F  F0  1  0.28578500  0.00331700  0.38237900  1
  F  F1  1  0.00331700  0.28578500  0.88237900  1
  F  F2  1  0.73193200  0.50368500  0.40930600  1
  F  F3  1  0.50368500  0.73193200  0.90930600  1
  F  F4  1  0.49631500  0.26806800  0.09069400  1
  F  F5  1  0.26806800  0.49631500  0.59069400  1
  F  F6  1  0.99668300  0.71421500  0.11762100  1
  F  F7  1  0.71421500  0.99668300  0.61762100  1
loop_
_geom_bond_atom_site_label_1
_geom_bond_atom_site_label_2
_geom_bond_distance
_geom_bond_site_symmetry_2
F0 Li2 1.922009 1_555
F0 Li3 1.924291 1_555
F0 Li0 2.050447 1_545
F0 Fe0 2.070626 1_545
F1 Li3 1.922009 1_555
F1 Li2 1.924291 1_556
F1 Li1 2.050447 1_455
F1 Fe1 2.070626 1_455
F2 Li2 1.927774 1_655
F2 Fe0 2.126904 1_555
F2 Fe1 2.146223 1_555
F2 Li0 2.408682 1_555
F3 Li3 1.927774 1_565
F3 Fe1 2.126904 1_555
F3 Fe0 2.146223 1_556
F3 Li1 2.408682 1_555
F4 Li0 1.927774 1_545
F4 Fe0 2.126904 1_555
F4 Fe1 2.146223 1_554
F4 Li2 2.408682 1_555
F5 Li1 1.927774 1_455
F5 Fe1 2.126904 1_555
F5 Fe0 2.146223 1_555
F5 Li3 2.408682 1_555
F6 Li0 1.922009 1_555
F6 Li1 1.924291 1_554
F6 Li2 2.050447 1_655
F6 Fe0 2.070626 1_655
F7 Li1 1.922009 1_555
F7 Li0 1.924291 1_555
F7 Li3 2.050447 1_565
F7 Fe1 2.070626 1_565
