# generated using pymatgen
data_Nd2P3(HO2)5
_symmetry_space_group_name_H-M   'P 1'
_cell_length_a   8.04384900
_cell_length_b   9.73222300
_cell_length_c   13.60082054
_cell_angle_alpha   66.40674546
_cell_angle_beta   90.00000000
_cell_angle_gamma   90.00000000
_symmetry_Int_Tables_number   1
_chemical_formula_structural   Nd2P3(HO2)5
_chemical_formula_sum   'Nd8 P12 H20 O40'
_cell_volume   975.73261686
_cell_formula_units_Z   4
loop_
 _symmetry_equiv_pos_site_id
 _symmetry_equiv_pos_as_xyz
  1  'x, y, z'
loop_
 _atom_site_type_symbol
 _atom_site_label
 _atom_site_symmetry_multiplicity
 _atom_site_fract_x
 _atom_site_fract_y
 _atom_site_fract_z
 _atom_site_occupancy
  Nd  Nd0  1  0.08016700  0.81900000  0.23023000  1
  Nd  Nd1  1  0.41983300  0.81900000  0.73023000  1
  Nd  Nd2  1  0.91983300  0.18100000  0.76977000  1
  Nd  Nd3  1  0.58016700  0.18100000  0.26977000  1
  Nd  Nd4  1  0.21114600  0.59118800  0.03613300  1
  Nd  Nd5  1  0.28885400  0.59118800  0.53613300  1
  Nd  Nd6  1  0.78885400  0.40881200  0.96386700  1
  Nd  Nd7  1  0.71114600  0.40881200  0.46386700  1
  P  P0  1  0.19460300  0.23224900  0.10005800  1
  P  P1  1  0.30539700  0.23224900  0.60005800  1
  P  P2  1  0.80539700  0.76775100  0.89994200  1
  P  P3  1  0.69460300  0.76775100  0.39994200  1
  P  P4  1  0.24976800  0.94208900  0.94600300  1
  P  P5  1  0.25023200  0.94208900  0.44600300  1
  P  P6  1  0.75023200  0.05791100  0.05399700  1
  P  P7  1  0.74976800  0.05791100  0.55399700  1
  P  P8  1  0.11391800  0.46181200  0.32502400  1
  P  P9  1  0.38608200  0.46181200  0.82502400  1
  P  P10  1  0.88608200  0.53818800  0.67497600  1
  P  P11  1  0.61391800  0.53818800  0.17497600  1
  H  H0  1  0.26212800  0.20499800  0.01387400  1
  H  H1  1  0.23787200  0.20499800  0.51387400  1
  H  H2  1  0.73787200  0.79500200  0.98612600  1
  H  H3  1  0.76212800  0.79500200  0.48612600  1
  H  H4  1  0.38971400  0.99266900  0.98389000  1
  H  H5  1  0.11028600  0.99266900  0.48389000  1
  H  H6  1  0.61028600  0.00733100  0.01611000  1
  H  H7  1  0.88971400  0.00733100  0.51611000  1
  H  H8  1  0.23931100  0.35957700  0.32798400  1
  H  H9  1  0.26068900  0.35957700  0.82798400  1
  H  H10  1  0.76068900  0.64042300  0.67201600  1
  H  H11  1  0.73931100  0.64042300  0.17201600  1
  H  H12  1  0.47562100  0.87465400  0.23425100  1
  H  H13  1  0.02437900  0.87465400  0.73425100  1
  H  H14  1  0.52437900  0.12534600  0.76574900  1
  H  H15  1  0.97562100  0.12534600  0.26574900  1
  H  H16  1  0.42980000  0.76117100  0.17840200  1
  H  H17  1  0.07020000  0.76117100  0.67840200  1
  H  H18  1  0.57020000  0.23882900  0.82159800  1
  H  H19  1  0.92980000  0.23882900  0.32159800  1
  O  O0  1  0.33238500  0.30492600  0.14299500  1
  O  O1  1  0.16761500  0.30492600  0.64299500  1
  O  O2  1  0.66761500  0.69507400  0.85700500  1
  O  O3  1  0.83238500  0.69507400  0.35700500  1
  O  O4  1  0.05872300  0.35566400  0.05220500  1
  O  O5  1  0.44127700  0.35566400  0.55220500  1
  O  O6  1  0.94127700  0.64433600  0.94779500  1
  O  O7  1  0.55872300  0.64433600  0.44779500  1
  O  O8  1  0.12525400  0.08313500  0.17961700  1
  O  O9  1  0.37474600  0.08313500  0.67961700  1
  O  O10  1  0.87474600  0.91686500  0.82038300  1
  O  O11  1  0.62525400  0.91686500  0.32038300  1
  O  O12  1  0.14914400  0.83858600  0.04553700  1
  O  O13  1  0.35085600  0.83858600  0.54553700  1
  O  O14  1  0.85085600  0.16141400  0.95446300  1
  O  O15  1  0.64914400  0.16141400  0.45446300  1
  O  O16  1  0.31447300  0.83493700  0.89471300  1
  O  O17  1  0.18552700  0.83493700  0.39471300  1
  O  O18  1  0.68552700  0.16506300  0.10528700  1
  O  O19  1  0.81447300  0.16506300  0.60528700  1
  O  O20  1  0.16048200  0.08100500  0.87003800  1
  O  O21  1  0.33951800  0.08100500  0.37003800  1
  O  O22  1  0.83951800  0.91899500  0.12996200  1
  O  O23  1  0.66048200  0.91899500  0.62996200  1
  O  O24  1  0.17461600  0.55871800  0.38371700  1
  O  O25  1  0.32538400  0.55871800  0.88371700  1
  O  O26  1  0.82538400  0.44128200  0.61628300  1
  O  O27  1  0.67461600  0.44128200  0.11628300  1
  O  O28  1  0.08514600  0.56981200  0.20640100  1
  O  O29  1  0.41485400  0.56981200  0.70640100  1
  O  O30  1  0.91485400  0.43018800  0.79359900  1
  O  O31  1  0.58514600  0.43018800  0.29359900  1
  O  O32  1  0.95820100  0.36952500  0.37591700  1
  O  O33  1  0.54179900  0.36952500  0.87591700  1
  O  O34  1  0.04179900  0.63047500  0.62408300  1
  O  O35  1  0.45820100  0.63047500  0.12408300  1
  O  O36  1  0.38494500  0.83883400  0.20146100  1
  O  O37  1  0.11505500  0.83883400  0.70146100  1
  O  O38  1  0.61505500  0.16116600  0.79853900  1
  O  O39  1  0.88494500  0.16116600  0.29853900  1
loop_
_geom_bond_atom_site_label_1
_geom_bond_atom_site_label_2
_geom_bond_distance
_geom_bond_site_symmetry_2
Nd0 O22 2.343410 1_455
Nd0 O8 2.407693 1_565
Nd0 O17 2.454526 1_555
Nd0 O36 2.477940 1_555
Nd0 O12 2.504180 1_555
Nd0 O28 2.572386 1_555
Nd0 O3 2.595286 1_455
Nd0 O24 2.668108 1_555
Nd1 O23 2.343410 1_555
Nd1 O9 2.407693 1_565
Nd1 O16 2.454526 1_555
Nd1 O37 2.477940 1_555
Nd1 O13 2.504180 1_555
Nd1 O29 2.572386 1_555
Nd1 O2 2.595286 1_555
Nd1 O25 2.668108 1_555
Nd2 O20 2.343410 1_655
Nd2 O10 2.407693 1_545
Nd2 O19 2.454526 1_555
Nd2 O38 2.477940 1_555
Nd2 O14 2.504180 1_555
Nd2 O30 2.572386 1_555
Nd2 O1 2.595286 1_655
Nd2 O26 2.668108 1_555
Nd3 O21 2.343410 1_555
Nd3 O11 2.407693 1_545
Nd3 O18 2.454526 1_555
Nd3 O39 2.477940 1_555
Nd3 O15 2.504180 1_555
Nd3 O31 2.572386 1_555
Nd3 O0 2.595286 1_555
Nd3 O27 2.668108 1_555
Nd4 O25 2.401227 1_554
Nd4 O35 2.427433 1_555
Nd4 O6 2.434321 1_454
Nd4 O28 2.459212 1_555
Nd4 O12 2.511729 1_555
Nd4 O16 2.522969 1_554
Nd4 O4 2.530611 1_555
Nd4 O0 2.753870 1_555
Nd5 O24 2.401227 1_555
Nd5 O34 2.427433 1_555
Nd5 O7 2.434321 1_555
Nd5 O29 2.459212 1_555
Nd5 O13 2.511729 1_555
Nd5 O17 2.522969 1_555
Nd5 O5 2.530611 1_555
Nd5 O1 2.753870 1_555
Nd6 O27 2.401227 1_556
Nd6 O33 2.427433 1_555
Nd6 O4 2.434321 1_656
Nd6 O30 2.459212 1_555
Nd6 O14 2.511729 1_555
Nd6 O18 2.522969 1_556
Nd6 O6 2.530611 1_555
Nd6 O2 2.753870 1_555
Nd7 O26 2.401227 1_555
Nd7 O32 2.427433 1_555
Nd7 O5 2.434321 1_555
Nd7 O31 2.459212 1_555
Nd7 O15 2.511729 1_555
Nd7 O19 2.522969 1_555
Nd7 O7 2.530611 1_555
Nd7 O3 2.753870 1_555
H0 P0 1.410036 1_555
H1 P1 1.410036 1_555
H2 P2 1.410036 1_555
H3 P3 1.410036 1_555
H4 P4 1.406450 1_555
H5 P5 1.406450 1_555
H6 P6 1.406450 1_555
H7 P7 1.406450 1_555
H8 P8 1.406019 1_555
H9 P9 1.406019 1_555
H10 P10 1.406019 1_555
H11 P11 1.406019 1_555
H12 O36 0.988367 1_555
H13 O37 0.988367 1_555
H14 O38 0.988367 1_555
H15 O39 0.988367 1_555
H16 O36 0.994774 1_555
H16 O35 1.722817 1_555
H17 O37 0.994774 1_555
H17 O34 1.722817 1_555
H18 O38 0.994774 1_555
H18 O33 1.722817 1_555
H19 O39 0.994774 1_555
H19 O32 1.722817 1_555
O0 P0 1.549284 1_555
O1 P1 1.549284 1_555
O2 P2 1.549284 1_555
O3 P3 1.549284 1_555
O4 P0 1.560489 1_555
O5 P1 1.560489 1_555
O6 P2 1.560489 1_555
O7 P3 1.560489 1_555
O8 P0 1.526780 1_555
O9 P1 1.526780 1_555
O10 P2 1.526780 1_555
O11 P3 1.526780 1_555
O12 P4 1.552696 1_554
O13 P5 1.552696 1_555
O14 P6 1.552696 1_556
O15 P7 1.552696 1_555
O16 P4 1.557990 1_555
O17 P5 1.557990 1_555
O18 P6 1.557990 1_555
O19 P7 1.557990 1_555
O20 P4 1.514250 1_545
O21 P5 1.514250 1_545
O22 P6 1.514250 1_565
O23 P7 1.514250 1_565
O24 P8 1.538744 1_555
O25 P9 1.538744 1_555
O26 P10 1.538744 1_555
O27 P11 1.538744 1_555
O28 P8 1.550436 1_555
O29 P9 1.550436 1_555
O30 P10 1.550436 1_555
O31 P11 1.550436 1_555
O32 P8 1.535276 1_655
O33 P9 1.535276 1_555
O34 P10 1.535276 1_455
O35 P11 1.535276 1_555
