# generated using pymatgen
data_Gd3AsO7
_symmetry_space_group_name_H-M   'P 1'
_cell_length_a   6.44122284
_cell_length_b   6.44122284
_cell_length_c   7.45790000
_cell_angle_alpha   90.00000000
_cell_angle_beta   90.00000000
_cell_angle_gamma   109.38288163
_symmetry_Int_Tables_number   1
_chemical_formula_structural   Gd3AsO7
_chemical_formula_sum   'Gd6 As2 O14'
_cell_volume   291.88589028
_cell_formula_units_Z   2
loop_
 _symmetry_equiv_pos_site_id
 _symmetry_equiv_pos_as_xyz
  1  'x, y, z'
loop_
 _atom_site_type_symbol
 _atom_site_label
 _atom_site_symmetry_multiplicity
 _atom_site_fract_x
 _atom_site_fract_y
 _atom_site_fract_z
 _atom_site_occupancy
  Gd  Gd0  1  0.46491300  0.00178600  0.25199800  1
  Gd  Gd1  1  0.99821400  0.53508700  0.24800200  1
  Gd  Gd2  1  0.48886300  0.48886300  0.00000000  1
  Gd  Gd3  1  0.51113700  0.51113700  0.50000000  1
  Gd  Gd4  1  0.53508700  0.99821400  0.75199800  1
  Gd  Gd5  1  0.00178600  0.46491300  0.74800200  1
  As  As0  1  0.99969900  0.99969900  0.50000000  1
  As  As1  1  0.00030100  0.00030100  0.00000000  1
  O  O0  1  0.94227100  0.05772900  0.75000000  1
  O  O1  1  0.63544200  0.36455800  0.75000000  1
  O  O2  1  0.29924200  0.05678300  0.52975400  1
  O  O3  1  0.94321700  0.70075800  0.97024600  1
  O  O4  1  0.62933000  0.37067000  0.25000000  1
  O  O5  1  0.93304000  0.69451700  0.52659200  1
  O  O6  1  0.30548300  0.06696000  0.97340800  1
  O  O7  1  0.06696000  0.30548300  0.02659200  1
  O  O8  1  0.69451700  0.93304000  0.47340800  1
  O  O9  1  0.37067000  0.62933000  0.75000000  1
  O  O10  1  0.70075800  0.94321700  0.02975400  1
  O  O11  1  0.05678300  0.29924200  0.47024600  1
  O  O12  1  0.36455800  0.63544200  0.25000000  1
  O  O13  1  0.05772900  0.94227100  0.25000000  1
loop_
_geom_bond_atom_site_label_1
_geom_bond_atom_site_label_2
_geom_bond_distance
_geom_bond_site_symmetry_2
Gd0 O12 2.230205 1_545
Gd0 O4 2.257703 1_555
Gd0 O8 2.354705 1_545
Gd0 O10 2.361715 1_545
Gd0 O2 2.409601 1_555
Gd0 O6 2.415321 1_554
Gd0 O13 2.521646 1_545
Gd1 O12 2.230205 1_655
Gd1 O4 2.257703 1_555
Gd1 O7 2.354705 1_655
Gd1 O11 2.361715 1_655
Gd1 O3 2.409601 1_554
Gd1 O5 2.415321 1_555
Gd1 O13 2.521646 1_655
Gd2 O4 2.309045 1_555
Gd2 O9 2.309045 1_554
Gd2 O12 2.347453 1_555
Gd2 O1 2.347453 1_554
Gd2 O7 2.586328 1_555
Gd2 O6 2.586328 1_554
Gd2 O10 2.797451 1_555
Gd2 O3 2.797451 1_554
Gd3 O4 2.309045 1_555
Gd3 O9 2.309045 1_555
Gd3 O12 2.347453 1_555
Gd3 O1 2.347453 1_555
Gd3 O8 2.586328 1_555
Gd3 O5 2.586328 1_555
Gd3 O2 2.797451 1_555
Gd3 O11 2.797451 1_555
Gd4 O1 2.230205 1_565
Gd4 O9 2.257703 1_555
Gd4 O6 2.354705 1_565
Gd4 O2 2.361715 1_565
Gd4 O10 2.409601 1_556
Gd4 O8 2.415321 1_555
Gd4 O0 2.521646 1_565
Gd5 O1 2.230205 1_455
Gd5 O9 2.257703 1_555
Gd5 O5 2.354705 1_455
Gd5 O3 2.361715 1_455
Gd5 O11 2.409601 1_555
Gd5 O7 2.415321 1_556
Gd5 O0 2.521646 1_455
As0 O11 1.853704 1_665
As0 O2 1.853704 1_665
As0 O5 1.878194 1_555
As0 O8 1.878194 1_555
As0 O0 1.960762 1_565
As0 O13 1.960762 1_655
As1 O10 1.853704 1_445
As1 O3 1.853704 1_444
As1 O7 1.878194 1_555
As1 O6 1.878194 1_554
As1 O13 1.960762 1_545
As1 O0 1.960762 1_454
