# generated using pymatgen
data_Li2FeP2O7
_symmetry_space_group_name_H-M   'P 1'
_cell_length_a   7.84961516
_cell_length_b   7.84304922
_cell_length_c   10.12516304
_cell_angle_alpha   90.00911162
_cell_angle_beta   89.99630370
_cell_angle_gamma   89.54014045
_symmetry_Int_Tables_number   1
_chemical_formula_structural   Li2FeP2O7
_chemical_formula_sum   'Li8 Fe4 P8 O28'
_cell_volume   623.33474681
_cell_formula_units_Z   4
loop_
 _symmetry_equiv_pos_site_id
 _symmetry_equiv_pos_as_xyz
  1  'x, y, z'
loop_
 _atom_site_type_symbol
 _atom_site_label
 _atom_site_symmetry_multiplicity
 _atom_site_fract_x
 _atom_site_fract_y
 _atom_site_fract_z
 _atom_site_occupancy
  Li  Li0  1  0.22707200  0.72682300  0.26440600  1
  Li  Li1  1  0.22704100  0.72691600  0.76460500  1
  Li  Li2  1  0.27425200  0.22562800  0.23529800  1
  Li  Li3  1  0.27417000  0.22557200  0.73507800  1
  Li  Li4  1  0.72571700  0.77436000  0.23532900  1
  Li  Li5  1  0.72581000  0.77443400  0.73511500  1
  Li  Li6  1  0.77289100  0.27316900  0.26441300  1
  Li  Li7  1  0.77292200  0.27308900  0.76461300  1
  Fe  Fe0  1  0.00000300  0.00000800  0.49939400  1
  Fe  Fe1  1  0.50005900  0.49997200  0.99904700  1
  Fe  Fe2  1  0.00019000  0.00008600  0.99931300  1
  Fe  Fe3  1  0.49998600  0.49996800  0.49935000  1
  P  P0  1  0.14034200  0.35968500  0.45328600  1
  P  P1  1  0.14019400  0.35984600  0.95352800  1
  P  P2  1  0.36053700  0.86052200  0.04671600  1
  P  P3  1  0.36047700  0.86062000  0.54685200  1
  P  P4  1  0.63952800  0.13946100  0.04669100  1
  P  P5  1  0.63949200  0.13936000  0.54686400  1
  P  P6  1  0.85961100  0.64030600  0.45330200  1
  P  P7  1  0.85981600  0.64022700  0.95353300  1
  O  O0  1  0.99998900  0.49999800  0.40777200  1
  O  O1  1  0.00000100  0.50000800  0.90830700  1
  O  O2  1  0.50002600  0.99999500  0.09091300  1
  O  O3  1  0.49999600  0.99998000  0.59044200  1
  O  O4  1  0.15281300  0.34712100  0.10138800  1
  O  O5  1  0.15256900  0.34738100  0.60119200  1
  O  O6  1  0.34650500  0.84663100  0.39906400  1
  O  O7  1  0.34707100  0.84709200  0.89887300  1
  O  O8  1  0.65346600  0.15335500  0.39907500  1
  O  O9  1  0.65286500  0.15291700  0.89884800  1
  O  O10  1  0.84712500  0.65284900  0.10139500  1
  O  O11  1  0.84741000  0.65263200  0.60120900  1
  O  O12  1  0.08211400  0.19460600  0.38256700  1
  O  O13  1  0.08125400  0.19516200  0.88266400  1
  O  O14  1  0.19616100  0.92186500  0.11780400  1
  O  O15  1  0.19652700  0.92284400  0.61812100  1
  O  O16  1  0.30520000  0.41826400  0.38262200  1
  O  O17  1  0.30469300  0.41913500  0.88275900  1
  O  O18  1  0.42156800  0.69590300  0.11774600  1
  O  O19  1  0.42229900  0.69640600  0.61808400  1
  O  O20  1  0.57845900  0.30406500  0.11776500  1
  O  O21  1  0.57763200  0.30357000  0.61812100  1
  O  O22  1  0.69474900  0.58169100  0.38265600  1
  O  O23  1  0.69535300  0.58090000  0.88272600  1
  O  O24  1  0.80394300  0.07813300  0.11770300  1
  O  O25  1  0.80344700  0.07717800  0.61812200  1
  O  O26  1  0.91782000  0.80536200  0.38258500  1
  O  O27  1  0.91883400  0.80490800  0.88274400  1
loop_
_geom_bond_atom_site_label_1
_geom_bond_atom_site_label_2
_geom_bond_distance
_geom_bond_site_symmetry_2
Li0 O6 1.906495 1_555
Li0 O18 2.142061 1_555
Li0 O14 2.144083 1_555
Li1 O7 1.907440 1_555
Li1 O19 2.145007 1_555
Li1 O15 2.147884 1_555
Li2 O4 1.908143 1_555
Li2 O12 2.136131 1_555
Li2 O16 2.138229 1_555
Li3 O5 1.909830 1_555
Li3 O13 2.142122 1_555
Li3 O17 2.145501 1_555
Li4 O10 1.907963 1_555
Li4 O26 2.135908 1_555
Li4 O22 2.138765 1_555
Li5 O11 1.909640 1_555
Li5 O27 2.143168 1_555
Li5 O23 2.145100 1_555
Li6 O8 1.906644 1_555
Li6 O20 2.141789 1_555
Li6 O24 2.144567 1_555
Li7 O9 1.907419 1_555
Li7 O21 2.145148 1_555
Li7 O25 2.147488 1_555
Fe0 O12 2.039693 1_555
Fe0 O26 2.039818 1_445
Fe0 O25 2.043652 1_455
Fe0 O15 2.043673 1_545
Fe1 O23 2.038547 1_555
Fe1 O17 2.038551 1_555
Fe1 O18 2.041960 1_556
Fe1 O20 2.042055 1_556
Fe2 O13 2.038837 1_555
Fe2 O27 2.039466 1_445
Fe2 O14 2.041428 1_546
Fe2 O24 2.041824 1_456
Fe3 O22 2.039580 1_555
Fe3 O16 2.039864 1_555
Fe3 O19 2.043298 1_555
Fe3 O21 2.043523 1_555
O0 P0 1.618016 1_655
O0 P6 1.618028 1_555
O1 P1 1.615525 1_555
O1 P7 1.615659 1_455
O2 P2 1.617058 1_555
O2 P4 1.617218 1_565
O3 P3 1.614925 1_555
O3 P5 1.614932 1_565
O4 P1 1.503665 1_554
O5 P0 1.503716 1_555
O6 P3 1.504451 1_555
O7 P2 1.504403 1_556
O8 P5 1.504487 1_555
O9 P4 1.504366 1_556
O10 P7 1.503625 1_554
O11 P6 1.503682 1_555
O12 P0 1.551509 1_555
O13 P1 1.551292 1_555
O14 P2 1.550549 1_555
O15 P3 1.550743 1_555
O16 P0 1.551500 1_555
O17 P1 1.551333 1_555
O18 P2 1.550526 1_555
O19 P3 1.550732 1_555
O20 P4 1.550506 1_555
O21 P5 1.550696 1_555
O22 P6 1.551537 1_555
O23 P7 1.551375 1_555
O24 P4 1.550558 1_555
O25 P5 1.550771 1_555
O26 P6 1.551466 1_555
O27 P7 1.551270 1_555
