# generated using pymatgen
data_Li4FeP2O9
_symmetry_space_group_name_H-M   'P 1'
_cell_length_a   14.76014481
_cell_length_b   14.55764388
_cell_length_c   6.72058918
_cell_angle_alpha   90.00000000
_cell_angle_beta   90.00000000
_cell_angle_gamma   90.00000000
_symmetry_Int_Tables_number   1
_chemical_formula_structural   Li4FeP2O9
_chemical_formula_sum   'Li32 Fe8 P16 O72'
_cell_volume   1444.07270027
_cell_formula_units_Z   8
loop_
 _symmetry_equiv_pos_site_id
 _symmetry_equiv_pos_as_xyz
  1  'x, y, z'
loop_
 _atom_site_type_symbol
 _atom_site_label
 _atom_site_symmetry_multiplicity
 _atom_site_fract_x
 _atom_site_fract_y
 _atom_site_fract_z
 _atom_site_occupancy
  Li  Li0  1  0.00487364  0.00121408  0.77598093  1
  Li  Li1  1  0.00487364  0.49878592  0.27598093  1
  Li  Li2  1  0.02755737  0.24753204  0.24693260  1
  Li  Li3  1  0.02755737  0.25246796  0.74693260  1
  Li  Li4  1  0.12470063  0.62732350  0.00146985  1
  Li  Li5  1  0.12470063  0.87267650  0.50146985  1
  Li  Li6  1  0.22835836  0.02165649  0.19914413  1
  Li  Li7  1  0.22835836  0.47834351  0.69914413  1
  Li  Li8  1  0.27164164  0.52165649  0.19914413  1
  Li  Li9  1  0.27164164  0.97834351  0.69914413  1
  Li  Li10  1  0.37529937  0.12732350  0.00146985  1
  Li  Li11  1  0.37529937  0.37267650  0.50146985  1
  Li  Li12  1  0.47244263  0.74753204  0.24693260  1
  Li  Li13  1  0.47244263  0.75246796  0.74693260  1
  Li  Li14  1  0.49512636  0.50121408  0.77598093  1
  Li  Li15  1  0.49512636  0.99878592  0.27598093  1
  Li  Li16  1  0.50487364  0.00121408  0.72401907  1
  Li  Li17  1  0.50487364  0.49878592  0.22401907  1
  Li  Li18  1  0.52755737  0.24753204  0.25306740  1
  Li  Li19  1  0.52755737  0.25246796  0.75306740  1
  Li  Li20  1  0.62470063  0.62732350  0.49853015  1
  Li  Li21  1  0.62470063  0.87267650  0.99853015  1
  Li  Li22  1  0.72835836  0.02165649  0.30085587  1
  Li  Li23  1  0.72835836  0.47834351  0.80085587  1
  Li  Li24  1  0.77164164  0.52165649  0.30085587  1
  Li  Li25  1  0.77164164  0.97834351  0.80085587  1
  Li  Li26  1  0.87529937  0.12732350  0.49853015  1
  Li  Li27  1  0.87529937  0.37267650  0.99853015  1
  Li  Li28  1  0.97244263  0.74753204  0.25306740  1
  Li  Li29  1  0.97244263  0.75246796  0.75306740  1
  Li  Li30  1  0.99512636  0.50121408  0.72401907  1
  Li  Li31  1  0.99512636  0.99878592  0.22401907  1
  Fe  Fe0  1  0.23491024  0.24864719  0.74931908  1
  Fe  Fe1  1  0.23491024  0.25135281  0.24931908  1
  Fe  Fe2  1  0.26508976  0.74864719  0.74931908  1
  Fe  Fe3  1  0.26508976  0.75135281  0.24931908  1
  Fe  Fe4  1  0.73491024  0.24864719  0.75068092  1
  Fe  Fe5  1  0.73491024  0.25135281  0.25068092  1
  Fe  Fe6  1  0.76508976  0.74864719  0.75068092  1
  Fe  Fe7  1  0.76508976  0.75135281  0.25068092  1
  P  P0  1  0.11279211  0.10427525  0.49743228  1
  P  P1  1  0.11279211  0.39572475  0.99743228  1
  P  P2  1  0.11552729  0.86087791  0.00114792  1
  P  P3  1  0.11552729  0.63912209  0.50114792  1
  P  P4  1  0.38447271  0.13912209  0.50114792  1
  P  P5  1  0.38447271  0.36087791  0.00114792  1
  P  P6  1  0.38720789  0.60427525  0.49743228  1
  P  P7  1  0.38720789  0.89572475  0.99743228  1
  P  P8  1  0.61279211  0.10427525  0.00256772  1
  P  P9  1  0.61279211  0.39572475  0.50256772  1
  P  P10  1  0.61552729  0.63912209  0.99885208  1
  P  P11  1  0.61552729  0.86087791  0.49885208  1
  P  P12  1  0.88447271  0.13912209  0.99885208  1
  P  P13  1  0.88447271  0.36087791  0.49885208  1
  P  P14  1  0.88720789  0.60427525  0.00256772  1
  P  P15  1  0.88720789  0.89572475  0.50256772  1
  O  O0  1  0.00965421  0.08702525  0.48777059  1
  O  O1  1  0.00965421  0.41297475  0.98777059  1
  O  O2  1  0.04153324  0.78626592  0.00270539  1
  O  O3  1  0.04153324  0.71373408  0.50270539  1
  O  O4  1  0.08106143  0.53919394  0.51083820  1
  O  O5  1  0.08106143  0.96080606  0.01083820  1
  O  O6  1  0.12991552  0.16288267  0.68708489  1
  O  O7  1  0.12991552  0.33711733  0.18708489  1
  O  O8  1  0.13590332  0.15976338  0.30349471  1
  O  O9  1  0.13590332  0.34023662  0.80349471  1
  O  O10  1  0.17024135  0.01477200  0.49647599  1
  O  O11  1  0.17024135  0.48522800  0.99647599  1
  O  O12  1  0.17340280  0.64709745  0.30556533  1
  O  O13  1  0.17340280  0.85290255  0.80556533  1
  O  O14  1  0.17638331  0.64861637  0.69267386  1
  O  O15  1  0.17638331  0.85138363  0.19267386  1
  O  O16  1  0.24431428  0.20245250  0.00020011  1
  O  O17  1  0.24431428  0.29754750  0.50020011  1
  O  O18  1  0.25568572  0.70245250  0.00020011  1
  O  O19  1  0.25568572  0.79754750  0.50020011  1
  O  O20  1  0.32361669  0.14861637  0.69267386  1
  O  O21  1  0.32361669  0.35138363  0.19267386  1
  O  O22  1  0.32659720  0.14709745  0.30556533  1
  O  O23  1  0.32659720  0.35290255  0.80556533  1
  O  O24  1  0.32975865  0.51477200  0.49647599  1
  O  O25  1  0.32975865  0.98522800  0.99647599  1
  O  O26  1  0.36409668  0.65976338  0.30349471  1
  O  O27  1  0.36409668  0.84023662  0.80349471  1
  O  O28  1  0.37008448  0.66288267  0.68708489  1
  O  O29  1  0.37008448  0.83711733  0.18708489  1
  O  O30  1  0.41893857  0.03919394  0.51083820  1
  O  O31  1  0.41893857  0.46080606  0.01083820  1
  O  O32  1  0.45846676  0.21373408  0.50270539  1
  O  O33  1  0.45846676  0.28626592  0.00270539  1
  O  O34  1  0.49034579  0.58702525  0.48777059  1
  O  O35  1  0.49034579  0.91297475  0.98777059  1
  O  O36  1  0.50965421  0.08702525  0.01222941  1
  O  O37  1  0.50965421  0.41297475  0.51222941  1
  O  O38  1  0.54153324  0.71373408  0.99729461  1
  O  O39  1  0.54153324  0.78626592  0.49729461  1
  O  O40  1  0.58106143  0.53919394  0.98916180  1
  O  O41  1  0.58106143  0.96080606  0.48916180  1
  O  O42  1  0.62991552  0.16288267  0.81291511  1
  O  O43  1  0.62991552  0.33711733  0.31291511  1
  O  O44  1  0.63590332  0.15976338  0.19650529  1
  O  O45  1  0.63590332  0.34023662  0.69650529  1
  O  O46  1  0.67024135  0.01477200  0.00352401  1
  O  O47  1  0.67024135  0.48522800  0.50352401  1
  O  O48  1  0.67340280  0.64709745  0.19443467  1
  O  O49  1  0.67340280  0.85290255  0.69443467  1
  O  O50  1  0.67638331  0.64861637  0.80732614  1
  O  O51  1  0.67638331  0.85138363  0.30732614  1
  O  O52  1  0.74431428  0.20245250  0.49979989  1
  O  O53  1  0.74431428  0.29754750  0.99979989  1
  O  O54  1  0.75568572  0.70245250  0.49979989  1
  O  O55  1  0.75568572  0.79754750  0.99979989  1
  O  O56  1  0.82361669  0.14861637  0.80732614  1
  O  O57  1  0.82361669  0.35138363  0.30732614  1
  O  O58  1  0.82659720  0.14709745  0.19443467  1
  O  O59  1  0.82659720  0.35290255  0.69443467  1
  O  O60  1  0.82975865  0.51477200  0.00352401  1
  O  O61  1  0.82975865  0.98522800  0.50352401  1
  O  O62  1  0.86409668  0.65976338  0.19650529  1
  O  O63  1  0.86409668  0.84023662  0.69650529  1
  O  O64  1  0.87008448  0.66288267  0.81291511  1
  O  O65  1  0.87008448  0.83711733  0.31291511  1
  O  O66  1  0.91893857  0.03919394  0.98916180  1
  O  O67  1  0.91893857  0.46080606  0.48916180  1
  O  O68  1  0.95846676  0.21373408  0.99729461  1
  O  O69  1  0.95846676  0.28626592  0.49729461  1
  O  O70  1  0.99034579  0.58702525  0.01222941  1
  O  O71  1  0.99034579  0.91297475  0.51222941  1
loop_
_geom_bond_atom_site_label_1
_geom_bond_atom_site_label_2
_geom_bond_distance
_geom_bond_site_symmetry_2
Li0 O66 1.991784 1_455
Li0 O5 2.025317 1_546
Li0 O71 2.199558 1_445
Li0 O0 2.305916 1_555
Li1 O67 1.991784 1_455
Li1 O4 2.025317 1_555
Li1 O70 2.199558 1_455
Li1 O1 2.305916 1_554
Li2 O68 2.024049 1_454
Li2 O7 2.035968 1_555
Li2 O69 2.046704 1_455
Li2 O8 2.081940 1_555
Li3 O69 2.024049 1_455
Li3 O6 2.035968 1_555
Li3 O68 2.046704 1_455
Li3 O9 2.081940 1_555
Li4 O70 2.069313 1_455
Li4 O11 2.175309 1_554
Li4 O12 2.185480 1_555
Li4 O18 2.221291 1_555
Li4 O14 2.232677 1_554
Li4 O2 2.619308 1_555
Li5 O71 2.069313 1_455
Li5 O10 2.175309 1_565
Li5 O13 2.185480 1_555
Li5 O19 2.221291 1_555
Li5 O15 2.232677 1_555
Li5 O3 2.619308 1_555
Li6 O25 2.092001 1_544
Li6 O10 2.176896 1_555
Li6 O22 2.439020 1_555
Li6 O8 2.529079 1_555
Li6 O15 2.595136 1_545
Li6 O5 2.667037 1_545
Li7 O24 2.092001 1_555
Li7 O11 2.176896 1_555
Li7 O23 2.439020 1_555
Li7 O9 2.529079 1_555
Li7 O14 2.595136 1_555
Li7 O4 2.667037 1_555
Li8 O11 2.092001 1_554
Li8 O24 2.176896 1_555
Li8 O12 2.439020 1_555
Li8 O26 2.529079 1_555
Li8 O21 2.595136 1_555
Li8 O31 2.667037 1_555
Li9 O10 2.092001 1_565
Li9 O25 2.176896 1_555
Li9 O13 2.439020 1_555
Li9 O27 2.529079 1_555
Li9 O20 2.595136 1_565
Li9 O30 2.667037 1_565
Li10 O36 2.069313 1_555
Li10 O25 2.175309 1_544
Li10 O22 2.185480 1_555
Li10 O16 2.221291 1_555
Li10 O20 2.232677 1_554
Li10 O33 2.619308 1_555
Li11 O37 2.069313 1_555
Li11 O24 2.175309 1_555
Li11 O23 2.185480 1_555
Li11 O17 2.221291 1_555
Li11 O21 2.232677 1_555
Li11 O32 2.619308 1_555
Li12 O38 2.024049 1_554
Li12 O29 2.035968 1_555
Li12 O39 2.046704 1_555
Li12 O26 2.081940 1_555
Li13 O39 2.024049 1_555
Li13 O28 2.035968 1_555
Li13 O38 2.046704 1_555
Li13 O27 2.081940 1_555
Li14 O40 1.991784 1_555
Li14 O31 2.025317 1_556
Li14 O37 2.199558 1_555
Li14 O34 2.305916 1_555
Li15 O41 1.991784 1_555
Li15 O30 2.025317 1_565
Li15 O36 2.199558 1_565
Li15 O35 2.305916 1_554
Li16 O30 1.991784 1_555
Li16 O41 2.025317 1_545
Li16 O35 2.199558 1_545
Li16 O36 2.305916 1_556
Li17 O31 1.991784 1_555
Li17 O40 2.025317 1_554
Li17 O34 2.199558 1_555
Li17 O37 2.305916 1_555
Li18 O32 2.024049 1_555
Li18 O43 2.035968 1_555
Li18 O33 2.046704 1_555
Li18 O44 2.081940 1_555
Li19 O33 2.024049 1_556
Li19 O42 2.035968 1_555
Li19 O32 2.046704 1_555
Li19 O45 2.081940 1_555
Li20 O34 2.069313 1_555
Li20 O47 2.175309 1_555
Li20 O48 2.185480 1_555
Li20 O54 2.221291 1_555
Li20 O50 2.232677 1_555
Li20 O39 2.619308 1_555
Li21 O35 2.069313 1_555
Li21 O46 2.175309 1_566
Li21 O49 2.185480 1_555
Li21 O55 2.221291 1_555
Li21 O51 2.232677 1_556
Li21 O38 2.619308 1_555
Li22 O61 2.092001 1_545
Li22 O46 2.176896 1_555
Li22 O58 2.439020 1_555
Li22 O44 2.529079 1_555
Li22 O51 2.595136 1_545
Li22 O41 2.667037 1_545
Li23 O60 2.092001 1_556
Li23 O47 2.176896 1_555
Li23 O59 2.439020 1_555
Li23 O45 2.529079 1_555
Li23 O50 2.595136 1_555
Li23 O40 2.667037 1_555
Li24 O47 2.092001 1_555
Li24 O60 2.176896 1_555
Li24 O48 2.439020 1_555
Li24 O62 2.529079 1_555
Li24 O57 2.595136 1_555
Li24 O67 2.667037 1_555
Li25 O46 2.092001 1_566
Li25 O61 2.176896 1_555
Li25 O49 2.439020 1_555
Li25 O63 2.529079 1_555
Li25 O56 2.595136 1_565
Li25 O66 2.667037 1_565
Li26 O0 2.069313 1_655
Li26 O61 2.175309 1_545
Li26 O58 2.185480 1_555
Li26 O52 2.221291 1_555
Li26 O56 2.232677 1_555
Li26 O69 2.619308 1_555
Li27 O1 2.069313 1_655
Li27 O60 2.175309 1_556
Li27 O59 2.185480 1_555
Li27 O53 2.221291 1_555
Li27 O57 2.232677 1_556
Li27 O68 2.619308 1_555
Li28 O3 2.024049 1_655
Li28 O65 2.035968 1_555
Li28 O2 2.046704 1_655
Li28 O62 2.081940 1_555
Li29 O2 2.024049 1_656
Li29 O64 2.035968 1_555
Li29 O3 2.046704 1_655
Li29 O63 2.081940 1_555
Li30 O4 1.991784 1_655
Li30 O67 2.025317 1_555
Li30 O1 2.199558 1_655
Li30 O70 2.305916 1_556
Li31 O5 1.991784 1_655
Li31 O66 2.025317 1_564
Li31 O0 2.199558 1_665
Li31 O71 2.305916 1_555
Fe0 O16 1.820530 1_556
Fe0 O17 1.824572 1_555
Fe0 O20 1.994944 1_555
Fe0 O9 2.011439 1_555
Fe0 O6 2.033579 1_555
Fe0 O23 2.068283 1_555
Fe1 O17 1.820530 1_555
Fe1 O16 1.824572 1_555
Fe1 O21 1.994944 1_555
Fe1 O8 2.011439 1_555
Fe1 O7 2.033579 1_555
Fe1 O22 2.068283 1_555
Fe2 O18 1.820530 1_556
Fe2 O19 1.824572 1_555
Fe2 O14 1.994944 1_555
Fe2 O27 2.011439 1_555
Fe2 O28 2.033579 1_555
Fe2 O13 2.068283 1_555
Fe3 O19 1.820530 1_555
Fe3 O18 1.824572 1_555
Fe3 O15 1.994944 1_555
Fe3 O26 2.011439 1_555
Fe3 O29 2.033579 1_555
Fe3 O12 2.068283 1_555
Fe4 O52 1.820530 1_555
Fe4 O53 1.824572 1_555
Fe4 O56 1.994944 1_555
Fe4 O45 2.011439 1_555
Fe4 O42 2.033579 1_555
Fe4 O59 2.068283 1_555
Fe5 O53 1.820530 1_554
Fe5 O52 1.824572 1_555
Fe5 O57 1.994944 1_555
Fe5 O44 2.011439 1_555
Fe5 O43 2.033579 1_555
Fe5 O58 2.068283 1_555
Fe6 O54 1.820530 1_555
Fe6 O55 1.824572 1_555
Fe6 O50 1.994944 1_555
Fe6 O63 2.011439 1_555
Fe6 O64 2.033579 1_555
Fe6 O49 2.068283 1_555
Fe7 O55 1.820530 1_554
Fe7 O54 1.824572 1_555
Fe7 O51 1.994944 1_555
Fe7 O62 2.011439 1_555
Fe7 O65 2.033579 1_555
Fe7 O48 2.068283 1_555
O0 P0 1.544269 1_555
O1 P1 1.544269 1_555
O2 P2 1.540359 1_555
O3 P3 1.540359 1_555
O4 P3 1.542480 1_555
O5 P2 1.542480 1_555
O6 P0 1.554462 1_555
O7 P1 1.554462 1_554
O8 P0 1.570877 1_555
O9 P1 1.570877 1_555
O10 P0 1.554597 1_555
O11 P1 1.554597 1_555
O12 P3 1.571926 1_555
O13 P2 1.571926 1_556
O14 P3 1.575673 1_555
O15 P2 1.575673 1_555
O20 P4 1.575673 1_555
O21 P5 1.575673 1_555
O22 P4 1.571926 1_555
O23 P5 1.571926 1_556
O24 P6 1.554597 1_555
O25 P7 1.554597 1_555
O26 P6 1.570877 1_555
O27 P7 1.570877 1_555
O28 P6 1.554462 1_555
O29 P7 1.554462 1_554
O30 P4 1.542480 1_555
O31 P5 1.542480 1_555
O32 P4 1.540359 1_555
O33 P5 1.540359 1_555
O34 P6 1.544269 1_555
O35 P7 1.544269 1_555
O36 P8 1.544269 1_555
O37 P9 1.544269 1_555
O38 P10 1.540359 1_555
O39 P11 1.540359 1_555
O40 P10 1.542480 1_555
O41 P11 1.542480 1_555
O42 P8 1.554462 1_556
O43 P9 1.554462 1_555
O44 P8 1.570877 1_555
O45 P9 1.570877 1_555
O46 P8 1.554597 1_555
O47 P9 1.554597 1_555
O48 P10 1.571926 1_554
O49 P11 1.571926 1_555
O50 P10 1.575673 1_555
O51 P11 1.575673 1_555
O56 P12 1.575673 1_555
O57 P13 1.575673 1_555
O58 P12 1.571926 1_554
O59 P13 1.571926 1_555
O60 P14 1.554597 1_555
O61 P15 1.554597 1_555
O62 P14 1.570877 1_555
O63 P15 1.570877 1_555
O64 P14 1.554462 1_556
O65 P15 1.554462 1_555
O66 P12 1.542480 1_555
O67 P13 1.542480 1_555
O68 P12 1.540359 1_555
O69 P13 1.540359 1_555
O70 P14 1.544269 1_555
O71 P15 1.544269 1_555
