# generated using pymatgen
data_Li4Mn2Fe3Ni3O16
_symmetry_space_group_name_H-M   'P 1'
_cell_length_a   5.83062781
_cell_length_b   5.83062781
_cell_length_c   9.37816769
_cell_angle_alpha   88.51077322
_cell_angle_beta   88.51077322
_cell_angle_gamma   59.21290275
_symmetry_Int_Tables_number   1
_chemical_formula_structural   Li4Mn2Fe3Ni3O16
_chemical_formula_sum   'Li4 Mn2 Fe3 Ni3 O16'
_cell_volume   273.76989953
_cell_formula_units_Z   1
loop_
 _symmetry_equiv_pos_site_id
 _symmetry_equiv_pos_as_xyz
  1  'x, y, z'
loop_
 _atom_site_type_symbol
 _atom_site_label
 _atom_site_symmetry_multiplicity
 _atom_site_fract_x
 _atom_site_fract_y
 _atom_site_fract_z
 _atom_site_occupancy
  Li  Li0  1  0.66218200  0.66218200  0.10471700  1
  Li  Li1  1  0.99678400  0.99678400  0.00801600  1
  Li  Li2  1  0.99769200  0.99769200  0.50523600  1
  Li  Li3  1  0.33377400  0.33377400  0.59943300  1
  Mn  Mn0  1  0.67206900  0.67206900  0.51302700  1
  Mn  Mn1  1  0.33220300  0.33220300  0.01577500  1
  Fe  Fe0  1  0.33946000  0.83028300  0.78678800  1
  Fe  Fe1  1  0.83028300  0.33946000  0.78678800  1
  Fe  Fe2  1  0.16927200  0.16927200  0.28632400  1
  Ni  Ni0  1  0.82927600  0.82927600  0.78882700  1
  Ni  Ni1  1  0.16725900  0.65940400  0.28744000  1
  Ni  Ni2  1  0.65940400  0.16725900  0.28744000  1
  O  O0  1  0.33907300  0.84475300  0.40382400  1
  O  O1  1  0.52029500  0.52029500  0.65223800  1
  O  O2  1  0.67174200  0.67174200  0.89428800  1
  O  O3  1  0.99304200  0.99304200  0.69596700  1
  O  O4  1  0.99378400  0.99378400  0.19668500  1
  O  O5  1  0.84475300  0.33907300  0.40382400  1
  O  O6  1  0.51891700  0.96070600  0.65138100  1
  O  O7  1  0.96070600  0.51891700  0.65138100  1
  O  O8  1  0.16953200  0.16953200  0.89999600  1
  O  O9  1  0.83839200  0.83839200  0.40504000  1
  O  O10  1  0.03488300  0.46881900  0.15341300  1
  O  O11  1  0.46881900  0.03488300  0.15341300  1
  O  O12  1  0.33842900  0.33842900  0.38910200  1
  O  O13  1  0.17148400  0.66368800  0.90754600  1
  O  O14  1  0.47537100  0.47537100  0.15659300  1
  O  O15  1  0.66368800  0.17148400  0.90754600  1
loop_
_geom_bond_atom_site_label_1
_geom_bond_atom_site_label_2
_geom_bond_distance
_geom_bond_site_symmetry_2
Li0 O10 1.928392 1_655
Li0 O11 1.928392 1_565
Li0 O14 1.941378 1_555
Li0 O2 1.972921 1_554
Li1 O4 1.768722 1_555
Li1 O13 1.928051 1_654
Li1 O15 1.928051 1_564
Li1 O8 1.996931 1_664
Li2 O3 1.787919 1_555
Li2 O9 1.892681 1_555
Li2 O5 1.946872 1_565
Li2 O0 1.946872 1_655
Li3 O6 1.924240 1_545
Li3 O7 1.924240 1_455
Li3 O1 1.969123 1_555
Li3 O12 1.971673 1_555
Mn0 O9 1.940913 1_555
Mn0 O6 1.956538 1_555
Mn0 O7 1.956538 1_555
Mn0 O0 1.969986 1_555
Mn0 O5 1.969986 1_555
Mn0 O1 1.988026 1_555
Mn1 O15 1.933209 1_554
Mn1 O13 1.933209 1_554
Mn1 O11 1.956889 1_555
Mn1 O10 1.956889 1_555
Mn1 O14 1.991383 1_555
Mn1 O8 2.001534 1_554
Fe0 O3 1.947035 1_455
Fe0 O2 1.960651 1_555
Fe0 O6 1.995240 1_555
Fe0 O13 2.011059 1_555
Fe0 O1 2.017235 1_555
Fe0 O8 2.017344 1_565
Fe1 O3 1.947035 1_545
Fe1 O2 1.960651 1_555
Fe1 O7 1.995240 1_555
Fe1 O15 2.011059 1_555
Fe1 O1 2.017235 1_555
Fe1 O8 2.017344 1_655
Fe2 O11 1.937707 1_555
Fe2 O10 1.937707 1_555
Fe2 O0 1.950718 1_545
Fe2 O5 1.950718 1_455
Fe2 O4 1.990419 1_445
Fe2 O12 1.992294 1_555
Ni0 O3 1.851707 1_555
Ni0 O2 1.853318 1_555
Ni0 O7 2.042955 1_555
Ni0 O6 2.042955 1_555
Ni0 O15 2.059233 1_565
Ni0 O13 2.059233 1_655
Ni1 O12 1.857997 1_555
Ni1 O4 1.867710 1_455
Ni1 O14 1.965968 1_555
Ni1 O9 1.970689 1_455
Ni1 O10 2.100349 1_555
Ni1 O0 2.142246 1_555
Ni2 O12 1.857997 1_555
Ni2 O4 1.867710 1_545
Ni2 O14 1.965968 1_555
Ni2 O9 1.970689 1_545
Ni2 O11 2.100349 1_555
Ni2 O5 2.142246 1_555
