# generated using pymatgen
data_Li3CoSiBO7
_symmetry_space_group_name_H-M   'P 1'
_cell_length_a   6.13820900
_cell_length_b   5.01818200
_cell_length_c   8.32324687
_cell_angle_alpha   84.11071737
_cell_angle_beta   90.00000000
_cell_angle_gamma   90.00000000
_symmetry_Int_Tables_number   1
_chemical_formula_structural   Li3CoSiBO7
_chemical_formula_sum   'Li6 Co2 Si2 B2 O14'
_cell_volume   255.02490309
_cell_formula_units_Z   2
loop_
 _symmetry_equiv_pos_site_id
 _symmetry_equiv_pos_as_xyz
  1  'x, y, z'
loop_
 _atom_site_type_symbol
 _atom_site_label
 _atom_site_symmetry_multiplicity
 _atom_site_fract_x
 _atom_site_fract_y
 _atom_site_fract_z
 _atom_site_occupancy
  Li  Li0  1  0.75000000  0.24142900  0.89472800  1
  Li  Li1  1  0.00153200  0.74747100  0.74948100  1
  Li  Li2  1  0.49846800  0.74747100  0.74948100  1
  Li  Li3  1  0.50153200  0.25252900  0.25051900  1
  Li  Li4  1  0.99846800  0.25252900  0.25051900  1
  Li  Li5  1  0.25000000  0.75857100  0.10527200  1
  Co  Co0  1  0.25000000  0.19951800  0.68519600  1
  Co  Co1  1  0.75000000  0.80048200  0.31480400  1
  Si  Si0  1  0.75000000  0.27684100  0.56908200  1
  Si  Si1  1  0.25000000  0.72315900  0.43091800  1
  B  B0  1  0.25000000  0.28608200  0.95994900  1
  B  B1  1  0.75000000  0.71391800  0.04005100  1
  O  O0  1  0.75000000  0.64161400  0.88950100  1
  O  O1  1  0.25000000  0.02927700  0.91088800  1
  O  O2  1  0.25000000  0.47312900  0.82234900  1
  O  O3  1  0.94753500  0.18088000  0.69822000  1
  O  O4  1  0.55246500  0.18088000  0.69822000  1
  O  O5  1  0.75000000  0.60294000  0.52458800  1
  O  O6  1  0.25000000  0.86675500  0.59646900  1
  O  O7  1  0.75000000  0.13324500  0.40353100  1
  O  O8  1  0.25000000  0.39706000  0.47541200  1
  O  O9  1  0.44753500  0.81912000  0.30178000  1
  O  O10  1  0.05246500  0.81912000  0.30178000  1
  O  O11  1  0.75000000  0.52687100  0.17765100  1
  O  O12  1  0.75000000  0.97072300  0.08911200  1
  O  O13  1  0.25000000  0.35838600  0.11049900  1
loop_
_geom_bond_atom_site_label_1
_geom_bond_atom_site_label_2
_geom_bond_distance
_geom_bond_site_symmetry_2
Li0 O12 2.002994 1_546
Li0 O0 2.004204 1_555
Li0 O3 2.083177 1_555
Li0 O4 2.083177 1_555
Li1 O0 1.974119 1_455
Li1 O6 2.037128 1_555
Li1 O2 2.101873 1_555
Li1 O3 2.198128 1_465
Li1 O1 2.553543 1_565
Li1 O5 2.586933 1_455
Li2 O0 1.974119 1_555
Li2 O6 2.037128 1_555
Li2 O2 2.101873 1_555
Li2 O4 2.198128 1_565
Li2 O1 2.553543 1_565
Li2 O5 2.586933 1_555
Li3 O13 1.974119 1_555
Li3 O7 2.037128 1_555
Li3 O11 2.101873 1_555
Li3 O9 2.198128 1_545
Li3 O12 2.553543 1_545
Li3 O8 2.586933 1_555
Li4 O13 1.974119 1_655
Li4 O7 2.037128 1_555
Li4 O11 2.101873 1_555
Li4 O10 2.198128 1_645
Li4 O12 2.553543 1_545
Li4 O8 2.586933 1_655
Li5 O1 2.002994 1_564
Li5 O13 2.004204 1_555
Li5 O10 2.083177 1_555
Li5 O9 2.083177 1_555
Co0 O4 1.861547 1_555
Co0 O3 1.861547 1_455
Co0 O2 1.873504 1_555
Co0 O6 1.893910 1_545
Co0 O8 1.917364 1_555
Co0 O1 1.982229 1_555
Co1 O9 1.861547 1_555
Co1 O10 1.861547 1_655
Co1 O11 1.873504 1_555
Co1 O7 1.893910 1_565
Co1 O5 1.917364 1_555
Co1 O12 1.982229 1_555
B0 O13 1.339821 1_556
B0 O1 1.391212 1_555
B0 O2 1.404314 1_555
B1 O0 1.339821 1_554
B1 O12 1.391212 1_555
B1 O11 1.404314 1_555
O3 Si0 1.658660 1_555
O4 Si0 1.658660 1_555
O5 Si0 1.640325 1_555
O6 Si1 1.619160 1_555
O7 Si0 1.619160 1_555
O8 Si1 1.640325 1_555
O9 Si1 1.658660 1_555
O10 Si1 1.658660 1_555
