# generated using pymatgen
data_Na3Ni7O12
_symmetry_space_group_name_H-M   'P 1'
_cell_length_a   5.41486956
_cell_length_b   5.82384226
_cell_length_c   7.69484211
_cell_angle_alpha   99.57984083
_cell_angle_beta   84.20419524
_cell_angle_gamma   74.01705305
_symmetry_Int_Tables_number   1
_chemical_formula_structural   Na3Ni7O12
_chemical_formula_sum   'Na3 Ni7 O12'
_cell_volume   227.25070087
_cell_formula_units_Z   1
loop_
 _symmetry_equiv_pos_site_id
 _symmetry_equiv_pos_as_xyz
  1  'x, y, z'
loop_
 _atom_site_type_symbol
 _atom_site_label
 _atom_site_symmetry_multiplicity
 _atom_site_fract_x
 _atom_site_fract_y
 _atom_site_fract_z
 _atom_site_occupancy
  Na  Na0  1  0.49516000  0.42062100  0.16537000  1
  Na  Na1  1  0.50071200  0.91699500  0.17101700  1
  Na  Na2  1  0.50354100  0.72776800  0.51655100  1
  Ni  Ni0  1  0.01182900  0.99744900  0.99382200  1
  Ni  Ni1  1  0.99824500  0.50304200  0.99644600  1
  Ni  Ni2  1  0.99894900  0.33112700  0.33792100  1
  Ni  Ni3  1  0.99295300  0.16845200  0.67027500  1
  Ni  Ni4  1  0.00357700  0.66570200  0.66859800  1
  Ni  Ni5  1  0.99102700  0.83837700  0.33323800  1
  Ni  Ni6  1  0.49810200  0.09534700  0.82316900  1
  O  O0  1  0.22241000  0.19831500  0.06311400  1
  O  O1  1  0.18019700  0.05364200  0.43421500  1
  O  O2  1  0.20413000  0.73522500  0.08072100  1
  O  O3  1  0.18282400  0.57526500  0.42743400  1
  O  O4  1  0.19979000  0.36510300  0.75058400  1
  O  O5  1  0.20763500  0.91439500  0.76334300  1
  O  O6  1  0.81653000  0.09929500  0.22510500  1
  O  O7  1  0.80281700  0.43058800  0.58747500  1
  O  O8  1  0.80639100  0.60992800  0.24807600  1
  O  O9  1  0.79423000  0.25536000  0.90183300  1
  O  O10  1  0.78573300  0.96108800  0.60264300  1
  O  O11  1  0.80321900  0.80358500  0.90571500  1
loop_
_geom_bond_atom_site_label_1
_geom_bond_atom_site_label_2
_geom_bond_distance
_geom_bond_site_symmetry_2
Na0 O2 2.297637 1_555
Na0 O6 2.322918 1_555
Na0 O0 2.329205 1_555
Na0 O8 2.338151 1_555
Na0 O9 2.343057 1_554
Na0 O3 2.367656 1_555
Na1 O0 2.233921 1_565
Na1 O2 2.258154 1_555
Na1 O8 2.282641 1_555
Na1 O6 2.285043 1_565
Na1 O11 2.359445 1_554
Na1 O1 2.395866 1_565
Na2 O7 2.206323 1_555
Na2 O5 2.257070 1_555
Na2 O3 2.272045 1_555
Na2 O8 2.377428 1_555
Na2 O10 2.380839 1_555
Na2 O1 2.421377 1_565
Ni0 O2 1.862358 1_556
Ni0 O5 1.885656 1_555
Ni0 O6 1.886942 1_466
Ni0 O0 1.898087 1_566
Ni0 O11 1.900679 1_455
Ni0 O9 1.921758 1_465
Ni1 O4 2.002468 1_655
Ni1 O8 2.013019 1_556
Ni1 O0 2.031877 1_656
Ni1 O2 2.043566 1_656
Ni1 O11 2.050360 1_555
Ni1 O9 2.126397 1_555
Ni2 O8 1.946379 1_555
Ni2 O1 1.948280 1_655
Ni2 O7 2.007488 1_555
Ni2 O6 2.017356 1_555
Ni2 O3 2.019774 1_655
Ni2 O0 2.226508 1_655
Ni3 O7 1.840439 1_555
Ni3 O4 1.886399 1_655
Ni3 O9 1.897778 1_555
Ni3 O1 1.903940 1_655
Ni3 O5 1.904471 1_645
Ni3 O10 1.908742 1_545
Ni4 O3 1.921599 1_555
Ni4 O11 1.945177 1_455
Ni4 O10 1.975445 1_455
Ni4 O4 2.017485 1_555
Ni4 O7 2.029435 1_455
Ni4 O5 2.131359 1_555
Ni5 O3 1.896656 1_655
Ni5 O6 1.919135 1_565
Ni5 O1 1.941235 1_665
Ni5 O8 1.942612 1_555
Ni5 O2 2.060307 1_655
Ni5 O10 2.155897 1_555
Ni6 O10 2.066541 1_545
Ni6 O4 2.113307 1_555
Ni6 O0 2.139845 1_556
Ni6 O9 2.153415 1_555
Ni6 O5 2.166537 1_545
Ni6 O11 2.246217 1_545
