# generated using pymatgen
data_Na9Zr8Si4(PO6)8
_symmetry_space_group_name_H-M   'P 1'
_cell_length_a   9.09502700
_cell_length_b   9.35824078
_cell_length_c   15.83456409
_cell_angle_alpha   106.88916504
_cell_angle_beta   89.42091595
_cell_angle_gamma   118.78058660
_symmetry_Int_Tables_number   1
_chemical_formula_structural   Na9Zr8Si4(PO6)8
_chemical_formula_sum   'Na9 Zr8 Si4 P8 O48'
_cell_volume   1116.68723477
_cell_formula_units_Z   1
loop_
 _symmetry_equiv_pos_site_id
 _symmetry_equiv_pos_as_xyz
  1  'x, y, z'
loop_
 _atom_site_type_symbol
 _atom_site_label
 _atom_site_symmetry_multiplicity
 _atom_site_fract_x
 _atom_site_fract_y
 _atom_site_fract_z
 _atom_site_occupancy
  Na  Na0  1  0.23254500  0.48306700  0.62236400  1
  Na  Na1  1  0.17994400  0.96162600  0.77281900  1
  Na  Na2  1  0.32364200  0.11279000  0.56448500  1
  Na  Na3  1  0.72655900  0.49530200  0.12300400  1
  Na  Na4  1  0.23370200  0.45281000  0.87626400  1
  Na  Na5  1  0.57600000  0.97917900  0.51819600  1
  Na  Na6  1  0.63676400  0.01298100  0.24388100  1
  Na  Na7  1  0.84235500  0.09549500  0.06329600  1
  Na  Na8  1  0.78210700  0.51859600  0.37359200  1
  Zr  Zr0  1  0.78499000  0.72462800  0.91779400  1
  Zr  Zr1  1  0.48463600  0.27135200  0.82819700  1
  Zr  Zr2  1  0.27846200  0.71968900  0.41672900  1
  Zr  Zr3  1  0.99283100  0.28603100  0.32691100  1
  Zr  Zr4  1  0.02796000  0.70439000  0.67465800  1
  Zr  Zr5  1  0.73787000  0.27713400  0.58761200  1
  Zr  Zr6  1  0.52229800  0.71132100  0.16893600  1
  Zr  Zr7  1  0.26343500  0.25271100  0.10255500  1
  Si  Si0  1  0.02955000  0.21739800  0.76657200  1
  Si  Si1  1  0.58125600  0.53035500  0.61599700  1
  Si  Si2  1  0.56688600  0.21343200  0.31185200  1
  Si  Si3  1  0.07811100  0.51853100  0.11746200  1
  P  P0  1  0.50530000  0.78034700  0.97812900  1
  P  P1  1  0.00781300  0.21771100  0.52669100  1
  P  P2  1  0.92678900  0.50547000  0.87342600  1
  P  P3  1  0.48058300  0.75115000  0.72779200  1
  P  P4  1  0.01550400  0.79171800  0.47769300  1
  P  P5  1  0.50361900  0.21931200  0.02058300  1
  P  P6  1  0.43452800  0.49925600  0.37713400  1
  P  P7  1  0.98304200  0.73517700  0.23282400  1
  O  O0  1  0.47216900  0.22292200  0.93916500  1
  O  O1  1  0.91661800  0.01619200  0.84275000  1
  O  O2  1  0.74638400  0.39102300  0.84857200  1
  O  O3  1  0.22694900  0.21857600  0.78940300  1
  O  O4  1  0.56149600  0.36469100  0.59890400  1
  O  O5  1  0.46626900  0.67844600  0.53090800  1
  O  O6  1  0.49068900  0.38694400  0.70317600  1
  O  O7  1  0.44647100  0.96911000  0.88634900  1
  O  O8  1  0.15264900  0.40263700  0.52018200  1
  O  O9  1  0.83717400  0.21737300  0.52771700  1
  O  O10  1  0.91015900  0.64926200  0.88130900  1
  O  O11  1  0.67427200  0.24042400  0.68308600  1
  O  O12  1  0.65236800  0.76455000  0.96689600  1
  O  O13  1  0.35505700  0.58701400  0.00578100  1
  O  O14  1  0.06275800  0.02360800  0.61363500  1
  O  O15  1  0.98591600  0.22670400  0.44605300  1
  O  O16  1  0.02858200  0.65085700  0.79284000  1
  O  O17  1  0.40832500  0.00886700  0.34262400  1
  O  O18  1  0.02320800  0.35274600  0.95593100  1
  O  O19  1  0.26063800  0.36591100  0.36100500  1
  O  O20  1  0.73575000  0.21575100  0.30073200  1
  O  O21  1  0.05884700  0.34474400  0.10644000  1
  O  O22  1  0.58022100  0.74686500  0.81279200  1
  O  O23  1  0.30271400  0.78397200  0.70974200  1
  O  O24  1  0.77591600  0.65689200  0.62732000  1
  O  O25  1  0.95947200  0.65824600  0.03102800  1
  O  O26  1  0.56644200  0.96934000  0.63925400  1
  O  O27  1  0.98989200  0.39024100  0.20471500  1
  O  O28  1  0.08123400  0.81375800  0.55418200  1
  O  O29  1  0.96304600  0.98222800  0.38917700  1
  O  O30  1  0.65279700  0.40468500  0.00887000  1
  O  O31  1  0.33805500  0.22542200  0.02073000  1
  O  O32  1  0.03735600  0.42169000  0.74704000  1
  O  O33  1  0.40733500  0.62318200  0.39320800  1
  O  O34  1  0.17867300  0.23044600  0.18934800  1
  O  O35  1  0.16335500  0.77132700  0.46924100  1
  O  O36  1  0.86173000  0.59856300  0.50105300  1
  O  O37  1  0.56102600  0.02698900  0.10745300  1
  O  O38  1  0.96042500  0.23449200  0.67411200  1
  O  O39  1  0.53194900  0.65001000  0.29605100  1
  O  O40  1  0.54193600  0.35290000  0.46090700  1
  O  O41  1  0.06586000  0.71588300  0.32448500  1
  O  O42  1  0.80367500  0.76964100  0.20938200  1
  O  O43  1  0.27257600  0.64727000  0.12993400  1
  O  O44  1  0.08476800  0.94472200  0.15552000  1
  O  O45  1  0.57772200  0.82157000  0.04881400  1
  O  O46  1  0.52545000  0.42923200  0.23714800  1
  O  O47  1  0.47384900  0.21552000  0.17408500  1
loop_
_geom_bond_atom_site_label_1
_geom_bond_atom_site_label_2
_geom_bond_distance
_geom_bond_site_symmetry_2
Na0 O8 1.581770 1_555
Na0 O23 2.504940 1_555
Na0 O32 2.642919 1_555
Na0 O5 2.773570 1_555
Na1 O3 2.163175 1_565
Na1 Zr4 2.187889 1_555
Na1 O23 2.410090 1_555
Na1 O16 2.669330 1_555
Na1 O1 2.831643 1_465
Na2 O4 2.213769 1_555
Na2 O14 2.316338 1_555
Na2 O28 2.553350 1_545
Na2 O6 2.598802 1_555
Na2 O35 2.714678 1_545
Na3 O30 1.738273 1_555
Na3 O42 2.280146 1_555
Na3 O46 2.547187 1_555
Na3 O25 2.655438 1_555
Na3 O47 2.861905 1_555
Na4 O13 2.053264 1_556
Na4 O3 2.195617 1_555
Na4 O18 2.246036 1_555
Na4 Si0 2.284924 1_555
Na4 O32 2.586036 1_555
Na5 O26 1.944742 1_555
Na5 O5 2.564671 1_555
Na6 O20 1.612609 1_555
Na6 O37 2.332394 1_555
Na6 Zr6 2.389552 1_545
Na6 O17 2.579755 1_555
Na7 O21 2.112641 1_655
Na7 O37 2.468112 1_555
Na7 O45 2.478985 1_545
Na7 O12 2.657252 1_544
Na7 O27 2.707611 1_555
Na8 O36 1.946293 1_555
Na8 O20 2.549569 1_555
Na8 O40 2.647749 1_555
Na8 O46 2.826409 1_555
O0 P5 1.336828 1_556
O0 Zr1 1.927429 1_555
O1 Si0 2.342613 1_655
O1 Zr0 2.999981 1_545
O2 P2 1.438802 1_555
O2 Zr1 2.064937 1_555
O3 Si0 1.829164 1_555
O3 Zr1 2.202793 1_555
O4 Si1 1.413486 1_555
O4 O6 1.758433 1_555
O4 Zr5 2.109808 1_555
O6 Si1 2.091479 1_555
O6 Zr1 2.505384 1_555
O8 P1 1.626822 1_555
O9 Zr5 1.479474 1_555
O9 P1 1.550376 1_655
O10 P2 1.395424 1_555
O10 Zr0 1.627969 1_555
O11 Zr5 1.682514 1_555
O12 P0 1.418785 1_555
O12 Zr0 1.563715 1_555
O13 P0 1.843899 1_554
O13 Zr6 2.640202 1_555
O15 P1 1.326971 1_655
O15 Zr3 2.108052 1_555
O16 Zr4 2.073806 1_555
O17 Si2 1.962490 1_555
O17 Zr2 2.972331 1_545
O19 P6 1.430486 1_555
O19 Zr3 2.195857 1_455
O20 Si2 1.534564 1_555
O20 Zr3 2.109929 1_555
O21 Si3 1.505808 1_555
O21 O27 1.687776 1_455
O21 Zr7 2.391223 1_555
O22 P3 1.650873 1_555
O23 P3 1.825345 1_555
O23 Zr4 2.259068 1_555
O24 Si1 1.559858 1_555
O24 Zr4 2.207778 1_655
O25 P2 2.427530 1_554
O25 Zr0 2.788025 1_554
O27 Si3 2.001953 1_655
O27 Zr3 2.412105 1_555
O28 P4 1.271854 1_555
O28 Zr4 2.357933 1_555
O30 P5 1.673355 1_555
O31 Zr7 1.470174 1_555
O31 P5 1.534110 1_555
O32 O38 1.597699 1_455
O32 Si0 1.992021 1_555
O32 P2 2.331920 1_455
O33 P6 1.254722 1_555
O33 Zr2 1.772918 1_555
O34 Zr7 1.586443 1_555
O35 P4 1.446090 1_555
O35 Zr2 1.502331 1_555
O36 P4 1.817682 1_655
O38 Si0 1.678052 1_655
O39 O46 1.976358 1_555
O39 P6 2.061467 1_555
O39 Zr6 2.260844 1_555
O40 Si2 2.410410 1_555
O40 Si1 2.448027 1_555
O41 P7 1.735478 1_455
O42 P7 1.868565 1_555
O42 Zr6 2.396314 1_555
O43 Si3 1.560658 1_555
O43 Zr6 2.097984 1_555
O44 P7 2.413419 1_455
O44 Zr7 2.918618 1_565
O45 P0 1.163949 1_554
O45 Zr6 2.357239 1_555
O46 O47 1.778354 1_555
O46 P6 2.380628 1_555
O46 Zr7 2.686307 1_555
O47 Si2 2.356533 1_555
O47 Zr7 2.445520 1_555
O47 P5 2.451557 1_555
