# generated using pymatgen
data_Na2Zr(SiO3)6
_symmetry_space_group_name_H-M   'P 1'
_cell_length_a   7.27992100
_cell_length_b   7.44165300
_cell_length_c   14.61734100
_cell_angle_alpha   90.00000000
_cell_angle_beta   90.00000000
_cell_angle_gamma   90.00000000
_symmetry_Int_Tables_number   1
_chemical_formula_structural   Na2Zr(SiO3)6
_chemical_formula_sum   'Na4 Zr2 Si12 O36'
_cell_volume   791.88927340
_cell_formula_units_Z   2
loop_
 _symmetry_equiv_pos_site_id
 _symmetry_equiv_pos_as_xyz
  1  'x, y, z'
loop_
 _atom_site_type_symbol
 _atom_site_label
 _atom_site_symmetry_multiplicity
 _atom_site_fract_x
 _atom_site_fract_y
 _atom_site_fract_z
 _atom_site_occupancy
  Na  Na0  1  0.00382900  0.02983300  0.75000000  1
  Na  Na1  1  0.00382900  0.97016700  0.25000000  1
  Na  Na2  1  0.49963200  0.00000000  0.50000000  1
  Na  Na3  1  0.49963200  0.00000000  0.00000000  1
  Zr  Zr0  1  0.00251900  0.00000000  0.50000000  1
  Zr  Zr1  1  0.00251900  0.00000000  0.00000000  1
  Si  Si0  1  0.28337400  0.71391700  0.64147300  1
  Si  Si1  1  0.28337400  0.28608300  0.35852700  1
  Si  Si2  1  0.28337400  0.71391700  0.85852700  1
  Si  Si3  1  0.28337400  0.28608300  0.14147300  1
  Si  Si4  1  0.72341300  0.72103800  0.64258300  1
  Si  Si5  1  0.72341300  0.27896200  0.35741700  1
  Si  Si6  1  0.72341300  0.72103800  0.85741700  1
  Si  Si7  1  0.72341300  0.27896200  0.14258300  1
  Si  Si8  1  0.00517000  0.40661600  0.64032400  1
  Si  Si9  1  0.00517000  0.59338400  0.35967600  1
  Si  Si10  1  0.00517000  0.40661600  0.85967600  1
  Si  Si11  1  0.00517000  0.59338400  0.14032400  1
  O  O0  1  0.23584100  0.76019100  0.75000000  1
  O  O1  1  0.23584100  0.23980900  0.25000000  1
  O  O2  1  0.21251300  0.87909600  0.57924700  1
  O  O3  1  0.21251300  0.12090400  0.42075300  1
  O  O4  1  0.21251300  0.87909600  0.92075300  1
  O  O5  1  0.21251300  0.12090400  0.07924700  1
  O  O6  1  0.18908800  0.52228000  0.61389900  1
  O  O7  1  0.18908800  0.47772000  0.38610100  1
  O  O8  1  0.18908800  0.52228000  0.88610100  1
  O  O9  1  0.18908800  0.47772000  0.11389900  1
  O  O10  1  0.01340900  0.35786700  0.75000000  1
  O  O11  1  0.01340900  0.64213300  0.25000000  1
  O  O12  1  0.99645200  0.21492900  0.59088000  1
  O  O13  1  0.99645200  0.78507100  0.40912000  1
  O  O14  1  0.99645200  0.21492900  0.90912000  1
  O  O15  1  0.99645200  0.78507100  0.09088000  1
  O  O16  1  0.50388900  0.68896000  0.62872200  1
  O  O17  1  0.50388900  0.31104000  0.37127800  1
  O  O18  1  0.50388900  0.68896000  0.87127800  1
  O  O19  1  0.50388900  0.31104000  0.12872200  1
  O  O20  1  0.76755500  0.77997300  0.75000000  1
  O  O21  1  0.76755500  0.22002700  0.25000000  1
  O  O22  1  0.79008700  0.88436000  0.57864000  1
  O  O23  1  0.79008700  0.11564000  0.42136000  1
  O  O24  1  0.79008700  0.88436000  0.92136000  1
  O  O25  1  0.79008700  0.11564000  0.07864000  1
  O  O26  1  0.82378300  0.53030300  0.62019000  1
  O  O27  1  0.82378300  0.46969700  0.37981000  1
  O  O28  1  0.82378300  0.53030300  0.87981000  1
  O  O29  1  0.82378300  0.46969700  0.12019000  1
  O  O30  1  0.49811600  0.28825900  0.75000000  1
  O  O31  1  0.49811600  0.71174100  0.25000000  1
  O  O32  1  0.45378200  0.21000900  0.67463300  1
  O  O33  1  0.45378200  0.78999100  0.32536700  1
  O  O34  1  0.45378200  0.21000900  0.82536700  1
  O  O35  1  0.45378200  0.78999100  0.17463300  1
loop_
_geom_bond_atom_site_label_1
_geom_bond_atom_site_label_2
_geom_bond_distance
_geom_bond_site_symmetry_2
Na0 O10 2.442111 1_555
Na0 O20 2.532954 1_445
Na0 O0 2.622821 1_545
Na0 O14 2.703707 1_455
Na0 O12 2.703707 1_455
Na1 O11 2.442111 1_555
Na1 O21 2.532954 1_465
Na1 O1 2.622821 1_565
Na1 O15 2.703707 1_455
Na1 O13 2.703707 1_455
Na2 O2 2.553488 1_545
Na2 O3 2.553488 1_555
Na2 O23 2.555970 1_555
Na2 O22 2.555970 1_545
Na2 O17 2.983101 1_555
Na2 O16 2.983101 1_545
Na2 O33 3.011632 1_545
Na2 O32 3.011632 1_555
Na3 O4 2.553488 1_544
Na3 O5 2.553488 1_555
Na3 O24 2.555970 1_544
Na3 O25 2.555970 1_555
Na3 O18 2.983101 1_544
Na3 O19 2.983101 1_555
Na3 O35 3.011632 1_545
Na3 O34 3.011632 1_554
O0 Si2 1.659792 1_555
O0 Si0 1.659792 1_555
O1 Si1 1.659792 1_555
O1 Si3 1.659792 1_555
O2 Si0 1.613813 1_555
O2 Zr0 2.118584 1_565
O3 Si1 1.613813 1_555
O3 Zr0 2.118584 1_555
O4 Si2 1.613813 1_555
O4 Zr1 2.118584 1_566
O5 Si3 1.613813 1_555
O5 Zr1 2.118584 1_555
O6 Si0 1.633200 1_555
O6 Si8 1.637905 1_555
O7 Si1 1.633200 1_555
O7 Si9 1.637905 1_555
O8 Si2 1.633200 1_555
O8 Si10 1.637905 1_555
O9 Si3 1.633200 1_555
O9 Si11 1.637905 1_555
O10 Si10 1.644798 1_555
O10 Si8 1.644798 1_555
O11 Si11 1.644798 1_555
O11 Si9 1.644798 1_555
O12 Si8 1.600373 1_655
O12 Zr0 2.079622 1_655
O13 Si9 1.600373 1_655
O13 Zr0 2.079622 1_665
O14 Si10 1.600373 1_655
O14 Zr1 2.079622 1_656
O15 Si11 1.600373 1_655
O15 Zr1 2.079622 1_665
O16 Si0 1.626752 1_555
O16 Si4 1.628501 1_555
O17 Si1 1.626752 1_555
O17 Si5 1.628501 1_555
O18 Si2 1.626752 1_555
O18 Si6 1.628501 1_555
O19 Si3 1.626752 1_555
O19 Si7 1.628501 1_555
O20 Si6 1.661622 1_555
O20 Si4 1.661622 1_555
O21 Si5 1.661622 1_555
O21 Si7 1.661622 1_555
O22 Si4 1.608222 1_555
O22 Zr0 2.110342 1_665
O23 Si5 1.608222 1_555
O23 Zr0 2.110342 1_655
O24 Si6 1.608222 1_555
O24 Zr1 2.110342 1_666
O25 Si7 1.608222 1_555
O25 Zr1 2.110342 1_655
O26 Si4 1.629630 1_555
O26 Si8 1.636305 1_655
O27 Si5 1.629630 1_555
O27 Si9 1.636305 1_655
O28 Si6 1.629630 1_555
O28 Si10 1.636305 1_655
O29 Si7 1.629630 1_555
O29 Si11 1.636305 1_655
O30 O32 1.287213 1_555
O30 O34 1.287213 1_555
O31 O35 1.287213 1_555
O31 O33 1.287213 1_555
