# generated using pymatgen
data_Li2Cr2P2O7F2
_symmetry_space_group_name_H-M   'P 1'
_cell_length_a   6.91238600
_cell_length_b   10.59377900
_cell_length_c   10.85367700
_cell_angle_alpha   90.00000000
_cell_angle_beta   90.00000000
_cell_angle_gamma   90.00000000
_symmetry_Int_Tables_number   1
_chemical_formula_structural   Li2Cr2P2O7F2
_chemical_formula_sum   'Li8 Cr8 P8 O28 F8'
_cell_volume   794.79620309
_cell_formula_units_Z   4
loop_
 _symmetry_equiv_pos_site_id
 _symmetry_equiv_pos_as_xyz
  1  'x, y, z'
loop_
 _atom_site_type_symbol
 _atom_site_label
 _atom_site_symmetry_multiplicity
 _atom_site_fract_x
 _atom_site_fract_y
 _atom_site_fract_z
 _atom_site_occupancy
  Li  Li0  1  0.33307200  0.99902000  0.75075700  1
  Li  Li1  1  0.66692800  0.50098000  0.75075700  1
  Li  Li2  1  0.83307200  0.00098000  0.74924300  1
  Li  Li3  1  0.16692800  0.49902000  0.74924300  1
  Li  Li4  1  0.16692800  0.99902000  0.25075700  1
  Li  Li5  1  0.83307200  0.50098000  0.25075700  1
  Li  Li6  1  0.33307200  0.49902000  0.24924300  1
  Li  Li7  1  0.66692800  0.00098000  0.24924300  1
  Cr  Cr0  1  0.00000000  0.00000000  0.00000000  1
  Cr  Cr1  1  0.00000000  0.50000000  0.00000000  1
  Cr  Cr2  1  0.00000000  0.25000000  0.82372400  1
  Cr  Cr3  1  0.50000000  0.75000000  0.67627600  1
  Cr  Cr4  1  0.50000000  0.00000000  0.50000000  1
  Cr  Cr5  1  0.50000000  0.50000000  0.50000000  1
  Cr  Cr6  1  0.50000000  0.25000000  0.32372400  1
  Cr  Cr7  1  0.00000000  0.75000000  0.17627600  1
  P  P0  1  0.28773000  0.75164800  0.93850600  1
  P  P1  1  0.71227000  0.74835200  0.93850600  1
  P  P2  1  0.78773000  0.24835200  0.56149400  1
  P  P3  1  0.21227000  0.25164800  0.56149400  1
  P  P4  1  0.21227000  0.75164800  0.43850600  1
  P  P5  1  0.78773000  0.74835200  0.43850600  1
  P  P6  1  0.28773000  0.25164800  0.06149400  1
  P  P7  1  0.71227000  0.24835200  0.06149400  1
  O  O0  1  0.16747400  0.32949300  0.96849600  1
  O  O1  1  0.83252600  0.17050700  0.96849600  1
  O  O2  1  0.50000000  0.75000000  0.00486300  1
  O  O3  1  0.21480400  0.61593900  0.92520600  1
  O  O4  1  0.78519600  0.88406100  0.92520600  1
  O  O5  1  0.31264300  0.81726800  0.81445400  1
  O  O6  1  0.68735700  0.68273200  0.81445400  1
  O  O7  1  0.81264300  0.18273200  0.68554600  1
  O  O8  1  0.18735700  0.31726800  0.68554600  1
  O  O9  1  0.28519600  0.11593900  0.57479400  1
  O  O10  1  0.71480400  0.38406100  0.57479400  1
  O  O11  1  0.00000000  0.25000000  0.49513700  1
  O  O12  1  0.66747400  0.67050700  0.53150400  1
  O  O13  1  0.33252600  0.82949300  0.53150400  1
  O  O14  1  0.33252600  0.32949300  0.46849600  1
  O  O15  1  0.66747400  0.17050700  0.46849600  1
  O  O16  1  0.00000000  0.75000000  0.50486300  1
  O  O17  1  0.28519600  0.61593900  0.42520600  1
  O  O18  1  0.71480400  0.88406100  0.42520600  1
  O  O19  1  0.81264300  0.68273200  0.31445400  1
  O  O20  1  0.18735700  0.81726800  0.31445400  1
  O  O21  1  0.31264300  0.31726800  0.18554600  1
  O  O22  1  0.68735700  0.18273200  0.18554600  1
  O  O23  1  0.21480400  0.11593900  0.07479400  1
  O  O24  1  0.78519600  0.38406100  0.07479400  1
  O  O25  1  0.50000000  0.25000000  0.99513700  1
  O  O26  1  0.16747400  0.82949300  0.03150400  1
  O  O27  1  0.83252600  0.67050700  0.03150400  1
  F  F0  1  0.08949100  0.04127800  0.80817100  1
  F  F1  1  0.91050900  0.45872200  0.80817100  1
  F  F2  1  0.41050900  0.54127800  0.69182900  1
  F  F3  1  0.58949100  0.95872200  0.69182900  1
  F  F4  1  0.41050900  0.04127800  0.30817100  1
  F  F5  1  0.58949100  0.45872200  0.30817100  1
  F  F6  1  0.08949100  0.54127800  0.19182900  1
  F  F7  1  0.91050900  0.95872200  0.19182900  1
loop_
_geom_bond_atom_site_label_1
_geom_bond_atom_site_label_2
_geom_bond_distance
_geom_bond_site_symmetry_2
Li0 O5 2.050664 1_555
Li0 O9 2.300260 1_565
Li1 O6 2.050664 1_555
Li1 O10 2.300260 1_555
Li2 O7 2.050664 1_555
Li2 O4 2.300260 1_545
Li3 O8 2.050664 1_555
Li3 O3 2.300260 1_555
Li4 O20 2.050664 1_555
Li4 O23 2.300260 1_565
Li5 O19 2.050664 1_555
Li5 O24 2.300260 1_555
Li6 O21 2.050664 1_555
Li6 O17 2.300260 1_555
Li7 O22 2.050664 1_555
Li7 O18 2.300260 1_545
Cr0 O23 2.090984 1_555
Cr0 O4 2.090984 1_444
Cr0 O1 2.172517 1_454
Cr0 O26 2.172517 1_545
Cr0 F7 2.215585 1_445
Cr0 F0 2.215585 1_554
Cr1 O24 2.090984 1_455
Cr1 O3 2.090984 1_554
Cr1 O27 2.172517 1_455
Cr1 O0 2.172517 1_554
Cr1 F6 2.215585 1_555
Cr1 F1 2.215585 1_454
Cr2 O8 2.105776 1_555
Cr2 O7 2.105776 1_455
Cr2 O0 2.125638 1_555
Cr2 O1 2.125638 1_455
Cr2 F0 2.302252 1_555
Cr2 F1 2.302252 1_455
Cr3 O5 2.105776 1_555
Cr3 O6 2.105776 1_555
Cr3 O13 2.125638 1_555
Cr3 O12 2.125638 1_555
Cr3 F2 2.302252 1_555
Cr3 F3 2.302252 1_555
Cr4 O18 2.090984 1_545
Cr4 O9 2.090984 1_555
Cr4 O15 2.172517 1_555
Cr4 O13 2.172517 1_545
Cr4 F4 2.215585 1_555
Cr4 F3 2.215585 1_545
Cr5 O10 2.090984 1_555
Cr5 O17 2.090984 1_555
Cr5 O12 2.172517 1_555
Cr5 O14 2.172517 1_555
Cr5 F2 2.215585 1_555
Cr5 F5 2.215585 1_555
Cr6 O21 2.105776 1_555
Cr6 O22 2.105776 1_555
Cr6 O15 2.125638 1_555
Cr6 O14 2.125638 1_555
Cr6 F4 2.302252 1_555
Cr6 F5 2.302252 1_555
Cr7 O20 2.105776 1_555
Cr7 O19 2.105776 1_455
Cr7 O27 2.125638 1_455
Cr7 O26 2.125638 1_555
Cr7 F7 2.302252 1_455
Cr7 F6 2.302252 1_555
O0 P6 1.545930 1_556
O1 P7 1.545930 1_556
O2 P1 1.634614 1_554
O2 P0 1.634614 1_554
O3 P0 1.530309 1_555
O4 P1 1.530309 1_555
O5 P0 1.525043 1_555
O6 P1 1.525043 1_555
O7 P2 1.525043 1_555
O8 P3 1.525043 1_555
O9 P3 1.530309 1_555
O10 P2 1.530309 1_555
O11 P3 1.634614 1_555
O11 P2 1.634614 1_455
O12 P5 1.545930 1_555
O13 P4 1.545930 1_555
O14 P3 1.545930 1_555
O15 P2 1.545930 1_555
O16 P5 1.634614 1_455
O16 P4 1.634614 1_555
O17 P4 1.530309 1_555
O18 P5 1.530309 1_555
O19 P5 1.525043 1_555
O20 P4 1.525043 1_555
O21 P6 1.525043 1_555
O22 P7 1.525043 1_555
O23 P6 1.530309 1_555
O24 P7 1.530309 1_555
O25 P7 1.634614 1_556
O25 P6 1.634614 1_556
O26 P0 1.545930 1_554
O27 P1 1.545930 1_554
F0 Li0 1.850314 1_545
F0 Li2 1.932087 1_455
F1 Li1 1.850314 1_555
F1 Li3 1.932087 1_655
F2 Li3 1.850314 1_555
F2 Li1 1.932087 1_555
F3 Li2 1.850314 1_565
F3 Li0 1.932087 1_555
F4 Li4 1.850314 1_545
F4 Li7 1.932087 1_555
F5 Li5 1.850314 1_555
F5 Li6 1.932087 1_555
F6 Li6 1.850314 1_555
F6 Li5 1.932087 1_455
F7 Li7 1.850314 1_565
F7 Li4 1.932087 1_655
