# generated using pymatgen
data_Na3SiH3O5
_symmetry_space_group_name_H-M   'P 1'
_cell_length_a   6.01068800
_cell_length_b   7.97929600
_cell_length_c   11.27796183
_cell_angle_alpha   74.77186752
_cell_angle_beta   90.00000000
_cell_angle_gamma   90.00000000
_symmetry_Int_Tables_number   1
_chemical_formula_structural   Na3SiH3O5
_chemical_formula_sum   'Na12 Si4 H12 O20'
_cell_volume   521.91061027
_cell_formula_units_Z   4
loop_
 _symmetry_equiv_pos_site_id
 _symmetry_equiv_pos_as_xyz
  1  'x, y, z'
loop_
 _atom_site_type_symbol
 _atom_site_label
 _atom_site_symmetry_multiplicity
 _atom_site_fract_x
 _atom_site_fract_y
 _atom_site_fract_z
 _atom_site_occupancy
  Na  Na0  1  0.51103800  0.74987600  0.83466100  1
  Na  Na1  1  0.01103800  0.25012400  0.66533900  1
  Na  Na2  1  0.48896200  0.25012400  0.16533900  1
  Na  Na3  1  0.98896200  0.74987600  0.33466100  1
  Na  Na4  1  0.80732600  0.60105600  0.06827000  1
  Na  Na5  1  0.30732600  0.39894400  0.43173000  1
  Na  Na6  1  0.19267400  0.39894400  0.93173000  1
  Na  Na7  1  0.69267400  0.60105600  0.56827000  1
  Na  Na8  1  0.25608000  0.02146100  0.94010500  1
  Na  Na9  1  0.75608000  0.97853900  0.55989500  1
  Na  Na10  1  0.74392000  0.97853900  0.05989500  1
  Na  Na11  1  0.24392000  0.02146100  0.44010500  1
  Si  Si0  1  0.70612000  0.30793700  0.86413000  1
  Si  Si1  1  0.20612000  0.69206300  0.63587000  1
  Si  Si2  1  0.29388000  0.69206300  0.13587000  1
  Si  Si3  1  0.79388000  0.30793700  0.36413000  1
  H  H0  1  0.40232900  0.42970800  0.66708600  1
  H  H1  1  0.90232900  0.57029200  0.83291400  1
  H  H2  1  0.59767100  0.57029200  0.33291400  1
  H  H3  1  0.09767100  0.42970800  0.16708600  1
  H  H4  1  0.88481800  0.01267900  0.82495800  1
  H  H5  1  0.38481800  0.98732100  0.67504200  1
  H  H6  1  0.11518200  0.98732100  0.17504200  1
  H  H7  1  0.61518200  0.01267900  0.32495800  1
  H  H8  1  0.97269700  0.83915700  0.78405500  1
  H  H9  1  0.47269700  0.16084300  0.71594500  1
  H  H10  1  0.02730300  0.16084300  0.21594500  1
  H  H11  1  0.52730300  0.83915700  0.28405500  1
  O  O0  1  0.77094700  0.50801900  0.88461400  1
  O  O1  1  0.27094700  0.49198100  0.61538600  1
  O  O2  1  0.22905300  0.49198100  0.11538600  1
  O  O3  1  0.72905300  0.50801900  0.38461400  1
  O  O4  1  0.51216500  0.22920000  0.96395600  1
  O  O5  1  0.01216500  0.77080000  0.53604400  1
  O  O6  1  0.48783500  0.77080000  0.03604400  1
  O  O7  1  0.98783500  0.22920000  0.46395600  1
  O  O8  1  0.93396100  0.18847500  0.88817600  1
  O  O9  1  0.43396100  0.81152500  0.61182400  1
  O  O10  1  0.06603900  0.81152500  0.11182400  1
  O  O11  1  0.56603900  0.18847500  0.38817600  1
  O  O12  1  0.63027700  0.33762300  0.71930800  1
  O  O13  1  0.13027700  0.66237700  0.78069200  1
  O  O14  1  0.36972300  0.66237700  0.28069200  1
  O  O15  1  0.86972300  0.33762300  0.21930800  1
  O  O16  1  0.84822300  0.92699600  0.77661800  1
  O  O17  1  0.34822300  0.07300400  0.72338200  1
  O  O18  1  0.15177700  0.07300400  0.22338200  1
  O  O19  1  0.65177700  0.92699600  0.27661800  1
loop_
_geom_bond_atom_site_label_1
_geom_bond_atom_site_label_2
_geom_bond_distance
_geom_bond_site_symmetry_2
Na0 O6 2.324829 1_556
Na0 O0 2.431281 1_555
Na0 O16 2.459160 1_555
Na0 O9 2.474487 1_555
Na0 O13 2.513765 1_555
Na1 O7 2.324829 1_455
Na1 O1 2.431281 1_555
Na1 O17 2.459160 1_555
Na1 O8 2.474487 1_455
Na1 O12 2.513765 1_455
Na2 O4 2.324829 1_554
Na2 O2 2.431281 1_555
Na2 O18 2.459160 1_555
Na2 O11 2.474487 1_555
Na2 O15 2.513765 1_555
Na3 O5 2.324829 1_655
Na3 O3 2.431281 1_555
Na3 O19 2.459160 1_555
Na3 O10 2.474487 1_655
Na3 O14 2.513765 1_655
Na4 O6 2.322882 1_555
Na4 O15 2.362143 1_555
Na4 O0 2.386804 1_554
Na4 O10 2.431698 1_655
Na5 O7 2.322882 1_455
Na5 O14 2.362143 1_555
Na5 O1 2.386804 1_555
Na5 O11 2.431698 1_555
Na6 O4 2.322882 1_555
Na6 O13 2.362143 1_555
Na6 O2 2.386804 1_556
Na6 O8 2.431698 1_455
Na7 O5 2.322882 1_655
Na7 O12 2.362143 1_555
Na7 O3 2.386804 1_555
Na7 O9 2.431698 1_555
Na8 O4 2.328851 1_555
Na8 O8 2.336163 1_455
Na8 O17 2.433494 1_555
Na8 O6 2.444324 1_546
Na8 O10 2.481378 1_546
Na9 O5 2.328851 1_655
Na9 O9 2.336163 1_555
Na9 O16 2.433494 1_555
Na9 O7 2.444324 1_565
Na9 O11 2.481378 1_565
Na10 O6 2.328851 1_555
Na10 O10 2.336163 1_655
Na10 O19 2.433494 1_555
Na10 O4 2.444324 1_564
Na10 O8 2.481378 1_564
Na11 O7 2.328851 1_455
Na11 O11 2.336163 1_555
Na11 O18 2.433494 1_555
Na11 O5 2.444324 1_545
Na11 O9 2.481378 1_545
H0 O1 1.028735 1_555
H0 O12 1.592692 1_555
H0 Na7 2.314413 1_555
H1 O0 1.028735 1_555
H1 O13 1.592692 1_655
H1 Na6 2.314413 1_655
H2 O3 1.028735 1_555
H2 O14 1.592692 1_555
H2 Na5 2.314413 1_555
H3 O2 1.028735 1_555
H3 O15 1.592692 1_455
H3 Na4 2.314413 1_455
H4 O16 1.004409 1_545
H4 O8 1.757443 1_555
H4 Na1 2.369423 1_655
H5 O17 1.004409 1_565
H5 O9 1.757443 1_555
H5 Na0 2.369423 1_555
H6 O18 1.004409 1_565
H6 O10 1.757443 1_555
H6 Na3 2.369423 1_455
H7 O19 1.004409 1_545
H7 O11 1.757443 1_555
H7 Na2 2.369423 1_555
H8 O16 1.013493 1_555
H8 O13 1.707747 1_655
H9 O17 1.013493 1_555
H9 O12 1.707747 1_555
H10 O18 1.013493 1_555
H10 O15 1.707747 1_455
H11 O19 1.013493 1_555
H11 O14 1.707747 1_555
O0 Si0 1.716918 1_555
O1 Si1 1.716918 1_555
O2 Si2 1.716918 1_555
O3 Si3 1.716918 1_555
O4 Si0 1.627803 1_555
O5 Si1 1.627803 1_555
O6 Si2 1.627803 1_555
O7 Si3 1.627803 1_555
O8 Si0 1.649805 1_555
O9 Si1 1.649805 1_555
O10 Si2 1.649805 1_555
O11 Si3 1.649805 1_555
O12 Si0 1.651770 1_555
O13 Si1 1.651770 1_555
O14 Si2 1.651770 1_555
O15 Si3 1.651770 1_555
