# generated using pymatgen
data_Dy2WO6
_symmetry_space_group_name_H-M   'P 1'
_cell_length_a   5.59484000
_cell_length_b   10.66344800
_cell_length_c   16.09988400
_cell_angle_alpha   90.00000000
_cell_angle_beta   90.00000000
_cell_angle_gamma   90.00000000
_symmetry_Int_Tables_number   1
_chemical_formula_structural   Dy2WO6
_chemical_formula_sum   'Dy16 W8 O48'
_cell_volume   960.52367448
_cell_formula_units_Z   8
loop_
 _symmetry_equiv_pos_site_id
 _symmetry_equiv_pos_as_xyz
  1  'x, y, z'
loop_
 _atom_site_type_symbol
 _atom_site_label
 _atom_site_symmetry_multiplicity
 _atom_site_fract_x
 _atom_site_fract_y
 _atom_site_fract_z
 _atom_site_occupancy
  Dy  Dy0  1  0.59865000  0.85834700  0.93751300  1
  Dy  Dy1  1  0.09865000  0.14165300  0.56248700  1
  Dy  Dy2  1  0.40135000  0.64165300  0.43751300  1
  Dy  Dy3  1  0.90135000  0.35834700  0.06248700  1
  Dy  Dy4  1  0.40135000  0.14165300  0.06248700  1
  Dy  Dy5  1  0.90135000  0.85834700  0.43751300  1
  Dy  Dy6  1  0.59865000  0.35834700  0.56248700  1
  Dy  Dy7  1  0.09865000  0.64165300  0.93751300  1
  Dy  Dy8  1  0.54560500  0.64400700  0.77058000  1
  Dy  Dy9  1  0.04560500  0.35599300  0.72942000  1
  Dy  Dy10  1  0.45439500  0.85599300  0.27058000  1
  Dy  Dy11  1  0.95439500  0.14400700  0.22942000  1
  Dy  Dy12  1  0.45439500  0.35599300  0.22942000  1
  Dy  Dy13  1  0.95439500  0.64400700  0.27058000  1
  Dy  Dy14  1  0.54560500  0.14400700  0.72942000  1
  Dy  Dy15  1  0.04560500  0.85599300  0.77058000  1
  W  W0  1  0.61057000  0.87833100  0.62031400  1
  W  W1  1  0.11057000  0.12166900  0.87968600  1
  W  W2  1  0.38943000  0.62166900  0.12031400  1
  W  W3  1  0.88943000  0.37833100  0.37968600  1
  W  W4  1  0.38943000  0.12166900  0.37968600  1
  W  W5  1  0.88943000  0.87833100  0.12031400  1
  W  W6  1  0.61057000  0.37833100  0.87968600  1
  W  W7  1  0.11057000  0.62166900  0.62031400  1
  O  O0  1  0.90677500  0.98729000  0.89302900  1
  O  O1  1  0.40677500  0.01271000  0.60697100  1
  O  O2  1  0.09322500  0.51271000  0.39302900  1
  O  O3  1  0.59322500  0.48729000  0.10697100  1
  O  O4  1  0.09322500  0.01271000  0.10697100  1
  O  O5  1  0.59322500  0.98729000  0.39302900  1
  O  O6  1  0.90677500  0.48729000  0.60697100  1
  O  O7  1  0.40677500  0.51271000  0.89302900  1
  O  O8  1  0.57742900  0.78765100  0.52060700  1
  O  O9  1  0.07742900  0.21234900  0.97939300  1
  O  O10  1  0.42257100  0.71234900  0.02060700  1
  O  O11  1  0.92257100  0.28765100  0.47939300  1
  O  O12  1  0.42257100  0.21234900  0.47939300  1
  O  O13  1  0.92257100  0.78765100  0.02060700  1
  O  O14  1  0.57742900  0.28765100  0.97939300  1
  O  O15  1  0.07742900  0.71234900  0.52060700  1
  O  O16  1  0.88335600  0.95661300  0.57396400  1
  O  O17  1  0.38335600  0.04338700  0.92603600  1
  O  O18  1  0.11664400  0.54338700  0.07396400  1
  O  O19  1  0.61664400  0.45661300  0.42603600  1
  O  O20  1  0.11664400  0.04338700  0.42603600  1
  O  O21  1  0.61664400  0.95661300  0.07396400  1
  O  O22  1  0.88335600  0.45661300  0.92603600  1
  O  O23  1  0.38335600  0.54338700  0.57396400  1
  O  O24  1  0.67547900  0.94064700  0.73292500  1
  O  O25  1  0.17547900  0.05935300  0.76707500  1
  O  O26  1  0.32452100  0.55935300  0.23292500  1
  O  O27  1  0.82452100  0.44064700  0.26707500  1
  O  O28  1  0.32452100  0.05935300  0.26707500  1
  O  O29  1  0.82452100  0.94064700  0.23292500  1
  O  O30  1  0.67547900  0.44064700  0.76707500  1
  O  O31  1  0.17547900  0.55935300  0.73292500  1
  O  O32  1  0.83622000  0.73155000  0.67105700  1
  O  O33  1  0.33622000  0.26845000  0.82894300  1
  O  O34  1  0.16378000  0.76845000  0.17105700  1
  O  O35  1  0.66378000  0.23155000  0.32894300  1
  O  O36  1  0.16378000  0.26845000  0.32894300  1
  O  O37  1  0.66378000  0.73155000  0.17105700  1
  O  O38  1  0.83622000  0.23155000  0.82894300  1
  O  O39  1  0.33622000  0.76845000  0.67105700  1
  O  O40  1  0.82001600  0.72995300  0.85346800  1
  O  O41  1  0.32001600  0.27004700  0.64653200  1
  O  O42  1  0.17998400  0.77004700  0.35346800  1
  O  O43  1  0.67998400  0.22995300  0.14653200  1
  O  O44  1  0.17998400  0.27004700  0.14653200  1
  O  O45  1  0.67998400  0.72995300  0.35346800  1
  O  O46  1  0.82001600  0.22995300  0.64653200  1
  O  O47  1  0.32001600  0.77004700  0.85346800  1
loop_
_geom_bond_atom_site_label_1
_geom_bond_atom_site_label_2
_geom_bond_distance
_geom_bond_site_symmetry_2
Dy0 O47 2.268856 1_555
Dy0 O10 2.276832 1_556
Dy0 O40 2.288955 1_555
Dy0 O0 2.318480 1_555
Dy0 O17 2.319144 1_565
Dy0 O13 2.375376 1_556
Dy0 O21 2.436034 1_556
Dy1 O46 2.268856 1_455
Dy1 O11 2.276832 1_455
Dy1 O41 2.288955 1_555
Dy1 O1 2.318480 1_555
Dy1 O16 2.319144 1_445
Dy1 O12 2.375376 1_555
Dy1 O20 2.436034 1_555
Dy2 O45 2.268856 1_555
Dy2 O8 2.276832 1_555
Dy2 O42 2.288955 1_555
Dy2 O2 2.318480 1_555
Dy2 O19 2.319144 1_555
Dy2 O15 2.375376 1_555
Dy2 O23 2.436034 1_555
Dy3 O44 2.268856 1_655
Dy3 O9 2.276832 1_654
Dy3 O43 2.288955 1_555
Dy3 O3 2.318480 1_555
Dy3 O18 2.319144 1_655
Dy3 O14 2.375376 1_554
Dy3 O22 2.436034 1_554
Dy4 O43 2.268856 1_555
Dy4 O14 2.276832 1_554
Dy4 O44 2.288955 1_555
Dy4 O4 2.318480 1_555
Dy4 O21 2.319144 1_545
Dy4 O9 2.375376 1_554
Dy4 O17 2.436034 1_554
Dy5 O42 2.268856 1_655
Dy5 O15 2.276832 1_655
Dy5 O45 2.288955 1_555
Dy5 O5 2.318480 1_555
Dy5 O20 2.319144 1_665
Dy5 O8 2.375376 1_555
Dy5 O16 2.436034 1_555
Dy6 O41 2.268856 1_555
Dy6 O12 2.276832 1_555
Dy6 O46 2.288955 1_555
Dy6 O6 2.318480 1_555
Dy6 O23 2.319144 1_555
Dy6 O11 2.375376 1_555
Dy6 O19 2.436034 1_555
Dy7 O40 2.268856 1_455
Dy7 O13 2.276832 1_456
Dy7 O47 2.288955 1_555
Dy7 O7 2.318480 1_555
Dy7 O22 2.319144 1_455
Dy7 O10 2.375376 1_556
Dy7 O18 2.436034 1_556
Dy8 O40 2.231120 1_555
Dy8 O47 2.276012 1_555
Dy8 O30 2.287715 1_555
Dy8 O31 2.338931 1_555
Dy8 O39 2.387604 1_555
Dy8 O32 2.466279 1_555
Dy8 O7 2.539687 1_555
Dy9 O41 2.231120 1_555
Dy9 O46 2.276012 1_455
Dy9 O31 2.287715 1_555
Dy9 O30 2.338931 1_455
Dy9 O38 2.387604 1_455
Dy9 O33 2.466279 1_555
Dy9 O6 2.539687 1_455
Dy10 O42 2.231120 1_555
Dy10 O45 2.276012 1_555
Dy10 O28 2.287715 1_565
Dy10 O29 2.338931 1_555
Dy10 O37 2.387604 1_555
Dy10 O34 2.466279 1_555
Dy10 O5 2.539687 1_555
Dy11 O43 2.231120 1_555
Dy11 O44 2.276012 1_655
Dy11 O29 2.287715 1_545
Dy11 O28 2.338931 1_655
Dy11 O36 2.387604 1_655
Dy11 O35 2.466279 1_555
Dy11 O4 2.539687 1_655
Dy12 O44 2.231120 1_555
Dy12 O43 2.276012 1_555
Dy12 O26 2.287715 1_555
Dy12 O27 2.338931 1_555
Dy12 O35 2.387604 1_555
Dy12 O36 2.466279 1_555
Dy12 O3 2.539687 1_555
Dy13 O45 2.231120 1_555
Dy13 O42 2.276012 1_655
Dy13 O27 2.287715 1_555
Dy13 O26 2.338931 1_655
Dy13 O34 2.387604 1_655
Dy13 O37 2.466279 1_555
Dy13 O2 2.539687 1_655
Dy14 O46 2.231120 1_555
Dy14 O41 2.276012 1_555
Dy14 O24 2.287715 1_545
Dy14 O25 2.338931 1_555
Dy14 O33 2.387604 1_555
Dy14 O38 2.466279 1_555
Dy14 O1 2.539687 1_555
Dy15 O47 2.231120 1_555
Dy15 O40 2.276012 1_455
Dy15 O25 2.287715 1_565
Dy15 O24 2.338931 1_455
Dy15 O32 2.387604 1_455
Dy15 O39 2.466279 1_555
Dy15 O0 2.539687 1_455
O0 W1 1.843782 1_665
O1 W0 1.843782 1_545
O2 W3 1.843782 1_455
O3 W2 1.843782 1_555
O4 W5 1.843782 1_445
O5 W4 1.843782 1_565
O6 W7 1.843782 1_655
O7 W6 1.843782 1_555
O8 W0 1.883160 1_555
O9 W1 1.883160 1_555
O10 W2 1.883160 1_555
O11 W3 1.883160 1_555
O12 W4 1.883160 1_555
O13 W5 1.883160 1_555
O14 W6 1.883160 1_555
O15 W7 1.883160 1_555
O16 W0 1.892867 1_555
O17 W1 1.892867 1_555
O18 W2 1.892867 1_555
O19 W3 1.892867 1_555
O20 W4 1.892867 1_555
O21 W5 1.892867 1_555
O22 W6 1.892867 1_555
O23 W7 1.892867 1_555
O24 W0 1.964816 1_555
O25 W1 1.964816 1_555
O26 W2 1.964816 1_555
O27 W3 1.964816 1_555
O28 W4 1.964816 1_555
O29 W5 1.964816 1_555
O30 W6 1.964816 1_555
O31 W7 1.964816 1_555
O32 W7 2.096754 1_655
O32 W0 2.170504 1_555
O33 W6 2.096754 1_555
O33 W1 2.170504 1_555
O34 W5 2.096754 1_455
O34 W2 2.170504 1_555
O35 W4 2.096754 1_555
O35 W3 2.170504 1_555
O36 W3 2.096754 1_455
O36 W4 2.170504 1_555
O37 W2 2.096754 1_555
O37 W5 2.170504 1_555
O38 W1 2.096754 1_655
O38 W6 2.170504 1_555
O39 W0 2.096754 1_555
O39 W7 2.170504 1_555
