# generated using pymatgen
data_Li4Mn3V3Cr2O16
_symmetry_space_group_name_H-M   'P 1'
_cell_length_a   5.85453100
_cell_length_b   5.91527039
_cell_length_c   9.57788327
_cell_angle_alpha   89.44341794
_cell_angle_beta   91.36025212
_cell_angle_gamma   119.00469585
_symmetry_Int_Tables_number   1
_chemical_formula_structural   Li4Mn3V3Cr2O16
_chemical_formula_sum   'Li4 Mn3 V3 Cr2 O16'
_cell_volume   290.00965659
_cell_formula_units_Z   1
loop_
 _symmetry_equiv_pos_site_id
 _symmetry_equiv_pos_as_xyz
  1  'x, y, z'
loop_
 _atom_site_type_symbol
 _atom_site_label
 _atom_site_symmetry_multiplicity
 _atom_site_fract_x
 _atom_site_fract_y
 _atom_site_fract_z
 _atom_site_occupancy
  Li  Li0  1  0.33459900  0.67733200  0.10550600  1
  Li  Li1  1  0.99419900  0.00976300  0.00454200  1
  Li  Li2  1  0.00363000  0.98295800  0.50399100  1
  Li  Li3  1  0.66710200  0.32952500  0.60348500  1
  Mn  Mn0  1  0.16763000  0.83226100  0.78906900  1
  Mn  Mn1  1  0.83385300  0.65786800  0.28514000  1
  Mn  Mn2  1  0.33760700  0.16983100  0.28763100  1
  V  V0  1  0.66155100  0.83447600  0.78547300  1
  V  V1  1  0.16688900  0.33841900  0.78658200  1
  V  V2  1  0.82753900  0.15917000  0.28823200  1
  Cr  Cr0  1  0.33014700  0.65276800  0.51485800  1
  Cr  Cr1  1  0.66987000  0.34786000  0.01752600  1
  O  O0  1  0.67463000  0.83218300  0.39424900  1
  O  O1  1  0.48452200  0.51459900  0.66414700  1
  O  O2  1  0.33244300  0.67263600  0.89464900  1
  O  O3  1  0.00186800  0.99665700  0.69039900  1
  O  O4  1  0.00115400  0.99082800  0.19161000  1
  O  O5  1  0.14653200  0.31388800  0.39851200  1
  O  O6  1  0.48926200  0.95229600  0.65673000  1
  O  O7  1  0.04071400  0.49929800  0.65732200  1
  O  O8  1  0.83058600  0.17134800  0.89158400  1
  O  O9  1  0.15252400  0.81476200  0.40173200  1
  O  O10  1  0.96450500  0.48312100  0.16506200  1
  O  O11  1  0.53516400  0.05042100  0.16121500  1
  O  O12  1  0.66841000  0.33854900  0.39134400  1
  O  O13  1  0.82272700  0.68295600  0.90071100  1
  O  O14  1  0.53645600  0.50532100  0.15706000  1
  O  O15  1  0.32418700  0.18920200  0.90379900  1
loop_
_geom_bond_atom_site_label_1
_geom_bond_atom_site_label_2
_geom_bond_distance
_geom_bond_site_symmetry_2
Li0 O14 1.950469 1_555
Li0 O10 1.992964 1_455
Li0 O11 2.003516 1_565
Li0 O2 2.019680 1_554
Li1 O4 1.794856 1_645
Li1 O8 1.954534 1_554
Li1 O13 1.960057 1_544
Li1 O15 1.967236 1_654
Li2 O3 1.788519 1_555
Li2 O9 1.899879 1_555
Li2 O0 1.966322 1_455
Li2 O5 1.991493 1_565
Li3 O1 1.963504 1_555
Li3 O7 1.971066 1_655
Li3 O6 2.018261 1_545
Li3 O12 2.032143 1_555
Mn0 O3 1.906397 1_555
Mn0 O2 1.914119 1_555
Mn0 O13 2.086979 1_455
Mn0 O6 2.110862 1_555
Mn0 O7 2.146658 1_555
Mn0 O15 2.150852 1_565
Mn1 O14 1.935748 1_555
Mn1 O12 1.943169 1_555
Mn1 O4 1.943598 1_655
Mn1 O10 1.951384 1_555
Mn1 O9 1.957337 1_655
Mn1 O0 2.005882 1_555
Mn2 O4 1.938366 1_545
Mn2 O12 1.946044 1_555
Mn2 O5 2.025781 1_555
Mn2 O11 2.044026 1_555
Mn2 O9 2.141123 1_545
Mn2 O14 2.153607 1_555
Cr0 O9 2.016501 1_555
Cr0 O7 2.037460 1_555
Cr0 O1 2.040012 1_555
Cr0 O6 2.059010 1_555
Cr0 O5 2.076645 1_555
Cr0 O0 2.130568 1_555
Cr1 O14 2.010712 1_555
Cr1 O10 2.044567 1_555
Cr1 O15 2.058246 1_554
Cr1 O13 2.065413 1_554
Cr1 O11 2.066510 1_555
Cr1 O8 2.112259 1_554
O0 V2 1.974714 1_565
O1 V0 2.022016 1_555
O1 V1 2.029711 1_555
O2 V0 2.002447 1_555
O2 V1 2.013236 1_555
O3 V0 1.983623 1_455
O3 V1 1.992195 1_565
O4 V2 1.981230 1_465
O5 V2 1.925782 1_455
O6 V0 1.905155 1_555
O7 V1 1.897219 1_555
O8 V1 2.013055 1_655
O8 V0 2.015510 1_545
O10 V2 2.053683 1_555
O11 V2 1.916328 1_555
O12 V2 1.997956 1_555
O13 V0 1.914015 1_555
O15 V1 1.899347 1_555
