# generated using pymatgen
data_LiFeF3
_symmetry_space_group_name_H-M   'P 1'
_cell_length_a   6.10514400
_cell_length_b   6.11173082
_cell_length_c   6.12676191
_cell_angle_alpha   90.09645642
_cell_angle_beta   90.04854480
_cell_angle_gamma   90.17288889
_symmetry_Int_Tables_number   1
_chemical_formula_structural   LiFeF3
_chemical_formula_sum   'Li4 Fe4 F12'
_cell_volume   228.60639952
_cell_formula_units_Z   4
loop_
 _symmetry_equiv_pos_site_id
 _symmetry_equiv_pos_as_xyz
  1  'x, y, z'
loop_
 _atom_site_type_symbol
 _atom_site_label
 _atom_site_symmetry_multiplicity
 _atom_site_fract_x
 _atom_site_fract_y
 _atom_site_fract_z
 _atom_site_occupancy
  Li  Li0  1  0.87973500  0.11900100  0.12168200  1
  Li  Li1  1  0.61948000  0.87941600  0.62389400  1
  Li  Li2  1  0.37490700  0.37700000  0.87759100  1
  Li  Li3  1  0.12269600  0.62556200  0.37977500  1
  Fe  Fe0  1  0.15947600  0.83503400  0.83543700  1
  Fe  Fe1  1  0.66546800  0.65887100  0.16106400  1
  Fe  Fe2  1  0.83494500  0.33783700  0.65802300  1
  Fe  Fe3  1  0.34054500  0.16222300  0.33392800  1
  F  F0  1  0.62358800  0.98701100  0.26856300  1
  F  F1  1  0.48443000  0.73045800  0.87654700  1
  F  F2  1  0.27251900  0.87763100  0.50885700  1
  F  F3  1  0.76904700  0.63088500  0.48839900  1
  F  F4  1  0.98732800  0.76627600  0.12708000  1
  F  F5  1  0.12768500  0.51187200  0.73160900  1
  F  F6  1  0.37112900  0.48808800  0.23091900  1
  F  F7  1  0.51072800  0.23027700  0.63008000  1
  F  F8  1  0.73596100  0.37687900  0.98362200  1
  F  F9  1  0.23128600  0.12533900  0.01207200  1
  F  F10  1  0.01006800  0.27085100  0.37989600  1
  F  F11  1  0.87898000  0.00948800  0.77096400  1
loop_
_geom_bond_atom_site_label_1
_geom_bond_atom_site_label_2
_geom_bond_distance
_geom_bond_site_symmetry_2
F0 Li0 1.975678 1_565
F0 Fe3 2.074618 1_565
F0 Fe1 2.126060 1_555
F0 Li1 2.275373 1_555
F1 Li1 1.976644 1_555
F1 Fe0 2.101216 1_555
F1 Fe1 2.110423 1_556
F1 Li2 2.259450 1_555
F2 Li3 1.954906 1_555
F2 Fe3 2.085458 1_565
F2 Fe0 2.133213 1_555
F2 Li1 2.231847 1_555
F3 Li1 1.958463 1_555
F3 Fe1 2.109702 1_555
F3 Fe2 2.111774 1_555
F3 Li3 2.260170 1_655
F4 Li3 1.956055 1_655
F4 Fe1 2.080590 1_555
F4 Fe0 2.115884 1_654
F4 Li0 2.255798 1_565
F5 Li2 1.940409 1_555
F5 Fe0 2.082430 1_555
F5 Fe2 2.124694 1_455
F5 Li3 2.266146 1_555
F6 Li3 1.961017 1_555
F6 Fe3 2.098052 1_555
F6 Fe1 2.119736 1_555
F6 Li2 2.267795 1_554
F7 Li2 1.947651 1_555
F7 Fe2 2.090608 1_555
F7 Fe3 2.129881 1_555
F7 Li1 2.246984 1_545
F8 Li0 1.995383 1_556
F8 Fe1 2.082396 1_556
F8 Fe2 2.098317 1_555
F8 Li2 2.297494 1_555
F9 Li2 1.952113 1_554
F9 Fe3 2.092763 1_555
F9 Fe0 2.121183 1_544
F9 Li0 2.249664 1_455
F10 Li0 1.996419 1_455
F10 Fe2 2.053716 1_455
F10 Fe3 2.144587 1_555
F10 Li3 2.272356 1_555
F11 Li1 1.985299 1_545
F11 Fe0 2.058322 1_645
F11 Fe2 2.141465 1_555
F11 Li0 2.249515 1_556
