# generated using pymatgen
data_Li2V2F7
_symmetry_space_group_name_H-M   'P 1'
_cell_length_a   7.36926805
_cell_length_b   7.36926805
_cell_length_c   7.36926805
_cell_angle_alpha   122.17513944
_cell_angle_beta   118.24051929
_cell_angle_gamma   89.67438840
_symmetry_Int_Tables_number   1
_chemical_formula_structural   Li2V2F7
_chemical_formula_sum   'Li4 V4 F14'
_cell_volume   281.66886621
_cell_formula_units_Z   2
loop_
 _symmetry_equiv_pos_site_id
 _symmetry_equiv_pos_as_xyz
  1  'x, y, z'
loop_
 _atom_site_type_symbol
 _atom_site_label
 _atom_site_symmetry_multiplicity
 _atom_site_fract_x
 _atom_site_fract_y
 _atom_site_fract_z
 _atom_site_occupancy
  Li  Li0  1  0.00000000  0.00000000  0.50000000  1
  Li  Li1  1  0.50000000  0.50000000  0.00000000  1
  Li  Li2  1  0.00000000  0.00000000  0.00000000  1
  Li  Li3  1  0.50000000  0.00000000  0.00000000  1
  V  V0  1  0.00000000  0.50000000  0.00000000  1
  V  V1  1  0.50000000  0.00000000  0.50000000  1
  V  V2  1  0.00000000  0.50000000  0.50000000  1
  V  V3  1  0.50000000  0.50000000  0.50000000  1
  F  F0  1  0.25000000  0.40779000  0.15779000  1
  F  F1  1  0.08138300  0.84285100  0.76146800  1
  F  F2  1  0.58392400  0.83625900  0.66521000  1
  F  F3  1  0.08392400  0.41871400  0.74766600  1
  F  F4  1  0.67104800  0.41871400  0.33479000  1
  F  F5  1  0.17104800  0.83625900  0.25233400  1
  F  F6  1  0.58138300  0.81991500  0.23853200  1
  F  F7  1  0.41861700  0.18008500  0.76146800  1
  F  F8  1  0.82895200  0.16374100  0.74766600  1
  F  F9  1  0.32895200  0.58128600  0.66521000  1
  F  F10  1  0.91607600  0.58128600  0.25233400  1
  F  F11  1  0.41607600  0.16374100  0.33479000  1
  F  F12  1  0.91861700  0.15714900  0.23853200  1
  F  F13  1  0.75000000  0.59221000  0.84221000  1
loop_
_geom_bond_atom_site_label_1
_geom_bond_atom_site_label_2
_geom_bond_distance
_geom_bond_site_symmetry_2
F0 V0 2.001989 1_555
F0 V3 2.001989 1_555
F1 Li2 1.900640 1_566
F1 V2 2.048102 1_555
F1 Li0 2.586212 1_565
F1 Li3 2.586212 1_566
F2 V3 2.024094 1_555
F2 V1 2.040660 1_565
F2 Li3 2.488030 1_566
F2 Li2 2.580102 1_666
F3 V0 2.024088 1_556
F3 V2 2.040666 1_555
F3 Li0 2.488030 1_555
F3 Li1 2.580102 1_556
F4 V3 2.024088 1_555
F4 V2 2.040666 1_655
F4 Li3 2.488030 1_555
F4 Li1 2.580102 1_555
F5 V0 2.024093 1_555
F5 V1 2.040665 1_565
F5 Li0 2.488029 1_565
F5 Li2 2.580096 1_565
F6 Li1 1.900640 1_555
F6 V1 2.048102 1_565
F6 Li3 2.586212 1_565
F6 Li0 2.586212 1_665
F7 Li1 1.900640 1_556
F7 V1 2.048102 1_555
F7 Li0 2.586212 1_555
F7 Li3 2.586212 1_556
F8 V0 2.024093 1_656
F8 V1 2.040665 1_555
F8 Li0 2.488029 1_655
F8 Li2 2.580096 1_656
F9 V3 2.024088 1_555
F9 V2 2.040666 1_555
F9 Li3 2.488030 1_566
F9 Li1 2.580102 1_556
F10 V0 2.024088 1_655
F10 V2 2.040666 1_655
F10 Li0 2.488030 1_665
F10 Li1 2.580102 1_555
F11 V3 2.024094 1_555
F11 V1 2.040660 1_555
F11 Li3 2.488030 1_555
F11 Li2 2.580102 1_555
F12 Li2 1.900640 1_655
F12 V2 2.048102 1_655
F12 Li3 2.586212 1_555
F12 Li0 2.586212 1_655
F13 V0 2.001989 1_656
F13 V3 2.001989 1_555
