# generated using pymatgen
data_Li5V6O5F19
_symmetry_space_group_name_H-M   'P 1'
_cell_length_a   5.16148600
_cell_length_b   5.39761153
_cell_length_c   16.50387817
_cell_angle_alpha   99.37362012
_cell_angle_beta   89.95743403
_cell_angle_gamma   90.88269545
_symmetry_Int_Tables_number   1
_chemical_formula_structural   Li5V6O5F19
_chemical_formula_sum   'Li5 V6 O5 F19'
_cell_volume   453.59897365
_cell_formula_units_Z   1
loop_
 _symmetry_equiv_pos_site_id
 _symmetry_equiv_pos_as_xyz
  1  'x, y, z'
loop_
 _atom_site_type_symbol
 _atom_site_label
 _atom_site_symmetry_multiplicity
 _atom_site_fract_x
 _atom_site_fract_y
 _atom_site_fract_z
 _atom_site_occupancy
  Li  Li0  1  0.45307700  0.17044100  0.55379100  1
  Li  Li1  1  0.56069800  0.18015700  0.12587300  1
  Li  Li2  1  0.82141000  0.69928800  0.84321400  1
  Li  Li3  1  0.04289300  0.65985400  0.54614000  1
  Li  Li4  1  0.96792000  0.66242300  0.11771200  1
  V  V0  1  0.97379000  0.30143800  0.66907300  1
  V  V1  1  0.49392000  0.16487400  0.33683800  1
  V  V2  1  0.02821200  0.03651000  0.99711400  1
  V  V3  1  0.52736900  0.51674700  0.98760300  1
  V  V4  1  0.51888300  0.79754500  0.66819900  1
  V  V5  1  0.01547500  0.69127400  0.33633900  1
  O  O0  1  0.79182100  0.03164400  0.64033300  1
  O  O1  1  0.69304700  0.52825600  0.63871900  1
  O  O2  1  0.79126100  0.69650900  0.97300600  1
  O  O3  1  0.20583700  0.30363900  0.02748100  1
  O  O4  1  0.21335400  0.95464700  0.35423100  1
  F  F0  1  0.70279700  0.18782400  0.96659400  1
  F  F1  1  0.30141000  0.13962700  0.68826900  1
  F  F2  1  0.58583200  0.21059800  0.44485500  1
  F  F3  1  0.87873100  0.01069400  0.10601400  1
  F  F4  1  0.41539400  0.13225800  0.22739300  1
  F  F5  1  0.38028800  0.46658500  0.88669100  1
  F  F6  1  0.11640500  0.31783300  0.55913600  1
  F  F7  1  0.89946300  0.38782700  0.77995800  1
  F  F8  1  0.79021300  0.37441400  0.31436200  1
  F  F9  1  0.28935100  0.46232700  0.35955900  1
  F  F10  1  0.18410400  0.64127000  0.68896800  1
  F  F11  1  0.62910100  0.50586300  0.10447000  1
  F  F12  1  0.09145200  0.93649900  0.88646100  1
  F  F13  1  0.90281400  0.70621900  0.44588300  1
  F  F14  1  0.08152800  0.61480400  0.22203500  1
  F  F15  1  0.59613600  0.86473100  0.77951800  1
  F  F16  1  0.37731500  0.81929600  0.55891500  1
  F  F17  1  0.70544400  0.87032000  0.31136500  1
  F  F18  1  0.29676800  0.80776000  0.03137300  1
loop_
_geom_bond_atom_site_label_1
_geom_bond_atom_site_label_2
_geom_bond_distance
_geom_bond_site_symmetry_2
Li0 O0 2.459846 1_555
Li0 O1 2.505175 1_555
Li1 O3 2.613523 1_555
Li2 O2 2.150072 1_555
Li3 O1 2.531722 1_455
Li4 O3 2.570424 1_655
O0 V0 1.720843 1_555
O0 V4 1.981473 1_545
O1 V4 1.722434 1_555
O1 V0 2.026099 1_555
O2 V3 1.699904 1_555
O2 V2 2.171574 1_665
O3 V2 1.701539 1_554
O3 V3 2.167178 1_554
O4 V5 1.723435 1_555
O4 V1 1.876687 1_565
F0 V2 1.979757 1_655
F0 V3 1.985114 1_555
F1 V0 1.964464 1_455
F1 V4 2.154775 1_545
F1 Li0 2.383255 1_555
F2 V1 1.821625 1_555
F2 Li0 1.967068 1_555
F3 Li1 1.893804 1_555
F3 V2 1.980175 1_654
F3 Li4 1.981912 1_545
F4 V1 1.831168 1_555
F4 Li1 1.889390 1_555
F5 V3 1.808860 1_555
F6 Li0 1.918309 1_555
F6 Li3 1.936163 1_555
F6 V0 1.972306 1_455
F7 V0 1.854758 1_555
F7 Li2 1.878022 1_555
F8 V1 1.959111 1_555
F8 V5 2.036116 1_655
F9 V1 1.920617 1_555
F9 V5 1.970064 1_555
F10 V4 1.965511 1_555
F10 V0 2.096133 1_455
F10 Li3 2.485878 1_555
F11 Li1 1.876989 1_555
F11 Li4 1.927455 1_555
F11 V3 2.009638 1_554
F12 V2 1.848348 1_565
F12 Li2 1.933991 1_455
F13 Li3 1.861564 1_655
F13 V5 1.888261 1_655
F14 Li4 1.877386 1_455
F14 V5 1.896067 1_555
F15 V4 1.856178 1_555
F15 Li2 1.895815 1_555
F16 Li3 1.913173 1_555
F16 Li0 1.944665 1_565
F16 V4 1.968323 1_555
F17 V1 1.931719 1_565
F17 V5 1.960341 1_655
F18 V2 2.011687 1_564
F18 V3 2.023005 1_554
F18 Li4 2.417912 1_455
