# generated using pymatgen
data_LiFeSi3O8
_symmetry_space_group_name_H-M   'P 1'
_cell_length_a   13.04974900
_cell_length_b   7.43968500
_cell_length_c   8.02696146
_cell_angle_alpha   60.62385960
_cell_angle_beta   90.00000000
_cell_angle_gamma   90.00000000
_symmetry_Int_Tables_number   1
_chemical_formula_structural   LiFeSi3O8
_chemical_formula_sum   'Li4 Fe4 Si12 O32'
_cell_volume   679.10118935
_cell_formula_units_Z   4
loop_
 _symmetry_equiv_pos_site_id
 _symmetry_equiv_pos_as_xyz
  1  'x, y, z'
loop_
 _atom_site_type_symbol
 _atom_site_label
 _atom_site_symmetry_multiplicity
 _atom_site_fract_x
 _atom_site_fract_y
 _atom_site_fract_z
 _atom_site_occupancy
  Li  Li0  1  0.05233000  0.84968200  0.26489100  1
  Li  Li1  1  0.55233000  0.15031800  0.23510900  1
  Li  Li2  1  0.44767000  0.84968200  0.76489100  1
  Li  Li3  1  0.94767000  0.15031800  0.73510900  1
  Fe  Fe0  1  0.17415200  0.82163000  0.97602900  1
  Fe  Fe1  1  0.32584800  0.82163000  0.47602900  1
  Fe  Fe2  1  0.67415200  0.17837000  0.52397100  1
  Fe  Fe3  1  0.82584800  0.17837000  0.02397100  1
  Si  Si0  1  0.83837600  0.74357200  0.01236200  1
  Si  Si1  1  0.89633400  0.29805100  0.34750000  1
  Si  Si2  1  0.11956000  0.35721300  0.32454000  1
  Si  Si3  1  0.66162400  0.74357200  0.51236200  1
  Si  Si4  1  0.39633400  0.70194900  0.15250000  1
  Si  Si5  1  0.61956000  0.64278700  0.17546000  1
  Si  Si6  1  0.38044000  0.35721300  0.82454000  1
  Si  Si7  1  0.60366600  0.29805100  0.84750000  1
  Si  Si8  1  0.33837600  0.25642800  0.48763800  1
  Si  Si9  1  0.10366600  0.70194900  0.65250000  1
  Si  Si10  1  0.88044000  0.64278700  0.67546000  1
  Si  Si11  1  0.16162400  0.25642800  0.98763800  1
  O  O0  1  0.38932300  0.83011400  0.26594700  1
  O  O1  1  0.62570100  0.73926400  0.31932000  1
  O  O2  1  0.12570100  0.26073600  0.18068000  1
  O  O3  1  0.88932300  0.16988600  0.23405300  1
  O  O4  1  0.71283200  0.73520000  0.02117000  1
  O  O5  1  0.31791800  0.78687300  0.97142400  1
  O  O6  1  0.11808400  0.04355000  0.00437600  1
  O  O7  1  0.88191600  0.95645000  0.99562400  1
  O  O8  1  0.88436600  0.54630300  0.20314500  1
  O  O9  1  0.11933200  0.60760100  0.20816300  1
  O  O10  1  0.51158500  0.72948200  0.05085400  1
  O  O11  1  0.01158500  0.27051800  0.44914600  1
  O  O12  1  0.18208200  0.78687300  0.47142400  1
  O  O13  1  0.78716800  0.73520000  0.52117000  1
  O  O14  1  0.61933200  0.39239900  0.29183700  1
  O  O15  1  0.38436600  0.45369700  0.29685500  1
  O  O16  1  0.61808400  0.95645000  0.49562400  1
  O  O17  1  0.38191600  0.04355000  0.50437600  1
  O  O18  1  0.38066800  0.60760100  0.70816300  1
  O  O19  1  0.61563400  0.54630300  0.70314500  1
  O  O20  1  0.21283200  0.26480000  0.47883000  1
  O  O21  1  0.81791800  0.21312700  0.52857600  1
  O  O22  1  0.98841500  0.72948200  0.55085400  1
  O  O23  1  0.48841500  0.27051800  0.94914600  1
  O  O24  1  0.11563400  0.45369700  0.79685500  1
  O  O25  1  0.88066800  0.39239900  0.79183700  1
  O  O26  1  0.28716800  0.26480000  0.97883000  1
  O  O27  1  0.68208200  0.21312700  0.02857600  1
  O  O28  1  0.11067700  0.83011400  0.76594700  1
  O  O29  1  0.87429900  0.73926400  0.81932000  1
  O  O30  1  0.37429900  0.26073600  0.68068000  1
  O  O31  1  0.61067700  0.16988600  0.73405300  1
loop_
_geom_bond_atom_site_label_1
_geom_bond_atom_site_label_2
_geom_bond_distance
_geom_bond_site_symmetry_2
Li0 O6 2.056798 1_565
Li0 O22 2.179552 1_455
Li0 O9 2.240548 1_555
Li0 O12 2.252504 1_555
Li1 O16 2.056798 1_545
Li1 O23 2.179552 1_554
Li1 O14 2.240548 1_555
Li1 O27 2.252504 1_555
Li2 O17 2.056798 1_565
Li2 O10 2.179552 1_556
Li2 O18 2.240548 1_555
Li2 O5 2.252504 1_555
Li3 O7 2.056798 1_545
Li3 O11 2.179552 1_655
Li3 O25 2.240548 1_555
Li3 O21 2.252504 1_555
Fe0 O28 1.851856 1_555
Fe0 O5 1.896681 1_555
Fe0 O9 1.899568 1_556
Fe0 O6 1.918733 1_566
Fe1 O0 1.851856 1_555
Fe1 O12 1.896681 1_555
Fe1 O18 1.899568 1_555
Fe1 O17 1.918733 1_565
Fe2 O31 1.851856 1_555
Fe2 O21 1.896681 1_555
Fe2 O14 1.899568 1_555
Fe2 O16 1.918733 1_545
Fe3 O3 1.851856 1_555
Fe3 O27 1.896681 1_555
Fe3 O25 1.899568 1_554
Fe3 O7 1.918733 1_544
O0 Si4 1.612040 1_555
O1 Si5 1.633470 1_555
O1 Si3 1.634193 1_555
O2 Si2 1.633470 1_555
O2 Si11 1.634193 1_554
O3 Si1 1.612040 1_555
O4 Si5 1.628700 1_555
O4 Si0 1.639708 1_555
O5 Si4 1.630344 1_556
O6 Si11 1.624924 1_554
O7 Si0 1.624924 1_556
O8 Si0 1.629203 1_555
O8 Si1 1.636630 1_555
O9 Si2 1.623415 1_555
O10 Si5 1.664007 1_555
O10 Si4 1.675024 1_555
O11 Si2 1.664007 1_555
O11 Si1 1.675024 1_455
O12 Si9 1.630344 1_555
O13 Si10 1.628700 1_555
O13 Si3 1.639708 1_555
O14 Si5 1.623415 1_555
O15 Si8 1.629203 1_555
O15 Si4 1.636630 1_555
O16 Si3 1.624924 1_555
O17 Si8 1.624924 1_555
O18 Si6 1.623415 1_555
O19 Si3 1.629203 1_555
O19 Si7 1.636630 1_555
O20 Si2 1.628700 1_555
O20 Si8 1.639708 1_555
O21 Si1 1.630344 1_555
O22 Si10 1.664007 1_555
O22 Si9 1.675024 1_655
O23 Si6 1.664007 1_555
O23 Si7 1.675024 1_555
O24 Si11 1.629203 1_555
O24 Si9 1.636630 1_555
O25 Si10 1.623415 1_555
O26 Si6 1.628700 1_555
O26 Si11 1.639708 1_555
O27 Si7 1.630344 1_554
O28 Si9 1.612040 1_555
O29 Si10 1.633470 1_555
O29 Si0 1.634193 1_556
O30 Si6 1.633470 1_555
O30 Si8 1.634193 1_555
O31 Si7 1.612040 1_555
