# generated using pymatgen
data_V6PbO15
_symmetry_space_group_name_H-M   'P 1'
_cell_length_a   7.41595500
_cell_length_b   10.41230300
_cell_length_c   15.66077197
_cell_angle_alpha   70.50234074
_cell_angle_beta   90.00000000
_cell_angle_gamma   90.00000000
_symmetry_Int_Tables_number   1
_chemical_formula_structural   V6PbO15
_chemical_formula_sum   'V24 Pb4 O60'
_cell_volume   1139.93446338
_cell_formula_units_Z   4
loop_
 _symmetry_equiv_pos_site_id
 _symmetry_equiv_pos_as_xyz
  1  'x, y, z'
loop_
 _atom_site_type_symbol
 _atom_site_label
 _atom_site_symmetry_multiplicity
 _atom_site_fract_x
 _atom_site_fract_y
 _atom_site_fract_z
 _atom_site_occupancy
  V  V0  1  0.87681800  0.10740700  0.63409400  1
  V  V1  1  0.37365400  0.11723500  0.63002200  1
  V  V2  1  0.62440400  0.90411800  0.58383700  1
  V  V3  1  0.12690700  0.89692700  0.58158400  1
  V  V4  1  0.62332400  0.59360800  0.53224800  1
  V  V5  1  0.12661900  0.58960200  0.53308000  1
  V  V6  1  0.37559600  0.09588200  0.41616300  1
  V  V7  1  0.87309300  0.10307300  0.41841600  1
  V  V8  1  0.12318200  0.89259300  0.36590600  1
  V  V9  1  0.62634600  0.88276500  0.36997800  1
  V  V10  1  0.87338100  0.41039800  0.46692000  1
  V  V11  1  0.37667600  0.40639200  0.46775200  1
  V  V12  1  0.37338100  0.58960200  0.03308000  1
  V  V13  1  0.87667600  0.59360800  0.03224800  1
  V  V14  1  0.62318200  0.10740700  0.13409400  1
  V  V15  1  0.12634600  0.11723500  0.13002200  1
  V  V16  1  0.37309300  0.89692700  0.08158400  1
  V  V17  1  0.87559600  0.90411800  0.08383700  1
  V  V18  1  0.62661900  0.41039800  0.96692000  1
  V  V19  1  0.12332400  0.40639200  0.96775200  1
  V  V20  1  0.62690700  0.10307300  0.91841600  1
  V  V21  1  0.12440400  0.09588200  0.91616300  1
  V  V22  1  0.37681800  0.89259300  0.86590600  1
  V  V23  1  0.87365400  0.88276500  0.86997800  1
  Pb  Pb0  1  0.88287700  0.39267200  0.74745600  1
  Pb  Pb1  1  0.61712300  0.39267200  0.24745600  1
  Pb  Pb2  1  0.11712300  0.60732800  0.25254400  1
  Pb  Pb3  1  0.38287700  0.60732800  0.75254400  1
  O  O0  1  0.60499500  0.78050700  0.68413400  1
  O  O1  1  0.14077500  0.78434600  0.68412600  1
  O  O2  1  0.62302100  0.07468800  0.61756200  1
  O  O3  1  0.12823700  0.07494200  0.61766600  1
  O  O4  1  0.88250200  0.95152700  0.57022300  1
  O  O5  1  0.36788800  0.95860300  0.55810600  1
  O  O6  1  0.61921000  0.53360400  0.64459600  1
  O  O7  1  0.12942800  0.53028300  0.64668100  1
  O  O8  1  0.37452400  0.22293500  0.49219100  1
  O  O9  1  0.87668800  0.21208300  0.48809500  1
  O  O10  1  0.37401800  0.26515000  0.64405800  1
  O  O11  1  0.87663700  0.26977100  0.63490400  1
  O  O12  1  0.62547600  0.77706500  0.50780900  1
  O  O13  1  0.12331200  0.78791700  0.51190500  1
  O  O14  1  0.11749800  0.04847300  0.42977700  1
  O  O15  1  0.63211200  0.04139700  0.44189400  1
  O  O16  1  0.86845300  0.57148200  0.50735600  1
  O  O17  1  0.38090300  0.57592900  0.50327300  1
  O  O18  1  0.13154700  0.42851800  0.49264400  1
  O  O19  1  0.61909700  0.42407100  0.49672700  1
  O  O20  1  0.87176300  0.92505800  0.38233400  1
  O  O21  1  0.37697900  0.92531200  0.38243800  1
  O  O22  1  0.85922500  0.21565400  0.31587400  1
  O  O23  1  0.39500500  0.21949300  0.31586600  1
  O  O24  1  0.12336300  0.73022900  0.36509600  1
  O  O25  1  0.62598200  0.73485000  0.35594200  1
  O  O26  1  0.37057200  0.53028300  0.14668100  1
  O  O27  1  0.88079000  0.53360400  0.14459600  1
  O  O28  1  0.62448700  0.00527900  0.24862500  1
  O  O29  1  0.12448700  0.99472100  0.25137500  1
  O  O30  1  0.87057200  0.46971700  0.35331900  1
  O  O31  1  0.38079000  0.46639600  0.35540400  1
  O  O32  1  0.12598200  0.26515000  0.14405800  1
  O  O33  1  0.62336300  0.26977100  0.13490400  1
  O  O34  1  0.35922500  0.78434600  0.18412600  1
  O  O35  1  0.89500500  0.78050700  0.18413400  1
  O  O36  1  0.37176300  0.07494200  0.11766600  1
  O  O37  1  0.87697900  0.07468800  0.11756200  1
  O  O38  1  0.11909700  0.57592900  0.00327300  1
  O  O39  1  0.63154700  0.57148200  0.00735600  1
  O  O40  1  0.36845300  0.42851800  0.99264400  1
  O  O41  1  0.88090300  0.42407100  0.99672700  1
  O  O42  1  0.13211200  0.95860300  0.05810600  1
  O  O43  1  0.61749800  0.95152700  0.07022300  1
  O  O44  1  0.62331200  0.21208300  0.98809500  1
  O  O45  1  0.12547600  0.22293500  0.99219100  1
  O  O46  1  0.37663700  0.73022900  0.86509600  1
  O  O47  1  0.87401800  0.73485000  0.85594200  1
  O  O48  1  0.37668800  0.78791700  0.01190500  1
  O  O49  1  0.87452400  0.77706500  0.00780900  1
  O  O50  1  0.87551300  0.00527900  0.74862500  1
  O  O51  1  0.37551300  0.99472100  0.75137500  1
  O  O52  1  0.62942800  0.46971700  0.85331900  1
  O  O53  1  0.11921000  0.46639600  0.85540400  1
  O  O54  1  0.38250200  0.04847300  0.92977700  1
  O  O55  1  0.86788800  0.04139700  0.94189400  1
  O  O56  1  0.62823700  0.92505800  0.88233400  1
  O  O57  1  0.12302100  0.92531200  0.88243800  1
  O  O58  1  0.64077500  0.21565400  0.81587400  1
  O  O59  1  0.10499500  0.21949300  0.81586600  1
loop_
_geom_bond_atom_site_label_1
_geom_bond_atom_site_label_2
_geom_bond_distance
_geom_bond_site_symmetry_2
O0 V2 1.671809 1_555
O0 Pb3 2.413098 1_555
O1 V3 1.645282 1_555
O1 Pb3 2.539788 1_555
O2 V1 1.926638 1_555
O2 V0 1.945367 1_555
O2 V2 2.014819 1_545
O3 V1 1.897539 1_555
O3 V0 1.927412 1_455
O3 V3 2.110499 1_545
O4 V3 1.890101 1_655
O4 V2 1.970391 1_555
O4 V0 2.172653 1_565
O4 V7 2.375428 1_565
O5 V3 1.893071 1_555
O5 V2 1.987564 1_555
O5 V6 2.206085 1_565
O5 V1 2.289166 1_565
O6 V4 1.659266 1_555
O6 Pb0 2.644552 1_555
O6 Pb3 2.717578 1_555
O7 V5 1.677357 1_555
O7 Pb0 2.525346 1_455
O7 Pb3 2.795131 1_555
O8 V11 1.818682 1_555
O8 V6 2.054092 1_555
O8 V1 2.069971 1_555
O9 V7 1.818411 1_555
O9 V10 1.979229 1_555
O9 V0 2.179971 1_555
O10 V1 1.626756 1_555
O11 V0 1.694860 1_555
O11 Pb0 2.500477 1_555
O12 V4 1.818682 1_555
O12 V2 2.054092 1_555
O12 V9 2.069971 1_555
O13 V3 1.818411 1_555
O13 V5 1.979229 1_555
O13 V8 2.179971 1_555
O14 V7 1.890101 1_455
O14 V6 1.970391 1_555
O14 V8 2.172653 1_545
O14 V3 2.375428 1_545
O15 V7 1.893071 1_555
O15 V6 1.987564 1_555
O15 V2 2.206085 1_545
O15 V9 2.289166 1_545
O16 V4 1.889346 1_555
O16 V5 1.978414 1_655
O16 V10 1.981049 1_555
O17 V4 1.878184 1_555
O17 V5 1.959240 1_555
O17 V11 2.020430 1_555
O18 V11 1.889346 1_555
O18 V10 1.978414 1_455
O18 V5 1.981049 1_555
O19 V11 1.878184 1_555
O19 V10 1.959240 1_555
O19 V4 2.020430 1_555
O20 V9 1.897539 1_555
O20 V8 1.927412 1_655
O20 V7 2.110499 1_565
O21 V9 1.926638 1_555
O21 V8 1.945367 1_555
O21 V6 2.014819 1_565
O22 V7 1.645282 1_555
O22 Pb1 2.539788 1_555
O23 V6 1.671809 1_555
O23 Pb1 2.413098 1_555
O24 V8 1.694860 1_555
O24 Pb2 2.500477 1_555
O25 V9 1.626756 1_555
O26 V12 1.677357 1_555
O26 Pb1 2.525346 1_555
O26 Pb2 2.795131 1_555
O27 V13 1.659266 1_555
O27 Pb1 2.644552 1_555
O27 Pb2 2.717578 1_655
O28 V14 1.753518 1_555
O28 V9 1.902883 1_545
O29 V8 1.753518 1_555
O29 V15 1.902883 1_565
O30 V10 1.677357 1_555
O30 Pb2 2.525346 1_655
O30 Pb1 2.795131 1_555
O31 V11 1.659266 1_555
O31 Pb2 2.644552 1_555
O31 Pb1 2.717578 1_555
O32 V15 1.626756 1_555
O33 V14 1.694860 1_555
O33 Pb1 2.500477 1_555
O34 V16 1.645282 1_555
O34 Pb2 2.539788 1_555
O35 V17 1.671809 1_555
O35 Pb2 2.413098 1_655
O36 V15 1.897539 1_555
O36 V14 1.927412 1_555
O36 V16 2.110499 1_545
O37 V15 1.926638 1_655
O37 V14 1.945367 1_555
O37 V17 2.014819 1_545
O38 V13 1.878184 1_455
O38 V12 1.959240 1_555
O38 V19 2.020430 1_554
O39 V13 1.889346 1_555
O39 V12 1.978414 1_555
O39 V18 1.981049 1_554
O40 V19 1.889346 1_555
O40 V18 1.978414 1_555
O40 V12 1.981049 1_556
O41 V19 1.878184 1_655
O41 V18 1.959240 1_555
O41 V13 2.020430 1_556
O42 V16 1.893071 1_555
O42 V17 1.987564 1_455
O42 V21 2.206085 1_564
O42 V15 2.289166 1_565
O43 V16 1.890101 1_555
O43 V17 1.970391 1_555
O43 V14 2.172653 1_565
O43 V20 2.375428 1_564
O44 V20 1.818411 1_555
O44 V18 1.979229 1_555
O44 V14 2.179971 1_556
O45 V19 1.818682 1_555
O45 V21 2.054092 1_555
O45 V15 2.069971 1_556
O46 V22 1.694860 1_555
O46 Pb3 2.500477 1_555
O47 V23 1.626756 1_555
O48 V16 1.818411 1_555
O48 V12 1.979229 1_555
O48 V22 2.179971 1_554
O49 V13 1.818682 1_555
O49 V17 2.054092 1_555
O49 V23 2.069971 1_554
O50 V0 1.753518 1_555
O50 V23 1.902883 1_545
O51 V22 1.753518 1_555
O51 V1 1.902883 1_565
O52 V18 1.677357 1_555
O52 Pb3 2.525346 1_555
O52 Pb0 2.795131 1_555
O53 V19 1.659266 1_555
O53 Pb3 2.644552 1_555
O53 Pb0 2.717578 1_455
O54 V20 1.890101 1_555
O54 V21 1.970391 1_555
O54 V22 2.172653 1_545
O54 V16 2.375428 1_546
O55 V20 1.893071 1_555
O55 V21 1.987564 1_655
O55 V17 2.206085 1_546
O55 V23 2.289166 1_545
O56 V23 1.897539 1_555
O56 V22 1.927412 1_555
O56 V20 2.110499 1_565
O57 V23 1.926638 1_455
O57 V22 1.945367 1_555
O57 V21 2.014819 1_565
O58 V20 1.645282 1_555
O58 Pb0 2.539788 1_555
O59 V21 1.671809 1_555
O59 Pb0 2.413098 1_455
