# generated using pymatgen
data_Ba4Na3Nd3P6(O12F)2
_symmetry_space_group_name_H-M   'P 1'
_cell_length_a   9.82743600
_cell_length_b   9.84614456
_cell_length_c   14.59584513
_cell_angle_alpha   90.04869182
_cell_angle_beta   90.04911961
_cell_angle_gamma   119.78041772
_symmetry_Int_Tables_number   1
_chemical_formula_structural   Ba4Na3Nd3P6(O12F)2
_chemical_formula_sum   'Ba8 Na6 Nd6 P12 O48 F4'
_cell_volume   1225.80779827
_cell_formula_units_Z   2
loop_
 _symmetry_equiv_pos_site_id
 _symmetry_equiv_pos_as_xyz
  1  'x, y, z'
loop_
 _atom_site_type_symbol
 _atom_site_label
 _atom_site_symmetry_multiplicity
 _atom_site_fract_x
 _atom_site_fract_y
 _atom_site_fract_z
 _atom_site_occupancy
  Ba  Ba0  1  0.22990300  0.25204600  0.36565500  1
  Ba  Ba1  1  0.75346500  0.98164800  0.86851800  1
  Ba  Ba2  1  0.02095000  0.77024800  0.36932800  1
  Ba  Ba3  1  0.01629200  0.76529400  0.86853200  1
  Ba  Ba4  1  0.24841700  0.02185200  0.12970600  1
  Ba  Ba5  1  0.25713500  0.02332300  0.63037700  1
  Ba  Ba6  1  0.76252400  0.74605700  0.13301200  1
  Ba  Ba7  1  0.77224200  0.75527100  0.62931700  1
  Na  Na0  1  0.32925000  0.66266900  0.25923300  1
  Na  Na1  1  0.32950800  0.66346700  0.75957500  1
  Na  Na2  1  0.99346100  0.26618100  0.13767700  1
  Na  Na3  1  0.99079400  0.26397000  0.64157500  1
  Na  Na4  1  0.66948100  0.32956900  0.23670800  1
  Na  Na5  1  0.67384200  0.33418400  0.73656100  1
  Nd  Nd0  1  0.22336200  0.24114400  0.86238400  1
  Nd  Nd1  1  0.33198200  0.66606300  0.01316400  1
  Nd  Nd2  1  0.32878400  0.66001500  0.51354800  1
  Nd  Nd3  1  0.76714100  0.99693700  0.36378400  1
  Nd  Nd4  1  0.66798900  0.33270200  0.48987100  1
  Nd  Nd5  1  0.66928600  0.33167200  0.99003400  1
  P  P0  1  0.37531000  0.40316300  0.11243400  1
  P  P1  1  0.37922100  0.41029900  0.62518800  1
  P  P2  1  0.02922200  0.61587900  0.11988600  1
  P  P3  1  0.02975700  0.61594900  0.61975800  1
  P  P4  1  0.58954900  0.97094000  0.12584700  1
  P  P5  1  0.59600700  0.97580600  0.61343200  1
  P  P6  1  0.41679600  0.02532000  0.37944900  1
  P  P7  1  0.41137400  0.03842800  0.88125900  1
  P  P8  1  0.96197600  0.36950800  0.38180300  1
  P  P9  1  0.97611800  0.37601800  0.88407500  1
  P  P10  1  0.61798900  0.59308800  0.38228900  1
  P  P11  1  0.60731400  0.58200000  0.87910600  1
  O  O0  1  0.25289200  0.30037400  0.18455000  1
  O  O1  1  0.27029800  0.31529900  0.70598800  1
  O  O2  1  0.29254200  0.37894900  0.01707600  1
  O  O3  1  0.27742000  0.37655300  0.53728800  1
  O  O4  1  0.44768000  0.58180600  0.13491600  1
  O  O5  1  0.45650200  0.59004300  0.64221800  1
  O  O6  1  0.48860000  0.63763100  0.39556900  1
  O  O7  1  0.49334400  0.64675000  0.89155100  1
  O  O8  1  0.13844000  0.49206500  0.39118100  1
  O  O9  1  0.15063000  0.50600900  0.89493700  1
  O  O10  1  0.12748900  0.53596000  0.13958200  1
  O  O11  1  0.12768800  0.53595200  0.63982900  1
  O  O12  1  0.62592400  0.89880600  0.03971300  1
  O  O13  1  0.62624600  0.91230800  0.52076400  1
  O  O14  1  0.68220100  0.95596000  0.20808400  1
  O  O15  1  0.69777600  0.96222500  0.68912800  1
  O  O16  1  0.41694800  0.86648900  0.63402000  1
  O  O17  1  0.40987500  0.86616700  0.14188000  1
  O  O18  1  0.10292100  0.71691700  0.03159200  1
  O  O19  1  0.10392500  0.71706800  0.53135300  1
  O  O20  1  0.35489900  0.84798500  0.39225600  1
  O  O21  1  0.35583200  0.86208900  0.89147200  1
  O  O22  1  0.04381700  0.73209100  0.19618000  1
  O  O23  1  0.04662200  0.73383800  0.69551500  1
  O  O24  1  0.94303800  0.25059300  0.30464600  1
  O  O25  1  0.98089600  0.26194800  0.81132500  1
  O  O26  1  0.63460000  0.14352900  0.11154900  1
  O  O27  1  0.63192400  0.14740100  0.60824900  1
  O  O28  1  0.88993600  0.26741900  0.46950800  1
  O  O29  1  0.90053200  0.28118700  0.97324200  1
  O  O30  1  0.59759400  0.11644000  0.36184500  1
  O  O31  1  0.58850700  0.13496800  0.85905100  1
  O  O32  1  0.32396900  0.04788800  0.30157500  1
  O  O33  1  0.30907600  0.05945000  0.80707100  1
  O  O34  1  0.39215300  0.10408500  0.46637700  1
  O  O35  1  0.38640600  0.11281300  0.96943900  1
  O  O36  1  0.86323400  0.44944900  0.36100200  1
  O  O37  1  0.87084800  0.44622200  0.85567600  1
  O  O38  1  0.85190000  0.49858400  0.10761900  1
  O  O39  1  0.85327900  0.49779200  0.60715800  1
  O  O40  1  0.50761100  0.36030200  0.10988700  1
  O  O41  1  0.50397600  0.35862800  0.61292900  1
  O  O42  1  0.54828000  0.41899800  0.35421800  1
  O  O43  1  0.51736400  0.40176100  0.86122600  1
  O  O44  1  0.71591700  0.61229000  0.47032400  1
  O  O45  1  0.71023700  0.60670900  0.96650400  1
  O  O46  1  0.73321600  0.71160500  0.31086300  1
  O  O47  1  0.72243500  0.67476800  0.80127000  1
  F  F0  1  0.98396200  0.99327700  0.26114800  1
  F  F1  1  0.01890100  0.00799800  0.76045800  1
  F  F2  1  0.96438200  0.99179400  0.45550100  1
  F  F3  1  0.03887700  0.03205700  0.95501000  1
loop_
_geom_bond_atom_site_label_1
_geom_bond_atom_site_label_2
_geom_bond_distance
_geom_bond_site_symmetry_2
Ba0 O0 2.676061 1_555
Ba0 O42 2.722480 1_555
Ba0 O3 2.724098 1_555
Ba0 O32 2.759408 1_555
Ba0 F2 2.909370 1_445
Ba0 F0 2.920620 1_445
Ba0 O8 2.939543 1_555
Ba0 O24 2.948959 1_455
Ba0 O34 3.022122 1_555
Ba1 O15 2.661684 1_555
Ba1 O25 2.681210 1_565
Ba1 O31 2.712377 1_565
Ba1 O12 2.733730 1_556
Ba1 F3 2.883975 1_665
Ba1 F1 2.948726 1_665
Ba1 O29 2.979590 1_565
Ba1 O7 3.025066 1_555
Ba1 O47 3.043935 1_555
Ba2 O22 2.581052 1_555
Ba2 O19 2.637187 1_555
Ba2 O46 2.725906 1_455
Ba2 O36 2.744069 1_455
Ba2 F2 2.801885 1_455
Ba2 F0 2.871489 1_455
Ba2 O44 2.993041 1_455
Ba2 O20 2.995141 1_555
Ba2 O32 3.040060 1_565
Ba3 O23 2.579481 1_555
Ba3 O18 2.649026 1_556
Ba3 O37 2.736052 1_455
Ba3 O47 2.744950 1_455
Ba3 F3 2.820674 1_565
Ba3 F1 2.853983 1_565
Ba3 O45 2.979162 1_455
Ba3 O21 2.998870 1_555
Ba3 O33 3.033629 1_565
Ba4 O32 2.591636 1_555
Ba4 O35 2.629758 1_554
Ba4 O17 2.704647 1_545
Ba4 O22 2.726470 1_545
Ba4 O0 2.835439 1_555
Ba4 O18 2.972297 1_545
Ba4 O40 3.041045 1_555
Ba4 F0 3.130064 1_445
Ba4 F3 3.308958 1_554
Ba5 O33 2.618041 1_555
Ba5 O34 2.661466 1_555
Ba5 O16 2.695030 1_545
Ba5 O23 2.731037 1_545
Ba5 F1 2.960768 1_555
Ba5 O41 2.982626 1_555
Ba5 O19 2.987919 1_545
Ba5 O1 3.020649 1_555
Ba5 O27 3.270440 1_555
Ba6 O46 2.615793 1_555
Ba6 O4 2.686877 1_555
Ba6 O45 2.710142 1_554
Ba6 O14 2.777292 1_555
Ba6 O12 2.815042 1_555
Ba6 F0 2.980276 1_555
Ba6 O22 2.980650 1_655
Ba6 O38 2.995186 1_555
Ba7 O47 2.605197 1_555
Ba7 O44 2.625232 1_555
Ba7 O15 2.632347 1_555
Ba7 O5 2.701346 1_555
Ba7 O23 2.968181 1_655
Ba7 O13 3.027158 1_555
Ba7 O39 3.028293 1_555
Ba7 F1 3.118320 1_665
Ba7 F2 3.327964 1_555
Na0 O17 2.451027 1_555
Na0 O10 2.463935 1_555
Na0 O4 2.490504 1_555
Na0 O20 2.588221 1_555
Na0 O6 2.617629 1_555
Na0 O8 2.632444 1_555
Na1 O5 2.431490 1_555
Na1 O11 2.466090 1_555
Na1 O16 2.528893 1_555
Na1 O7 2.566825 1_555
Na1 O9 2.588671 1_555
Na1 O21 2.662314 1_555
Na2 O10 2.305610 1_655
Na2 O24 2.476993 1_555
Na2 O0 2.495103 1_655
Na2 O29 2.597512 1_554
Na3 O11 2.324535 1_655
Na3 O25 2.479346 1_555
Na3 O1 2.701861 1_655
Na3 O28 2.705613 1_555
Na3 O3 2.896313 1_655
Na3 O15 3.018160 1_545
Na4 O36 2.463314 1_555
Na4 O42 2.485673 1_555
Na4 O26 2.485882 1_555
Na4 O40 2.553939 1_555
Na4 O38 2.565322 1_555
Na4 O30 2.602861 1_555
Na5 O37 2.420196 1_555
Na5 O31 2.474206 1_555
Na5 O27 2.509915 1_555
Na5 O39 2.541862 1_555
Na5 O41 2.548646 1_555
Na5 O43 2.671615 1_555
Nd0 O1 2.372092 1_555
Nd0 O33 2.461192 1_555
Nd0 O43 2.512066 1_555
Nd0 O2 2.544996 1_556
Nd0 O25 2.599471 1_455
Nd0 O35 2.935267 1_555
Nd0 O9 3.063972 1_555
Nd1 O9 2.416142 1_554
Nd1 O7 2.450596 1_554
Nd1 O4 2.464769 1_555
Nd1 O17 2.547648 1_555
Nd1 O21 2.547992 1_554
Nd1 O18 2.551648 1_555
Nd1 O10 2.556842 1_555
Nd1 O2 2.656521 1_555
Nd1 O12 2.677129 1_555
Nd2 O6 2.414216 1_555
Nd2 O20 2.481922 1_555
Nd2 O16 2.493433 1_555
Nd2 O8 2.517969 1_555
Nd2 O11 2.531225 1_555
Nd2 O5 2.536581 1_555
Nd2 O19 2.549530 1_555
Nd2 O3 2.601357 1_555
Nd2 O13 2.740991 1_555
Nd3 O14 2.384283 1_555
Nd3 O24 2.385054 1_565
Nd3 O30 2.471647 1_565
Nd3 O13 2.593065 1_555
Nd3 O46 2.768769 1_555
Nd3 O28 2.779841 1_565
Nd4 O27 2.409120 1_555
Nd4 O39 2.436865 1_555
Nd4 O41 2.510410 1_555
Nd4 O36 2.521879 1_555
Nd4 O34 2.543330 1_555
Nd4 O44 2.568086 1_555
Nd4 O28 2.579246 1_555
Nd4 O42 2.649161 1_555
Nd4 O30 2.651844 1_555
Nd5 O38 2.434598 1_556
Nd5 O26 2.464336 1_556
Nd5 O40 2.472448 1_556
Nd5 O31 2.549533 1_555
Nd5 O35 2.551271 1_555
Nd5 O45 2.555913 1_555
Nd5 O29 2.567987 1_555
Nd5 O37 2.613951 1_555
Nd5 O43 2.694590 1_555
O0 P0 1.540806 1_555
O1 P1 1.555973 1_555
O2 P0 1.568600 1_555
O3 P1 1.556978 1_555
O4 P0 1.569502 1_555
O5 P1 1.560282 1_555
O6 P10 1.549529 1_555
O7 P11 1.550288 1_555
O8 P8 1.550114 1_455
O9 P9 1.556686 1_455
O10 P2 1.545710 1_555
O11 P3 1.544472 1_555
O12 P4 1.569789 1_555
O13 P5 1.578750 1_555
O14 P4 1.556734 1_555
O15 P5 1.539490 1_555
O16 P5 1.570140 1_555
O17 P4 1.558357 1_555
O18 P2 1.569432 1_555
O19 P3 1.571771 1_555
O20 P6 1.549000 1_565
O21 P7 1.547229 1_565
O22 P2 1.550625 1_555
O23 P3 1.550442 1_555
O24 P8 1.566760 1_555
O25 P9 1.562574 1_555
O26 P4 1.542956 1_545
O27 P5 1.546852 1_545
O28 P8 1.564344 1_555
O29 P9 1.559544 1_555
O30 P6 1.563835 1_555
O31 P7 1.548120 1_555
O32 P6 1.540628 1_555
O33 P7 1.559256 1_555
O34 P6 1.566954 1_555
O35 P7 1.559041 1_555
O36 P8 1.553056 1_555
O37 P9 1.558845 1_555
O38 P2 1.550005 1_655
O39 P3 1.545958 1_655
O40 P0 1.554044 1_555
O41 P1 1.553644 1_555
O42 P10 1.551524 1_555
O43 P11 1.561865 1_555
O44 P10 1.558759 1_555
O45 P11 1.569189 1_555
O46 P10 1.556388 1_555
O47 P11 1.543500 1_555
F0 Nd3 2.620577 1_555
F1 Nd0 2.632014 1_555
F2 Nd3 2.375944 1_555
F3 Nd0 2.377884 1_555
