# generated using pymatgen
data_Li3Ti2(PO4)3
_symmetry_space_group_name_H-M   'P 1'
_cell_length_a   9.84571507
_cell_length_b   9.84571507
_cell_length_c   9.87484140
_cell_angle_alpha   85.68291970
_cell_angle_beta   85.68291970
_cell_angle_gamma   85.68558366
_symmetry_Int_Tables_number   1
_chemical_formula_structural   Li3Ti2(PO4)3
_chemical_formula_sum   'Li12 Ti8 P12 O48'
_cell_volume   949.49205792
_cell_formula_units_Z   4
loop_
 _symmetry_equiv_pos_site_id
 _symmetry_equiv_pos_as_xyz
  1  'x, y, z'
loop_
 _atom_site_type_symbol
 _atom_site_label
 _atom_site_symmetry_multiplicity
 _atom_site_fract_x
 _atom_site_fract_y
 _atom_site_fract_z
 _atom_site_occupancy
  Li  Li0  1  0.53316100  0.73050200  0.91048300  1
  Li  Li1  1  0.31649200  0.98878800  0.02110700  1
  Li  Li2  1  0.26949800  0.46683900  0.08951700  1
  Li  Li3  1  0.01121200  0.68350800  0.97889300  1
  Li  Li4  1  0.02057100  0.46418800  0.24365700  1
  Li  Li5  1  0.53581200  0.97942900  0.75634300  1
  Li  Li6  1  0.83288500  0.76227400  0.23601300  1
  Li  Li7  1  0.23772600  0.16711500  0.76398700  1
  Li  Li8  1  0.01034800  0.32764200  0.49686000  1
  Li  Li9  1  0.74929500  0.49784000  0.41155300  1
  Li  Li10  1  0.67235800  0.98965200  0.50314000  1
  Li  Li11  1  0.50216000  0.25070500  0.58844700  1
  Ti  Ti0  1  0.46114800  0.75027900  0.28904200  1
  Ti  Ti1  1  0.75296600  0.46764600  0.78673200  1
  Ti  Ti2  1  0.95988000  0.04012000  0.00000000  1
  Ti  Ti3  1  0.74913300  0.25086700  0.00000000  1
  Ti  Ti4  1  0.24956100  0.75043900  0.50000000  1
  Ti  Ti5  1  0.24972100  0.53885200  0.71095800  1
  Ti  Ti6  1  0.03641900  0.96358100  0.50000000  1
  Ti  Ti7  1  0.53235400  0.24703400  0.21326800  1
  P  P0  1  0.44676000  0.32850300  0.90050900  1
  P  P1  1  0.17372100  0.84968700  0.80442500  1
  P  P2  1  0.05443200  0.35001200  0.92158700  1
  P  P3  1  0.15031300  0.82627900  0.19557500  1
  P  P4  1  0.31846600  0.44632700  0.40275200  1
  P  P5  1  0.34835000  0.05339900  0.42811400  1
  P  P6  1  0.64998800  0.94556800  0.07841300  1
  P  P7  1  0.67149700  0.55324000  0.09949100  1
  P  P8  1  0.84173800  0.18052100  0.30433600  1
  P  P9  1  0.94660100  0.65165000  0.57188600  1
  P  P10  1  0.81947900  0.15826200  0.69566400  1
  P  P11  1  0.55367300  0.68153400  0.59724800  1
  O  O0  1  0.40403600  0.20821900  0.82823200  1
  O  O1  1  0.37894100  0.46844700  0.85314200  1
  O  O2  1  0.29192600  0.92720200  0.84494800  1
  O  O3  1  0.18765600  0.69136800  0.83763700  1
  O  O4  1  0.41342500  0.31592200  0.05850300  1
  O  O5  1  0.12248000  0.39250200  0.78013300  1
  O  O6  1  0.03412600  0.89559100  0.87445700  1
  O  O7  1  0.30863200  0.81234400  0.16236300  1
  O  O8  1  0.08720300  0.19177100  0.93678300  1
  O  O9  1  0.45586900  0.37798000  0.34796500  1
  O  O10  1  0.39990200  0.11575000  0.28760200  1
  O  O11  1  0.09605600  0.43139300  0.03633600  1
  O  O12  1  0.10440900  0.96587400  0.12554300  1
  O  O13  1  0.82573000  0.12293600  0.85383000  1
  O  O14  1  0.89450000  0.37923300  0.91913100  1
  O  O15  1  0.37818500  0.89321700  0.42090000  1
  O  O16  1  0.33055600  0.60591800  0.37322400  1
  O  O17  1  0.07279800  0.70807400  0.15505200  1
  O  O18  1  0.19287800  0.41018100  0.33495900  1
  O  O19  1  0.42508200  0.09345600  0.54639100  1
  O  O20  1  0.12311500  0.83373200  0.35436000  1
  O  O21  1  0.39408200  0.66944400  0.62677600  1
  O  O22  1  0.80822900  0.91279700  0.06321700  1
  O  O23  1  0.68407800  0.58657500  0.94149700  1
  O  O24  1  0.31226600  0.41146100  0.56030100  1
  O  O25  1  0.19117200  0.08367400  0.45064300  1
  O  O26  1  0.60593000  0.33351200  0.87045800  1
  O  O27  1  0.87706400  0.17427000  0.14617000  1
  O  O28  1  0.56860700  0.90394400  0.96366400  1
  O  O29  1  0.79178100  0.59596400  0.17176800  1
  O  O30  1  0.89755100  0.31025500  0.34949800  1
  O  O31  1  0.62076700  0.10550000  0.08086900  1
  O  O32  1  0.66648800  0.39407000  0.12954200  1
  O  O33  1  0.10678300  0.62181500  0.57910000  1
  O  O34  1  0.16626800  0.87688500  0.64564000  1
  O  O35  1  0.89796700  0.04397800  0.37238300  1
  O  O36  1  0.90654400  0.57491800  0.45360900  1
  O  O37  1  0.53155300  0.62105900  0.14685800  1
  O  O38  1  0.60749800  0.87752000  0.21986700  1
  O  O39  1  0.91632600  0.80882800  0.54935700  1
  O  O40  1  0.68325300  0.18308200  0.33511400  1
  O  O41  1  0.95602200  0.10203300  0.62761700  1
  O  O42  1  0.88425000  0.60009800  0.71239800  1
  O  O43  1  0.58853900  0.68773400  0.43969900  1
  O  O44  1  0.81691800  0.31674700  0.66488600  1
  O  O45  1  0.68974500  0.10244900  0.65050200  1
  O  O46  1  0.62202000  0.54413100  0.65203500  1
  O  O47  1  0.58981900  0.80712200  0.66504100  1
loop_
_geom_bond_atom_site_label_1
_geom_bond_atom_site_label_2
_geom_bond_distance
_geom_bond_site_symmetry_2
Li0 O28 1.888375 1_555
Li0 O23 1.999022 1_555
Li0 O37 2.495601 1_556
Li0 O47 2.517756 1_555
Li1 O2 1.922599 1_554
Li1 O7 2.146803 1_555
Li1 O12 2.277345 1_555
Li1 O28 2.593939 1_554
Li2 O11 1.888375 1_555
Li2 O4 1.999022 1_555
Li2 O1 2.495601 1_554
Li2 O18 2.517756 1_555
Li3 O17 1.922599 1_556
Li3 O3 2.146803 1_555
Li3 O6 2.277345 1_555
Li3 O11 2.593939 1_556
Li4 O18 1.999012 1_555
Li4 O11 2.163848 1_555
Li4 O30 2.168764 1_455
Li4 O36 2.559887 1_455
Li4 O17 2.568583 1_555
Li4 O29 2.631318 1_455
Li5 O47 1.999012 1_555
Li5 O28 2.163848 1_555
Li5 O45 2.168764 1_565
Li5 O19 2.559887 1_565
Li5 O2 2.568583 1_555
Li5 O0 2.631318 1_565
Li6 O29 1.882079 1_555
Li6 O22 2.189603 1_555
Li6 O38 2.425796 1_555
Li6 O17 2.468559 1_655
Li7 O0 1.882079 1_555
Li7 O8 2.189603 1_555
Li7 O5 2.425796 1_555
Li7 O2 2.468559 1_545
Li8 O30 1.920837 1_455
Li8 O44 2.433046 1_455
Li8 O18 2.457170 1_555
Li8 O41 2.555461 1_455
Li8 O36 2.586322 1_455
Li9 O36 1.861833 1_555
Li9 O30 2.355283 1_555
Li9 O43 2.375858 1_555
Li10 O45 1.920837 1_565
Li10 O40 2.433046 1_565
Li10 O47 2.457170 1_555
Li10 O35 2.555461 1_565
Li10 O19 2.586322 1_565
Li11 O19 1.861833 1_555
Li11 O45 2.355283 1_555
Li11 O24 2.375858 1_555
O0 P0 1.528489 1_555
O1 P0 1.540998 1_555
O1 Ti5 2.014998 1_555
O2 P1 1.531920 1_555
O3 P1 1.566448 1_555
O3 Ti5 2.054944 1_555
O4 P0 1.567517 1_554
O4 Ti7 2.039763 1_555
O5 P2 1.545425 1_555
O5 Ti5 2.026549 1_555
O6 P1 1.543380 1_555
O6 Ti2 2.017130 1_466
O7 P3 1.566448 1_555
O7 Ti0 2.054944 1_555
O8 P2 1.565385 1_555
O8 Ti2 2.052812 1_456
O9 P4 1.543802 1_555
O9 Ti7 1.989915 1_555
O10 P5 1.540243 1_555
O10 Ti7 1.968980 1_555
O11 P2 1.532954 1_554
O12 P3 1.543380 1_555
O12 Ti2 2.017130 1_465
O13 P10 1.579128 1_555
O13 Ti3 2.050755 1_556
O13 Ti2 2.107269 1_556
O14 P2 1.580950 1_655
O14 Ti3 2.057094 1_556
O14 Ti1 2.080717 1_555
O15 P5 1.588297 1_565
O15 Ti4 2.035591 1_555
O15 Ti0 2.070261 1_555
O16 P4 1.588104 1_555
O16 Ti4 2.043283 1_555
O16 Ti0 2.073791 1_555
O17 P3 1.531920 1_555
O18 P4 1.526582 1_555
O19 P5 1.528877 1_555
O20 P3 1.576958 1_555
O20 Ti4 2.056490 1_555
O20 Ti6 2.087869 1_555
O21 P11 1.588104 1_555
O21 Ti4 2.043283 1_555
O21 Ti5 2.073791 1_555
O22 P6 1.565385 1_555
O22 Ti2 2.052812 1_565
O23 P7 1.567517 1_556
O23 Ti1 2.039763 1_555
O24 P4 1.565389 1_555
O24 Ti5 2.047547 1_555
O25 P5 1.556258 1_555
O25 Ti6 2.007397 1_545
O26 P0 1.576654 1_555
O26 Ti3 2.056358 1_556
O26 Ti1 2.113411 1_555
O27 P8 1.579128 1_555
O27 Ti3 2.050755 1_555
O27 Ti2 2.107269 1_555
O28 P6 1.532954 1_556
O29 P7 1.528489 1_555
O30 P8 1.536451 1_555
O31 P6 1.580950 1_545
O31 Ti3 2.057094 1_555
O31 Ti7 2.080717 1_555
O32 P7 1.576654 1_555
O32 Ti3 2.056358 1_555
O32 Ti7 2.113411 1_555
O33 P9 1.588297 1_455
O33 Ti4 2.035591 1_555
O33 Ti5 2.070261 1_555
O34 P1 1.576958 1_555
O34 Ti4 2.056490 1_555
O34 Ti6 2.087869 1_555
O35 P8 1.540567 1_555
O35 Ti6 2.004738 1_645
O36 P9 1.528877 1_555
O37 P7 1.540998 1_555
O37 Ti0 2.014998 1_555
O38 P6 1.545425 1_555
O38 Ti0 2.026549 1_555
O39 P9 1.556258 1_555
O39 Ti6 2.007397 1_655
O40 P8 1.565786 1_555
O40 Ti7 2.016389 1_555
O41 P10 1.540567 1_555
O41 Ti6 2.004738 1_645
O42 P9 1.540243 1_555
O42 Ti1 1.968980 1_555
O43 P11 1.565389 1_555
O43 Ti0 2.047547 1_555
O44 P10 1.565786 1_555
O44 Ti1 2.016389 1_555
O45 P10 1.536451 1_555
O46 P11 1.543802 1_555
O46 Ti1 1.989915 1_555
O47 P11 1.526582 1_555
