# generated using pymatgen
data_LiFePO4
_symmetry_space_group_name_H-M   'P 1'
_cell_length_a   5.25938207
_cell_length_b   5.26055712
_cell_length_c   26.51308200
_cell_angle_alpha   89.99978164
_cell_angle_beta   89.99985465
_cell_angle_gamma   119.97420468
_symmetry_Int_Tables_number   1
_chemical_formula_structural   LiFePO4
_chemical_formula_sum   'Li6 Fe6 P6 O24'
_cell_volume   635.43354226
_cell_formula_units_Z   6
loop_
 _symmetry_equiv_pos_site_id
 _symmetry_equiv_pos_as_xyz
  1  'x, y, z'
loop_
 _atom_site_type_symbol
 _atom_site_label
 _atom_site_symmetry_multiplicity
 _atom_site_fract_x
 _atom_site_fract_y
 _atom_site_fract_z
 _atom_site_occupancy
  Li  Li0  1  0.00000200  0.99999900  0.08335600  1
  Li  Li1  1  0.00000300  0.00000100  0.58332800  1
  Li  Li2  1  0.00000000  0.00000000  0.24995300  1
  Li  Li3  1  0.00000000  0.00000100  0.75001900  1
  Li  Li4  1  0.00000000  0.99999800  0.41662800  1
  Li  Li5  1  0.99999800  0.99999900  0.91671000  1
  Fe  Fe0  1  0.99998900  0.49999800  0.83330600  1
  Fe  Fe1  1  0.50002700  0.49999800  0.66669600  1
  Fe  Fe2  1  0.50000500  0.99999400  0.50002600  1
  Fe  Fe3  1  0.00002200  0.49999800  0.33333500  1
  Fe  Fe4  1  0.50000300  0.50000700  0.16665000  1
  Fe  Fe5  1  0.49999300  0.00001000  0.99997400  1
  P  P0  1  0.99999800  0.49999400  0.08333100  1
  P  P1  1  0.00000200  0.50000200  0.58325300  1
  P  P2  1  0.50000000  0.49999800  0.41660200  1
  P  P3  1  0.50000200  0.50001100  0.91675100  1
  P  P4  1  0.49999800  0.00000200  0.24999100  1
  P  P5  1  0.49999900  0.00000000  0.75007600  1
  O  O0  1  0.18271500  0.77833900  0.05069900  1
  O  O1  1  0.18281300  0.77816600  0.55061200  1
  O  O2  1  0.22196200  0.81740200  0.28267800  1
  O  O3  1  0.22175700  0.81720300  0.78270900  1
  O  O4  1  0.18299800  0.40505200  0.11603200  1
  O  O5  1  0.18295400  0.40491300  0.61596200  1
  O  O6  1  0.22207900  0.40512300  0.38393000  1
  O  O7  1  0.22171000  0.40454900  0.88406500  1
  O  O8  1  0.59544500  0.77829000  0.44927100  1
  O  O9  1  0.59521000  0.77822400  0.94938000  1
  O  O10  1  0.59498800  0.81693500  0.21731800  1
  O  O11  1  0.59511100  0.81716500  0.71735500  1
  O  O12  1  0.40500700  0.18306800  0.21731700  1
  O  O13  1  0.40488200  0.18283400  0.71735500  1
  O  O14  1  0.40455100  0.22170600  0.44927100  1
  O  O15  1  0.40479000  0.22178700  0.94937800  1
  O  O16  1  0.81699600  0.59494600  0.11603000  1
  O  O17  1  0.81704200  0.59508500  0.61596200  1
  O  O18  1  0.77792100  0.59487600  0.38393000  1
  O  O19  1  0.77829200  0.59545600  0.88406400  1
  O  O20  1  0.81728300  0.22165100  0.05069900  1
  O  O21  1  0.81718500  0.22183300  0.55061300  1
  O  O22  1  0.77803800  0.18259500  0.28267800  1
  O  O23  1  0.77823900  0.18279400  0.78270900  1
loop_
_geom_bond_atom_site_label_1
_geom_bond_atom_site_label_2
_geom_bond_distance
_geom_bond_site_symmetry_2
Li0 O20 2.037746 1_465
Li0 O0 2.037758 1_555
Li0 O16 2.041537 1_455
Li0 O4 2.041571 1_565
Li1 O1 2.039553 1_545
Li1 O21 2.039559 1_455
Li1 O5 2.040511 1_555
Li1 O17 2.040516 1_445
Li2 O22 2.039289 1_455
Li2 O2 2.039301 1_545
Li2 O12 2.040503 1_555
Li2 O10 2.040521 1_445
Li3 O23 2.038829 1_455
Li3 O3 2.038832 1_545
Li3 O13 2.040348 1_555
Li3 O11 2.040385 1_445
Li4 O14 2.038817 1_565
Li4 O8 2.038825 1_455
Li4 O18 2.042159 1_455
Li4 O6 2.042162 1_565
Li5 O19 2.039166 1_555
Li5 O7 2.039175 1_665
Li5 O9 2.040075 1_555
Li5 O15 2.040081 1_665
Fe0 O23 1.999910 1_555
Fe0 O3 1.999916 1_655
Fe0 O19 2.001949 1_555
Fe0 O7 2.002032 1_655
Fe1 O13 2.000969 1_555
Fe1 O11 2.001044 1_555
Fe1 O17 2.001518 1_555
Fe1 O5 2.001744 1_555
Fe2 O1 1.999578 1_555
Fe2 O21 1.999583 1_565
Fe2 O8 2.001997 1_555
Fe2 O14 2.002062 1_565
Fe3 O6 1.998728 1_555
Fe3 O18 1.998899 1_455
Fe3 O2 2.001702 1_555
Fe3 O22 2.001751 1_455
Fe4 O16 1.999536 1_555
Fe4 O4 1.999539 1_555
Fe4 O10 2.000399 1_555
Fe4 O12 2.000403 1_555
Fe5 O15 1.998758 1_555
Fe5 O9 1.998800 1_545
Fe5 O0 2.002159 1_546
Fe5 O20 2.002179 1_556
O0 P0 1.552419 1_455
O1 P1 1.552022 1_555
O2 P4 1.551937 1_565
O3 P5 1.551978 1_565
O4 P0 1.551714 1_455
O5 P1 1.552124 1_555
O6 P2 1.551470 1_555
O7 P3 1.552744 1_555
O8 P2 1.552778 1_555
O9 P3 1.552047 1_555
O10 P4 1.551832 1_565
O11 P5 1.551996 1_565
O12 P4 1.551844 1_555
O13 P5 1.552005 1_555
O14 P2 1.552768 1_555
O15 P3 1.552052 1_555
O16 P0 1.551725 1_555
O17 P1 1.552136 1_655
O18 P2 1.551462 1_555
O19 P3 1.552758 1_555
O20 P0 1.552420 1_555
O21 P1 1.552038 1_655
O22 P4 1.551953 1_555
O23 P5 1.551977 1_555
