# generated using pymatgen
data_Li2V2Si5O13
_symmetry_space_group_name_H-M   'P 1'
_cell_length_a   7.45497300
_cell_length_b   7.59560894
_cell_length_c   10.01490629
_cell_angle_alpha   83.34463931
_cell_angle_beta   68.51801790
_cell_angle_gamma   75.39759345
_symmetry_Int_Tables_number   1
_chemical_formula_structural   Li2V2Si5O13
_chemical_formula_sum   'Li4 V4 Si10 O26'
_cell_volume   510.47971536
_cell_formula_units_Z   2
loop_
 _symmetry_equiv_pos_site_id
 _symmetry_equiv_pos_as_xyz
  1  'x, y, z'
loop_
 _atom_site_type_symbol
 _atom_site_label
 _atom_site_symmetry_multiplicity
 _atom_site_fract_x
 _atom_site_fract_y
 _atom_site_fract_z
 _atom_site_occupancy
  Li  Li0  1  0.17718600  0.08041200  0.87502800  1
  Li  Li1  1  0.16265300  0.40753600  0.74531200  1
  Li  Li2  1  0.83734700  0.59246400  0.25468800  1
  Li  Li3  1  0.82281400  0.91958800  0.12497200  1
  V  V0  1  0.03515400  0.15260600  0.60050400  1
  V  V1  1  0.45253500  0.85396500  0.39916400  1
  V  V2  1  0.54746500  0.14603500  0.60083600  1
  V  V3  1  0.96484600  0.84739400  0.39949600  1
  Si  Si0  1  0.15051200  0.22217400  0.26481500  1
  Si  Si1  1  0.21336100  0.69129300  0.04404000  1
  Si  Si2  1  0.31025600  0.45816200  0.40884500  1
  Si  Si3  1  0.26748400  0.76938600  0.73081200  1
  Si  Si4  1  0.63212000  0.70406600  0.04373900  1
  Si  Si5  1  0.36788000  0.29593400  0.95626100  1
  Si  Si6  1  0.73251600  0.23061400  0.26918800  1
  Si  Si7  1  0.68974400  0.54183800  0.59115500  1
  Si  Si8  1  0.78663900  0.30870700  0.95596000  1
  Si  Si9  1  0.84948800  0.77782600  0.73518500  1
  O  O0  1  0.02433100  0.77083200  0.18003800  1
  O  O1  1  0.16094400  0.04917100  0.37684300  1
  O  O2  1  0.29633300  0.16230200  0.09980000  1
  O  O3  1  0.19774100  0.40014400  0.31068900  1
  O  O4  1  0.07422700  0.69598100  0.74073400  1
  O  O5  1  0.41442500  0.67691600  0.07229700  1
  O  O6  1  0.24351600  0.67717700  0.42742100  1
  O  O7  1  0.27720000  0.32183500  0.55099700  1
  O  O8  1  0.55076300  0.40817600  0.31088700  1
  O  O9  1  0.36138900  0.21819400  0.81652000  1
  O  O10  1  0.20775100  0.49414600  0.99576600  1
  O  O11  1  0.30631700  0.94732400  0.62582800  1
  O  O12  1  0.21699900  0.82853000  0.89907100  1
  O  O13  1  0.78300100  0.17147000  0.10092900  1
  O  O14  1  0.69368300  0.05267600  0.37417200  1
  O  O15  1  0.79224900  0.50585400  0.00423400  1
  O  O16  1  0.63861100  0.78180600  0.18348000  1
  O  O17  1  0.44923700  0.59182400  0.68911300  1
  O  O18  1  0.72280000  0.67816500  0.44900300  1
  O  O19  1  0.75648400  0.32282300  0.57257900  1
  O  O20  1  0.58557500  0.32308400  0.92770300  1
  O  O21  1  0.92577300  0.30401900  0.25926600  1
  O  O22  1  0.80225900  0.59985600  0.68931100  1
  O  O23  1  0.70366700  0.83769800  0.90020000  1
  O  O24  1  0.83905600  0.95082900  0.62315700  1
  O  O25  1  0.97566900  0.22916800  0.81996200  1
loop_
_geom_bond_atom_site_label_1
_geom_bond_atom_site_label_2
_geom_bond_distance
_geom_bond_site_symmetry_2
Li0 O9 1.821399 1_555
Li0 O25 1.855852 1_455
Li0 O12 1.861622 1_545
Li0 O11 2.551794 1_545
Li1 O7 1.932941 1_555
Li1 O9 2.057597 1_555
Li1 O25 2.071656 1_455
Li1 O4 2.123062 1_555
Li2 O18 1.932941 1_555
Li2 O16 2.057597 1_555
Li2 O0 2.071656 1_655
Li2 O21 2.123062 1_555
Li3 O16 1.821399 1_555
Li3 O0 1.855852 1_655
Li3 O13 1.861622 1_565
Li3 O14 2.551794 1_565
O0 Si1 1.600507 1_555
O0 V3 2.194941 1_455
O1 Si0 1.631632 1_555
O1 V0 2.238740 1_555
O1 V3 2.311661 1_445
O1 V1 2.372285 1_545
O2 Si0 1.651913 1_555
O2 Si5 1.659647 1_554
O3 Si0 1.632419 1_555
O3 Si2 1.659767 1_555
O4 Si3 1.638221 1_555
O4 Si9 1.652759 1_455
O5 Si1 1.599929 1_555
O5 Si4 1.604146 1_555
O6 Si2 1.623629 1_555
O6 V1 2.226049 1_555
O6 V3 2.247915 1_455
O7 Si2 1.640036 1_555
O7 V2 2.305904 1_555
O7 V0 2.349599 1_555
O8 Si6 1.619872 1_555
O8 Si2 1.666173 1_555
O9 Si5 1.601608 1_555
O9 V2 2.141724 1_555
O10 Si1 1.640743 1_556
O10 Si5 1.653536 1_555
O11 Si3 1.631230 1_555
O11 V1 2.239441 1_555
O11 V0 2.297084 1_565
O11 V2 2.554146 1_565
O12 Si3 1.675926 1_555
O12 Si1 1.682206 1_556
O13 Si6 1.675926 1_555
O13 Si8 1.682206 1_554
O14 Si6 1.631230 1_555
O14 V2 2.239441 1_555
O14 V3 2.297084 1_545
O14 V1 2.554146 1_545
O15 Si8 1.640743 1_554
O15 Si4 1.653536 1_555
O16 Si4 1.601608 1_555
O16 V1 2.141724 1_555
O17 Si3 1.619872 1_555
O17 Si7 1.666173 1_555
O18 Si7 1.640036 1_555
O18 V1 2.305904 1_555
O18 V3 2.349599 1_555
O19 Si7 1.623629 1_555
O19 V2 2.226049 1_555
O19 V0 2.247915 1_655
O20 Si8 1.599929 1_555
O20 Si5 1.604146 1_555
O21 Si6 1.638221 1_555
O21 Si0 1.652759 1_655
O22 Si9 1.632419 1_555
O22 Si7 1.659767 1_555
O23 Si9 1.651913 1_555
O23 Si4 1.659647 1_556
O24 Si9 1.631632 1_555
O24 V3 2.238740 1_555
O24 V0 2.311661 1_665
O24 V2 2.372285 1_565
O25 Si8 1.600507 1_555
O25 V0 2.194941 1_655
