# generated using pymatgen
data_Mn3(O2F)2
_symmetry_space_group_name_H-M   'P 1'
_cell_length_a   4.61767266
_cell_length_b   4.61767266
_cell_length_c   9.08988467
_cell_angle_alpha   89.62593238
_cell_angle_beta   89.62593238
_cell_angle_gamma   85.91238026
_symmetry_Int_Tables_number   1
_chemical_formula_structural   Mn3(O2F)2
_chemical_formula_sum   'Mn6 O8 F4'
_cell_volume   193.32197211
_cell_formula_units_Z   2
loop_
 _symmetry_equiv_pos_site_id
 _symmetry_equiv_pos_as_xyz
  1  'x, y, z'
loop_
 _atom_site_type_symbol
 _atom_site_label
 _atom_site_symmetry_multiplicity
 _atom_site_fract_x
 _atom_site_fract_y
 _atom_site_fract_z
 _atom_site_occupancy
  Mn  Mn0  1  0.01205600  0.01205600  0.82474700  1
  Mn  Mn1  1  0.00000000  0.00000000  0.50000000  1
  Mn  Mn2  1  0.98794400  0.98794400  0.17525300  1
  Mn  Mn3  1  0.50000000  0.50000000  0.00000000  1
  Mn  Mn4  1  0.47886400  0.47886400  0.66560200  1
  Mn  Mn5  1  0.52113600  0.52113600  0.33439800  1
  O  O0  1  0.80878500  0.80878500  0.33853000  1
  O  O1  1  0.29299200  0.68249400  0.83036200  1
  O  O2  1  0.30756600  0.69243500  0.50000000  1
  O  O3  1  0.31750600  0.70700800  0.16963800  1
  O  O4  1  0.68249400  0.29299200  0.83036200  1
  O  O5  1  0.69243500  0.30756500  0.50000000  1
  O  O6  1  0.70700800  0.31750600  0.16963800  1
  O  O7  1  0.19121500  0.19121500  0.66147000  1
  F  F0  1  0.77694500  0.77694500  0.66623800  1
  F  F1  1  0.81248800  0.81248800  0.98685800  1
  F  F2  1  0.22305500  0.22305500  0.33376200  1
  F  F3  1  0.18751200  0.18751200  0.01314200  1
loop_
_geom_bond_atom_site_label_1
_geom_bond_atom_site_label_2
_geom_bond_distance
_geom_bond_site_symmetry_2
Mn0 O7 1.907121 1_555
Mn0 O4 1.928684 1_455
Mn0 O1 1.928684 1_545
Mn1 O5 1.935606 1_455
Mn1 O2 1.935609 1_545
Mn1 O0 1.964314 1_445
Mn1 O7 1.964314 1_555
Mn2 O0 1.907121 1_555
Mn2 O3 1.928684 1_655
Mn2 O6 1.928684 1_565
Mn3 O6 1.972067 1_555
Mn3 O3 1.972067 1_555
Mn3 O1 1.972067 1_554
Mn3 O4 1.972067 1_554
Mn4 O2 1.936275 1_555
Mn4 O5 1.936276 1_555
Mn4 O1 1.936577 1_555
Mn4 O4 1.936577 1_555
Mn4 O7 1.944951 1_555
Mn5 O2 1.936274 1_555
Mn5 O5 1.936276 1_555
Mn5 O6 1.936577 1_555
Mn5 O3 1.936577 1_555
Mn5 O0 1.944951 1_555
F0 Mn4 2.014825 1_555
F0 Mn1 2.125030 1_665
F0 Mn0 2.154579 1_665
F1 Mn0 1.988841 1_665
F1 Mn2 2.091716 1_556
F1 Mn3 2.114455 1_556
F2 Mn5 2.014825 1_555
F2 Mn1 2.125030 1_555
F2 Mn2 2.154579 1_445
F3 Mn2 1.988841 1_445
F3 Mn0 2.091716 1_554
F3 Mn3 2.114455 1_555
