# generated using pymatgen
data_Li2Mn(BO3)2
_symmetry_space_group_name_H-M   'P 1'
_cell_length_a   5.96998805
_cell_length_b   7.73137000
_cell_length_c   5.43937113
_cell_angle_alpha   90.00119000
_cell_angle_beta   118.06520040
_cell_angle_gamma   89.99989830
_symmetry_Int_Tables_number   1
_chemical_formula_structural   Li2Mn(BO3)2
_chemical_formula_sum   'Li4 Mn2 B4 O12'
_cell_volume   221.53910713
_cell_formula_units_Z   2
loop_
 _symmetry_equiv_pos_site_id
 _symmetry_equiv_pos_as_xyz
  1  'x, y, z'
loop_
 _atom_site_type_symbol
 _atom_site_label
 _atom_site_symmetry_multiplicity
 _atom_site_fract_x
 _atom_site_fract_y
 _atom_site_fract_z
 _atom_site_occupancy
  Li  Li0  1  0.19050800  0.43492000  0.38669700  1
  Li  Li1  1  0.30947000  0.93498700  0.61328300  1
  Li  Li2  1  0.69061200  0.06522700  0.38709300  1
  Li  Li3  1  0.80937200  0.56515800  0.61289500  1
  Mn  Mn0  1  0.00003400  0.99998700  0.00029800  1
  Mn  Mn1  1  0.49996200  0.49989400  0.99970900  1
  B  B0  1  0.12932000  0.25746100  0.87205600  1
  B  B1  1  0.37071100  0.75746700  0.12797400  1
  B  B2  1  0.62936700  0.24254200  0.87180300  1
  B  B3  1  0.87067100  0.74253600  0.12822700  1
  O  O0  1  0.08569200  0.10242900  0.72643200  1
  O  O1  1  0.15784300  0.41443400  0.76913200  1
  O  O2  1  0.39541500  0.73800000  0.88705100  1
  O  O3  1  0.10458600  0.23800500  0.11294300  1
  O  O4  1  0.34211800  0.91447100  0.23089700  1
  O  O5  1  0.41432600  0.60243000  0.27353300  1
  O  O6  1  0.58569200  0.39742200  0.72586300  1
  O  O7  1  0.65795300  0.08544400  0.76947800  1
  O  O8  1  0.89549600  0.76216700  0.88732700  1
  O  O9  1  0.60451800  0.26217400  0.11266800  1
  O  O10  1  0.84201400  0.58541600  0.23055300  1
  O  O11  1  0.91432000  0.89743100  0.27408600  1
loop_
_geom_bond_atom_site_label_1
_geom_bond_atom_site_label_2
_geom_bond_distance
_geom_bond_site_symmetry_2
Li0 O3 2.019742 1_555
Li0 O5 2.148368 1_555
Li0 O10 2.177390 1_455
Li0 O1 2.184512 1_555
Li0 O6 2.226684 1_555
Li1 O2 2.020241 1_555
Li1 O0 2.147805 1_565
Li1 O7 2.177147 1_565
Li1 O4 2.184203 1_555
Li1 O11 2.226654 1_455
Li2 O9 2.022134 1_555
Li2 O11 2.148693 1_545
Li2 O4 2.178433 1_545
Li2 O7 2.184066 1_555
Li2 O0 2.226274 1_655
Li3 O8 2.022457 1_555
Li3 O6 2.148182 1_555
Li3 O1 2.178196 1_655
Li3 O10 2.183808 1_555
Li3 O5 2.226258 1_555
Mn0 O4 1.941866 1_555
Mn0 O7 1.941880 1_464
Mn0 O8 1.946000 1_454
Mn0 O3 1.947169 1_565
Mn0 O0 1.955691 1_564
Mn0 O11 1.955880 1_455
Mn1 O1 1.941842 1_555
Mn1 O10 1.941926 1_556
Mn1 O9 1.945299 1_556
Mn1 O2 1.947841 1_555
Mn1 O5 1.955676 1_556
Mn1 O6 1.955929 1_555
B0 O1 1.380223 1_555
B0 O0 1.392036 1_555
B0 O3 1.394026 1_556
B1 O4 1.380541 1_555
B1 O5 1.391933 1_555
B1 O2 1.394125 1_554
B2 O7 1.379663 1_555
B2 O6 1.391857 1_555
B2 O9 1.394426 1_556
B3 O10 1.379969 1_555
B3 O11 1.391730 1_555
B3 O8 1.394541 1_554
