# generated using pymatgen
data_CoTeO4
_symmetry_space_group_name_H-M   'P 1'
_cell_length_a   3.09147459
_cell_length_b   6.04188957
_cell_length_c   8.78666404
_cell_angle_alpha   93.21709552
_cell_angle_beta   90.00501561
_cell_angle_gamma   90.00736136
_symmetry_Int_Tables_number   1
_chemical_formula_structural   CoTeO4
_chemical_formula_sum   'Co2 Te2 O8'
_cell_volume   163.86172404
_cell_formula_units_Z   2
loop_
 _symmetry_equiv_pos_site_id
 _symmetry_equiv_pos_as_xyz
  1  'x, y, z'
loop_
 _atom_site_type_symbol
 _atom_site_label
 _atom_site_symmetry_multiplicity
 _atom_site_fract_x
 _atom_site_fract_y
 _atom_site_fract_z
 _atom_site_occupancy
  Co  Co0  1  0.49999900  0.24999900  0.25000000  1
  Co  Co1  1  0.49999900  0.74999800  0.75000000  1
  Te  Te0  1  0.00000000  0.99999600  0.49999700  1
  Te  Te1  1  0.00000000  0.50000100  0.00000300  1
  O  O0  1  0.00005300  0.46827200  0.21499300  1
  O  O1  1  0.00005300  0.96827300  0.71499500  1
  O  O2  1  0.99994500  0.03172500  0.28500700  1
  O  O3  1  0.99994500  0.53172400  0.78500400  1
  O  O4  1  0.50005700  0.21984000  0.50547600  1
  O  O5  1  0.50005700  0.71983900  0.00547700  1
  O  O6  1  0.49994300  0.28016000  0.99452400  1
  O  O7  1  0.49994300  0.78016200  0.49452300  1
loop_
_geom_bond_atom_site_label_1
_geom_bond_atom_site_label_2
_geom_bond_distance
_geom_bond_site_symmetry_2
Co0 O0 2.066049 1_555
Co0 O2 2.066052 1_555
Co0 O0 2.066085 1_655
Co0 O2 2.066089 1_455
Co0 O4 2.262335 1_555
Co0 O6 2.262336 1_554
Co1 O3 2.066048 1_555
Co1 O1 2.066053 1_555
Co1 O3 2.066084 1_455
Co1 O1 2.066090 1_655
Co1 O5 2.262343 1_556
Co1 O7 2.262348 1_555
O0 Te1 1.909420 1_555
O1 Te0 1.909485 1_555
O2 Te0 1.909420 1_645
O3 Te1 1.909493 1_656
O4 Te0 2.036848 1_645
O4 Te0 2.036850 1_545
O5 Te1 2.036825 1_655
O5 Te1 2.036827 1_555
O6 Te1 2.036836 1_556
O6 Te1 2.036838 1_656
O7 Te0 2.036809 1_555
O7 Te0 2.036811 1_655
