# generated using pymatgen
data_Li3TiFe3O8
_symmetry_space_group_name_H-M   'P 1'
_cell_length_a   5.97857094
_cell_length_b   6.01593914
_cell_length_c   8.47672413
_cell_angle_alpha   89.40882598
_cell_angle_beta   90.00021350
_cell_angle_gamma   90.00006842
_symmetry_Int_Tables_number   1
_chemical_formula_structural   Li3TiFe3O8
_chemical_formula_sum   'Li6 Ti2 Fe6 O16'
_cell_volume   304.86372556
_cell_formula_units_Z   2
loop_
 _symmetry_equiv_pos_site_id
 _symmetry_equiv_pos_as_xyz
  1  'x, y, z'
loop_
 _atom_site_type_symbol
 _atom_site_label
 _atom_site_symmetry_multiplicity
 _atom_site_fract_x
 _atom_site_fract_y
 _atom_site_fract_z
 _atom_site_occupancy
  Li  Li0  1  0.24999800  0.75001100  0.74998600  1
  Li  Li1  1  0.75000000  0.25001200  0.24998600  1
  Li  Li2  1  0.49996400  0.00000100  0.50000000  1
  Li  Li3  1  0.99996500  0.50000100  0.00000000  1
  Li  Li4  1  0.24999900  0.24999000  0.25001400  1
  Li  Li5  1  0.75000000  0.74999000  0.75001400  1
  Ti  Ti0  1  0.00014600  0.99999900  0.00000200  1
  Ti  Ti1  1  0.50014400  0.50000000  0.50000200  1
  Fe  Fe0  1  0.75003400  0.25003000  0.75002600  1
  Fe  Fe1  1  0.50002900  0.00000100  0.99999900  1
  Fe  Fe2  1  0.75003500  0.74997000  0.24997500  1
  Fe  Fe3  1  0.25003200  0.75002900  0.25002700  1
  Fe  Fe4  1  0.00003000  0.50000000  0.49999900  1
  Fe  Fe5  1  0.25003300  0.24996700  0.74997200  1
  O  O0  1  0.99975900  0.51758700  0.25865600  1
  O  O1  1  0.49975700  0.01758600  0.75865300  1
  O  O2  1  0.49976000  0.98241500  0.24134700  1
  O  O3  1  0.99976300  0.48241400  0.74134400  1
  O  O4  1  0.26000000  0.27469800  0.50740800  1
  O  O5  1  0.76000100  0.77469800  0.00740800  1
  O  O6  1  0.50007700  0.51498600  0.26749000  1
  O  O7  1  0.00008000  0.01498700  0.76748900  1
  O  O8  1  0.24006200  0.77488000  0.00754000  1
  O  O9  1  0.74006200  0.27488100  0.50753700  1
  O  O10  1  0.24005800  0.22512900  0.99246400  1
  O  O11  1  0.74005900  0.72512700  0.49246600  1
  O  O12  1  0.00007800  0.98501200  0.23251000  1
  O  O13  1  0.50007500  0.48501200  0.73250900  1
  O  O14  1  0.25999800  0.72529400  0.49258700  1
  O  O15  1  0.75999900  0.22529500  0.99258700  1
loop_
_geom_bond_atom_site_label_1
_geom_bond_atom_site_label_2
_geom_bond_distance
_geom_bond_site_symmetry_2
Li0 O14 2.189308 1_555
Li0 O8 2.190680 1_556
Li0 O7 2.191000 1_565
Li0 O13 2.191733 1_555
Li0 O1 2.197422 1_565
Li0 O3 2.199445 1_455
Li1 O15 2.189308 1_554
Li1 O9 2.190655 1_555
Li1 O6 2.191012 1_555
Li1 O12 2.191741 1_645
Li1 O0 2.197423 1_555
Li1 O2 2.199465 1_545
Li2 O4 2.189805 1_555
Li2 O14 2.189856 1_545
Li2 O11 2.191161 1_545
Li2 O9 2.191198 1_555
Li2 O1 2.196171 1_555
Li2 O2 2.196172 1_545
Li3 O5 2.189805 1_555
Li3 O15 2.189852 1_554
Li3 O10 2.191144 1_654
Li3 O8 2.191190 1_655
Li3 O0 2.196197 1_555
Li3 O3 2.196197 1_554
Li4 O4 2.189261 1_555
Li4 O10 2.190642 1_554
Li4 O12 2.191019 1_545
Li4 O6 2.191720 1_555
Li4 O2 2.197434 1_545
Li4 O0 2.199469 1_455
Li5 O5 2.189261 1_556
Li5 O11 2.190626 1_555
Li5 O13 2.191035 1_555
Li5 O7 2.191732 1_665
Li5 O3 2.197447 1_555
Li5 O1 2.199476 1_565
Fe0 O3 2.046175 1_555
Fe0 O1 2.048799 1_555
Fe0 O9 2.060266 1_555
Fe0 O15 2.060829 1_555
Fe0 O13 2.061387 1_555
Fe0 O7 2.061985 1_655
Fe1 O1 2.047467 1_555
Fe1 O2 2.047484 1_546
Fe1 O8 2.062061 1_546
Fe1 O10 2.062108 1_555
Fe1 O15 2.062732 1_555
Fe1 O5 2.062778 1_546
Fe2 O0 2.046151 1_555
Fe2 O2 2.048797 1_555
Fe2 O11 2.060281 1_555
Fe2 O5 2.060878 1_555
Fe2 O6 2.061388 1_555
Fe2 O12 2.061968 1_655
Fe3 O2 2.046178 1_555
Fe3 O0 2.048774 1_455
Fe3 O8 2.060248 1_555
Fe3 O14 2.060821 1_555
Fe3 O12 2.061369 1_555
Fe3 O6 2.061981 1_555
Fe4 O0 2.047442 1_455
Fe4 O3 2.047459 1_455
Fe4 O9 2.062057 1_455
Fe4 O11 2.062103 1_455
Fe4 O14 2.062723 1_555
Fe4 O4 2.062765 1_555
Fe5 O1 2.046143 1_555
Fe5 O3 2.048783 1_455
Fe5 O10 2.060287 1_555
Fe5 O4 2.060854 1_555
Fe5 O7 2.061351 1_555
Fe5 O13 2.061975 1_555
O4 Ti1 1.974990 1_555
O5 Ti0 1.974990 1_655
O6 Ti1 1.972072 1_555
O7 Ti0 1.972080 1_546
O8 Ti0 1.973274 1_555
O9 Ti1 1.973282 1_555
O10 Ti0 1.973300 1_546
O11 Ti1 1.973300 1_555
O12 Ti0 1.972038 1_555
O13 Ti1 1.972030 1_555
O14 Ti1 1.974969 1_555
O15 Ti0 1.974982 1_646
