# generated using pymatgen
data_Li8NiO5F
_symmetry_space_group_name_H-M   'P 1'
_cell_length_a   5.51430953
_cell_length_b   5.51430953
_cell_length_c   10.85088200
_cell_angle_alpha   90.00000000
_cell_angle_beta   90.00000000
_cell_angle_gamma   119.99999434
_symmetry_Int_Tables_number   1
_chemical_formula_structural   Li8NiO5F
_chemical_formula_sum   'Li16 Ni2 O10 F2'
_cell_volume   285.74456429
_cell_formula_units_Z   2
loop_
 _symmetry_equiv_pos_site_id
 _symmetry_equiv_pos_as_xyz
  1  'x, y, z'
loop_
 _atom_site_type_symbol
 _atom_site_label
 _atom_site_symmetry_multiplicity
 _atom_site_fract_x
 _atom_site_fract_y
 _atom_site_fract_z
 _atom_site_occupancy
  Li  Li0  1  0.97649100  0.68789800  0.77248400  1
  Li  Li1  1  0.01873600  0.63805500  0.12105000  1
  Li  Li2  1  0.98126400  0.36194500  0.62105000  1
  Li  Li3  1  0.02350900  0.31210200  0.27248400  1
  Li  Li4  1  0.33333300  0.66666700  0.41478400  1
  Li  Li5  1  0.33333300  0.66666700  0.92623200  1
  Li  Li6  1  0.31210200  0.28859400  0.77248400  1
  Li  Li7  1  0.36194500  0.38068000  0.12105000  1
  Li  Li8  1  0.63805500  0.61932000  0.62105000  1
  Li  Li9  1  0.28859400  0.97649100  0.27248400  1
  Li  Li10  1  0.68789800  0.71140600  0.27248400  1
  Li  Li11  1  0.38068000  0.01873600  0.62105000  1
  Li  Li12  1  0.66666700  0.33333300  0.91478400  1
  Li  Li13  1  0.66666700  0.33333300  0.42623200  1
  Li  Li14  1  0.61932000  0.98126400  0.12105000  1
  Li  Li15  1  0.71140600  0.02350900  0.77248400  1
  Ni  Ni0  1  0.00000000  0.00000000  0.98860800  1
  Ni  Ni1  1  0.00000000  0.00000000  0.48860800  1
  O  O0  1  0.00164300  0.68010900  0.94775800  1
  O  O1  1  0.99835700  0.31989100  0.44775800  1
  O  O2  1  0.33333300  0.66666700  0.21284500  1
  O  O3  1  0.00000000  0.00000000  0.67107500  1
  O  O4  1  0.00000000  0.00000000  0.17107500  1
  O  O5  1  0.31989100  0.32153500  0.94775800  1
  O  O6  1  0.32153500  0.00164300  0.44775800  1
  O  O7  1  0.68010900  0.67846500  0.44775800  1
  O  O8  1  0.66666700  0.33333300  0.71284500  1
  O  O9  1  0.67846500  0.99835700  0.94775800  1
  F  F0  1  0.33333300  0.66666700  0.70820700  1
  F  F1  1  0.66666700  0.33333300  0.20820700  1
loop_
_geom_bond_atom_site_label_1
_geom_bond_atom_site_label_2
_geom_bond_distance
_geom_bond_site_symmetry_2
Li0 O0 1.908973 1_655
Li0 O8 1.954485 1_555
Li0 O3 1.991598 1_665
Li1 O0 1.902712 1_554
Li1 O2 1.937213 1_555
Li1 O4 2.120154 1_565
Li2 O1 1.902712 1_555
Li2 O8 1.937213 1_555
Li2 O3 2.120154 1_655
Li3 O1 1.908973 1_455
Li3 O2 1.954485 1_555
Li3 O4 1.991598 1_555
Li4 O6 1.914270 1_565
Li4 O1 1.914276 1_455
Li4 O7 1.914281 1_555
Li4 O2 2.191216 1_555
Li5 O0 1.881760 1_555
Li5 O5 1.881760 1_555
Li5 O9 1.881760 1_555
Li6 O5 1.908973 1_555
Li6 O8 1.954489 1_555
Li6 O3 1.991600 1_555
Li7 O5 1.902711 1_554
Li7 O2 1.937223 1_555
Li7 O4 2.120151 1_555
Li8 O7 1.902711 1_555
Li8 O8 1.937223 1_555
Li8 O3 2.120151 1_665
Li9 O6 1.908973 1_565
Li9 O2 1.954479 1_555
Li9 O4 1.991603 1_565
Li10 O7 1.908973 1_555
Li10 O2 1.954489 1_555
Li10 O4 1.991600 1_665
Li11 O6 1.902711 1_555
Li11 O8 1.937217 1_555
Li11 O3 2.120149 1_555
Li12 O9 1.914270 1_545
Li12 O0 1.914276 1_655
Li12 O5 1.914281 1_555
Li12 O8 2.191216 1_555
Li13 O1 1.881760 1_555
Li13 O7 1.881760 1_555
Li13 O6 1.881760 1_555
Li14 O9 1.902711 1_554
Li14 O2 1.937217 1_555
Li14 O4 2.120149 1_665
Li15 O9 1.908973 1_545
Li15 O8 1.954479 1_555
Li15 O3 1.991603 1_655
Ni0 O0 1.823228 1_545
Ni0 O5 1.823231 1_555
Ni0 O9 1.823233 1_445
Ni0 O4 1.979928 1_556
Ni1 O1 1.823228 1_455
Ni1 O7 1.823231 1_445
Ni1 O6 1.823233 1_555
Ni1 O3 1.979928 1_555
F0 Li8 2.055431 1_555
F0 Li11 2.055431 1_565
F0 Li2 2.055431 1_455
F0 Li0 2.145349 1_455
F0 Li6 2.145349 1_555
F0 Li15 2.145349 1_565
F0 Li5 2.365764 1_555
F1 Li7 2.055431 1_555
F1 Li14 2.055431 1_545
F1 Li1 2.055431 1_655
F1 Li3 2.145349 1_655
F1 Li10 2.145349 1_555
F1 Li9 2.145349 1_545
F1 Li13 2.365764 1_555
