# generated using pymatgen
data_TbCrO3
_symmetry_space_group_name_H-M   'P 1'
_cell_length_a   5.25593727
_cell_length_b   5.54415288
_cell_length_c   7.56498891
_cell_angle_alpha   90.00000000
_cell_angle_beta   90.00000000
_cell_angle_gamma   90.00000000
_symmetry_Int_Tables_number   1
_chemical_formula_structural   TbCrO3
_chemical_formula_sum   'Tb4 Cr4 O12'
_cell_volume   220.44165677
_cell_formula_units_Z   4
loop_
 _symmetry_equiv_pos_site_id
 _symmetry_equiv_pos_as_xyz
  1  'x, y, z'
loop_
 _atom_site_type_symbol
 _atom_site_label
 _atom_site_symmetry_multiplicity
 _atom_site_fract_x
 _atom_site_fract_y
 _atom_site_fract_z
 _atom_site_occupancy
  Tb  Tb0  1  0.51827099  0.56701858  0.25000000  1
  Tb  Tb1  1  0.98172901  0.06701858  0.25000000  1
  Tb  Tb2  1  0.48172901  0.43298142  0.75000000  1
  Tb  Tb3  1  0.01827099  0.93298142  0.75000000  1
  Cr  Cr0  1  0.50000000  0.00000000  -0.00000000  1
  Cr  Cr1  1  -0.00000000  0.50000000  0.50000000  1
  Cr  Cr2  1  0.50000000  0.00000000  0.50000000  1
  Cr  Cr3  1  -0.00000000  0.50000000  -0.00000000  1
  O  O0  1  0.39433317  0.96576476  0.25000000  1
  O  O1  1  0.10566683  0.46576476  0.25000000  1
  O  O2  1  0.60566683  0.03423524  0.75000000  1
  O  O3  1  0.89433317  0.53423524  0.75000000  1
  O  O4  1  0.80579437  0.80144035  0.05430265  1
  O  O5  1  0.69420563  0.30144035  0.44569735  1
  O  O6  1  0.19420563  0.19855965  0.55430265  1
  O  O7  1  0.30579437  0.69855965  0.94569735  1
  O  O8  1  0.19420563  0.19855965  0.94569735  1
  O  O9  1  0.30579437  0.69855965  0.55430265  1
  O  O10  1  0.80579437  0.80144035  0.44569735  1
  O  O11  1  0.69420563  0.30144035  0.05430265  1
loop_
_geom_bond_atom_site_label_1
_geom_bond_atom_site_label_2
_geom_bond_distance
_geom_bond_site_symmetry_2
Cr0 O0 1.980224 1_545
Cr0 O2 1.980224 1_554
Cr0 O8 1.990935 1_554
Cr0 O4 1.990935 1_545
Cr0 O7 2.000916 1_544
Cr0 O11 2.000916 1_555
Cr1 O3 1.980224 1_455
Cr1 O1 1.980224 1_555
Cr1 O5 1.990935 1_455
Cr1 O9 1.990935 1_555
Cr1 O6 2.000916 1_555
Cr1 O10 2.000916 1_455
Cr2 O0 1.980224 1_545
Cr2 O2 1.980224 1_555
Cr2 O6 1.990935 1_555
Cr2 O10 1.990935 1_545
Cr2 O9 2.000916 1_545
Cr2 O5 2.000916 1_555
Cr3 O3 1.980224 1_454
Cr3 O1 1.980224 1_555
Cr3 O7 1.990935 1_554
Cr3 O11 1.990935 1_455
Cr3 O4 2.000916 1_455
Cr3 O8 2.000916 1_554
O0 Tb1 2.240101 1_465
O0 Tb0 2.304685 1_555
O1 Tb0 2.240101 1_555
O1 Tb1 2.304685 1_455
O2 Tb3 2.240101 1_645
O2 Tb2 2.304685 1_555
O3 Tb2 2.240101 1_555
O3 Tb3 2.304685 1_655
O4 Tb1 2.283589 1_565
O4 Tb0 2.482863 1_555
O4 Tb3 2.660532 1_654
O5 Tb0 2.283589 1_555
O5 Tb1 2.482863 1_555
O5 Tb2 2.660532 1_555
O6 Tb3 2.283589 1_545
O6 Tb2 2.482863 1_555
O6 Tb1 2.660532 1_455
O7 Tb2 2.283589 1_555
O7 Tb3 2.482863 1_555
O7 Tb0 2.660532 1_556
O8 Tb3 2.283589 1_545
O8 Tb2 2.482863 1_555
O8 Tb1 2.660532 1_456
O9 Tb2 2.283589 1_555
O9 Tb3 2.482863 1_555
O9 Tb0 2.660532 1_555
O10 Tb1 2.283589 1_565
O10 Tb0 2.482863 1_555
O10 Tb3 2.660532 1_655
O11 Tb0 2.283589 1_555
O11 Tb1 2.482863 1_555
O11 Tb2 2.660532 1_554
