# generated using pymatgen
data_Li3Mn2(PO4)3
_symmetry_space_group_name_H-M   'P 1'
_cell_length_a   8.71126500
_cell_length_b   8.67501100
_cell_length_c   12.22092164
_cell_angle_alpha   85.96472924
_cell_angle_beta   90.00000000
_cell_angle_gamma   90.00000000
_symmetry_Int_Tables_number   1
_chemical_formula_structural   Li3Mn2(PO4)3
_chemical_formula_sum   'Li12 Mn8 P12 O48'
_cell_volume   921.24942858
_cell_formula_units_Z   4
loop_
 _symmetry_equiv_pos_site_id
 _symmetry_equiv_pos_as_xyz
  1  'x, y, z'
loop_
 _atom_site_type_symbol
 _atom_site_label
 _atom_site_symmetry_multiplicity
 _atom_site_fract_x
 _atom_site_fract_y
 _atom_site_fract_z
 _atom_site_occupancy
  Li  Li0  1  0.19699200  0.69320900  0.94935700  1
  Li  Li1  1  0.58357000  0.50000000  0.75000000  1
  Li  Li2  1  0.19699200  0.30679100  0.55064300  1
  Li  Li3  1  0.50000000  0.50000000  0.50000000  1
  Li  Li4  1  0.00000000  0.00000000  0.50000000  1
  Li  Li5  1  0.80300800  0.69320900  0.44935700  1
  Li  Li6  1  0.91156100  0.00000000  0.75000000  1
  Li  Li7  1  0.41643000  0.50000000  0.25000000  1
  Li  Li8  1  0.08843900  0.00000000  0.25000000  1
  Li  Li9  1  0.00000000  0.00000000  0.00000000  1
  Li  Li10  1  0.50000000  0.50000000  0.00000000  1
  Li  Li11  1  0.80300800  0.30679100  0.05064300  1
  Mn  Mn0  1  0.99681000  0.71596200  0.64308900  1
  Mn  Mn1  1  0.50385800  0.79063200  0.85429600  1
  Mn  Mn2  1  0.99681000  0.28403800  0.85691100  1
  Mn  Mn3  1  0.00319000  0.71596200  0.14308900  1
  Mn  Mn4  1  0.00319000  0.28403800  0.35691100  1
  Mn  Mn5  1  0.49614200  0.79063200  0.35429600  1
  Mn  Mn6  1  0.50385800  0.20936800  0.64570400  1
  Mn  Mn7  1  0.49614200  0.20936800  0.14570400  1
  P  P0  1  0.28287100  0.50000000  0.75000000  1
  P  P1  1  0.84906900  0.65083900  0.90105800  1
  P  P2  1  0.64467100  0.83973700  0.60478100  1
  P  P3  1  0.64467100  0.16026300  0.89521900  1
  P  P4  1  0.15093100  0.65083900  0.40105800  1
  P  P5  1  0.20849200  0.00000000  0.75000000  1
  P  P6  1  0.84906900  0.34916100  0.59894200  1
  P  P7  1  0.35532900  0.83973700  0.10478100  1
  P  P8  1  0.35532900  0.16026300  0.39521900  1
  P  P9  1  0.15093100  0.34916100  0.09894200  1
  P  P10  1  0.71712900  0.50000000  0.25000000  1
  P  P11  1  0.79150800  0.00000000  0.25000000  1
  O  O0  1  0.30647100  0.86743600  0.80422700  1
  O  O1  1  0.59110400  0.99558700  0.89377700  1
  O  O2  1  0.09977000  0.94489700  0.65954400  1
  O  O3  1  0.38753500  0.56372100  0.83948200  1
  O  O4  1  0.18265600  0.37764000  0.81215600  1
  O  O5  1  0.67097300  0.66273700  0.91557100  1
  O  O6  1  0.93924100  0.74639000  0.98338900  1
  O  O7  1  0.18265600  0.62236000  0.68784400  1
  O  O8  1  0.59281900  0.25375800  0.99288100  1
  O  O9  1  0.06075900  0.74639000  0.48338900  1
  O  O10  1  0.09977000  0.05510300  0.84045600  1
  O  O11  1  0.59661900  0.73990700  0.70909100  1
  O  O12  1  0.87804400  0.47637300  0.91603400  1
  O  O13  1  0.40889600  0.99558700  0.39377700  1
  O  O14  1  0.90290200  0.72676600  0.78932400  1
  O  O15  1  0.38753500  0.43627900  0.66051800  1
  O  O16  1  0.59661900  0.26009300  0.79090900  1
  O  O17  1  0.09709800  0.72676600  0.28932400  1
  O  O18  1  0.82604200  0.85112500  0.59154700  1
  O  O19  1  0.59281900  0.74624200  0.50711900  1
  O  O20  1  0.12195600  0.47637300  0.41603400  1
  O  O21  1  0.30647100  0.13256400  0.69577300  1
  O  O22  1  0.82604200  0.14887500  0.90845300  1
  O  O23  1  0.32902700  0.66273700  0.41557100  1
  O  O24  1  0.67097300  0.33726300  0.58442900  1
  O  O25  1  0.17395800  0.85112500  0.09154700  1
  O  O26  1  0.69352900  0.86743600  0.30422700  1
  O  O27  1  0.87804400  0.52362700  0.58396600  1
  O  O28  1  0.17395800  0.14887500  0.40845300  1
  O  O29  1  0.40718100  0.25375800  0.49288100  1
  O  O30  1  0.40338100  0.73990700  0.20909100  1
  O  O31  1  0.90290200  0.27323400  0.71067600  1
  O  O32  1  0.61246500  0.56372100  0.33948200  1
  O  O33  1  0.09709800  0.27323400  0.21067600  1
  O  O34  1  0.59110400  0.00441300  0.60622300  1
  O  O35  1  0.12195600  0.52362700  0.08396600  1
  O  O36  1  0.40338100  0.26009300  0.29090900  1
  O  O37  1  0.90023000  0.94489700  0.15954400  1
  O  O38  1  0.93924100  0.25361000  0.51661100  1
  O  O39  1  0.40718100  0.74624200  0.00711900  1
  O  O40  1  0.81734400  0.37764000  0.31215600  1
  O  O41  1  0.32902700  0.33726300  0.08442900  1
  O  O42  1  0.06075900  0.25361000  0.01661100  1
  O  O43  1  0.81734400  0.62236000  0.18784400  1
  O  O44  1  0.61246500  0.43627900  0.16051800  1
  O  O45  1  0.90023000  0.05510300  0.34045600  1
  O  O46  1  0.40889600  0.00441300  0.10622300  1
  O  O47  1  0.69352900  0.13256400  0.19577300  1
loop_
_geom_bond_atom_site_label_1
_geom_bond_atom_site_label_2
_geom_bond_distance
_geom_bond_site_symmetry_2
Li0 O39 2.026887 1_556
Li0 O35 2.226444 1_556
Li0 O25 2.295988 1_556
Li0 O6 2.335457 1_455
Li0 O0 2.441801 1_555
Li0 O3 2.456079 1_555
Li1 O11 2.108982 1_555
Li1 O16 2.108982 1_555
Li1 O3 2.121976 1_555
Li1 O15 2.121976 1_555
Li2 O29 2.026887 1_555
Li2 O20 2.226444 1_555
Li2 O28 2.295988 1_555
Li2 O38 2.335457 1_455
Li2 O21 2.441801 1_555
Li2 O15 2.456079 1_555
Li3 O15 2.227323 1_555
Li3 O32 2.227323 1_555
Li3 O24 2.251869 1_555
Li3 O23 2.251869 1_555
Li3 O19 2.291431 1_555
Li3 O29 2.291431 1_555
Li4 O45 2.157388 1_455
Li4 O2 2.157388 1_545
Li4 O28 2.238907 1_555
Li4 O18 2.238907 1_445
Li4 O38 2.285721 1_455
Li4 O9 2.285721 1_545
Li5 O19 2.026887 1_555
Li5 O27 2.226444 1_555
Li5 O18 2.295988 1_555
Li5 O9 2.335457 1_655
Li5 O26 2.441801 1_555
Li5 O32 2.456079 1_555
Li6 O10 2.052558 1_655
Li6 O2 2.052558 1_645
Li6 O31 2.386353 1_555
Li6 O14 2.386353 1_545
Li6 O22 2.514902 1_555
Li6 O18 2.514902 1_545
Li7 O30 2.108982 1_555
Li7 O36 2.108982 1_555
Li7 O32 2.121976 1_555
Li7 O44 2.121976 1_555
Li8 O45 2.052558 1_455
Li8 O37 2.052558 1_445
Li8 O33 2.386353 1_555
Li8 O17 2.386353 1_545
Li8 O28 2.514902 1_555
Li8 O25 2.514902 1_545
Li9 O37 2.157388 1_445
Li9 O10 2.157388 1_554
Li9 O25 2.238907 1_545
Li9 O22 2.238907 1_454
Li9 O6 2.285721 1_444
Li9 O42 2.285721 1_555
Li10 O44 2.227323 1_555
Li10 O3 2.227323 1_554
Li10 O5 2.251869 1_554
Li10 O41 2.251869 1_555
Li10 O8 2.291431 1_554
Li10 O39 2.291431 1_555
Li11 O8 2.026887 1_554
Li11 O12 2.226444 1_554
Li11 O22 2.295988 1_554
Li11 O42 2.335457 1_655
Li11 O47 2.441801 1_555
Li11 O44 2.456079 1_555
Mn0 O7 1.875366 1_655
Mn0 O18 1.969933 1_555
Mn0 O14 1.973676 1_555
Mn0 O9 2.028932 1_655
Mn0 O27 2.132148 1_555
Mn0 O2 2.201215 1_655
Mn1 O0 1.928108 1_555
Mn1 O5 1.947845 1_555
Mn1 O1 2.022971 1_555
Mn1 O11 2.026202 1_555
Mn1 O39 2.060196 1_556
Mn1 O3 2.232614 1_555
Mn2 O4 1.875366 1_655
Mn2 O22 1.969933 1_555
Mn2 O31 1.973676 1_555
Mn2 O42 2.028932 1_656
Mn2 O12 2.132148 1_555
Mn2 O10 2.201215 1_655
Mn3 O43 1.875366 1_455
Mn3 O25 1.969933 1_555
Mn3 O17 1.973676 1_555
Mn3 O6 2.028932 1_454
Mn3 O35 2.132148 1_555
Mn3 O37 2.201215 1_455
Mn4 O40 1.875366 1_455
Mn4 O28 1.969933 1_555
Mn4 O33 1.973676 1_555
Mn4 O38 2.028932 1_455
Mn4 O20 2.132148 1_555
Mn4 O45 2.201215 1_455
Mn5 O26 1.928108 1_555
Mn5 O23 1.947845 1_555
Mn5 O13 2.022971 1_555
Mn5 O30 2.026202 1_555
Mn5 O19 2.060196 1_555
Mn5 O32 2.232614 1_555
Mn6 O21 1.928108 1_555
Mn6 O24 1.947845 1_555
Mn6 O34 2.022971 1_555
Mn6 O16 2.026202 1_555
Mn6 O29 2.060196 1_555
Mn6 O15 2.232614 1_555
Mn7 O47 1.928108 1_555
Mn7 O41 1.947845 1_555
Mn7 O46 2.022971 1_555
Mn7 O36 2.026202 1_555
Mn7 O8 2.060196 1_554
Mn7 O44 2.232614 1_555
O0 P5 1.543665 1_565
O1 P3 1.504129 1_565
O2 P5 1.556251 1_565
O3 P0 1.554927 1_555
O4 P0 1.533745 1_555
O5 P1 1.565777 1_555
O6 P1 1.560081 1_555
O7 P0 1.533745 1_555
O8 P3 1.556469 1_555
O9 P4 1.560081 1_555
O10 P5 1.556251 1_555
O11 P2 1.547537 1_555
O12 P1 1.532608 1_555
O13 P8 1.504129 1_565
O14 P1 1.546527 1_555
O15 P0 1.554927 1_555
O16 P3 1.547537 1_555
O17 P4 1.546527 1_555
O18 P2 1.590590 1_555
O19 P2 1.556469 1_555
O20 P4 1.532608 1_555
O21 P5 1.543665 1_555
O22 P3 1.590590 1_555
O23 P4 1.565777 1_555
O24 P6 1.565777 1_555
O25 P7 1.590590 1_555
O26 P11 1.543665 1_565
O27 P6 1.532608 1_555
O28 P8 1.590590 1_555
O29 P8 1.556469 1_555
O30 P7 1.547537 1_555
O31 P6 1.546527 1_555
O32 P10 1.554927 1_555
O33 P9 1.546527 1_555
O34 P2 1.504129 1_545
O35 P9 1.532608 1_555
O36 P8 1.547537 1_555
O37 P11 1.556251 1_565
O38 P6 1.560081 1_555
O39 P7 1.556469 1_555
O40 P10 1.533745 1_555
O41 P9 1.565777 1_555
O42 P9 1.560081 1_555
O43 P10 1.533745 1_555
O44 P10 1.554927 1_555
O45 P11 1.556251 1_555
O46 P7 1.504129 1_545
O47 P11 1.543665 1_555
