# generated using pymatgen
data_MgZr3Tl10(MoO4)12
_symmetry_space_group_name_H-M   'P 1'
_cell_length_a   14.40761572
_cell_length_b   14.40761572
_cell_length_c   14.40761596
_cell_angle_alpha   44.30919685
_cell_angle_beta   44.30919685
_cell_angle_gamma   44.30919884
_symmetry_Int_Tables_number   1
_chemical_formula_structural   MgZr3Tl10(MoO4)12
_chemical_formula_sum   'Mg1 Zr3 Tl10 Mo12 O48'
_cell_volume   1326.30203765
_cell_formula_units_Z   1
loop_
 _symmetry_equiv_pos_site_id
 _symmetry_equiv_pos_as_xyz
  1  'x, y, z'
loop_
 _atom_site_type_symbol
 _atom_site_label
 _atom_site_symmetry_multiplicity
 _atom_site_fract_x
 _atom_site_fract_y
 _atom_site_fract_z
 _atom_site_occupancy
  Mg  Mg0  1  0.50055500  0.50055500  0.50055500  1
  Zr  Zr0  1  0.00050400  0.00050400  0.00050400  1
  Zr  Zr1  1  0.75241300  0.75241300  0.75241300  1
  Zr  Zr2  1  0.24823700  0.24823700  0.24823700  1
  Tl  Tl0  1  0.89456500  0.89456500  0.89456500  1
  Tl  Tl1  1  0.60310200  0.60310200  0.60310200  1
  Tl  Tl2  1  0.11717000  0.50328600  0.88039800  1
  Tl  Tl3  1  0.88039800  0.11717000  0.50328600  1
  Tl  Tl4  1  0.50328600  0.88039800  0.11717000  1
  Tl  Tl5  1  0.39869200  0.39869200  0.39869200  1
  Tl  Tl6  1  0.38706200  0.00319100  0.61028100  1
  Tl  Tl7  1  0.00319100  0.61028100  0.38706200  1
  Tl  Tl8  1  0.61028100  0.38706200  0.00319100  1
  Tl  Tl9  1  0.10701800  0.10701800  0.10701800  1
  Mo  Mo0  1  0.23001900  0.63220900  0.98882400  1
  Mo  Mo1  1  0.98882400  0.23001900  0.63220900  1
  Mo  Mo2  1  0.51095900  0.27772700  0.86318400  1
  Mo  Mo3  1  0.63220900  0.98882400  0.23001900  1
  Mo  Mo4  1  0.27772700  0.86318400  0.51095900  1
  Mo  Mo5  1  0.86318400  0.51095900  0.27772700  1
  Mo  Mo6  1  0.48635900  0.13709600  0.72806400  1
  Mo  Mo7  1  0.13709600  0.72806400  0.48635900  1
  Mo  Mo8  1  0.00832600  0.36818600  0.77591900  1
  Mo  Mo9  1  0.72806400  0.48635900  0.13709600  1
  Mo  Mo10  1  0.77591900  0.00832600  0.36818600  1
  Mo  Mo11  1  0.36818600  0.77591900  0.00832600  1
  O  O0  1  0.74986800  0.64498700  0.95370400  1
  O  O1  1  0.64498700  0.95370400  0.74986800  1
  O  O2  1  0.95370400  0.74986800  0.64498700  1
  O  O3  1  0.54892400  0.74905500  0.85484900  1
  O  O4  1  0.21586600  0.92953900  0.94889700  1
  O  O5  1  0.94889700  0.21586600  0.92953900  1
  O  O6  1  0.85484900  0.54892400  0.74905500  1
  O  O7  1  0.74905500  0.85484900  0.54892400  1
  O  O8  1  0.39425500  0.65486300  0.86712700  1
  O  O9  1  0.92953900  0.94889700  0.21586600  1
  O  O10  1  0.86712700  0.39425500  0.65486300  1
  O  O11  1  0.59761200  0.32293800  0.86235400  1
  O  O12  1  0.18656700  0.63765000  0.89834300  1
  O  O13  1  0.65486300  0.86712700  0.39425500  1
  O  O14  1  0.32293800  0.86235400  0.59761200  1
  O  O15  1  0.89834300  0.18656700  0.63765000  1
  O  O16  1  0.63629100  0.11221100  0.84036300  1
  O  O17  1  0.86235400  0.59761200  0.32293800  1
  O  O18  1  0.45115700  0.42749200  0.71750600  1
  O  O19  1  0.11221100  0.84036300  0.63629100  1
  O  O20  1  0.63765000  0.89834300  0.18656700  1
  O  O21  1  0.42749200  0.71750600  0.45115700  1
  O  O22  1  0.36380700  0.15841000  0.89429600  1
  O  O23  1  0.71750600  0.45115700  0.42749200  1
  O  O24  1  0.54413700  0.28400200  0.57858600  1
  O  O25  1  0.84036300  0.63629100  0.11221100  1
  O  O26  1  0.28400200  0.57858600  0.54413700  1
  O  O27  1  0.09688000  0.36481300  0.81985300  1
  O  O28  1  0.15841000  0.89429600  0.36380700  1
  O  O29  1  0.57858600  0.54413700  0.28400200  1
  O  O30  1  0.39754900  0.13992300  0.68368600  1
  O  O31  1  0.89429600  0.36380700  0.15841000  1
  O  O32  1  0.81985300  0.09688000  0.36481300  1
  O  O33  1  0.13992300  0.68368600  0.39754900  1
  O  O34  1  0.13262400  0.34384400  0.61252300  1
  O  O35  1  0.36481300  0.81985300  0.09688000  1
  O  O36  1  0.68368600  0.39754900  0.13992300  1
  O  O37  1  0.61252300  0.13262400  0.34384400  1
  O  O38  1  0.04627300  0.07660500  0.78561900  1
  O  O39  1  0.34384400  0.61252300  0.13262400  1
  O  O40  1  0.14356100  0.25364200  0.45177800  1
  O  O41  1  0.45177800  0.14356100  0.25364200  1
  O  O42  1  0.78561900  0.04627300  0.07660500  1
  O  O43  1  0.07660500  0.78561900  0.04627300  1
  O  O44  1  0.25364200  0.45177800  0.14356100  1
  O  O45  1  0.25278500  0.04684200  0.35359600  1
  O  O46  1  0.04684200  0.35359600  0.25278500  1
  O  O47  1  0.35359600  0.25278500  0.04684200  1
loop_
_geom_bond_atom_site_label_1
_geom_bond_atom_site_label_2
_geom_bond_distance
_geom_bond_site_symmetry_2
Mg0 O23 2.136424 1_555
Mg0 O21 2.136424 1_555
Mg0 O18 2.136424 1_555
Mg0 O24 2.139901 1_555
Mg0 O26 2.139901 1_555
Mg0 O29 2.139901 1_555
Mo0 O12 1.746135 1_555
Mo0 O8 1.768757 1_555
Mo0 O44 1.835553 1_556
Mo0 O43 1.861195 1_556
Mo1 O15 1.746135 1_555
Mo1 O10 1.768757 1_555
Mo1 O40 1.835553 1_655
Mo1 O38 1.861195 1_655
Mo2 O11 1.764780 1_555
Mo2 O16 1.779106 1_555
Mo2 O18 1.802612 1_555
Mo2 O47 1.868268 1_556
Mo3 O20 1.746135 1_555
Mo3 O13 1.768757 1_555
Mo3 O41 1.835553 1_565
Mo3 O42 1.861195 1_565
Mo4 O14 1.764780 1_555
Mo4 O19 1.779106 1_555
Mo4 O21 1.802612 1_555
Mo4 O45 1.868268 1_565
Mo5 O17 1.764780 1_555
Mo5 O25 1.779106 1_555
Mo5 O23 1.802612 1_555
Mo5 O46 1.868268 1_655
Mo6 O30 1.762580 1_555
Mo6 O22 1.781136 1_555
Mo6 O24 1.800865 1_555
Mo6 O1 1.870997 1_545
Mo7 O33 1.762580 1_555
Mo7 O28 1.781136 1_555
Mo7 O26 1.800865 1_555
Mo7 O2 1.870997 1_455
Mo8 O27 1.747532 1_555
Mo8 O34 1.766697 1_555
Mo8 O6 1.833554 1_455
Mo8 O5 1.863736 1_455
Mo9 O36 1.762580 1_555
Mo9 O31 1.781136 1_555
Mo9 O29 1.800865 1_555
Mo9 O0 1.870997 1_554
Mo10 O32 1.747532 1_555
Mo10 O37 1.766697 1_555
Mo10 O7 1.833554 1_545
Mo10 O9 1.863736 1_545
Mo11 O35 1.747532 1_555
Mo11 O39 1.766697 1_555
Mo11 O3 1.833554 1_554
Mo11 O4 1.863736 1_554
O0 Zr1 2.076684 1_555
O1 Zr1 2.076684 1_555
O2 Zr1 2.076684 1_555
O3 Zr1 2.164302 1_555
O4 Zr0 2.114661 1_566
O5 Zr0 2.114661 1_656
O6 Zr1 2.164302 1_555
O7 Zr1 2.164302 1_555
O9 Zr0 2.114661 1_665
O16 Tl0 2.871269 1_545
O19 Tl0 2.871269 1_455
O22 Tl9 2.841509 1_556
O25 Tl0 2.871269 1_554
O28 Tl9 2.841509 1_565
O31 Tl9 2.841509 1_655
O38 Zr0 2.115873 1_556
O40 Zr2 2.170146 1_555
O41 Zr2 2.170146 1_555
O42 Zr0 2.115873 1_655
O43 Zr0 2.115873 1_565
O44 Zr2 2.170146 1_555
O45 Zr2 2.072322 1_555
O46 Zr2 2.072323 1_555
O47 Zr2 2.072323 1_555
