# generated using pymatgen
data_Li3Nb4NiO12
_symmetry_space_group_name_H-M   'P 1'
_cell_length_a   5.61261312
_cell_length_b   11.29403550
_cell_length_c   9.92511477
_cell_angle_alpha   27.76402873
_cell_angle_beta   50.02385136
_cell_angle_gamma   55.27722863
_symmetry_Int_Tables_number   1
_chemical_formula_structural   Li3Nb4NiO12
_chemical_formula_sum   'Li3 Nb4 Ni1 O12'
_cell_volume   224.58559229
_cell_formula_units_Z   1
loop_
 _symmetry_equiv_pos_site_id
 _symmetry_equiv_pos_as_xyz
  1  'x, y, z'
loop_
 _atom_site_type_symbol
 _atom_site_label
 _atom_site_symmetry_multiplicity
 _atom_site_fract_x
 _atom_site_fract_y
 _atom_site_fract_z
 _atom_site_occupancy
  Li  Li0  1  0.28550500  0.49783900  0.28498600  1
  Li  Li1  1  0.79283400  0.50249900  0.77970200  1
  Li  Li2  1  0.77978900  0.00446600  0.78306300  1
  Nb  Nb0  1  0.00919000  0.51115300  0.98849300  1
  Nb  Nb1  1  0.50868000  0.49934500  0.49606800  1
  Nb  Nb2  1  0.00462800  0.00184900  0.99749900  1
  Nb  Nb3  1  0.50523400  0.00184800  0.49953600  1
  Ni  Ni0  1  0.28479600  0.99014800  0.30267100  1
  O  O0  1  0.10149500  0.82603200  0.72427700  1
  O  O1  1  0.21310400  0.60767700  0.62725300  1
  O  O2  1  0.61154000  0.68240300  0.85965200  1
  O  O3  1  0.71366800  0.87407500  0.36448500  1
  O  O4  1  0.36024200  0.80335500  0.11311900  1
  O  O5  1  0.10966900  0.31488100  0.72489200  1
  O  O6  1  0.86069900  0.69182200  0.22628900  1
  O  O7  1  0.22146100  0.12364300  0.61359400  1
  O  O8  1  0.61354600  0.17687600  0.85993700  1
  O  O9  1  0.72098000  0.37614000  0.35814600  1
  O  O10  1  0.36898500  0.32426500  0.09716800  1
  O  O11  1  0.86355300  0.18968400  0.22877000  1
loop_
_geom_bond_atom_site_label_1
_geom_bond_atom_site_label_2
_geom_bond_distance
_geom_bond_site_symmetry_2
Li0 O2 2.088271 1_554
Li0 O6 2.097430 1_455
Li0 O7 2.111347 1_555
Li0 O9 2.253307 1_555
Li0 O5 2.264232 1_555
Li0 O4 2.303187 1_555
Li1 O10 2.058715 1_556
Li1 O3 2.100915 1_555
Li1 O5 2.110099 1_655
Li1 O1 2.165559 1_655
Li1 O2 2.292159 1_555
Li1 O11 2.304963 1_556
Li2 O0 2.060037 1_645
Li2 O9 2.096612 1_555
Li2 O4 2.109120 1_546
Li2 O8 2.211129 1_555
Li2 O7 2.285341 1_655
Li2 O6 2.297061 1_546
Nb0 O10 1.900110 1_556
Nb0 O0 1.908146 1_555
Nb0 O9 1.919827 1_456
Nb0 O1 2.141167 1_555
Nb0 O2 2.174806 1_455
Nb0 O11 2.256139 1_456
Nb1 O6 1.895471 1_555
Nb1 O8 1.914443 1_555
Nb1 O1 1.917255 1_555
Nb1 O9 2.148525 1_555
Nb1 O4 2.154971 1_555
Nb1 O5 2.218068 1_555
Nb2 O5 1.887687 1_555
Nb2 O4 1.902398 1_546
Nb2 O3 1.937955 1_446
Nb2 O7 2.136490 1_555
Nb2 O8 2.172798 1_455
Nb2 O6 2.205258 1_446
Nb3 O11 1.895602 1_555
Nb3 O2 1.901094 1_545
Nb3 O7 1.911440 1_555
Nb3 O3 2.175502 1_545
Nb3 O10 2.192938 1_555
Nb3 O0 2.201342 1_545
Ni0 O11 2.107021 1_465
Ni0 O3 2.183671 1_555
Ni0 O8 2.185310 1_564
Ni0 O1 2.210525 1_555
Ni0 O0 2.217740 1_555
Ni0 O10 2.407224 1_565
