# generated using pymatgen
data_Sr2LaCl7
_symmetry_space_group_name_H-M   'P 1'
_cell_length_a   10.60051400
_cell_length_b   7.96585500
_cell_length_c   8.45179830
_cell_angle_alpha   69.33141291
_cell_angle_beta   90.00000000
_cell_angle_gamma   90.00000000
_symmetry_Int_Tables_number   1
_chemical_formula_structural   Sr2LaCl7
_chemical_formula_sum   'Sr4 La2 Cl14'
_cell_volume   667.75346596
_cell_formula_units_Z   2
loop_
 _symmetry_equiv_pos_site_id
 _symmetry_equiv_pos_as_xyz
  1  'x, y, z'
loop_
 _atom_site_type_symbol
 _atom_site_label
 _atom_site_symmetry_multiplicity
 _atom_site_fract_x
 _atom_site_fract_y
 _atom_site_fract_z
 _atom_site_occupancy
  Sr  Sr0  1  0.02882400  0.23238400  0.23771800  1
  Sr  Sr1  1  0.47117600  0.23238400  0.23771800  1
  Sr  Sr2  1  0.52882400  0.76761600  0.76228200  1
  Sr  Sr3  1  0.97117600  0.76761600  0.76228200  1
  La  La0  1  0.25000000  0.74202500  0.20499100  1
  La  La1  1  0.75000000  0.25797500  0.79500900  1
  Cl  Cl0  1  0.25000000  0.12404900  0.07032300  1
  Cl  Cl1  1  0.99123700  0.37491300  0.86173700  1
  Cl  Cl2  1  0.50876300  0.37491300  0.86173700  1
  Cl  Cl3  1  0.07692900  0.84477400  0.42027100  1
  Cl  Cl4  1  0.42307100  0.84477400  0.42027100  1
  Cl  Cl5  1  0.75000000  0.19397300  0.15203900  1
  Cl  Cl6  1  0.75000000  0.63950900  0.61473200  1
  Cl  Cl7  1  0.25000000  0.36049100  0.38526800  1
  Cl  Cl8  1  0.25000000  0.80602700  0.84796100  1
  Cl  Cl9  1  0.57692900  0.15522600  0.57972900  1
  Cl  Cl10  1  0.92307100  0.15522600  0.57972900  1
  Cl  Cl11  1  0.49123700  0.62508700  0.13826300  1
  Cl  Cl12  1  0.00876300  0.62508700  0.13826300  1
  Cl  Cl13  1  0.75000000  0.87595100  0.92967700  1
loop_
_geom_bond_atom_site_label_1
_geom_bond_atom_site_label_2
_geom_bond_distance
_geom_bond_site_symmetry_2
Cl0 La0 2.848005 1_545
Cl0 Sr1 3.017499 1_555
Cl0 Sr0 3.017499 1_555
Cl1 La1 2.845363 1_555
Cl1 Sr3 2.946404 1_555
Cl1 Sr0 2.999801 1_656
Cl2 La1 2.845363 1_555
Cl2 Sr2 2.946404 1_555
Cl2 Sr1 2.999801 1_556
Cl3 La0 2.897879 1_555
Cl3 Sr3 2.955660 1_455
Cl3 Sr0 2.968360 1_565
Cl4 La0 2.897879 1_555
Cl4 Sr2 2.955660 1_555
Cl4 Sr1 2.968360 1_565
Cl5 La1 2.877410 1_554
Cl5 Sr0 3.083901 1_655
Cl5 Sr1 3.083901 1_555
Cl6 La1 2.879162 1_555
Cl6 Sr3 2.998660 1_555
Cl6 Sr2 2.998660 1_555
Cl7 La0 2.879162 1_555
Cl7 Sr1 2.998660 1_555
Cl7 Sr0 2.998660 1_555
Cl8 La0 2.877410 1_556
Cl8 Sr2 3.083901 1_555
Cl8 Sr3 3.083901 1_455
Cl9 La1 2.897879 1_555
Cl9 Sr1 2.955660 1_555
Cl9 Sr2 2.968360 1_545
Cl10 La1 2.897879 1_555
Cl10 Sr0 2.955660 1_655
Cl10 Sr3 2.968360 1_545
Cl11 La0 2.845363 1_555
Cl11 Sr1 2.946404 1_555
Cl11 Sr2 2.999801 1_554
Cl12 La0 2.845363 1_555
Cl12 Sr0 2.946404 1_555
Cl12 Sr3 2.999801 1_454
Cl13 La1 2.848005 1_565
Cl13 Sr3 3.017499 1_555
Cl13 Sr2 3.017499 1_555
