# generated using pymatgen
data_FeOF
_symmetry_space_group_name_H-M   'P 1'
_cell_length_a   3.09745500
_cell_length_b   14.14130500
_cell_length_c   14.24729507
_cell_angle_alpha   89.80911821
_cell_angle_beta   90.00000000
_cell_angle_gamma   90.00000000
_symmetry_Int_Tables_number   1
_chemical_formula_structural   FeOF
_chemical_formula_sum   'Fe18 O18 F18'
_cell_volume   624.05735135
_cell_formula_units_Z   18
loop_
 _symmetry_equiv_pos_site_id
 _symmetry_equiv_pos_as_xyz
  1  'x, y, z'
loop_
 _atom_site_type_symbol
 _atom_site_label
 _atom_site_symmetry_multiplicity
 _atom_site_fract_x
 _atom_site_fract_y
 _atom_site_fract_z
 _atom_site_occupancy
  Fe  Fe0  1  0.00000000  0.98674400  0.99650600  1
  Fe  Fe1  1  0.00000000  0.98208200  0.33745000  1
  Fe  Fe2  1  0.00000000  0.99303800  0.66379800  1
  Fe  Fe3  1  0.50000000  0.84636500  0.16498000  1
  Fe  Fe4  1  0.50000000  0.84722800  0.50250600  1
  Fe  Fe5  1  0.50000000  0.82632200  0.85028900  1
  Fe  Fe6  1  0.00000000  0.65787100  0.99406300  1
  Fe  Fe7  1  0.00000000  0.65911800  0.33540400  1
  Fe  Fe8  1  0.00000000  0.65690700  0.66376800  1
  Fe  Fe9  1  0.50000000  0.51329200  0.49907900  1
  Fe  Fe10  1  0.50000000  0.52148200  0.16709900  1
  Fe  Fe11  1  0.50000000  0.51456100  0.83031500  1
  Fe  Fe12  1  0.00000000  0.32733400  0.00385600  1
  Fe  Fe13  1  0.00000000  0.32323800  0.32850800  1
  Fe  Fe14  1  0.00000000  0.31988600  0.66570700  1
  Fe  Fe15  1  0.50000000  0.17768300  0.16483000  1
  Fe  Fe16  1  0.50000000  0.18115200  0.49562500  1
  Fe  Fe17  1  0.50000000  0.15901600  0.81163100  1
  O  O0  1  0.50000000  0.93499000  0.27101800  1
  O  O1  1  0.50000000  0.93181200  0.60082200  1
  O  O2  1  0.50000000  0.93851500  0.93203500  1
  O  O3  1  0.00000000  0.89887500  0.10223100  1
  O  O4  1  0.00000000  0.89793800  0.44281100  1
  O  O5  1  0.00000000  0.76473600  0.90336800  1
  O  O6  1  0.50000000  0.60691400  0.27236000  1
  O  O7  1  0.50000000  0.60282200  0.60248700  1
  O  O8  1  0.50000000  0.59551900  0.93794300  1
  O  O9  1  0.00000000  0.56515500  0.10156800  1
  O  O10  1  0.00000000  0.56535400  0.43600200  1
  O  O11  1  0.00000000  0.56490600  0.76779600  1
  O  O12  1  0.50000000  0.27051000  0.26423900  1
  O  O13  1  0.50000000  0.26869900  0.60216200  1
  O  O14  1  0.00000000  0.23308800  0.09701300  1
  O  O15  1  0.00000000  0.23448200  0.43259000  1
  O  O16  1  0.00000000  0.23239200  0.77220200  1
  O  O17  1  0.50000000  0.05667500  0.72792500  1
  F  F0  1  0.00000000  0.89053800  0.76971600  1
  F  F1  1  0.00000000  0.76891500  0.23431200  1
  F  F2  1  0.00000000  0.77074300  0.56847600  1
  F  F3  1  0.50000000  0.73154100  0.07137200  1
  F  F4  1  0.50000000  0.73361600  0.73125500  1
  F  F5  1  0.50000000  0.73761900  0.40262000  1
  F  F6  1  0.00000000  0.43548900  0.23051500  1
  F  F7  1  0.00000000  0.43406500  0.56590100  1
  F  F8  1  0.00000000  0.42699800  0.90150500  1
  F  F9  1  0.50000000  0.39771000  0.06246900  1
  F  F10  1  0.50000000  0.40044400  0.39650800  1
  F  F11  1  0.50000000  0.39887100  0.73417900  1
  F  F12  1  0.50000000  0.27031200  0.93568100  1
  F  F13  1  0.00000000  0.10408500  0.22844400  1
  F  F14  1  0.00000000  0.10216500  0.55955400  1
  F  F15  1  0.00000000  0.10457700  0.90199800  1
  F  F16  1  0.50000000  0.06819700  0.06641000  1
  F  F17  1  0.50000000  0.06741100  0.39710500  1
loop_
_geom_bond_atom_site_label_1
_geom_bond_atom_site_label_2
_geom_bond_distance
_geom_bond_site_symmetry_2
Fe0 O2 1.926550 1_555
Fe0 O2 1.926550 1_455
Fe0 O3 1.949478 1_556
Fe1 O4 1.912408 1_555
Fe1 O0 1.934439 1_555
Fe1 O0 1.934439 1_455
Fe2 O1 1.989574 1_455
Fe2 O1 1.989574 1_555
Fe2 O17 2.012115 1_565
Fe2 O17 2.012115 1_465
Fe3 O3 1.935141 1_555
Fe3 O3 1.935141 1_655
Fe3 O0 1.966136 1_555
Fe4 O1 1.844980 1_555
Fe4 O4 1.905799 1_655
Fe4 O4 1.905799 1_555
Fe5 O5 1.929905 1_655
Fe5 O5 1.929905 1_555
Fe5 O2 1.971269 1_555
Fe6 O8 1.954485 1_455
Fe6 O8 1.954485 1_555
Fe6 O5 1.985049 1_555
Fe6 O9 2.012868 1_556
Fe7 O6 1.937714 1_555
Fe7 O6 1.937714 1_455
Fe7 O10 1.949275 1_555
Fe8 O7 1.936558 1_555
Fe8 O7 1.936558 1_455
Fe8 O11 1.968873 1_555
Fe9 O10 1.934889 1_655
Fe9 O10 1.934889 1_555
Fe9 O7 1.945747 1_555
Fe10 O9 1.909926 1_655
Fe10 O9 1.909926 1_555
Fe10 O6 1.928906 1_555
Fe11 O8 1.916696 1_555
Fe11 O11 1.922132 1_555
Fe11 O11 1.922132 1_655
Fe12 O14 1.877770 1_555
Fe13 O15 1.939560 1_555
Fe13 O12 1.948723 1_555
Fe13 O12 1.948723 1_455
Fe14 O13 1.935596 1_455
Fe14 O13 1.935596 1_555
Fe14 O16 1.954596 1_555
Fe15 O12 1.934293 1_555
Fe15 O14 1.985181 1_555
Fe15 O14 1.985181 1_655
Fe16 O15 1.941479 1_655
Fe16 O15 1.941479 1_555
Fe16 O13 1.961924 1_555
Fe17 O17 1.878363 1_555
Fe17 O16 1.946002 1_555
Fe17 O16 1.946002 1_655
F0 Fe2 2.088934 1_555
F0 Fe5 2.129328 1_555
F0 Fe5 2.129328 1_455
F1 Fe7 2.114313 1_555
F1 Fe3 2.136971 1_455
F1 Fe3 2.136971 1_555
F2 Fe8 2.102399 1_555
F2 Fe4 2.108326 1_455
F2 Fe4 2.108326 1_555
F3 Fe3 2.104681 1_555
F3 Fe6 2.169034 1_554
F3 Fe6 2.169034 1_654
F4 Fe8 2.122903 1_555
F4 Fe8 2.122903 1_655
F4 Fe5 2.147001 1_555
F5 Fe4 2.107717 1_555
F5 Fe7 2.134259 1_655
F5 Fe7 2.134259 1_555
F6 Fe13 2.110495 1_555
F6 Fe10 2.164797 1_555
F6 Fe10 2.164797 1_455
F7 Fe9 2.133788 1_455
F7 Fe9 2.133788 1_555
F7 Fe14 2.147964 1_555
F8 Fe12 2.024617 1_556
F8 Fe11 2.225353 1_455
F8 Fe11 2.225353 1_555
F9 Fe12 2.022841 1_555
F9 Fe12 2.022841 1_655
F9 Fe10 2.302845 1_555
F10 Fe13 2.129841 1_555
F10 Fe13 2.129841 1_655
F10 Fe9 2.167428 1_555
F11 Fe11 2.137164 1_555
F11 Fe14 2.145944 1_555
F11 Fe14 2.145944 1_655
F12 Fe12 1.999361 1_656
F12 Fe12 1.999361 1_556
F12 Fe17 2.370490 1_555
F13 Fe15 2.072898 1_455
F13 Fe15 2.072898 1_555
F13 Fe1 2.317473 1_545
F14 Fe16 2.114002 1_455
F14 Fe16 2.114002 1_555
F14 Fe2 2.138222 1_545
F15 Fe0 2.138847 1_545
F15 Fe17 2.154582 1_555
F15 Fe17 2.154582 1_455
F16 Fe15 2.092328 1_555
F16 Fe0 2.173676 1_644
F16 Fe0 2.173676 1_544
F17 Fe16 2.138307 1_555
F17 Fe1 2.140980 1_545
F17 Fe1 2.140980 1_645
