# generated using pymatgen
data_Mg21FeSi12(HO16)3
_symmetry_space_group_name_H-M   'P 1'
_cell_length_a   5.76518300
_cell_length_b   7.75528804
_cell_length_c   21.79505876
_cell_angle_alpha   87.77979512
_cell_angle_beta   88.71896078
_cell_angle_gamma   68.74501693
_symmetry_Int_Tables_number   1
_chemical_formula_structural   Mg21FeSi12(HO16)3
_chemical_formula_sum   'Mg21 Fe1 Si12 H3 O48'
_cell_volume   907.46633496
_cell_formula_units_Z   1
loop_
 _symmetry_equiv_pos_site_id
 _symmetry_equiv_pos_as_xyz
  1  'x, y, z'
loop_
 _atom_site_type_symbol
 _atom_site_label
 _atom_site_symmetry_multiplicity
 _atom_site_fract_x
 _atom_site_fract_y
 _atom_site_fract_z
 _atom_site_occupancy
  Mg  Mg0  1  0.32416900  0.21283800  0.65981400  1
  Mg  Mg1  1  0.96865300  0.56702500  0.76298000  1
  Mg  Mg2  1  0.88685500  0.19603100  0.43044400  1
  Mg  Mg3  1  0.88396100  0.22518000  0.72252500  1
  Mg  Mg4  1  0.40435800  0.16391300  0.96121900  1
  Mg  Mg5  1  0.36059000  0.79177300  0.39780200  1
  Mg  Mg6  1  0.05612000  0.84500500  0.04424300  1
  Mg  Mg7  1  0.32766900  0.82459900  0.91356300  1
  Mg  Mg8  1  0.74440500  0.46953200  0.61862400  1
  Mg  Mg9  1  0.48331400  0.50501100  0.99478500  1
  Mg  Mg10  1  0.63543700  0.18989400  0.08428100  1
  Mg  Mg11  1  0.91243800  0.16353600  0.96068600  1
  Mg  Mg12  1  0.72357100  0.11493600  0.57846600  1
  Mg  Mg13  1  0.16976500  0.19506800  0.83577900  1
  Mg  Mg14  1  0.79920600  0.86450100  0.67680500  1
  Mg  Mg15  1  0.16328700  0.82455900  0.26562300  1
  Mg  Mg16  1  0.57155400  0.83777400  0.03914300  1
  Mg  Mg17  1  0.16150000  0.57927400  0.60389900  1
  Mg  Mg18  1  0.98179300  0.50469100  0.21272600  1
  Mg  Mg19  1  0.49860200  0.50726300  0.49992500  1
  Mg  Mg20  1  0.64994700  0.92068500  0.19996000  1
  Fe  Fe0  1  0.16279200  0.18278800  0.30295200  1
  Si  Si0  1  0.77625100  0.94416800  0.85403700  1
  Si  Si1  1  0.94840600  0.58381000  0.92111000  1
  Si  Si2  1  0.13555500  0.24105700  0.52891000  1
  Si  Si3  1  0.29048500  0.90465200  0.58288400  1
  Si  Si4  1  0.59869900  0.31277100  0.83139800  1
  Si  Si5  1  0.33156800  0.82545100  0.75253900  1
  Si  Si6  1  0.42915300  0.61405900  0.15266200  1
  Si  Si7  1  0.52371200  0.42551500  0.30568200  1
  Si  Si8  1  0.96775000  0.56716000  0.46742300  1
  Si  Si9  1  0.71477400  0.03397400  0.35032300  1
  Si  Si10  1  0.16891700  0.10043500  0.15100200  1
  Si  Si11  1  0.01932200  0.42733400  0.06572500  1
  H  H0  1  0.31900800  0.62029300  0.82297100  1
  H  H1  1  0.59168800  0.99171700  0.45165600  1
  H  H2  1  0.64541700  0.33681800  0.19324700  1
  O  O0  1  0.24728400  0.97911100  0.99274100  1
  O  O1  1  0.66883300  0.65849000  0.95403800  1
  O  O2  1  0.49040400  0.00751900  0.88260200  1
  O  O3  1  0.08541200  0.16342600  0.60244900  1
  O  O4  1  0.70684400  0.09393000  0.79334000  1
  O  O5  1  0.06409900  0.35540000  0.91574100  1
  O  O6  1  0.88660200  0.71110500  0.85115000  1
  O  O7  1  0.01976400  0.86974500  0.60319100  1
  O  O8  1  0.81304700  0.26821700  0.51497800  1
  O  O9  1  0.10921700  0.76457400  0.72637700  1
  O  O10  1  0.31722900  0.40149000  0.80463000  1
  O  O11  1  0.15441400  0.65465700  0.95262700  1
  O  O12  1  0.99080400  0.00738400  0.88388600  1
  O  O13  1  0.39897700  0.64270600  0.32134300  1
  O  O14  1  0.12058800  0.33624400  0.45187300  1
  O  O15  1  0.63836000  0.26006700  0.65981800  1
  O  O16  1  0.28463000  0.00442100  0.51009400  1
  O  O17  1  0.36265600  0.73418100  0.82529000  1
  O  O18  1  0.23006600  0.05750700  0.74907200  1
  O  O19  1  0.59138300  0.31518200  0.90732900  1
  O  O20  1  0.29761300  0.36855900  0.27379600  1
  O  O21  1  0.16731600  0.67618700  0.19278100  1
  O  O22  1  0.69088800  0.62443600  0.43747600  1
  O  O23  1  0.43627900  0.01127300  0.35052900  1
  O  O24  1  0.51583100  0.95308100  0.61948100  1
  O  O25  1  0.36340700  0.31673600  0.55347300  1
  O  O26  1  0.82268100  0.37354800  0.79960600  1
  O  O27  1  0.61602700  0.73772800  0.72628900  1
  O  O28  1  0.39338500  0.67383200  0.07958500  1
  O  O29  1  0.79668900  0.93849600  0.27906200  1
  O  O30  1  0.55077000  0.37853200  0.15506900  1
  O  O31  1  0.74724000  0.98331700  0.43049300  1
  O  O32  1  0.60552100  0.27733700  0.36473300  1
  O  O33  1  0.92550400  0.55221300  0.54352900  1
  O  O34  1  0.02519400  0.44882700  0.67648800  1
  O  O35  1  0.95977100  0.02345400  0.12801300  1
  O  O36  1  0.82297700  0.34373700  0.03521100  1
  O  O37  1  0.80077000  0.36631900  0.26857500  1
  O  O38  1  0.63002800  0.67711800  0.18919100  1
  O  O39  1  0.43984900  0.66297500  0.57822900  1
  O  O40  1  0.02204800  0.02851700  0.35649700  1
  O  O41  1  0.06325800  0.33246400  0.14009500  1
  O  O42  1  0.90778000  0.64978100  0.07047300  1
  O  O43  1  0.23614500  0.04472600  0.22566100  1
  O  O44  1  0.18113000  0.65587000  0.45220300  1
  O  O45  1  0.45168900  0.02194600  0.12189000  1
  O  O46  1  0.30342800  0.34397100  0.03542800  1
  O  O47  1  0.72414200  0.02523500  0.01059400  1
loop_
_geom_bond_atom_site_label_1
_geom_bond_atom_site_label_2
_geom_bond_distance
_geom_bond_site_symmetry_2
Mg0 O15 1.973893 1_555
Mg0 O3 2.025149 1_555
Mg0 O34 2.046673 1_555
Mg0 O24 2.128791 1_545
Mg0 O18 2.403138 1_555
Mg0 O25 2.456870 1_555
Mg1 O26 2.095122 1_555
Mg1 O34 2.095205 1_655
Mg1 O9 2.101636 1_655
Mg1 O27 2.136428 1_555
Mg1 O10 2.152065 1_655
Mg1 O6 2.215315 1_555
Mg2 O8 1.939365 1_555
Mg2 O40 2.065097 1_655
Mg2 O31 2.081296 1_545
Mg2 O14 2.084758 1_655
Mg2 O32 2.090885 1_555
Mg3 O15 1.930303 1_555
Mg3 O26 2.024754 1_555
Mg3 O18 2.029590 1_655
Mg3 O4 2.241045 1_555
Mg3 O34 2.351726 1_655
Mg4 O0 2.045229 1_545
Mg4 O47 2.067628 1_556
Mg4 O2 2.083242 1_555
Mg4 O46 2.109090 1_556
Mg4 O19 2.161502 1_555
Mg4 O5 2.212839 1_555
Mg5 O13 2.027241 1_555
Mg5 O44 2.055736 1_555
Mg5 O22 2.062254 1_555
Mg5 O23 2.128923 1_565
Mg5 O40 2.311517 1_565
Mg6 O47 2.048984 1_465
Mg6 O42 2.049466 1_455
Mg6 O0 2.059500 1_554
Mg6 O28 2.062168 1_555
Mg6 O35 2.269428 1_465
Mg6 O11 2.461440 1_554
Mg7 O12 2.046610 1_465
Mg7 O2 2.051945 1_565
Mg7 O17 2.053891 1_555
Mg7 O11 2.071006 1_555
Mg7 O0 2.085783 1_555
Mg7 O1 2.111577 1_555
Mg8 O34 2.030745 1_655
Mg8 O39 2.040984 1_555
Mg8 O15 2.097918 1_555
Mg8 O33 2.123133 1_555
Mg8 O3 2.504983 1_655
Mg9 O1 2.036671 1_555
Mg9 O11 2.046058 1_555
Mg9 O46 2.057247 1_556
Mg9 O36 2.095532 1_556
Mg9 O28 2.247523 1_556
Mg9 O19 2.384960 1_555
Mg10 O47 2.029821 1_555
Mg10 O35 2.074938 1_555
Mg10 O45 2.090313 1_555
Mg10 O30 2.093381 1_555
Mg10 O36 2.126262 1_555
Mg10 O46 2.135305 1_555
Mg11 O12 2.049150 1_555
Mg11 O47 2.052566 1_556
Mg11 O0 2.059468 1_645
Mg11 O36 2.114981 1_556
Mg11 O19 2.138570 1_555
Mg11 O5 2.174889 1_655
Mg12 O8 1.969549 1_555
Mg12 O15 2.089671 1_555
Mg12 O7 2.104668 1_645
Mg12 O25 2.164696 1_555
Mg12 O24 2.182720 1_545
Mg12 O3 2.323604 1_655
Mg13 O26 2.125870 1_455
Mg13 O5 2.127370 1_555
Mg13 O2 2.143372 1_555
Mg13 O10 2.150157 1_555
Mg13 O18 2.165222 1_555
Mg13 O12 2.281370 1_455
Mg14 O27 1.965898 1_555
Mg14 O24 1.978113 1_555
Mg14 O9 1.994858 1_655
Mg14 O7 2.033199 1_655
Mg15 O13 1.965150 1_555
Mg15 O21 1.991369 1_555
Mg15 O29 1.992942 1_455
Mg15 O43 2.058849 1_565
Mg15 O40 2.514868 1_565
Mg16 O47 2.026650 1_565
Mg16 O0 2.057214 1_554
Mg16 O28 2.065935 1_555
Mg16 O42 2.069373 1_555
Mg16 O45 2.279990 1_565
Mg16 O1 2.297002 1_554
Mg17 O33 1.983652 1_455
Mg17 O39 1.999129 1_555
Mg17 O7 2.099000 1_555
Mg17 O34 2.130904 1_555
Mg17 O25 2.259689 1_555
Mg18 O21 2.016845 1_655
Mg18 O41 2.046027 1_655
Mg18 O38 2.047236 1_555
Mg18 O37 2.091981 1_555
Mg18 O20 2.192524 1_655
Mg19 O44 2.054957 1_555
Mg19 O39 2.079158 1_555
Mg19 O8 2.091322 1_555
Mg19 O22 2.115251 1_555
Mg19 O25 2.193987 1_555
Mg20 O38 1.956827 1_555
Mg20 O29 1.968621 1_555
Mg20 O45 2.037404 1_565
Mg20 O43 2.290972 1_565
Mg20 O35 2.663587 1_565
Fe0 O23 1.943242 1_555
Fe0 O20 1.949995 1_555
Fe0 O43 1.985601 1_555
Fe0 O40 2.001267 1_555
Fe0 O37 2.185585 1_455
H0 O17 1.005560 1_555
H1 O31 0.981170 1_555
H2 O30 0.982971 1_555
O1 Si1 1.658919 1_555
O2 Si0 1.653950 1_545
O3 Si2 1.745183 1_555
O3 Si3 1.982579 1_545
O4 Si0 1.681306 1_545
O4 Si4 1.809947 1_555
O5 Si1 1.659010 1_455
O6 Si0 1.687884 1_555
O6 Si1 1.754745 1_555
O7 Si3 1.723747 1_555
O8 Si2 1.824820 1_655
O9 Si5 1.638175 1_555
O10 Si4 1.627492 1_555
O11 Si1 1.650197 1_455
O12 Si0 1.641330 1_545
O13 Si7 1.620533 1_555
O14 Si8 1.728553 1_455
O14 Si2 1.798827 1_555
O16 Si3 1.733500 1_545
O16 Si2 1.781490 1_555
O17 Si5 1.697373 1_555
O18 Si5 1.677740 1_545
O19 Si4 1.655172 1_555
O20 Si7 1.690839 1_555
O21 Si6 1.649761 1_555
O22 Si8 1.637410 1_555
O23 Si9 1.677333 1_555
O24 Si3 1.699535 1_555
O25 Si2 1.723778 1_555
O26 Si4 1.657019 1_555
O27 Si5 1.630614 1_555
O28 Si6 1.637782 1_555
O29 Si9 1.728096 1_565
O30 Si6 1.701886 1_555
O31 Si9 1.774989 1_565
O32 Si7 1.648947 1_555
O32 Si9 1.797952 1_555
O33 Si8 1.676802 1_555
O33 Si2 2.305356 1_655
O35 Si10 1.622790 1_655
O36 Si11 1.656235 1_655
O37 Si7 1.689826 1_555
O38 Si6 1.642007 1_555
O39 Si3 1.762202 1_555
O40 Si9 1.764636 1_455
O41 Si10 1.686473 1_555
O41 Si11 1.738858 1_555
O42 Si11 1.614579 1_655
O43 Si10 1.684331 1_555
O44 Si8 1.635348 1_455
O45 Si10 1.641634 1_555
O46 Si11 1.659441 1_555
