# generated using pymatgen
data_LiMn3O6
_symmetry_space_group_name_H-M   'P 1'
_cell_length_a   5.13680058
_cell_length_b   5.13680058
_cell_length_c   10.76615035
_cell_angle_alpha   73.34260578
_cell_angle_beta   73.34260578
_cell_angle_gamma   58.70375375
_symmetry_Int_Tables_number   1
_chemical_formula_structural   LiMn3O6
_chemical_formula_sum   'Li2 Mn6 O12'
_cell_volume   229.24479824
_cell_formula_units_Z   2
loop_
 _symmetry_equiv_pos_site_id
 _symmetry_equiv_pos_as_xyz
  1  'x, y, z'
loop_
 _atom_site_type_symbol
 _atom_site_label
 _atom_site_symmetry_multiplicity
 _atom_site_fract_x
 _atom_site_fract_y
 _atom_site_fract_z
 _atom_site_occupancy
  Li  Li0  1  0.25042000  0.40121300  0.24353100  1
  Li  Li1  1  0.40121300  0.25042000  0.74353100  1
  Mn  Mn0  1  0.32844100  0.17866600  0.00727900  1
  Mn  Mn1  1  0.17866600  0.32844100  0.50727900  1
  Mn  Mn2  1  0.00111600  0.84282800  0.99732400  1
  Mn  Mn3  1  0.51509500  0.66922400  0.49311800  1
  Mn  Mn4  1  0.84282800  0.00111600  0.49732400  1
  Mn  Mn5  1  0.66922400  0.51509500  0.99311800  1
  O  O0  1  0.99115500  0.47811700  0.10748000  1
  O  O1  1  0.79618300  0.29292100  0.59495700  1
  O  O2  1  0.21058900  0.05361300  0.40355900  1
  O  O3  1  0.05361300  0.21058900  0.90355900  1
  O  O4  1  0.62459000  0.14715400  0.09545200  1
  O  O5  1  0.33664600  0.54078500  0.89537900  1
  O  O6  1  0.47811700  0.99115500  0.60748000  1
  O  O7  1  0.54078500  0.33664600  0.39537900  1
  O  O8  1  0.89477800  0.69779100  0.40415700  1
  O  O9  1  0.69779100  0.89477800  0.90415700  1
  O  O10  1  0.29292100  0.79618300  0.09495700  1
  O  O11  1  0.14715400  0.62459000  0.59545200  1
loop_
_geom_bond_atom_site_label_1
_geom_bond_atom_site_label_2
_geom_bond_distance
_geom_bond_site_symmetry_2
Li0 O0 2.077315 1_455
Li0 O2 2.147608 1_555
Li0 O4 2.183823 1_555
Li0 O10 2.263204 1_555
Li0 O8 2.335944 1_455
Li0 O7 2.362302 1_555
Li1 O6 2.077315 1_545
Li1 O3 2.147608 1_555
Li1 O11 2.183823 1_555
Li1 O1 2.263204 1_555
Li1 O9 2.335944 1_545
Li1 O5 2.362302 1_555
Mn0 O0 1.908579 1_455
Mn0 O5 1.918556 1_554
Mn0 O4 1.930167 1_555
Mn0 O9 1.950631 1_544
Mn0 O3 1.955788 1_554
Mn0 O10 1.998747 1_545
Mn1 O6 1.908579 1_545
Mn1 O7 1.918556 1_555
Mn1 O11 1.930167 1_555
Mn1 O8 1.950631 1_455
Mn1 O2 1.955788 1_555
Mn1 O1 1.998747 1_455
Mn2 O5 1.922507 1_555
Mn2 O0 1.926124 1_456
Mn2 O10 1.948044 1_556
Mn2 O9 1.953360 1_455
Mn2 O4 1.983659 1_466
Mn2 O3 1.985054 1_565
Mn3 O1 1.953535 1_555
Mn3 O2 1.959478 1_565
Mn3 O8 1.971953 1_555
Mn3 O11 1.987524 1_555
Mn3 O7 2.181755 1_555
Mn3 O6 2.234636 1_555
Mn4 O7 1.922507 1_555
Mn4 O6 1.926124 1_545
Mn4 O1 1.948044 1_555
Mn4 O8 1.953360 1_545
Mn4 O11 1.983659 1_645
Mn4 O2 1.985054 1_655
Mn5 O10 1.953535 1_556
Mn5 O3 1.959478 1_655
Mn5 O9 1.971953 1_555
Mn5 O4 1.987524 1_556
Mn5 O5 2.181755 1_555
Mn5 O0 2.234636 1_556
