# generated using pymatgen
data_Li5Co5(SbO6)2
_symmetry_space_group_name_H-M   'P 1'
_cell_length_a   5.31099632
_cell_length_b   5.31099632
_cell_length_c   10.05055175
_cell_angle_alpha   84.22365006
_cell_angle_beta   84.22365006
_cell_angle_gamma   120.45354728
_symmetry_Int_Tables_number   1
_chemical_formula_structural   Li5Co5(SbO6)2
_chemical_formula_sum   'Li5 Co5 Sb2 O12'
_cell_volume   239.30990237
_cell_formula_units_Z   1
loop_
 _symmetry_equiv_pos_site_id
 _symmetry_equiv_pos_as_xyz
  1  'x, y, z'
loop_
 _atom_site_type_symbol
 _atom_site_label
 _atom_site_symmetry_multiplicity
 _atom_site_fract_x
 _atom_site_fract_y
 _atom_site_fract_z
 _atom_site_occupancy
  Li  Li0  1  0.83075300  0.67248600  0.75415700  1
  Li  Li1  1  0.66573500  0.82991600  0.24247000  1
  Li  Li2  1  0.32751400  0.16924700  0.24584300  1
  Li  Li3  1  0.17008400  0.33426500  0.75753000  1
  Li  Li4  1  0.08160400  0.91839600  0.00000000  1
  Co  Co0  1  0.92345800  0.07654200  0.50000000  1
  Co  Co1  1  0.99120900  0.50351500  0.24945100  1
  Co  Co2  1  0.49648500  0.00879100  0.75054900  1
  Co  Co3  1  0.58942200  0.41057800  0.50000000  1
  Co  Co4  1  0.41275600  0.58724400  0.00000000  1
  Sb  Sb0  1  0.74464700  0.25535300  0.00000000  1
  Sb  Sb1  1  0.25699100  0.74300900  0.50000000  1
  O  O0  1  0.01707800  0.21901300  0.11948400  1
  O  O1  1  0.78098700  0.98292200  0.88051600  1
  O  O2  1  0.89993800  0.37934600  0.61681300  1
  O  O3  1  0.62065400  0.10006200  0.38318700  1
  O  O4  1  0.70013200  0.52085200  0.11913700  1
  O  O5  1  0.47914800  0.29986800  0.88086300  1
  O  O6  1  0.52669200  0.70978000  0.62144000  1
  O  O7  1  0.29022000  0.47330800  0.37856000  1
  O  O8  1  0.38763500  0.89050400  0.11783700  1
  O  O9  1  0.10949600  0.61236500  0.88216300  1
  O  O10  1  0.20556100  0.00820100  0.61870700  1
  O  O11  1  0.99179900  0.79443900  0.38129300  1
loop_
_geom_bond_atom_site_label_1
_geom_bond_atom_site_label_2
_geom_bond_distance
_geom_bond_site_symmetry_2
Li0 O5 2.071988 1_555
Li0 O10 2.088772 1_665
Li0 O9 2.174525 1_655
Li0 O6 2.265148 1_555
Li0 O1 2.279612 1_555
Li0 O2 2.318334 1_555
Li1 O0 2.095933 1_665
Li1 O7 2.129766 1_555
Li1 O8 2.151086 1_555
Li1 O3 2.191920 1_565
Li1 O4 2.220845 1_555
Li1 O11 2.396931 1_555
Li2 O4 2.071988 1_555
Li2 O11 2.088772 1_445
Li2 O8 2.174525 1_545
Li2 O7 2.265148 1_555
Li2 O0 2.279612 1_555
Li2 O3 2.318334 1_555
Li3 O1 2.095933 1_445
Li3 O6 2.129766 1_555
Li3 O9 2.151086 1_555
Li3 O2 2.191920 1_455
Li3 O5 2.220845 1_555
Li3 O10 2.396931 1_555
Li4 O8 2.159279 1_555
Li4 O9 2.159279 1_554
Li4 O5 2.159378 1_564
Li4 O4 2.159378 1_455
Li4 O0 2.228527 1_565
Li4 O1 2.228527 1_454
Co0 O2 2.129415 1_555
Co0 O3 2.129415 1_555
Co0 O7 2.137122 1_655
Co0 O6 2.137122 1_545
Co0 O10 2.150300 1_655
Co0 O11 2.150300 1_545
Co1 O11 2.133361 1_555
Co1 O0 2.140053 1_655
Co1 O4 2.154361 1_555
Co1 O7 2.205127 1_655
Co1 O3 2.210032 1_555
Co1 O8 2.216416 1_655
Co2 O10 2.133361 1_555
Co2 O1 2.140053 1_545
Co2 O5 2.154361 1_555
Co2 O6 2.205127 1_545
Co2 O2 2.210032 1_555
Co2 O9 2.216416 1_545
Co3 O10 2.174256 1_555
Co3 O11 2.174256 1_555
Co3 O2 2.180227 1_555
Co3 O3 2.180227 1_555
Co3 O7 2.229581 1_555
Co3 O6 2.229581 1_555
Co4 O0 2.129829 1_555
Co4 O1 2.129829 1_554
Co4 O8 2.141141 1_555
Co4 O9 2.141141 1_554
Co4 O4 2.171621 1_555
Co4 O5 2.171621 1_554
O0 Sb0 2.039360 1_455
O1 Sb0 2.039360 1_566
O2 Sb1 2.021748 1_655
O3 Sb1 2.021748 1_545
O4 Sb0 2.024531 1_555
O5 Sb0 2.024531 1_556
O6 Sb1 2.034054 1_555
O7 Sb1 2.034054 1_555
O8 Sb0 2.028354 1_565
O9 Sb0 2.028354 1_456
O10 Sb1 2.035762 1_545
O11 Sb1 2.035762 1_655
