# generated using pymatgen
data_Mn2PH9(C4O3)3
_symmetry_space_group_name_H-M   'P 1'
_cell_length_a   15.91772700
_cell_length_b   8.75934000
_cell_length_c   14.34194545
_cell_angle_alpha   64.33045882
_cell_angle_beta   90.00000000
_cell_angle_gamma   90.00000000
_symmetry_Int_Tables_number   1
_chemical_formula_structural   Mn2PH9(C4O3)3
_chemical_formula_sum   'Mn8 P4 H36 C48 O36'
_cell_volume   1802.32643998
_cell_formula_units_Z   4
loop_
 _symmetry_equiv_pos_site_id
 _symmetry_equiv_pos_as_xyz
  1  'x, y, z'
loop_
 _atom_site_type_symbol
 _atom_site_label
 _atom_site_symmetry_multiplicity
 _atom_site_fract_x
 _atom_site_fract_y
 _atom_site_fract_z
 _atom_site_occupancy
  Mn  Mn0  1  0.68628300  0.79700200  0.66629200  1
  Mn  Mn1  1  0.81371700  0.79700200  0.16629200  1
  Mn  Mn2  1  0.31371700  0.20299800  0.33370800  1
  Mn  Mn3  1  0.18628300  0.20299800  0.83370800  1
  Mn  Mn4  1  0.82225700  0.04680600  0.62695900  1
  Mn  Mn5  1  0.67774300  0.04680600  0.12695900  1
  Mn  Mn6  1  0.17774300  0.95319400  0.37304100  1
  Mn  Mn7  1  0.32225700  0.95319400  0.87304100  1
  P  P0  1  0.58467600  0.60612200  0.68132800  1
  P  P1  1  0.91532400  0.60612200  0.18132800  1
  P  P2  1  0.41532400  0.39387800  0.31867200  1
  P  P3  1  0.08467600  0.39387800  0.81867200  1
  H  H0  1  0.62976800  0.36776300  0.83839500  1
  H  H1  1  0.87023200  0.36776300  0.33839500  1
  H  H2  1  0.37023200  0.63223700  0.16160500  1
  H  H3  1  0.12976800  0.63223700  0.66160500  1
  H  H4  1  0.54310400  0.47786400  0.86211300  1
  H  H5  1  0.95689600  0.47786400  0.36211300  1
  H  H6  1  0.45689600  0.52213600  0.13788700  1
  H  H7  1  0.04310400  0.52213600  0.63788700  1
  H  H8  1  0.52538500  0.33905700  0.80182600  1
  H  H9  1  0.97461500  0.33905700  0.30182600  1
  H  H10  1  0.47461500  0.66094300  0.19817400  1
  H  H11  1  0.02538500  0.66094300  0.69817400  1
  H  H12  1  0.66233300  0.43936700  0.61231600  1
  H  H13  1  0.83766700  0.43936700  0.11231600  1
  H  H14  1  0.33766700  0.56063300  0.38768400  1
  H  H15  1  0.16233300  0.56063300  0.88768400  1
  H  H16  1  0.55172300  0.39883100  0.61680700  1
  H  H17  1  0.94827700  0.39883100  0.11680700  1
  H  H18  1  0.44827700  0.60116900  0.38319300  1
  H  H19  1  0.05172300  0.60116900  0.88319300  1
  H  H20  1  0.59455300  0.58897000  0.51699800  1
  H  H21  1  0.90544700  0.58897000  0.01699800  1
  H  H22  1  0.40544700  0.41103000  0.48300200  1
  H  H23  1  0.09455300  0.41103000  0.98300200  1
  H  H24  1  0.45911800  0.75694400  0.69108000  1
  H  H25  1  0.04088200  0.75694400  0.19108000  1
  H  H26  1  0.54088200  0.24305600  0.30892000  1
  H  H27  1  0.95911800  0.24305600  0.80892000  1
  H  H28  1  0.47593800  0.77534100  0.56334900  1
  H  H29  1  0.02406200  0.77534100  0.06334900  1
  H  H30  1  0.52406200  0.22465900  0.43665100  1
  H  H31  1  0.97593800  0.22465900  0.93665100  1
  H  H32  1  0.43529500  0.58196700  0.66170000  1
  H  H33  1  0.06470500  0.58196700  0.16170000  1
  H  H34  1  0.56470500  0.41803300  0.33830000  1
  H  H35  1  0.93529500  0.41803300  0.83830000  1
  C  C0  1  0.67226900  0.88380100  0.52597400  1
  C  C1  1  0.82773100  0.88380100  0.02597400  1
  C  C2  1  0.32773100  0.11619900  0.47402600  1
  C  C3  1  0.17226900  0.11619900  0.97402600  1
  C  C4  1  0.76777300  0.64807800  0.66533100  1
  C  C5  1  0.73222700  0.64807800  0.16533100  1
  C  C6  1  0.23222700  0.35192200  0.33466900  1
  C  C7  1  0.26777300  0.35192200  0.83466900  1
  C  C8  1  0.69797200  0.71878200  0.80763700  1
  C  C9  1  0.80202800  0.71878200  0.30763700  1
  C  C10  1  0.30202800  0.28121800  0.19236300  1
  C  C11  1  0.19797200  0.28121800  0.69236300  1
  C  C12  1  0.61043500  0.95415100  0.66685200  1
  C  C13  1  0.88956500  0.95415100  0.16685200  1
  C  C14  1  0.38956500  0.04584900  0.33314800  1
  C  C15  1  0.11043500  0.04584900  0.83314800  1
  C  C16  1  0.87067300  0.86504800  0.73563100  1
  C  C17  1  0.62932700  0.86504800  0.23563100  1
  C  C18  1  0.12932700  0.13495200  0.26436900  1
  C  C19  1  0.37067300  0.13495200  0.76436900  1
  C  C20  1  0.76223000  0.10350000  0.71780100  1
  C  C21  1  0.73777000  0.10350000  0.21780100  1
  C  C22  1  0.23777000  0.89650000  0.28219900  1
  C  C23  1  0.26223000  0.89650000  0.78219900  1
  C  C24  1  0.75531300  0.19483200  0.52142100  1
  C  C25  1  0.74468700  0.19483200  0.02142100  1
  C  C26  1  0.24468700  0.80516800  0.47857900  1
  C  C27  1  0.25531300  0.80516800  0.97857900  1
  C  C28  1  0.86761200  0.97018700  0.53602900  1
  C  C29  1  0.63238800  0.97018700  0.03602900  1
  C  C30  1  0.13238800  0.02981300  0.46397100  1
  C  C31  1  0.36761200  0.02981300  0.96397100  1
  C  C32  1  0.90612300  0.19373000  0.61009500  1
  C  C33  1  0.59387700  0.19373000  0.11009500  1
  C  C34  1  0.09387700  0.80627000  0.38990500  1
  C  C35  1  0.40612300  0.80627000  0.88990500  1
  C  C36  1  0.56934900  0.43035200  0.80884900  1
  C  C37  1  0.93065100  0.43035200  0.30884900  1
  C  C38  1  0.43065100  0.56964800  0.19115100  1
  C  C39  1  0.06934900  0.56964800  0.69115100  1
  C  C40  1  0.59982200  0.49766400  0.59868400  1
  C  C41  1  0.90017800  0.49766400  0.09868400  1
  C  C42  1  0.40017800  0.50233600  0.40131600  1
  C  C43  1  0.09982200  0.50233600  0.90131600  1
  C  C44  1  0.47829200  0.68845300  0.64613200  1
  C  C45  1  0.02170800  0.68845300  0.14613200  1
  C  C46  1  0.52170800  0.31154700  0.35386800  1
  C  C47  1  0.97829200  0.31154700  0.85386800  1
  O  O0  1  0.65760600  0.93658100  0.43776100  1
  O  O1  1  0.84239400  0.93658100  0.93776100  1
  O  O2  1  0.34239400  0.06341900  0.56223900  1
  O  O3  1  0.15760600  0.06341900  0.06223900  1
  O  O4  1  0.81762200  0.55024400  0.66564900  1
  O  O5  1  0.68237800  0.55024400  0.16564900  1
  O  O6  1  0.18237800  0.44975600  0.33435100  1
  O  O7  1  0.31762200  0.44975600  0.83435100  1
  O  O8  1  0.70358700  0.66772600  0.89707000  1
  O  O9  1  0.79641300  0.66772600  0.39707000  1
  O  O10  1  0.29641300  0.33227400  0.10293000  1
  O  O11  1  0.20358700  0.33227400  0.60293000  1
  O  O12  1  0.56016100  0.05186800  0.66600700  1
  O  O13  1  0.93983900  0.05186800  0.16600700  1
  O  O14  1  0.43983900  0.94813200  0.33399300  1
  O  O15  1  0.06016100  0.94813200  0.83399300  1
  O  O16  1  0.90367800  0.75194400  0.80274900  1
  O  O17  1  0.59632200  0.75194400  0.30274900  1
  O  O18  1  0.09632200  0.24805600  0.19725100  1
  O  O19  1  0.40367800  0.24805600  0.69725100  1
  O  O20  1  0.72504300  0.14707100  0.77181400  1
  O  O21  1  0.77495700  0.14707100  0.27181400  1
  O  O22  1  0.27495700  0.85292900  0.22818600  1
  O  O23  1  0.22504300  0.85292900  0.72818600  1
  O  O24  1  0.71499900  0.29215800  0.45425000  1
  O  O25  1  0.78500100  0.29215800  0.95425000  1
  O  O26  1  0.28500100  0.70784200  0.54575000  1
  O  O27  1  0.21499900  0.70784200  0.04575000  1
  O  O28  1  0.89856400  0.92635800  0.47833200  1
  O  O29  1  0.60143600  0.92635800  0.97833200  1
  O  O30  1  0.10143600  0.07364200  0.52166800  1
  O  O31  1  0.39856400  0.07364200  0.02166800  1
  O  O32  1  0.96076500  0.28853800  0.59948000  1
  O  O33  1  0.53923500  0.28853800  0.09948000  1
  O  O34  1  0.03923500  0.71146200  0.40052000  1
  O  O35  1  0.46076500  0.71146200  0.90052000  1
loop_
_geom_bond_atom_site_label_1
_geom_bond_atom_site_label_2
_geom_bond_distance
_geom_bond_site_symmetry_2
Mn0 P0 2.268367 1_555
Mn1 P1 2.268367 1_555
Mn2 P2 2.268367 1_555
Mn3 P3 2.268367 1_555
C0 O0 1.167080 1_555
C0 Mn0 1.830881 1_555
C1 O1 1.167080 1_554
C1 Mn1 1.830881 1_555
C2 O2 1.167080 1_555
C2 Mn2 1.830881 1_555
C3 O3 1.167080 1_556
C3 Mn3 1.830881 1_555
C4 O4 1.166461 1_555
C4 Mn0 1.843905 1_555
C5 O5 1.166461 1_555
C5 Mn1 1.843905 1_555
C6 O6 1.166461 1_555
C6 Mn2 1.843905 1_555
C7 O7 1.166461 1_555
C7 Mn3 1.843905 1_555
C8 O8 1.164562 1_555
C8 Mn0 1.846656 1_555
C9 O9 1.164562 1_555
C9 Mn1 1.846656 1_555
C10 O10 1.164562 1_555
C10 Mn2 1.846656 1_555
C11 O11 1.164562 1_555
C11 Mn3 1.846656 1_555
C12 O12 1.167983 1_565
C12 Mn0 1.833601 1_555
C13 O13 1.167983 1_565
C13 Mn1 1.833601 1_555
C14 O14 1.167983 1_545
C14 Mn2 1.833601 1_555
C15 O15 1.167983 1_545
C15 Mn3 1.833601 1_555
C16 O16 1.165295 1_555
C16 Mn4 1.846086 1_565
C17 O17 1.165295 1_555
C17 Mn5 1.846086 1_565
C18 O18 1.165295 1_555
C18 Mn6 1.846086 1_545
C19 O19 1.165295 1_555
C19 Mn7 1.846086 1_545
C20 O20 1.162870 1_555
C20 Mn4 1.848658 1_555
C21 O21 1.162870 1_555
C21 Mn5 1.848658 1_555
C22 O22 1.162870 1_555
C22 Mn6 1.848658 1_555
C23 O23 1.162870 1_555
C23 Mn7 1.848658 1_555
C24 O24 1.164092 1_555
C24 Mn4 1.845926 1_555
C25 O25 1.164092 1_554
C25 Mn5 1.845926 1_555
C26 O26 1.164092 1_555
C26 Mn6 1.845926 1_555
C27 O27 1.164092 1_556
C27 Mn7 1.845926 1_555
C28 O28 1.161934 1_555
C28 Mn4 1.852189 1_565
C29 O29 1.161934 1_554
C29 Mn5 1.852189 1_565
C30 O30 1.161934 1_555
C30 Mn6 1.852189 1_545
C31 O31 1.161934 1_556
C31 Mn7 1.852189 1_545
C32 O32 1.166110 1_555
C32 Mn4 1.796440 1_555
C33 O33 1.166110 1_555
C33 Mn5 1.796440 1_555
C34 O34 1.166110 1_555
C34 Mn6 1.796440 1_555
C35 O35 1.166110 1_555
C35 Mn7 1.796440 1_555
C36 H0 1.097173 1_555
C36 H4 1.098506 1_555
C36 H8 1.099615 1_555
C36 P0 1.826289 1_555
C37 H1 1.097173 1_555
C37 H5 1.098506 1_555
C37 H9 1.099615 1_555
C37 P1 1.826289 1_555
C38 H2 1.097173 1_555
C38 H6 1.098506 1_555
C38 H10 1.099615 1_555
C38 P2 1.826289 1_555
C39 H3 1.097173 1_555
C39 H7 1.098506 1_555
C39 H11 1.099615 1_555
C39 P3 1.826289 1_555
C40 H12 1.096621 1_555
C40 H20 1.098829 1_555
C40 H16 1.099207 1_555
C40 P0 1.827866 1_555
C41 H13 1.096621 1_555
C41 H21 1.098829 1_555
C41 H17 1.099207 1_555
C41 P1 1.827866 1_555
C42 H14 1.096621 1_555
C42 H22 1.098829 1_555
C42 H18 1.099207 1_555
C42 P2 1.827866 1_555
C43 H15 1.096621 1_555
C43 H23 1.098829 1_555
C43 H19 1.099207 1_555
C43 P3 1.827866 1_555
C44 H24 1.097131 1_555
C44 H28 1.098821 1_555
C44 H32 1.099029 1_555
C44 P0 1.824027 1_555
C45 H25 1.097131 1_555
C45 H29 1.098821 1_555
C45 H33 1.099029 1_555
C45 P1 1.824027 1_455
C46 H26 1.097131 1_555
C46 H30 1.098821 1_555
C46 H34 1.099029 1_555
C46 P2 1.824027 1_555
C47 H27 1.097131 1_555
C47 H31 1.098821 1_555
C47 H35 1.099029 1_555
C47 P3 1.824027 1_655
