# generated using pymatgen
data_GdAsO4
_symmetry_space_group_name_H-M   'P 1'
_cell_length_a   5.58658700
_cell_length_b   5.58658700
_cell_length_c   4.76554200
_cell_angle_alpha   90.00000000
_cell_angle_beta   90.00000000
_cell_angle_gamma   90.00000000
_symmetry_Int_Tables_number   1
_chemical_formula_structural   GdAsO4
_chemical_formula_sum   'Gd2 As2 O8'
_cell_volume   148.73234808
_cell_formula_units_Z   2
loop_
 _symmetry_equiv_pos_site_id
 _symmetry_equiv_pos_as_xyz
  1  'x, y, z'
loop_
 _atom_site_type_symbol
 _atom_site_label
 _atom_site_symmetry_multiplicity
 _atom_site_fract_x
 _atom_site_fract_y
 _atom_site_fract_z
 _atom_site_occupancy
  Gd  Gd0  1  0.50000000  0.50000000  0.50000000  1
  Gd  Gd1  1  0.00000000  0.00000000  0.50000000  1
  As  As0  1  0.00000000  0.50000000  0.00000000  1
  As  As1  1  0.50000000  0.00000000  0.00000000  1
  O  O0  1  0.16843900  0.33156100  0.76288700  1
  O  O1  1  0.83156100  0.33156100  0.23711300  1
  O  O2  1  0.83156100  0.66843900  0.76288700  1
  O  O3  1  0.33156100  0.83156100  0.76288700  1
  O  O4  1  0.16843900  0.66843900  0.23711300  1
  O  O5  1  0.66843900  0.83156100  0.23711300  1
  O  O6  1  0.66843900  0.16843900  0.76288700  1
  O  O7  1  0.33156100  0.16843900  0.23711300  1
loop_
_geom_bond_atom_site_label_1
_geom_bond_atom_site_label_2
_geom_bond_distance
_geom_bond_site_symmetry_2
Gd0 O0 2.426104 1_555
Gd0 O3 2.426104 1_555
Gd0 O2 2.426104 1_555
Gd0 O6 2.426104 1_555
Gd0 O7 2.426104 1_555
Gd0 O4 2.426104 1_555
Gd0 O1 2.426104 1_555
Gd0 O5 2.426104 1_555
Gd1 O6 2.426104 1_455
Gd1 O4 2.426104 1_545
Gd1 O0 2.426104 1_555
Gd1 O5 2.426104 1_445
Gd1 O1 2.426104 1_455
Gd1 O2 2.426104 1_445
Gd1 O7 2.426104 1_555
Gd1 O3 2.426104 1_545
As0 O4 1.745794 1_555
As0 O2 1.745794 1_454
As0 O0 1.745794 1_554
As0 O1 1.745794 1_455
As1 O6 1.745794 1_554
As1 O3 1.745794 1_544
As1 O7 1.745794 1_555
As1 O5 1.745794 1_545
