# generated using pymatgen
data_Li2Fe2C2O7
_symmetry_space_group_name_H-M   'P 1'
_cell_length_a   6.04777900
_cell_length_b   9.61250300
_cell_length_c   10.66623352
_cell_angle_alpha   63.58989231
_cell_angle_beta   90.00000000
_cell_angle_gamma   90.00000000
_symmetry_Int_Tables_number   1
_chemical_formula_structural   Li2Fe2C2O7
_chemical_formula_sum   'Li8 Fe8 C8 O28'
_cell_volume   555.35888505
_cell_formula_units_Z   4
loop_
 _symmetry_equiv_pos_site_id
 _symmetry_equiv_pos_as_xyz
  1  'x, y, z'
loop_
 _atom_site_type_symbol
 _atom_site_label
 _atom_site_symmetry_multiplicity
 _atom_site_fract_x
 _atom_site_fract_y
 _atom_site_fract_z
 _atom_site_occupancy
  Li  Li0  1  0.30226000  0.06643100  0.35642500  1
  Li  Li1  1  0.95776200  0.25363500  0.50602200  1
  Li  Li2  1  0.45776200  0.24636500  0.49397800  1
  Li  Li3  1  0.19774000  0.56643100  0.35642500  1
  Li  Li4  1  0.80226000  0.43356900  0.64357500  1
  Li  Li5  1  0.54223800  0.75363500  0.50602200  1
  Li  Li6  1  0.04223800  0.74636500  0.49397800  1
  Li  Li7  1  0.69774000  0.93356900  0.64357500  1
  Fe  Fe0  1  0.39750200  0.23601600  0.97400900  1
  Fe  Fe1  1  0.10249800  0.73601600  0.97400900  1
  Fe  Fe2  1  0.60011400  0.41190000  0.15824500  1
  Fe  Fe3  1  0.89988600  0.91190000  0.15824500  1
  Fe  Fe4  1  0.10011400  0.08810000  0.84175500  1
  Fe  Fe5  1  0.39988600  0.58810000  0.84175500  1
  Fe  Fe6  1  0.89750200  0.26398400  0.02599100  1
  Fe  Fe7  1  0.60249800  0.76398400  0.02599100  1
  C  C0  1  0.76889500  0.06059400  0.36064600  1
  C  C1  1  0.13616500  0.35375900  0.22600800  1
  C  C2  1  0.73110500  0.56059400  0.36064600  1
  C  C3  1  0.36383500  0.85375900  0.22600800  1
  C  C4  1  0.63616500  0.14624100  0.77399200  1
  C  C5  1  0.26889500  0.43940600  0.63935400  1
  C  C6  1  0.86383500  0.64624100  0.77399200  1
  C  C7  1  0.23110500  0.93940600  0.63935400  1
  O  O0  1  0.11726500  0.11978300  0.01796000  1
  O  O1  1  0.83646800  0.07292000  0.23975700  1
  O  O2  1  0.29493000  0.27505700  0.20315500  1
  O  O3  1  0.38273500  0.61978300  0.01796000  1
  O  O4  1  0.96678300  0.39469900  0.14372600  1
  O  O5  1  0.68450300  0.17957200  0.36987100  1
  O  O6  1  0.66353200  0.57292000  0.23975700  1
  O  O7  1  0.15499900  0.38650500  0.33066300  1
  O  O8  1  0.20507000  0.77505700  0.20315500  1
  O  O9  1  0.53321700  0.89469900  0.14372600  1
  O  O10  1  0.70993000  0.42768300  0.47025100  1
  O  O11  1  0.20993000  0.07231700  0.52974900  1
  O  O12  1  0.81549700  0.67957200  0.36987100  1
  O  O13  1  0.34500100  0.88650500  0.33066300  1
  O  O14  1  0.65499900  0.11349500  0.66933700  1
  O  O15  1  0.18450300  0.32042800  0.63012900  1
  O  O16  1  0.79007000  0.92768300  0.47025100  1
  O  O17  1  0.29007000  0.57231700  0.52974900  1
  O  O18  1  0.46678300  0.10530100  0.85627400  1
  O  O19  1  0.79493000  0.22494300  0.79684500  1
  O  O20  1  0.84500100  0.61349500  0.66933700  1
  O  O21  1  0.33646800  0.42708000  0.76024300  1
  O  O22  1  0.31549700  0.82042800  0.63012900  1
  O  O23  1  0.03321700  0.60530100  0.85627400  1
  O  O24  1  0.61726500  0.38021700  0.98204000  1
  O  O25  1  0.70507000  0.72494300  0.79684500  1
  O  O26  1  0.16353200  0.92708000  0.76024300  1
  O  O27  1  0.88273500  0.88021700  0.98204000  1
loop_
_geom_bond_atom_site_label_1
_geom_bond_atom_site_label_2
_geom_bond_distance
_geom_bond_site_symmetry_2
Li0 O13 1.885843 1_545
Li0 O2 1.944167 1_555
Li0 O11 1.955964 1_555
Li1 O7 2.104156 1_655
Li1 O10 2.150180 1_555
Li1 O15 2.191125 1_655
Li1 O11 2.243930 1_655
Li1 O14 2.472714 1_555
Li1 O5 2.503323 1_555
Li2 O14 2.104156 1_555
Li2 O11 2.150180 1_555
Li2 O5 2.191125 1_555
Li2 O10 2.243930 1_555
Li2 O7 2.472714 1_555
Li2 O15 2.503323 1_555
Li3 O7 1.885843 1_555
Li3 O8 1.944167 1_555
Li3 O17 1.955964 1_555
Li4 O20 1.885843 1_555
Li4 O19 1.944167 1_555
Li4 O10 1.955964 1_555
Li5 O13 2.104156 1_555
Li5 O16 2.150180 1_555
Li5 O22 2.191125 1_555
Li5 O17 2.243930 1_555
Li5 O20 2.472714 1_555
Li5 O12 2.503323 1_555
Li6 O20 2.104156 1_455
Li6 O17 2.150180 1_555
Li6 O12 2.191125 1_455
Li6 O16 2.243930 1_455
Li6 O13 2.472714 1_555
Li6 O22 2.503323 1_555
Li7 O14 1.885843 1_565
Li7 O25 1.944167 1_555
Li7 O16 1.955964 1_555
Fe0 O24 1.949558 1_555
Fe0 O0 1.968386 1_556
Fe0 O18 2.176012 1_555
Fe0 O21 2.232238 1_555
Fe0 O2 2.704691 1_556
Fe1 O27 1.949558 1_455
Fe1 O3 1.968386 1_556
Fe1 O23 2.176012 1_555
Fe1 O26 2.232238 1_555
Fe1 O8 2.704691 1_556
Fe2 O24 2.035930 1_554
Fe2 O6 2.120335 1_555
Fe2 O2 2.192206 1_555
Fe2 O4 2.234178 1_555
Fe2 O3 2.302278 1_555
Fe2 O5 2.420468 1_555
Fe3 O27 2.035930 1_554
Fe3 O1 2.120335 1_565
Fe3 O8 2.192206 1_655
Fe3 O9 2.234178 1_555
Fe3 O0 2.302278 1_665
Fe3 O12 2.420468 1_555
Fe4 O0 2.035930 1_556
Fe4 O26 2.120335 1_545
Fe4 O19 2.192206 1_455
Fe4 O18 2.234178 1_555
Fe4 O27 2.302278 1_445
Fe4 O15 2.420468 1_555
Fe5 O3 2.035930 1_556
Fe5 O21 2.120335 1_555
Fe5 O25 2.192206 1_555
Fe5 O23 2.234178 1_555
Fe5 O24 2.302278 1_555
Fe5 O22 2.420468 1_555
Fe6 O0 1.949558 1_655
Fe6 O24 1.968386 1_554
Fe6 O4 2.176012 1_555
Fe6 O1 2.232238 1_555
Fe6 O19 2.704691 1_554
Fe7 O3 1.949558 1_555
Fe7 O27 1.968386 1_554
Fe7 O9 2.176012 1_555
Fe7 O6 2.232238 1_555
Fe7 O25 2.704691 1_554
C0 O5 1.295483 1_555
C0 O16 1.298734 1_545
C0 O1 1.306817 1_555
C1 O4 1.291216 1_455
C1 O7 1.292555 1_555
C1 O2 1.310621 1_555
C2 O12 1.295483 1_555
C2 O10 1.298734 1_555
C2 O6 1.306817 1_555
C3 O9 1.291216 1_555
C3 O13 1.292555 1_555
C3 O8 1.310621 1_555
C4 O18 1.291216 1_555
C4 O14 1.292555 1_555
C4 O19 1.310621 1_555
C5 O15 1.295483 1_555
C5 O17 1.298734 1_555
C5 O21 1.306817 1_555
C6 O23 1.291216 1_655
C6 O20 1.292555 1_555
C6 O25 1.310621 1_555
C7 O22 1.295483 1_555
C7 O11 1.298734 1_565
C7 O26 1.306817 1_555
