# generated using pymatgen
data_LiFe2(BO3)2
_symmetry_space_group_name_H-M   'P 1'
_cell_length_a   5.22683600
_cell_length_b   9.10604262
_cell_length_c   11.39827001
_cell_angle_alpha   112.67459744
_cell_angle_beta   103.00084165
_cell_angle_gamma   89.63024444
_symmetry_Int_Tables_number   1
_chemical_formula_structural   LiFe2(BO3)2
_chemical_formula_sum   'Li4 Fe8 B8 O24'
_cell_volume   485.79926966
_cell_formula_units_Z   4
loop_
 _symmetry_equiv_pos_site_id
 _symmetry_equiv_pos_as_xyz
  1  'x, y, z'
loop_
 _atom_site_type_symbol
 _atom_site_label
 _atom_site_symmetry_multiplicity
 _atom_site_fract_x
 _atom_site_fract_y
 _atom_site_fract_z
 _atom_site_occupancy
  Li  Li0  1  0.28427000  0.26943000  0.89927600  1
  Li  Li1  1  0.47700000  0.49812200  0.65213500  1
  Li  Li2  1  0.52961000  0.53315100  0.40766800  1
  Li  Li3  1  0.76744600  0.75741000  0.16397500  1
  Fe  Fe0  1  0.03338300  0.34429700  0.37846100  1
  Fe  Fe1  1  0.26677200  0.92744200  0.87761600  1
  Fe  Fe2  1  0.47445600  0.15132700  0.62704200  1
  Fe  Fe3  1  0.24457100  0.55806600  0.13358500  1
  Fe  Fe4  1  0.77197800  0.43854100  0.87627700  1
  Fe  Fe5  1  0.51290300  0.85887400  0.38415100  1
  Fe  Fe6  1  0.97069600  0.65850500  0.63075000  1
  Fe  Fe7  1  0.74071900  0.07773900  0.12941100  1
  B  B0  1  0.00785100  0.67998800  0.37354600  1
  B  B1  1  0.26138600  0.59816600  0.87346900  1
  B  B2  1  0.46929300  0.80898200  0.62483100  1
  B  B3  1  0.23713900  0.89657200  0.12878800  1
  B  B4  1  0.53374500  0.18886200  0.37676500  1
  B  B5  1  0.77615100  0.11079000  0.88499200  1
  B  B6  1  0.99155700  0.32649100  0.63977900  1
  B  B7  1  0.72830200  0.39385400  0.11918500  1
  O  O0  1  0.03211200  0.09226400  0.87887000  1
  O  O1  1  0.11932600  0.71460200  0.84587000  1
  O  O2  1  0.14817300  0.49620800  0.91755200  1
  O  O3  1  0.12737400  0.20633600  0.65510200  1
  O  O4  1  0.08265300  0.42982800  0.59083500  1
  O  O5  1  0.26314800  0.84293900  0.68747400  1
  O  O6  1  0.26079700  0.66989900  0.34668100  1
  O  O7  1  0.51253700  0.57940900  0.85646200  1
  O  O8  1  0.63687100  0.22499000  0.84880700  1
  O  O9  1  0.45076200  0.07887000  0.42103100  1
  O  O10  1  0.41608500  0.32738500  0.39427400  1
  O  O11  1  0.63991000  0.02014200  0.92975300  1
  O  O12  1  0.36711700  0.98013400  0.07581200  1
  O  O13  1  0.58327300  0.66739500  0.60634900  1
  O  O14  1  0.55300700  0.91368600  0.57615500  1
  O  O15  1  0.38447900  0.79462100  0.17839900  1
  O  O16  1  0.46371000  0.38133100  0.10746700  1
  O  O17  1  0.74828900  0.35513800  0.67903200  1
  O  O18  1  0.74592200  0.15715400  0.31790800  1
  O  O19  1  0.91711200  0.57374000  0.41761000  1
  O  O20  1  0.84968000  0.79219600  0.35074200  1
  O  O21  1  0.83864100  0.50828500  0.08335000  1
  O  O22  1  0.88837800  0.29150200  0.16073400  1
  O  O23  1  0.97708500  0.91100300  0.13051200  1
loop_
_geom_bond_atom_site_label_1
_geom_bond_atom_site_label_2
_geom_bond_distance
_geom_bond_site_symmetry_2
Li0 O0 1.998519 1_555
Li0 O8 2.044308 1_555
Li0 O2 2.128357 1_555
Li0 O16 2.166986 1_556
Li0 O3 2.548513 1_555
Li1 O13 1.928351 1_555
Li1 O17 1.971865 1_555
Li1 O4 2.038869 1_555
Li1 O7 2.117671 1_555
Li2 O10 1.907682 1_555
Li2 O19 2.031215 1_555
Li2 O6 2.052640 1_555
Li2 O13 2.070210 1_555
Li3 O20 1.971579 1_555
Li3 O23 1.980257 1_555
Li3 O15 2.060349 1_555
Li3 O21 2.159845 1_555
Fe0 O10 1.978053 1_555
Fe0 O18 2.073066 1_455
Fe0 O19 2.078586 1_455
Fe0 O4 2.191165 1_555
Fe0 O22 2.281009 1_455
Fe1 O0 1.929973 1_565
Fe1 O1 1.958143 1_555
Fe1 O11 1.995623 1_565
Fe1 O5 1.996383 1_555
Fe1 O12 2.059910 1_556
Fe2 O3 1.941682 1_555
Fe2 O14 2.077432 1_545
Fe2 O9 2.154128 1_555
Fe2 O17 2.156122 1_555
Fe2 O8 2.301015 1_555
Fe3 O16 1.936710 1_555
Fe3 O21 2.073829 1_455
Fe3 O15 2.107054 1_555
Fe3 O6 2.223801 1_555
Fe3 O2 2.238444 1_554
Fe4 O7 1.896961 1_555
Fe4 O2 1.941672 1_655
Fe4 O8 1.956276 1_555
Fe4 O17 2.050919 1_555
Fe4 O21 2.138401 1_556
Fe5 O9 1.923318 1_565
Fe5 O20 1.929194 1_555
Fe5 O14 2.008834 1_555
Fe5 O6 2.022226 1_555
Fe5 O15 2.128801 1_555
Fe6 O13 1.986544 1_555
Fe6 O4 2.063785 1_655
Fe6 O5 2.080026 1_655
Fe6 O19 2.197093 1_555
Fe6 O1 2.249246 1_655
Fe7 O23 1.953264 1_545
Fe7 O22 1.967669 1_555
Fe7 O18 1.978880 1_555
Fe7 O12 2.010831 1_545
Fe7 O11 2.067746 1_554
B0 O20 1.375588 1_455
B0 O19 1.378768 1_455
B0 O6 1.417417 1_555
B1 O7 1.369698 1_555
B1 O1 1.384333 1_555
B1 O2 1.401847 1_555
B2 O13 1.377947 1_555
B2 O14 1.389530 1_555
B2 O5 1.392137 1_555
B3 O23 1.368562 1_455
B3 O12 1.396660 1_555
B3 O15 1.405102 1_555
B4 O10 1.363922 1_555
B4 O9 1.392693 1_555
B4 O18 1.394495 1_555
B5 O0 1.361334 1_655
B5 O11 1.394457 1_555
B5 O8 1.402611 1_555
B6 O3 1.346518 1_655
B6 O4 1.397655 1_655
B6 O17 1.430628 1_555
B7 O16 1.360388 1_555
B7 O22 1.394620 1_555
B7 O21 1.423774 1_555
