# generated using pymatgen
data_NaLi2FePCO7
_symmetry_space_group_name_H-M   'P 1'
_cell_length_a   5.11327288
_cell_length_b   11.16318849
_cell_length_c   10.63591111
_cell_angle_alpha   105.28185065
_cell_angle_beta   93.75045744
_cell_angle_gamma   85.50141189
_symmetry_Int_Tables_number   1
_chemical_formula_structural   NaLi2FePCO7
_chemical_formula_sum   'Na4 Li8 Fe4 P4 C4 O28'
_cell_volume   583.19950044
_cell_formula_units_Z   4
loop_
 _symmetry_equiv_pos_site_id
 _symmetry_equiv_pos_as_xyz
  1  'x, y, z'
loop_
 _atom_site_type_symbol
 _atom_site_label
 _atom_site_symmetry_multiplicity
 _atom_site_fract_x
 _atom_site_fract_y
 _atom_site_fract_z
 _atom_site_occupancy
  Na  Na0  1  0.26532600  0.37976700  0.11924300  1
  Na  Na1  1  0.26538500  0.87977900  0.61933000  1
  Na  Na2  1  0.73493000  0.62019000  0.88077500  1
  Na  Na3  1  0.73467400  0.12022600  0.38071100  1
  Li  Li0  1  0.77691400  0.14501600  0.05557100  1
  Li  Li1  1  0.77695000  0.64492200  0.55553700  1
  Li  Li2  1  0.22290400  0.85465300  0.94425700  1
  Li  Li3  1  0.22292100  0.35480000  0.44435200  1
  Li  Li4  1  0.26316900  0.15664400  0.87276700  1
  Li  Li5  1  0.26287600  0.65679300  0.37279100  1
  Li  Li6  1  0.73664000  0.84329500  0.12721500  1
  Li  Li7  1  0.73700400  0.34327100  0.62726000  1
  Fe  Fe0  1  0.78749600  0.05340600  0.71415300  1
  Fe  Fe1  1  0.21297700  0.44655300  0.78587900  1
  Fe  Fe2  1  0.78739700  0.55365700  0.21431200  1
  Fe  Fe3  1  0.21253000  0.94671900  0.28577000  1
  P  P0  1  0.72383700  0.32989800  0.91863800  1
  P  P1  1  0.72353600  0.82995600  0.41858900  1
  P  P2  1  0.27628400  0.67012200  0.08144500  1
  P  P3  1  0.27640200  0.17013500  0.58142100  1
  C  C0  1  0.68783600  0.40694900  0.36447300  1
  C  C1  1  0.68792300  0.90694900  0.86440700  1
  C  C2  1  0.31210100  0.59302300  0.63552700  1
  C  C3  1  0.31200900  0.09302200  0.13550900  1
  O  O0  1  0.38483100  0.16568700  0.06925100  1
  O  O1  1  0.38484700  0.66568000  0.56920800  1
  O  O2  1  0.61498700  0.83423800  0.93060000  1
  O  O3  1  0.61502800  0.33424600  0.43073000  1
  O  O4  1  0.93329900  0.41773100  0.34725200  1
  O  O5  1  0.93340300  0.91763700  0.84711600  1
  O  O6  1  0.06668000  0.58227600  0.65284400  1
  O  O7  1  0.06656100  0.08230700  0.15284800  1
  O  O8  1  0.51029700  0.47310600  0.31295200  1
  O  O9  1  0.51047800  0.97323700  0.81296200  1
  O  O10  1  0.48972300  0.52688800  0.68704100  1
  O  O11  1  0.48954300  0.02680500  0.18699200  1
  O  O12  1  0.84472400  0.19207800  0.89156900  1
  O  O13  1  0.84447000  0.69214300  0.39159200  1
  O  O14  1  0.15525800  0.80790700  0.10847600  1
  O  O15  1  0.15540800  0.30793300  0.60850500  1
  O  O16  1  0.79341600  0.38955100  0.06503200  1
  O  O17  1  0.79335700  0.88959300  0.56494900  1
  O  O18  1  0.20677800  0.61051700  0.93504200  1
  O  O19  1  0.20673900  0.11057100  0.43500800  1
  O  O20  1  0.41920400  0.32837900  0.89524100  1
  O  O21  1  0.41892200  0.82845200  0.39527300  1
  O  O22  1  0.58090000  0.67165800  0.10485200  1
  O  O23  1  0.58101600  0.17167300  0.60478600  1
  O  O24  1  0.16518200  0.60051900  0.17172600  1
  O  O25  1  0.16536500  0.10050500  0.67167900  1
  O  O26  1  0.83493200  0.39946500  0.82831500  1
  O  O27  1  0.83463200  0.89946900  0.32823100  1
loop_
_geom_bond_atom_site_label_1
_geom_bond_atom_site_label_2
_geom_bond_distance
_geom_bond_site_symmetry_2
Na0 O0 2.347537 1_555
Na0 O8 2.373801 1_555
Na0 O24 2.400184 1_555
Na0 O16 2.444751 1_455
Na0 O20 2.465420 1_554
Na1 O1 2.347659 1_555
Na1 O9 2.373863 1_555
Na1 O25 2.399850 1_565
Na1 O17 2.445677 1_455
Na1 O21 2.465360 1_555
Na1 O17 2.814037 1_555
Na1 O5 2.969083 1_455
Na2 O2 2.347685 1_555
Na2 O10 2.374498 1_555
Na2 O26 2.399797 1_555
Na2 O18 2.444517 1_655
Na2 O22 2.466400 1_556
Na3 O3 2.347043 1_555
Na3 O11 2.374521 1_555
Na3 O27 2.400097 1_545
Na3 O19 2.445644 1_655
Na3 O23 2.465699 1_555
Li0 O7 1.942340 1_655
Li0 O12 2.007388 1_554
Li0 O0 2.010384 1_555
Li1 O6 1.942511 1_655
Li1 O13 2.007338 1_555
Li1 O1 2.010492 1_555
Li2 O5 1.942338 1_455
Li2 O14 2.007594 1_556
Li2 O2 2.010309 1_555
Li3 O4 1.942257 1_455
Li3 O15 2.007437 1_555
Li3 O3 2.010417 1_555
Li4 O20 2.083853 1_555
Li4 O25 2.102334 1_555
Li4 O0 2.119662 1_556
Li4 O12 2.157767 1_455
Li4 O9 2.282141 1_545
Li5 O21 2.083085 1_555
Li5 O24 2.102073 1_555
Li5 O1 2.119681 1_555
Li5 O13 2.157494 1_455
Li5 O8 2.284896 1_555
Li6 O22 2.082353 1_555
Li6 O27 2.101834 1_555
Li6 O2 2.120951 1_554
Li6 O14 2.158522 1_655
Li6 O11 2.282472 1_565
Li7 O23 2.082339 1_555
Li7 O26 2.102164 1_555
Li7 O3 2.120541 1_555
Li7 O15 2.157419 1_655
Li7 O10 2.283879 1_555
Fe0 O17 2.081146 1_545
Fe0 O12 2.121724 1_555
Fe0 O25 2.147664 1_655
Fe0 O23 2.154298 1_555
Fe0 O9 2.191146 1_545
Fe0 O5 2.380765 1_545
Fe1 O18 2.082047 1_555
Fe1 O15 2.121362 1_555
Fe1 O26 2.148323 1_455
Fe1 O20 2.152993 1_555
Fe1 O10 2.191439 1_555
Fe1 O6 2.381387 1_555
Fe2 O16 2.083786 1_555
Fe2 O13 2.119569 1_555
Fe2 O24 2.146682 1_655
Fe2 O22 2.152869 1_555
Fe2 O8 2.192813 1_555
Fe2 O4 2.381926 1_555
Fe3 O19 2.081634 1_565
Fe3 O14 2.121654 1_555
Fe3 O27 2.148382 1_455
Fe3 O21 2.155084 1_555
Fe3 O11 2.190378 1_565
Fe3 O7 2.378961 1_565
C0 O3 1.295029 1_555
C0 O4 1.299520 1_555
C0 O8 1.308770 1_555
C1 O2 1.294849 1_555
C1 O5 1.299561 1_555
C1 O9 1.308957 1_555
C2 O1 1.294985 1_555
C2 O6 1.299463 1_555
C2 O10 1.308843 1_555
C3 O0 1.294728 1_555
C3 O7 1.299579 1_555
C3 O11 1.308959 1_555
O12 P0 1.572449 1_555
O13 P1 1.572495 1_555
O14 P2 1.572351 1_555
O15 P3 1.572400 1_555
O16 P0 1.553225 1_554
O17 P1 1.553121 1_555
O18 P2 1.553138 1_556
O19 P3 1.553306 1_555
O20 P0 1.561974 1_555
O21 P1 1.561792 1_555
O22 P2 1.561907 1_555
O23 P3 1.561857 1_555
O24 P2 1.543491 1_555
O25 P3 1.543361 1_555
O26 P0 1.543543 1_555
O27 P1 1.543416 1_555
