# generated using pymatgen
data_Mn7Cr(PO4)12
_symmetry_space_group_name_H-M   'P 1'
_cell_length_a   8.46250900
_cell_length_b   8.49688980
_cell_length_c   11.80664134
_cell_angle_alpha   89.96760612
_cell_angle_beta   89.94490566
_cell_angle_gamma   89.91296616
_symmetry_Int_Tables_number   1
_chemical_formula_structural   Mn7Cr(PO4)12
_chemical_formula_sum   'Mn7 Cr1 P12 O48'
_cell_volume   848.95511423
_cell_formula_units_Z   1
loop_
 _symmetry_equiv_pos_site_id
 _symmetry_equiv_pos_as_xyz
  1  'x, y, z'
loop_
 _atom_site_type_symbol
 _atom_site_label
 _atom_site_symmetry_multiplicity
 _atom_site_fract_x
 _atom_site_fract_y
 _atom_site_fract_z
 _atom_site_occupancy
  Mn  Mn0  1  0.03317600  0.24974200  0.61852400  1
  Mn  Mn1  1  0.46557200  0.25097700  0.38125800  1
  Mn  Mn2  1  0.96542600  0.24950300  0.11807400  1
  Mn  Mn3  1  0.53489200  0.25055400  0.88284500  1
  Mn  Mn4  1  0.46517100  0.75067000  0.11862500  1
  Mn  Mn5  1  0.03381200  0.75062200  0.88246500  1
  Mn  Mn6  1  0.96543500  0.74875200  0.38217800  1
  Cr  Cr0  1  0.53244800  0.74851300  0.61924300  1
  P  P0  1  0.75080600  0.03539000  0.49941000  1
  P  P1  1  0.24987100  0.46454100  0.00030700  1
  P  P2  1  0.74970100  0.53612800  0.00037600  1
  P  P3  1  0.24885600  0.96487600  0.49957100  1
  P  P4  1  0.60830800  0.10584300  0.14535200  1
  P  P5  1  0.89176200  0.10650200  0.85524100  1
  P  P6  1  0.39178700  0.39194300  0.64505900  1
  P  P7  1  0.10775700  0.39308200  0.35494700  1
  P  P8  1  0.89270800  0.60655600  0.64519200  1
  P  P9  1  0.60792200  0.60583500  0.35503500  1
  P  P10  1  0.39022600  0.89481200  0.85577000  1
  P  P11  1  0.10807700  0.89364400  0.14538400  1
  O  O0  1  0.35785800  0.06151700  0.42307500  1
  O  O1  1  0.14244900  0.05924000  0.57959000  1
  O  O2  1  0.09984000  0.07492000  0.15953800  1
  O  O3  1  0.40146200  0.07520700  0.83942300  1
  O  O4  1  0.83919700  0.14348100  0.58313800  1
  O  O5  1  0.65790800  0.14290100  0.41823100  1
  O  O6  1  0.56063400  0.15750600  0.02651500  1
  O  O7  1  0.93978800  0.15920200  0.97351700  1
  O  O8  1  0.77890500  0.14975000  0.17564900  1
  O  O9  1  0.72114000  0.15094600  0.82464300  1
  O  O10  1  0.48648000  0.18080600  0.22686100  1
  O  O11  1  0.01373300  0.17976800  0.77294000  1
  O  O12  1  0.98611000  0.32047600  0.27276600  1
  O  O13  1  0.51417900  0.32090000  0.72731300  1
  O  O14  1  0.22027900  0.35312500  0.67552600  1
  O  O15  1  0.27851000  0.34950100  0.32392300  1
  O  O16  1  0.43809700  0.34245500  0.52582700  1
  O  O17  1  0.05986100  0.33973600  0.47325400  1
  O  O18  1  0.15916500  0.35504800  0.08229100  1
  O  O19  1  0.34096700  0.35471700  0.91875100  1
  O  O20  1  0.89792200  0.42570800  0.66019600  1
  O  O21  1  0.60251300  0.42463100  0.34307500  1
  O  O22  1  0.85848700  0.43958300  0.07736800  1
  O  O23  1  0.64116500  0.44003900  0.92290500  1
  O  O24  1  0.35842300  0.56098300  0.07728600  1
  O  O25  1  0.14126900  0.56048400  0.92264800  1
  O  O26  1  0.40866800  0.57267700  0.65801100  1
  O  O27  1  0.09975900  0.57414800  0.34116200  1
  O  O28  1  0.65934400  0.64536800  0.08258100  1
  O  O29  1  0.83997800  0.64487000  0.91784600  1
  O  O30  1  0.93930500  0.65777700  0.52615500  1
  O  O31  1  0.56091600  0.66032000  0.47329300  1
  O  O32  1  0.77794800  0.65165000  0.32480700  1
  O  O33  1  0.72142700  0.65296500  0.67224300  1
  O  O34  1  0.48497000  0.67920000  0.27393200  1
  O  O35  1  0.01179100  0.68347500  0.72681000  1
  O  O36  1  0.98681200  0.81966100  0.22754300  1
  O  O37  1  0.50834700  0.82374000  0.76985000  1
  O  O38  1  0.27887600  0.85006600  0.17571300  1
  O  O39  1  0.22070100  0.84908400  0.82452400  1
  O  O40  1  0.44173100  0.84036200  0.97248400  1
  O  O41  1  0.06082500  0.84149500  0.02689200  1
  O  O42  1  0.34502500  0.85566400  0.57731600  1
  O  O43  1  0.16024600  0.85261700  0.41915400  1
  O  O44  1  0.89945100  0.92521600  0.84171000  1
  O  O45  1  0.59947200  0.92487200  0.16005900  1
  O  O46  1  0.86047600  0.93963300  0.42252600  1
  O  O47  1  0.64387300  0.93401300  0.57428600  1
loop_
_geom_bond_atom_site_label_1
_geom_bond_atom_site_label_2
_geom_bond_distance
_geom_bond_site_symmetry_2
Mn0 O17 1.890966 1_555
Mn0 O1 1.918855 1_555
Mn0 O4 1.921116 1_455
Mn0 O11 1.924289 1_555
Mn0 O14 1.933534 1_555
Mn0 O20 1.944792 1_455
Mn1 O16 1.889928 1_555
Mn1 O15 1.913735 1_555
Mn1 O0 1.915428 1_555
Mn1 O5 1.918189 1_555
Mn1 O10 1.926160 1_555
Mn1 O21 1.930490 1_555
Mn2 O7 1.884522 1_554
Mn2 O22 1.911539 1_555
Mn2 O8 1.916586 1_555
Mn2 O18 1.916630 1_655
Mn2 O2 1.931102 1_655
Mn2 O12 1.931890 1_555
Mn3 O6 1.883747 1_556
Mn3 O23 1.905465 1_555
Mn3 O19 1.910735 1_555
Mn3 O9 1.914998 1_555
Mn3 O13 1.938838 1_555
Mn3 O3 1.940288 1_555
Mn4 O40 1.896308 1_554
Mn4 O38 1.909858 1_555
Mn4 O24 1.912633 1_555
Mn4 O28 1.917382 1_555
Mn4 O45 1.931040 1_555
Mn4 O34 1.938598 1_555
Mn5 O41 1.886512 1_556
Mn5 O25 1.912488 1_555
Mn5 O39 1.915856 1_555
Mn5 O29 1.917109 1_455
Mn5 O44 1.928804 1_455
Mn5 O35 1.933852 1_555
Mn6 O30 1.879987 1_555
Mn6 O46 1.908425 1_555
Mn6 O32 1.914042 1_555
Mn6 O43 1.921857 1_655
Mn6 O27 1.929329 1_655
Mn6 O36 1.930659 1_555
Cr0 O26 1.882024 1_555
Cr0 O42 1.893724 1_555
Cr0 O31 1.894478 1_555
Cr0 O33 1.898854 1_555
Cr0 O37 1.900585 1_555
Cr0 O47 1.912536 1_555
O0 P3 1.529942 1_545
O1 P3 1.530791 1_545
O2 P11 1.550870 1_545
O3 P10 1.547847 1_545
O4 P0 1.544282 1_555
O5 P0 1.539298 1_555
O6 P4 1.524438 1_555
O7 P5 1.522528 1_555
O8 P4 1.534316 1_555
O9 P5 1.535294 1_555
O10 P4 1.546451 1_555
O11 P5 1.548057 1_455
O12 P7 1.544770 1_655
O13 P6 1.542609 1_555
O14 P6 1.531348 1_555
O15 P7 1.535195 1_555
O16 P6 1.520266 1_555
O17 P7 1.523013 1_555
O18 P1 1.546422 1_555
O19 P1 1.545854 1_556
O20 P8 1.547291 1_555
O21 P9 1.546962 1_555
O22 P2 1.531417 1_555
O23 P2 1.533488 1_556
O24 P1 1.531713 1_555
O25 P1 1.532453 1_556
O26 P6 1.550184 1_555
O27 P7 1.548376 1_555
O28 P2 1.544562 1_555
O29 P2 1.544837 1_556
O30 P8 1.522793 1_555
O31 P9 1.523523 1_555
O32 P9 1.532890 1_555
O33 P8 1.534918 1_555
O34 P9 1.545115 1_555
O35 P8 1.541386 1_455
O36 P11 1.545499 1_655
O37 P10 1.545915 1_555
O38 P11 1.534176 1_555
O39 P10 1.532329 1_555
O40 P10 1.517476 1_555
O41 P11 1.521753 1_555
O42 P3 1.537585 1_555
O43 P3 1.542128 1_555
O44 P5 1.549981 1_565
O45 P4 1.549276 1_565
O46 P0 1.531097 1_565
O47 P0 1.530477 1_565
