# generated using pymatgen
data_RbBe2BO3F2
_symmetry_space_group_name_H-M   'P 1'
_cell_length_a   7.29378711
_cell_length_b   7.29378711
_cell_length_c   7.29378756
_cell_angle_alpha   35.70731465
_cell_angle_beta   35.70731465
_cell_angle_gamma   35.70731266
_symmetry_Int_Tables_number   1
_chemical_formula_structural   RbBe2BO3F2
_chemical_formula_sum   'Rb1 Be2 B1 O3 F2'
_cell_volume   118.16250141
_cell_formula_units_Z   1
loop_
 _symmetry_equiv_pos_site_id
 _symmetry_equiv_pos_as_xyz
  1  'x, y, z'
loop_
 _atom_site_type_symbol
 _atom_site_label
 _atom_site_symmetry_multiplicity
 _atom_site_fract_x
 _atom_site_fract_y
 _atom_site_fract_z
 _atom_site_occupancy
  Rb  Rb0  1  0.00000000  0.00000000  0.00000000  1
  Be  Be0  1  0.80555600  0.80555600  0.80555600  1
  Be  Be1  1  0.19444400  0.19444400  0.19444400  1
  B  B0  1  0.50000000  0.50000000  0.50000000  1
  O  O0  1  0.19125200  0.80874800  0.50000000  1
  O  O1  1  0.50000000  0.19125200  0.80874800  1
  O  O2  1  0.80874800  0.50000000  0.19125200  1
  F  F0  1  0.72993800  0.72993800  0.72993800  1
  F  F1  1  0.27006200  0.27006200  0.27006200  1
loop_
_geom_bond_atom_site_label_1
_geom_bond_atom_site_label_2
_geom_bond_distance
_geom_bond_site_symmetry_2
Be0 F0 1.547470 1_555
Be0 O1 1.649721 1_565
Be0 O0 1.649721 1_655
Be0 O2 1.649721 1_556
Be1 F1 1.547470 1_555
Be1 O2 1.649721 1_455
Be1 O0 1.649721 1_545
Be1 O1 1.649721 1_554
B0 O0 1.380832 1_555
B0 O2 1.380832 1_555
B0 O1 1.380832 1_555
F0 Rb0 2.888572 1_566
F0 Rb0 2.888572 1_656
F0 Rb0 2.888572 1_665
F1 Rb0 2.888572 1_565
F1 Rb0 2.888572 1_655
F1 Rb0 2.888572 1_556
