# generated using pymatgen
data_Li4NbFe5(PO4)6
_symmetry_space_group_name_H-M   'P 1'
_cell_length_a   8.49821400
_cell_length_b   8.63258245
_cell_length_c   8.64366891
_cell_angle_alpha   63.11385815
_cell_angle_beta   63.46033812
_cell_angle_gamma   63.91735350
_symmetry_Int_Tables_number   1
_chemical_formula_structural   Li4NbFe5(PO4)6
_chemical_formula_sum   'Li4 Nb1 Fe5 P6 O24'
_cell_volume   483.01865478
_cell_formula_units_Z   1
loop_
 _symmetry_equiv_pos_site_id
 _symmetry_equiv_pos_as_xyz
  1  'x, y, z'
loop_
 _atom_site_type_symbol
 _atom_site_label
 _atom_site_symmetry_multiplicity
 _atom_site_fract_x
 _atom_site_fract_y
 _atom_site_fract_z
 _atom_site_occupancy
  Li  Li0  1  0.74684500  0.14830700  0.35533500  1
  Li  Li1  1  0.29396800  0.84216700  0.64428800  1
  Li  Li2  1  0.64047300  0.29552500  0.84638400  1
  Li  Li3  1  0.84453200  0.63920900  0.29948300  1
  Nb  Nb0  1  0.85083200  0.84660600  0.84968800  1
  Fe  Fe0  1  0.01382100  0.00547700  0.99941300  1
  Fe  Fe1  1  0.35064600  0.35647300  0.34790700  1
  Fe  Fe2  1  0.49128000  0.50188600  0.50086700  1
  Fe  Fe3  1  0.14785000  0.15036700  0.15035300  1
  Fe  Fe4  1  0.65364100  0.65349600  0.65792600  1
  P  P0  1  0.05671400  0.74627800  0.43941700  1
  P  P1  1  0.43890000  0.05471100  0.74724200  1
  P  P2  1  0.74685600  0.43783900  0.05683400  1
  P  P3  1  0.24902800  0.54777800  0.94838600  1
  P  P4  1  0.55938100  0.95173000  0.25111900  1
  P  P5  1  0.93931600  0.24665500  0.54639000  1
  O  O0  1  0.46891000  0.90179500  0.68274900  1
  O  O1  1  0.67904200  0.46918100  0.90536000  1
  O  O2  1  0.90320600  0.67421100  0.47473400  1
  O  O3  1  0.05636400  0.91063900  0.26229100  1
  O  O4  1  0.00522400  0.81273800  0.60491000  1
  O  O5  1  0.24485800  0.60184900  0.43268700  1
  O  O6  1  0.25124400  0.07678900  0.89717500  1
  O  O7  1  0.45583600  0.23482500  0.58922600  1
  O  O8  1  0.17017900  0.40318100  0.98759600  1
  O  O9  1  0.60083600  0.43015100  0.24826400  1
  O  O10  1  0.10399100  0.75014100  0.90794100  1
  O  O11  1  0.40347300  0.00902400  0.17914200  1
  O  O12  1  0.60135600  0.99902500  0.82308900  1
  O  O13  1  0.89473200  0.24922000  0.08093200  1
  O  O14  1  0.40670900  0.56254900  0.75694700  1
  O  O15  1  0.81692700  0.60018800  0.00746600  1
  O  O16  1  0.56265000  0.76168100  0.40741300  1
  O  O17  1  0.76019300  0.90727700  0.10117000  1
  O  O18  1  0.75385600  0.40653800  0.56980200  1
  O  O19  1  0.94799500  0.17836800  0.40699600  1
  O  O20  1  0.91187300  0.09850900  0.74778200  1
  O  O21  1  0.11013400  0.29274400  0.50162000  1
  O  O22  1  0.30825000  0.52412500  0.10067000  1
  O  O23  1  0.55808400  0.09775000  0.30600300  1
loop_
_geom_bond_atom_site_label_1
_geom_bond_atom_site_label_2
_geom_bond_distance
_geom_bond_site_symmetry_2
Li0 O23 2.083445 1_555
Li0 O19 2.089463 1_555
Li0 O13 2.096229 1_555
Li0 O9 2.156575 1_555
Li0 O7 2.456531 1_555
Li0 O3 2.575164 1_645
Li1 O0 1.963443 1_555
Li1 O14 2.089728 1_555
Li1 O10 2.152579 1_555
Li1 O16 2.366912 1_555
Li2 O1 1.971584 1_555
Li2 O18 2.059980 1_555
Li2 O20 2.245788 1_555
Li2 O14 2.364660 1_555
Li3 O2 1.963674 1_555
Li3 O16 2.096293 1_555
Li3 O17 2.204298 1_555
Li3 O18 2.365363 1_555
Nb0 O12 1.996989 1_555
Nb0 O4 2.006216 1_655
Nb0 O15 2.007978 1_556
Nb0 O10 2.142183 1_655
Nb0 O20 2.150565 1_565
Nb0 O17 2.184352 1_556
Fe0 O6 2.058571 1_555
Fe0 O3 2.180678 1_546
Fe0 O13 2.186151 1_456
Fe0 O17 2.318646 1_446
Fe0 O20 2.370348 1_455
Fe0 O10 2.370743 1_545
Fe1 O21 2.036285 1_555
Fe1 O22 2.055128 1_555
Fe1 O9 2.173514 1_555
Fe1 O23 2.219469 1_555
Fe1 O5 2.229976 1_555
Fe1 O7 2.261080 1_555
Fe2 O5 2.128677 1_555
Fe2 O7 2.191250 1_555
Fe2 O9 2.217411 1_555
Fe2 O14 2.232942 1_555
Fe2 O18 2.267451 1_555
Fe2 O16 2.273735 1_555
Fe3 O8 2.031475 1_554
Fe3 O11 2.036532 1_555
Fe3 O19 2.149679 1_455
Fe3 O3 2.180579 1_545
Fe3 O13 2.188952 1_455
Fe3 O6 2.238884 1_554
Fe4 O2 2.028215 1_555
Fe4 O1 2.045778 1_555
Fe4 O0 2.064219 1_555
Fe4 O14 2.233496 1_555
Fe4 O18 2.267798 1_555
Fe4 O16 2.278407 1_555
O0 P1 1.536499 1_565
O1 P2 1.528512 1_556
O2 P0 1.538855 1_655
O3 P0 1.546880 1_555
O4 P0 1.590288 1_555
O5 P0 1.530969 1_555
O6 P1 1.538923 1_555
O7 P1 1.550537 1_555
O8 P3 1.507284 1_555
O9 P2 1.555753 1_555
O10 P3 1.622491 1_555
O11 P4 1.506400 1_545
O12 P1 1.583389 1_565
O13 P2 1.549760 1_555
O14 P3 1.589948 1_555
O15 P2 1.570588 1_555
O16 P4 1.583140 1_555
O17 P4 1.623835 1_555
O18 P5 1.576296 1_555
O19 P5 1.526241 1_555
O20 P5 1.614366 1_555
O21 P5 1.510611 1_455
O22 P3 1.512006 1_554
O23 P4 1.529075 1_545
