# generated using pymatgen
data_Li4Mn3Cr(PO4)4
_symmetry_space_group_name_H-M   'P 1'
_cell_length_a   6.22609100
_cell_length_b   4.79138600
_cell_length_c   10.47440075
_cell_angle_alpha   89.02815044
_cell_angle_beta   90.00000000
_cell_angle_gamma   90.00000000
_symmetry_Int_Tables_number   1
_chemical_formula_structural   Li4Mn3Cr(PO4)4
_chemical_formula_sum   'Li4 Mn3 Cr1 P4 O16'
_cell_volume   312.42323966
_cell_formula_units_Z   1
loop_
 _symmetry_equiv_pos_site_id
 _symmetry_equiv_pos_as_xyz
  1  'x, y, z'
loop_
 _atom_site_type_symbol
 _atom_site_label
 _atom_site_symmetry_multiplicity
 _atom_site_fract_x
 _atom_site_fract_y
 _atom_site_fract_z
 _atom_site_occupancy
  Li  Li0  1  0.24934500  0.00299300  0.99852100  1
  Li  Li1  1  0.75065500  0.00299300  0.99852100  1
  Li  Li2  1  0.75122100  0.49962100  0.50106800  1
  Li  Li3  1  0.24877900  0.49962100  0.50106800  1
  Mn  Mn0  1  0.00000000  0.02971600  0.28084200  1
  Mn  Mn1  1  0.00000000  0.46980700  0.78206200  1
  Mn  Mn2  1  0.50000000  0.52933200  0.21850300  1
  Cr  Cr0  1  0.50000000  0.95177700  0.71595200  1
  P  P0  1  0.50000000  0.08591700  0.41003100  1
  P  P1  1  0.50000000  0.41133700  0.90483200  1
  P  P2  1  0.00000000  0.59227200  0.09239200  1
  P  P3  1  0.00000000  0.91187800  0.59186900  1
  O  O0  1  0.50000000  0.19673800  0.54927000  1
  O  O1  1  0.30099500  0.22282000  0.34126300  1
  O  O2  1  0.69900500  0.22282000  0.34126300  1
  O  O3  1  0.00000000  0.23324200  0.59410200  1
  O  O4  1  0.00000000  0.27063900  0.09757500  1
  O  O5  1  0.29848300  0.28153700  0.83936700  1
  O  O6  1  0.70151700  0.28153700  0.83936700  1
  O  O7  1  0.50000000  0.29590900  0.04490400  1
  O  O8  1  0.00000000  0.71600900  0.95428400  1
  O  O9  1  0.80059100  0.72281300  0.16162700  1
  O  O10  1  0.19940900  0.72281300  0.16162700  1
  O  O11  1  0.50000000  0.73486600  0.89598900  1
  O  O12  1  0.50000000  0.76485600  0.40476000  1
  O  O13  1  0.80219400  0.77780400  0.66206900  1
  O  O14  1  0.19780600  0.77780400  0.66206900  1
  O  O15  1  0.00000000  0.79053000  0.45480300  1
loop_
_geom_bond_atom_site_label_1
_geom_bond_atom_site_label_2
_geom_bond_distance
_geom_bond_site_symmetry_2
Li0 O8 2.130062 1_545
Li0 O5 2.139707 1_555
Li0 O7 2.159717 1_556
Li0 O10 2.177107 1_546
Li0 O4 2.275132 1_556
Li0 O11 2.299157 1_545
Li1 O8 2.130062 1_645
Li1 O6 2.139707 1_555
Li1 O7 2.159717 1_556
Li1 O9 2.177107 1_546
Li1 O4 2.275132 1_656
Li1 O11 2.299157 1_545
Li2 O15 2.133991 1_655
Li2 O2 2.177562 1_555
Li2 O0 2.186918 1_555
Li2 O13 2.190308 1_555
Li2 O3 2.221615 1_655
Li2 O12 2.244027 1_555
Li3 O15 2.133991 1_555
Li3 O1 2.177562 1_555
Li3 O0 2.186918 1_555
Li3 O14 2.190308 1_555
Li3 O3 2.221615 1_555
Li3 O12 2.244027 1_555
Mn0 O15 2.136056 1_545
Mn0 O1 2.188244 1_555
Mn0 O2 2.188244 1_455
Mn0 O4 2.223123 1_555
Mn0 O9 2.307665 1_445
Mn0 O10 2.307665 1_545
Mn1 O5 2.146914 1_555
Mn1 O6 2.146914 1_455
Mn1 O8 2.172071 1_555
Mn1 O14 2.282824 1_555
Mn1 O13 2.282824 1_455
Mn1 O3 2.288343 1_555
Mn2 O7 2.150867 1_555
Mn2 O10 2.167515 1_555
Mn2 O9 2.167515 1_555
Mn2 O12 2.270307 1_555
Mn2 O1 2.298115 1_555
Mn2 O2 2.298115 1_555
Cr0 O0 2.087154 1_565
Cr0 O13 2.137600 1_555
Cr0 O14 2.137600 1_555
Cr0 O11 2.137717 1_555
Cr0 O6 2.410593 1_565
Cr0 O5 2.410593 1_565
O0 P0 1.560538 1_555
O1 P0 1.571071 1_555
O2 P0 1.571071 1_555
O3 P3 1.540353 1_545
O4 P2 1.541103 1_555
O5 P1 1.563850 1_555
O6 P1 1.563850 1_555
O7 P1 1.559147 1_554
O8 P2 1.554043 1_556
O9 P2 1.572873 1_655
O10 P2 1.572873 1_555
O11 P1 1.551348 1_555
O12 P0 1.540253 1_565
O13 P3 1.566544 1_655
O14 P3 1.566544 1_555
O15 P3 1.558063 1_555
