# generated using pymatgen
data_NaZnP2HClO7
_symmetry_space_group_name_H-M   'P 1'
_cell_length_a   8.01980000
_cell_length_b   8.01980000
_cell_length_c   22.60642900
_cell_angle_alpha   90.00000000
_cell_angle_beta   90.00000000
_cell_angle_gamma   90.00000000
_symmetry_Int_Tables_number   1
_chemical_formula_structural   NaZnP2HClO7
_chemical_formula_sum   'Na8 Zn8 P16 H8 Cl8 O56'
_cell_volume   1453.98203533
_cell_formula_units_Z   8
loop_
 _symmetry_equiv_pos_site_id
 _symmetry_equiv_pos_as_xyz
  1  'x, y, z'
loop_
 _atom_site_type_symbol
 _atom_site_label
 _atom_site_symmetry_multiplicity
 _atom_site_fract_x
 _atom_site_fract_y
 _atom_site_fract_z
 _atom_site_occupancy
  Na  Na0  1  0.14523800  0.85476200  0.75000000  1
  Na  Na1  1  0.85476200  0.14523800  0.25000000  1
  Na  Na2  1  0.35476200  0.35476200  0.50000000  1
  Na  Na3  1  0.64523800  0.64523800  0.00000000  1
  Na  Na4  1  0.84937200  0.15062800  0.75000000  1
  Na  Na5  1  0.15062800  0.84937200  0.25000000  1
  Na  Na6  1  0.65062800  0.65062800  0.50000000  1
  Na  Na7  1  0.34937200  0.34937200  0.00000000  1
  Zn  Zn0  1  0.00132100  0.50869700  0.62969700  1
  Zn  Zn1  1  0.99867900  0.49130300  0.12969700  1
  Zn  Zn2  1  0.00869700  0.49867900  0.37969700  1
  Zn  Zn3  1  0.99130300  0.50132100  0.87969700  1
  Zn  Zn4  1  0.49130300  0.99867900  0.87030300  1
  Zn  Zn5  1  0.50869700  0.00132100  0.37030300  1
  Zn  Zn6  1  0.49867900  0.00869700  0.62030300  1
  Zn  Zn7  1  0.50132100  0.99130300  0.12030300  1
  P  P0  1  0.37411000  0.64019300  0.64295100  1
  P  P1  1  0.62589000  0.35980700  0.14295100  1
  P  P2  1  0.14019300  0.12589000  0.39295100  1
  P  P3  1  0.85980700  0.87411000  0.89295100  1
  P  P4  1  0.35980700  0.62589000  0.85704900  1
  P  P5  1  0.64019300  0.37411000  0.35704900  1
  P  P6  1  0.12589000  0.14019300  0.60704900  1
  P  P7  1  0.87411000  0.85980700  0.10704900  1
  P  P8  1  0.86320200  0.87449200  0.60891500  1
  P  P9  1  0.13679800  0.12550800  0.10891500  1
  P  P10  1  0.37449200  0.63679800  0.35891500  1
  P  P11  1  0.62550800  0.36320200  0.85891500  1
  P  P12  1  0.12550800  0.13679800  0.89108500  1
  P  P13  1  0.87449200  0.86320200  0.39108500  1
  P  P14  1  0.63679800  0.37449200  0.64108500  1
  P  P15  1  0.36320200  0.62550800  0.14108500  1
  H  H0  1  0.28572900  0.83850200  0.46982200  1
  H  H1  1  0.71427100  0.16149800  0.96982200  1
  H  H2  1  0.33850200  0.21427100  0.21982200  1
  H  H3  1  0.66149800  0.78572900  0.71982200  1
  H  H4  1  0.16149800  0.71427100  0.03017800  1
  H  H5  1  0.83850200  0.28572900  0.53017800  1
  H  H6  1  0.21427100  0.33850200  0.78017800  1
  H  H7  1  0.78572900  0.66149800  0.28017800  1
  Cl  Cl0  1  0.18456900  0.78307800  0.51052500  1
  Cl  Cl1  1  0.81543100  0.21692200  0.01052500  1
  Cl  Cl2  1  0.28307800  0.31543100  0.26052500  1
  Cl  Cl3  1  0.71692200  0.68456900  0.76052500  1
  Cl  Cl4  1  0.21692200  0.81543100  0.98947500  1
  Cl  Cl5  1  0.78307800  0.18456900  0.48947500  1
  Cl  Cl6  1  0.31543100  0.28307800  0.73947500  1
  Cl  Cl7  1  0.68456900  0.71692200  0.23947500  1
  O  O0  1  0.87114600  0.89755700  0.67571100  1
  O  O1  1  0.12885400  0.10244300  0.17571100  1
  O  O2  1  0.39755700  0.62885400  0.42571100  1
  O  O3  1  0.60244300  0.37114600  0.92571100  1
  O  O4  1  0.10244300  0.12885400  0.82428900  1
  O  O5  1  0.89755700  0.87114600  0.32428900  1
  O  O6  1  0.62885400  0.39755700  0.57428900  1
  O  O7  1  0.37114600  0.60244300  0.07428900  1
  O  O8  1  0.39040700  0.61474100  0.57470500  1
  O  O9  1  0.60959300  0.38525900  0.07470500  1
  O  O10  1  0.11474100  0.10959300  0.32470500  1
  O  O11  1  0.88525900  0.89040700  0.82470500  1
  O  O12  1  0.38525900  0.60959300  0.92529500  1
  O  O13  1  0.61474100  0.39040700  0.42529500  1
  O  O14  1  0.10959300  0.11474100  0.67529500  1
  O  O15  1  0.89040700  0.88525900  0.17529500  1
  O  O16  1  0.99176200  0.01193000  0.57978400  1
  O  O17  1  0.00823800  0.98807000  0.07978400  1
  O  O18  1  0.51193000  0.50823800  0.32978400  1
  O  O19  1  0.48807000  0.49176200  0.82978400  1
  O  O20  1  0.98807000  0.00823800  0.92021600  1
  O  O21  1  0.01193000  0.99176200  0.42021600  1
  O  O22  1  0.50823800  0.51193000  0.67021600  1
  O  O23  1  0.49176200  0.48807000  0.17021600  1
  O  O24  1  0.42513300  0.81274400  0.66675000  1
  O  O25  1  0.57486700  0.18725600  0.16675000  1
  O  O26  1  0.31274400  0.07486700  0.41675000  1
  O  O27  1  0.68725600  0.92513300  0.91675000  1
  O  O28  1  0.18725600  0.57486700  0.83325000  1
  O  O29  1  0.81274400  0.42513300  0.33325000  1
  O  O30  1  0.07486700  0.31274400  0.58325000  1
  O  O31  1  0.92513300  0.68725600  0.08325000  1
  O  O32  1  0.80726600  0.41180700  0.66975800  1
  O  O33  1  0.19273400  0.58819300  0.16975800  1
  O  O34  1  0.91180700  0.69273400  0.41975800  1
  O  O35  1  0.08819300  0.30726600  0.91975800  1
  O  O36  1  0.58819300  0.19273400  0.83024200  1
  O  O37  1  0.41180700  0.80726600  0.33024200  1
  O  O38  1  0.69273400  0.91180700  0.58024200  1
  O  O39  1  0.30726600  0.08819300  0.08024200  1
  O  O40  1  0.20083200  0.59982400  0.66824000  1
  O  O41  1  0.79916800  0.40017600  0.16824000  1
  O  O42  1  0.09982400  0.29916800  0.41824000  1
  O  O43  1  0.90017600  0.70083200  0.91824000  1
  O  O44  1  0.40017600  0.79916800  0.83176000  1
  O  O45  1  0.59982400  0.20083200  0.33176000  1
  O  O46  1  0.29916800  0.09982400  0.58176000  1
  O  O47  1  0.70083200  0.90017600  0.08176000  1
  O  O48  1  0.91964100  0.70334300  0.58528700  1
  O  O49  1  0.08035900  0.29665700  0.08528700  1
  O  O50  1  0.20334300  0.58035900  0.33528700  1
  O  O51  1  0.79665700  0.41964100  0.83528700  1
  O  O52  1  0.29665700  0.08035900  0.91471300  1
  O  O53  1  0.70334300  0.91964100  0.41471300  1
  O  O54  1  0.58035900  0.20334300  0.66471300  1
  O  O55  1  0.41964100  0.79665700  0.16471300  1
loop_
_geom_bond_atom_site_label_1
_geom_bond_atom_site_label_2
_geom_bond_distance
_geom_bond_site_symmetry_2
Na0 O14 2.698323 1_565
Na0 O11 2.698323 1_455
Na0 O4 2.787495 1_565
Na0 O0 2.787495 1_455
Na0 O40 2.791988 1_555
Na0 O44 2.791988 1_555
Na0 O24 2.948577 1_555
Na0 O28 2.948577 1_555
Na1 O15 2.698323 1_545
Na1 O10 2.698323 1_655
Na1 O5 2.787495 1_545
Na1 O1 2.787495 1_655
Na1 O45 2.791988 1_555
Na1 O41 2.791988 1_555
Na1 O29 2.948577 1_555
Na1 O25 2.948577 1_555
Na2 O8 2.698323 1_555
Na2 O13 2.698323 1_555
Na2 O2 2.787495 1_555
Na2 O6 2.787495 1_555
Na2 O42 2.791988 1_555
Na2 O46 2.791988 1_555
Na2 O26 2.948577 1_555
Na2 O30 2.948577 1_555
Na3 O9 2.698323 1_555
Na3 O12 2.698323 1_554
Na3 O7 2.787495 1_555
Na3 O3 2.787495 1_554
Na3 O47 2.791988 1_555
Na3 O43 2.791988 1_554
Na3 O31 2.948577 1_555
Na3 O27 2.948577 1_554
Na4 O0 2.640094 1_545
Na4 O4 2.640094 1_655
Na4 O14 2.700030 1_655
Na4 O11 2.700030 1_545
Na4 O32 2.791404 1_555
Na4 O36 2.791404 1_555
Na4 O51 2.924133 1_555
Na4 O54 2.924133 1_555
Na5 O5 2.640094 1_455
Na5 O1 2.640094 1_565
Na5 O15 2.700030 1_455
Na5 O10 2.700030 1_565
Na5 O37 2.791404 1_555
Na5 O33 2.791404 1_555
Na5 O55 2.924133 1_555
Na5 O50 2.924133 1_555
Na6 O2 2.640094 1_555
Na6 O6 2.640094 1_555
Na6 O13 2.700030 1_555
Na6 O8 2.700030 1_555
Na6 O34 2.791404 1_555
Na6 O38 2.791404 1_555
Na6 O53 2.924133 1_555
Na6 O48 2.924133 1_555
Na7 O7 2.640094 1_555
Na7 O3 2.640094 1_554
Na7 O9 2.700030 1_555
Na7 O12 2.700030 1_554
Na7 O39 2.791404 1_555
Na7 O35 2.791404 1_554
Na7 O49 2.924133 1_555
Na7 O52 2.924133 1_554
Cl0 H0 1.304770 1_555
Cl1 H1 1.304770 1_554
Cl2 H2 1.304770 1_555
Cl3 H3 1.304770 1_555
Cl4 H4 1.304770 1_556
Cl5 H5 1.304770 1_555
Cl6 H6 1.304770 1_555
Cl7 H7 1.304770 1_555
O0 P8 1.522640 1_555
O1 P9 1.522640 1_555
O2 P10 1.522640 1_555
O3 P11 1.522640 1_555
O4 P12 1.522640 1_555
O5 P13 1.522640 1_555
O6 P14 1.522640 1_555
O7 P15 1.522640 1_555
O8 P0 1.561721 1_555
O9 P1 1.561721 1_555
O10 P2 1.561721 1_555
O11 P3 1.561721 1_555
O12 P4 1.561721 1_555
O13 P5 1.561721 1_555
O14 P6 1.561721 1_555
O15 P7 1.561721 1_555
O16 P6 1.610931 1_655
O16 P8 1.646693 1_545
O17 P7 1.610931 1_455
O17 P9 1.646693 1_565
O18 P5 1.610931 1_555
O18 P10 1.646693 1_555
O19 P4 1.610931 1_555
O19 P11 1.646693 1_555
O20 P3 1.610931 1_545
O20 P12 1.646693 1_655
O21 P2 1.610931 1_565
O21 P13 1.646693 1_455
O22 P0 1.610931 1_555
O22 P14 1.646693 1_555
O23 P1 1.610931 1_555
O23 P15 1.646693 1_555
O24 P0 1.540086 1_555
O24 Zn6 1.979904 1_565
O25 P1 1.540086 1_555
O25 Zn7 1.979904 1_545
O26 P2 1.540086 1_555
O26 Zn5 1.979904 1_555
O27 P3 1.540086 1_555
O27 Zn4 1.979904 1_555
O28 P4 1.540086 1_555
O28 Zn3 1.979904 1_455
O29 P5 1.540086 1_555
O29 Zn2 1.979904 1_655
O30 P6 1.540086 1_555
O30 Zn0 1.979904 1_555
O31 P7 1.540086 1_555
O31 Zn1 1.979904 1_555
O32 P14 1.542312 1_555
O32 Zn0 1.961117 1_655
O33 P15 1.542312 1_555
O33 Zn1 1.961117 1_455
O34 P13 1.542312 1_555
O34 Zn2 1.961117 1_655
O35 P12 1.542312 1_555
O35 Zn3 1.961117 1_455
O36 P11 1.542312 1_555
O36 Zn4 1.961117 1_545
O37 P10 1.542312 1_555
O37 Zn5 1.961117 1_565
O38 P8 1.542312 1_555
O38 Zn6 1.961117 1_565
O39 P9 1.542312 1_555
O39 Zn7 1.961117 1_545
O40 P0 1.537137 1_555
O40 Zn0 1.963013 1_555
O41 P1 1.537137 1_555
O41 Zn1 1.963013 1_555
O42 P2 1.537137 1_555
O42 Zn2 1.963013 1_555
O43 P3 1.537137 1_555
O43 Zn3 1.963013 1_555
O44 P4 1.537137 1_555
O44 Zn4 1.963013 1_555
O45 P5 1.537137 1_555
O45 Zn5 1.963013 1_555
O46 P6 1.537137 1_555
O46 Zn6 1.963013 1_555
O47 P7 1.537137 1_555
O47 Zn7 1.963013 1_555
O48 P8 1.540832 1_555
O48 Zn0 1.968199 1_655
O49 P9 1.540832 1_555
O49 Zn1 1.968199 1_455
O50 P10 1.540832 1_555
O50 Zn2 1.968199 1_555
O51 P11 1.540832 1_555
O51 Zn3 1.968199 1_555
O52 P12 1.540832 1_555
O52 Zn4 1.968199 1_545
O53 P13 1.540832 1_555
O53 Zn5 1.968199 1_565
O54 P14 1.540832 1_555
O54 Zn6 1.968199 1_555
O55 P15 1.540832 1_555
O55 Zn7 1.968199 1_555
