# generated using pymatgen
data_Cs2CeO3
_symmetry_space_group_name_H-M   'P 1'
_cell_length_a   6.94487057
_cell_length_b   6.94487057
_cell_length_c   6.48364058
_cell_angle_alpha   90.00000000
_cell_angle_beta   90.00000000
_cell_angle_gamma   112.48214931
_symmetry_Int_Tables_number   1
_chemical_formula_structural   Cs2CeO3
_chemical_formula_sum   'Cs4 Ce2 O6'
_cell_volume   288.94728061
_cell_formula_units_Z   2
loop_
 _symmetry_equiv_pos_site_id
 _symmetry_equiv_pos_as_xyz
  1  'x, y, z'
loop_
 _atom_site_type_symbol
 _atom_site_label
 _atom_site_symmetry_multiplicity
 _atom_site_fract_x
 _atom_site_fract_y
 _atom_site_fract_z
 _atom_site_occupancy
  Cs  Cs0  1  0.47718805  0.80817430  0.25764681  1
  Cs  Cs1  1  0.19182570  0.52281195  0.75764681  1
  Cs  Cs2  1  0.52281195  0.19182570  0.75764681  1
  Cs  Cs3  1  0.80817430  0.47718805  0.25764681  1
  Ce  Ce0  1  0.09251324  0.09251324  0.23674557  1
  Ce  Ce1  1  0.90748676  0.90748676  0.73674557  1
  O  O0  1  0.13242869  0.89092227  0.49403740  1
  O  O1  1  0.10907773  0.86757131  0.99403740  1
  O  O2  1  0.64672561  0.64672561  0.69202001  1
  O  O3  1  0.35327439  0.35327439  0.19202001  1
  O  O4  1  0.86757131  0.10907773  0.99403740  1
  O  O5  1  0.89092227  0.13242869  0.49403740  1
loop_
_geom_bond_atom_site_label_1
_geom_bond_atom_site_label_2
_geom_bond_distance
_geom_bond_site_symmetry_2
Cs0 O3 2.970362 1_555
Cs0 O0 3.076420 1_555
Cs0 O4 3.210229 1_564
Cs0 O1 3.230085 1_554
Cs0 O5 3.275306 1_565
Cs0 O2 3.403645 1_555
Cs1 O2 2.970362 1_555
Cs1 O1 3.076420 1_555
Cs1 O5 3.210229 1_455
Cs1 O0 3.230085 1_555
Cs1 O4 3.275306 1_455
Cs1 O3 3.403645 1_556
Cs2 O2 2.970362 1_555
Cs2 O4 3.076420 1_555
Cs2 O0 3.210229 1_545
Cs2 O5 3.230085 1_555
Cs2 O1 3.275306 1_545
Cs2 O3 3.403645 1_556
Cs3 O3 2.970362 1_555
Cs3 O5 3.076420 1_555
Cs3 O1 3.210229 1_654
Cs3 O4 3.230085 1_554
Cs3 O0 3.275306 1_655
Cs3 O2 3.403645 1_555
Ce0 O3 2.033475 1_555
Ce0 O4 2.251098 1_454
Ce0 O1 2.251098 1_544
Ce0 O5 2.261984 1_455
Ce0 O0 2.261984 1_545
Ce1 O2 2.033475 1_555
Ce1 O5 2.251098 1_565
Ce1 O0 2.251098 1_655
Ce1 O1 2.261984 1_655
Ce1 O4 2.261984 1_565
