# generated using pymatgen
data_Bi4O3F7
_symmetry_space_group_name_H-M   'P 1'
_cell_length_a   3.94574700
_cell_length_b   5.76370800
_cell_length_c   8.45992270
_cell_angle_alpha   88.86881893
_cell_angle_beta   90.00000000
_cell_angle_gamma   90.00000000
_symmetry_Int_Tables_number   1
_chemical_formula_structural   Bi4O3F7
_chemical_formula_sum   'Bi4 O3 F7'
_cell_volume   192.35919691
_cell_formula_units_Z   1
loop_
 _symmetry_equiv_pos_site_id
 _symmetry_equiv_pos_as_xyz
  1  'x, y, z'
loop_
 _atom_site_type_symbol
 _atom_site_label
 _atom_site_symmetry_multiplicity
 _atom_site_fract_x
 _atom_site_fract_y
 _atom_site_fract_z
 _atom_site_occupancy
  Bi  Bi0  1  0.50000000  0.77425900  0.88895600  1
  Bi  Bi1  1  0.50000000  0.77128200  0.37358700  1
  Bi  Bi2  1  0.00000000  0.25769700  0.62146900  1
  Bi  Bi3  1  0.00000000  0.20087500  0.12461700  1
  O  O0  1  0.50000000  0.95304000  0.12748100  1
  O  O1  1  0.00000000  0.02854300  0.88573800  1
  O  O2  1  0.00000000  0.03037600  0.36883700  1
  F  F0  1  0.50000000  0.96552100  0.62857400  1
  F  F1  1  0.50000000  0.37436500  0.76615300  1
  F  F2  1  0.50000000  0.36056300  0.46005600  1
  F  F3  1  0.50000000  0.42374900  0.11111300  1
  F  F4  1  0.00000000  0.55413100  0.94135300  1
  F  F5  1  0.00000000  0.64633900  0.59831200  1
  F  F6  1  0.00000000  0.57286100  0.27740500  1
loop_
_geom_bond_atom_site_label_1
_geom_bond_atom_site_label_2
_geom_bond_distance
_geom_bond_site_symmetry_2
Bi0 O0 2.283822 1_556
Bi0 F4 2.382489 1_555
Bi0 F4 2.382489 1_655
Bi0 F0 2.443714 1_555
Bi0 O1 2.457526 1_565
Bi0 O1 2.457526 1_665
Bi0 F1 2.546822 1_555
Bi1 O0 2.312191 1_555
Bi1 F6 2.428782 1_555
Bi1 F6 2.428782 1_655
Bi1 F0 2.449918 1_555
Bi1 F2 2.463877 1_555
Bi1 O2 2.474176 1_565
Bi1 O2 2.474176 1_665
Bi2 F5 2.244713 1_555
Bi2 F1 2.423864 1_455
Bi2 F1 2.423864 1_555
Bi2 F2 2.465053 1_555
Bi2 F2 2.465053 1_455
Bi2 O2 2.528842 1_555
Bi2 O1 2.574140 1_555
Bi2 F0 2.593793 1_445
Bi2 F0 2.593793 1_545
Bi3 O1 2.269333 1_554
Bi3 O2 2.270296 1_555
Bi3 F3 2.355766 1_455
Bi3 F3 2.355766 1_555
Bi3 O0 2.435552 1_445
Bi3 O0 2.435552 1_545
Bi3 F6 2.525269 1_555
Bi3 F4 2.534691 1_554
