# generated using pymatgen
data_Li5Co3(SbO5)2
_symmetry_space_group_name_H-M   'P 1'
_cell_length_a   5.29366835
_cell_length_b   10.50832988
_cell_length_c   8.09435406
_cell_angle_alpha   106.89261994
_cell_angle_beta   76.40098938
_cell_angle_gamma   78.54328432
_symmetry_Int_Tables_number   1
_chemical_formula_structural   Li5Co3(SbO5)2
_chemical_formula_sum   'Li10 Co6 Sb4 O20'
_cell_volume   401.14083096
_cell_formula_units_Z   2
loop_
 _symmetry_equiv_pos_site_id
 _symmetry_equiv_pos_as_xyz
  1  'x, y, z'
loop_
 _atom_site_type_symbol
 _atom_site_label
 _atom_site_symmetry_multiplicity
 _atom_site_fract_x
 _atom_site_fract_y
 _atom_site_fract_z
 _atom_site_occupancy
  Li  Li0  1  0.99999900  0.50000000  0.49999400  1
  Li  Li1  1  0.99999800  0.00000100  0.50000200  1
  Li  Li2  1  0.50600500  0.58121500  0.39355400  1
  Li  Li3  1  0.50592300  0.08132300  0.39361800  1
  Li  Li4  1  0.49400700  0.41878300  0.60644200  1
  Li  Li5  1  0.49408400  0.91867500  0.60638000  1
  Li  Li6  1  0.49328900  0.69187400  0.80328700  1
  Li  Li7  1  0.49316600  0.19197500  0.80331600  1
  Li  Li8  1  0.50670200  0.30813300  0.19671100  1
  Li  Li9  1  0.50681900  0.80803300  0.19668900  1
  Co  Co0  1  0.50002300  0.50000200  0.99999700  1
  Co  Co1  1  0.99634300  0.58970100  0.90848200  1
  Co  Co2  1  0.00359700  0.41028100  0.09151900  1
  Co  Co3  1  0.49999400  0.99999600  0.99999600  1
  Co  Co4  1  0.99604300  0.08969300  0.90848800  1
  Co  Co5  1  0.00393300  0.91030000  0.09150700  1
  Sb  Sb0  1  0.00498600  0.79356300  0.70049600  1
  Sb  Sb1  1  0.00475100  0.29353600  0.70033900  1
  Sb  Sb2  1  0.99502200  0.20644000  0.29950700  1
  Sb  Sb3  1  0.99526300  0.70646400  0.29966600  1
  O  O0  1  0.24367200  0.88438000  0.82559000  1
  O  O1  1  0.24380100  0.38372500  0.82476500  1
  O  O2  1  0.75635100  0.11562000  0.17441900  1
  O  O3  1  0.75622300  0.61626400  0.17526100  1
  O  O4  1  0.75448800  0.79725800  0.93252700  1
  O  O5  1  0.75472400  0.29696600  0.93263900  1
  O  O6  1  0.24550000  0.20275600  0.06748200  1
  O  O7  1  0.24527600  0.70304000  0.06736800  1
  O  O8  1  0.78260200  0.70377100  0.54571800  1
  O  O9  1  0.78244000  0.20380800  0.54576700  1
  O  O10  1  0.21739800  0.29623100  0.45428500  1
  O  O11  1  0.21756200  0.79619500  0.45423800  1
  O  O12  1  0.24712800  0.51567400  0.24538900  1
  O  O13  1  0.24753400  0.01633000  0.24478400  1
  O  O14  1  0.75286500  0.48431500  0.75458700  1
  O  O15  1  0.75246200  0.98366600  0.75521300  1
  O  O16  1  0.23794700  0.60749900  0.65684100  1
  O  O17  1  0.23788800  0.10728600  0.65636400  1
  O  O18  1  0.76207100  0.39250300  0.34314300  1
  O  O19  1  0.76212300  0.89272000  0.34363000  1
loop_
_geom_bond_atom_site_label_1
_geom_bond_atom_site_label_2
_geom_bond_distance
_geom_bond_site_symmetry_2
Li0 O8 2.099218 1_555
Li0 O10 2.099233 1_655
Li0 O18 2.226656 1_555
Li0 O16 2.226732 1_655
Li0 O14 2.236224 1_555
Li0 O12 2.236239 1_655
Li1 O9 2.099720 1_555
Li1 O11 2.099722 1_645
Li1 O19 2.223247 1_545
Li1 O17 2.223284 1_655
Li1 O15 2.244201 1_545
Li1 O13 2.244218 1_655
Li2 O18 2.034263 1_555
Li2 O12 2.111509 1_555
Li2 O3 2.117458 1_555
Li2 O16 2.170659 1_555
Li2 O11 2.303979 1_555
Li2 O8 2.448435 1_555
Li3 O19 2.034489 1_545
Li3 O13 2.111059 1_555
Li3 O2 2.119130 1_555
Li3 O17 2.168121 1_555
Li3 O10 2.303597 1_555
Li3 O9 2.447656 1_555
Li4 O16 2.034305 1_555
Li4 O14 2.111295 1_555
Li4 O1 2.117659 1_555
Li4 O18 2.170760 1_555
Li4 O9 2.303932 1_555
Li4 O10 2.448438 1_555
Li5 O17 2.034554 1_565
Li5 O15 2.110999 1_555
Li5 O0 2.119146 1_555
Li5 O19 2.168179 1_555
Li5 O8 2.303557 1_555
Li5 O11 2.447623 1_555
Li6 O0 2.117676 1_555
Li6 O16 2.153397 1_555
Li6 O7 2.186317 1_556
Li6 O4 2.201772 1_555
Li6 O14 2.203581 1_555
Li6 O8 2.331061 1_555
Li7 O1 2.113072 1_555
Li7 O17 2.156726 1_555
Li7 O6 2.187639 1_556
Li7 O5 2.201670 1_555
Li7 O15 2.210673 1_545
Li7 O9 2.330546 1_555
Li8 O2 2.117836 1_555
Li8 O18 2.153432 1_555
Li8 O5 2.186270 1_554
Li8 O6 2.201707 1_555
Li8 O12 2.203469 1_555
Li8 O10 2.331093 1_555
Li9 O3 2.113377 1_555
Li9 O19 2.156782 1_555
Li9 O4 2.187641 1_554
Li9 O7 2.201606 1_555
Li9 O13 2.210565 1_565
Li9 O11 2.330528 1_555
Co0 O14 2.058237 1_555
Co0 O12 2.058289 1_556
Co0 O5 2.121977 1_555
Co0 O7 2.122066 1_556
Co0 O3 2.429051 1_556
Co0 O1 2.429066 1_555
Co1 O1 2.112795 1_655
Co1 O3 2.138845 1_556
Co1 O16 2.216068 1_655
Co1 O14 2.227036 1_555
Co1 O4 2.227321 1_555
Co1 O7 2.310686 1_656
Co2 O3 2.112678 1_455
Co2 O1 2.138844 1_554
Co2 O18 2.215703 1_455
Co2 O6 2.227152 1_555
Co2 O12 2.227185 1_555
Co2 O5 2.310287 1_454
Co3 O15 2.051211 1_555
Co3 O13 2.051212 1_566
Co3 O4 2.118881 1_555
Co3 O6 2.119042 1_566
Co3 O0 2.422602 1_555
Co3 O2 2.422865 1_566
Co4 O0 2.108300 1_645
Co4 O2 2.134270 1_556
Co4 O17 2.218706 1_655
Co4 O5 2.223510 1_555
Co4 O15 2.227762 1_545
Co4 O6 2.312036 1_656
Co5 O2 2.108259 1_465
Co5 O0 2.134279 1_554
Co5 O19 2.218566 1_455
Co5 O7 2.223473 1_555
Co5 O13 2.227871 1_565
Co5 O4 2.311821 1_454
O0 Sb0 2.012856 1_555
O1 Sb1 2.008722 1_555
O2 Sb2 2.012778 1_555
O3 Sb3 2.008642 1_555
O4 Sb0 2.013290 1_655
O5 Sb1 2.014957 1_655
O6 Sb2 2.013251 1_455
O7 Sb3 2.014936 1_455
O8 Sb3 2.055673 1_555
O8 Sb0 2.072095 1_655
O9 Sb2 2.056701 1_555
O9 Sb1 2.070511 1_655
O10 Sb1 2.055671 1_555
O10 Sb2 2.072057 1_455
O11 Sb0 2.056677 1_555
O11 Sb3 2.070473 1_455
O12 Sb3 2.034942 1_455
O13 Sb2 2.029887 1_455
O14 Sb1 2.034948 1_655
O15 Sb0 2.029866 1_655
O16 Sb0 1.975924 1_555
O17 Sb1 1.977213 1_555
O18 Sb2 1.975934 1_555
O19 Sb3 1.977293 1_555
