# generated using pymatgen
data_TiSn(PO4)2
_symmetry_space_group_name_H-M   'P 1'
_cell_length_a   6.23761000
_cell_length_b   5.07113900
_cell_length_c   10.93358767
_cell_angle_alpha   88.31573041
_cell_angle_beta   90.00000000
_cell_angle_gamma   90.00000000
_symmetry_Int_Tables_number   1
_chemical_formula_structural   TiSn(PO4)2
_chemical_formula_sum   'Ti2 Sn2 P4 O16'
_cell_volume   345.69950189
_cell_formula_units_Z   2
loop_
 _symmetry_equiv_pos_site_id
 _symmetry_equiv_pos_as_xyz
  1  'x, y, z'
loop_
 _atom_site_type_symbol
 _atom_site_label
 _atom_site_symmetry_multiplicity
 _atom_site_fract_x
 _atom_site_fract_y
 _atom_site_fract_z
 _atom_site_occupancy
  Ti  Ti0  1  0.25000000  0.56717900  0.79527500  1
  Ti  Ti1  1  0.75000000  0.43282100  0.20472500  1
  Sn  Sn0  1  0.75000000  0.03618200  0.72472600  1
  Sn  Sn1  1  0.25000000  0.96381800  0.27527400  1
  P  P0  1  0.75000000  0.55135000  0.91197300  1
  P  P1  1  0.25000000  0.16333100  0.63176100  1
  P  P2  1  0.75000000  0.83666900  0.36823900  1
  P  P3  1  0.25000000  0.44865000  0.08802700  1
  O  O0  1  0.25000000  0.37928200  0.94972400  1
  O  O1  1  0.75000000  0.25415000  0.89824800  1
  O  O2  1  0.94893100  0.69146100  0.84885600  1
  O  O3  1  0.55106900  0.69146100  0.84885600  1
  O  O4  1  0.06360200  0.32437500  0.69527300  1
  O  O5  1  0.43639800  0.32437500  0.69527300  1
  O  O6  1  0.25000000  0.87524100  0.68981700  1
  O  O7  1  0.75000000  0.83259900  0.50411400  1
  O  O8  1  0.25000000  0.16740100  0.49588600  1
  O  O9  1  0.75000000  0.12475900  0.31018300  1
  O  O10  1  0.93639800  0.67562500  0.30472700  1
  O  O11  1  0.56360200  0.67562500  0.30472700  1
  O  O12  1  0.44893100  0.30853900  0.15114400  1
  O  O13  1  0.05106900  0.30853900  0.15114400  1
  O  O14  1  0.25000000  0.74585000  0.10175200  1
  O  O15  1  0.75000000  0.62071800  0.05027600  1
loop_
_geom_bond_atom_site_label_1
_geom_bond_atom_site_label_2
_geom_bond_distance
_geom_bond_site_symmetry_2
O0 P3 1.562564 1_556
O0 Ti0 1.914415 1_555
O1 P0 1.518977 1_555
O1 Sn0 2.223623 1_555
O2 P0 1.578597 1_555
O2 Ti0 2.070947 1_655
O2 Sn0 2.509613 1_565
O3 P0 1.578597 1_555
O3 Ti0 2.070947 1_555
O3 Sn0 2.509613 1_565
O4 P1 1.591957 1_555
O4 Ti0 2.035319 1_555
O4 Sn0 2.457306 1_455
O5 P1 1.591957 1_555
O5 Ti0 2.035319 1_555
O5 Sn0 2.457306 1_555
O6 P1 1.575680 1_565
O6 Ti0 1.914197 1_555
O7 P2 1.485138 1_555
O7 Sn0 2.651483 1_565
O8 P1 1.485138 1_555
O8 Sn1 2.651483 1_545
O9 P2 1.575680 1_545
O9 Ti1 1.914197 1_555
O10 P2 1.591957 1_555
O10 Ti1 2.035319 1_555
O10 Sn1 2.457306 1_655
O11 P2 1.591957 1_555
O11 Ti1 2.035319 1_555
O11 Sn1 2.457306 1_555
O12 P3 1.578597 1_555
O12 Ti1 2.070947 1_555
O12 Sn1 2.509613 1_545
O13 P3 1.578597 1_555
O13 Ti1 2.070947 1_455
O13 Sn1 2.509613 1_545
O14 P3 1.518977 1_555
O14 Sn1 2.223623 1_555
O15 P0 1.562564 1_554
O15 Ti1 1.914415 1_555
