# generated using pymatgen
data_V3Cr3(WO8)2
_symmetry_space_group_name_H-M   'P 1'
_cell_length_a   5.98010700
_cell_length_b   6.00752458
_cell_length_c   9.25542456
_cell_angle_alpha   90.03383526
_cell_angle_beta   91.04510237
_cell_angle_gamma   119.63844314
_symmetry_Int_Tables_number   1
_chemical_formula_structural   V3Cr3(WO8)2
_chemical_formula_sum   'V3 Cr3 W2 O16'
_cell_volume   288.93718340
_cell_formula_units_Z   1
loop_
 _symmetry_equiv_pos_site_id
 _symmetry_equiv_pos_as_xyz
  1  'x, y, z'
loop_
 _atom_site_type_symbol
 _atom_site_label
 _atom_site_symmetry_multiplicity
 _atom_site_fract_x
 _atom_site_fract_y
 _atom_site_fract_z
 _atom_site_occupancy
  V  V0  1  0.33990100  0.17053600  0.77625000  1
  V  V1  1  0.17130700  0.82725900  0.28200900  1
  V  V2  1  0.16499400  0.33522000  0.28517500  1
  Cr  Cr0  1  0.82912800  0.66138500  0.79187300  1
  Cr  Cr1  1  0.82797300  0.16771500  0.79163500  1
  Cr  Cr2  1  0.66077400  0.82856000  0.29312400  1
  W  W0  1  0.67492400  0.33714300  0.50835200  1
  W  W1  1  0.34093900  0.66846200  0.00662900  1
  O  O0  1  0.82960700  0.65018200  0.40609600  1
  O  O1  1  0.94816300  0.47345600  0.66274600  1
  O  O2  1  0.64503600  0.32321300  0.89080000  1
  O  O3  1  0.01006600  0.00464600  0.69924400  1
  O  O4  1  0.00170800  0.98677500  0.20052200  1
  O  O5  1  0.82574400  0.17332000  0.40531100  1
  O  O6  1  0.51939400  0.47392100  0.65473500  1
  O  O7  1  0.52073800  0.04746600  0.65476700  1
  O  O8  1  0.65472800  0.82968700  0.90503300  1
  O  O9  1  0.35607600  0.17743800  0.40245500  1
  O  O10  1  0.47191200  0.95158500  0.16022700  1
  O  O11  1  0.47861600  0.52949400  0.15685400  1
  O  O12  1  0.32392500  0.67252100  0.39165800  1
  O  O13  1  0.17925100  0.82701100  0.90317800  1
  O  O14  1  0.04728500  0.52931100  0.15264400  1
  O  O15  1  0.17781000  0.35389200  0.90296500  1
loop_
_geom_bond_atom_site_label_1
_geom_bond_atom_site_label_2
_geom_bond_distance
_geom_bond_site_symmetry_2
Cr0 O3 1.996822 1_665
Cr0 O2 2.001130 1_555
Cr0 O1 2.008472 1_555
Cr0 O6 2.039502 1_555
Cr0 O8 2.070857 1_555
Cr0 O13 2.072386 1_655
Cr1 O2 1.989525 1_555
Cr1 O3 1.991172 1_655
Cr1 O1 2.010339 1_555
Cr1 O7 2.025715 1_555
Cr1 O8 2.063986 1_545
Cr1 O15 2.072475 1_655
Cr2 O4 1.985659 1_655
Cr2 O12 1.992135 1_555
Cr2 O11 2.004193 1_555
Cr2 O10 2.027495 1_555
Cr2 O5 2.068883 1_565
Cr2 O0 2.072176 1_555
O0 W0 1.897761 1_555
O0 V1 2.136176 1_655
O1 W0 1.993126 1_555
O2 V0 1.888896 1_555
O3 V0 1.842661 1_555
O4 V1 1.857423 1_555
O4 V2 1.974268 1_565
O5 W0 1.897305 1_555
O5 V2 2.104788 1_655
O6 V0 1.962250 1_555
O6 W0 2.043615 1_555
O7 V0 1.953075 1_555
O7 W0 2.043612 1_555
O8 W1 1.900360 1_556
O9 W0 1.907401 1_555
O9 V2 2.099933 1_555
O9 V1 2.131312 1_545
O10 V1 1.951104 1_555
O10 W1 2.041160 1_555
O11 W1 1.986827 1_555
O11 V2 2.051370 1_555
O12 V1 1.879755 1_555
O12 V2 2.009813 1_555
O13 W1 1.907122 1_556
O13 V0 2.155261 1_565
O14 V1 1.959488 1_555
O14 V2 2.035106 1_555
O14 W1 2.060337 1_555
O15 W1 1.893110 1_556
O15 V0 2.150432 1_555
