# generated using pymatgen
data_Li7V5O12
_symmetry_space_group_name_H-M   'P 1'
_cell_length_a   5.03161660
_cell_length_b   5.03161660
_cell_length_c   9.92405584
_cell_angle_alpha   85.19076435
_cell_angle_beta   85.19076435
_cell_angle_gamma   120.01823121
_symmetry_Int_Tables_number   1
_chemical_formula_structural   Li7V5O12
_chemical_formula_sum   'Li7 V5 O12'
_cell_volume   214.46624669
_cell_formula_units_Z   1
loop_
 _symmetry_equiv_pos_site_id
 _symmetry_equiv_pos_as_xyz
  1  'x, y, z'
loop_
 _atom_site_type_symbol
 _atom_site_label
 _atom_site_symmetry_multiplicity
 _atom_site_fract_x
 _atom_site_fract_y
 _atom_site_fract_z
 _atom_site_occupancy
  Li  Li0  1  0.57421900  0.89603600  0.26143200  1
  Li  Li1  1  0.10396400  0.42578100  0.73856800  1
  Li  Li2  1  0.24957900  0.24957900  0.26115600  1
  Li  Li3  1  0.50000000  0.50000000  0.50000000  1
  Li  Li4  1  0.42578100  0.10396400  0.73856800  1
  Li  Li5  1  0.75042100  0.75042100  0.73884400  1
  Li  Li6  1  0.89603600  0.57421900  0.26143200  1
  V  V0  1  0.00000000  0.00000000  0.00000000  1
  V  V1  1  0.33396300  0.66603700  0.00000000  1
  V  V2  1  0.66603700  0.33396300  0.00000000  1
  V  V3  1  0.83529200  0.16470800  0.50000000  1
  V  V4  1  0.16470800  0.83529200  0.50000000  1
  O  O0  1  0.96138200  0.29780100  0.11266900  1
  O  O1  1  0.70219900  0.03861800  0.88733100  1
  O  O2  1  0.46530500  0.80878500  0.61457900  1
  O  O3  1  0.19121500  0.53469500  0.38542100  1
  O  O4  1  0.88880700  0.88880700  0.38659800  1
  O  O5  1  0.37112400  0.37112400  0.88168400  1
  O  O6  1  0.11119300  0.11119300  0.61340200  1
  O  O7  1  0.29780100  0.96138200  0.11266900  1
  O  O8  1  0.62887600  0.62887600  0.11831600  1
  O  O9  1  0.53469500  0.19121500  0.38542100  1
  O  O10  1  0.03861800  0.70219900  0.88733100  1
  O  O11  1  0.80878500  0.46530500  0.61457900  1
loop_
_geom_bond_atom_site_label_1
_geom_bond_atom_site_label_2
_geom_bond_distance
_geom_bond_site_symmetry_2
Li0 O3 2.062779 1_555
Li0 O9 2.078569 1_565
Li0 O4 2.104641 1_555
Li0 O8 2.127060 1_555
Li0 O7 2.223179 1_555
Li0 O0 2.266754 1_565
Li1 O2 2.062779 1_555
Li1 O11 2.078569 1_455
Li1 O6 2.104641 1_555
Li1 O5 2.127060 1_555
Li1 O10 2.223179 1_555
Li1 O1 2.266754 1_455
Li2 O4 2.021212 1_445
Li2 O3 2.079077 1_555
Li2 O9 2.079077 1_555
Li2 O8 2.177723 1_555
Li2 O0 2.232379 1_455
Li2 O7 2.232379 1_545
Li3 O2 2.066813 1_555
Li3 O11 2.066813 1_555
Li3 O3 2.066813 1_555
Li3 O9 2.066813 1_555
Li3 O6 2.086460 1_555
Li3 O4 2.086460 1_555
Li4 O11 2.062779 1_555
Li4 O2 2.078569 1_545
Li4 O6 2.104641 1_555
Li4 O5 2.127060 1_555
Li4 O1 2.223179 1_555
Li4 O10 2.266754 1_545
Li5 O6 2.021212 1_665
Li5 O2 2.079077 1_555
Li5 O11 2.079077 1_555
Li5 O5 2.177723 1_555
Li5 O10 2.232379 1_655
Li5 O1 2.232379 1_565
Li6 O9 2.062779 1_555
Li6 O3 2.078569 1_655
Li6 O4 2.104641 1_555
Li6 O8 2.127060 1_555
Li6 O0 2.223179 1_555
Li6 O7 2.266754 1_655
O0 V2 2.001688 1_555
O0 V1 2.005839 1_655
O0 V0 2.017192 1_655
O1 V2 2.001688 1_556
O1 V1 2.005839 1_546
O1 V0 2.017192 1_656
O2 V3 1.983351 1_565
O2 V4 2.015729 1_555
O3 V3 1.983351 1_455
O3 V4 2.015729 1_555
O4 V3 1.962495 1_565
O4 V4 1.962495 1_655
O5 V0 2.031866 1_556
O5 V1 2.036792 1_556
O5 V2 2.036792 1_556
O6 V4 1.962495 1_545
O6 V3 1.962495 1_455
O7 V1 2.001688 1_555
O7 V2 2.005839 1_565
O7 V0 2.017192 1_565
O8 V0 2.031866 1_665
O8 V2 2.036792 1_555
O8 V1 2.036792 1_555
O9 V4 1.983351 1_545
O9 V3 2.015729 1_555
O10 V1 2.001688 1_556
O10 V2 2.005839 1_456
O10 V0 2.017192 1_566
O11 V4 1.983351 1_655
O11 V3 2.015729 1_555
