# generated using pymatgen
data_Fe10O11F9
_symmetry_space_group_name_H-M   'P 1'
_cell_length_a   15.37415900
_cell_length_b   4.73555000
_cell_length_c   4.75059914
_cell_angle_alpha   87.65298545
_cell_angle_beta   90.00000000
_cell_angle_gamma   90.00000000
_symmetry_Int_Tables_number   1
_chemical_formula_structural   Fe10O11F9
_chemical_formula_sum   'Fe10 O11 F9'
_cell_volume   345.57770054
_cell_formula_units_Z   1
loop_
 _symmetry_equiv_pos_site_id
 _symmetry_equiv_pos_as_xyz
  1  'x, y, z'
loop_
 _atom_site_type_symbol
 _atom_site_label
 _atom_site_symmetry_multiplicity
 _atom_site_fract_x
 _atom_site_fract_y
 _atom_site_fract_z
 _atom_site_occupancy
  Fe  Fe0  1  0.39701100  0.99921400  0.98527900  1
  Fe  Fe1  1  0.60298900  0.99921400  0.98527900  1
  Fe  Fe2  1  0.79941400  0.95716800  0.99828800  1
  Fe  Fe3  1  0.00000000  0.95548800  0.98927500  1
  Fe  Fe4  1  0.20058600  0.95716800  0.99828800  1
  Fe  Fe5  1  0.50000000  0.49795700  0.49051100  1
  Fe  Fe6  1  0.89712800  0.53794800  0.49755200  1
  Fe  Fe7  1  0.69125800  0.53515100  0.51142600  1
  Fe  Fe8  1  0.10287200  0.53794800  0.49755200  1
  Fe  Fe9  1  0.30874200  0.53515100  0.51142600  1
  O  O0  1  0.69693600  0.81013400  0.81052300  1
  O  O1  1  0.89857600  0.79845600  0.80901700  1
  O  O2  1  0.10142400  0.79845600  0.80901700  1
  O  O3  1  0.30306400  0.81013400  0.81052300  1
  O  O4  1  0.40811600  0.69872300  0.29758000  1
  O  O5  1  0.59188400  0.69872300  0.29758000  1
  O  O6  1  0.79460100  0.69035700  0.31617100  1
  O  O7  1  0.00000000  0.69109500  0.31159500  1
  O  O8  1  0.20539900  0.69035700  0.31617100  1
  O  O9  1  0.40667500  0.30957800  0.68759100  1
  O  O10  1  0.59332500  0.30957800  0.68759100  1
  F  F0  1  0.50000000  0.81339200  0.79900100  1
  F  F1  1  0.79661000  0.29967500  0.70550000  1
  F  F2  1  0.00000000  0.29789600  0.70168200  1
  F  F3  1  0.20339000  0.29967500  0.70550000  1
  F  F4  1  0.50000000  0.19056700  0.17977800  1
  F  F5  1  0.89767000  0.19223300  0.19882800  1
  F  F6  1  0.69863000  0.19816400  0.19632200  1
  F  F7  1  0.30137000  0.19816400  0.19632200  1
  F  F8  1  0.10233000  0.19223300  0.19882800  1
loop_
_geom_bond_atom_site_label_1
_geom_bond_atom_site_label_2
_geom_bond_distance
_geom_bond_site_symmetry_2
Fe0 O3 1.907357 1_555
Fe0 O9 2.002982 1_565
Fe0 O4 2.020460 1_556
Fe1 O0 1.907357 1_555
Fe1 O10 2.002982 1_565
Fe1 O5 2.020460 1_556
Fe2 O6 1.930319 1_556
Fe2 O1 1.937242 1_555
Fe2 O0 1.952840 1_555
Fe3 O7 1.937837 1_556
Fe3 O1 1.941622 1_455
Fe3 O2 1.941622 1_555
Fe4 O8 1.930319 1_556
Fe4 O2 1.937242 1_555
Fe4 O3 1.952840 1_555
Fe5 O9 1.913789 1_555
Fe5 O10 1.913789 1_555
Fe5 O5 1.915235 1_555
Fe5 O4 1.915235 1_555
Fe6 O6 1.922774 1_555
Fe6 O7 1.937851 1_655
Fe6 O1 1.965003 1_555
Fe7 O6 1.967000 1_555
Fe7 O0 1.968199 1_555
Fe7 O5 1.975285 1_555
Fe7 O10 2.008777 1_555
Fe8 O8 1.922774 1_555
Fe8 O7 1.937851 1_555
Fe8 O2 1.965003 1_555
Fe9 O8 1.967000 1_555
Fe9 O3 1.968199 1_555
Fe9 O4 1.975285 1_555
Fe9 O9 2.008777 1_555
F0 Fe1 2.031819 1_555
F0 Fe0 2.031819 1_555
F0 Fe5 2.135026 1_555
F1 Fe2 2.093439 1_545
F1 Fe6 2.132132 1_555
F1 Fe7 2.152373 1_555
F2 Fe3 2.077112 1_545
F2 Fe8 2.154933 1_555
F2 Fe6 2.154933 1_455
F3 Fe4 2.093439 1_545
F3 Fe8 2.132132 1_555
F3 Fe9 2.152373 1_555
F4 Fe0 2.061678 1_544
F4 Fe1 2.061678 1_544
F4 Fe5 2.115186 1_555
F5 Fe2 2.124975 1_544
F5 Fe3 2.194178 1_644
F5 Fe6 2.210094 1_555
F6 Fe1 2.032789 1_544
F6 Fe2 2.162477 1_544
F6 Fe7 2.235161 1_555
F7 Fe0 2.032789 1_544
F7 Fe4 2.162477 1_544
F7 Fe9 2.235161 1_555
F8 Fe4 2.124975 1_544
F8 Fe3 2.194178 1_544
F8 Fe8 2.210094 1_555
