# generated using pymatgen
data_K2FeP2H3(O4F)2
_symmetry_space_group_name_H-M   'P 1'
_cell_length_a   7.24701649
_cell_length_b   7.23942642
_cell_length_c   7.53414192
_cell_angle_alpha   92.78716779
_cell_angle_beta   87.24791408
_cell_angle_gamma   91.61703029
_symmetry_Int_Tables_number   1
_chemical_formula_structural   K2FeP2H3(O4F)2
_chemical_formula_sum   'K4 Fe2 P4 H6 O16 F4'
_cell_volume   394.21736441
_cell_formula_units_Z   2
loop_
 _symmetry_equiv_pos_site_id
 _symmetry_equiv_pos_as_xyz
  1  'x, y, z'
loop_
 _atom_site_type_symbol
 _atom_site_label
 _atom_site_symmetry_multiplicity
 _atom_site_fract_x
 _atom_site_fract_y
 _atom_site_fract_z
 _atom_site_occupancy
  K  K0  1  0.62844800  0.75869000  0.62003300  1
  K  K1  1  0.31463800  0.31793400  0.89399100  1
  K  K2  1  0.61348800  0.55876300  0.02239700  1
  K  K3  1  0.40729900  0.08248400  0.53210900  1
  Fe  Fe0  1  0.15587300  0.75109500  0.28697100  1
  Fe  Fe1  1  0.73603300  0.01407200  0.13729300  1
  P  P0  1  0.82207800  0.44687400  0.38229900  1
  P  P1  1  0.93443900  0.01423900  0.76232200  1
  P  P2  1  0.13538600  0.19547200  0.22953100  1
  P  P3  1  0.03421900  0.61545100  0.70466400  1
  H  H0  1  0.37434600  0.81124000  0.03879900  1
  H  H1  1  0.53930600  0.43578200  0.52028900  1
  H  H2  1  0.68437800  0.87573700  0.97137200  1
  H  H3  1  0.22564600  0.58998500  0.68009300  1
  H  H4  1  0.53855200  0.27271400  0.19960100  1
  H  H5  1  0.54570500  0.97415900  0.90459900  1
  O  O0  1  0.44925200  0.89079900  0.21081300  1
  O  O1  1  0.58080800  0.38697300  0.63961000  1
  O  O2  1  0.95761600  0.03526000  0.97310100  1
  O  O3  1  0.08124100  0.85098600  0.67472600  1
  O  O4  1  0.35571400  0.78819300  0.90378000  1
  O  O5  1  0.89060700  0.64638300  0.85049400  1
  O  O6  1  0.40157100  0.78201800  0.36275600  1
  O  O7  1  0.10668000  0.00829200  0.31596100  1
  O  O8  1  0.07348800  0.18976200  0.68612700  1
  O  O9  1  0.75156300  0.30801300  0.55320900  1
  O  O10  1  0.92252700  0.28004100  0.28241900  1
  O  O11  1  0.59233200  0.21677100  0.08931500  1
  O  O12  1  0.96471900  0.58249300  0.49875200  1
  O  O13  1  0.99939200  0.37187600  0.78107000  1
  O  O14  1  0.62520800  0.49759100  0.34853800  1
  O  O15  1  0.42140100  0.96860900  0.84610700  1
  F  F0  1  0.90002400  0.59391000  0.21471900  1
  F  F1  1  0.75436000  0.94579900  0.37023900  1
  F  F2  1  0.23920100  0.32532400  0.39050800  1
  F  F3  1  0.24245800  0.56401800  0.12139800  1
loop_
_geom_bond_atom_site_label_1
_geom_bond_atom_site_label_2
_geom_bond_distance
_geom_bond_site_symmetry_2
K0 O6 2.615846 1_555
K0 O15 2.663375 1_555
K0 O1 2.713633 1_555
K0 O14 2.717264 1_555
K0 O5 2.797609 1_555
K0 O4 2.845349 1_555
K0 O12 2.872113 1_555
K0 P1 3.048462 1_565
K1 O13 2.522889 1_455
K1 O8 2.529373 1_555
K1 O15 2.668160 1_545
K1 O11 2.687808 1_556
K1 O1 2.706932 1_555
K1 P2 2.949900 1_556
K2 O5 2.423054 1_554
K2 O14 2.523711 1_555
K2 O11 2.549501 1_555
K2 O4 2.743527 1_554
K2 O1 3.101649 1_554
K3 O6 2.468055 1_545
K3 O15 2.550346 1_545
K3 O8 2.747854 1_555
Fe0 O6 1.899812 1_555
Fe0 O7 1.905813 1_565
Fe0 O12 2.415881 1_455
Fe1 H2 1.614862 1_544
Fe1 O11 1.882153 1_555
Fe1 O2 1.986517 1_554
Fe1 O0 2.292476 1_545
Fe1 O10 2.553399 1_555
H0 O4 1.037441 1_554
H0 O0 1.511056 1_555
H0 K2 2.548695 1_555
H1 O1 1.042275 1_555
H1 O14 1.491787 1_555
H1 K0 2.497459 1_555
H2 K2 2.382793 1_556
H2 K0 2.784712 1_555
H3 P3 1.406856 1_555
H3 K1 2.715152 1_555
H4 O11 0.975406 1_555
H4 K2 2.549800 1_555
H5 O15 1.020626 1_555
H5 K0 2.644509 1_555
O0 O6 1.443739 1_555
O2 P1 1.604340 1_555
O3 P1 1.700545 1_465
O3 P3 1.752634 1_555
O5 P3 1.489930 1_655
O7 P2 1.536371 1_555
O8 P1 1.703748 1_455
O9 P0 1.721481 1_555
O10 P0 1.569567 1_555
O10 P2 1.698159 1_655
O12 P0 1.657813 1_555
O12 P3 1.658196 1_655
O13 O8 1.565104 1_655
O13 P3 1.887884 1_655
O14 P0 1.519386 1_555
F0 P0 1.753430 1_555
F0 Fe0 2.224108 1_655
F0 K2 2.588345 1_555
F1 Fe1 1.858111 1_565
F1 K0 2.494511 1_555
F1 K3 2.919078 1_565
F2 P2 1.690414 1_555
F2 K3 2.478084 1_555
F3 Fe0 1.895407 1_555
F3 K1 2.460190 1_554
F3 K2 2.756481 1_555
