# generated using pymatgen
data_Li2VCr2O6
_symmetry_space_group_name_H-M   'P 1'
_cell_length_a   5.09510709
_cell_length_b   10.21706401
_cell_length_c   5.15816182
_cell_angle_alpha   90.00295816
_cell_angle_beta   119.59712169
_cell_angle_gamma   89.99466281
_symmetry_Int_Tables_number   1
_chemical_formula_structural   Li2VCr2O6
_chemical_formula_sum   'Li4 V2 Cr4 O12'
_cell_volume   233.48223290
_cell_formula_units_Z   2
loop_
 _symmetry_equiv_pos_site_id
 _symmetry_equiv_pos_as_xyz
  1  'x, y, z'
loop_
 _atom_site_type_symbol
 _atom_site_label
 _atom_site_symmetry_multiplicity
 _atom_site_fract_x
 _atom_site_fract_y
 _atom_site_fract_z
 _atom_site_occupancy
  Li  Li0  1  0.14898600  0.75003000  0.49999700  1
  Li  Li1  1  0.35101500  0.24997200  0.50000800  1
  Li  Li2  1  0.64898600  0.75002100  0.50000500  1
  Li  Li3  1  0.85101300  0.24997500  0.50001400  1
  V  V0  1  0.49956700  0.50000400  0.99911500  1
  V  V1  1  0.99953200  0.99999800  0.99909300  1
  Cr  Cr0  1  0.66596200  0.99999900  0.33192900  1
  Cr  Cr1  1  0.83490200  0.50000700  0.66974300  1
  Cr  Cr2  1  0.16594600  0.49999800  0.33189500  1
  Cr  Cr3  1  0.33484800  0.99999700  0.66972700  1
  O  O0  1  0.18608600  0.59661000  0.99996500  1
  O  O1  1  0.31382300  0.09656300  0.99990000  1
  O  O2  1  0.68608600  0.90343900  0.99993900  1
  O  O3  1  0.81384800  0.40339300  0.99988400  1
  O  O4  1  0.00914100  0.10639200  0.34014600  1
  O  O5  1  0.99164900  0.89258300  0.65954900  1
  O  O6  1  0.16798500  0.39256800  0.65956000  1
  O  O7  1  0.49159900  0.60740300  0.65956500  1
  O  O8  1  0.33099400  0.89361200  0.34015200  1
  O  O9  1  0.50921500  0.39361900  0.34013700  1
  O  O10  1  0.83092700  0.60638900  0.34013400  1
  O  O11  1  0.66789100  0.10742800  0.65954400  1
loop_
_geom_bond_atom_site_label_1
_geom_bond_atom_site_label_2
_geom_bond_distance
_geom_bond_site_symmetry_2
Li0 O5 2.023026 1_455
Li0 O10 2.034766 1_455
Li0 O7 2.104435 1_555
Li0 O8 2.108908 1_555
Li1 O11 2.022916 1_555
Li1 O9 2.034864 1_555
Li1 O6 2.104121 1_555
Li1 O4 2.108943 1_555
Li2 O7 2.023850 1_555
Li2 O8 2.034037 1_555
Li2 O5 2.104306 1_555
Li2 O10 2.108949 1_555
Li3 O6 2.023725 1_655
Li3 O4 2.033995 1_655
Li3 O11 2.104183 1_555
Li3 O9 2.108985 1_555
Cr0 O5 2.010901 1_555
Cr0 O11 2.010965 1_565
Cr0 O2 2.022270 1_554
Cr0 O1 2.022424 1_564
Cr0 O4 2.041551 1_665
Cr0 O8 2.041559 1_555
Cr1 O10 2.009617 1_555
Cr1 O9 2.009729 1_555
Cr1 O3 2.016550 1_555
Cr1 O0 2.016613 1_655
Cr1 O7 2.043350 1_555
Cr1 O6 2.043418 1_655
Cr2 O7 2.010954 1_555
Cr2 O6 2.011051 1_555
Cr2 O0 2.022393 1_554
Cr2 O3 2.022570 1_454
Cr2 O9 2.041640 1_555
Cr2 O10 2.041665 1_455
Cr3 O8 2.009645 1_555
Cr3 O4 2.009680 1_565
Cr3 O1 2.016289 1_565
Cr3 O2 2.016419 1_555
Cr3 O5 2.043174 1_455
Cr3 O11 2.043375 1_565
O0 V0 1.879356 1_555
O1 V1 1.879212 1_445
O2 V1 1.879100 1_555
O3 V0 1.879341 1_555
O4 V1 2.047824 1_444
O5 V1 2.050329 1_555
O6 V0 2.050375 1_555
O7 V0 2.050186 1_555
O8 V1 2.047827 1_454
O9 V0 2.047652 1_554
O10 V0 2.047591 1_554
O11 V1 2.050378 1_545
