# generated using pymatgen
data_LiMnF3
_symmetry_space_group_name_H-M   'P 1'
_cell_length_a   12.01624700
_cell_length_b   5.56543700
_cell_length_c   7.72487611
_cell_angle_alpha   76.88970606
_cell_angle_beta   90.00000000
_cell_angle_gamma   90.00000000
_symmetry_Int_Tables_number   1
_chemical_formula_structural   LiMnF3
_chemical_formula_sum   'Li8 Mn8 F24'
_cell_volume   503.14100995
_cell_formula_units_Z   8
loop_
 _symmetry_equiv_pos_site_id
 _symmetry_equiv_pos_as_xyz
  1  'x, y, z'
loop_
 _atom_site_type_symbol
 _atom_site_label
 _atom_site_symmetry_multiplicity
 _atom_site_fract_x
 _atom_site_fract_y
 _atom_site_fract_z
 _atom_site_occupancy
  Li  Li0  1  0.15814100  0.46126200  0.98491000  1
  Li  Li1  1  0.51695400  0.88169200  0.71788700  1
  Li  Li2  1  0.01695400  0.11830800  0.78211300  1
  Li  Li3  1  0.65814100  0.53873800  0.51509000  1
  Li  Li4  1  0.34185900  0.46126200  0.48491000  1
  Li  Li5  1  0.98304600  0.88169200  0.21788700  1
  Li  Li6  1  0.48304600  0.11830800  0.28211300  1
  Li  Li7  1  0.84185900  0.53873800  0.01509000  1
  Mn  Mn0  1  0.43765600  0.31840300  0.87917900  1
  Mn  Mn1  1  0.76123000  0.08751100  0.88705900  1
  Mn  Mn2  1  0.26123000  0.91248900  0.61294100  1
  Mn  Mn3  1  0.93765600  0.68159700  0.62082100  1
  Mn  Mn4  1  0.06234400  0.31840300  0.37917900  1
  Mn  Mn5  1  0.73877000  0.08751100  0.38705900  1
  Mn  Mn6  1  0.23877000  0.91248900  0.11294100  1
  Mn  Mn7  1  0.56234400  0.68159700  0.12082100  1
  F  F0  1  0.26445100  0.24914700  0.91865100  1
  F  F1  1  0.23058900  0.76841100  0.88198300  1
  F  F2  1  0.57121100  0.58466200  0.86444700  1
  F  F3  1  0.89704500  0.36489700  0.84013900  1
  F  F4  1  0.91172700  0.85644700  0.86491200  1
  F  F5  1  0.57993500  0.06640400  0.88721600  1
  F  F6  1  0.07993500  0.93359600  0.61278400  1
  F  F7  1  0.41172700  0.14355300  0.63508800  1
  F  F8  1  0.39704500  0.63510300  0.65986100  1
  F  F9  1  0.07121100  0.41533800  0.63555300  1
  F  F10  1  0.73058900  0.23158900  0.61801700  1
  F  F11  1  0.76445100  0.75085300  0.58134900  1
  F  F12  1  0.23554900  0.24914700  0.41865100  1
  F  F13  1  0.26941100  0.76841100  0.38198300  1
  F  F14  1  0.92878900  0.58466200  0.36444700  1
  F  F15  1  0.60295500  0.36489700  0.34013900  1
  F  F16  1  0.58827300  0.85644700  0.36491200  1
  F  F17  1  0.92006500  0.06640400  0.38721600  1
  F  F18  1  0.42006500  0.93359600  0.11278400  1
  F  F19  1  0.08827300  0.14355300  0.13508800  1
  F  F20  1  0.10295500  0.63510300  0.15986100  1
  F  F21  1  0.42878900  0.41533800  0.13555300  1
  F  F22  1  0.76941100  0.23158900  0.11801700  1
  F  F23  1  0.73554900  0.75085300  0.08134900  1
loop_
_geom_bond_atom_site_label_1
_geom_bond_atom_site_label_2
_geom_bond_distance
_geom_bond_site_symmetry_2
F0 Li0 1.887214 1_555
F0 Mn0 2.126011 1_555
F0 Mn6 2.140718 1_546
F1 Li0 1.922387 1_555
F1 Mn2 2.083727 1_555
F1 Mn6 2.117718 1_556
F2 Li1 1.894873 1_555
F2 Mn0 2.169746 1_555
F2 Mn7 2.170093 1_556
F3 Li7 1.948193 1_556
F3 Li2 2.107005 1_655
F3 Mn3 2.204643 1_555
F3 Mn1 2.219043 1_555
F4 Li2 1.925864 1_665
F4 Li7 2.060732 1_556
F4 Mn1 2.247920 1_565
F4 Mn3 2.330625 1_555
F5 Li1 1.987593 1_545
F5 Mn1 2.181636 1_555
F5 Mn0 2.203237 1_555
F5 Mn7 2.476783 1_546
F6 Li2 1.987593 1_565
F6 Mn2 2.181636 1_555
F6 Mn3 2.203237 1_455
F6 Mn4 2.476783 1_565
F7 Li1 1.925864 1_545
F7 Li4 2.060732 1_555
F7 Mn2 2.247920 1_545
F7 Mn0 2.330625 1_555
F8 Li4 1.948193 1_555
F8 Li1 2.107005 1_555
F8 Mn0 2.204643 1_555
F8 Mn2 2.219043 1_555
F9 Li2 1.894873 1_555
F9 Mn3 2.169746 1_455
F9 Mn4 2.170093 1_555
F10 Li3 1.922387 1_555
F10 Mn1 2.083727 1_555
F10 Mn5 2.117718 1_555
F11 Li3 1.887214 1_555
F11 Mn3 2.126011 1_555
F11 Mn5 2.140718 1_565
F12 Li4 1.887214 1_555
F12 Mn4 2.126011 1_555
F12 Mn2 2.140718 1_545
F13 Li4 1.922387 1_555
F13 Mn6 2.083727 1_555
F13 Mn2 2.117718 1_555
F14 Li5 1.894873 1_555
F14 Mn4 2.169746 1_655
F14 Mn3 2.170093 1_555
F15 Li3 1.948193 1_555
F15 Li6 2.107005 1_555
F15 Mn7 2.204643 1_555
F15 Mn5 2.219043 1_555
F16 Li6 1.925864 1_565
F16 Li3 2.060732 1_555
F16 Mn5 2.247920 1_565
F16 Mn7 2.330625 1_555
F17 Li5 1.987593 1_545
F17 Mn5 2.181636 1_555
F17 Mn4 2.203237 1_655
F17 Mn3 2.476783 1_545
F18 Li6 1.987593 1_565
F18 Mn6 2.181636 1_555
F18 Mn7 2.203237 1_555
F18 Mn0 2.476783 1_564
F19 Li5 1.925864 1_445
F19 Li0 2.060732 1_554
F19 Mn6 2.247920 1_545
F19 Mn4 2.330625 1_555
F20 Li0 1.948193 1_554
F20 Li5 2.107005 1_455
F20 Mn4 2.204643 1_555
F20 Mn6 2.219043 1_555
F21 Li6 1.894873 1_555
F21 Mn7 2.169746 1_555
F21 Mn0 2.170093 1_554
F22 Li7 1.922387 1_555
F22 Mn5 2.083727 1_555
F22 Mn1 2.117718 1_554
F23 Li7 1.887214 1_555
F23 Mn7 2.126011 1_555
F23 Mn1 2.140718 1_564
