# generated using pymatgen
data_Na3VO3
_symmetry_space_group_name_H-M   'P 1'
_cell_length_a   6.16399258
_cell_length_b   6.31020587
_cell_length_c   10.68769402
_cell_angle_alpha   89.99917441
_cell_angle_beta   90.00655522
_cell_angle_gamma   87.49498535
_symmetry_Int_Tables_number   1
_chemical_formula_structural   Na3VO3
_chemical_formula_sum   'Na12 V4 O12'
_cell_volume   415.31195631
_cell_formula_units_Z   4
loop_
 _symmetry_equiv_pos_site_id
 _symmetry_equiv_pos_as_xyz
  1  'x, y, z'
loop_
 _atom_site_type_symbol
 _atom_site_label
 _atom_site_symmetry_multiplicity
 _atom_site_fract_x
 _atom_site_fract_y
 _atom_site_fract_z
 _atom_site_occupancy
  Na  Na0  1  0.04341700  0.89218300  0.77865600  1
  Na  Na1  1  0.35218900  0.86557500  0.00952300  1
  Na  Na2  1  0.52040900  0.98243000  0.28633500  1
  Na  Na3  1  0.04343600  0.39216800  0.72129500  1
  Na  Na4  1  0.47962000  0.51757800  0.78630600  1
  Na  Na5  1  0.35216700  0.36559300  0.49048500  1
  Na  Na6  1  0.64783000  0.63441200  0.50951000  1
  Na  Na7  1  0.52037100  0.48242700  0.21369000  1
  Na  Na8  1  0.95655900  0.60783500  0.27870300  1
  Na  Na9  1  0.47960100  0.01756900  0.71366700  1
  Na  Na10  1  0.64781000  0.13441900  0.99048000  1
  Na  Na11  1  0.95658000  0.10782300  0.22134400  1
  V  V0  1  0.16654900  0.82361400  0.49507400  1
  V  V1  1  0.16656600  0.32385000  0.00494700  1
  V  V2  1  0.83343900  0.67615000  0.99505500  1
  V  V3  1  0.83345200  0.17637100  0.50493100  1
  O  O0  1  0.13726600  0.61869200  0.93934400  1
  O  O1  1  0.31468900  0.69548300  0.35884900  1
  O  O2  1  0.26375800  0.66731200  0.63441700  1
  O  O3  1  0.73634200  0.83259300  0.13432800  1
  O  O4  1  0.68538500  0.80445500  0.85896200  1
  O  O5  1  0.86283100  0.88140200  0.43939000  1
  O  O6  1  0.13717500  0.11859800  0.56060200  1
  O  O7  1  0.31461600  0.19554100  0.14103300  1
  O  O8  1  0.26365400  0.16740400  0.86568200  1
  O  O9  1  0.73625000  0.33269200  0.36559400  1
  O  O10  1  0.68530500  0.30452200  0.64114300  1
  O  O11  1  0.86273300  0.38131000  0.06065500  1
loop_
_geom_bond_atom_site_label_1
_geom_bond_atom_site_label_2
_geom_bond_distance
_geom_bond_site_symmetry_2
Na0 O8 2.435157 1_565
Na0 O4 2.453723 1_455
Na0 O2 2.463070 1_555
Na0 O0 2.484915 1_555
Na0 O6 2.806928 1_565
Na1 O0 2.219199 1_554
Na1 O8 2.489494 1_564
Na1 O7 2.514467 1_565
Na1 O4 2.624464 1_554
Na1 O3 2.717676 1_555
Na2 O3 2.279349 1_555
Na2 O7 2.383177 1_565
Na2 O1 2.384976 1_555
Na2 O5 2.723753 1_555
Na2 O9 2.762171 1_565
Na3 O2 2.434603 1_555
Na3 O10 2.453395 1_455
Na3 O8 2.463069 1_555
Na3 O6 2.485282 1_555
Na3 O0 2.807266 1_555
Na4 O2 2.277713 1_555
Na4 O10 2.381898 1_555
Na4 O4 2.385203 1_555
Na4 O0 2.723733 1_555
Na4 O8 2.762571 1_555
Na5 O6 2.219844 1_555
Na5 O2 2.489537 1_555
Na5 O1 2.514729 1_555
Na5 O10 2.624493 1_555
Na5 O9 2.718002 1_555
Na6 O5 2.219866 1_555
Na6 O9 2.489449 1_555
Na6 O10 2.514710 1_555
Na6 O1 2.624527 1_555
Na6 O2 2.718027 1_555
Na7 O9 2.277889 1_555
Na7 O1 2.381861 1_555
Na7 O7 2.385216 1_555
Na7 O11 2.723755 1_555
Na7 O3 2.762499 1_555
Na8 O9 2.434604 1_555
Na8 O1 2.453370 1_655
Na8 O3 2.462965 1_555
Na8 O5 2.485211 1_555
Na8 O11 2.807254 1_555
Na9 O8 2.279454 1_555
Na9 O4 2.383111 1_545
Na9 O10 2.384985 1_555
Na9 O6 2.723837 1_555
Na9 O2 2.762122 1_545
Na10 O11 2.219221 1_556
Na10 O3 2.489522 1_546
Na10 O4 2.514505 1_545
Na10 O7 2.624403 1_556
Na10 O8 2.717656 1_555
Na11 O3 2.435162 1_545
Na11 O7 2.453748 1_655
Na11 O9 2.463101 1_555
Na11 O11 2.484903 1_555
Na11 O5 2.806864 1_545
O0 V2 1.983488 1_455
O0 V1 1.989044 1_556
O1 V0 1.882306 1_555
O2 V0 1.870239 1_555
O3 V2 1.870027 1_554
O4 V2 1.881237 1_555
O5 V0 1.982936 1_655
O5 V3 1.989614 1_565
O6 V3 1.982910 1_455
O6 V0 1.989652 1_545
O7 V1 1.881178 1_555
O8 V1 1.869952 1_556
O9 V3 1.870237 1_555
O10 V3 1.882270 1_555
O11 V1 1.983515 1_655
O11 V2 1.989019 1_554
