# generated using pymatgen
data_Li2Mn3(BO3)3
_symmetry_space_group_name_H-M   'P 1'
_cell_length_a   5.86048000
_cell_length_b   8.23022244
_cell_length_c   9.09964939
_cell_angle_alpha   112.28643080
_cell_angle_beta   102.80890007
_cell_angle_gamma   102.07465182
_symmetry_Int_Tables_number   1
_chemical_formula_structural   Li2Mn3(BO3)3
_chemical_formula_sum   'Li4 Mn6 B6 O18'
_cell_volume   374.50982726
_cell_formula_units_Z   2
loop_
 _symmetry_equiv_pos_site_id
 _symmetry_equiv_pos_as_xyz
  1  'x, y, z'
loop_
 _atom_site_type_symbol
 _atom_site_label
 _atom_site_symmetry_multiplicity
 _atom_site_fract_x
 _atom_site_fract_y
 _atom_site_fract_z
 _atom_site_occupancy
  Li  Li0  1  0.94945800  0.60918000  0.26776300  1
  Li  Li1  1  0.74974400  0.05208600  0.05726900  1
  Li  Li2  1  0.05054200  0.39082000  0.73223700  1
  Li  Li3  1  0.25025600  0.94791400  0.94273100  1
  Mn  Mn0  1  0.85612700  0.61391300  0.61579600  1
  Mn  Mn1  1  0.75592500  0.99967900  0.68444900  1
  Mn  Mn2  1  0.14387300  0.38608700  0.38420400  1
  Mn  Mn3  1  0.24407500  0.00032100  0.31555100  1
  Mn  Mn4  1  0.55972800  0.30603500  0.93077000  1
  Mn  Mn5  1  0.44027200  0.69396500  0.06923000  1
  B  B0  1  0.78962400  0.05178800  0.39308400  1
  B  B1  1  0.89322200  0.64836700  0.96910100  1
  B  B2  1  0.10677800  0.35163300  0.03089900  1
  B  B3  1  0.21037600  0.94821200  0.60691600  1
  B  B4  1  0.43186000  0.70128600  0.73144600  1
  B  B5  1  0.56814000  0.29871400  0.26855400  1
  O  O0  1  0.82678900  0.53506800  0.80060800  1
  O  O1  1  0.78783800  0.44693200  0.36129000  1
  O  O2  1  0.75436200  0.59503700  0.06049800  1
  O  O3  1  0.87610500  0.14065000  0.56480300  1
  O  O4  1  0.93950900  0.08704100  0.29945900  1
  O  O5  1  0.89660500  0.19460700  0.94531600  1
  O  O6  1  0.21216200  0.55306800  0.63871000  1
  O  O7  1  0.06049100  0.91295900  0.70054100  1
  O  O8  1  0.17321100  0.46493200  0.19939200  1
  O  O9  1  0.12389500  0.85935000  0.43519700  1
  O  O10  1  0.24563800  0.40496300  0.93950200  1
  O  O11  1  0.10339500  0.80539300  0.05468400  1
  O  O12  1  0.45055000  0.07209300  0.69611700  1
  O  O13  1  0.41993800  0.25712700  0.35971300  1
  O  O14  1  0.50305500  0.19128100  0.09938200  1
  O  O15  1  0.58006200  0.74287300  0.64028700  1
  O  O16  1  0.54945000  0.92790700  0.30388300  1
  O  O17  1  0.49694500  0.80871900  0.90061800  1
loop_
_geom_bond_atom_site_label_1
_geom_bond_atom_site_label_2
_geom_bond_distance
_geom_bond_site_symmetry_2
Li0 O9 1.911840 1_655
Li0 O2 1.923437 1_555
Li0 O8 1.992193 1_655
Li0 O1 2.023564 1_555
Li1 O17 1.973646 1_544
Li1 O5 2.006790 1_554
Li1 O14 2.038369 1_555
Li1 O4 2.115422 1_555
Li2 O3 1.911840 1_455
Li2 O10 1.923437 1_555
Li2 O0 1.992193 1_455
Li2 O6 2.023564 1_555
Li3 O14 1.973646 1_566
Li3 O11 2.006790 1_556
Li3 O17 2.038369 1_555
Li3 O7 2.115422 1_555
Mn0 O0 2.046483 1_555
Mn0 O1 2.087393 1_555
Mn0 O15 2.119567 1_555
Mn0 O6 2.229644 1_655
Mn0 O7 2.237040 1_655
Mn1 O15 1.987883 1_555
Mn1 O3 1.995930 1_565
Mn1 O12 2.012905 1_565
Mn1 O7 2.052579 1_655
Mn1 O5 2.139812 1_565
Mn2 O8 2.046483 1_555
Mn2 O6 2.087393 1_555
Mn2 O13 2.119567 1_555
Mn2 O1 2.229644 1_455
Mn2 O4 2.237040 1_455
Mn3 O13 1.987883 1_555
Mn3 O9 1.995930 1_545
Mn3 O16 2.012905 1_545
Mn3 O4 2.052579 1_455
Mn3 O11 2.139812 1_545
Mn4 O12 2.106283 1_555
Mn4 O2 2.119038 1_556
Mn4 O14 2.133123 1_556
Mn4 O10 2.168013 1_555
Mn4 O5 2.343062 1_555
Mn5 O16 2.106283 1_555
Mn5 O10 2.119038 1_554
Mn5 O17 2.133123 1_554
Mn5 O2 2.168013 1_555
Mn5 O11 2.343062 1_555
B0 O3 1.363965 1_555
B0 O16 1.394579 1_545
B0 O4 1.412186 1_555
B1 O0 1.367816 1_555
B1 O11 1.392529 1_656
B1 O2 1.405035 1_556
B2 O8 1.367816 1_555
B2 O5 1.392529 1_454
B2 O10 1.405035 1_554
B3 O9 1.363965 1_555
B3 O12 1.394579 1_565
B3 O7 1.412186 1_555
B4 O17 1.364999 1_555
B4 O6 1.392227 1_555
B4 O15 1.403575 1_555
B5 O14 1.364999 1_555
B5 O1 1.392227 1_555
B5 O13 1.403575 1_555
