# generated using pymatgen
data_ZrSiO
_symmetry_space_group_name_H-M   'P 1'
_cell_length_a   3.31999000
_cell_length_b   3.31999000
_cell_length_c   7.35184500
_cell_angle_alpha   90.00000000
_cell_angle_beta   90.00000000
_cell_angle_gamma   90.00000000
_symmetry_Int_Tables_number   1
_chemical_formula_structural   ZrSiO
_chemical_formula_sum   'Zr2 Si2 O2'
_cell_volume   81.03448817
_cell_formula_units_Z   2
loop_
 _symmetry_equiv_pos_site_id
 _symmetry_equiv_pos_as_xyz
  1  'x, y, z'
loop_
 _atom_site_type_symbol
 _atom_site_label
 _atom_site_symmetry_multiplicity
 _atom_site_fract_x
 _atom_site_fract_y
 _atom_site_fract_z
 _atom_site_occupancy
  Zr  Zr0  1  0.00000000  0.50000000  0.69159000  1
  Zr  Zr1  1  0.50000000  0.00000000  0.30841000  1
  Si  Si0  1  0.50000000  0.50000000  0.00000000  1
  Si  Si1  1  0.00000000  0.00000000  0.00000000  1
  O  O0  1  0.00000000  0.50000000  0.38870600  1
  O  O1  1  0.50000000  0.00000000  0.61129400  1
loop_
_geom_bond_atom_site_label_1
_geom_bond_atom_site_label_2
_geom_bond_distance
_geom_bond_site_symmetry_2
Si0 Si1 2.347587 1_665
Si0 Si1 2.347587 1_555
Si0 Si1 2.347587 1_565
Si0 Si1 2.347587 1_655
Si0 Zr0 2.810090 1_554
Si0 Zr0 2.810090 1_654
Si0 Zr1 2.810090 1_565
Si0 Zr1 2.810090 1_555
Si1 Zr0 2.810090 1_554
Si1 Zr0 2.810090 1_544
Si1 Zr1 2.810090 1_555
Si1 Zr1 2.810090 1_455
O0 Zr0 2.226756 1_555
O0 Zr1 2.420671 1_565
O0 Zr1 2.420671 1_555
O0 Zr1 2.420671 1_455
O0 Zr1 2.420671 1_465
O1 Zr1 2.226756 1_555
O1 Zr0 2.420671 1_555
O1 Zr0 2.420671 1_655
O1 Zr0 2.420671 1_545
O1 Zr0 2.420671 1_645
