# generated using pymatgen
data_Sn3SO7
_symmetry_space_group_name_H-M   'P 1'
_cell_length_a   5.79677200
_cell_length_b   12.21865100
_cell_length_c   13.35788300
_cell_angle_alpha   90.00000000
_cell_angle_beta   90.00000000
_cell_angle_gamma   90.00000000
_symmetry_Int_Tables_number   1
_chemical_formula_structural   Sn3SO7
_chemical_formula_sum   'Sn12 S4 O28'
_cell_volume   946.12194174
_cell_formula_units_Z   4
loop_
 _symmetry_equiv_pos_site_id
 _symmetry_equiv_pos_as_xyz
  1  'x, y, z'
loop_
 _atom_site_type_symbol
 _atom_site_label
 _atom_site_symmetry_multiplicity
 _atom_site_fract_x
 _atom_site_fract_y
 _atom_site_fract_z
 _atom_site_occupancy
  Sn  Sn0  1  0.93654200  0.99378100  0.81127600  1
  Sn  Sn1  1  0.06345800  0.49378100  0.18872400  1
  Sn  Sn2  1  0.93654200  0.49378100  0.68872400  1
  Sn  Sn3  1  0.06345800  0.99378100  0.31127600  1
  Sn  Sn4  1  0.43712800  0.85300300  0.88619100  1
  Sn  Sn5  1  0.56287200  0.35300300  0.11380900  1
  Sn  Sn6  1  0.43712800  0.35300300  0.61380900  1
  Sn  Sn7  1  0.56287200  0.85300300  0.38619100  1
  Sn  Sn8  1  0.93984500  0.75182100  0.99964100  1
  Sn  Sn9  1  0.06015500  0.25182100  0.00035900  1
  Sn  Sn10  1  0.93984500  0.25182100  0.50035900  1
  Sn  Sn11  1  0.06015500  0.75182100  0.49964100  1
  S  S0  1  0.74590200  0.48224100  0.92880600  1
  S  S1  1  0.25409800  0.98224100  0.07119400  1
  S  S2  1  0.74590200  0.98224100  0.57119400  1
  S  S3  1  0.25409800  0.48224100  0.42880600  1
  O  O0  1  0.26848000  0.93915100  0.78801100  1
  O  O1  1  0.73152000  0.43915100  0.21198900  1
  O  O2  1  0.26848000  0.43915100  0.71198900  1
  O  O3  1  0.73152000  0.93915100  0.28801100  1
  O  O4  1  0.25895600  0.72955500  0.93558100  1
  O  O5  1  0.74104400  0.22955500  0.06441900  1
  O  O6  1  0.25895600  0.22955500  0.56441900  1
  O  O7  1  0.74104400  0.72955500  0.43558100  1
  O  O8  1  0.77718700  0.83942400  0.87014700  1
  O  O9  1  0.22281300  0.33942400  0.12985300  1
  O  O10  1  0.77718700  0.33942400  0.62985300  1
  O  O11  1  0.22281300  0.83942400  0.37014700  1
  O  O12  1  0.76475500  0.41489400  0.83631000  1
  O  O13  1  0.23524500  0.91489400  0.16369000  1
  O  O14  1  0.76475500  0.91489400  0.66369000  1
  O  O15  1  0.23524500  0.41489400  0.33631000  1
  O  O16  1  0.52280700  0.45199000  0.98276100  1
  O  O17  1  0.47719300  0.95199000  0.01723900  1
  O  O18  1  0.52280700  0.95199000  0.51723900  1
  O  O19  1  0.47719300  0.45199000  0.48276100  1
  O  O20  1  0.93872900  0.45173300  0.99871800  1
  O  O21  1  0.06127100  0.95173300  0.00128200  1
  O  O22  1  0.93872900  0.95173300  0.50128200  1
  O  O23  1  0.06127100  0.45173300  0.49871800  1
  O  O24  1  0.74886500  0.59930800  0.90542800  1
  O  O25  1  0.25113500  0.09930800  0.09457200  1
  O  O26  1  0.74886500  0.09930800  0.59457200  1
  O  O27  1  0.25113500  0.59930800  0.40542800  1
loop_
_geom_bond_atom_site_label_1
_geom_bond_atom_site_label_2
_geom_bond_distance
_geom_bond_site_symmetry_2
O0 Sn4 1.945172 1_555
O0 Sn0 2.060235 1_455
O1 Sn5 1.945172 1_555
O1 Sn1 2.060235 1_655
O2 Sn6 1.945172 1_555
O2 Sn2 2.060235 1_455
O3 Sn7 1.945172 1_555
O3 Sn3 2.060235 1_655
O4 Sn4 1.943492 1_555
O4 Sn8 2.056225 1_455
O5 Sn5 1.943492 1_555
O5 Sn9 2.056225 1_655
O6 Sn6 1.943492 1_555
O6 Sn10 2.056225 1_455
O7 Sn7 1.943492 1_555
O7 Sn11 2.056225 1_655
O8 Sn4 1.989790 1_555
O8 Sn8 2.242068 1_555
O8 Sn0 2.242508 1_555
O9 Sn5 1.989790 1_555
O9 Sn9 2.242068 1_555
O9 Sn1 2.242508 1_555
O10 Sn6 1.989790 1_555
O10 Sn10 2.242068 1_555
O10 Sn2 2.242508 1_555
O11 Sn7 1.989790 1_555
O11 Sn11 2.242068 1_555
O11 Sn3 2.242508 1_555
O12 S0 1.488515 1_555
O12 Sn2 2.409832 1_555
O13 S1 1.488515 1_555
O13 Sn3 2.409832 1_555
O14 S2 1.488515 1_555
O14 Sn0 2.409832 1_555
O15 S3 1.488515 1_555
O15 Sn1 2.409832 1_555
O16 S0 1.525947 1_555
O16 Sn5 2.140358 1_556
O17 S1 1.525947 1_555
O17 Sn4 2.140358 1_554
O18 S2 1.525947 1_555
O18 Sn7 2.140358 1_555
O19 S3 1.525947 1_555
O19 Sn6 2.140358 1_555
O20 S0 1.503496 1_555
O20 Sn9 2.542143 1_656
O20 Sn1 2.688599 1_656
O21 S1 1.503496 1_555
O21 Sn8 2.542143 1_454
O21 Sn0 2.688599 1_454
O22 S2 1.503496 1_555
O22 Sn11 2.542143 1_655
O22 Sn3 2.688599 1_655
O23 S3 1.503496 1_555
O23 Sn10 2.542143 1_455
O23 Sn2 2.688599 1_455
O24 S0 1.464193 1_555
O24 Sn8 2.506398 1_555
O25 S1 1.464193 1_545
O25 Sn9 2.506398 1_555
O26 S2 1.464193 1_545
O26 Sn10 2.506398 1_555
O27 S3 1.464193 1_555
O27 Sn11 2.506398 1_555
