# generated using pymatgen
data_Fe5Co(PO4)6
_symmetry_space_group_name_H-M   'P 1'
_cell_length_a   8.36496950
_cell_length_b   8.36496950
_cell_length_c   8.36496906
_cell_angle_alpha   61.88263567
_cell_angle_beta   61.88263567
_cell_angle_gamma   61.88263802
_symmetry_Int_Tables_number   1
_chemical_formula_structural   Fe5Co(PO4)6
_chemical_formula_sum   'Fe5 Co1 P6 O24'
_cell_volume   431.32686325
_cell_formula_units_Z   1
loop_
 _symmetry_equiv_pos_site_id
 _symmetry_equiv_pos_as_xyz
  1  'x, y, z'
loop_
 _atom_site_type_symbol
 _atom_site_label
 _atom_site_symmetry_multiplicity
 _atom_site_fract_x
 _atom_site_fract_y
 _atom_site_fract_z
 _atom_site_occupancy
  Fe  Fe0  1  0.00153100  0.00153100  0.00153100  1
  Fe  Fe1  1  0.35323300  0.35323300  0.35323300  1
  Fe  Fe2  1  0.49905500  0.49905500  0.49905500  1
  Fe  Fe3  1  0.14526200  0.14526200  0.14526200  1
  Fe  Fe4  1  0.64591800  0.64591800  0.64591800  1
  Co  Co0  1  0.85999300  0.85999300  0.85999300  1
  P  P0  1  0.46175800  0.74986200  0.04372700  1
  P  P1  1  0.74986200  0.04372700  0.46175800  1
  P  P2  1  0.04372700  0.46175800  0.74986200  1
  P  P3  1  0.95006900  0.54885000  0.24559300  1
  P  P4  1  0.24559300  0.95006900  0.54885000  1
  P  P5  1  0.54885000  0.24559300  0.95006900  1
  O  O0  1  0.67369600  0.89271900  0.49831000  1
  O  O1  1  0.89271900  0.49831000  0.67369600  1
  O  O2  1  0.49831000  0.67369600  0.89271900  1
  O  O3  1  0.25591400  0.90574400  0.05657700  1
  O  O4  1  0.61914900  0.81653900  0.00749800  1
  O  O5  1  0.44015700  0.59555200  0.24941100  1
  O  O6  1  0.90574400  0.05657700  0.25591400  1
  O  O7  1  0.59555200  0.24941100  0.44015700  1
  O  O8  1  0.99280700  0.39213600  0.17471700  1
  O  O9  1  0.24941100  0.44015700  0.59555200  1
  O  O10  1  0.93733200  0.75252000  0.08682400  1
  O  O11  1  0.17471700  0.99280700  0.39213600  1
  O  O12  1  0.81653900  0.00749800  0.61914900  1
  O  O13  1  0.05657700  0.25591400  0.90574400  1
  O  O14  1  0.74769900  0.56522100  0.40113600  1
  O  O15  1  0.00749800  0.61914900  0.81653900  1
  O  O16  1  0.40113600  0.74769900  0.56522100  1
  O  O17  1  0.08682400  0.93733200  0.75252000  1
  O  O18  1  0.56522100  0.40113600  0.74769900  1
  O  O19  1  0.39213600  0.17471700  0.99280700  1
  O  O20  1  0.75252000  0.08682400  0.93733200  1
  O  O21  1  0.51182600  0.31406400  0.10759700  1
  O  O22  1  0.10759700  0.51182600  0.31406400  1
  O  O23  1  0.31406400  0.10759700  0.51182600  1
loop_
_geom_bond_atom_site_label_1
_geom_bond_atom_site_label_2
_geom_bond_distance
_geom_bond_site_symmetry_2
Fe0 O6 2.085842 1_455
Fe0 O13 2.085842 1_554
Fe0 O3 2.085842 1_545
Fe0 O17 2.104430 1_544
Fe0 O10 2.104430 1_445
Fe0 O20 2.104430 1_454
Fe1 O21 1.935150 1_555
Fe1 O23 1.935150 1_555
Fe1 O22 1.935150 1_555
Fe1 O9 2.127525 1_555
Fe1 O5 2.127525 1_555
Fe1 O7 2.127525 1_555
Fe2 O5 2.064276 1_555
Fe2 O9 2.064277 1_555
Fe2 O7 2.064277 1_555
Fe2 O18 2.086913 1_555
Fe2 O14 2.086913 1_555
Fe2 O16 2.086913 1_555
Fe3 O11 1.911226 1_545
Fe3 O19 1.911227 1_554
Fe3 O8 1.911227 1_455
Fe3 O13 2.104069 1_554
Fe3 O6 2.104069 1_455
Fe3 O3 2.104069 1_545
Fe4 O2 1.902555 1_555
Fe4 O0 1.902555 1_555
Fe4 O1 1.902555 1_555
Fe4 O14 2.119219 1_555
Fe4 O18 2.119219 1_555
Fe4 O16 2.119219 1_555
Co0 O12 1.907318 1_565
Co0 O4 1.907318 1_556
Co0 O15 1.907318 1_655
Co0 O10 1.956526 1_556
Co0 O17 1.956526 1_655
Co0 O20 1.956526 1_565
O0 P1 1.518537 1_565
O1 P2 1.518537 1_655
O2 P0 1.518537 1_556
O3 P0 1.586849 1_555
O4 P0 1.514276 1_555
O5 P0 1.578790 1_555
O6 P1 1.586848 1_555
O7 P1 1.578790 1_555
O8 P3 1.512891 1_555
O9 P2 1.578790 1_555
O10 P3 1.583461 1_555
O11 P4 1.512891 1_555
O12 P1 1.514276 1_555
O13 P2 1.586848 1_555
O14 P3 1.565469 1_555
O15 P2 1.514276 1_555
O16 P4 1.565469 1_555
O17 P4 1.583461 1_555
O18 P5 1.565469 1_555
O19 P5 1.512891 1_555
O20 P5 1.583461 1_555
O21 P5 1.523111 1_554
O22 P3 1.523111 1_455
O23 P4 1.523111 1_545
