# generated using pymatgen
data_Lu2TeO6
_symmetry_space_group_name_H-M   'P 1'
_cell_length_a   8.91675481
_cell_length_b   8.91676162
_cell_length_c   5.01541329
_cell_angle_alpha   89.99954505
_cell_angle_beta   90.00023007
_cell_angle_gamma   120.00009642
_symmetry_Int_Tables_number   1
_chemical_formula_structural   Lu2TeO6
_chemical_formula_sum   'Lu6 Te3 O18'
_cell_volume   345.34320665
_cell_formula_units_Z   3
loop_
 _symmetry_equiv_pos_site_id
 _symmetry_equiv_pos_as_xyz
  1  'x, y, z'
loop_
 _atom_site_type_symbol
 _atom_site_label
 _atom_site_symmetry_multiplicity
 _atom_site_fract_x
 _atom_site_fract_y
 _atom_site_fract_z
 _atom_site_occupancy
  Lu  Lu0  1  0.00000290  0.62279959  0.00000288  1
  Lu  Lu1  1  0.00001578  0.28637734  0.49999665  1
  Lu  Lu2  1  0.37718210  0.37718215  -0.00000039  1
  Lu  Lu3  1  0.28638862  0.00001612  0.50000335  1
  Lu  Lu4  1  0.71360500  0.71361638  0.50001115  1
  Lu  Lu5  1  0.62280712  0.00001055  -0.00000160  1
  Te  Te0  1  0.33333395  0.66667063  0.49928327  1
  Te  Te1  1  0.00001992  0.00001462  0.00000445  1
  Te  Te2  1  0.66667070  0.33334475  0.50070994  1
  O  O0  1  0.08272085  0.87902114  0.78586869  1
  O  O1  1  0.22440911  0.76308508  0.28124482  1
  O  O2  1  0.12979794  0.54375047  0.71643525  1
  O  O3  1  0.41396510  0.87020698  0.71643933  1
  O  O4  1  0.23692126  0.46132219  0.28123971  1
  O  O5  1  0.12098740  0.20369807  0.78585291  1
  O  O6  1  0.20369429  0.12097550  0.21415893  1
  O  O7  1  0.53867268  0.77559631  0.28125296  1
  O  O8  1  0.45621831  0.58601518  0.71644331  1
  O  O9  1  0.79629867  0.91728131  0.78586737  1
  O  O10  1  0.46132512  0.23692185  0.71876770  1
  O  O11  1  0.58601975  0.45622974  0.28356091  1
  O  O12  1  0.54375623  0.12980530  0.28356579  1
  O  O13  1  0.77559966  0.53867658  0.71874461  1
  O  O14  1  0.91727308  0.79629149  0.21411596  1
  O  O15  1  0.76308620  0.22441140  0.71874321  1
  O  O16  1  0.87020373  0.41395963  0.28355196  1
  O  O17  1  0.87902552  0.08272066  0.21413586  1
loop_
_geom_bond_atom_site_label_1
_geom_bond_atom_site_label_2
_geom_bond_distance
_geom_bond_site_symmetry_2
Lu0 O16 2.162028 1_455
Lu0 O2 2.162122 1_554
Lu0 O1 2.248391 1_555
Lu0 O13 2.248419 1_454
Lu0 O14 2.287301 1_455
Lu0 O0 2.287353 1_554
Lu1 O5 2.134880 1_555
Lu1 O17 2.134952 1_455
Lu1 O4 2.191858 1_555
Lu1 O15 2.192006 1_455
Lu1 O2 2.264627 1_555
Lu1 O16 2.264775 1_455
Lu2 O8 2.162012 1_554
Lu2 O11 2.162053 1_555
Lu2 O10 2.248329 1_554
Lu2 O4 2.248340 1_555
Lu2 O5 2.287199 1_554
Lu2 O6 2.287299 1_555
Lu3 O6 2.134846 1_555
Lu3 O0 2.135021 1_545
Lu3 O10 2.191868 1_555
Lu3 O1 2.192026 1_545
Lu3 O12 2.264580 1_555
Lu3 O3 2.264695 1_545
Lu4 O9 2.134968 1_555
Lu4 O14 2.135124 1_555
Lu4 O7 2.191871 1_555
Lu4 O13 2.191944 1_555
Lu4 O8 2.264695 1_555
Lu4 O11 2.264747 1_555
Lu5 O3 2.162083 1_544
Lu5 O12 2.162131 1_555
Lu5 O15 2.248390 1_554
Lu5 O7 2.248461 1_545
Lu5 O9 2.287335 1_544
Lu5 O17 2.287353 1_555
O0 Te1 1.912276 1_566
O1 Te0 1.926982 1_555
O2 Te0 1.921474 1_555
O3 Te0 1.921483 1_555
O4 Te0 1.927068 1_555
O5 Te1 1.912220 1_556
O6 Te1 1.912175 1_555
O7 Te0 1.926959 1_555
O8 Te0 1.921485 1_555
O9 Te1 1.912425 1_666
O10 Te2 1.927080 1_555
O11 Te2 1.921431 1_555
O12 Te2 1.921474 1_555
O13 Te2 1.926937 1_555
O14 Te1 1.912350 1_665
O15 Te2 1.927029 1_555
O16 Te2 1.921474 1_555
O17 Te1 1.912299 1_655
