# generated using pymatgen
data_Li3Bi(PO4)2
_symmetry_space_group_name_H-M   'P 1'
_cell_length_a   19.03047200
_cell_length_b   5.09676400
_cell_length_c   8.28281240
_cell_angle_alpha   52.99803327
_cell_angle_beta   90.00000000
_cell_angle_gamma   90.00000000
_symmetry_Int_Tables_number   1
_chemical_formula_structural   Li3Bi(PO4)2
_chemical_formula_sum   'Li12 Bi4 P8 O32'
_cell_volume   641.59252006
_cell_formula_units_Z   4
loop_
 _symmetry_equiv_pos_site_id
 _symmetry_equiv_pos_as_xyz
  1  'x, y, z'
loop_
 _atom_site_type_symbol
 _atom_site_label
 _atom_site_symmetry_multiplicity
 _atom_site_fract_x
 _atom_site_fract_y
 _atom_site_fract_z
 _atom_site_occupancy
  Li  Li0  1  0.70164000  0.37509200  0.82650400  1
  Li  Li1  1  0.87963600  0.73145900  0.49758600  1
  Li  Li2  1  0.04599600  0.95421100  0.31558600  1
  Li  Li3  1  0.37963600  0.26854100  0.00241400  1
  Li  Li4  1  0.54599600  0.04578900  0.18441400  1
  Li  Li5  1  0.20164000  0.62490800  0.67349600  1
  Li  Li6  1  0.79836000  0.37509200  0.32650400  1
  Li  Li7  1  0.45400400  0.95421100  0.81558600  1
  Li  Li8  1  0.62036400  0.73145900  0.99758600  1
  Li  Li9  1  0.95400400  0.04578900  0.68441400  1
  Li  Li10  1  0.12036400  0.26854100  0.50241400  1
  Li  Li11  1  0.29836000  0.62490800  0.17349600  1
  Bi  Bi0  1  0.87836500  0.18406800  0.01428600  1
  Bi  Bi1  1  0.37836500  0.81593200  0.48571400  1
  Bi  Bi2  1  0.62163500  0.18406800  0.51428600  1
  Bi  Bi3  1  0.12163500  0.81593200  0.98571400  1
  P  P0  1  0.71560500  0.90018400  0.28949700  1
  P  P1  1  0.53437900  0.46461200  0.74841800  1
  P  P2  1  0.03437900  0.53538800  0.75158200  1
  P  P3  1  0.21560500  0.09981600  0.21050300  1
  P  P4  1  0.78439500  0.90018400  0.78949700  1
  P  P5  1  0.96562100  0.46461200  0.24841800  1
  P  P6  1  0.46562100  0.53538800  0.25158200  1
  P  P7  1  0.28439500  0.09981600  0.71050300  1
  O  O0  1  0.20480900  0.80312600  0.20125500  1
  O  O1  1  0.68900100  0.58032900  0.49311300  1
  O  O2  1  0.44603600  0.86384100  0.22031500  1
  O  O3  1  0.67671700  0.96163100  0.10802600  1
  O  O4  1  0.05374700  0.23492500  0.97002000  1
  O  O5  1  0.07210700  0.53029300  0.59092400  1
  O  O6  1  0.79666000  0.84265600  0.28143500  1
  O  O7  1  0.45213500  0.45456100  0.77390300  1
  O  O8  1  0.95213500  0.54543900  0.72609700  1
  O  O9  1  0.29666000  0.15734400  0.21856500  1
  O  O10  1  0.57210700  0.46970700  0.90907600  1
  O  O11  1  0.55374700  0.76507500  0.52998000  1
  O  O12  1  0.17671700  0.03836900  0.39197400  1
  O  O13  1  0.94603600  0.13615900  0.27968500  1
  O  O14  1  0.18900100  0.41967100  0.00688700  1
  O  O15  1  0.70480900  0.19687400  0.29874500  1
  O  O16  1  0.29519100  0.80312600  0.70125500  1
  O  O17  1  0.81099900  0.58032900  0.99311300  1
  O  O18  1  0.05396400  0.86384100  0.72031500  1
  O  O19  1  0.82328300  0.96163100  0.60802600  1
  O  O20  1  0.44625300  0.23492500  0.47002000  1
  O  O21  1  0.42789300  0.53029300  0.09092400  1
  O  O22  1  0.70334000  0.84265600  0.78143500  1
  O  O23  1  0.04786500  0.45456100  0.27390300  1
  O  O24  1  0.54786500  0.54543900  0.22609700  1
  O  O25  1  0.20334000  0.15734400  0.71856500  1
  O  O26  1  0.92789300  0.46970700  0.40907600  1
  O  O27  1  0.94625300  0.76507500  0.02998000  1
  O  O28  1  0.32328300  0.03836900  0.89197400  1
  O  O29  1  0.55396400  0.13615900  0.77968500  1
  O  O30  1  0.31099900  0.41967100  0.50688700  1
  O  O31  1  0.79519100  0.19687400  0.79874500  1
loop_
_geom_bond_atom_site_label_1
_geom_bond_atom_site_label_2
_geom_bond_distance
_geom_bond_site_symmetry_2
Li0 O3 2.046533 1_546
Li0 O31 2.073369 1_555
Li0 O22 2.179128 1_555
Li0 O1 2.302294 1_555
Li1 O8 2.055435 1_555
Li1 O26 2.082754 1_555
Li1 O13 2.151211 1_565
Li1 O19 2.157502 1_555
Li1 O6 2.190581 1_555
Li2 O5 2.045750 1_555
Li2 O13 2.057951 1_465
Li2 O4 2.309120 1_564
Li2 O23 2.358818 1_565
Li3 O7 2.055435 1_554
Li3 O21 2.082754 1_555
Li3 O2 2.151211 1_545
Li3 O28 2.157502 1_554
Li3 O9 2.190581 1_555
Li4 O10 2.045750 1_554
Li4 O2 2.057951 1_545
Li4 O11 2.309120 1_545
Li4 O24 2.358818 1_545
Li5 O12 2.046533 1_565
Li5 O16 2.073369 1_555
Li5 O25 2.179128 1_555
Li5 O14 2.302294 1_556
Li6 O19 2.046533 1_545
Li6 O15 2.073369 1_555
Li6 O6 2.179128 1_555
Li6 O17 2.302294 1_554
Li7 O21 2.045750 1_556
Li7 O29 2.057951 1_565
Li7 O20 2.309120 1_565
Li7 O7 2.358818 1_565
Li8 O24 2.055435 1_556
Li8 O10 2.082754 1_555
Li8 O29 2.151211 1_565
Li8 O3 2.157502 1_556
Li8 O22 2.190581 1_555
Li9 O26 2.045750 1_555
Li9 O18 2.057951 1_645
Li9 O27 2.309120 1_546
Li9 O8 2.358818 1_545
Li10 O23 2.055435 1_555
Li10 O5 2.082754 1_555
Li10 O18 2.151211 1_545
Li10 O12 2.157502 1_555
Li10 O25 2.190581 1_555
Li11 O28 2.046533 1_564
Li11 O0 2.073369 1_555
Li11 O9 2.179128 1_555
Li11 O30 2.302294 1_555
Bi0 O17 2.308018 1_554
Bi0 O31 2.357251 1_554
Bi0 O6 2.388972 1_545
Bi0 O8 2.401890 1_554
Bi0 O13 2.429873 1_555
Bi0 O27 2.431515 1_545
Bi1 O30 2.308018 1_555
Bi1 O16 2.357251 1_555
Bi1 O9 2.388972 1_565
Bi1 O7 2.401890 1_555
Bi1 O2 2.429873 1_555
Bi1 O20 2.431515 1_565
Bi2 O1 2.308018 1_555
Bi2 O15 2.357251 1_555
Bi2 O22 2.388972 1_545
Bi2 O24 2.401890 1_555
Bi2 O29 2.429873 1_555
Bi2 O11 2.431515 1_545
Bi3 O14 2.308018 1_556
Bi3 O0 2.357251 1_556
Bi3 O25 2.388972 1_565
Bi3 O23 2.401890 1_556
Bi3 O18 2.429873 1_555
Bi3 O4 2.431515 1_565
O0 P3 1.572936 1_565
O1 P0 1.564890 1_555
O2 P6 1.576886 1_555
O3 P0 1.529191 1_555
O4 P2 1.555454 1_555
O5 P2 1.525952 1_555
O6 P0 1.579034 1_555
O7 P1 1.576019 1_555
O8 P2 1.576019 1_655
O9 P3 1.579034 1_555
O10 P1 1.525952 1_555
O11 P1 1.555454 1_555
O12 P3 1.529191 1_555
O13 P5 1.576886 1_555
O14 P3 1.564890 1_555
O15 P0 1.572936 1_545
O16 P7 1.572936 1_565
O17 P4 1.564890 1_555
O18 P2 1.576886 1_555
O19 P4 1.529191 1_555
O20 P6 1.555454 1_555
O21 P6 1.525952 1_555
O22 P4 1.579034 1_555
O23 P5 1.576019 1_455
O24 P6 1.576019 1_555
O25 P7 1.579034 1_555
O26 P5 1.525952 1_555
O27 P5 1.555454 1_555
O28 P7 1.529191 1_555
O29 P1 1.576886 1_555
O30 P7 1.564890 1_555
O31 P4 1.572936 1_545
