# generated using pymatgen
data_LiMnF3
_symmetry_space_group_name_H-M   'P 1'
_cell_length_a   5.73988600
_cell_length_b   9.31454500
_cell_length_c   19.71680000
_cell_angle_alpha   90.00000000
_cell_angle_beta   90.00000000
_cell_angle_gamma   90.00000000
_symmetry_Int_Tables_number   1
_chemical_formula_structural   LiMnF3
_chemical_formula_sum   'Li16 Mn16 F48'
_cell_volume   1054.14740327
_cell_formula_units_Z   16
loop_
 _symmetry_equiv_pos_site_id
 _symmetry_equiv_pos_as_xyz
  1  'x, y, z'
loop_
 _atom_site_type_symbol
 _atom_site_label
 _atom_site_symmetry_multiplicity
 _atom_site_fract_x
 _atom_site_fract_y
 _atom_site_fract_z
 _atom_site_occupancy
  Li  Li0  1  0.33132900  0.66677300  0.03113000  1
  Li  Li1  1  0.83132900  0.83322700  0.03113000  1
  Li  Li2  1  0.54470200  0.66482600  0.22688400  1
  Li  Li3  1  0.04470200  0.83517400  0.22688400  1
  Li  Li4  1  0.54470200  0.16482600  0.27311600  1
  Li  Li5  1  0.04470200  0.33517400  0.27311600  1
  Li  Li6  1  0.33132900  0.16677300  0.46887000  1
  Li  Li7  1  0.83132900  0.33322700  0.46887000  1
  Li  Li8  1  0.16867100  0.66677300  0.53113000  1
  Li  Li9  1  0.66867100  0.83322700  0.53113000  1
  Li  Li10  1  0.95529800  0.66482600  0.72688400  1
  Li  Li11  1  0.45529800  0.83517400  0.72688400  1
  Li  Li12  1  0.95529800  0.16482600  0.77311600  1
  Li  Li13  1  0.45529800  0.33517400  0.77311600  1
  Li  Li14  1  0.16867100  0.16677300  0.96887000  1
  Li  Li15  1  0.66867100  0.33322700  0.96887000  1
  Mn  Mn0  1  0.33786700  0.96261700  0.12050400  1
  Mn  Mn1  1  0.83786700  0.53738300  0.12050400  1
  Mn  Mn2  1  0.34251800  0.34457700  0.12177400  1
  Mn  Mn3  1  0.84251800  0.15542300  0.12177400  1
  Mn  Mn4  1  0.84251800  0.65542300  0.37822600  1
  Mn  Mn5  1  0.34251800  0.84457700  0.37822600  1
  Mn  Mn6  1  0.83786700  0.03738300  0.37949600  1
  Mn  Mn7  1  0.33786700  0.46261700  0.37949600  1
  Mn  Mn8  1  0.66213300  0.53738300  0.62050400  1
  Mn  Mn9  1  0.16213300  0.96261700  0.62050400  1
  Mn  Mn10  1  0.65748200  0.15542300  0.62177400  1
  Mn  Mn11  1  0.15748200  0.34457700  0.62177400  1
  Mn  Mn12  1  0.65748200  0.65542300  0.87822600  1
  Mn  Mn13  1  0.15748200  0.84457700  0.87822600  1
  Mn  Mn14  1  0.66213300  0.03738300  0.87949600  1
  Mn  Mn15  1  0.16213300  0.46261700  0.87949600  1
  F  F0  1  0.65533800  0.66587700  0.05156800  1
  F  F1  1  0.15533800  0.83412300  0.05156800  1
  F  F2  1  0.18105400  0.16472700  0.06795700  1
  F  F3  1  0.68105400  0.33527300  0.06795700  1
  F  F4  1  0.16453400  0.51377100  0.07234300  1
  F  F5  1  0.66453400  0.98622900  0.07234300  1
  F  F6  1  0.50999200  0.15909000  0.17502400  1
  F  F7  1  0.00999200  0.34091000  0.17502400  1
  F  F8  1  0.03245500  0.01468400  0.18040900  1
  F  F9  1  0.53245500  0.48531600  0.18040900  1
  F  F10  1  0.35296400  0.80594900  0.19408400  1
  F  F11  1  0.85296400  0.69405100  0.19408400  1
  F  F12  1  0.85296400  0.19405100  0.30591600  1
  F  F13  1  0.35296400  0.30594900  0.30591600  1
  F  F14  1  0.03245500  0.51468400  0.31959100  1
  F  F15  1  0.53245500  0.98531600  0.31959100  1
  F  F16  1  0.50999200  0.65909000  0.32497600  1
  F  F17  1  0.00999200  0.84091000  0.32497600  1
  F  F18  1  0.16453400  0.01377100  0.42765700  1
  F  F19  1  0.66453400  0.48622900  0.42765700  1
  F  F20  1  0.18105400  0.66472700  0.43204300  1
  F  F21  1  0.68105400  0.83527300  0.43204300  1
  F  F22  1  0.65533800  0.16587700  0.44843200  1
  F  F23  1  0.15533800  0.33412300  0.44843200  1
  F  F24  1  0.84466200  0.66587700  0.55156800  1
  F  F25  1  0.34466200  0.83412300  0.55156800  1
  F  F26  1  0.31894600  0.16472700  0.56795700  1
  F  F27  1  0.81894600  0.33527300  0.56795700  1
  F  F28  1  0.33546600  0.51377100  0.57234300  1
  F  F29  1  0.83546600  0.98622900  0.57234300  1
  F  F30  1  0.99000800  0.15909000  0.67502400  1
  F  F31  1  0.49000800  0.34091000  0.67502400  1
  F  F32  1  0.46754500  0.01468400  0.68040900  1
  F  F33  1  0.96754500  0.48531600  0.68040900  1
  F  F34  1  0.64703600  0.69405100  0.69408400  1
  F  F35  1  0.14703600  0.80594900  0.69408400  1
  F  F36  1  0.64703600  0.19405100  0.80591600  1
  F  F37  1  0.14703600  0.30594900  0.80591600  1
  F  F38  1  0.46754500  0.51468400  0.81959100  1
  F  F39  1  0.96754500  0.98531600  0.81959100  1
  F  F40  1  0.99000800  0.65909000  0.82497600  1
  F  F41  1  0.49000800  0.84091000  0.82497600  1
  F  F42  1  0.33546600  0.01377100  0.92765700  1
  F  F43  1  0.83546600  0.48622900  0.92765700  1
  F  F44  1  0.31894600  0.66472700  0.93204300  1
  F  F45  1  0.81894600  0.83527300  0.93204300  1
  F  F46  1  0.84466200  0.16587700  0.94843200  1
  F  F47  1  0.34466200  0.33412300  0.94843200  1
loop_
_geom_bond_atom_site_label_1
_geom_bond_atom_site_label_2
_geom_bond_distance
_geom_bond_site_symmetry_2
F0 Li1 1.900697 1_555
F0 Li0 1.902950 1_555
F0 Mn1 2.092263 1_555
F1 Li0 1.900697 1_555
F1 Li1 1.902950 1_455
F1 Mn0 2.092263 1_555
F2 Li14 1.955064 1_554
F2 Mn2 2.188887 1_555
F2 Mn3 2.215695 1_455
F2 Mn0 2.329725 1_545
F3 Li15 1.955064 1_554
F3 Mn3 2.188887 1_555
F3 Mn2 2.215695 1_555
F3 Mn1 2.329725 1_555
F4 Li0 1.899453 1_555
F4 Mn1 2.113248 1_455
F4 Mn2 2.115948 1_555
F5 Li1 1.899453 1_555
F5 Mn0 2.113248 1_555
F5 Mn3 2.115948 1_565
F6 Li4 1.945029 1_555
F6 Mn3 2.178643 1_555
F6 Mn2 2.238623 1_555
F6 Mn0 2.341099 1_545
F7 Li5 1.945029 1_555
F7 Mn2 2.178643 1_555
F7 Mn3 2.238623 1_455
F7 Mn1 2.341099 1_455
F8 Li3 1.907978 1_545
F8 Mn3 2.060009 1_455
F8 Mn0 2.168732 1_545
F9 Li2 1.907978 1_555
F9 Mn2 2.060009 1_555
F9 Mn1 2.168732 1_555
F10 Li2 1.832309 1_555
F10 Li3 1.903437 1_555
F10 Mn0 2.059551 1_555
F11 Li3 1.832309 1_655
F11 Li2 1.903437 1_555
F11 Mn1 2.059551 1_555
F12 Li5 1.832309 1_655
F12 Li4 1.903437 1_555
F12 Mn6 2.059551 1_555
F13 Li4 1.832309 1_555
F13 Li5 1.903437 1_555
F13 Mn7 2.059551 1_555
F14 Li5 1.907978 1_555
F14 Mn4 2.060009 1_455
F14 Mn7 2.168732 1_555
F15 Li4 1.907978 1_565
F15 Mn5 2.060009 1_555
F15 Mn6 2.168732 1_565
F16 Li2 1.945029 1_555
F16 Mn4 2.178643 1_555
F16 Mn5 2.238623 1_555
F16 Mn7 2.341099 1_555
F17 Li3 1.945029 1_555
F17 Mn5 2.178643 1_555
F17 Mn4 2.238623 1_455
F17 Mn6 2.341099 1_465
F18 Li6 1.899453 1_555
F18 Mn6 2.113248 1_455
F18 Mn5 2.115948 1_545
F19 Li7 1.899453 1_555
F19 Mn7 2.113248 1_555
F19 Mn4 2.115948 1_555
F20 Li8 1.955064 1_555
F20 Mn5 2.188887 1_555
F20 Mn4 2.215695 1_455
F20 Mn7 2.329725 1_555
F21 Li9 1.955064 1_555
F21 Mn4 2.188887 1_555
F21 Mn5 2.215695 1_555
F21 Mn6 2.329725 1_565
F22 Li7 1.900697 1_555
F22 Li6 1.902950 1_555
F22 Mn6 2.092263 1_555
F23 Li6 1.900697 1_555
F23 Li7 1.902950 1_455
F23 Mn7 2.092263 1_555
F24 Li9 1.900697 1_555
F24 Li8 1.902950 1_655
F24 Mn8 2.092263 1_555
F25 Li8 1.900697 1_555
F25 Li9 1.902950 1_555
F25 Mn9 2.092263 1_555
F26 Li6 1.955064 1_555
F26 Mn11 2.188887 1_555
F26 Mn10 2.215695 1_555
F26 Mn9 2.329725 1_545
F27 Li7 1.955064 1_555
F27 Mn10 2.188887 1_555
F27 Mn11 2.215695 1_655
F27 Mn8 2.329725 1_555
F28 Li8 1.899453 1_555
F28 Mn8 2.113248 1_555
F28 Mn11 2.115948 1_555
F29 Li9 1.899453 1_555
F29 Mn9 2.113248 1_655
F29 Mn10 2.115948 1_565
F30 Li12 1.945029 1_555
F30 Mn10 2.178643 1_555
F30 Mn11 2.238623 1_655
F30 Mn9 2.341099 1_645
F31 Li13 1.945029 1_555
F31 Mn11 2.178643 1_555
F31 Mn10 2.238623 1_555
F31 Mn8 2.341099 1_555
F32 Li11 1.907978 1_545
F32 Mn10 2.060009 1_555
F32 Mn9 2.168732 1_545
F33 Li10 1.907978 1_555
F33 Mn11 2.060009 1_655
F33 Mn8 2.168732 1_555
F34 Li11 1.832309 1_555
F34 Li10 1.903437 1_555
F34 Mn8 2.059551 1_555
F35 Li10 1.832309 1_455
F35 Li11 1.903437 1_555
F35 Mn9 2.059551 1_555
F36 Li13 1.832309 1_555
F36 Li12 1.903437 1_555
F36 Mn14 2.059551 1_555
F37 Li12 1.832309 1_455
F37 Li13 1.903437 1_555
F37 Mn15 2.059551 1_555
F38 Li13 1.907978 1_555
F38 Mn12 2.060009 1_555
F38 Mn15 2.168732 1_555
F39 Li12 1.907978 1_565
F39 Mn13 2.060009 1_655
F39 Mn14 2.168732 1_565
F40 Li10 1.945029 1_555
F40 Mn12 2.178643 1_555
F40 Mn13 2.238623 1_655
F40 Mn15 2.341099 1_655
F41 Li11 1.945029 1_555
F41 Mn13 2.178643 1_555
F41 Mn12 2.238623 1_555
F41 Mn14 2.341099 1_565
F42 Li14 1.899453 1_555
F42 Mn14 2.113248 1_555
F42 Mn13 2.115948 1_545
F43 Li15 1.899453 1_555
F43 Mn15 2.113248 1_655
F43 Mn12 2.115948 1_555
F44 Li0 1.955064 1_556
F44 Mn13 2.188887 1_555
F44 Mn12 2.215695 1_555
F44 Mn15 2.329725 1_555
F45 Li1 1.955064 1_556
F45 Mn12 2.188887 1_555
F45 Mn13 2.215695 1_655
F45 Mn14 2.329725 1_565
F46 Li15 1.900697 1_555
F46 Li14 1.902950 1_655
F46 Mn14 2.092263 1_555
F47 Li14 1.900697 1_555
F47 Li15 1.902950 1_555
F47 Mn15 2.092263 1_555
