# generated using pymatgen
data_Ca6Pr6Mn11CrO36
_symmetry_space_group_name_H-M   'P 1'
_cell_length_a   5.45463100
_cell_length_b   5.50315600
_cell_length_c   23.11845526
_cell_angle_alpha   90.00855775
_cell_angle_beta   90.00041636
_cell_angle_gamma   90.00170748
_symmetry_Int_Tables_number   1
_chemical_formula_structural   Ca6Pr6Mn11CrO36
_chemical_formula_sum   'Ca6 Pr6 Mn11 Cr1 O36'
_cell_volume   693.96250717
_cell_formula_units_Z   1
loop_
 _symmetry_equiv_pos_site_id
 _symmetry_equiv_pos_as_xyz
  1  'x, y, z'
loop_
 _atom_site_type_symbol
 _atom_site_label
 _atom_site_symmetry_multiplicity
 _atom_site_fract_x
 _atom_site_fract_y
 _atom_site_fract_z
 _atom_site_occupancy
  Ca  Ca0  1  0.50933700  0.45791500  0.08329900  1
  Ca  Ca1  1  0.50948000  0.45809400  0.41656100  1
  Ca  Ca2  1  0.50853100  0.45738900  0.75014600  1
  Ca  Ca3  1  0.00873000  0.04201800  0.24994300  1
  Ca  Ca4  1  0.00938000  0.04165800  0.91680300  1
  Ca  Ca5  1  0.00991700  0.04324700  0.58333000  1
  Pr  Pr0  1  0.99186900  0.96379400  0.08338700  1
  Pr  Pr1  1  0.99158000  0.96410600  0.41660900  1
  Pr  Pr2  1  0.99053800  0.96199000  0.74996400  1
  Pr  Pr3  1  0.49197900  0.53696500  0.58331300  1
  Pr  Pr4  1  0.49102700  0.53631500  0.24994000  1
  Pr  Pr5  1  0.49165200  0.53595900  0.91672500  1
  Mn  Mn0  1  0.50049300  0.00077600  0.99993200  1
  Mn  Mn1  1  0.49965700  0.00098000  0.16679800  1
  Mn  Mn2  1  0.49904700  0.00117600  0.33310800  1
  Mn  Mn3  1  0.50008000  0.00129400  0.50009000  1
  Mn  Mn4  1  0.49949500  0.00081100  0.66653000  1
  Mn  Mn5  1  0.49917300  0.00068100  0.83352800  1
  Mn  Mn6  1  0.99947300  0.49907500  0.16653200  1
  Mn  Mn7  1  0.00001900  0.49961100  0.49990900  1
  Mn  Mn8  1  0.00072000  0.49921300  0.00024100  1
  Mn  Mn9  1  0.99954900  0.49837000  0.83312700  1
  Mn  Mn10  1  0.99871100  0.49903300  0.33337800  1
  Cr  Cr0  1  0.99953900  0.49892100  0.66685800  1
  O  O0  1  0.57842600  0.98432700  0.24969600  1
  O  O1  1  0.57808500  0.98428800  0.91701300  1
  O  O2  1  0.57990500  0.98402500  0.58363500  1
  O  O3  1  0.21708800  0.79112800  0.65210800  1
  O  O4  1  0.21608900  0.78418800  0.98624300  1
  O  O5  1  0.21546400  0.78426200  0.31923200  1
  O  O6  1  0.21552100  0.78446500  0.18059200  1
  O  O7  1  0.21532200  0.78451400  0.51385800  1
  O  O8  1  0.21574500  0.78395000  0.84760200  1
  O  O9  1  0.71603800  0.71577700  0.01399700  1
  O  O10  1  0.71529100  0.71563800  0.15269900  1
  O  O11  1  0.71583600  0.71614600  0.48581900  1
  O  O12  1  0.71543200  0.71576700  0.34709700  1
  O  O13  1  0.70756100  0.71716900  0.68127000  1
  O  O14  1  0.71558700  0.71503600  0.81962400  1
  O  O15  1  0.08102200  0.51705100  0.75112100  1
  O  O16  1  0.07834200  0.51597400  0.08313800  1
  O  O17  1  0.07883200  0.51674700  0.41730200  1
  O  O18  1  0.92433300  0.48184600  0.58221000  1
  O  O19  1  0.92705100  0.48333700  0.25018300  1
  O  O20  1  0.92728700  0.48283300  0.91609800  1
  O  O21  1  0.28108600  0.28207400  0.32033100  1
  O  O22  1  0.28130900  0.28222700  0.51268000  1
  O  O23  1  0.28960500  0.28036400  0.65293300  1
  O  O24  1  0.28132100  0.28181300  0.17958900  1
  O  O25  1  0.28171700  0.28175800  0.98729200  1
  O  O26  1  0.28145300  0.28174800  0.84645400  1
  O  O27  1  0.78141500  0.21782100  0.15373200  1
  O  O28  1  0.78167700  0.21811100  0.01302100  1
  O  O29  1  0.78144900  0.21805500  0.34611600  1
  O  O30  1  0.78168800  0.21825500  0.48675400  1
  O  O31  1  0.78171500  0.21777800  0.82059100  1
  O  O32  1  0.78038400  0.21057800  0.68028800  1
  O  O33  1  0.42774100  0.01691400  0.41632100  1
  O  O34  1  0.42734800  0.01699200  0.08361700  1
  O  O35  1  0.42585800  0.01765100  0.74969300  1
loop_
_geom_bond_atom_site_label_1
_geom_bond_atom_site_label_2
_geom_bond_distance
_geom_bond_site_symmetry_2
Ca0 O16 2.372544 1_555
Ca0 O10 2.418046 1_555
Ca0 O9 2.419180 1_555
Ca0 O34 2.467336 1_555
Ca0 O28 2.566618 1_555
Ca0 O27 2.569118 1_555
Ca0 O25 2.721558 1_554
Ca0 O24 2.728023 1_555
Ca1 O17 2.371170 1_555
Ca1 O11 2.417952 1_555
Ca1 O12 2.419153 1_555
Ca1 O33 2.468474 1_555
Ca1 O30 2.565293 1_555
Ca1 O29 2.568558 1_555
Ca1 O22 2.724725 1_555
Ca1 O21 2.727421 1_555
Ca2 O15 2.355022 1_555
Ca2 O13 2.399675 1_555
Ca2 O14 2.421795 1_555
Ca2 O35 2.461613 1_555
Ca2 O31 2.571419 1_555
Ca2 O32 2.579038 1_555
Ca2 O23 2.724920 1_555
Ca2 O26 2.725133 1_555
Ca3 O0 2.368521 1_445
Ca3 O5 2.418752 1_545
Ca3 O6 2.418922 1_545
Ca3 O19 2.469193 1_455
Ca3 O24 2.568701 1_555
Ca3 O21 2.568932 1_555
Ca3 O29 2.723652 1_455
Ca3 O27 2.724218 1_455
Ca4 O1 2.373641 1_445
Ca4 O8 2.416042 1_545
Ca4 O4 2.420080 1_545
Ca4 O20 2.468873 1_455
Ca4 O26 2.567829 1_555
Ca4 O25 2.570476 1_555
Ca4 O31 2.725726 1_455
Ca4 O28 2.726364 1_456
Ca5 O2 2.368092 1_445
Ca5 O3 2.393944 1_545
Ca5 O7 2.421076 1_545
Ca5 O18 2.458563 1_455
Ca5 O22 2.566965 1_555
Ca5 O23 2.572673 1_555
Ca5 O32 2.727529 1_455
Ca5 O30 2.731833 1_455
Mn0 O1 1.965211 1_545
Mn0 O28 1.968306 1_556
Mn0 O25 1.975020 1_555
Mn0 O34 1.977385 1_556
Mn0 O4 1.981711 1_545
Mn0 O9 1.986998 1_546
Mn1 O34 1.965035 1_555
Mn1 O0 1.966194 1_545
Mn1 O27 1.969075 1_555
Mn1 O24 1.973382 1_555
Mn1 O6 1.980776 1_545
Mn1 O10 1.988830 1_545
Mn2 O33 1.964582 1_555
Mn2 O29 1.971681 1_555
Mn2 O21 1.972446 1_555
Mn2 O0 1.978533 1_545
Mn2 O5 1.979985 1_545
Mn2 O12 1.991205 1_545
Mn3 O30 1.969805 1_555
Mn3 O22 1.974556 1_555
Mn3 O33 1.978278 1_555
Mn3 O2 1.982193 1_545
Mn3 O7 1.984211 1_545
Mn3 O11 1.989036 1_545
Mn4 O23 1.943331 1_555
Mn4 O32 1.944481 1_555
Mn4 O3 1.953299 1_545
Mn4 O13 1.959827 1_545
Mn4 O35 1.966284 1_555
Mn4 O2 1.968115 1_545
Mn5 O31 1.972812 1_555
Mn5 O26 1.972835 1_555
Mn5 O8 1.979526 1_545
Mn5 O1 1.979527 1_545
Mn5 O35 1.981177 1_555
Mn5 O14 1.991932 1_545
Mn6 O24 1.970883 1_655
Mn6 O27 1.974256 1_555
Mn6 O19 1.975731 1_555
Mn6 O16 1.977559 1_655
Mn6 O10 1.981328 1_555
Mn6 O6 1.990169 1_655
Mn7 O18 1.949415 1_455
Mn7 O17 1.959821 1_555
Mn7 O22 1.967914 1_555
Mn7 O30 1.976838 1_455
Mn7 O11 1.982208 1_455
Mn7 O7 1.985231 1_555
Mn8 O16 1.964813 1_555
Mn8 O25 1.967477 1_554
Mn8 O28 1.976845 1_455
Mn8 O9 1.983126 1_455
Mn8 O4 1.986020 1_554
Mn8 O20 1.988095 1_454
Mn9 O15 1.949971 1_655
Mn9 O20 1.960121 1_555
Mn9 O31 1.969758 1_555
Mn9 O26 1.969954 1_655
Mn9 O14 1.979513 1_555
Mn9 O8 1.993059 1_655
Mn10 O19 1.964541 1_555
Mn10 O29 1.970308 1_555
Mn10 O21 1.972030 1_655
Mn10 O12 1.977566 1_555
Mn10 O17 1.991175 1_655
Mn10 O5 1.992155 1_655
Cr0 O15 2.000562 1_655
Cr0 O18 2.001655 1_555
Cr0 O32 2.010812 1_555
Cr0 O23 2.013361 1_655
Cr0 O13 2.022379 1_555
Cr0 O3 2.027395 1_655
O0 Pr4 2.511141 1_555
O1 Pr5 2.511860 1_555
O2 Pr3 2.506548 1_555
O3 Pr3 2.594922 1_555
O3 Pr2 2.743826 1_455
O4 Pr5 2.589941 1_555
O4 Pr0 2.741516 1_456
O5 Pr4 2.585884 1_555
O5 Pr1 2.745586 1_455
O6 Pr4 2.587334 1_555
O6 Pr0 2.740969 1_455
O7 Pr3 2.590776 1_555
O7 Pr1 2.742543 1_455
O8 Pr5 2.584924 1_555
O8 Pr2 2.750421 1_455
O9 Pr0 2.588279 1_555
O9 Pr5 2.744723 1_554
O10 Pr0 2.590203 1_555
O10 Pr4 2.743115 1_555
O11 Pr1 2.585527 1_555
O11 Pr3 2.746642 1_555
O12 Pr1 2.591967 1_555
O12 Pr4 2.741866 1_555
O13 Pr2 2.592093 1_555
O13 Pr3 2.737506 1_555
O14 Pr2 2.586557 1_555
O14 Pr5 2.739174 1_555
O15 Pr2 2.497978 1_455
O16 Pr0 2.509175 1_455
O17 Pr1 2.507535 1_455
O18 Pr3 2.377904 1_555
O19 Pr4 2.396168 1_555
O20 Pr5 2.394198 1_555
O21 Pr4 2.432642 1_555
O22 Pr3 2.439539 1_555
O23 Pr3 2.409094 1_555
O24 Pr4 2.431956 1_555
O25 Pr5 2.435224 1_555
O26 Pr5 2.431065 1_555
O27 Pr0 2.432333 1_545
O28 Pr0 2.433169 1_545
O29 Pr1 2.433813 1_545
O30 Pr1 2.428183 1_545
O31 Pr2 2.438098 1_545
O32 Pr2 2.404353 1_545
O33 Pr1 2.396782 1_445
O34 Pr0 2.393347 1_445
O35 Pr2 2.394185 1_445
