# generated using pymatgen
data_LiMn2(BO3)2
_symmetry_space_group_name_H-M   'P 1'
_cell_length_a   5.79127300
_cell_length_b   9.16134560
_cell_length_c   12.45248185
_cell_angle_alpha   104.79112742
_cell_angle_beta   88.06312988
_cell_angle_gamma   103.95542637
_symmetry_Int_Tables_number   1
_chemical_formula_structural   LiMn2(BO3)2
_chemical_formula_sum   'Li5 Mn10 B10 O30'
_cell_volume   619.65800341
_cell_formula_units_Z   5
loop_
 _symmetry_equiv_pos_site_id
 _symmetry_equiv_pos_as_xyz
  1  'x, y, z'
loop_
 _atom_site_type_symbol
 _atom_site_label
 _atom_site_symmetry_multiplicity
 _atom_site_fract_x
 _atom_site_fract_y
 _atom_site_fract_z
 _atom_site_occupancy
  Li  Li0  1  0.03588500  0.66199300  0.70830600  1
  Li  Li1  1  0.16871200  0.94446900  0.50011800  1
  Li  Li2  1  0.76548900  0.74558100  0.09793900  1
  Li  Li3  1  0.55790000  0.14397800  0.89855400  1
  Li  Li4  1  0.96252600  0.34311400  0.29708700  1
  Mn  Mn0  1  0.16671800  0.56241000  0.91332500  1
  Mn  Mn1  1  0.24748300  0.62203700  0.49700800  1
  Mn  Mn2  1  0.03354500  0.02794000  0.28980300  1
  Mn  Mn3  1  0.56052400  0.76726000  0.31435400  1
  Mn  Mn4  1  0.35419800  0.16738800  0.10926800  1
  Mn  Mn5  1  0.63029600  0.82326600  0.88563000  1
  Mn  Mn6  1  0.44196100  0.25567700  0.69633400  1
  Mn  Mn7  1  0.96195800  0.99413000  0.71494000  1
  Mn  Mn8  1  0.74839300  0.36692000  0.50648400  1
  Mn  Mn9  1  0.84200700  0.42802900  0.09536700  1
  B  B0  1  0.03921400  0.68517100  0.29134500  1
  B  B1  1  0.16188900  0.90657700  0.90407600  1
  B  B2  1  0.43234500  0.90030100  0.69036800  1
  B  B3  1  0.22692700  0.27784300  0.48446500  1
  B  B4  1  0.37209100  0.51149600  0.11048600  1
  B  B5  1  0.64026800  0.48476000  0.89574600  1
  B  B6  1  0.77528300  0.71258800  0.51735700  1
  B  B7  1  0.56383600  0.10898700  0.30594900  1
  B  B8  1  0.83255800  0.08173900  0.08569600  1
  B  B9  1  0.96250100  0.32773900  0.71124300  1
  O  O0  1  0.02037400  0.48245600  0.75494200  1
  O  O1  1  0.20477300  0.74915800  0.38124900  1
  O  O2  1  0.99763300  0.14906800  0.17637300  1
  O  O3  1  0.33069700  0.00314900  0.65611300  1
  O  O4  1  0.12492500  0.37981000  0.44672300  1
  O  O5  1  0.28846900  0.80146000  0.92059600  1
  O  O6  1  0.10063800  0.23092400  0.73176900  1
  O  O7  1  0.16626600  0.44578300  0.04107200  1
  O  O8  1  0.35516200  0.74187800  0.65021400  1
  O  O9  1  0.15957900  0.12002000  0.44346400  1
  O  O10  1  0.45102100  0.66610600  0.15106000  1
  O  O11  1  0.23719200  0.06099600  0.94580600  1
  O  O12  1  0.60574100  0.95860200  0.77802100  1
  O  O13  1  0.39843700  0.34083300  0.56991600  1
  O  O14  1  0.52551200  0.58493700  0.86677300  1
  O  O15  1  0.49931900  0.40556600  0.12553100  1
  O  O16  1  0.57478400  0.64674600  0.44456900  1
  O  O17  1  0.35721000  0.04534400  0.23712800  1
  O  O18  1  0.77663600  0.92453800  0.04159600  1
  O  O19  1  0.57733900  0.32706200  0.84934900  1
  O  O20  1  0.85344200  0.86729700  0.55577900  1
  O  O21  1  0.64298200  0.26432400  0.34526400  1
  O  O22  1  0.81589100  0.54889200  0.98082400  1
  O  O23  1  0.93144700  0.78277600  0.25250100  1
  O  O24  1  0.72616600  0.18135700  0.04863700  1
  O  O25  1  0.90174300  0.60902400  0.54257900  1
  O  O26  1  0.69290800  0.00506800  0.32295800  1
  O  O27  1  0.96224000  0.84029800  0.82771100  1
  O  O28  1  0.76247400  0.25631800  0.63936100  1
  O  O29  1  0.97795800  0.52677200  0.24879600  1
loop_
_geom_bond_atom_site_label_1
_geom_bond_atom_site_label_2
_geom_bond_distance
_geom_bond_site_symmetry_2
Li0 O0 1.861078 1_555
Li0 O8 2.001244 1_555
Li0 O27 2.028330 1_455
Li0 O25 2.124406 1_455
Li1 O9 1.926125 1_565
Li1 O20 1.963645 1_455
Li1 O1 2.059925 1_555
Li1 O3 2.071031 1_565
Li2 O18 1.928096 1_555
Li2 O10 1.951734 1_555
Li2 O22 2.083785 1_554
Li2 O23 2.091995 1_555
Li3 O19 1.905369 1_555
Li3 O11 1.961438 1_555
Li3 O12 2.027584 1_545
Li3 O24 2.048183 1_556
Li4 O29 1.908151 1_555
Li4 O21 1.951230 1_555
Li4 O4 2.028718 1_655
Li4 O2 2.061663 1_555
Mn0 O0 2.054402 1_555
Mn0 O5 2.111825 1_555
Mn0 O14 2.114005 1_555
Mn0 O7 2.130343 1_556
Mn0 O22 2.160121 1_455
Mn1 O16 1.963511 1_555
Mn1 O8 1.978551 1_555
Mn1 O25 2.046446 1_455
Mn1 O4 2.093136 1_555
Mn1 O1 2.124984 1_555
Mn2 O17 1.948154 1_555
Mn2 O9 1.969506 1_555
Mn2 O26 1.973761 1_455
Mn2 O2 2.049703 1_455
Mn2 O23 2.110770 1_445
Mn3 O10 2.058466 1_555
Mn3 O26 2.103917 1_565
Mn3 O1 2.180772 1_555
Mn3 O16 2.195944 1_555
Mn3 O23 2.241570 1_555
Mn4 O11 2.077050 1_554
Mn4 O15 2.099988 1_555
Mn4 O17 2.169257 1_555
Mn4 O2 2.185937 1_455
Mn4 O24 2.243497 1_555
Mn5 O5 1.985891 1_555
Mn5 O27 2.014727 1_555
Mn5 O18 2.040343 1_556
Mn5 O12 2.073475 1_555
Mn5 O14 2.073513 1_555
Mn6 O28 1.963826 1_555
Mn6 O19 1.972409 1_555
Mn6 O13 1.974603 1_555
Mn6 O6 1.982265 1_555
Mn6 O3 2.174735 1_555
Mn7 O20 2.056535 1_555
Mn7 O6 2.081807 1_665
Mn7 O12 2.162377 1_555
Mn7 O3 2.223449 1_665
Mn7 O27 2.229329 1_555
Mn8 O21 2.032029 1_555
Mn8 O25 2.116155 1_555
Mn8 O13 2.131446 1_555
Mn8 O28 2.162463 1_555
Mn8 O4 2.265773 1_655
Mn9 O7 1.957801 1_655
Mn9 O15 1.978424 1_555
Mn9 O29 1.991025 1_555
Mn9 O22 2.045760 1_554
Mn9 O24 2.125863 1_555
B0 O29 1.372672 1_455
B0 O23 1.390500 1_455
B0 O1 1.408064 1_555
B1 O11 1.343109 1_565
B1 O5 1.399620 1_555
B1 O27 1.432024 1_455
B2 O8 1.374023 1_555
B2 O3 1.380579 1_565
B2 O12 1.415187 1_555
B3 O9 1.366702 1_555
B3 O13 1.390428 1_555
B3 O4 1.396989 1_555
B4 O10 1.344777 1_555
B4 O15 1.402441 1_555
B4 O7 1.410049 1_555
B5 O19 1.374023 1_555
B5 O14 1.376072 1_555
B5 O22 1.403152 1_555
B6 O20 1.342241 1_555
B6 O16 1.409896 1_555
B6 O25 1.427603 1_555
B7 O21 1.348995 1_555
B7 O26 1.402458 1_555
B7 O17 1.408536 1_555
B8 O18 1.365208 1_545
B8 O24 1.389598 1_555
B8 O2 1.415030 1_555
B9 O0 1.344203 1_655
B9 O6 1.401365 1_655
B9 O28 1.405958 1_555
