# generated using pymatgen
data_Li2MnNi(PO4)2
_symmetry_space_group_name_H-M   'P 1'
_cell_length_a   4.76535724
_cell_length_b   10.37195665
_cell_length_c   6.05193300
_cell_angle_alpha   90.00007094
_cell_angle_beta   89.99978768
_cell_angle_gamma   89.91776893
_symmetry_Int_Tables_number   1
_chemical_formula_structural   Li2MnNi(PO4)2
_chemical_formula_sum   'Li4 Mn2 Ni2 P4 O16'
_cell_volume   299.12300854
_cell_formula_units_Z   2
loop_
 _symmetry_equiv_pos_site_id
 _symmetry_equiv_pos_as_xyz
  1  'x, y, z'
loop_
 _atom_site_type_symbol
 _atom_site_label
 _atom_site_symmetry_multiplicity
 _atom_site_fract_x
 _atom_site_fract_y
 _atom_site_fract_z
 _atom_site_occupancy
  Li  Li0  1  0.00002300  0.99999400  0.00000300  1
  Li  Li1  1  0.00002300  0.99999500  0.49999800  1
  Li  Li2  1  0.50000500  0.49998700  0.00001100  1
  Li  Li3  1  0.50000500  0.49998600  0.49998800  1
  Mn  Mn0  1  0.01871500  0.72357200  0.75000600  1
  Mn  Mn1  1  0.98119900  0.27640700  0.24999900  1
  Ni  Ni0  1  0.48185600  0.22034900  0.74999900  1
  Ni  Ni1  1  0.51810800  0.77967000  0.25000100  1
  P  P0  1  0.42022600  0.08809500  0.24999900  1
  P  P1  1  0.57981100  0.91194300  0.75000100  1
  P  P2  1  0.91004000  0.40179400  0.74999800  1
  P  P3  1  0.08996400  0.59817800  0.24999900  1
  O  O0  1  0.70579800  0.05049200  0.75000000  1
  O  O1  1  0.29421000  0.94951900  0.25000100  1
  O  O2  1  0.74221200  0.09080500  0.24999900  1
  O  O3  1  0.25780100  0.90919800  0.75000100  1
  O  O4  1  0.23294500  0.39502700  0.74999900  1
  O  O5  1  0.76703000  0.60497000  0.25000200  1
  O  O6  1  0.20507200  0.45797900  0.25000100  1
  O  O7  1  0.79490800  0.54201000  0.74999800  1
  O  O8  1  0.28739000  0.15948700  0.04483700  1
  O  O9  1  0.28738700  0.15948700  0.45516100  1
  O  O10  1  0.71264400  0.84053800  0.54482500  1
  O  O11  1  0.71264300  0.84053800  0.95517800  1
  O  O12  1  0.76952100  0.33251100  0.54727500  1
  O  O13  1  0.76951700  0.33251100  0.95272100  1
  O  O14  1  0.23047200  0.66747700  0.04727500  1
  O  O15  1  0.23047000  0.66747900  0.45272600  1
loop_
_geom_bond_atom_site_label_1
_geom_bond_atom_site_label_2
_geom_bond_distance
_geom_bond_site_symmetry_2
Li0 O1 2.127536 1_555
Li0 O0 2.127736 1_464
Li0 O3 2.163713 1_554
Li0 O2 2.163844 1_465
Li0 O11 2.165832 1_454
Li0 O8 2.166093 1_565
Li1 O1 2.127526 1_555
Li1 O0 2.127721 1_465
Li1 O3 2.163730 1_555
Li1 O2 2.163860 1_465
Li1 O10 2.165837 1_455
Li1 O9 2.166077 1_565
Li2 O6 2.110886 1_555
Li2 O7 2.110923 1_554
Li2 O13 2.177691 1_554
Li2 O14 2.177845 1_555
Li2 O5 2.257826 1_555
Li2 O4 2.257890 1_554
Li3 O6 2.110877 1_555
Li3 O7 2.110918 1_555
Li3 O12 2.177693 1_555
Li3 O15 2.177875 1_555
Li3 O5 2.257806 1_555
Li3 O4 2.257876 1_555
Mn0 O14 2.142827 1_556
Mn0 O15 2.142865 1_555
Mn0 O7 2.165525 1_455
Mn0 O3 2.238564 1_555
Mn0 O11 2.266232 1_455
Mn0 O10 2.266267 1_455
Mn1 O12 2.142703 1_555
Mn1 O13 2.142730 1_554
Mn1 O6 2.165770 1_655
Mn1 O2 2.238109 1_555
Mn1 O9 2.266307 1_655
Mn1 O8 2.266309 1_655
Ni0 O0 2.058447 1_555
Ni0 O8 2.107795 1_556
Ni0 O9 2.107805 1_555
Ni0 O4 2.164077 1_555
Ni0 O13 2.177669 1_555
Ni0 O12 2.177684 1_555
Ni1 O1 2.058267 1_555
Ni1 O11 2.107881 1_554
Ni1 O10 2.107893 1_555
Ni1 O5 2.164297 1_555
Ni1 O15 2.177767 1_555
Ni1 O14 2.177780 1_555
O0 P1 1.558192 1_545
O1 P0 1.558504 1_565
O2 P0 1.534676 1_555
O3 P1 1.534798 1_555
O4 P2 1.540257 1_455
O5 P3 1.540406 1_655
O6 P3 1.553420 1_555
O7 P2 1.553625 1_555
O8 P0 1.577753 1_555
O9 P0 1.577754 1_555
O10 P1 1.577872 1_555
O11 P1 1.577880 1_555
O12 P2 1.572058 1_555
O13 P2 1.572064 1_555
O14 P3 1.572114 1_555
O15 P3 1.572136 1_555
