# generated using pymatgen
data_Fe7(OF7)2
_symmetry_space_group_name_H-M   'P 1'
_cell_length_a   4.84732100
_cell_length_b   6.07205576
_cell_length_c   10.39415945
_cell_angle_alpha   93.31504951
_cell_angle_beta   90.07153872
_cell_angle_gamma   92.11123033
_symmetry_Int_Tables_number   1
_chemical_formula_structural   Fe7(OF7)2
_chemical_formula_sum   'Fe7 O2 F14'
_cell_volume   305.21240639
_cell_formula_units_Z   1
loop_
 _symmetry_equiv_pos_site_id
 _symmetry_equiv_pos_as_xyz
  1  'x, y, z'
loop_
 _atom_site_type_symbol
 _atom_site_label
 _atom_site_symmetry_multiplicity
 _atom_site_fract_x
 _atom_site_fract_y
 _atom_site_fract_z
 _atom_site_occupancy
  Fe  Fe0  1  0.00000000  0.50000000  0.00000000  1
  Fe  Fe1  1  0.50920200  0.74430900  0.24176200  1
  Fe  Fe2  1  0.99291900  0.22709500  0.25647000  1
  Fe  Fe3  1  0.50000000  0.50000000  0.50000000  1
  Fe  Fe4  1  0.50000000  0.00000000  0.50000000  1
  Fe  Fe5  1  0.00708100  0.77290500  0.74353000  1
  Fe  Fe6  1  0.49079800  0.25569100  0.75823800  1
  O  O0  1  0.67115400  0.76130700  0.41007200  1
  O  O1  1  0.32884600  0.23869300  0.58992800  1
  F  F0  1  0.26004700  0.70953000  0.09186900  1
  F  F1  1  0.16813000  0.26520100  0.08278200  1
  F  F2  1  0.75972700  0.51345900  0.16035500  1
  F  F3  1  0.72314800  0.98393400  0.17800500  1
  F  F4  1  0.26180100  0.98947000  0.33156100  1
  F  F5  1  0.27063900  0.49179500  0.32139900  1
  F  F6  1  0.75422400  0.24066900  0.41892800  1
  F  F7  1  0.24577600  0.75933100  0.58107200  1
  F  F8  1  0.72936100  0.50820500  0.67860100  1
  F  F9  1  0.73819900  0.01053000  0.66843900  1
  F  F10  1  0.27685200  0.01606600  0.82199500  1
  F  F11  1  0.24027300  0.48654100  0.83964500  1
  F  F12  1  0.83187000  0.73479900  0.91721800  1
  F  F13  1  0.73995300  0.29047000  0.90813100  1
loop_
_geom_bond_atom_site_label_1
_geom_bond_atom_site_label_2
_geom_bond_distance
_geom_bond_site_symmetry_2
Fe1 O0 1.912379 1_555
Fe3 O0 2.038629 1_555
Fe3 O1 2.038629 1_555
Fe4 O1 1.896444 1_555
Fe4 O0 1.896444 1_545
Fe6 O1 1.912379 1_555
F0 Fe0 1.964126 1_555
F0 Fe1 1.966997 1_555
F1 Fe0 1.913886 1_555
F1 Fe2 2.017863 1_455
F2 Fe0 2.034045 1_655
F2 Fe1 2.036261 1_555
F2 Fe2 2.375324 1_555
F3 Fe1 1.906254 1_555
F3 Fe2 2.066636 1_565
F4 Fe4 2.092619 1_565
F4 Fe1 2.121090 1_555
F4 Fe2 2.157794 1_465
F5 Fe1 2.095688 1_555
F5 Fe2 2.136329 1_455
F5 Fe3 2.159830 1_555
F6 Fe2 2.047619 1_555
F6 Fe4 2.092025 1_555
F6 Fe3 2.168034 1_555
F7 Fe5 2.047619 1_555
F7 Fe4 2.092025 1_565
F7 Fe3 2.168034 1_555
F8 Fe6 2.095688 1_555
F8 Fe5 2.136329 1_655
F8 Fe3 2.159830 1_555
F9 Fe4 2.092619 1_555
F9 Fe6 2.121090 1_555
F9 Fe5 2.157794 1_645
F10 Fe6 1.906254 1_555
F10 Fe5 2.066636 1_545
F11 Fe0 2.034045 1_556
F11 Fe6 2.036261 1_555
F11 Fe5 2.375324 1_555
F12 Fe0 1.913886 1_656
F12 Fe5 2.017863 1_655
F13 Fe0 1.964126 1_656
F13 Fe6 1.966997 1_555
