# generated using pymatgen
data_LiFePO4
_symmetry_space_group_name_H-M   'P 1'
_cell_length_a   4.98960538
_cell_length_b   4.98939341
_cell_length_c   16.32515242
_cell_angle_alpha   94.68168117
_cell_angle_beta   85.31364880
_cell_angle_gamma   78.12810852
_symmetry_Int_Tables_number   1
_chemical_formula_structural   LiFePO4
_chemical_formula_sum   'Li4 Fe4 P4 O16'
_cell_volume   394.36986979
_cell_formula_units_Z   4
loop_
 _symmetry_equiv_pos_site_id
 _symmetry_equiv_pos_as_xyz
  1  'x, y, z'
loop_
 _atom_site_type_symbol
 _atom_site_label
 _atom_site_symmetry_multiplicity
 _atom_site_fract_x
 _atom_site_fract_y
 _atom_site_fract_z
 _atom_site_occupancy
  Li  Li0  1  0.54684900  0.79968300  0.93724700  1
  Li  Li1  1  0.79969800  0.54718600  0.56277000  1
  Li  Li2  1  0.20034900  0.45277200  0.43723500  1
  Li  Li3  1  0.45321300  0.20029500  0.06275700  1
  Fe  Fe0  1  0.16816100  0.67760000  0.25108000  1
  Fe  Fe1  1  0.83155300  0.32256600  0.74891400  1
  Fe  Fe2  1  0.32206800  0.83218700  0.75109000  1
  Fe  Fe3  1  0.67784800  0.16792600  0.24887400  1
  P  P0  1  0.28178700  0.37164100  0.63721600  1
  P  P1  1  0.37159200  0.28165900  0.86280000  1
  P  P2  1  0.62841400  0.71832700  0.13720900  1
  P  P3  1  0.71824000  0.62833300  0.36279200  1
  O  O0  1  0.06856000  0.58915100  0.69939700  1
  O  O1  1  0.41073900  0.93155900  0.19933700  1
  O  O2  1  0.58929700  0.06841500  0.80066400  1
  O  O3  1  0.93147900  0.41081700  0.30060300  1
  O  O4  1  0.08648900  0.23999500  0.83920500  1
  O  O5  1  0.75963600  0.91359600  0.33929500  1
  O  O6  1  0.24040100  0.08640300  0.66070400  1
  O  O7  1  0.91350600  0.75998900  0.16078700  1
  O  O8  1  0.42853400  0.57321700  0.84603700  1
  O  O9  1  0.42671700  0.57132800  0.34603600  1
  O  O10  1  0.57329700  0.42863300  0.65396300  1
  O  O11  1  0.57149200  0.42679100  0.15396500  1
  O  O12  1  0.21810700  0.41241400  0.54915500  1
  O  O13  1  0.58797700  0.78188800  0.04910900  1
  O  O14  1  0.41206100  0.21808500  0.95090300  1
  O  O15  1  0.78193800  0.58754300  0.45085500  1
loop_
_geom_bond_atom_site_label_1
_geom_bond_atom_site_label_2
_geom_bond_distance
_geom_bond_site_symmetry_2
Li0 O13 1.861472 1_556
Li0 O8 1.996462 1_555
Li0 O14 2.044953 1_565
Li1 O15 1.861612 1_555
Li1 O10 1.996551 1_555
Li1 O12 2.045046 1_655
Li2 O12 1.861693 1_555
Li2 O9 1.996535 1_555
Li2 O15 2.045055 1_455
Li3 O14 1.861361 1_554
Li3 O11 1.996438 1_555
Li3 O13 2.044964 1_545
Fe0 O7 2.036257 1_455
Fe0 O1 2.103035 1_555
Fe0 O3 2.118133 1_455
Fe0 O9 2.127915 1_555
Fe0 O5 2.423093 1_455
Fe0 O11 2.499626 1_555
Fe1 O4 2.037251 1_655
Fe1 O2 2.102732 1_555
Fe1 O0 2.118394 1_655
Fe1 O10 2.126742 1_555
Fe1 O6 2.424391 1_655
Fe1 O8 2.498459 1_555
Fe2 O6 2.035496 1_565
Fe2 O0 2.102622 1_555
Fe2 O2 2.118785 1_565
Fe2 O8 2.129171 1_555
Fe2 O4 2.419267 1_565
Fe2 O10 2.501045 1_555
Fe3 O5 2.036393 1_545
Fe3 O3 2.102838 1_555
Fe3 O1 2.118541 1_545
Fe3 O11 2.128253 1_555
Fe3 O7 2.419595 1_545
Fe3 O9 2.500715 1_555
O0 P0 1.583908 1_555
O1 P2 1.583869 1_555
O2 P1 1.584041 1_555
O3 P3 1.584020 1_555
O4 P1 1.553505 1_555
O5 P3 1.553284 1_555
O6 P0 1.553103 1_555
O7 P2 1.553362 1_555
O8 P1 1.579269 1_555
O9 P3 1.579264 1_555
O10 P0 1.579144 1_555
O11 P2 1.579100 1_555
O12 P0 1.518172 1_555
O13 P2 1.518347 1_555
O14 P1 1.518438 1_555
O15 P3 1.518242 1_555
