# generated using pymatgen
data_FeOF
_symmetry_space_group_name_H-M   'P 1'
_cell_length_a   3.10840700
_cell_length_b   9.50399500
_cell_length_c   14.29663581
_cell_angle_alpha   89.68155524
_cell_angle_beta   90.00000000
_cell_angle_gamma   90.00000000
_symmetry_Int_Tables_number   1
_chemical_formula_structural   FeOF
_chemical_formula_sum   'Fe12 O12 F12'
_cell_volume   422.34876049
_cell_formula_units_Z   12
loop_
 _symmetry_equiv_pos_site_id
 _symmetry_equiv_pos_as_xyz
  1  'x, y, z'
loop_
 _atom_site_type_symbol
 _atom_site_label
 _atom_site_symmetry_multiplicity
 _atom_site_fract_x
 _atom_site_fract_y
 _atom_site_fract_z
 _atom_site_occupancy
  Fe  Fe0  1  0.00000000  0.99151200  0.99476600  1
  Fe  Fe1  1  0.00000000  0.98151500  0.66843600  1
  Fe  Fe2  1  0.00000000  0.99760000  0.33132900  1
  Fe  Fe3  1  0.50000000  0.76848300  0.83559900  1
  Fe  Fe4  1  0.50000000  0.75239400  0.51442100  1
  Fe  Fe5  1  0.50000000  0.74320500  0.14569300  1
  Fe  Fe6  1  0.00000000  0.50205200  0.65748900  1
  Fe  Fe7  1  0.00000000  0.48786900  0.00380500  1
  Fe  Fe8  1  0.00000000  0.48374600  0.33506300  1
  Fe  Fe9  1  0.50000000  0.25170300  0.85009200  1
  Fe  Fe10  1  0.50000000  0.27328200  0.50502300  1
  Fe  Fe11  1  0.50000000  0.27267700  0.16783000  1
  O  O0  1  0.50000000  0.90280800  0.73022000  1
  O  O1  1  0.50000000  0.90677400  0.06280100  1
  O  O2  1  0.00000000  0.84324100  0.89805200  1
  O  O3  1  0.00000000  0.85246500  0.56096400  1
  O  O4  1  0.00000000  0.65142400  0.09400200  1
  O  O5  1  0.50000000  0.59720700  0.60347300  1
  O  O6  1  0.50000000  0.40144400  0.06339900  1
  O  O7  1  0.50000000  0.40551200  0.39974200  1
  O  O8  1  0.00000000  0.34751400  0.89884000  1
  O  O9  1  0.00000000  0.34327400  0.57044200  1
  O  O10  1  0.00000000  0.35128800  0.23236900  1
  O  O11  1  0.50000000  0.09552100  0.93973600  1
  F  F0  1  0.50000000  0.89443800  0.39576500  1
  F  F1  1  0.00000000  0.84171200  0.22736900  1
  F  F2  1  0.00000000  0.64645000  0.76951900  1
  F  F3  1  0.00000000  0.65509800  0.43284500  1
  F  F4  1  0.50000000  0.59463700  0.92852000  1
  F  F5  1  0.50000000  0.60380000  0.26808200  1
  F  F6  1  0.50000000  0.40123300  0.73553600  1
  F  F7  1  0.00000000  0.15447100  0.76785200  1
  F  F8  1  0.00000000  0.15396200  0.10688800  1
  F  F9  1  0.00000000  0.15238500  0.43739800  1
  F  F10  1  0.50000000  0.09971700  0.60151400  1
  F  F11  1  0.50000000  0.09758900  0.26512900  1
loop_
_geom_bond_atom_site_label_1
_geom_bond_atom_site_label_2
_geom_bond_distance
_geom_bond_site_symmetry_2
Fe0 O2 1.979704 1_555
Fe0 O1 2.000380 1_456
Fe0 O1 2.000380 1_556
Fe0 O11 2.000751 1_565
Fe0 O11 2.000751 1_465
Fe1 O0 1.935970 1_455
Fe1 O0 1.935970 1_555
Fe1 O3 1.971300 1_555
Fe3 O2 1.929928 1_555
Fe3 O2 1.929928 1_655
Fe3 O0 1.969296 1_555
Fe4 O3 1.941621 1_555
Fe4 O3 1.941621 1_655
Fe4 O5 1.943024 1_555
Fe5 O4 1.931251 1_655
Fe5 O4 1.931251 1_555
Fe5 O1 1.949508 1_555
Fe6 O5 1.954995 1_455
Fe6 O5 1.954995 1_555
Fe6 O9 1.961316 1_555
Fe7 O6 1.951495 1_555
Fe7 O6 1.951495 1_455
Fe7 O8 2.013348 1_554
Fe7 O4 2.025183 1_555
Fe8 O10 1.939297 1_555
Fe8 O7 1.953409 1_555
Fe8 O7 1.953409 1_455
Fe9 O8 1.933258 1_555
Fe9 O8 1.933258 1_655
Fe9 O11 1.955678 1_555
Fe10 O9 1.933829 1_555
Fe10 O9 1.933829 1_655
Fe10 O7 1.955459 1_555
Fe11 O6 1.925218 1_555
Fe11 O10 1.957742 1_555
Fe11 O10 1.957742 1_655
F0 Fe2 2.053153 1_555
F0 Fe2 2.053153 1_655
F0 Fe4 2.162109 1_555
F1 Fe2 2.104404 1_555
F1 Fe5 2.160485 1_555
F1 Fe5 2.160485 1_455
F2 Fe6 2.114968 1_555
F2 Fe3 2.159946 1_455
F2 Fe3 2.159946 1_555
F3 Fe8 2.152135 1_555
F3 Fe4 2.154710 1_455
F3 Fe4 2.154710 1_555
F4 Fe3 2.114301 1_555
F4 Fe7 2.142788 1_556
F4 Fe7 2.142788 1_656
F5 Fe8 2.149947 1_655
F5 Fe8 2.149947 1_555
F5 Fe5 2.188888 1_555
F6 Fe6 2.137010 1_655
F6 Fe6 2.137010 1_555
F6 Fe9 2.162411 1_555
F7 Fe9 2.159623 1_555
F7 Fe9 2.159623 1_455
F7 Fe1 2.179012 1_545
F8 Fe11 2.111531 1_555
F8 Fe11 2.111531 1_455
F8 Fe0 2.231752 1_544
F9 Fe2 2.118589 1_545
F9 Fe10 2.163985 1_455
F9 Fe10 2.163985 1_555
F10 Fe1 2.140327 1_545
F10 Fe1 2.140327 1_645
F10 Fe10 2.144474 1_555
F11 Fe2 2.050452 1_545
F11 Fe2 2.050452 1_645
F11 Fe11 2.162938 1_555
