# generated using pymatgen
data_Li3Fe4(BO3)4
_symmetry_space_group_name_H-M   'P 1'
_cell_length_a   5.23497300
_cell_length_b   9.07736047
_cell_length_c   11.37272717
_cell_angle_alpha   112.60832779
_cell_angle_beta   102.24401582
_cell_angle_gamma   90.03262643
_symmetry_Int_Tables_number   1
_chemical_formula_structural   Li3Fe4(BO3)4
_chemical_formula_sum   'Li6 Fe8 B8 O24'
_cell_volume   485.52808191
_cell_formula_units_Z   2
loop_
 _symmetry_equiv_pos_site_id
 _symmetry_equiv_pos_as_xyz
  1  'x, y, z'
loop_
 _atom_site_type_symbol
 _atom_site_label
 _atom_site_symmetry_multiplicity
 _atom_site_fract_x
 _atom_site_fract_y
 _atom_site_fract_z
 _atom_site_occupancy
  Li  Li0  1  0.02800300  0.02784300  0.39376700  1
  Li  Li1  1  0.29601500  0.27933200  0.90885900  1
  Li  Li2  1  0.48928600  0.50902600  0.66673900  1
  Li  Li3  1  0.25956200  0.24572800  0.16392400  1
  Li  Li4  1  0.53072400  0.53814900  0.41123100  1
  Li  Li5  1  0.98141900  0.99994000  0.65781200  1
  Fe  Fe0  1  0.02916500  0.35172600  0.38593700  1
  Fe  Fe1  1  0.26276800  0.92210900  0.87660300  1
  Fe  Fe2  1  0.47863500  0.15860000  0.63107100  1
  Fe  Fe3  1  0.23861800  0.57583500  0.13408000  1
  Fe  Fe4  1  0.77480500  0.45188500  0.88638000  1
  Fe  Fe5  1  0.53664500  0.85317600  0.38053400  1
  Fe  Fe6  1  0.96852100  0.65252800  0.63466600  1
  Fe  Fe7  1  0.72881300  0.05641700  0.12284900  1
  B  B0  1  0.02140100  0.68594900  0.37668000  1
  B  B1  1  0.26855800  0.60032000  0.87720300  1
  B  B2  1  0.47176700  0.81337000  0.62367600  1
  B  B3  1  0.23096400  0.90484700  0.13684600  1
  B  B4  1  0.51971200  0.18296400  0.37230500  1
  B  B5  1  0.76866300  0.11330900  0.88114000  1
  B  B6  1  0.97911200  0.31360600  0.62409300  1
  B  B7  1  0.73738000  0.39163100  0.12920000  1
  O  O0  1  0.02400800  0.10224900  0.86677000  1
  O  O1  1  0.10469900  0.70504400  0.84461100  1
  O  O2  1  0.17643600  0.50048600  0.93324000  1
  O  O3  1  0.08967100  0.17234300  0.61463600  1
  O  O4  1  0.10452500  0.42569100  0.59305200  1
  O  O5  1  0.23932000  0.84145900  0.66636900  1
  O  O6  1  0.26142600  0.65410900  0.33384800  1
  O  O7  1  0.51093100  0.58747800  0.85270000  1
  O  O8  1  0.61395000  0.22056500  0.84453800  1
  O  O9  1  0.40752400  0.07939300  0.41355300  1
  O  O10  1  0.39472300  0.31315100  0.36055500  1
  O  O11  1  0.65341300  0.01943300  0.93292700  1
  O  O12  1  0.35168300  0.01305500  0.09952000  1
  O  O13  1  0.58082900  0.66907400  0.60654200  1
  O  O14  1  0.59170900  0.92647500  0.59294400  1
  O  O15  1  0.37142700  0.78891900  0.16569800  1
  O  O16  1  0.46805500  0.39554100  0.12173200  1
  O  O17  1  0.74391400  0.34495900  0.66251600  1
  O  O18  1  0.76080300  0.15487700  0.33636200  1
  O  O19  1  0.90713700  0.57470100  0.41095200  1
  O  O20  1  0.91322400  0.82493200  0.38543300  1
  O  O21  1  0.87156400  0.49494100  0.09596500  1
  O  O22  1  0.87689800  0.27798900  0.16519400  1
  O  O23  1  0.97785900  0.91867100  0.14778700  1
loop_
_geom_bond_atom_site_label_1
_geom_bond_atom_site_label_2
_geom_bond_distance
_geom_bond_site_symmetry_2
Li0 O20 1.898148 1_445
Li0 O18 1.976322 1_455
Li0 O9 1.986269 1_555
Li0 O3 2.292732 1_555
Li0 O23 2.536440 1_445
Li1 O8 1.951211 1_555
Li1 O0 1.989308 1_555
Li1 O2 2.036139 1_555
Li1 O16 2.212571 1_556
Li2 O13 1.926675 1_555
Li2 O7 1.932099 1_555
Li2 O17 1.992872 1_555
Li2 O4 2.031375 1_555
Li3 O16 1.998254 1_555
Li3 O22 2.026970 1_455
Li3 O10 2.037658 1_555
Li3 O12 2.047293 1_555
Li4 O10 1.982344 1_555
Li4 O19 1.998933 1_555
Li4 O6 2.014355 1_555
Li4 O13 2.034186 1_555
Li5 O3 1.928525 1_665
Li5 O5 1.988948 1_655
Li5 O14 2.032948 1_555
Li5 O0 2.153544 1_665
Fe0 O10 2.006361 1_555
Fe0 O19 2.054636 1_455
Fe0 O18 2.090701 1_455
Fe0 O4 2.131725 1_555
Fe0 O22 2.290073 1_455
Fe1 O1 2.004682 1_555
Fe1 O0 2.081409 1_565
Fe1 O11 2.092871 1_565
Fe1 O5 2.190253 1_555
Fe1 O12 2.283680 1_566
Fe2 O3 2.013321 1_555
Fe2 O17 2.059048 1_555
Fe2 O14 2.094284 1_545
Fe2 O8 2.220841 1_555
Fe2 O9 2.239792 1_555
Fe3 O15 1.926560 1_555
Fe3 O21 1.954408 1_455
Fe3 O16 2.009445 1_555
Fe3 O2 2.067393 1_554
Fe3 O6 2.079515 1_555
Fe4 O7 1.926092 1_555
Fe4 O2 2.059655 1_655
Fe4 O8 2.098658 1_555
Fe4 O21 2.205012 1_556
Fe4 O17 2.318473 1_555
Fe5 O20 1.979937 1_555
Fe5 O9 2.081095 1_565
Fe5 O6 2.134918 1_555
Fe5 O14 2.197715 1_555
Fe5 O15 2.250612 1_555
Fe6 O13 2.001477 1_555
Fe6 O4 2.089509 1_655
Fe6 O5 2.094251 1_655
Fe6 O1 2.199739 1_655
Fe6 O19 2.312252 1_555
Fe7 O23 1.860457 1_545
Fe7 O12 1.954405 1_555
Fe7 O22 1.993322 1_555
Fe7 O11 2.003628 1_554
Fe7 O18 2.209494 1_555
B0 O20 1.360297 1_455
B0 O19 1.389360 1_455
B0 O6 1.432288 1_555
B1 O7 1.351407 1_555
B1 O1 1.383423 1_555
B1 O2 1.426137 1_555
B2 O13 1.389743 1_555
B2 O5 1.391854 1_555
B2 O14 1.392390 1_555
B3 O23 1.358294 1_455
B3 O15 1.385556 1_555
B3 O12 1.406427 1_565
B4 O9 1.379920 1_555
B4 O10 1.388430 1_555
B4 O18 1.401451 1_555
B5 O0 1.379788 1_655
B5 O8 1.395222 1_555
B5 O11 1.404649 1_555
B6 O3 1.382765 1_655
B6 O17 1.385973 1_555
B6 O4 1.401619 1_655
B7 O21 1.378450 1_555
B7 O16 1.395672 1_555
B7 O22 1.401379 1_555
