# generated using pymatgen
data_Li8WO6
_symmetry_space_group_name_H-M   'P 1'
_cell_length_a   6.07849668
_cell_length_b   6.07849668
_cell_length_c   6.07849669
_cell_angle_alpha   54.03819257
_cell_angle_beta   54.03819257
_cell_angle_gamma   54.03819888
_symmetry_Int_Tables_number   1
_chemical_formula_structural   Li8WO6
_chemical_formula_sum   'Li8 W1 O6'
_cell_volume   136.69697681
_cell_formula_units_Z   1
loop_
 _symmetry_equiv_pos_site_id
 _symmetry_equiv_pos_as_xyz
  1  'x, y, z'
loop_
 _atom_site_type_symbol
 _atom_site_label
 _atom_site_symmetry_multiplicity
 _atom_site_fract_x
 _atom_site_fract_y
 _atom_site_fract_z
 _atom_site_occupancy
  Li  Li0  1  0.76355900  0.10120900  0.49340500  1
  Li  Li1  1  0.89879100  0.50659500  0.23644100  1
  Li  Li2  1  0.50659500  0.23644100  0.89879100  1
  Li  Li3  1  0.65577000  0.65577000  0.65577000  1
  Li  Li4  1  0.34423000  0.34423000  0.34423000  1
  Li  Li5  1  0.49340500  0.76355900  0.10120900  1
  Li  Li6  1  0.10120900  0.49340500  0.76355900  1
  Li  Li7  1  0.23644100  0.89879100  0.50659500  1
  W  W0  1  0.00000000  0.00000000  0.00000000  1
  O  O0  1  0.90640400  0.23114800  0.61759900  1
  O  O1  1  0.76885200  0.38240100  0.09359600  1
  O  O2  1  0.38240100  0.09359600  0.76885200  1
  O  O3  1  0.61759900  0.90640400  0.23114800  1
  O  O4  1  0.23114800  0.61759900  0.90640400  1
  O  O5  1  0.09359600  0.76885200  0.38240100  1
loop_
_geom_bond_atom_site_label_1
_geom_bond_atom_site_label_2
_geom_bond_distance
_geom_bond_site_symmetry_2
Li0 O2 1.911077 1_555
Li0 O5 1.952512 1_645
Li0 O1 1.980572 1_555
Li0 O0 2.055058 1_555
Li1 O0 1.911077 1_555
Li1 O4 1.952511 1_654
Li1 O3 1.980572 1_555
Li1 O1 2.055058 1_555
Li2 O4 1.911077 1_555
Li2 O3 1.952512 1_546
Li2 O0 1.980572 1_555
Li2 O2 2.055058 1_555
Li3 O4 2.169465 1_555
Li3 O3 2.169465 1_555
Li3 O0 2.169466 1_555
Li3 O5 2.435038 1_655
Li3 O1 2.435038 1_556
Li3 O2 2.435038 1_565
Li4 O1 2.169465 1_555
Li4 O2 2.169465 1_555
Li4 O5 2.169466 1_555
Li4 O0 2.435038 1_455
Li4 O4 2.435038 1_554
Li4 O3 2.435038 1_545
Li5 O1 1.911077 1_555
Li5 O2 1.952512 1_564
Li5 O5 1.980572 1_555
Li5 O3 2.055058 1_555
Li6 O5 1.911077 1_555
Li6 O1 1.952511 1_456
Li6 O2 1.980572 1_555
Li6 O4 2.055058 1_555
Li7 O3 1.911077 1_555
Li7 O0 1.952512 1_465
Li7 O4 1.980572 1_555
Li7 O5 2.055058 1_555
O0 W0 2.116437 1_656
O1 W0 2.116437 1_655
O2 W0 2.116437 1_556
O3 W0 2.116437 1_665
O4 W0 2.116437 1_566
O5 W0 2.116437 1_565
