# generated using pymatgen
data_Li4Fe5CoO12
_symmetry_space_group_name_H-M   'P 1'
_cell_length_a   5.15966803
_cell_length_b   5.08370329
_cell_length_c   10.25455988
_cell_angle_alpha   89.92232713
_cell_angle_beta   89.79291272
_cell_angle_gamma   59.53644093
_symmetry_Int_Tables_number   1
_chemical_formula_structural   Li4Fe5CoO12
_chemical_formula_sum   'Li4 Fe5 Co1 O12'
_cell_volume   231.84570381
_cell_formula_units_Z   1
loop_
 _symmetry_equiv_pos_site_id
 _symmetry_equiv_pos_as_xyz
  1  'x, y, z'
loop_
 _atom_site_type_symbol
 _atom_site_label
 _atom_site_symmetry_multiplicity
 _atom_site_fract_x
 _atom_site_fract_y
 _atom_site_fract_z
 _atom_site_occupancy
  Li  Li0  1  0.14331300  0.50746400  0.75040500  1
  Li  Li1  1  0.34208400  0.51783400  0.24779600  1
  Li  Li2  1  0.64652100  0.50059000  0.75052500  1
  Li  Li3  1  0.85445200  0.49487400  0.24735600  1
  Fe  Fe0  1  0.16700600  0.66816700  0.49970500  1
  Fe  Fe1  1  0.66492100  0.67085000  0.99909000  1
  Fe  Fe2  1  0.33343800  0.33402100  0.99947300  1
  Fe  Fe3  1  0.83694500  0.32870100  0.49919500  1
  Fe  Fe4  1  0.50527800  0.99158000  0.49849000  1
  Co  Co0  1  0.99824000  0.00385600  0.99903400  1
  O  O0  1  0.01366100  0.66827400  0.10496400  1
  O  O1  1  0.31807100  0.66837100  0.89337600  1
  O  O2  1  0.17204800  0.34965000  0.39162800  1
  O  O3  1  0.52160500  0.64966000  0.38696200  1
  O  O4  1  0.48018300  0.34974200  0.60654900  1
  O  O5  1  0.17199100  0.98591300  0.59709800  1
  O  O6  1  0.83046400  0.64988500  0.61125200  1
  O  O7  1  0.67876600  0.33589600  0.10536100  1
  O  O8  1  0.30944000  0.00480200  0.09193700  1
  O  O9  1  0.98587400  0.33567800  0.89306800  1
  O  O10  1  0.68539200  0.00546600  0.90634200  1
  O  O11  1  0.84601500  0.98550100  0.40174700  1
loop_
_geom_bond_atom_site_label_1
_geom_bond_atom_site_label_2
_geom_bond_distance
_geom_bond_site_symmetry_2
Li0 O6 1.998707 1_455
Li0 O9 2.066409 1_455
Li0 O1 2.095794 1_555
Li0 O4 2.100407 1_555
Li1 O3 1.996309 1_555
Li1 O0 2.074249 1_555
Li1 O7 2.088713 1_555
Li1 O2 2.103327 1_555
Li2 O4 2.045497 1_555
Li2 O6 2.057710 1_555
Li2 O1 2.065214 1_555
Li2 O9 2.105235 1_555
Li3 O2 2.051088 1_655
Li3 O3 2.057441 1_555
Li3 O0 2.075104 1_655
Li3 O7 2.085832 1_555
Fe0 O11 1.911289 1_455
Fe0 O5 1.911564 1_555
Fe0 O4 1.946180 1_555
Fe0 O2 1.952656 1_555
Fe0 O6 2.116909 1_455
Fe0 O3 2.122129 1_555
Fe1 O9 1.989618 1_555
Fe1 O7 1.991087 1_556
Fe1 O10 1.996623 1_565
Fe1 O8 1.996805 1_566
Fe1 O0 2.099253 1_656
Fe1 O1 2.101198 1_555
Fe2 O10 1.978846 1_555
Fe2 O8 1.980016 1_556
Fe2 O0 1.982217 1_556
Fe2 O1 1.984450 1_555
Fe2 O7 2.094062 1_556
Fe2 O9 2.098912 1_455
Fe3 O6 1.984196 1_555
Fe3 O3 1.987640 1_555
Fe3 O11 1.991591 1_545
Fe3 O5 1.996580 1_645
Fe3 O2 2.095277 1_655
Fe3 O4 2.097097 1_555
Fe4 O11 2.002098 1_555
Fe4 O5 2.004520 1_555
Fe4 O3 2.047609 1_555
Fe4 O6 2.054990 1_555
Fe4 O2 2.074912 1_565
Fe4 O4 2.079735 1_565
Co0 O8 1.872100 1_656
Co0 O10 1.872655 1_555
Co0 O9 1.979096 1_555
Co0 O7 1.981402 1_556
Co0 O1 1.985996 1_645
Co0 O0 1.988642 1_646
