# generated using pymatgen
data_Li4V5O10
_symmetry_space_group_name_H-M   'P 1'
_cell_length_a   5.15323000
_cell_length_b   5.24448408
_cell_length_c   7.83990132
_cell_angle_alpha   71.13480568
_cell_angle_beta   71.88974721
_cell_angle_gamma   80.47308814
_symmetry_Int_Tables_number   1
_chemical_formula_structural   Li4V5O10
_chemical_formula_sum   'Li4 V5 O10'
_cell_volume   190.06852083
_cell_formula_units_Z   1
loop_
 _symmetry_equiv_pos_site_id
 _symmetry_equiv_pos_as_xyz
  1  'x, y, z'
loop_
 _atom_site_type_symbol
 _atom_site_label
 _atom_site_symmetry_multiplicity
 _atom_site_fract_x
 _atom_site_fract_y
 _atom_site_fract_z
 _atom_site_occupancy
  Li  Li0  1  0.49910900  0.76745800  0.42515400  1
  Li  Li1  1  0.97898700  0.49414000  0.51008700  1
  Li  Li2  1  0.49131300  0.38863000  0.22224400  1
  Li  Li3  1  0.49380500  0.22044400  0.59822700  1
  V  V0  1  0.02082200  0.89876900  0.68912300  1
  V  V1  1  0.50258400  0.00282200  0.99506400  1
  V  V2  1  0.99356300  0.31820000  0.88889400  1
  V  V3  1  0.00607100  0.69197800  0.10688200  1
  V  V4  1  0.99203100  0.09611600  0.31595400  1
  O  O0  1  0.23446400  0.96664800  0.86188000  1
  O  O1  1  0.77669700  0.87811200  0.52078000  1
  O  O2  1  0.78178400  0.67388400  0.94557200  1
  O  O3  1  0.25068900  0.77912200  0.23447300  1
  O  O4  1  0.20944800  0.55037400  0.65737500  1
  O  O5  1  0.78117200  0.44356300  0.33596900  1
  O  O6  1  0.76052800  0.21115500  0.76125400  1
  O  O7  1  0.21593000  0.31994700  0.06902800  1
  O  O8  1  0.23563700  0.13628000  0.45281600  1
  O  O9  1  0.76278100  0.05159400  0.13919100  1
loop_
_geom_bond_atom_site_label_1
_geom_bond_atom_site_label_2
_geom_bond_distance
_geom_bond_site_symmetry_2
Li0 O1 2.041555 1_555
Li0 O4 2.090808 1_555
Li0 O5 2.192265 1_555
Li0 O8 2.202450 1_565
Li0 O3 2.232052 1_555
Li0 O9 2.389342 1_565
Li1 O4 2.004879 1_655
Li1 O5 2.040020 1_555
Li1 O1 2.123395 1_555
Li1 O6 2.152306 1_555
Li1 O8 2.197102 1_655
Li1 O3 2.363589 1_655
Li2 O5 2.060491 1_555
Li2 O8 2.074738 1_555
Li2 O9 2.205628 1_555
Li2 O3 2.225589 1_555
Li2 O7 2.257273 1_555
Li2 O2 2.409944 1_554
Li3 O6 2.134219 1_555
Li3 O4 2.147884 1_555
Li3 O8 2.174191 1_555
Li3 O5 2.216863 1_555
Li3 O0 2.218673 1_545
Li3 O1 2.237286 1_545
O0 V1 2.036435 1_565
O0 V2 2.077655 1_465
O0 V3 2.125128 1_556
O0 V0 2.131141 1_555
O1 V4 1.800570 1_565
O1 V0 2.122742 1_655
O2 V3 1.991701 1_656
O2 V0 2.087678 1_655
O2 V2 2.104466 1_555
O2 V1 2.112069 1_565
O3 V3 2.017124 1_555
O3 V1 2.037078 1_564
O3 V4 2.091041 1_465
O4 V2 1.943867 1_455
O4 V0 1.975110 1_555
O5 V4 1.987249 1_555
O5 V3 1.989665 1_655
O6 V1 1.997876 1_555
O6 V2 2.022921 1_555
O6 V0 2.050165 1_645
O7 V4 2.011716 1_455
O7 V2 2.079787 1_454
O7 V3 2.130939 1_555
O7 V1 2.135961 1_554
O8 V4 1.960277 1_455
O8 V0 1.974420 1_545
O9 V1 2.093428 1_554
O9 V3 2.126450 1_645
O9 V2 2.131963 1_554
O9 V4 2.165410 1_555
