# generated using pymatgen
data_Hf2N2O
_symmetry_space_group_name_H-M   'P 1'
_cell_length_a   8.65232940
_cell_length_b   8.66651933
_cell_length_c   8.67183442
_cell_angle_alpha   109.38853684
_cell_angle_beta   109.34501779
_cell_angle_gamma   109.36701809
_symmetry_Int_Tables_number   1
_chemical_formula_structural   Hf2N2O
_chemical_formula_sum   'Hf16 N16 O8'
_cell_volume   502.49715188
_cell_formula_units_Z   8
loop_
 _symmetry_equiv_pos_site_id
 _symmetry_equiv_pos_as_xyz
  1  'x, y, z'
loop_
 _atom_site_type_symbol
 _atom_site_label
 _atom_site_symmetry_multiplicity
 _atom_site_fract_x
 _atom_site_fract_y
 _atom_site_fract_z
 _atom_site_occupancy
  Hf  Hf0  1  0.48320821  0.99147379  0.98994602  1
  Hf  Hf1  1  0.72384193  0.97395053  0.75315555  1
  Hf  Hf2  1  0.75434768  0.71669621  0.96735668  1
  Hf  Hf3  1  0.24967991  0.78456134  0.53378522  1
  Hf  Hf4  1  0.96699943  0.25815058  0.21726391  1
  Hf  Hf5  1  0.45926358  0.23473250  0.70200437  1
  Hf  Hf6  1  0.51331930  0.50080164  0.50223725  1
  Hf  Hf7  1  0.99475796  0.00362546  0.49086370  1
  Hf  Hf8  1  0.78628897  0.54177479  0.25112810  1
  Hf  Hf9  1  0.01145869  0.50119933  0.00132215  1
  Hf  Hf10  1  0.20592382  0.46973479  0.74793018  1
  Hf  Hf11  1  0.53763080  0.75129148  0.28215636  1
  Hf  Hf12  1  0.03080698  0.74958476  0.79249728  1
  Hf  Hf13  1  0.25271573  0.28724756  0.03719488  1
  Hf  Hf14  1  0.74898785  0.20989359  0.46643291  1
  Hf  Hf15  1  0.28839139  0.03062215  0.24857777  1
  N  N0  1  0.96969124  0.22557293  0.96016094  1
  N  N1  1  0.51887438  0.04943886  0.77554819  1
  N  N2  1  0.04266267  0.53391938  0.27542301  1
  N  N3  1  0.22510443  0.98774305  0.45734533  1
  N  N4  1  0.77163845  0.00970627  0.54564614  1
  N  N5  1  0.53908989  0.48676963  0.26764085  1
  N  N6  1  0.27381764  0.72642790  0.75888469  1
  N  N7  1  0.76491887  0.77317180  0.22799894  1
  N  N8  1  0.95143521  0.46447788  0.72803866  1
  N  N9  1  0.26058792  0.03654211  0.98770387  1
  N  N10  1  0.01265930  0.23754684  0.46281638  1
  N  N11  1  0.27374975  0.54443298  0.03235730  1
  N  N12  1  0.76783798  0.73861891  0.72610557  1
  N  N13  1  0.48872824  0.95490620  0.22489676  1
  N  N14  1  0.54389276  0.27466854  0.51200379  1
  N  N15  1  0.03027790  0.77192968  0.04773617  1
  O  O0  1  0.44851824  0.72207511  0.48490323  1
  O  O1  1  0.22979179  0.26952512  0.27693307  1
  O  O2  1  0.72098525  0.45561612  0.96681528  1
  O  O3  1  0.98602319  0.76039276  0.53454335  1
  O  O4  1  0.73917460  0.96504878  0.01685286  1
  O  O5  1  0.23982277  0.22898440  0.77339386  1
  O  O6  1  0.46631803  0.50789759  0.74149753  1
  O  O7  1  0.72677628  0.26924466  0.23090689  1
loop_
_geom_bond_atom_site_label_1
_geom_bond_atom_site_label_2
_geom_bond_distance
_geom_bond_site_symmetry_2
Hf0 N9 2.083826 1_565
Hf0 N6 2.086275 1_555
Hf0 N13 2.151328 1_556
Hf0 N1 2.168344 1_565
Hf0 O7 2.231747 1_566
Hf0 O4 2.245288 1_556
Hf1 N4 2.069654 1_565
Hf1 N0 2.072984 1_565
Hf1 N1 2.127002 1_565
Hf1 N12 2.148478 1_555
Hf1 O4 2.275008 1_556
Hf1 O0 2.315071 1_555
Hf2 N15 2.081553 1_656
Hf2 O4 2.108424 1_556
Hf2 N7 2.110801 1_556
Hf2 O6 2.177943 1_555
Hf2 O2 2.182159 1_555
Hf2 N12 2.199441 1_555
Hf3 O0 2.093189 1_555
Hf3 N2 2.115654 1_555
Hf3 N3 2.124910 1_555
Hf3 N6 2.135535 1_555
Hf3 O3 2.223046 1_455
Hf3 N1 2.261275 1_565
Hf4 N2 2.082807 1_655
Hf4 N10 2.112858 1_655
Hf4 O1 2.117895 1_655
Hf4 O7 2.152038 1_555
Hf4 N0 2.161479 1_554
Hf4 O4 2.199286 1_545
Hf5 N1 2.064678 1_555
Hf5 N14 2.092981 1_555
Hf5 N3 2.109182 1_545
Hf5 O5 2.174208 1_555
Hf5 O2 2.197037 1_555
Hf5 O6 2.253343 1_555
Hf6 N14 2.087370 1_555
Hf6 N5 2.087454 1_555
Hf6 N12 2.089761 1_555
Hf6 O1 2.194580 1_555
Hf6 O0 2.205240 1_555
Hf6 O6 2.228215 1_555
Hf7 N10 2.082572 1_655
Hf7 N7 2.116504 1_545
Hf7 N4 2.147966 1_555
Hf7 N3 2.148208 1_645
Hf7 O5 2.224366 1_655
Hf7 O3 2.244151 1_545
Hf8 N5 2.096287 1_555
Hf8 O2 2.128496 1_554
Hf8 O3 2.130604 1_555
Hf8 N7 2.141142 1_555
Hf8 O7 2.175541 1_555
Hf8 N2 2.183948 1_655
Hf9 N11 2.080280 1_555
Hf9 N8 2.135768 1_454
Hf9 N0 2.177130 1_454
Hf9 N15 2.183982 1_555
Hf9 N2 2.209020 1_555
Hf9 O2 2.308008 1_454
Hf10 N6 2.063756 1_555
Hf10 N8 2.134687 1_455
Hf10 N11 2.139168 1_556
Hf10 N10 2.164341 1_555
Hf10 O6 2.188579 1_555
Hf10 O5 2.270904 1_555
Hf11 N13 2.115960 1_555
Hf11 N7 2.132513 1_555
Hf11 N11 2.132959 1_555
Hf11 O0 2.194090 1_555
Hf11 N4 2.205907 1_565
Hf11 N5 2.258349 1_555
Hf12 N12 2.114203 1_455
Hf12 N8 2.143030 1_455
Hf12 N15 2.158548 1_556
Hf12 N9 2.167710 1_565
Hf12 O3 2.179846 1_455
Hf12 N6 2.278873 1_555
Hf13 N9 2.099534 1_554
Hf13 O5 2.127754 1_554
Hf13 N0 2.130659 1_454
Hf13 N5 2.169477 1_555
Hf13 N11 2.191116 1_555
Hf13 O1 2.202280 1_555
Hf14 N4 2.108988 1_555
Hf14 N8 2.136266 1_555
Hf14 N14 2.144377 1_555
Hf14 N13 2.200687 1_545
Hf14 N10 2.225499 1_655
Hf14 O7 2.230720 1_555
Hf15 N13 2.092395 1_545
Hf15 N15 2.134737 1_545
Hf15 N3 2.164248 1_545
Hf15 N9 2.214272 1_554
Hf15 N14 2.219060 1_555
Hf15 O1 2.246141 1_555
