# generated using pymatgen
data_Li3V2P4(HO8)2
_symmetry_space_group_name_H-M   'P 1'
_cell_length_a   12.58730900
_cell_length_b   9.39435157
_cell_length_c   7.52766047
_cell_angle_alpha   97.69366522
_cell_angle_beta   101.15550285
_cell_angle_gamma   98.44069592
_symmetry_Int_Tables_number   1
_chemical_formula_structural   Li3V2P4(HO8)2
_chemical_formula_sum   'Li9 V6 P12 H6 O48'
_cell_volume   851.70232853
_cell_formula_units_Z   3
loop_
 _symmetry_equiv_pos_site_id
 _symmetry_equiv_pos_as_xyz
  1  'x, y, z'
loop_
 _atom_site_type_symbol
 _atom_site_label
 _atom_site_symmetry_multiplicity
 _atom_site_fract_x
 _atom_site_fract_y
 _atom_site_fract_z
 _atom_site_occupancy
  Li  Li0  1  0.17174500  0.03844000  0.84203800  1
  Li  Li1  1  0.15559400  0.29090500  0.15546000  1
  Li  Li2  1  0.42172200  0.05840100  0.34438100  1
  Li  Li3  1  0.24324900  0.61581600  0.64775800  1
  Li  Li4  1  0.50743800  0.37820600  0.84948800  1
  Li  Li5  1  0.75969500  0.39001800  0.34903700  1
  Li  Li6  1  0.58317800  0.94892200  0.65480200  1
  Li  Li7  1  0.84048600  0.70461100  0.84481700  1
  Li  Li8  1  0.82489100  0.96039300  0.15978200  1
  V  V0  1  0.99912000  0.50162800  0.00471100  1
  V  V1  1  0.33196200  0.33508900  0.49740400  1
  V  V2  1  0.00164900  0.99797600  0.49546300  1
  V  V3  1  0.66838200  0.16800000  0.00380600  1
  V  V4  1  0.33410100  0.82539300  0.00677400  1
  V  V5  1  0.66260200  0.66519100  0.48822100  1
  P  P0  1  0.17279900  0.01988500  0.23050700  1
  P  P1  1  0.15637600  0.31620400  0.76431600  1
  P  P2  1  0.40425700  0.05865800  0.74006700  1
  P  P3  1  0.07223000  0.72404100  0.73794600  1
  P  P4  1  0.25523800  0.61090600  0.26644800  1
  P  P5  1  0.50776700  0.35817200  0.23378900  1
  P  P6  1  0.49270700  0.64870400  0.76619900  1
  P  P7  1  0.74116500  0.39494000  0.73827800  1
  P  P8  1  0.92952200  0.27923000  0.26940100  1
  P  P9  1  0.59494800  0.94162100  0.26789100  1
  P  P10  1  0.84015800  0.68608000  0.22995800  1
  P  P11  1  0.82436300  0.97566000  0.75510200  1
  H  H0  1  0.00685900  0.51222700  0.50887400  1
  H  H1  1  0.31908400  0.33209500  0.98999000  1
  H  H2  1  0.33773500  0.84832000  0.50780900  1
  H  H3  1  0.67679800  0.18743700  0.51677500  1
  H  H4  1  0.65319900  0.66421500  0.99089100  1
  H  H5  1  0.98431700  0.99163300  0.98356500  1
  O  O0  1  0.11072400  0.15880700  0.66065500  1
  O  O1  1  0.06952600  0.39707600  0.82373700  1
  O  O2  1  0.09871700  0.03911500  0.04982200  1
  O  O3  1  0.00700500  0.33393400  0.14436100  1
  O  O4  1  0.23279800  0.29156000  0.94800200  1
  O  O5  1  0.22431000  0.17843500  0.33627100  1
  O  O6  1  0.06539400  0.61579600  0.56051200  1
  O  O7  1  0.22557000  0.40182600  0.65091800  1
  O  O8  1  0.38589900  0.20817800  0.69151200  1
  O  O9  1  0.05382100  0.87478200  0.69065400  1
  O  O10  1  0.52555100  0.06778300  0.84225000  1
  O  O11  1  0.19275900  0.73669600  0.84629900  1
  O  O12  1  0.13560000  0.59120300  0.15006800  1
  O  O13  1  0.27567600  0.45861100  0.30595000  1
  O  O14  1  0.44281200  0.27277200  0.35482700  1
  O  O15  1  0.10862200  0.93997600  0.35409300  1
  O  O16  1  0.27449500  0.71474300  0.44796100  1
  O  O17  1  0.60148300  0.04867400  0.44518200  1
  O  O18  1  0.44242700  0.49182700  0.66074600  1
  O  O19  1  0.73143700  0.05007200  0.80880300  1
  O  O20  1  0.39917000  0.72538700  0.81391500  1
  O  O21  1  0.43399800  0.37493600  0.05467100  1
  O  O22  1  0.67387800  0.00131300  0.14803000  1
  O  O23  1  0.33062800  0.67246100  0.14250000  1
  O  O24  1  0.65858100  0.33184400  0.84856200  1
  O  O25  1  0.32466800  0.99544000  0.85332200  1
  O  O26  1  0.56678700  0.62437500  0.94627800  1
  O  O27  1  0.26934600  0.94623900  0.18662400  1
  O  O28  1  0.60497100  0.28563900  0.19200600  1
  O  O29  1  0.55939700  0.51054500  0.35665300  1
  O  O30  1  0.72852500  0.28951300  0.55275100  1
  O  O31  1  0.39233000  0.95452800  0.55191700  1
  O  O32  1  0.55784700  0.73498500  0.64851400  1
  O  O33  1  0.89245200  0.05625700  0.64057100  1
  O  O34  1  0.72202900  0.54287900  0.68361100  1
  O  O35  1  0.85928400  0.41283300  0.85322700  1
  O  O36  1  0.47469100  0.92553800  0.15624000  1
  O  O37  1  0.80756300  0.26422800  0.15755500  1
  O  O38  1  0.94777200  0.12562200  0.30774000  1
  O  O39  1  0.62174900  0.79552400  0.31887200  1
  O  O40  1  0.77343000  0.60256800  0.35023800  1
  O  O41  1  0.93982200  0.38740500  0.44425900  1
  O  O42  1  0.77402100  0.81749600  0.65321500  1
  O  O43  1  0.76641600  0.70863900  0.05067900  1
  O  O44  1  0.99182500  0.66737900  0.85570900  1
  O  O45  1  0.89748900  0.95233400  0.94181500  1
  O  O46  1  0.92830200  0.60026800  0.18197300  1
  O  O47  1  0.89043600  0.84264900  0.33888300  1
loop_
_geom_bond_atom_site_label_1
_geom_bond_atom_site_label_2
_geom_bond_distance
_geom_bond_site_symmetry_2
Li0 O2 1.961354 1_556
Li0 O0 1.998864 1_555
Li0 O25 2.012408 1_545
Li0 O9 2.017939 1_545
Li0 O4 2.366372 1_555
Li1 O3 1.959354 1_555
Li1 O5 1.978601 1_555
Li1 O4 1.992810 1_554
Li1 O13 2.051976 1_555
Li1 O2 2.349247 1_555
Li2 O14 1.981143 1_555
Li2 O31 2.013853 1_545
Li2 O36 2.035834 1_545
Li2 O27 2.095129 1_545
Li2 O17 2.262492 1_555
Li3 O16 1.943258 1_555
Li3 O7 1.993716 1_555
Li3 O11 2.012988 1_555
Li3 O20 2.142011 1_555
Li3 O6 2.207736 1_555
Li4 O21 1.948835 1_556
Li4 O18 2.010026 1_555
Li4 O24 2.014141 1_555
Li4 O8 2.091901 1_555
Li4 O26 2.295234 1_555
Li5 O30 1.977052 1_555
Li5 O40 1.977442 1_555
Li5 O37 1.981457 1_555
Li5 O28 2.095234 1_555
Li5 O41 2.246620 1_555
Li6 O17 1.973423 1_565
Li6 O32 1.980848 1_555
Li6 O10 1.993994 1_565
Li6 O19 2.019115 1_565
Li6 O31 2.387805 1_555
Li7 O43 1.955980 1_556
Li7 O44 1.975031 1_555
Li7 O42 2.026798 1_555
Li7 O34 2.036033 1_555
Li7 O45 2.305626 1_555
Li8 O22 1.981761 1_565
Li8 O47 1.989643 1_555
Li8 O45 2.024889 1_554
Li8 O38 2.051332 1_565
Li8 O43 2.354734 1_555
H0 O6 1.103669 1_555
H0 O41 1.312112 1_455
H1 O4 1.066800 1_555
H1 O21 1.412586 1_556
H2 O31 1.095320 1_555
H2 O16 1.352008 1_555
H3 O30 1.046794 1_555
H3 O17 1.462844 1_555
H4 O26 1.068378 1_555
H4 O43 1.390883 1_556
H5 O45 1.071045 1_555
H5 O2 1.412535 1_666
O0 P1 1.547129 1_555
O0 V2 1.985318 1_545
O1 P1 1.521327 1_555
O1 V0 1.992592 1_456
O2 P0 1.541630 1_555
O3 P8 1.561691 1_455
O3 V0 2.011397 1_455
O4 P1 1.589744 1_555
O5 P0 1.572266 1_555
O5 V1 1.942635 1_555
O6 P3 1.546493 1_555
O7 P1 1.549230 1_555
O7 V1 2.042848 1_555
O8 P2 1.536257 1_555
O8 V1 2.082702 1_555
O9 P3 1.544411 1_555
O9 V2 2.057831 1_555
O10 P2 1.555483 1_555
O10 V3 1.986995 1_556
O11 P3 1.556719 1_555
O11 V4 1.944864 1_556
O12 P4 1.560068 1_555
O12 V0 1.859661 1_455
O13 P4 1.547226 1_555
O13 V1 2.054168 1_555
O14 P5 1.560034 1_555
O14 V1 2.023003 1_555
O15 P0 1.543163 1_565
O15 V2 1.963934 1_555
O16 P4 1.524083 1_555
O17 P9 1.540509 1_545
O18 P6 1.556017 1_555
O18 V1 1.966211 1_555
O19 P11 1.538701 1_545
O19 V3 2.070169 1_556
O20 P6 1.541931 1_555
O20 V4 1.995480 1_556
O21 P5 1.523274 1_555
O22 P9 1.560261 1_545
O22 V3 2.023239 1_555
O23 P4 1.559311 1_555
O23 V4 1.871297 1_555
O24 P7 1.551104 1_555
O24 V3 2.057097 1_556
O25 P2 1.540959 1_565
O25 V4 2.096921 1_556
O26 P6 1.554261 1_555
O27 P0 1.551012 1_565
O27 V4 2.018227 1_555
O28 P5 1.548082 1_555
O28 V3 2.035380 1_555
O29 P5 1.570549 1_555
O29 V5 1.828100 1_555
O30 P7 1.566554 1_555
O31 P2 1.577690 1_565
O32 P6 1.546714 1_555
O32 V5 2.069335 1_555
O33 P11 1.523592 1_545
O33 V2 2.005975 1_645
O34 P7 1.540109 1_555
O34 V5 2.079014 1_555
O35 P7 1.541895 1_555
O35 V0 1.905765 1_556
O36 P9 1.557921 1_555
O36 V4 1.933922 1_555
O37 P8 1.577959 1_555
O37 V3 1.922569 1_555
O38 P8 1.549717 1_555
O38 V2 2.053389 1_645
O39 P9 1.540021 1_555
O39 V5 1.933338 1_555
O40 P10 1.559421 1_555
O40 V5 2.002267 1_555
O41 P8 1.522906 1_555
O42 P11 1.558181 1_555
O42 V5 1.953918 1_555
O43 P10 1.541881 1_555
O44 P3 1.552049 1_655
O44 V0 2.039827 1_556
O45 P11 1.584870 1_555
O46 P10 1.533302 1_555
O46 V0 1.950775 1_555
O47 P10 1.561823 1_555
O47 V2 1.944103 1_655
