# generated using pymatgen
data_Mn(PO3)4
_symmetry_space_group_name_H-M   'P 1'
_cell_length_a   8.77397900
_cell_length_b   7.13229700
_cell_length_c   8.45164641
_cell_angle_alpha   57.34594921
_cell_angle_beta   90.00000000
_cell_angle_gamma   90.00000000
_symmetry_Int_Tables_number   1
_chemical_formula_structural   Mn(PO3)4
_chemical_formula_sum   'Mn2 P8 O24'
_cell_volume   445.29766173
_cell_formula_units_Z   2
loop_
 _symmetry_equiv_pos_site_id
 _symmetry_equiv_pos_as_xyz
  1  'x, y, z'
loop_
 _atom_site_type_symbol
 _atom_site_label
 _atom_site_symmetry_multiplicity
 _atom_site_fract_x
 _atom_site_fract_y
 _atom_site_fract_z
 _atom_site_occupancy
  Mn  Mn0  1  0.00000000  0.00000000  0.00000000  1
  Mn  Mn1  1  0.50000000  0.00000000  0.50000000  1
  P  P0  1  0.57087300  0.46634000  0.72657500  1
  P  P1  1  0.20943100  0.77700000  0.38245200  1
  P  P2  1  0.07087300  0.53366000  0.77342500  1
  P  P3  1  0.70943100  0.22300000  0.11754800  1
  P  P4  1  0.29056900  0.77700000  0.88245200  1
  P  P5  1  0.92912700  0.46634000  0.22657500  1
  P  P6  1  0.79056900  0.22300000  0.61754800  1
  P  P7  1  0.42912700  0.53366000  0.27342500  1
  O  O0  1  0.72164000  0.38075600  0.67563700  1
  O  O1  1  0.42870800  0.36562600  0.71616900  1
  O  O2  1  0.09418900  0.28192000  0.88208400  1
  O  O3  1  0.11113200  0.60934900  0.55955600  1
  O  O4  1  0.61113200  0.39065100  0.94044400  1
  O  O5  1  0.59418900  0.71808000  0.61791600  1
  O  O6  1  0.09786500  0.93204100  0.22963000  1
  O  O7  1  0.92870800  0.63437400  0.78383100  1
  O  O8  1  0.82397500  0.10375900  0.07060400  1
  O  O9  1  0.22164000  0.61924400  0.82436300  1
  O  O10  1  0.32397500  0.89624100  0.42939600  1
  O  O11  1  0.59786500  0.06795900  0.27037000  1
  O  O12  1  0.40213500  0.93204100  0.72963000  1
  O  O13  1  0.67602500  0.10375900  0.57060400  1
  O  O14  1  0.77836000  0.38075600  0.17563700  1
  O  O15  1  0.17602500  0.89624100  0.92939600  1
  O  O16  1  0.07129200  0.36562600  0.21616900  1
  O  O17  1  0.90213500  0.06795900  0.77037000  1
  O  O18  1  0.40581100  0.28192000  0.38208400  1
  O  O19  1  0.38886800  0.60934900  0.05955600  1
  O  O20  1  0.88886800  0.39065100  0.44044400  1
  O  O21  1  0.90581100  0.71808000  0.11791600  1
  O  O22  1  0.57129200  0.63437400  0.28383100  1
  O  O23  1  0.27836000  0.61924400  0.32436300  1
loop_
_geom_bond_atom_site_label_1
_geom_bond_atom_site_label_2
_geom_bond_distance
_geom_bond_site_symmetry_2
Mn0 O2 1.885939 1_554
Mn0 O21 1.885939 1_445
Mn0 O6 1.929672 1_545
Mn0 O17 1.929672 1_454
Mn0 O8 1.940507 1_455
Mn0 O15 1.940507 1_544
Mn1 O5 1.885939 1_545
Mn1 O18 1.885939 1_555
Mn1 O11 1.929672 1_555
Mn1 O12 1.929672 1_545
Mn1 O13 1.940507 1_555
Mn1 O10 1.940507 1_545
O0 P6 1.571270 1_555
O0 P0 1.609780 1_555
O1 P0 1.465532 1_555
O2 P2 1.526310 1_555
O3 P1 1.575654 1_555
O3 P2 1.621858 1_555
O4 P3 1.575654 1_556
O4 P0 1.621858 1_555
O5 P0 1.526310 1_555
O6 P1 1.519194 1_555
O7 P2 1.465532 1_655
O8 P3 1.501620 1_555
O9 P4 1.571270 1_555
O9 P2 1.609780 1_555
O10 P1 1.501620 1_555
O11 P3 1.519194 1_555
O12 P4 1.519194 1_555
O13 P6 1.501620 1_555
O14 P3 1.571270 1_555
O14 P5 1.609780 1_555
O15 P4 1.501620 1_555
O16 P5 1.465532 1_455
O17 P6 1.519194 1_555
O18 P7 1.526310 1_555
O19 P4 1.575654 1_554
O19 P7 1.621858 1_555
O20 P6 1.575654 1_555
O20 P5 1.621858 1_555
O21 P5 1.526310 1_555
O22 P7 1.465532 1_555
O23 P1 1.571270 1_555
O23 P7 1.609780 1_555
