# generated using pymatgen
data_Li2TiMnO4
_symmetry_space_group_name_H-M   'P 1'
_cell_length_a   5.99744383
_cell_length_b   6.03957809
_cell_length_c   8.73058266
_cell_angle_alpha   90.00022835
_cell_angle_beta   89.99975295
_cell_angle_gamma   90.09988504
_symmetry_Int_Tables_number   1
_chemical_formula_structural   Li2TiMnO4
_chemical_formula_sum   'Li8 Ti4 Mn4 O16'
_cell_volume   316.23894969
_cell_formula_units_Z   4
loop_
 _symmetry_equiv_pos_site_id
 _symmetry_equiv_pos_as_xyz
  1  'x, y, z'
loop_
 _atom_site_type_symbol
 _atom_site_label
 _atom_site_symmetry_multiplicity
 _atom_site_fract_x
 _atom_site_fract_y
 _atom_site_fract_z
 _atom_site_occupancy
  Li  Li0  1  0.24999000  0.24999100  0.25000800  1
  Li  Li1  1  0.74999100  0.74999200  0.75000900  1
  Li  Li2  1  0.74999100  0.24999000  0.75000900  1
  Li  Li3  1  0.24999000  0.74999100  0.25000800  1
  Li  Li4  1  0.99999100  0.49999100  0.00000900  1
  Li  Li5  1  0.49999100  0.99999100  0.50000900  1
  Li  Li6  1  0.49999000  0.49999000  0.00000900  1
  Li  Li7  1  0.99999000  0.99999100  0.50000900  1
  Ti  Ti0  1  0.49998700  0.99999400  0.00000700  1
  Ti  Ti1  1  0.99998800  0.49999400  0.50000700  1
  Ti  Ti2  1  0.99999400  0.99999400  0.00000300  1
  Ti  Ti3  1  0.49999300  0.49999300  0.50000300  1
  Mn  Mn0  1  0.25026700  0.75006500  0.74979600  1
  Mn  Mn1  1  0.74978400  0.75007900  0.24977000  1
  Mn  Mn2  1  0.75007900  0.24983600  0.25029300  1
  Mn  Mn3  1  0.25014000  0.25026900  0.74990200  1
  O  O0  1  0.49965700  0.49974400  0.27548300  1
  O  O1  1  0.99966000  0.99975600  0.77548200  1
  O  O2  1  0.00032300  0.50022600  0.27548200  1
  O  O3  1  0.50032300  0.00023800  0.77548000  1
  O  O4  1  0.99965700  0.49974600  0.72453700  1
  O  O5  1  0.49965600  0.99975600  0.22453900  1
  O  O6  1  0.50032600  0.50022800  0.72453800  1
  O  O7  1  0.00032400  0.00023700  0.22453900  1
  O  O8  1  0.25046900  0.22746500  0.00305900  1
  O  O9  1  0.75046700  0.72746200  0.50306200  1
  O  O10  1  0.24951300  0.77251900  0.00306200  1
  O  O11  1  0.74951200  0.27251400  0.50305900  1
  O  O12  1  0.75046700  0.22746400  0.99695900  1
  O  O13  1  0.25046800  0.72746400  0.49695600  1
  O  O14  1  0.74951100  0.77251600  0.99695600  1
  O  O15  1  0.24951200  0.27251500  0.49695800  1
loop_
_geom_bond_atom_site_label_1
_geom_bond_atom_site_label_2
_geom_bond_distance
_geom_bond_site_symmetry_2
Li0 O7 2.135169 1_555
Li0 O0 2.135174 1_555
Li0 O5 2.140906 1_545
Li0 O2 2.140915 1_555
Li0 O8 2.160298 1_555
Li0 O15 2.160306 1_555
Li1 O6 2.135209 1_555
Li1 O1 2.135228 1_555
Li1 O4 2.140956 1_555
Li1 O3 2.140963 1_565
Li1 O14 2.160280 1_555
Li1 O9 2.160283 1_555
Li2 O3 2.135171 1_555
Li2 O4 2.135180 1_555
Li2 O6 2.140919 1_555
Li2 O1 2.140920 1_545
Li2 O11 2.160308 1_555
Li2 O12 2.160308 1_555
Li3 O5 2.135216 1_555
Li3 O2 2.135224 1_555
Li3 O7 2.140955 1_565
Li3 O0 2.140969 1_555
Li3 O10 2.160274 1_555
Li3 O13 2.160291 1_555
Li4 O10 2.222787 1_655
Li4 O12 2.222790 1_554
Li4 O8 2.230503 1_655
Li4 O14 2.230507 1_554
Li4 O4 2.405032 1_554
Li4 O2 2.405041 1_655
Li5 O11 2.222760 1_565
Li5 O13 2.222787 1_555
Li5 O15 2.230498 1_565
Li5 O9 2.230509 1_555
Li5 O5 2.405015 1_555
Li5 O3 2.405024 1_565
Li6 O8 2.222769 1_555
Li6 O14 2.222774 1_554
Li6 O12 2.230499 1_554
Li6 O10 2.230512 1_555
Li6 O6 2.405024 1_554
Li6 O0 2.405050 1_555
Li7 O15 2.222769 1_665
Li7 O9 2.222796 1_555
Li7 O11 2.230489 1_565
Li7 O13 2.230508 1_655
Li7 O7 2.405015 1_665
Li7 O1 2.405041 1_555
Mn0 O3 2.138787 1_565
Mn0 O6 2.140670 1_555
Mn0 O4 2.141350 1_455
Mn0 O1 2.142743 1_455
Mn0 O13 2.211657 1_555
Mn0 O10 2.215319 1_556
Mn1 O0 2.139802 1_555
Mn1 O5 2.140256 1_555
Mn1 O7 2.140345 1_665
Mn1 O2 2.143173 1_655
Mn1 O14 2.211371 1_554
Mn1 O9 2.215606 1_555
Mn2 O5 2.139997 1_545
Mn2 O2 2.140052 1_655
Mn2 O7 2.140889 1_655
Mn2 O0 2.142440 1_555
Mn2 O11 2.211043 1_555
Mn2 O12 2.215878 1_554
Mn3 O6 2.138131 1_555
Mn3 O4 2.141021 1_455
Mn3 O1 2.141920 1_445
Mn3 O3 2.142311 1_555
Mn3 O15 2.212436 1_555
Mn3 O8 2.214497 1_556
O0 Ti3 1.960192 1_555
O1 Ti2 1.960201 1_556
O2 Ti1 1.960236 1_455
O3 Ti0 1.960253 1_546
O4 Ti1 1.960279 1_555
O5 Ti0 1.960297 1_555
O6 Ti3 1.960323 1_555
O7 Ti2 1.960332 1_445
O8 Ti0 2.033398 1_545
O8 Ti2 2.034098 1_445
O9 Ti1 2.033399 1_555
O9 Ti3 2.034086 1_555
O10 Ti2 2.033420 1_455
O10 Ti0 2.034110 1_555
O11 Ti3 2.033436 1_555
O11 Ti1 2.034139 1_555
O12 Ti2 2.033433 1_546
O12 Ti0 2.034115 1_546
O13 Ti3 2.033428 1_555
O13 Ti1 2.034116 1_455
O14 Ti0 2.033453 1_556
O14 Ti2 2.034161 1_556
O15 Ti1 2.033457 1_455
O15 Ti3 2.034152 1_555
