# generated using pymatgen
data_LiNiBO3
_symmetry_space_group_name_H-M   'P 1'
_cell_length_a   5.15158872
_cell_length_b   8.84650545
_cell_length_c   5.97759250
_cell_angle_alpha   75.80792475
_cell_angle_beta   64.07152858
_cell_angle_gamma   93.89873049
_symmetry_Int_Tables_number   1
_chemical_formula_structural   LiNiBO3
_chemical_formula_sum   'Li4 Ni4 B4 O12'
_cell_volume   232.67656532
_cell_formula_units_Z   4
loop_
 _symmetry_equiv_pos_site_id
 _symmetry_equiv_pos_as_xyz
  1  'x, y, z'
loop_
 _atom_site_type_symbol
 _atom_site_label
 _atom_site_symmetry_multiplicity
 _atom_site_fract_x
 _atom_site_fract_y
 _atom_site_fract_z
 _atom_site_occupancy
  Li  Li0  1  0.49398400  0.88362900  0.68313900  1
  Li  Li1  1  0.99381900  0.38369600  0.68380800  1
  Li  Li2  1  0.50617700  0.11630100  0.31619400  1
  Li  Li3  1  0.00601100  0.61637000  0.31686900  1
  Ni  Ni0  1  0.44687300  0.21035300  0.75018500  1
  Ni  Ni1  1  0.05315600  0.28964500  0.24977500  1
  Ni  Ni2  1  0.94717900  0.71015600  0.75066800  1
  Ni  Ni3  1  0.55279600  0.78983300  0.24934200  1
  B  B0  1  0.94134400  0.03316300  0.74498600  1
  B  B1  1  0.44137100  0.53315800  0.74521600  1
  B  B2  1  0.05862900  0.96684400  0.25478800  1
  B  B3  1  0.55865400  0.46683800  0.25501500  1
  O  O0  1  0.35891200  0.67476400  0.66304800  1
  O  O1  1  0.85866200  0.17479200  0.66316700  1
  O  O2  1  0.64135000  0.32520900  0.33682600  1
  O  O3  1  0.14108300  0.82523700  0.33696700  1
  O  O4  1  0.73692900  0.88999700  0.84734300  1
  O  O5  1  0.23703000  0.39004600  0.84771100  1
  O  O6  1  0.26298100  0.10995500  0.15227900  1
  O  O7  1  0.76306800  0.61000900  0.15265700  1
  O  O8  1  0.22530700  0.03060900  0.70711100  1
  O  O9  1  0.72522700  0.53058300  0.70762000  1
  O  O10  1  0.77477000  0.96942100  0.29239000  1
  O  O11  1  0.27468300  0.46938800  0.29289700  1
loop_
_geom_bond_atom_site_label_1
_geom_bond_atom_site_label_2
_geom_bond_distance
_geom_bond_site_symmetry_2
Li0 O4 1.903889 1_555
Li0 O8 1.946697 1_565
Li0 O0 1.979835 1_555
Li0 O10 2.037373 1_555
Li1 O5 1.903621 1_655
Li1 O9 1.945847 1_555
Li1 O1 1.981751 1_555
Li1 O11 2.038130 1_655
Li2 O6 1.903607 1_555
Li2 O10 1.945808 1_545
Li2 O2 1.981786 1_555
Li2 O8 2.038163 1_555
Li3 O7 1.903912 1_455
Li3 O11 1.946692 1_555
Li3 O3 1.979870 1_555
Li3 O9 2.037379 1_455
Ni0 O1 2.018852 1_555
Ni0 O8 2.026948 1_555
Ni0 O5 2.042660 1_555
Ni0 O6 2.076286 1_556
Ni0 O2 2.146422 1_555
Ni1 O2 2.018910 1_455
Ni1 O11 2.026990 1_555
Ni1 O6 2.042551 1_555
Ni1 O5 2.076143 1_554
Ni1 O1 2.146576 1_455
Ni2 O0 2.017558 1_655
Ni2 O9 2.026810 1_555
Ni2 O4 2.043541 1_555
Ni2 O7 2.075412 1_556
Ni2 O3 2.148645 1_655
Ni3 O3 2.017486 1_555
Ni3 O10 2.026977 1_555
Ni3 O7 2.043474 1_555
Ni3 O4 2.075471 1_554
Ni3 O0 2.148660 1_555
B0 O8 1.381703 1_655
B0 O1 1.394530 1_555
B0 O4 1.400918 1_545
B1 O9 1.381675 1_555
B1 O0 1.394316 1_555
B1 O5 1.400278 1_555
B2 O10 1.381682 1_455
B2 O3 1.394327 1_555
B2 O6 1.400290 1_565
B3 O11 1.381727 1_555
B3 O2 1.394555 1_555
B3 O7 1.400947 1_555
