# generated using pymatgen
data_Fe9O10
_symmetry_space_group_name_H-M   'P 1'
_cell_length_a   5.35679900
_cell_length_b   6.14284908
_cell_length_c   6.88518670
_cell_angle_alpha   103.28055425
_cell_angle_beta   97.39946522
_cell_angle_gamma   107.37747646
_symmetry_Int_Tables_number   1
_chemical_formula_structural   Fe9O10
_chemical_formula_sum   'Fe9 O10'
_cell_volume   205.63351803
_cell_formula_units_Z   1
loop_
 _symmetry_equiv_pos_site_id
 _symmetry_equiv_pos_as_xyz
  1  'x, y, z'
loop_
 _atom_site_type_symbol
 _atom_site_label
 _atom_site_symmetry_multiplicity
 _atom_site_fract_x
 _atom_site_fract_y
 _atom_site_fract_z
 _atom_site_occupancy
  Fe  Fe0  1  0.00000000  0.50000000  0.00000000  1
  Fe  Fe1  1  0.38129700  0.29496400  0.80075700  1
  Fe  Fe2  1  0.40738800  0.80566900  0.80432500  1
  Fe  Fe3  1  0.20143600  0.90367800  0.38565000  1
  Fe  Fe4  1  0.19290900  0.38892100  0.38794300  1
  Fe  Fe5  1  0.80709100  0.61107900  0.61205700  1
  Fe  Fe6  1  0.79856400  0.09632200  0.61435000  1
  Fe  Fe7  1  0.59261200  0.19433100  0.19567500  1
  Fe  Fe8  1  0.61870300  0.70503600  0.19924300  1
  O  O0  1  0.66863300  0.63190300  0.90226400  1
  O  O1  1  0.11196400  0.44623300  0.70448100  1
  O  O2  1  0.12189500  0.94683700  0.68413600  1
  O  O3  1  0.67739900  0.16994200  0.88779300  1
  O  O4  1  0.50103700  0.26603000  0.51672200  1
  O  O5  1  0.49896300  0.73397000  0.48327800  1
  O  O6  1  0.88803600  0.55376700  0.29551900  1
  O  O7  1  0.32260100  0.83005800  0.11220700  1
  O  O8  1  0.87810500  0.05316300  0.31586400  1
  O  O9  1  0.33136700  0.36809700  0.09773600  1
loop_
_geom_bond_atom_site_label_1
_geom_bond_atom_site_label_2
_geom_bond_distance
_geom_bond_site_symmetry_2
Fe0 O7 2.130149 1_555
Fe0 O3 2.130149 1_454
Fe0 O6 2.175483 1_455
Fe0 O1 2.175483 1_554
Fe0 O9 2.249928 1_555
Fe0 O0 2.249928 1_454
Fe1 O3 2.039383 1_555
Fe1 O1 2.054726 1_555
Fe1 O9 2.060337 1_556
Fe1 O0 2.072890 1_555
Fe1 O2 2.073032 1_545
Fe1 O4 2.121089 1_555
Fe2 O0 2.128953 1_555
Fe2 O2 2.138114 1_555
Fe2 O3 2.165938 1_565
Fe2 O1 2.187995 1_555
Fe2 O7 2.205700 1_556
Fe2 O5 2.298228 1_555
Fe3 O7 2.066223 1_555
Fe3 O2 2.125582 1_555
Fe3 O6 2.187922 1_455
Fe3 O4 2.216945 1_565
Fe3 O8 2.238828 1_465
Fe3 O5 2.262140 1_555
Fe4 O8 2.140229 1_455
Fe4 O5 2.149240 1_555
Fe4 O4 2.180669 1_555
Fe4 O9 2.209062 1_555
Fe4 O1 2.245867 1_555
Fe4 O6 2.261356 1_455
Fe5 O2 2.140229 1_655
Fe5 O4 2.149240 1_555
Fe5 O5 2.180669 1_555
Fe5 O0 2.209062 1_555
Fe5 O6 2.245867 1_555
Fe5 O1 2.261356 1_655
Fe6 O3 2.066223 1_555
Fe6 O8 2.125582 1_555
Fe6 O1 2.187922 1_655
Fe6 O5 2.216945 1_545
Fe6 O2 2.238828 1_645
Fe6 O4 2.262140 1_555
Fe7 O9 2.128953 1_555
Fe7 O8 2.138114 1_555
Fe7 O7 2.165938 1_545
Fe7 O6 2.187995 1_555
Fe7 O3 2.205700 1_554
Fe7 O4 2.298228 1_555
Fe8 O7 2.039383 1_555
Fe8 O6 2.054726 1_555
Fe8 O0 2.060337 1_554
Fe8 O9 2.072890 1_555
Fe8 O8 2.073032 1_565
Fe8 O5 2.121089 1_555
