# generated using pymatgen
data_NiHgO2
_symmetry_space_group_name_H-M   'P 1'
_cell_length_a   5.55840053
_cell_length_b   6.42187103
_cell_length_c   7.10933341
_cell_angle_alpha   63.15293235
_cell_angle_beta   105.09111545
_cell_angle_gamma   89.99941826
_symmetry_Int_Tables_number   1
_chemical_formula_structural   NiHgO2
_chemical_formula_sum   'Ni4 Hg4 O8'
_cell_volume   216.56275852
_cell_formula_units_Z   4
loop_
 _symmetry_equiv_pos_site_id
 _symmetry_equiv_pos_as_xyz
  1  'x, y, z'
loop_
 _atom_site_type_symbol
 _atom_site_label
 _atom_site_symmetry_multiplicity
 _atom_site_fract_x
 _atom_site_fract_y
 _atom_site_fract_z
 _atom_site_occupancy
  Ni  Ni0  1  0.49999800  0.75047900  0.49999500  1
  Ni  Ni1  1  0.00000000  0.99952500  0.50000300  1
  Ni  Ni2  1  0.50000700  0.25049700  0.50000000  1
  Ni  Ni3  1  0.99999100  0.49950100  0.50000000  1
  Hg  Hg0  1  0.00000200  0.00007400  0.00000100  1
  Hg  Hg1  1  0.50000000  0.24992500  0.00000100  1
  Hg  Hg2  1  0.00000100  0.50007500  0.00000000  1
  Hg  Hg3  1  0.49999900  0.74992500  0.99999900  1
  O  O0  1  0.11105400  0.83307800  0.33342000  1
  O  O1  1  0.61105300  0.08348100  0.33342000  1
  O  O2  1  0.11105600  0.33307900  0.33342100  1
  O  O3  1  0.61105600  0.58348000  0.33341900  1
  O  O4  1  0.88894800  0.66651700  0.66658000  1
  O  O5  1  0.38894700  0.91692200  0.66658000  1
  O  O6  1  0.88894500  0.16652000  0.66658100  1
  O  O7  1  0.38894400  0.41692100  0.66657900  1
loop_
_geom_bond_atom_site_label_1
_geom_bond_atom_site_label_2
_geom_bond_distance
_geom_bond_site_symmetry_2
Ni0 O1 2.109480 1_565
Ni0 O5 2.109528 1_555
Ni0 O0 2.111185 1_555
Ni0 O4 2.111227 1_555
Ni0 O7 2.112205 1_555
Ni0 O3 2.112205 1_555
Ni1 O4 2.109504 1_455
Ni1 O0 2.109543 1_555
Ni1 O5 2.111202 1_555
Ni1 O1 2.111209 1_465
Ni1 O2 2.112187 1_565
Ni1 O6 2.112191 1_465
Ni2 O3 2.109380 1_555
Ni2 O7 2.109428 1_555
Ni2 O6 2.111163 1_555
Ni2 O2 2.111224 1_555
Ni2 O1 2.112284 1_555
Ni2 O5 2.112297 1_545
Ni3 O6 2.109363 1_555
Ni3 O2 2.109423 1_655
Ni3 O3 2.111149 1_555
Ni3 O7 2.111234 1_655
Ni3 O4 2.112277 1_555
Ni3 O0 2.112314 1_655
Hg0 O0 2.022846 1_545
Hg0 O6 2.022852 1_454
Hg1 O1 2.022846 1_555
Hg1 O7 2.022865 1_554
Hg2 O4 2.022852 1_454
Hg2 O2 2.022858 1_555
Hg3 O5 2.022846 1_555
Hg3 O3 2.022852 1_556
