# generated using pymatgen
data_Li7Ti7Nb5O30
_symmetry_space_group_name_H-M   'P 1'
_cell_length_a   5.16642809
_cell_length_b   5.16642809
_cell_length_c   23.82624200
_cell_angle_alpha   90.00000000
_cell_angle_beta   90.00000000
_cell_angle_gamma   120.00000117
_symmetry_Int_Tables_number   1
_chemical_formula_structural   Li7Ti7Nb5O30
_chemical_formula_sum   'Li7 Ti7 Nb5 O30'
_cell_volume   550.76578537
_cell_formula_units_Z   1
loop_
 _symmetry_equiv_pos_site_id
 _symmetry_equiv_pos_as_xyz
  1  'x, y, z'
loop_
 _atom_site_type_symbol
 _atom_site_label
 _atom_site_symmetry_multiplicity
 _atom_site_fract_x
 _atom_site_fract_y
 _atom_site_fract_z
 _atom_site_occupancy
  Li  Li0  1  0.66666700  0.33333300  0.27487500  1
  Li  Li1  1  0.33333300  0.66666700  0.08050300  1
  Li  Li2  1  0.33333300  0.66666700  0.37344400  1
  Li  Li3  1  0.33333300  0.66666700  0.62805500  1
  Li  Li4  1  0.33333300  0.66666700  0.92318900  1
  Li  Li5  1  0.66666700  0.33333300  0.52916600  1
  Li  Li6  1  0.00000000  0.00000000  0.20271700  1
  Ti  Ti0  1  0.66666700  0.33333300  0.88573400  1
  Ti  Ti1  1  0.66666700  0.33333300  0.01141700  1
  Ti  Ti2  1  0.66666700  0.33333300  0.69108500  1
  Ti  Ti3  1  0.00000000  0.00000000  0.59012300  1
  Ti  Ti4  1  0.00000000  0.00000000  0.71398100  1
  Ti  Ti5  1  0.00000000  0.00000000  0.98145100  1
  Ti  Ti6  1  0.00000000  0.00000000  0.10453200  1
  Nb  Nb0  1  0.66666700  0.33333300  0.40436300  1
  Nb  Nb1  1  0.33333300  0.66666700  0.20290200  1
  Nb  Nb2  1  0.33333300  0.66666700  0.50187000  1
  Nb  Nb3  1  0.33333300  0.66666700  0.79939600  1
  Nb  Nb4  1  0.00000000  0.00000000  0.30862100  1
  O  O0  1  0.25474300  0.33435100  0.14832000  1
  O  O1  1  0.34259900  0.30541100  0.35142600  1
  O  O2  1  0.33769100  0.33825200  0.74511500  1
  O  O3  1  0.60634200  0.60674800  0.45273100  1
  O  O4  1  0.31177300  0.03164400  0.04390000  1
  O  O5  1  0.71987000  0.68822700  0.04390000  1
  O  O6  1  0.39325200  0.99959400  0.45273100  1
  O  O7  1  0.66174800  0.99943900  0.74511500  1
  O  O8  1  0.96281200  0.65740100  0.35142600  1
  O  O9  1  0.66564900  0.92039200  0.14832000  1
  O  O10  1  0.00056100  0.66230900  0.74511500  1
  O  O11  1  0.69458900  0.03718800  0.35142600  1
  O  O12  1  0.66217900  0.96136500  0.55378200  1
  O  O13  1  0.07960800  0.74525700  0.14832000  1
  O  O14  1  0.69970200  0.05568900  0.94870900  1
  O  O15  1  0.96835600  0.28013000  0.04390000  1
  O  O16  1  0.60423900  0.61130400  0.84724700  1
  O  O17  1  0.00040600  0.39365800  0.45273100  1
  O  O18  1  0.95328200  0.26957600  0.65360400  1
  O  O19  1  0.67309100  0.71184400  0.25257400  1
  O  O20  1  0.00706400  0.39576100  0.84724700  1
  O  O21  1  0.73042400  0.68370600  0.65360400  1
  O  O22  1  0.03875300  0.32690900  0.25257400  1
  O  O23  1  0.29918600  0.33782100  0.55378200  1
  O  O24  1  0.94431100  0.64401300  0.94870900  1
  O  O25  1  0.35598700  0.30029800  0.94870900  1
  O  O26  1  0.03863500  0.70081400  0.55378200  1
  O  O27  1  0.28815600  0.96124700  0.25257400  1
  O  O28  1  0.31629400  0.04671800  0.65360400  1
  O  O29  1  0.38869600  0.99293600  0.84724700  1
loop_
_geom_bond_atom_site_label_1
_geom_bond_atom_site_label_2
_geom_bond_distance
_geom_bond_site_symmetry_2
Li0 O22 2.010643 1_655
Li0 O27 2.010646 1_545
Li0 O19 2.010648 1_555
Li0 O11 2.430875 1_555
Li0 O8 2.430877 1_555
Li0 O1 2.430879 1_555
Li1 O15 2.130402 1_455
Li1 O5 2.130402 1_555
Li1 O4 2.130402 1_565
Li1 O13 2.241947 1_555
Li1 O9 2.241949 1_555
Li1 O0 2.241950 1_555
Li2 O8 1.962216 1_455
Li2 O11 1.962219 1_565
Li2 O1 1.962221 1_555
Li2 O6 2.467925 1_555
Li2 O17 2.467926 1_555
Li2 O3 2.467928 1_555
Li3 O28 2.099170 1_565
Li3 O18 2.099173 1_455
Li3 O21 2.099175 1_555
Li3 O26 2.397810 1_555
Li3 O12 2.397812 1_555
Li3 O23 2.397813 1_555
Li4 O24 2.046387 1_455
Li4 O14 2.046389 1_565
Li4 O25 2.046391 1_555
Li4 O20 2.390616 1_555
Li4 O29 2.390616 1_555
Li4 O16 2.390616 1_555
Li5 O12 1.998268 1_545
Li5 O26 1.998271 1_655
Li5 O23 1.998273 1_555
Li5 O17 2.418547 1_655
Li5 O6 2.418548 1_545
Li5 O3 2.418550 1_555
Li6 O19 1.991384 1_445
Li6 O22 1.991384 1_555
Li6 O27 1.991384 1_545
Li6 O0 2.030375 1_555
Li6 O9 2.030375 1_445
Li6 O13 2.030375 1_545
Nb0 O17 1.964902 1_655
Nb0 O6 1.964903 1_545
Nb0 O3 1.964906 1_555
Nb0 O11 2.042869 1_555
Nb0 O8 2.042871 1_555
Nb0 O1 2.042873 1_555
Nb1 O13 2.026498 1_555
Nb1 O9 2.026501 1_555
Nb1 O0 2.026502 1_555
Nb1 O27 2.031410 1_555
Nb1 O22 2.031412 1_555
Nb1 O19 2.031414 1_555
Nb2 O6 1.972987 1_555
Nb2 O17 1.972989 1_555
Nb2 O3 1.972992 1_555
Nb2 O26 2.036586 1_555
Nb2 O12 2.036589 1_555
Nb2 O23 2.036590 1_555
Nb3 O20 1.934146 1_555
Nb3 O29 1.934146 1_555
Nb3 O16 1.934146 1_555
Nb3 O10 2.142487 1_555
Nb3 O7 2.142489 1_555
Nb3 O2 2.142491 1_555
Nb4 O1 1.967219 1_555
Nb4 O8 1.967219 1_445
Nb4 O11 1.967219 1_455
Nb4 O19 2.082728 1_445
Nb4 O22 2.082728 1_555
Nb4 O27 2.082728 1_545
O0 Ti6 1.879120 1_555
O2 Ti4 1.897147 1_555
O2 Ti2 2.142384 1_555
O4 Ti1 1.879468 1_555
O4 Ti6 2.108288 1_555
O4 Ti5 2.138185 1_554
O5 Ti1 1.879472 1_555
O5 Ti6 2.108290 1_665
O5 Ti5 2.138187 1_664
O7 Ti4 1.897147 1_665
O7 Ti2 2.142380 1_565
O9 Ti6 1.879120 1_665
O10 Ti4 1.897147 1_565
O10 Ti2 2.142382 1_455
O12 Ti3 1.867449 1_665
O13 Ti6 1.879120 1_565
O14 Ti5 1.882763 1_655
O14 Ti1 2.136318 1_556
O14 Ti0 2.140772 1_555
O15 Ti1 1.879462 1_555
O15 Ti6 2.108292 1_655
O15 Ti5 2.138189 1_654
O16 Ti0 1.862938 1_555
O18 Ti2 1.893797 1_555
O18 Ti4 2.098476 1_655
O18 Ti3 2.149850 1_655
O20 Ti0 1.862929 1_455
O21 Ti2 1.893801 1_555
O21 Ti4 2.098476 1_665
O21 Ti3 2.149850 1_665
O23 Ti3 1.867449 1_555
O24 Ti5 1.882763 1_665
O24 Ti1 2.136320 1_556
O24 Ti0 2.140774 1_555
O25 Ti5 1.882763 1_555
O25 Ti1 2.136321 1_556
O25 Ti0 2.140775 1_555
O26 Ti3 1.867449 1_565
O28 Ti2 1.893799 1_555
O28 Ti4 2.098476 1_555
O28 Ti3 2.149850 1_555
O29 Ti0 1.862932 1_565
