# generated using pymatgen
data_Mn3Ni2P6WO24
_symmetry_space_group_name_H-M   'P 1'
_cell_length_a   8.59701052
_cell_length_b   8.59701052
_cell_length_c   8.59700998
_cell_angle_alpha   60.89731364
_cell_angle_beta   60.89731364
_cell_angle_gamma   60.89731308
_symmetry_Int_Tables_number   1
_chemical_formula_structural   Mn3Ni2P6WO24
_chemical_formula_sum   'Mn3 Ni2 P6 W1 O24'
_cell_volume   458.37791318
_cell_formula_units_Z   1
loop_
 _symmetry_equiv_pos_site_id
 _symmetry_equiv_pos_as_xyz
  1  'x, y, z'
loop_
 _atom_site_type_symbol
 _atom_site_label
 _atom_site_symmetry_multiplicity
 _atom_site_fract_x
 _atom_site_fract_y
 _atom_site_fract_z
 _atom_site_occupancy
  Mn  Mn0  1  0.35718500  0.35718500  0.35718500  1
  Mn  Mn1  1  0.14560800  0.14560800  0.14560800  1
  Mn  Mn2  1  0.64334500  0.64334500  0.64334500  1
  Ni  Ni0  1  0.00765600  0.00765600  0.00765600  1
  Ni  Ni1  1  0.50112300  0.50112300  0.50112300  1
  P  P0  1  0.44979700  0.74743600  0.04770600  1
  P  P1  1  0.74743600  0.04770600  0.44979700  1
  P  P2  1  0.04770600  0.44979700  0.74743600  1
  P  P3  1  0.95078100  0.54017500  0.25726700  1
  P  P4  1  0.25726700  0.95078100  0.54017500  1
  P  P5  1  0.54017500  0.25726700  0.95078100  1
  W  W0  1  0.85760500  0.85760500  0.85760500  1
  O  O0  1  0.68126500  0.89359200  0.49266400  1
  O  O1  1  0.89359200  0.49266400  0.68126500  1
  O  O2  1  0.49266400  0.68126500  0.89359200  1
  O  O3  1  0.25877400  0.91064600  0.05856100  1
  O  O4  1  0.61683800  0.82563900  0.98323300  1
  O  O5  1  0.45486200  0.59889400  0.24033700  1
  O  O6  1  0.91064600  0.05856100  0.25877400  1
  O  O7  1  0.59889400  0.24033700  0.45486200  1
  O  O8  1  0.98832800  0.39012600  0.18647500  1
  O  O9  1  0.24033700  0.45486200  0.59889400  1
  O  O10  1  0.92550800  0.74451800  0.08800600  1
  O  O11  1  0.18647500  0.98832800  0.39012600  1
  O  O12  1  0.82563900  0.98323300  0.61683800  1
  O  O13  1  0.05856100  0.25877400  0.91064600  1
  O  O14  1  0.75246100  0.56253600  0.40768200  1
  O  O15  1  0.98323300  0.61683800  0.82563900  1
  O  O16  1  0.40768200  0.75246100  0.56253600  1
  O  O17  1  0.08800600  0.92550800  0.74451800  1
  O  O18  1  0.56253600  0.40768200  0.75246100  1
  O  O19  1  0.39012600  0.18647500  0.98832800  1
  O  O20  1  0.74451800  0.08800600  0.92550800  1
  O  O21  1  0.52087800  0.30751100  0.10495500  1
  O  O22  1  0.10495500  0.52087800  0.30751100  1
  O  O23  1  0.30751100  0.10495500  0.52087800  1
loop_
_geom_bond_atom_site_label_1
_geom_bond_atom_site_label_2
_geom_bond_distance
_geom_bond_site_symmetry_2
Mn0 O21 2.052467 1_555
Mn0 O22 2.052467 1_555
Mn0 O23 2.052467 1_555
Mn0 O9 2.208739 1_555
Mn0 O7 2.208739 1_555
Mn0 O5 2.208739 1_555
Mn1 O11 1.965207 1_545
Mn1 O8 1.965207 1_455
Mn1 O19 1.965207 1_554
Mn1 O13 2.106509 1_554
Mn1 O3 2.106509 1_545
Mn1 O6 2.106509 1_455
Mn2 O2 1.993299 1_555
Mn2 O1 1.993299 1_555
Mn2 O0 1.993300 1_555
Mn2 O14 2.086560 1_555
Mn2 O16 2.086560 1_555
Mn2 O18 2.086560 1_555
Ni0 O6 2.088143 1_455
Ni0 O3 2.088144 1_545
Ni0 O13 2.088144 1_554
Ni0 O17 2.377590 1_544
Ni0 O20 2.377590 1_454
Ni0 O10 2.377590 1_445
Ni1 O5 2.144808 1_555
Ni1 O7 2.144808 1_555
Ni1 O9 2.144808 1_555
Ni1 O18 2.145138 1_555
Ni1 O16 2.145138 1_555
Ni1 O14 2.145138 1_555
O0 P1 1.506359 1_565
O1 P2 1.506359 1_655
O2 P0 1.506358 1_556
O3 P0 1.552803 1_555
O4 P0 1.619836 1_556
O4 W0 1.901675 1_555
O5 P0 1.527758 1_555
O6 P1 1.552803 1_555
O7 P1 1.527758 1_555
O8 P3 1.518604 1_555
O9 P2 1.527758 1_555
O10 P3 1.643282 1_555
O10 W0 1.977081 1_554
O11 P4 1.518604 1_555
O12 P1 1.619836 1_565
O12 W0 1.901675 1_555
O13 P2 1.552803 1_555
O14 P3 1.547366 1_555
O15 P2 1.619836 1_655
O15 W0 1.901675 1_555
O16 P4 1.547366 1_555
O17 P4 1.643282 1_555
O17 W0 1.977081 1_455
O18 P5 1.547366 1_555
O19 P5 1.518604 1_555
O20 P5 1.643282 1_555
O20 W0 1.977081 1_545
O21 P5 1.498065 1_554
O22 P3 1.498065 1_455
O23 P4 1.498065 1_545
