# generated using pymatgen
data_LiFe2(BO3)2
_symmetry_space_group_name_H-M   'P 1'
_cell_length_a   5.30424700
_cell_length_b   9.06492037
_cell_length_c   10.18466977
_cell_angle_alpha   89.20820110
_cell_angle_beta   88.67132395
_cell_angle_gamma   89.47927612
_symmetry_Int_Tables_number   1
_chemical_formula_structural   LiFe2(BO3)2
_chemical_formula_sum   'Li4 Fe8 B8 O24'
_cell_volume   489.50791926
_cell_formula_units_Z   4
loop_
 _symmetry_equiv_pos_site_id
 _symmetry_equiv_pos_as_xyz
  1  'x, y, z'
loop_
 _atom_site_type_symbol
 _atom_site_label
 _atom_site_symmetry_multiplicity
 _atom_site_fract_x
 _atom_site_fract_y
 _atom_site_fract_z
 _atom_site_occupancy
  Li  Li0  1  0.66151800  0.98741300  0.85078000  1
  Li  Li1  1  0.34680800  0.00138800  0.12967300  1
  Li  Li2  1  0.85328500  0.50122500  0.58931100  1
  Li  Li3  1  0.16025600  0.49420200  0.85177700  1
  Fe  Fe0  1  0.84287100  0.83449000  0.12019500  1
  Fe  Fe1  1  0.15771900  0.82887700  0.36438300  1
  Fe  Fe2  1  0.66231700  0.65513900  0.87777600  1
  Fe  Fe3  1  0.34807700  0.67549300  0.61992100  1
  Fe  Fe4  1  0.65896200  0.33759900  0.36284900  1
  Fe  Fe5  1  0.84331500  0.16466300  0.62036700  1
  Fe  Fe6  1  0.33175800  0.33960400  0.12428600  1
  Fe  Fe7  1  0.16041700  0.15759400  0.87227700  1
  B  B0  1  0.84062900  0.82928600  0.62370900  1
  B  B1  1  0.67756400  0.66893000  0.38222400  1
  B  B2  1  0.16687600  0.83179400  0.86899800  1
  B  B3  1  0.34505400  0.66690500  0.12113000  1
  B  B4  1  0.66284500  0.32784300  0.86607000  1
  B  B5  1  0.33604400  0.33678400  0.62821700  1
  B  B6  1  0.82560400  0.17029600  0.11440300  1
  B  B7  1  0.15794600  0.16508500  0.36446400  1
  O  O0  1  0.74012000  0.96489700  0.65054300  1
  O  O1  1  0.91314100  0.82710900  0.90159800  1
  O  O2  1  0.30705100  0.95578000  0.88719800  1
  O  O3  1  0.80672200  0.79005500  0.33190100  1
  O  O4  1  0.70875500  0.69940200  0.65385000  1
  O  O5  1  0.22202500  0.79489400  0.16905100  1
  O  O6  1  0.08223000  0.81410900  0.56787000  1
  O  O7  1  0.58851100  0.67974900  0.07521200  1
  O  O8  1  0.78614800  0.53498000  0.40126600  1
  O  O9  1  0.42344300  0.69220400  0.42385900  1
  O  O10  1  0.28541300  0.70261200  0.81804100  1
  O  O11  1  0.80388900  0.45275400  0.85491700  1
  O  O12  1  0.21766100  0.53614900  0.11591500  1
  O  O13  1  0.69280200  0.29674500  0.15228000  1
  O  O14  1  0.58824100  0.32216700  0.58981300  1
  O  O15  1  0.22482600  0.47590200  0.63765900  1
  O  O16  1  0.40981600  0.33135300  0.91209400  1
  O  O17  1  0.92555700  0.18333300  0.43026700  1
  O  O18  1  0.77194500  0.19248900  0.82647300  1
  O  O19  1  0.28892800  0.28961500  0.31988100  1
  O  O20  1  0.19125900  0.21507900  0.66303300  1
  O  O21  1  0.70667300  0.03875500  0.10332700  1
  O  O22  1  0.08740700  0.18113600  0.08390200  1
  O  O23  1  0.25471800  0.02781000  0.33875300  1
loop_
_geom_bond_atom_site_label_1
_geom_bond_atom_site_label_2
_geom_bond_distance
_geom_bond_site_symmetry_2
Li0 O2 1.931164 1_555
Li0 O18 1.964838 1_565
Li0 O1 2.033922 1_555
Li0 O0 2.084455 1_555
Li1 O21 1.953405 1_555
Li1 O5 2.022923 1_545
Li1 O22 2.175645 1_555
Li1 O23 2.189541 1_555
Li1 O2 2.523474 1_544
Li2 O8 1.975296 1_555
Li2 O15 2.052475 1_655
Li2 O4 2.057003 1_555
Li2 O14 2.156846 1_555
Li3 O11 1.930037 1_455
Li3 O10 2.030320 1_555
Li3 O16 2.070257 1_555
Li3 O15 2.207871 1_555
Fe0 O21 1.988129 1_565
Fe0 O7 2.019563 1_555
Fe0 O5 2.109361 1_655
Fe0 O3 2.192316 1_555
Fe0 O1 2.250592 1_554
Fe1 O23 1.892727 1_565
Fe1 O3 1.934731 1_455
Fe1 O9 1.968649 1_555
Fe1 O5 2.037764 1_555
Fe1 O6 2.104308 1_555
Fe2 O11 1.990610 1_555
Fe2 O7 2.054442 1_556
Fe2 O1 2.078987 1_555
Fe2 O10 2.141406 1_555
Fe2 O4 2.318041 1_555
Fe3 O15 1.934037 1_555
Fe3 O6 1.957655 1_555
Fe3 O4 1.966391 1_555
Fe3 O9 2.031205 1_555
Fe3 O10 2.055115 1_555
Fe4 O8 1.965484 1_555
Fe4 O19 2.072128 1_555
Fe4 O17 2.099808 1_555
Fe4 O13 2.184368 1_555
Fe4 O14 2.335673 1_555
Fe5 O0 1.915236 1_545
Fe5 O20 1.965164 1_655
Fe5 O17 1.980041 1_555
Fe5 O14 1.984443 1_555
Fe5 O18 2.142264 1_555
Fe6 O12 1.877887 1_555
Fe6 O13 1.976979 1_555
Fe6 O22 1.996863 1_555
Fe6 O19 2.044806 1_555
Fe6 O16 2.193127 1_554
Fe7 O2 1.986651 1_545
Fe7 O16 2.115615 1_555
Fe7 O18 2.142943 1_455
Fe7 O20 2.189635 1_555
Fe7 O22 2.193962 1_556
B0 O0 1.364080 1_555
B0 O6 1.396345 1_655
B0 O4 1.401709 1_555
B1 O8 1.352661 1_555
B1 O3 1.385438 1_555
B1 O9 1.418452 1_555
B2 O2 1.370302 1_555
B2 O1 1.379616 1_455
B2 O10 1.422760 1_555
B3 O7 1.368606 1_555
B3 O12 1.371971 1_555
B3 O5 1.413246 1_555
B4 O11 1.364781 1_555
B4 O16 1.411559 1_555
B4 O18 1.411713 1_555
B5 O20 1.387311 1_555
B5 O14 1.390672 1_555
B5 O15 1.390977 1_555
B6 O21 1.361327 1_555
B6 O13 1.394219 1_555
B6 O22 1.419924 1_655
B7 O23 1.368105 1_555
B7 O19 1.395936 1_555
B7 O17 1.398920 1_455
