# generated using pymatgen
data_Na5LiMn2P2(CO7)2
_symmetry_space_group_name_H-M   'P 1'
_cell_length_a   6.76709300
_cell_length_b   8.98679040
_cell_length_c   10.37496038
_cell_angle_alpha   90.03479200
_cell_angle_beta   90.30921765
_cell_angle_gamma   90.60945083
_symmetry_Int_Tables_number   1
_chemical_formula_structural   Na5LiMn2P2(CO7)2
_chemical_formula_sum   'Na10 Li2 Mn4 P4 C4 O28'
_cell_volume   630.90245091
_cell_formula_units_Z   2
loop_
 _symmetry_equiv_pos_site_id
 _symmetry_equiv_pos_as_xyz
  1  'x, y, z'
loop_
 _atom_site_type_symbol
 _atom_site_label
 _atom_site_symmetry_multiplicity
 _atom_site_fract_x
 _atom_site_fract_y
 _atom_site_fract_z
 _atom_site_occupancy
  Na  Na0  1  0.24554400  0.91669400  0.88056100  1
  Na  Na1  1  0.24786200  0.91717600  0.37926600  1
  Na  Na2  1  0.00120100  0.74190200  0.62343100  1
  Na  Na3  1  0.49874500  0.74104300  0.62330000  1
  Na  Na4  1  0.49837200  0.74177100  0.12388400  1
  Na  Na5  1  0.50162800  0.25822900  0.87611600  1
  Na  Na6  1  0.50125500  0.25895700  0.37670000  1
  Na  Na7  1  0.99879900  0.25809800  0.37656900  1
  Na  Na8  1  0.75213800  0.08282400  0.62073400  1
  Na  Na9  1  0.75445600  0.08330600  0.11943900  1
  Li  Li0  1  0.00947100  0.73144600  0.12062400  1
  Li  Li1  1  0.99052900  0.26855400  0.87937600  1
  Mn  Mn0  1  0.75174300  0.63862700  0.89028200  1
  Mn  Mn1  1  0.75090000  0.63832000  0.38845100  1
  Mn  Mn2  1  0.24910000  0.36168000  0.61154900  1
  Mn  Mn3  1  0.24825700  0.36137300  0.10971800  1
  P  P0  1  0.24595900  0.58584000  0.85211700  1
  P  P1  1  0.24688000  0.59004200  0.34950400  1
  P  P2  1  0.75312000  0.40995800  0.65049600  1
  P  P3  1  0.75404100  0.41416000  0.14788300  1
  C  C0  1  0.75691500  0.94362900  0.86889100  1
  C  C1  1  0.75149200  0.93927600  0.36678000  1
  C  C2  1  0.24850800  0.06072400  0.63322000  1
  C  C3  1  0.24308500  0.05637100  0.13110900  1
  O  O0  1  0.25178400  0.91693200  0.64413600  1
  O  O1  1  0.23280900  0.91185500  0.14074900  1
  O  O2  1  0.75161700  0.87983200  0.98136600  1
  O  O3  1  0.75123800  0.87765400  0.48044900  1
  O  O4  1  0.75121300  0.86050500  0.76566400  1
  O  O5  1  0.75474200  0.85512800  0.26437000  1
  O  O6  1  0.06754400  0.68104500  0.89646700  1
  O  O7  1  0.43483300  0.67323900  0.89517300  1
  O  O8  1  0.06628500  0.68111200  0.39509100  1
  O  O9  1  0.43428700  0.68171000  0.38868700  1
  O  O10  1  0.24589100  0.57274200  0.70200600  1
  O  O11  1  0.74967400  0.56802400  0.59089800  1
  O  O12  1  0.23706200  0.57591800  0.19879300  1
  O  O13  1  0.76433600  0.57464200  0.09163700  1
  O  O14  1  0.23566400  0.42535800  0.90836300  1
  O  O15  1  0.76293800  0.42408200  0.80120700  1
  O  O16  1  0.25032600  0.43197600  0.40910200  1
  O  O17  1  0.75410900  0.42725800  0.29799400  1
  O  O18  1  0.56571300  0.31829000  0.61131300  1
  O  O19  1  0.93371500  0.31888800  0.60490900  1
  O  O20  1  0.56516700  0.32676100  0.10482700  1
  O  O21  1  0.93245600  0.31895500  0.10353300  1
  O  O22  1  0.24525800  0.14487200  0.73563000  1
  O  O23  1  0.24878700  0.13949500  0.23433600  1
  O  O24  1  0.24876200  0.12234600  0.51955100  1
  O  O25  1  0.24838300  0.12016800  0.01863400  1
  O  O26  1  0.76719100  0.08814500  0.85925100  1
  O  O27  1  0.74821600  0.08306800  0.35586400  1
loop_
_geom_bond_atom_site_label_1
_geom_bond_atom_site_label_2
_geom_bond_distance
_geom_bond_site_symmetry_2
Na0 O25 2.322047 1_566
Na0 O6 2.431303 1_555
Na0 O0 2.453493 1_555
Na0 O22 2.543558 1_565
Na0 O7 2.551180 1_555
Na0 O1 2.701642 1_556
Na1 O24 2.348287 1_565
Na1 O8 2.446325 1_555
Na1 O1 2.476563 1_555
Na1 O9 2.476812 1_555
Na1 O23 2.501241 1_565
Na1 O0 2.748003 1_555
Na2 O0 2.309701 1_555
Na2 O11 2.321509 1_455
Na2 O10 2.399560 1_555
Na2 O8 2.473760 1_555
Na2 O4 2.497769 1_455
Na2 O3 2.563040 1_455
Na3 O0 2.323336 1_555
Na3 O11 2.340039 1_555
Na3 O10 2.417384 1_555
Na3 O4 2.486939 1_555
Na3 O9 2.526152 1_555
Na3 O3 2.570633 1_555
Na3 O7 2.919621 1_555
Na4 O1 2.378653 1_555
Na4 O13 2.381277 1_555
Na4 O12 2.431593 1_555
Na4 O5 2.470892 1_555
Na4 O7 2.485210 1_554
Na4 O2 2.578165 1_554
Na4 O9 2.834935 1_555
Na5 O26 2.378653 1_555
Na5 O14 2.381277 1_555
Na5 O15 2.431593 1_555
Na5 O22 2.470892 1_555
Na5 O20 2.485210 1_556
Na5 O25 2.578165 1_556
Na5 O18 2.834935 1_555
Na6 O27 2.323336 1_555
Na6 O16 2.340039 1_555
Na6 O17 2.417384 1_555
Na6 O23 2.486939 1_555
Na6 O18 2.526152 1_555
Na6 O24 2.570633 1_555
Na6 O20 2.919621 1_555
Na7 O27 2.309701 1_555
Na7 O16 2.321509 1_655
Na7 O17 2.399560 1_555
Na7 O19 2.473760 1_555
Na7 O23 2.497769 1_655
Na7 O24 2.563040 1_655
Na8 O3 2.348287 1_545
Na8 O19 2.446325 1_555
Na8 O26 2.476563 1_555
Na8 O18 2.476812 1_555
Na8 O4 2.501241 1_545
Na8 O27 2.748003 1_555
Na9 O2 2.322047 1_544
Na9 O21 2.431303 1_555
Na9 O27 2.453493 1_555
Na9 O5 2.543558 1_545
Na9 O20 2.551180 1_555
Na9 O26 2.701642 1_554
Li0 O13 2.184571 1_455
Li0 O1 2.213692 1_555
Li0 O12 2.239859 1_555
Li0 O6 2.404262 1_554
Li0 O5 2.549017 1_455
Li0 O2 2.633453 1_454
Li1 O14 2.184571 1_655
Li1 O26 2.213692 1_555
Li1 O15 2.239859 1_555
Li1 O21 2.404262 1_556
Li1 O22 2.549017 1_655
Li1 O25 2.633453 1_656
Mn0 O15 2.139848 1_555
Mn0 O6 2.167394 1_655
Mn0 O13 2.168553 1_556
Mn0 O7 2.171131 1_555
Mn0 O2 2.364174 1_555
Mn0 O4 2.377136 1_555
Mn1 O17 2.116105 1_555
Mn1 O8 2.165302 1_655
Mn1 O9 2.181835 1_555
Mn1 O11 2.193728 1_555
Mn1 O5 2.335922 1_555
Mn1 O3 2.352560 1_555
Mn2 O10 2.116105 1_555
Mn2 O19 2.165302 1_455
Mn2 O18 2.181835 1_555
Mn2 O16 2.193728 1_555
Mn2 O22 2.335922 1_555
Mn2 O24 2.352560 1_555
Mn3 O12 2.139848 1_555
Mn3 O21 2.167394 1_455
Mn3 O14 2.168553 1_554
Mn3 O20 2.171131 1_555
Mn3 O25 2.364174 1_555
Mn3 O23 2.377136 1_555
C0 O2 1.300973 1_555
C0 O26 1.303788 1_565
C0 O4 1.305559 1_555
C1 O27 1.297664 1_565
C1 O3 1.303169 1_555
C1 O5 1.304181 1_555
C2 O0 1.297664 1_545
C2 O24 1.303169 1_555
C2 O22 1.304181 1_555
C3 O25 1.300973 1_555
C3 O1 1.303788 1_545
C3 O23 1.305559 1_555
O6 P0 1.558505 1_555
O7 P0 1.556317 1_555
O8 P1 1.553737 1_555
O9 P1 1.556934 1_555
O10 P0 1.561764 1_555
O11 P2 1.549944 1_555
O12 P1 1.569679 1_555
O13 P3 1.557145 1_555
O14 P0 1.557145 1_555
O15 P2 1.569679 1_555
O16 P1 1.549944 1_555
O17 P3 1.561764 1_555
O18 P2 1.556934 1_555
O19 P2 1.553737 1_555
O20 P3 1.556317 1_555
O21 P3 1.558505 1_555
