# generated using pymatgen
data_CaH12(IO6)2
_symmetry_space_group_name_H-M   'P 1'
_cell_length_a   13.80171476
_cell_length_b   12.00346045
_cell_length_c   8.16883305
_cell_angle_alpha   84.05092532
_cell_angle_beta   59.88544759
_cell_angle_gamma   36.06362710
_symmetry_Int_Tables_number   1
_chemical_formula_structural   CaH12(IO6)2
_chemical_formula_sum   'Ca2 H24 I4 O24'
_cell_volume   554.93390690
_cell_formula_units_Z   2
loop_
 _symmetry_equiv_pos_site_id
 _symmetry_equiv_pos_as_xyz
  1  'x, y, z'
loop_
 _atom_site_type_symbol
 _atom_site_label
 _atom_site_symmetry_multiplicity
 _atom_site_fract_x
 _atom_site_fract_y
 _atom_site_fract_z
 _atom_site_occupancy
  Ca  Ca0  1  0.43232200  0.06767800  0.06767800  1
  Ca  Ca1  1  0.18232200  0.81767800  0.81767800  1
  H  H0  1  0.87967400  0.88294200  0.16886900  1
  H  H1  1  0.19372100  0.25202100  0.90933600  1
  H  H2  1  0.85909200  0.22485700  0.27260400  1
  H  H3  1  0.46038000  0.98871600  0.69217500  1
  H  H4  1  0.08372900  0.71822400  0.14987200  1
  H  H5  1  0.91866500  0.05948000  0.32897100  1
  H  H6  1  0.92102900  0.55711600  0.33133500  1
  H  H7  1  0.10012800  0.20182500  0.16627100  1
  H  H8  1  0.55782500  0.39127000  0.78962000  1
  H  H9  1  0.97739600  0.60655200  0.39090800  1
  H  H10  1  0.34066400  0.60507700  0.05627900  1
  H  H11  1  0.08113100  0.18148600  0.37032600  1
  H  H12  1  0.36705800  0.37032600  0.18148600  1
  H  H13  1  0.99797900  0.05627900  0.60507700  1
  H  H14  1  0.02514300  0.39090800  0.60655200  1
  H  H15  1  0.26128400  0.78962000  0.39127000  1
  H  H16  1  0.53177600  0.16627100  0.20182500  1
  H  H17  1  0.19052000  0.33133500  0.55711600  1
  H  H18  1  0.69288400  0.32897100  0.05948000  1
  H  H19  1  0.04817500  0.14987200  0.71822400  1
  H  H20  1  0.85873000  0.69217500  0.98871600  1
  H  H21  1  0.64344800  0.27260400  0.22485700  1
  H  H22  1  0.64492300  0.90933600  0.25202100  1
  H  H23  1  0.06851400  0.16886900  0.88294200  1
  I  I0  1  0.37542800  0.34698100  0.65752300  1
  I  I1  1  0.59247700  0.62993200  0.87457200  1
  I  I2  1  0.90301900  0.87457200  0.62993200  1
  I  I3  1  0.62006800  0.65752300  0.34698100  1
  O  O0  1  0.94464400  0.37049500  0.08669000  1
  O  O1  1  0.58064500  0.55370900  0.46834300  1
  O  O2  1  0.04894100  0.75727800  0.05457100  1
  O  O3  1  0.63615000  0.72111200  0.52463100  1
  O  O4  1  0.35438500  0.13656800  0.81615200  1
  O  O5  1  0.99054000  0.05614900  0.20185800  1
  O  O6  1  0.04814200  0.49854600  0.25946000  1
  O  O7  1  0.43384800  0.55710600  0.89561500  1
  O  O8  1  0.72536900  0.13189300  0.61385000  1
  O  O9  1  0.19542900  0.11078900  0.20105900  1
  O  O10  1  0.78165700  0.85269800  0.66935500  1
  O  O11  1  0.16331000  0.65182900  0.30535600  1
  O  O12  1  0.87950500  0.30535600  0.65182900  1
  O  O13  1  0.69629100  0.66935500  0.85269800  1
  O  O14  1  0.49272200  0.20105900  0.11078900  1
  O  O15  1  0.52888800  0.61385000  0.13189300  1
  O  O16  1  0.11343200  0.89561500  0.55710600  1
  O  O17  1  0.19385100  0.25946100  0.49854600  1
  O  O18  1  0.75145400  0.20185800  0.05614900  1
  O  O19  1  0.69289400  0.81615200  0.13656800  1
  O  O20  1  0.11810700  0.52463100  0.72111200  1
  O  O21  1  0.13921100  0.05457100  0.75727800  1
  O  O22  1  0.39730200  0.46834300  0.55370900  1
  O  O23  1  0.59817100  0.08669000  0.37049500  1
loop_
_geom_bond_atom_site_label_1
_geom_bond_atom_site_label_2
_geom_bond_distance
_geom_bond_site_symmetry_2
Ca0 O14 2.439571 1_555
Ca0 O9 2.439584 1_555
Ca0 O17 2.515132 1_555
Ca0 O6 2.515134 1_555
Ca0 O13 2.525032 1_544
Ca0 O10 2.525038 1_544
Ca0 O19 2.547554 1_545
Ca0 O4 2.547562 1_554
Ca1 O2 2.439574 1_556
Ca1 O21 2.439582 1_565
Ca1 O18 2.515132 1_466
Ca1 O5 2.515139 1_466
Ca1 O1 2.525033 1_555
Ca1 O22 2.525041 1_555
Ca1 O16 2.547553 1_555
Ca1 O7 2.547560 1_555
H0 O2 1.005348 1_655
H0 O23 1.685410 1_565
H1 O4 0.986762 1_555
H2 O5 0.988470 1_555
H3 O4 1.001928 1_565
H3 O3 1.748600 1_555
H4 O2 0.995933 1_555
H5 O5 0.987279 1_555
H6 O6 0.987271 1_655
H7 O9 0.995933 1_555
H8 O7 1.001944 1_555
H8 O8 1.748591 1_555
H9 O6 0.988470 1_655
H10 O7 0.986770 1_554
H11 O9 1.005342 1_555
H11 O12 1.685414 1_455
H12 O14 1.005347 1_555
H12 O11 1.685411 1_555
H13 O16 0.986765 1_645
H14 O17 0.988473 1_555
H15 O16 1.001935 1_555
H15 O15 1.748598 1_555
H16 O14 0.995941 1_555
H17 O17 0.987273 1_555
H18 O18 0.987273 1_555
H19 O21 0.995940 1_555
H20 O19 1.001941 1_556
H20 O20 1.748594 1_655
H21 O18 0.988470 1_555
H22 O19 0.986782 1_555
H23 O21 1.005331 1_555
H23 O0 1.685419 1_456
I0 O22 1.769325 1_555
I0 O23 1.861966 1_555
I0 O20 1.888007 1_555
I1 O13 1.769336 1_555
I1 O12 1.861966 1_555
I1 O15 1.888007 1_556
I2 O10 1.769323 1_555
I2 O11 1.861966 1_655
I2 O8 1.888007 1_565
I3 O1 1.769334 1_555
I3 O0 1.861966 1_555
I3 O3 1.888007 1_555
