# generated using pymatgen
data_Dy2TeO6
_symmetry_space_group_name_H-M   'P 1'
_cell_length_a   9.03350836
_cell_length_b   9.03348706
_cell_length_c   5.18462468
_cell_angle_alpha   89.99950538
_cell_angle_beta   89.99920984
_cell_angle_gamma   119.99894641
_symmetry_Int_Tables_number   1
_chemical_formula_structural   Dy2TeO6
_chemical_formula_sum   'Dy6 Te3 O18'
_cell_volume   366.40757449
_cell_formula_units_Z   3
loop_
 _symmetry_equiv_pos_site_id
 _symmetry_equiv_pos_as_xyz
  1  'x, y, z'
loop_
 _atom_site_type_symbol
 _atom_site_label
 _atom_site_symmetry_multiplicity
 _atom_site_fract_x
 _atom_site_fract_y
 _atom_site_fract_z
 _atom_site_occupancy
  Dy  Dy0  1  -0.00000335  0.61621657  -0.00000077  1
  Dy  Dy1  1  0.00000115  0.27947672  0.50000013  1
  Dy  Dy2  1  0.38377652  0.38378179  -0.00000756  1
  Dy  Dy3  1  0.27948326  0.00000660  0.50001308  1
  Dy  Dy4  1  0.72051739  0.72052804  0.49999991  1
  Dy  Dy5  1  0.61622273  0.00000332  -0.00000112  1
  Te  Te0  1  0.33333344  0.66665719  0.49454535  1
  Te  Te1  1  0.00001726  -0.00002208  0.00001398  1
  Te  Te2  1  0.66667965  0.33333571  0.50544038  1
  O  O0  1  0.07540748  0.87638384  0.78876016  1
  O  O1  1  0.22788779  0.76297620  0.28069229  1
  O  O2  1  0.13350462  0.54479331  0.70725197  1
  O  O3  1  0.41127162  0.86648745  0.70726739  1
  O  O4  1  0.23703321  0.46492426  0.28069701  1
  O  O5  1  0.12360684  0.19900657  0.78875801  1
  O  O6  1  0.19901887  0.12360102  0.21123778  1
  O  O7  1  0.53506931  0.77212009  0.28069365  1
  O  O8  1  0.45519172  0.58871706  0.70725649  1
  O  O9  1  0.80098585  0.92458822  0.78877016  1
  O  O10  1  0.46492496  0.23704501  0.71930479  1
  O  O11  1  0.58872152  0.45521878  0.29272754  1
  O  O12  1  0.54480364  0.13352430  0.29273266  1
  O  O13  1  0.77210451  0.53507851  0.71929606  1
  O  O14  1  0.92459588  0.80097731  0.21125015  1
  O  O15  1  0.76296388  0.22788954  0.71929499  1
  O  O16  1  0.86648714  0.41128405  0.29274248  1
  O  O17  1  0.87639311  0.07539859  0.21126203  1
loop_
_geom_bond_atom_site_label_1
_geom_bond_atom_site_label_2
_geom_bond_distance
_geom_bond_site_symmetry_2
Dy0 O16 2.225439 1_455
Dy0 O2 2.225440 1_554
Dy0 O1 2.320449 1_555
Dy0 O13 2.320470 1_454
Dy0 O0 2.363473 1_554
Dy0 O14 2.363475 1_455
Dy1 O17 2.197294 1_455
Dy1 O5 2.197316 1_555
Dy1 O4 2.257657 1_555
Dy1 O15 2.257657 1_455
Dy1 O2 2.337323 1_555
Dy1 O16 2.337329 1_455
Dy2 O8 2.225437 1_554
Dy2 O11 2.225511 1_555
Dy2 O10 2.320321 1_554
Dy2 O4 2.320380 1_555
Dy2 O5 2.363566 1_554
Dy2 O6 2.363579 1_555
Dy3 O6 2.197271 1_555
Dy3 O0 2.197282 1_545
Dy3 O1 2.257677 1_545
Dy3 O10 2.257687 1_555
Dy3 O3 2.337225 1_545
Dy3 O12 2.337385 1_555
Dy4 O9 2.197290 1_555
Dy4 O14 2.197309 1_555
Dy4 O13 2.257652 1_555
Dy4 O7 2.257710 1_555
Dy4 O11 2.337321 1_555
Dy4 O8 2.337365 1_555
Dy5 O12 2.225460 1_555
Dy5 O3 2.225548 1_544
Dy5 O7 2.320323 1_545
Dy5 O15 2.320386 1_554
Dy5 O9 2.363515 1_544
Dy5 O17 2.363620 1_555
O0 Te1 1.915808 1_566
O1 Te0 1.929384 1_555
O2 Te0 1.923387 1_555
O3 Te0 1.923493 1_555
O4 Te0 1.929198 1_555
O5 Te1 1.916073 1_556
O6 Te1 1.915894 1_555
O7 Te0 1.929202 1_555
O8 Te0 1.923217 1_555
O9 Te1 1.916138 1_666
O10 Te2 1.929358 1_555
O11 Te2 1.923492 1_555
O12 Te2 1.923334 1_555
O13 Te2 1.929283 1_555
O14 Te1 1.915836 1_665
O15 Te2 1.929171 1_555
O16 Te2 1.923227 1_555
O17 Te1 1.916170 1_655
