# generated using pymatgen
data_Li2Cr3(CoO6)2
_symmetry_space_group_name_H-M   'P 1'
_cell_length_a   9.14969900
_cell_length_b   9.17571200
_cell_length_c   12.64332700
_cell_angle_alpha   90.00000000
_cell_angle_beta   90.00000000
_cell_angle_gamma   90.00000000
_symmetry_Int_Tables_number   1
_chemical_formula_structural   Li2Cr3(CoO6)2
_chemical_formula_sum   'Li8 Cr12 Co8 O48'
_cell_volume   1061.47055509
_cell_formula_units_Z   4
loop_
 _symmetry_equiv_pos_site_id
 _symmetry_equiv_pos_as_xyz
  1  'x, y, z'
loop_
 _atom_site_type_symbol
 _atom_site_label
 _atom_site_symmetry_multiplicity
 _atom_site_fract_x
 _atom_site_fract_y
 _atom_site_fract_z
 _atom_site_occupancy
  Li  Li0  1  0.22044300  0.27174700  0.68689400  1
  Li  Li1  1  0.77955700  0.77174700  0.68689400  1
  Li  Li2  1  0.27955700  0.77174700  0.81310600  1
  Li  Li3  1  0.72044300  0.27174700  0.81310600  1
  Li  Li4  1  0.27955700  0.72825300  0.18689400  1
  Li  Li5  1  0.72044300  0.22825300  0.18689400  1
  Li  Li6  1  0.22044300  0.22825300  0.31310600  1
  Li  Li7  1  0.77955700  0.72825300  0.31310600  1
  Cr  Cr0  1  0.46268500  0.25000000  0.50000000  1
  Cr  Cr1  1  0.53731500  0.75000000  0.50000000  1
  Cr  Cr2  1  0.10053900  0.60577800  0.64337100  1
  Cr  Cr3  1  0.89946100  0.10577800  0.64337100  1
  Cr  Cr4  1  0.39946100  0.10577800  0.85662900  1
  Cr  Cr5  1  0.60053900  0.60577800  0.85662900  1
  Cr  Cr6  1  0.03731500  0.75000000  0.00000000  1
  Cr  Cr7  1  0.96268500  0.25000000  0.00000000  1
  Cr  Cr8  1  0.39946100  0.39422200  0.14337100  1
  Cr  Cr9  1  0.60053900  0.89422200  0.14337100  1
  Cr  Cr10  1  0.10053900  0.89422200  0.35662900  1
  Cr  Cr11  1  0.89946100  0.39422200  0.35662900  1
  Co  Co0  1  0.25316400  0.96697500  0.61912600  1
  Co  Co1  1  0.74683600  0.46697500  0.61912600  1
  Co  Co2  1  0.24683600  0.46697500  0.88087400  1
  Co  Co3  1  0.75316400  0.96697500  0.88087400  1
  Co  Co4  1  0.24683600  0.03302500  0.11912600  1
  Co  Co5  1  0.75316400  0.53302500  0.11912600  1
  Co  Co6  1  0.25316400  0.53302500  0.38087400  1
  Co  Co7  1  0.74683600  0.03302500  0.38087400  1
  O  O0  1  0.14363900  0.56797700  0.52086300  1
  O  O1  1  0.85636100  0.06797700  0.52086300  1
  O  O2  1  0.56514300  0.36838100  0.56438700  1
  O  O3  1  0.43485700  0.86838100  0.56438700  1
  O  O4  1  0.35431000  0.16504200  0.58858300  1
  O  O5  1  0.64569000  0.66504200  0.58858300  1
  O  O6  1  0.08244600  0.10717400  0.65934500  1
  O  O7  1  0.91755400  0.60717400  0.65934500  1
  O  O8  1  0.16716600  0.76946500  0.67608600  1
  O  O9  1  0.83283400  0.26946500  0.67608600  1
  O  O10  1  0.17309100  0.47671200  0.72267500  1
  O  O11  1  0.82690900  0.97671200  0.72267500  1
  O  O12  1  0.32690900  0.97671200  0.77732500  1
  O  O13  1  0.67309100  0.47671200  0.77732500  1
  O  O14  1  0.66716600  0.76946500  0.82391400  1
  O  O15  1  0.33283400  0.26946500  0.82391400  1
  O  O16  1  0.41755400  0.60717400  0.84065500  1
  O  O17  1  0.58244600  0.10717400  0.84065500  1
  O  O18  1  0.14569000  0.66504200  0.91141700  1
  O  O19  1  0.85431000  0.16504200  0.91141700  1
  O  O20  1  0.06514300  0.36838100  0.93561300  1
  O  O21  1  0.93485700  0.86838100  0.93561300  1
  O  O22  1  0.64363900  0.56797700  0.97913700  1
  O  O23  1  0.35636100  0.06797700  0.97913700  1
  O  O24  1  0.35636100  0.43202300  0.02086300  1
  O  O25  1  0.64363900  0.93202300  0.02086300  1
  O  O26  1  0.06514300  0.13161900  0.06438700  1
  O  O27  1  0.93485700  0.63161900  0.06438700  1
  O  O28  1  0.14569000  0.83495800  0.08858300  1
  O  O29  1  0.85431000  0.33495800  0.08858300  1
  O  O30  1  0.41755400  0.89282600  0.15934500  1
  O  O31  1  0.58244600  0.39282600  0.15934500  1
  O  O32  1  0.33283400  0.23053500  0.17608600  1
  O  O33  1  0.66716600  0.73053500  0.17608600  1
  O  O34  1  0.32690900  0.52328800  0.22267500  1
  O  O35  1  0.67309100  0.02328800  0.22267500  1
  O  O36  1  0.17309100  0.02328800  0.27732500  1
  O  O37  1  0.82690900  0.52328800  0.27732500  1
  O  O38  1  0.16716600  0.73053500  0.32391400  1
  O  O39  1  0.83283400  0.23053500  0.32391400  1
  O  O40  1  0.08244600  0.39282600  0.34065500  1
  O  O41  1  0.91755400  0.89282600  0.34065500  1
  O  O42  1  0.35431000  0.33495800  0.41141700  1
  O  O43  1  0.64569000  0.83495800  0.41141700  1
  O  O44  1  0.43485700  0.63161900  0.43561300  1
  O  O45  1  0.56514300  0.13161900  0.43561300  1
  O  O46  1  0.14363900  0.93202300  0.47913700  1
  O  O47  1  0.85636100  0.43202300  0.47913700  1
loop_
_geom_bond_atom_site_label_1
_geom_bond_atom_site_label_2
_geom_bond_distance
_geom_bond_site_symmetry_2
Li0 O10 1.982272 1_555
Li0 O6 1.998970 1_555
Li0 O4 2.000965 1_555
Li0 O15 2.014721 1_555
Li1 O11 1.982272 1_555
Li1 O7 1.998970 1_555
Li1 O5 2.000965 1_555
Li1 O14 2.014721 1_555
Li2 O12 1.982272 1_555
Li2 O16 1.998970 1_555
Li2 O18 2.000965 1_555
Li2 O8 2.014721 1_555
Li3 O13 1.982272 1_555
Li3 O17 1.998970 1_555
Li3 O19 2.000965 1_555
Li3 O9 2.014721 1_555
Li4 O34 1.982272 1_555
Li4 O30 1.998970 1_555
Li4 O28 2.000965 1_555
Li4 O38 2.014721 1_555
Li5 O35 1.982272 1_555
Li5 O31 1.998970 1_555
Li5 O29 2.000965 1_555
Li5 O39 2.014721 1_555
Li6 O36 1.982272 1_555
Li6 O40 1.998970 1_555
Li6 O42 2.000965 1_555
Li6 O32 2.014721 1_555
Li7 O37 1.982272 1_555
Li7 O41 1.998970 1_555
Li7 O43 2.000965 1_555
Li7 O33 2.014721 1_555
Cr0 O2 1.649676 1_555
Cr0 O45 1.649676 1_555
Cr0 O4 1.686811 1_555
Cr0 O42 1.686811 1_555
Cr1 O3 1.649676 1_555
Cr1 O44 1.649676 1_555
Cr1 O5 1.686811 1_555
Cr1 O43 1.686811 1_555
Cr2 O0 1.635524 1_555
Cr2 O8 1.672889 1_555
Cr2 O7 1.686444 1_455
Cr2 O10 1.687753 1_555
Cr3 O1 1.635524 1_555
Cr3 O9 1.672889 1_555
Cr3 O6 1.686444 1_655
Cr3 O11 1.687753 1_545
Cr4 O23 1.635524 1_555
Cr4 O15 1.672889 1_555
Cr4 O17 1.686444 1_555
Cr4 O12 1.687753 1_545
Cr5 O22 1.635524 1_555
Cr5 O14 1.672889 1_555
Cr5 O16 1.686444 1_555
Cr5 O13 1.687753 1_555
Cr6 O21 1.649676 1_454
Cr6 O27 1.649676 1_455
Cr6 O18 1.686811 1_554
Cr6 O28 1.686811 1_555
Cr7 O20 1.649676 1_654
Cr7 O26 1.649676 1_655
Cr7 O19 1.686811 1_554
Cr7 O29 1.686811 1_555
Cr8 O24 1.635524 1_555
Cr8 O32 1.672889 1_555
Cr8 O31 1.686444 1_555
Cr8 O34 1.687753 1_555
Cr9 O25 1.635524 1_555
Cr9 O33 1.672889 1_555
Cr9 O30 1.686444 1_555
Cr9 O35 1.687753 1_565
Cr10 O46 1.635524 1_555
Cr10 O38 1.672889 1_555
Cr10 O41 1.686444 1_455
Cr10 O36 1.687753 1_565
Cr11 O47 1.635524 1_555
Cr11 O39 1.672889 1_555
Cr11 O40 1.686444 1_655
Cr11 O37 1.687753 1_555
Co0 O3 2.015217 1_555
Co0 O46 2.059063 1_555
Co0 O4 2.075706 1_565
Co0 O6 2.086472 1_565
Co0 O8 2.102901 1_555
Co0 O12 2.112797 1_555
Co1 O2 2.015217 1_555
Co1 O47 2.059063 1_555
Co1 O5 2.075706 1_555
Co1 O7 2.086472 1_555
Co1 O9 2.102901 1_555
Co1 O13 2.112797 1_555
Co2 O20 2.015217 1_555
Co2 O24 2.059063 1_556
Co2 O18 2.075706 1_555
Co2 O16 2.086472 1_555
Co2 O15 2.102901 1_555
Co2 O10 2.112797 1_555
Co3 O21 2.015217 1_555
Co3 O25 2.059063 1_556
Co3 O19 2.075706 1_565
Co3 O17 2.086472 1_565
Co3 O14 2.102901 1_555
Co3 O11 2.112797 1_555
Co4 O26 2.015217 1_555
Co4 O23 2.059063 1_554
Co4 O28 2.075706 1_545
Co4 O30 2.086472 1_545
Co4 O32 2.102901 1_555
Co4 O36 2.112797 1_555
Co5 O27 2.015217 1_555
Co5 O22 2.059063 1_554
Co5 O29 2.075706 1_555
Co5 O31 2.086472 1_555
Co5 O33 2.102901 1_555
Co5 O37 2.112797 1_555
Co6 O44 2.015217 1_555
Co6 O0 2.059063 1_555
Co6 O42 2.075706 1_555
Co6 O40 2.086472 1_555
Co6 O38 2.102901 1_555
Co6 O34 2.112797 1_555
Co7 O45 2.015217 1_555
Co7 O1 2.059063 1_555
Co7 O43 2.075706 1_545
Co7 O41 2.086472 1_545
Co7 O39 2.102901 1_555
Co7 O35 2.112797 1_555
