# generated using pymatgen
data_Mn(PO4)2
_symmetry_space_group_name_H-M   'P 1'
_cell_length_a   5.13274474
_cell_length_b   5.13274474
_cell_length_c   13.54672018
_cell_angle_alpha   76.09522639
_cell_angle_beta   76.09522639
_cell_angle_gamma   57.21042289
_symmetry_Int_Tables_number   1
_chemical_formula_structural   Mn(PO4)2
_chemical_formula_sum   'Mn2 P4 O16'
_cell_volume   288.56632777
_cell_formula_units_Z   2
loop_
 _symmetry_equiv_pos_site_id
 _symmetry_equiv_pos_as_xyz
  1  'x, y, z'
loop_
 _atom_site_type_symbol
 _atom_site_label
 _atom_site_symmetry_multiplicity
 _atom_site_fract_x
 _atom_site_fract_y
 _atom_site_fract_z
 _atom_site_occupancy
  Mn  Mn0  1  0.00000000  0.00000000  0.50000000  1
  Mn  Mn1  1  0.00000000  0.00000000  0.00000000  1
  P  P0  1  0.40113300  0.33792600  0.88995400  1
  P  P1  1  0.33792600  0.40113300  0.38995400  1
  P  P2  1  0.66207400  0.59886700  0.61004600  1
  P  P3  1  0.59886700  0.66207400  0.11004600  1
  O  O0  1  0.75721900  0.15660000  0.88939700  1
  O  O1  1  0.48222100  0.34561000  0.26970400  1
  O  O2  1  0.59054800  0.22467100  0.45921700  1
  O  O3  1  0.28614300  0.10806100  0.90668800  1
  O  O4  1  0.10806100  0.28614300  0.40668800  1
  O  O5  1  0.22467100  0.59054800  0.95921700  1
  O  O6  1  0.34561000  0.48222100  0.76970400  1
  O  O7  1  0.15660000  0.75721900  0.38939700  1
  O  O8  1  0.84340000  0.24278100  0.61060300  1
  O  O9  1  0.65439000  0.51777900  0.23029600  1
  O  O10  1  0.77532900  0.40945200  0.04078300  1
  O  O11  1  0.89193900  0.71385700  0.59331200  1
  O  O12  1  0.71385700  0.89193900  0.09331200  1
  O  O13  1  0.40945200  0.77532900  0.54078300  1
  O  O14  1  0.51777900  0.65439000  0.73029600  1
  O  O15  1  0.24278100  0.84340000  0.11060300  1
loop_
_geom_bond_atom_site_label_1
_geom_bond_atom_site_label_2
_geom_bond_distance
_geom_bond_site_symmetry_2
Mn0 O8 1.917685 1_455
Mn0 O7 1.917685 1_545
Mn0 O13 1.917996 1_545
Mn0 O2 1.917996 1_455
Mn0 O4 1.927602 1_555
Mn0 O11 1.927602 1_445
Mn1 O15 1.917685 1_545
Mn1 O0 1.917685 1_454
Mn1 O10 1.917996 1_455
Mn1 O5 1.917996 1_544
Mn1 O12 1.927602 1_445
Mn1 O3 1.927602 1_554
O0 P0 1.536579 1_555
O1 P1 1.642566 1_555
O2 P1 1.512046 1_555
O3 P0 1.533996 1_555
O4 P1 1.533996 1_555
O5 P0 1.512046 1_555
O6 P0 1.642566 1_555
O7 P1 1.536579 1_555
O8 P2 1.536579 1_555
O9 P3 1.642566 1_555
O10 P3 1.512046 1_555
O11 P2 1.533996 1_555
O12 P3 1.533996 1_555
O13 P2 1.512046 1_555
O14 P2 1.642566 1_555
O15 P3 1.536579 1_555
