# generated using pymatgen
data_Ca2Ti6N2O11
_symmetry_space_group_name_H-M   'P 1'
_cell_length_a   7.64547296
_cell_length_b   7.64547296
_cell_length_c   9.39857038
_cell_angle_alpha   80.56721647
_cell_angle_beta   80.56721647
_cell_angle_gamma   28.81153147
_symmetry_Int_Tables_number   1
_chemical_formula_structural   Ca2Ti6N2O11
_chemical_formula_sum   'Ca2 Ti6 N2 O11'
_cell_volume   260.94341242
_cell_formula_units_Z   1
loop_
 _symmetry_equiv_pos_site_id
 _symmetry_equiv_pos_as_xyz
  1  'x, y, z'
loop_
 _atom_site_type_symbol
 _atom_site_label
 _atom_site_symmetry_multiplicity
 _atom_site_fract_x
 _atom_site_fract_y
 _atom_site_fract_z
 _atom_site_occupancy
  Ca  Ca0  1  0.55959600  0.55959600  0.25801000  1
  Ca  Ca1  1  0.45855600  0.45855600  0.79885100  1
  Ti  Ti0  1  0.12199100  0.12199100  0.92192800  1
  Ti  Ti1  1  0.15746000  0.15746000  0.56509300  1
  Ti  Ti2  1  0.24316600  0.24316600  0.22810000  1
  Ti  Ti3  1  0.77329400  0.77329400  0.75313800  1
  Ti  Ti4  1  0.83503000  0.83503000  0.42076700  1
  Ti  Ti5  1  0.87741300  0.87741300  0.09652400  1
  N  N0  1  0.75958400  0.75958400  0.25353900  1
  N  N1  1  0.35404500  0.35404500  0.09171000  1
  O  O0  1  0.05837300  0.05837300  0.70674700  1
  O  O1  1  0.11544200  0.11544200  0.39456600  1
  O  O2  1  0.14807300  0.14807300  0.10884200  1
  O  O3  1  0.64084000  0.64084000  0.88712500  1
  O  O4  1  0.69668200  0.69668200  0.57268600  1
  O  O5  1  0.23918000  0.23918000  0.75482600  1
  O  O6  1  0.30123800  0.30123800  0.42792600  1
  O  O7  1  0.84486000  0.84486000  0.88888500  1
  O  O8  1  0.87439700  0.87439700  0.60436800  1
  O  O9  1  0.94043200  0.94043200  0.28212900  1
  O  O10  1  0.00035000  0.00035000  0.98424200  1
loop_
_geom_bond_atom_site_label_1
_geom_bond_atom_site_label_2
_geom_bond_distance
_geom_bond_site_symmetry_2
Ca0 O1 2.511669 1_655
Ca0 O1 2.511669 1_565
Ca0 O9 2.578493 1_545
Ca0 O9 2.578493 1_455
Ca0 O2 2.584341 1_655
Ca0 O2 2.584341 1_565
Ca0 N0 2.955036 1_555
Ca1 O0 2.473789 1_565
Ca1 O0 2.473789 1_655
Ca1 O7 2.585959 1_455
Ca1 O7 2.585959 1_545
Ca1 O10 2.720678 1_565
Ca1 O10 2.720678 1_655
Ca1 N1 2.920615 1_556
Ca1 O3 2.955411 1_555
Ca1 O8 3.046900 1_455
Ca1 O8 3.046900 1_545
N0 Ti2 1.937507 1_565
N0 Ti2 1.937507 1_655
N0 Ti4 2.076798 1_555
N0 Ti5 2.086022 1_555
N1 Ti2 1.904581 1_555
N1 Ti5 1.935224 1_455
N1 Ti5 1.935224 1_545
O0 Ti1 1.806885 1_555
O0 Ti0 2.371215 1_555
O1 Ti1 1.814788 1_555
O1 Ti2 2.241525 1_555
O2 Ti0 1.861435 1_554
O2 Ti2 1.942669 1_555
O3 Ti0 1.942162 1_655
O3 Ti0 1.942162 1_565
O3 Ti3 2.144279 1_555
O4 Ti1 1.993620 1_565
O4 Ti1 1.993620 1_655
O4 Ti3 2.194316 1_555
O4 Ti4 2.290597 1_555
O5 Ti3 1.967428 1_545
O5 Ti3 1.967428 1_455
O5 Ti0 2.134559 1_555
O5 Ti1 2.318415 1_555
O6 Ti4 1.965088 1_545
O6 Ti4 1.965088 1_455
O6 Ti2 2.193972 1_555
O6 Ti1 2.295038 1_555
O7 Ti3 1.791303 1_555
O7 Ti5 2.087877 1_556
O8 Ti3 1.867771 1_555
O8 Ti4 1.912604 1_555
O9 Ti4 1.856406 1_555
O9 Ti5 2.113074 1_555
O10 Ti0 1.797617 1_555
O10 Ti5 1.943814 1_446
