# generated using pymatgen
data_SrTaNO2
_symmetry_space_group_name_H-M   'P 1'
_cell_length_a   5.72168000
_cell_length_b   5.73092100
_cell_length_c   9.97924591
_cell_angle_alpha   55.00518868
_cell_angle_beta   90.00000000
_cell_angle_gamma   90.00000000
_symmetry_Int_Tables_number   1
_chemical_formula_structural   SrTaNO2
_chemical_formula_sum   'Sr4 Ta4 N4 O8'
_cell_volume   268.06355139
_cell_formula_units_Z   4
loop_
 _symmetry_equiv_pos_site_id
 _symmetry_equiv_pos_as_xyz
  1  'x, y, z'
loop_
 _atom_site_type_symbol
 _atom_site_label
 _atom_site_symmetry_multiplicity
 _atom_site_fract_x
 _atom_site_fract_y
 _atom_site_fract_z
 _atom_site_occupancy
  Sr  Sr0  1  0.23780500  0.76959600  0.23739600  1
  Sr  Sr1  1  0.73532300  0.27102500  0.23757700  1
  Sr  Sr2  1  0.76219500  0.76959600  0.73739600  1
  Sr  Sr3  1  0.26467700  0.27102500  0.73757700  1
  Ta  Ta0  1  0.74560000  0.00300900  0.99796400  1
  Ta  Ta1  1  0.74254500  0.53487500  0.48134400  1
  Ta  Ta2  1  0.25745500  0.53487500  0.98134400  1
  Ta  Ta3  1  0.25440000  0.00300900  0.49796400  1
  N  N0  1  0.47683800  0.77120700  0.00097800  1
  N  N1  1  0.24155200  0.80096700  0.73351700  1
  N  N2  1  0.52316200  0.77120700  0.50097800  1
  N  N3  1  0.75844800  0.80096700  0.23351700  1
  O  O0  1  0.75228300  0.22305600  0.73049700  1
  O  O1  1  0.47145300  0.31246600  0.46140000  1
  O  O2  1  0.97296000  0.71453200  0.00403000  1
  O  O3  1  0.97043900  0.25326700  0.46129700  1
  O  O4  1  0.24771700  0.22305600  0.23049700  1
  O  O5  1  0.52854700  0.31246600  0.96140000  1
  O  O6  1  0.02956100  0.25326700  0.96129700  1
  O  O7  1  0.02704000  0.71453200  0.50403000  1
loop_
_geom_bond_atom_site_label_1
_geom_bond_atom_site_label_2
_geom_bond_distance
_geom_bond_site_symmetry_2
N0 Ta2 1.937214 1_554
N0 Ta0 2.021030 1_564
N0 Sr0 2.722461 1_555
N0 Sr3 2.819866 1_564
N0 Sr1 2.866341 1_555
N0 Sr2 3.100396 1_554
N1 Ta3 1.936422 1_565
N1 Ta2 2.030838 1_555
N1 Sr3 2.720523 1_565
N1 Sr2 2.747434 1_455
N1 Sr2 2.983286 1_555
N1 Sr3 3.016905 1_555
N2 Ta1 1.937214 1_555
N2 Ta3 2.021030 1_565
N2 Sr2 2.722461 1_555
N2 Sr1 2.819866 1_565
N2 Sr3 2.866341 1_555
N2 Sr0 3.100396 1_555
N3 Ta0 1.936422 1_564
N3 Ta1 2.030838 1_555
N3 Sr1 2.720523 1_565
N3 Sr0 2.747434 1_655
N3 Sr0 2.983286 1_555
N3 Sr1 3.016905 1_555
O0 Ta1 2.069343 1_555
O0 Ta0 2.203452 1_555
O0 Sr2 2.560509 1_545
O0 Sr3 2.808296 1_555
O0 Sr3 2.949242 1_655
O0 Sr2 3.172670 1_555
O1 Ta3 2.019517 1_555
O1 Ta1 2.088331 1_555
O1 Sr0 2.632542 1_555
O1 Sr1 2.816591 1_555
O1 Sr3 2.881167 1_555
O1 Sr2 3.194353 1_545
O2 Ta2 2.007083 1_654
O2 Ta0 2.077105 1_564
O2 Sr1 2.635570 1_555
O2 Sr2 2.769592 1_554
O2 Sr0 2.943164 1_655
O2 Sr3 3.209451 1_664
O3 Ta3 2.056373 1_655
O3 Ta1 2.171447 1_555
O3 Sr1 2.558081 1_555
O3 Sr2 2.816825 1_545
O3 Sr0 2.916339 1_655
O3 Sr3 3.281447 1_655
O4 Ta2 2.069343 1_554
O4 Ta3 2.203452 1_555
O4 Sr0 2.560509 1_545
O4 Sr1 2.808296 1_555
O4 Sr1 2.949242 1_455
O4 Sr0 3.172670 1_555
O5 Ta0 2.019517 1_555
O5 Ta2 2.088331 1_555
O5 Sr2 2.632542 1_555
O5 Sr3 2.816591 1_555
O5 Sr1 2.881167 1_556
O5 Sr0 3.194353 1_546
O6 Ta0 2.056373 1_455
O6 Ta2 2.171447 1_555
O6 Sr3 2.558081 1_555
O6 Sr0 2.816825 1_546
O6 Sr2 2.916339 1_455
O6 Sr1 3.281447 1_456
O7 Ta1 2.007083 1_455
O7 Ta3 2.077105 1_565
O7 Sr3 2.635570 1_555
O7 Sr0 2.769592 1_555
O7 Sr2 2.943164 1_455
O7 Sr1 3.209451 1_465
