# generated using pymatgen
data_La2Ti3O9
_symmetry_space_group_name_H-M   'P 1'
_cell_length_a   7.49684000
_cell_length_b   7.96320700
_cell_length_c   14.70064800
_cell_angle_alpha   90.00000000
_cell_angle_beta   90.00000000
_cell_angle_gamma   90.00000000
_symmetry_Int_Tables_number   1
_chemical_formula_structural   La2Ti3O9
_chemical_formula_sum   'La8 Ti12 O36'
_cell_volume   877.61234974
_cell_formula_units_Z   4
loop_
 _symmetry_equiv_pos_site_id
 _symmetry_equiv_pos_as_xyz
  1  'x, y, z'
loop_
 _atom_site_type_symbol
 _atom_site_label
 _atom_site_symmetry_multiplicity
 _atom_site_fract_x
 _atom_site_fract_y
 _atom_site_fract_z
 _atom_site_occupancy
  La  La0  1  0.83553600  0.25000000  0.58401500  1
  La  La1  1  0.64660600  0.25000000  0.31984100  1
  La  La2  1  0.85339400  0.75000000  0.81984100  1
  La  La3  1  0.66446400  0.75000000  0.08401500  1
  La  La4  1  0.33553600  0.25000000  0.91598500  1
  La  La5  1  0.14660600  0.25000000  0.18015900  1
  La  La6  1  0.35339400  0.75000000  0.68015900  1
  La  La7  1  0.16446400  0.75000000  0.41598500  1
  Ti  Ti0  1  0.00000000  0.00000000  0.00000000  1
  Ti  Ti1  1  0.00000000  0.50000000  0.00000000  1
  Ti  Ti2  1  0.82711200  0.25000000  0.85141100  1
  Ti  Ti3  1  0.81464400  0.75000000  0.57486400  1
  Ti  Ti4  1  0.68535600  0.25000000  0.07486400  1
  Ti  Ti5  1  0.67288800  0.75000000  0.35141100  1
  Ti  Ti6  1  0.50000000  0.00000000  0.50000000  1
  Ti  Ti7  1  0.50000000  0.50000000  0.50000000  1
  Ti  Ti8  1  0.32711200  0.25000000  0.64858900  1
  Ti  Ti9  1  0.31464400  0.75000000  0.92513600  1
  Ti  Ti10  1  0.18535600  0.25000000  0.42513600  1
  Ti  Ti11  1  0.17288800  0.75000000  0.14858900  1
  O  O0  1  0.03508400  0.25000000  0.00666900  1
  O  O1  1  0.95197200  0.25000000  0.39854800  1
  O  O2  1  0.86114900  0.75000000  0.42987700  1
  O  O3  1  0.91366800  0.02864200  0.87370900  1
  O  O4  1  0.91366800  0.47135800  0.87370900  1
  O  O5  1  0.75732300  0.25000000  0.73698600  1
  O  O6  1  0.80867200  0.25000000  0.18723900  1
  O  O7  1  0.74123200  0.97830300  0.54828800  1
  O  O8  1  0.74123200  0.52169700  0.54828800  1
  O  O9  1  0.75876800  0.02169700  0.04828800  1
  O  O10  1  0.75876800  0.47830300  0.04828800  1
  O  O11  1  0.69132800  0.75000000  0.68723900  1
  O  O12  1  0.74267700  0.75000000  0.23698600  1
  O  O13  1  0.58633200  0.52864200  0.37370900  1
  O  O14  1  0.58633200  0.97135800  0.37370900  1
  O  O15  1  0.63885100  0.25000000  0.92987700  1
  O  O16  1  0.54802800  0.75000000  0.89854800  1
  O  O17  1  0.46491600  0.75000000  0.50666900  1
  O  O18  1  0.53508400  0.25000000  0.49333100  1
  O  O19  1  0.45197200  0.25000000  0.10145200  1
  O  O20  1  0.36114900  0.75000000  0.07012300  1
  O  O21  1  0.41366800  0.02864200  0.62629100  1
  O  O22  1  0.41366800  0.47135800  0.62629100  1
  O  O23  1  0.25732300  0.25000000  0.76301400  1
  O  O24  1  0.30867200  0.25000000  0.31276100  1
  O  O25  1  0.24123200  0.52169700  0.95171200  1
  O  O26  1  0.24123200  0.97830300  0.95171200  1
  O  O27  1  0.25876800  0.02169700  0.45171200  1
  O  O28  1  0.25876800  0.47830300  0.45171200  1
  O  O29  1  0.19132800  0.75000000  0.81276100  1
  O  O30  1  0.24267700  0.75000000  0.26301400  1
  O  O31  1  0.08633200  0.52864200  0.12629100  1
  O  O32  1  0.08633200  0.97135800  0.12629100  1
  O  O33  1  0.13885100  0.25000000  0.57012300  1
  O  O34  1  0.04802800  0.75000000  0.60145200  1
  O  O35  1  0.96491600  0.75000000  0.99333100  1
loop_
_geom_bond_atom_site_label_1
_geom_bond_atom_site_label_2
_geom_bond_distance
_geom_bond_site_symmetry_2
La0 O33 2.283056 1_655
La0 O5 2.323959 1_555
La0 O8 2.335968 1_555
La0 O7 2.335968 1_545
La0 O18 2.617380 1_555
La0 O1 2.862810 1_555
La1 O6 2.296974 1_555
La1 O14 2.398901 1_545
La1 O13 2.398901 1_555
La1 O24 2.535574 1_555
La1 O1 2.565064 1_555
La1 O18 2.683956 1_555
La2 O11 2.296974 1_555
La2 O4 2.398901 1_555
La2 O3 2.398901 1_565
La2 O29 2.535574 1_655
La2 O16 2.565064 1_555
La2 O35 2.683956 1_555
La3 O20 2.283056 1_555
La3 O12 2.323959 1_555
La3 O9 2.335968 1_565
La3 O10 2.335968 1_555
La3 O35 2.617380 1_554
La3 O16 2.862810 1_554
La4 O15 2.283056 1_555
La4 O23 2.323959 1_555
La4 O26 2.335968 1_545
La4 O25 2.335968 1_555
La4 O0 2.617380 1_556
La4 O19 2.862810 1_556
La5 O24 2.296974 1_555
La5 O31 2.398901 1_555
La5 O32 2.398901 1_545
La5 O6 2.535574 1_455
La5 O19 2.565064 1_555
La5 O0 2.683956 1_555
La6 O29 2.296974 1_555
La6 O22 2.398901 1_555
La6 O21 2.398901 1_565
La6 O11 2.535574 1_555
La6 O34 2.565064 1_555
La6 O17 2.683956 1_555
La7 O2 2.283056 1_455
La7 O30 2.323959 1_555
La7 O28 2.335968 1_555
La7 O27 2.335968 1_565
La7 O17 2.617380 1_555
La7 O34 2.862810 1_555
O0 Ti1 2.010493 1_555
O0 Ti0 2.010493 1_555
O1 Ti10 1.792769 1_655
O2 Ti5 1.822775 1_555
O2 Ti3 2.159729 1_555
O3 Ti2 1.906750 1_555
O3 Ti0 1.979324 1_656
O4 Ti2 1.906750 1_555
O4 Ti1 1.979324 1_656
O5 Ti2 1.761610 1_555
O6 Ti4 1.893071 1_555
O7 Ti3 1.939263 1_555
O7 Ti6 1.950475 1_565
O8 Ti3 1.939263 1_555
O8 Ti7 1.950475 1_555
O9 Ti4 1.939263 1_555
O9 Ti0 1.950475 1_655
O10 Ti4 1.939263 1_555
O10 Ti1 1.950475 1_655
O11 Ti3 1.893071 1_555
O12 Ti5 1.761610 1_555
O13 Ti5 1.906750 1_555
O13 Ti7 1.979324 1_555
O14 Ti5 1.906750 1_555
O14 Ti6 1.979324 1_565
O15 Ti2 1.822775 1_555
O15 Ti4 2.159729 1_556
O16 Ti9 1.792769 1_555
O17 Ti7 2.010493 1_555
O17 Ti6 2.010493 1_565
O18 Ti7 2.010493 1_555
O18 Ti6 2.010493 1_555
O19 Ti4 1.792769 1_555
O20 Ti11 1.822775 1_555
O20 Ti9 2.159729 1_554
O21 Ti8 1.906750 1_555
O21 Ti6 1.979324 1_555
O22 Ti8 1.906750 1_555
O22 Ti7 1.979324 1_555
O23 Ti8 1.761610 1_555
O24 Ti10 1.893071 1_555
O25 Ti9 1.939263 1_555
O25 Ti1 1.950475 1_556
O26 Ti9 1.939263 1_555
O26 Ti0 1.950475 1_566
O27 Ti10 1.939263 1_555
O27 Ti6 1.950475 1_555
O28 Ti10 1.939263 1_555
O28 Ti7 1.950475 1_555
O29 Ti9 1.893071 1_555
O30 Ti11 1.761610 1_555
O31 Ti11 1.906750 1_555
O31 Ti1 1.979324 1_555
O32 Ti11 1.906750 1_555
O32 Ti0 1.979324 1_565
O33 Ti8 1.822775 1_555
O33 Ti10 2.159729 1_555
O34 Ti3 1.792769 1_455
O35 Ti1 2.010493 1_656
O35 Ti0 2.010493 1_666
