# generated using pymatgen
data_Li5Mn6(BO3)6
_symmetry_space_group_name_H-M   'P 1'
_cell_length_a   5.94256900
_cell_length_b   8.29135288
_cell_length_c   9.06754317
_cell_angle_alpha   112.19005998
_cell_angle_beta   102.75710367
_cell_angle_gamma   102.45854545
_symmetry_Int_Tables_number   1
_chemical_formula_structural   Li5Mn6(BO3)6
_chemical_formula_sum   'Li5 Mn6 B6 O18'
_cell_volume   380.69680255
_cell_formula_units_Z   1
loop_
 _symmetry_equiv_pos_site_id
 _symmetry_equiv_pos_as_xyz
  1  'x, y, z'
loop_
 _atom_site_type_symbol
 _atom_site_label
 _atom_site_symmetry_multiplicity
 _atom_site_fract_x
 _atom_site_fract_y
 _atom_site_fract_z
 _atom_site_occupancy
  Li  Li0  1  0.07029000  0.38898100  0.22729100  1
  Li  Li1  1  0.40774300  0.72832100  0.89254300  1
  Li  Li2  1  0.59424800  0.27308500  0.10344600  1
  Li  Li3  1  0.92174000  0.61309000  0.77130100  1
  Li  Li4  1  0.71657800  0.05825000  0.56286700  1
  Mn  Mn0  1  0.21889300  0.97794000  0.77016300  1
  Mn  Mn1  1  0.12208600  0.36931100  0.88987400  1
  Mn  Mn2  1  0.44136000  0.68861900  0.53857600  1
  Mn  Mn3  1  0.52614600  0.28828500  0.44725800  1
  Mn  Mn4  1  0.89573300  0.65147000  0.13397000  1
  Mn  Mn5  1  0.78965000  0.03080800  0.21579000  1
  B  B0  1  0.09988200  0.36951600  0.55202700  1
  B  B1  1  0.22253800  0.96417500  0.10540700  1
  B  B2  1  0.45116100  0.70436400  0.22254300  1
  B  B3  1  0.56564900  0.30892500  0.79367500  1
  B  B4  1  0.78068900  0.03642400  0.87938400  1
  B  B5  1  0.88452700  0.61609400  0.44901300  1
  O  O0  1  0.15749200  0.85683500  0.93340100  1
  O  O1  1  0.11874200  0.74778000  0.54130400  1
  O  O2  1  0.07930600  0.92337700  0.19605700  1
  O  O3  1  0.17804100  0.48216200  0.72253900  1
  O  O4  1  0.23717500  0.40757500  0.45295800  1
  O  O5  1  0.23111600  0.55774300  0.14767500  1
  O  O6  1  0.56860600  0.88248500  0.79690400  1
  O  O7  1  0.42897200  0.26222300  0.88909000  1
  O  O8  1  0.54921200  0.80668700  0.39541000  1
  O  O9  1  0.48959400  0.19789500  0.62432800  1
  O  O10  1  0.57356300  0.74768700  0.12016100  1
  O  O11  1  0.44177500  0.11346300  0.19226300  1
  O  O12  1  0.78068700  0.46082000  0.87621200  1
  O  O13  1  0.73221600  0.58380300  0.54218600  1
  O  O14  1  0.81496600  0.51229800  0.27871900  1
  O  O15  1  0.91438800  0.08327400  0.78336500  1
  O  O16  1  0.87960100  0.22371500  0.46931700  1
  O  O17  1  0.85057300  0.14894400  0.05056300  1
loop_
_geom_bond_atom_site_label_1
_geom_bond_atom_site_label_2
_geom_bond_distance
_geom_bond_site_symmetry_2
Li0 O17 1.944079 1_455
Li0 O5 1.970598 1_555
Li0 O4 1.998481 1_555
Li0 O14 2.046147 1_455
Li1 O3 1.974162 1_555
Li1 O6 1.993981 1_555
Li1 O10 2.009931 1_556
Li1 O0 2.028071 1_555
Li2 O7 1.933178 1_554
Li2 O14 1.938035 1_555
Li2 O11 1.957334 1_555
Li2 O17 2.058118 1_555
Li3 O0 1.957716 1_655
Li3 O12 2.001067 1_555
Li3 O13 2.027575 1_555
Li3 O3 2.083746 1_655
Li4 O8 1.921198 1_545
Li4 O15 1.991432 1_555
Li4 O9 1.997266 1_555
Li4 O16 2.051538 1_555
Mn0 O1 2.067737 1_555
Mn0 O7 2.119694 1_565
Mn0 O0 2.129650 1_555
Mn0 O15 2.179475 1_465
Mn0 O6 2.374060 1_555
Mn1 O3 2.109341 1_555
Mn1 O5 2.112071 1_556
Mn1 O15 2.135698 1_455
Mn1 O7 2.194058 1_555
Mn1 O12 2.308931 1_455
Mn2 O8 2.027562 1_555
Mn2 O1 2.081909 1_555
Mn2 O13 2.094861 1_555
Mn2 O6 2.119347 1_555
Mn2 O4 2.121916 1_555
Mn3 O9 2.044384 1_555
Mn3 O11 2.083619 1_555
Mn3 O4 2.159453 1_555
Mn3 O13 2.211550 1_555
Mn3 O16 2.262515 1_555
Mn4 O2 2.073298 1_655
Mn4 O12 2.113316 1_554
Mn4 O14 2.113738 1_555
Mn4 O10 2.223977 1_555
Mn4 O5 2.285475 1_655
Mn5 O16 2.107079 1_555
Mn5 O2 2.113173 1_645
Mn5 O17 2.128415 1_555
Mn5 O10 2.140437 1_545
Mn5 O11 2.305587 1_555
B0 O3 1.372390 1_555
B0 O16 1.391492 1_455
B0 O4 1.413829 1_555
B1 O2 1.381786 1_555
B1 O0 1.382346 1_554
B1 O11 1.401594 1_565
B2 O8 1.376632 1_555
B2 O5 1.395468 1_555
B2 O10 1.399047 1_555
B3 O9 1.362309 1_555
B3 O12 1.396596 1_555
B3 O7 1.409208 1_555
B4 O17 1.380729 1_556
B4 O6 1.394793 1_545
B4 O15 1.402853 1_555
B5 O14 1.362615 1_555
B5 O1 1.403353 1_655
B5 O13 1.417290 1_555
