# generated using pymatgen
data_Hf2N2O
_symmetry_space_group_name_H-M   'P 1'
_cell_length_a   8.66199692
_cell_length_b   8.67001997
_cell_length_c   8.67375967
_cell_angle_alpha   109.50921237
_cell_angle_beta   109.23803012
_cell_angle_gamma   109.45975822
_symmetry_Int_Tables_number   1
_chemical_formula_structural   Hf2N2O
_chemical_formula_sum   'Hf16 N16 O8'
_cell_volume   502.71782077
_cell_formula_units_Z   8
loop_
 _symmetry_equiv_pos_site_id
 _symmetry_equiv_pos_as_xyz
  1  'x, y, z'
loop_
 _atom_site_type_symbol
 _atom_site_label
 _atom_site_symmetry_multiplicity
 _atom_site_fract_x
 _atom_site_fract_y
 _atom_site_fract_z
 _atom_site_occupancy
  Hf  Hf0  1  0.72624290  0.96915306  0.75578733  1
  Hf  Hf1  1  0.51067514  0.50013902  0.49909625  1
  Hf  Hf2  1  0.24235913  0.77896520  0.52939576  1
  Hf  Hf3  1  0.75470203  0.72197872  0.96794388  1
  Hf  Hf4  1  0.95675007  0.25016003  0.21402574  1
  Hf  Hf5  1  0.46232860  0.24287765  0.70528586  1
  Hf  Hf6  1  0.50583390  0.99635952  0.00897663  1
  Hf  Hf7  1  0.78544376  0.53399848  0.25002711  1
  Hf  Hf8  1  0.20734862  0.47310340  0.74778496  1
  Hf  Hf9  1  0.99030576  0.00148477  0.48871992  1
  Hf  Hf10  1  0.03017666  0.74419616  0.78931580  1
  Hf  Hf11  1  0.54065567  0.75213390  0.28410957  1
  Hf  Hf12  1  0.25157579  0.29234325  0.03635216  1
  Hf  Hf13  1  0.74932820  0.21446665  0.46435978  1
  Hf  Hf14  1  0.01136879  0.50155873  0.00243908  1
  Hf  Hf15  1  0.28559650  0.03105151  0.25497824  1
  N  N0  1  0.04555737  0.53848946  0.27438841  1
  N  N1  1  0.73311112  0.96181454  0.00826600  1
  N  N2  1  0.22984386  0.98915932  0.46088324  1
  N  N3  1  0.76908767  0.73501913  0.71990454  1
  N  N4  1  0.96982914  0.22725170  0.95707069  1
  N  N5  1  0.72325117  0.27072936  0.23344115  1
  N  N6  1  0.77126123  0.00885611  0.54355895  1
  N  N7  1  0.53343755  0.48971835  0.26652399  1
  N  N8  1  0.27249097  0.72976088  0.75838320  1
  N  N9  1  0.95193452  0.46670569  0.72768171  1
  N  N10  1  0.76426858  0.77124397  0.22758364  1
  N  N11  1  0.01862393  0.23969336  0.46595567  1
  N  N12  1  0.48166517  0.95146637  0.22333491  1
  N  N13  1  0.27312512  0.54377999  0.03109842  1
  N  N14  1  0.54414757  0.27670855  0.51516398  1
  N  N15  1  0.03197138  0.77540138  0.04578416  1
  O  O0  1  0.72012128  0.44788874  0.96368931  1
  O  O1  1  0.51767145  0.05106601  0.77293108  1
  O  O2  1  0.26147527  0.03869394  0.98716080  1
  O  O3  1  0.45213790  0.72812750  0.49438883  1
  O  O4  1  0.22888766  0.26094237  0.27023756  1
  O  O5  1  0.24272683  0.22560978  0.77645394  1
  O  O6  1  0.46565909  0.50592910  0.74206602  1
  O  O7  1  0.98701862  0.76197838  0.53544971  1
loop_
_geom_bond_atom_site_label_1
_geom_bond_atom_site_label_2
_geom_bond_distance
_geom_bond_site_symmetry_2
Hf0 N4 2.079559 1_565
Hf0 N6 2.113290 1_565
Hf0 N3 2.123997 1_555
Hf0 O1 2.179870 1_565
Hf0 N1 2.193890 1_556
Hf0 O3 2.264263 1_555
Hf1 N7 2.066079 1_555
Hf1 N3 2.087630 1_555
Hf1 N14 2.093786 1_555
Hf1 O3 2.207721 1_555
Hf1 O4 2.209919 1_555
Hf1 O6 2.253856 1_555
Hf2 N0 2.052382 1_555
Hf2 O3 2.096707 1_555
Hf2 N8 2.119796 1_555
Hf2 N2 2.120969 1_555
Hf2 O7 2.186547 1_455
Hf2 O1 2.306084 1_565
Hf3 N1 2.073064 1_556
Hf3 N15 2.102364 1_656
Hf3 N10 2.114712 1_556
Hf3 O6 2.192538 1_555
Hf3 N3 2.233097 1_555
Hf3 O0 2.279927 1_555
Hf4 N11 2.112716 1_655
Hf4 N5 2.143751 1_555
Hf4 N0 2.166590 1_655
Hf4 N1 2.168529 1_545
Hf4 O4 2.206458 1_655
Hf4 N4 2.214814 1_554
Hf5 N14 2.064578 1_555
Hf5 O1 2.082598 1_555
Hf5 N2 2.123379 1_545
Hf5 O0 2.136727 1_555
Hf5 O5 2.160454 1_555
Hf5 O6 2.183611 1_555
Hf6 N12 2.082754 1_555
Hf6 N1 2.089270 1_555
Hf6 N5 2.121653 1_565
Hf6 N8 2.188343 1_554
Hf6 O2 2.225028 1_564
Hf6 O1 2.276376 1_564
Hf7 N5 2.105052 1_555
Hf7 O0 2.144746 1_554
Hf7 N7 2.148713 1_555
Hf7 O7 2.160584 1_555
Hf7 N0 2.178292 1_655
Hf7 N10 2.190380 1_555
Hf8 N8 2.066655 1_555
Hf8 N13 2.139592 1_556
Hf8 N9 2.141432 1_455
Hf8 N11 2.145124 1_555
Hf8 O6 2.179009 1_555
Hf8 O5 2.346145 1_555
Hf9 N11 2.081167 1_655
Hf9 N10 2.098122 1_545
Hf9 N6 2.117912 1_555
Hf9 N2 2.198971 1_645
Hf9 O7 2.237728 1_545
Hf9 O5 2.262577 1_655
Hf10 N9 2.085428 1_455
Hf10 N3 2.105770 1_455
Hf10 N15 2.143469 1_556
Hf10 O7 2.175982 1_455
Hf10 O2 2.208521 1_565
Hf10 N8 2.239831 1_555
Hf11 N10 2.117971 1_555
Hf11 N12 2.131919 1_555
Hf11 N13 2.158949 1_555
Hf11 N6 2.176767 1_565
Hf11 N7 2.206948 1_555
Hf11 O3 2.242022 1_555
Hf12 O5 2.099500 1_554
Hf12 N4 2.112947 1_454
Hf12 O2 2.132763 1_554
Hf12 N13 2.142425 1_555
Hf12 N7 2.144132 1_555
Hf12 O4 2.196404 1_555
Hf13 N9 2.131742 1_555
Hf13 N14 2.154159 1_555
Hf13 N6 2.154858 1_555
Hf13 N5 2.174525 1_555
Hf13 N12 2.246073 1_545
Hf13 N11 2.264067 1_655
Hf14 N13 2.085998 1_555
Hf14 N9 2.154700 1_454
Hf14 N4 2.156808 1_454
Hf14 N0 2.174005 1_555
Hf14 N15 2.210747 1_555
Hf14 O0 2.290970 1_454
Hf15 N12 2.096976 1_545
Hf15 N2 2.107035 1_545
Hf15 N15 2.115191 1_545
Hf15 O4 2.179557 1_555
Hf15 N14 2.219406 1_555
Hf15 O2 2.288337 1_554
