# generated using pymatgen
data_Li2Fe3SnO8
_symmetry_space_group_name_H-M   'P 1'
_cell_length_a   6.01507038
_cell_length_b   6.01507038
_cell_length_c   6.01507121
_cell_angle_alpha   60.42547699
_cell_angle_beta   60.42547699
_cell_angle_gamma   60.42547436
_symmetry_Int_Tables_number   1
_chemical_formula_structural   Li2Fe3SnO8
_chemical_formula_sum   'Li2 Fe3 Sn1 O8'
_cell_volume   155.36933655
_cell_formula_units_Z   1
loop_
 _symmetry_equiv_pos_site_id
 _symmetry_equiv_pos_as_xyz
  1  'x, y, z'
loop_
 _atom_site_type_symbol
 _atom_site_label
 _atom_site_symmetry_multiplicity
 _atom_site_fract_x
 _atom_site_fract_y
 _atom_site_fract_z
 _atom_site_occupancy
  Li  Li0  1  0.11973000  0.11973000  0.11973000  1
  Li  Li1  1  0.49755700  0.49755700  0.49755700  1
  Fe  Fe0  1  0.49437200  0.49437200  0.01830800  1
  Fe  Fe1  1  0.49437200  0.01830800  0.49437200  1
  Fe  Fe2  1  0.01830800  0.49437200  0.49437200  1
  Sn  Sn0  1  0.88330600  0.88330600  0.88330600  1
  O  O0  1  0.25631100  0.25631100  0.25631100  1
  O  O1  1  0.71372400  0.25154400  0.25154400  1
  O  O2  1  0.25154400  0.71372400  0.25154400  1
  O  O3  1  0.25154400  0.25154400  0.71372400  1
  O  O4  1  0.74378300  0.74378300  0.28596800  1
  O  O5  1  0.74378300  0.28596800  0.74378300  1
  O  O6  1  0.28596800  0.74378300  0.74378300  1
  O  O7  1  0.74569700  0.74569700  0.74569700  1
loop_
_geom_bond_atom_site_label_1
_geom_bond_atom_site_label_2
_geom_bond_distance
_geom_bond_site_symmetry_2
Li0 O1 2.004804 1_455
Li0 O2 2.004804 1_545
Li0 O3 2.004804 1_554
Li0 O0 2.005869 1_555
Li1 O3 2.105502 1_555
Li1 O2 2.105502 1_555
Li1 O1 2.105502 1_555
Li1 O4 2.109702 1_555
Li1 O5 2.109702 1_555
Li1 O6 2.109702 1_555
Fe0 O2 1.935102 1_555
Fe0 O1 1.935102 1_555
Fe0 O0 2.031600 1_555
Fe0 O5 2.071329 1_554
Fe0 O6 2.071329 1_554
Fe0 O7 2.149777 1_554
Fe1 O1 1.935102 1_555
Fe1 O3 1.935102 1_555
Fe1 O0 2.031600 1_555
Fe1 O6 2.071329 1_545
Fe1 O4 2.071329 1_545
Fe1 O7 2.149777 1_545
Fe2 O2 1.935102 1_555
Fe2 O3 1.935102 1_555
Fe2 O0 2.031600 1_555
Fe2 O5 2.071329 1_455
Fe2 O4 2.071329 1_455
Fe2 O7 2.149777 1_455
O4 Sn0 1.989278 1_554
O5 Sn0 1.989278 1_545
O6 Sn0 1.989278 1_455
O7 Sn0 2.020967 1_555
