# generated using pymatgen
data_Li4Ti3CrO8
_symmetry_space_group_name_H-M   'P 1'
_cell_length_a   6.01048402
_cell_length_b   6.01048402
_cell_length_c   6.01048471
_cell_angle_alpha   58.43716025
_cell_angle_beta   58.43716025
_cell_angle_gamma   58.43716138
_symmetry_Int_Tables_number   1
_chemical_formula_structural   Li4Ti3CrO8
_chemical_formula_sum   'Li4 Ti3 Cr1 O8'
_cell_volume   148.04603898
_cell_formula_units_Z   1
loop_
 _symmetry_equiv_pos_site_id
 _symmetry_equiv_pos_as_xyz
  1  'x, y, z'
loop_
 _atom_site_type_symbol
 _atom_site_label
 _atom_site_symmetry_multiplicity
 _atom_site_fract_x
 _atom_site_fract_y
 _atom_site_fract_z
 _atom_site_occupancy
  Li  Li0  1  0.50000000  0.50000000  0.50000000  1
  Li  Li1  1  0.00000000  0.00000000  0.50000000  1
  Li  Li2  1  0.50000000  0.00000000  0.00000000  1
  Li  Li3  1  0.00000000  0.50000000  0.00000000  1
  Ti  Ti0  1  0.50000000  0.50000000  0.00000000  1
  Ti  Ti1  1  0.00000000  0.50000000  0.50000000  1
  Ti  Ti2  1  0.50000000  0.00000000  0.50000000  1
  Cr  Cr0  1  0.00000000  0.00000000  0.00000000  1
  O  O0  1  0.25408600  0.25408600  0.25408600  1
  O  O1  1  0.75637700  0.75637700  0.25343300  1
  O  O2  1  0.25343300  0.75637700  0.75637700  1
  O  O3  1  0.74591400  0.74591400  0.74591400  1
  O  O4  1  0.75637700  0.25343300  0.75637700  1
  O  O5  1  0.24362300  0.24362300  0.74656700  1
  O  O6  1  0.74656700  0.24362300  0.24362300  1
  O  O7  1  0.24362300  0.74656700  0.24362300  1
loop_
_geom_bond_atom_site_label_1
_geom_bond_atom_site_label_2
_geom_bond_distance
_geom_bond_site_symmetry_2
Li0 O1 2.156330 1_555
Li0 O5 2.156330 1_555
Li0 O4 2.156330 1_555
Li0 O2 2.156330 1_555
Li0 O7 2.156330 1_555
Li0 O6 2.156330 1_555
Li1 O0 2.136514 1_555
Li1 O3 2.136514 1_445
Li1 O2 2.144545 1_545
Li1 O4 2.144545 1_455
Li1 O6 2.144545 1_455
Li1 O7 2.144545 1_545
Li2 O0 2.136515 1_555
Li2 O3 2.136515 1_544
Li2 O4 2.144545 1_554
Li2 O7 2.144545 1_545
Li2 O1 2.144545 1_545
Li2 O5 2.144545 1_554
Li3 O0 2.136515 1_555
Li3 O3 2.136515 1_454
Li3 O2 2.144545 1_554
Li3 O6 2.144545 1_455
Li3 O1 2.144545 1_455
Li3 O5 2.144545 1_554
Cr0 O5 2.045287 1_554
Cr0 O1 2.045287 1_445
Cr0 O6 2.045287 1_455
Cr0 O7 2.045287 1_545
Cr0 O4 2.045287 1_454
Cr0 O2 2.045287 1_544
O0 Ti0 2.064596 1_555
O0 Ti1 2.064596 1_555
O0 Ti2 2.064596 1_555
O1 Ti1 2.057640 1_655
O1 Ti2 2.057640 1_565
O2 Ti2 2.057640 1_565
O2 Ti0 2.057640 1_556
O3 Ti0 2.064596 1_556
O3 Ti1 2.064596 1_655
O3 Ti2 2.064596 1_565
O4 Ti1 2.057640 1_655
O4 Ti0 2.057640 1_556
O5 Ti1 2.057640 1_555
O5 Ti2 2.057640 1_555
O6 Ti2 2.057640 1_555
O6 Ti0 2.057640 1_555
O7 Ti1 2.057640 1_555
O7 Ti0 2.057640 1_555
