# generated using pymatgen
data_CrP2H17N4O9
_symmetry_space_group_name_H-M   'P 1'
_cell_length_a   13.89443000
_cell_length_b   7.57404600
_cell_length_c   11.70582754
_cell_angle_alpha   86.43582038
_cell_angle_beta   90.00000000
_cell_angle_gamma   90.00000000
_symmetry_Int_Tables_number   1
_chemical_formula_structural   CrP2H17N4O9
_chemical_formula_sum   'Cr4 P8 H68 N16 O36'
_cell_volume   1229.50405218
_cell_formula_units_Z   4
loop_
 _symmetry_equiv_pos_site_id
 _symmetry_equiv_pos_as_xyz
  1  'x, y, z'
loop_
 _atom_site_type_symbol
 _atom_site_label
 _atom_site_symmetry_multiplicity
 _atom_site_fract_x
 _atom_site_fract_y
 _atom_site_fract_z
 _atom_site_occupancy
  Cr  Cr0  1  0.95517000  0.88642900  0.71804400  1
  Cr  Cr1  1  0.45517000  0.11357100  0.78195600  1
  Cr  Cr2  1  0.04483000  0.11357100  0.28195600  1
  Cr  Cr3  1  0.54483000  0.88642900  0.21804400  1
  P  P0  1  0.80778100  0.16069100  0.59479600  1
  P  P1  1  0.30778100  0.83930900  0.90520400  1
  P  P2  1  0.19221900  0.83930900  0.40520400  1
  P  P3  1  0.69221900  0.16069100  0.09479600  1
  P  P4  1  0.91304700  0.27089600  0.79781400  1
  P  P5  1  0.41304700  0.72910400  0.70218600  1
  P  P6  1  0.08695300  0.72910400  0.20218600  1
  P  P7  1  0.58695300  0.27089600  0.29781400  1
  H  H0  1  0.79415800  0.31266100  0.92808700  1
  H  H1  1  0.29415800  0.68733900  0.57191300  1
  H  H2  1  0.20584200  0.68733900  0.07191300  1
  H  H3  1  0.70584200  0.31266100  0.42808700  1
  H  H4  1  0.97832300  0.77577600  0.92966500  1
  H  H5  1  0.47832300  0.22422400  0.57033500  1
  H  H6  1  0.02167700  0.22422400  0.07033500  1
  H  H7  1  0.52167700  0.77577600  0.42966500  1
  H  H8  1  0.08875100  0.79329800  0.87227200  1
  H  H9  1  0.58875100  0.20670200  0.62772800  1
  H  H10  1  0.91124900  0.20670200  0.12772800  1
  H  H11  1  0.41124900  0.79329800  0.37227200  1
  H  H12  1  0.02003800  0.61649700  0.85108500  1
  H  H13  1  0.52003800  0.38350300  0.64891500  1
  H  H14  1  0.97996200  0.38350300  0.14891500  1
  H  H15  1  0.47996200  0.61649700  0.35108500  1
  H  H16  1  0.00131300  0.56611400  0.66160700  1
  H  H17  1  0.50131300  0.43388600  0.83839300  1
  H  H18  1  0.99868700  0.43388600  0.33839300  1
  H  H19  1  0.49868700  0.56611400  0.16160700  1
  H  H20  1  0.93746500  0.66885200  0.55531800  1
  H  H21  1  0.43746500  0.33114800  0.94468200  1
  H  H22  1  0.06253500  0.33114800  0.44468200  1
  H  H23  1  0.56253500  0.66885200  0.05531800  1
  H  H24  1  0.05634700  0.71090800  0.57146000  1
  H  H25  1  0.55634700  0.28909200  0.92854000  1
  H  H26  1  0.94365300  0.28909200  0.42854000  1
  H  H27  1  0.44365300  0.71090800  0.07146000  1
  H  H28  1  0.09553300  0.01273400  0.58584100  1
  H  H29  1  0.59553300  0.98726600  0.91415900  1
  H  H30  1  0.90446700  0.98726600  0.41415900  1
  H  H31  1  0.40446700  0.01273400  0.08584100  1
  H  H32  1  0.13952300  0.97079900  0.71900600  1
  H  H33  1  0.63952300  0.02920100  0.78099400  1
  H  H34  1  0.86047700  0.02920100  0.28099400  1
  H  H35  1  0.36047700  0.97079900  0.21900600  1
  H  H36  1  0.07556200  0.15269800  0.68711000  1
  H  H37  1  0.57556200  0.84730200  0.81289000  1
  H  H38  1  0.92443800  0.84730200  0.31289000  1
  H  H39  1  0.42443800  0.15269800  0.18711000  1
  H  H40  1  0.83631700  0.65077300  0.82700800  1
  H  H41  1  0.33631700  0.34922700  0.67299200  1
  H  H42  1  0.16368300  0.34922700  0.17299200  1
  H  H43  1  0.66368300  0.65077300  0.32700800  1
  H  H44  1  0.77981600  0.83754400  0.78944300  1
  H  H45  1  0.27981600  0.16245600  0.71055700  1
  H  H46  1  0.22018400  0.16245600  0.21055700  1
  H  H47  1  0.72018400  0.83754400  0.28944300  1
  H  H48  1  0.79807500  0.68990700  0.69410300  1
  H  H49  1  0.29807500  0.31009300  0.80589700  1
  H  H50  1  0.20192500  0.31009300  0.30589700  1
  H  H51  1  0.70192500  0.68990700  0.19410300  1
  H  H52  1  0.89624900  0.71284600  0.11307200  1
  H  H53  1  0.39624900  0.28715400  0.38692800  1
  H  H54  1  0.10375100  0.28715400  0.88692800  1
  H  H55  1  0.60375100  0.71284600  0.61307200  1
  H  H56  1  0.83703900  0.88379900  0.07351500  1
  H  H57  1  0.33703900  0.11620100  0.42648500  1
  H  H58  1  0.16296100  0.11620100  0.92648500  1
  H  H59  1  0.66296100  0.88379900  0.57351500  1
  H  H60  1  0.81761500  0.50986200  0.46688600  1
  H  H61  1  0.31761500  0.49013800  0.03311400  1
  H  H62  1  0.18238500  0.49013800  0.53311400  1
  H  H63  1  0.68238500  0.50986200  0.96688600  1
  H  H64  1  0.76070500  0.67660300  0.50097600  1
  H  H65  1  0.26070500  0.32339700  0.99902400  1
  H  H66  1  0.23929500  0.32339700  0.49902400  1
  H  H67  1  0.73929500  0.67660300  0.00097600  1
  N  N0  1  0.01927500  0.75058600  0.85926100  1
  N  N1  1  0.51927500  0.24941400  0.64073900  1
  N  N2  1  0.98072500  0.24941400  0.14073900  1
  N  N3  1  0.48072500  0.75058600  0.35926100  1
  N  N4  1  0.99268200  0.68389900  0.61365000  1
  N  N5  1  0.49268200  0.31610100  0.88635000  1
  N  N6  1  0.00731800  0.31610100  0.38635000  1
  N  N7  1  0.50731800  0.68389900  0.11365000  1
  N  N8  1  0.08221400  0.02112200  0.67182400  1
  N  N9  1  0.58221400  0.97887800  0.82817600  1
  N  N10  1  0.91778600  0.97887800  0.32817600  1
  N  N11  1  0.41778600  0.02112200  0.17182400  1
  N  N12  1  0.82803500  0.74723100  0.76237700  1
  N  N13  1  0.32803500  0.25276900  0.73762300  1
  N  N14  1  0.17196500  0.25276900  0.23762300  1
  N  N15  1  0.67196500  0.74723100  0.26237700  1
  O  O0  1  0.88963500  0.02367100  0.58655100  1
  O  O1  1  0.38963500  0.97632900  0.91344900  1
  O  O2  1  0.11036500  0.97632900  0.41344900  1
  O  O3  1  0.61036500  0.02367100  0.08655100  1
  O  O4  1  0.79960300  0.26883200  0.47998400  1
  O  O5  1  0.29960300  0.73116800  0.02001600  1
  O  O6  1  0.20039700  0.73116800  0.52001600  1
  O  O7  1  0.70039700  0.26883200  0.97998400  1
  O  O8  1  0.71376600  0.08250600  0.64109500  1
  O  O9  1  0.21376600  0.91749400  0.85890500  1
  O  O10  1  0.28623400  0.91749400  0.35890500  1
  O  O11  1  0.78623400  0.08250600  0.14109500  1
  O  O12  1  0.84639400  0.30649200  0.68428700  1
  O  O13  1  0.34639400  0.69350800  0.81571300  1
  O  O14  1  0.15360600  0.69350800  0.31571300  1
  O  O15  1  0.65360600  0.30649200  0.18428700  1
  O  O16  1  0.91695200  0.07150400  0.82576200  1
  O  O17  1  0.41695200  0.92849600  0.67423800  1
  O  O18  1  0.08304800  0.92849600  0.17423800  1
  O  O19  1  0.58304800  0.07150400  0.32576200  1
  O  O20  1  0.00913700  0.36267200  0.77680100  1
  O  O21  1  0.50913700  0.63732800  0.72319900  1
  O  O22  1  0.99086300  0.63732800  0.22319900  1
  O  O23  1  0.49086300  0.36267200  0.27680100  1
  O  O24  1  0.85914300  0.36536900  0.89455800  1
  O  O25  1  0.35914300  0.63463100  0.60544200  1
  O  O26  1  0.14085700  0.63463100  0.10544200  1
  O  O27  1  0.64085700  0.36536900  0.39455800  1
  O  O28  1  0.85469900  0.76384900  0.05095800  1
  O  O29  1  0.35469900  0.23615100  0.44904200  1
  O  O30  1  0.14530100  0.23615100  0.94904200  1
  O  O31  1  0.64530100  0.76384900  0.55095800  1
  O  O32  1  0.82308800  0.63949000  0.46932500  1
  O  O33  1  0.32308800  0.36051000  0.03067500  1
  O  O34  1  0.17691200  0.36051000  0.53067500  1
  O  O35  1  0.67691200  0.63949000  0.96932500  1
loop_
_geom_bond_atom_site_label_1
_geom_bond_atom_site_label_2
_geom_bond_distance
_geom_bond_site_symmetry_2
Cr0 O16 2.014108 1_565
Cr0 O0 2.019892 1_565
Cr0 N4 2.085934 1_555
Cr0 N0 2.091194 1_655
Cr0 N8 2.093035 1_665
Cr0 N12 2.105524 1_555
Cr1 O17 2.014108 1_545
Cr1 O1 2.019892 1_545
Cr1 N5 2.085934 1_555
Cr1 N1 2.091194 1_555
Cr1 N9 2.093035 1_545
Cr1 N13 2.105524 1_555
Cr2 O18 2.014108 1_545
Cr2 O2 2.019892 1_545
Cr2 N6 2.085934 1_555
Cr2 N2 2.091194 1_455
Cr2 N10 2.093035 1_445
Cr2 N14 2.105524 1_555
Cr3 O19 2.014108 1_565
Cr3 O3 2.019892 1_565
Cr3 N7 2.085934 1_555
Cr3 N3 2.091194 1_555
Cr3 N11 2.093035 1_565
Cr3 N15 2.105524 1_555
H0 O24 1.053193 1_555
H0 O7 1.466748 1_555
H1 O25 1.053193 1_555
H1 O6 1.466748 1_555
H2 O26 1.053193 1_555
H2 O5 1.466748 1_555
H3 O27 1.053193 1_555
H3 O4 1.466748 1_555
H4 N0 1.029038 1_655
H5 N1 1.029038 1_555
H6 N2 1.029038 1_455
H7 N3 1.029038 1_555
H8 N0 1.032394 1_555
H9 N1 1.032394 1_555
H10 N2 1.032394 1_555
H11 N3 1.032394 1_555
H12 N0 1.026057 1_555
H13 N1 1.026057 1_555
H14 N2 1.026057 1_555
H15 N3 1.026057 1_555
H16 N4 1.031075 1_455
H17 N5 1.031075 1_555
H18 N6 1.031075 1_655
H19 N7 1.031075 1_555
H20 N4 1.038038 1_555
H21 N5 1.038038 1_555
H22 N6 1.038038 1_555
H23 N7 1.038038 1_555
H24 N4 1.027468 1_455
H25 N5 1.027468 1_555
H26 N6 1.027468 1_655
H27 N7 1.027468 1_555
H28 N8 1.029213 1_555
H29 N9 1.029213 1_555
H30 N10 1.029213 1_555
H31 N11 1.029213 1_555
H32 N8 1.028687 1_565
H33 N9 1.028687 1_545
H34 N10 1.028687 1_545
H35 N11 1.028687 1_565
H36 N8 1.027555 1_555
H37 N9 1.027555 1_555
H38 N10 1.027555 1_555
H39 N11 1.027555 1_555
H40 N12 1.025010 1_555
H41 N13 1.025010 1_555
H42 N14 1.025010 1_555
H43 N15 1.025010 1_555
H44 N12 1.021811 1_555
H45 N13 1.021811 1_555
H46 N14 1.021811 1_555
H47 N15 1.021811 1_555
H48 N12 1.021599 1_555
H49 N13 1.021599 1_555
H50 N14 1.021599 1_555
H51 N15 1.021599 1_555
H52 O28 0.988061 1_555
H53 O29 0.988061 1_555
H54 O30 0.988061 1_555
H55 O31 0.988061 1_555
H56 O28 0.992543 1_555
H57 O29 0.992543 1_555
H58 O30 0.992543 1_555
H59 O31 0.992543 1_555
H60 O32 0.986930 1_555
H61 O33 0.986930 1_555
H62 O34 0.986930 1_555
H63 O35 0.986930 1_555
H64 O32 0.990220 1_555
H65 O33 0.990220 1_556
H66 O34 0.990220 1_555
H67 O35 0.990220 1_554
O0 P0 1.546698 1_555
O1 P1 1.546698 1_555
O2 P2 1.546698 1_555
O3 P3 1.546698 1_555
O4 P0 1.534004 1_555
O5 P1 1.534004 1_554
O6 P2 1.534004 1_555
O7 P3 1.534004 1_556
O8 P0 1.520158 1_555
O9 P1 1.520158 1_555
O10 P2 1.520158 1_555
O11 P3 1.520158 1_555
O12 P4 1.628453 1_555
O12 P0 1.657876 1_555
O13 P5 1.628453 1_555
O13 P1 1.657876 1_555
O14 P6 1.628453 1_555
O14 P2 1.657876 1_555
O15 P7 1.628453 1_555
O15 P3 1.657876 1_555
O16 P4 1.526192 1_555
O17 P5 1.526192 1_555
O18 P6 1.526192 1_555
O19 P7 1.526192 1_555
O20 P4 1.518211 1_455
O21 P5 1.518211 1_555
O22 P6 1.518211 1_655
O23 P7 1.518211 1_555
O24 P4 1.567223 1_555
O25 P5 1.567223 1_555
O26 P6 1.567223 1_555
O27 P7 1.567223 1_555
