# generated using pymatgen
data_Fe6O7F5
_symmetry_space_group_name_H-M   'P 1'
_cell_length_a   4.77567600
_cell_length_b   5.67797637
_cell_length_c   7.73896177
_cell_angle_alpha   83.98374741
_cell_angle_beta   87.34054931
_cell_angle_gamma   86.20469895
_symmetry_Int_Tables_number   1
_chemical_formula_structural   Fe6O7F5
_chemical_formula_sum   'Fe6 O7 F5'
_cell_volume   208.07281391
_cell_formula_units_Z   1
loop_
 _symmetry_equiv_pos_site_id
 _symmetry_equiv_pos_as_xyz
  1  'x, y, z'
loop_
 _atom_site_type_symbol
 _atom_site_label
 _atom_site_symmetry_multiplicity
 _atom_site_fract_x
 _atom_site_fract_y
 _atom_site_fract_z
 _atom_site_occupancy
  Fe  Fe0  1  0.55152800  0.85329000  0.66450800  1
  Fe  Fe1  1  0.54102800  0.50455900  0.01078800  1
  Fe  Fe2  1  0.48756000  0.16533300  0.33518800  1
  Fe  Fe3  1  0.99300300  0.32567700  0.67243100  1
  Fe  Fe4  1  0.99087800  0.66322300  0.32213900  1
  Fe  Fe5  1  0.95895400  0.99422500  0.99836800  1
  O  O0  1  0.81119900  0.04241300  0.77025500  1
  O  O1  1  0.81392700  0.69957600  0.10071300  1
  O  O2  1  0.68944400  0.19767100  0.11681200  1
  O  O3  1  0.69270800  0.53915700  0.76767600  1
  O  O4  1  0.69516200  0.88106400  0.42402100  1
  O  O5  1  0.30520800  0.13433700  0.55727100  1
  O  O6  1  0.30485900  0.45383300  0.23876600  1
  F  F0  1  0.80112300  0.37341800  0.43682000  1
  F  F1  1  0.30346600  0.80124900  0.89929500  1
  F  F2  1  0.19493500  0.95584800  0.22416700  1
  F  F3  1  0.17290900  0.62576200  0.55920400  1
  F  F4  1  0.19210900  0.28936500  0.90157500  1
loop_
_geom_bond_atom_site_label_1
_geom_bond_atom_site_label_2
_geom_bond_distance
_geom_bond_site_symmetry_2
Fe0 O4 1.947688 1_555
Fe0 O0 1.953305 1_565
Fe0 O3 1.966127 1_555
Fe0 O5 2.045363 1_565
Fe1 O2 1.950052 1_555
Fe1 O1 1.961048 1_555
Fe1 O3 1.979393 1_554
Fe1 O6 2.054182 1_555
Fe2 O5 1.887128 1_555
Fe2 O6 1.901697 1_555
Fe2 O2 1.904353 1_555
Fe2 O4 1.918230 1_545
Fe3 O0 1.944850 1_555
Fe3 O3 1.982000 1_555
Fe3 O5 2.015651 1_655
Fe4 O1 1.931406 1_555
Fe4 O6 1.978193 1_655
Fe4 O4 2.003963 1_555
Fe5 O0 1.917825 1_565
Fe5 O1 1.931506 1_556
Fe5 O2 1.935683 1_566
F0 Fe4 2.033032 1_555
F0 Fe3 2.063125 1_555
F0 Fe2 2.189822 1_555
F1 Fe5 2.077444 1_455
F1 Fe1 2.098246 1_556
F1 Fe0 2.127510 1_555
F2 Fe4 2.041297 1_455
F2 Fe5 2.107497 1_454
F2 Fe2 2.156770 1_565
F3 Fe4 2.051482 1_455
F3 Fe3 2.054304 1_455
F3 Fe0 2.503850 1_555
F4 Fe3 2.035991 1_455
F4 Fe5 2.125022 1_445
F4 Fe1 2.366571 1_556
