# generated using pymatgen
data_Li3Mn(NiO2)4
_symmetry_space_group_name_H-M   'P 1'
_cell_length_a   5.87749798
_cell_length_b   5.87749841
_cell_length_c   5.89301020
_cell_angle_alpha   89.75091406
_cell_angle_beta   59.80037526
_cell_angle_gamma   59.99888181
_symmetry_Int_Tables_number   1
_chemical_formula_structural   Li3Mn(NiO2)4
_chemical_formula_sum   'Li3 Mn1 Ni4 O8'
_cell_volume   143.82289626
_cell_formula_units_Z   1
loop_
 _symmetry_equiv_pos_site_id
 _symmetry_equiv_pos_as_xyz
  1  'x, y, z'
loop_
 _atom_site_type_symbol
 _atom_site_label
 _atom_site_symmetry_multiplicity
 _atom_site_fract_x
 _atom_site_fract_y
 _atom_site_fract_z
 _atom_site_occupancy
  Li  Li0  1  0.00000000  0.00000000  0.50000000  1
  Li  Li1  1  0.50000000  0.00000000  0.50000000  1
  Li  Li2  1  0.50000000  0.50000000  0.50000000  1
  Mn  Mn0  1  0.50000000  0.50000000  0.00000000  1
  Ni  Ni0  1  0.00000000  0.50000000  0.50000000  1
  Ni  Ni1  1  0.00000000  0.00000000  0.00000000  1
  Ni  Ni2  1  0.50000000  0.00000000  0.00000000  1
  Ni  Ni3  1  0.00000000  0.50000000  0.00000000  1
  O  O0  1  0.49128900  0.26530500  0.77401600  1
  O  O1  1  0.97162100  0.26302100  0.76302000  1
  O  O2  1  0.50000100  0.73464200  0.76302000  1
  O  O3  1  0.98120100  0.75065000  0.76944900  1
  O  O4  1  0.01879900  0.24935000  0.23055100  1
  O  O5  1  0.49999900  0.26535800  0.23698000  1
  O  O6  1  0.02837900  0.73697900  0.23698000  1
  O  O7  1  0.50871100  0.73469500  0.22598400  1
loop_
_geom_bond_atom_site_label_1
_geom_bond_atom_site_label_2
_geom_bond_distance
_geom_bond_site_symmetry_2
Li0 O1 2.079173 1_455
Li0 O6 2.079173 1_545
Li0 O7 2.116842 1_545
Li0 O0 2.116842 1_455
Li0 O3 2.155592 1_445
Li0 O4 2.155592 1_555
Li1 O5 2.194060 1_555
Li1 O2 2.194060 1_545
Li1 O6 2.194064 1_645
Li1 O1 2.194064 1_455
Li1 O7 2.213713 1_545
Li1 O0 2.213713 1_555
Li2 O5 2.079177 1_555
Li2 O2 2.079177 1_555
Li2 O0 2.116841 1_555
Li2 O7 2.116841 1_555
Li2 O3 2.155592 1_455
Li2 O4 2.155592 1_655
Mn0 O0 1.958088 1_554
Mn0 O7 1.958088 1_555
Mn0 O1 1.958433 1_554
Mn0 O6 1.958433 1_555
Mn0 O2 1.958437 1_554
Mn0 O5 1.958437 1_555
Ni0 O2 2.079360 1_455
Ni0 O5 2.079360 1_555
Ni0 O1 2.079361 1_455
Ni0 O6 2.079361 1_555
Ni0 O4 2.094012 1_555
Ni0 O3 2.094012 1_455
Ni1 O2 2.079816 1_544
Ni1 O5 2.079816 1_455
Ni1 O6 2.079817 1_545
Ni1 O1 2.079817 1_454
Ni1 O3 2.082362 1_444
Ni1 O4 2.082362 1_555
Ni2 O4 1.999813 1_555
Ni2 O3 1.999813 1_544
Ni2 O7 2.044095 1_545
Ni2 O0 2.044095 1_554
Ni2 O2 2.098019 1_544
Ni2 O5 2.098019 1_555
Ni3 O3 1.999813 1_454
Ni3 O4 1.999813 1_555
Ni3 O7 2.044095 1_455
Ni3 O0 2.044095 1_554
Ni3 O6 2.098024 1_555
Ni3 O1 2.098024 1_454
