# generated using pymatgen
data_Li2MnP2O7
_symmetry_space_group_name_H-M   'P 1'
_cell_length_a   7.11528203
_cell_length_b   8.66272234
_cell_length_c   10.21943547
_cell_angle_alpha   92.88116626
_cell_angle_beta   108.95972732
_cell_angle_gamma   95.00026040
_symmetry_Int_Tables_number   1
_chemical_formula_structural   Li2MnP2O7
_chemical_formula_sum   'Li8 Mn4 P8 O28'
_cell_volume   591.39350814
_cell_formula_units_Z   4
loop_
 _symmetry_equiv_pos_site_id
 _symmetry_equiv_pos_as_xyz
  1  'x, y, z'
loop_
 _atom_site_type_symbol
 _atom_site_label
 _atom_site_symmetry_multiplicity
 _atom_site_fract_x
 _atom_site_fract_y
 _atom_site_fract_z
 _atom_site_occupancy
  Li  Li0  1  0.62649300  0.85116600  0.29262200  1
  Li  Li1  1  0.62643000  0.85120500  0.79259100  1
  Li  Li2  1  0.33717100  0.67691700  0.00791600  1
  Li  Li3  1  0.33719000  0.67685100  0.50787100  1
  Li  Li4  1  0.92712100  0.39966500  0.02800000  1
  Li  Li5  1  0.92705300  0.39953800  0.52803600  1
  Li  Li6  1  0.37552500  0.15554300  0.20979800  1
  Li  Li7  1  0.37552100  0.15544300  0.70976800  1
  Mn  Mn0  1  0.50719600  0.49472400  0.75446200  1
  Mn  Mn1  1  0.00511000  0.00467900  0.50034100  1
  Mn  Mn2  1  0.50747600  0.49457000  0.25458700  1
  Mn  Mn3  1  0.00487400  0.00487400  0.00072200  1
  P  P0  1  0.18366700  0.79798000  0.27378700  1
  P  P1  1  0.18366700  0.79797500  0.77388900  1
  P  P2  1  0.77062300  0.69068100  0.06320600  1
  P  P3  1  0.77063800  0.69064100  0.56328400  1
  P  P4  1  0.22674000  0.31772900  0.43516100  1
  P  P5  1  0.22670300  0.31771400  0.93517100  1
  P  P6  1  0.81622700  0.20419100  0.23162600  1
  P  P7  1  0.81622200  0.20419700  0.73162600  1
  O  O0  1  0.21093700  0.94544400  0.20261100  1
  O  O1  1  0.21098200  0.94532200  0.70251900  1
  O  O2  1  0.76388700  0.84106300  0.49155100  1
  O  O3  1  0.76372700  0.84110400  0.99157900  1
  O  O4  1  0.13974900  0.82006200  0.40969200  1
  O  O5  1  0.13976800  0.82026200  0.90976200  1
  O  O6  1  0.62919900  0.68642800  0.15066500  1
  O  O7  1  0.62902400  0.68647100  0.65057300  1
  O  O8  1  0.36400800  0.70294700  0.29852300  1
  O  O9  1  0.36394000  0.70287900  0.79864300  1
  O  O10  1  0.99731800  0.68075900  0.16583000  1
  O  O11  1  0.99723700  0.68075900  0.66594400  1
  O  O12  1  0.73125600  0.54409100  0.46385700  1
  O  O13  1  0.73118100  0.54410900  0.96381500  1
  O  O14  1  0.26960600  0.46241800  0.03861100  1
  O  O15  1  0.26947600  0.46239900  0.53860000  1
  O  O16  1  0.98489700  0.32126000  0.35628100  1
  O  O17  1  0.98493100  0.32131200  0.85626200  1
  O  O18  1  0.62878400  0.28641600  0.21083800  1
  O  O19  1  0.62878700  0.28650700  0.71073900  1
  O  O20  1  0.32881100  0.32711400  0.32591000  1
  O  O21  1  0.32884100  0.32696100  0.82591900  1
  O  O22  1  0.89209500  0.20138400  0.10786700  1
  O  O23  1  0.89212500  0.20126700  0.60788100  1
  O  O24  1  0.24745900  0.16705600  0.00718300  1
  O  O25  1  0.24755100  0.16703200  0.50714400  1
  O  O26  1  0.79909800  0.04665000  0.29168500  1
  O  O27  1  0.79901600  0.04674200  0.79176000  1
loop_
_geom_bond_atom_site_label_1
_geom_bond_atom_site_label_2
_geom_bond_distance
_geom_bond_site_symmetry_2
Li0 O2 1.958976 1_555
Li0 O6 1.989053 1_555
Li0 O26 2.005696 1_565
Li0 O8 2.191648 1_555
Li1 O3 1.959388 1_555
Li1 O7 1.989217 1_555
Li1 O27 2.005720 1_565
Li1 O9 2.192668 1_555
Li2 O14 1.945016 1_555
Li2 O5 2.008659 1_554
Li2 O6 2.107322 1_555
Li2 O9 2.228514 1_554
Li3 O15 1.944963 1_555
Li3 O4 2.008079 1_555
Li3 O7 2.106022 1_555
Li3 O8 2.229575 1_555
Li4 O13 1.931845 1_554
Li4 O22 1.969038 1_555
Li4 O17 2.026863 1_554
Li4 O14 2.416005 1_655
Li5 O12 1.931845 1_555
Li5 O23 1.968720 1_555
Li5 O16 2.026946 1_555
Li5 O15 2.415843 1_655
Li6 O20 1.972970 1_555
Li6 O24 1.984505 1_555
Li6 O18 2.040313 1_555
Li6 O0 2.061182 1_545
Li7 O21 1.972774 1_555
Li7 O25 1.984596 1_555
Li7 O19 2.041365 1_555
Li7 O1 2.061051 1_545
Mn0 O21 2.154799 1_555
Mn0 O19 2.154942 1_555
Mn0 O13 2.207660 1_555
Mn0 O9 2.243200 1_555
Mn0 O7 2.272002 1_555
Mn0 O15 2.288337 1_555
Mn1 O2 2.103769 1_445
Mn1 O25 2.109008 1_555
Mn1 O1 2.224976 1_545
Mn1 O26 2.228795 1_455
Mn1 O4 2.242426 1_545
Mn1 O23 2.319238 1_455
Mn2 O18 2.153460 1_555
Mn2 O20 2.153739 1_555
Mn2 O12 2.206574 1_555
Mn2 O8 2.244921 1_555
Mn2 O6 2.272557 1_555
Mn2 O14 2.289603 1_555
Mn3 O3 2.103248 1_444
Mn3 O24 2.109830 1_555
Mn3 O0 2.223557 1_545
Mn3 O27 2.230511 1_454
Mn3 O5 2.245168 1_544
Mn3 O22 2.315694 1_455
O0 P0 1.529867 1_555
O1 P1 1.530184 1_555
O2 P3 1.523724 1_555
O3 P2 1.523124 1_556
O4 P0 1.526087 1_555
O5 P1 1.525874 1_555
O6 P2 1.547275 1_555
O7 P3 1.547037 1_555
O8 P0 1.543524 1_555
O9 P1 1.543445 1_555
O10 P2 1.625741 1_555
O10 P0 1.645755 1_655
O11 P3 1.625264 1_555
O11 P1 1.645995 1_655
O12 P3 1.531645 1_555
O13 P2 1.531542 1_556
O14 P5 1.540252 1_554
O15 P4 1.540136 1_555
O16 P4 1.649884 1_655
O16 P6 1.660158 1_555
O17 P5 1.649559 1_655
O17 P7 1.660380 1_555
O18 P6 1.525770 1_555
O19 P7 1.526004 1_555
O20 P4 1.518664 1_555
O21 P5 1.518955 1_555
O22 P6 1.527884 1_555
O23 P7 1.527910 1_555
O24 P5 1.525198 1_554
O25 P4 1.525358 1_555
O26 P6 1.535541 1_555
O27 P7 1.535302 1_555
