# generated using pymatgen
data_Li4Fe3Co2Sn3O16
_symmetry_space_group_name_H-M   'P 1'
_cell_length_a   6.10519775
_cell_length_b   6.10519775
_cell_length_c   9.48551737
_cell_angle_alpha   89.95237091
_cell_angle_beta   89.95237091
_cell_angle_gamma   60.06533633
_symmetry_Int_Tables_number   1
_chemical_formula_structural   Li4Fe3Co2Sn3O16
_chemical_formula_sum   'Li4 Fe3 Co2 Sn3 O16'
_cell_volume   306.39133432
_cell_formula_units_Z   1
loop_
 _symmetry_equiv_pos_site_id
 _symmetry_equiv_pos_as_xyz
  1  'x, y, z'
loop_
 _atom_site_type_symbol
 _atom_site_label
 _atom_site_symmetry_multiplicity
 _atom_site_fract_x
 _atom_site_fract_y
 _atom_site_fract_z
 _atom_site_occupancy
  Li  Li0  1  0.32979200  0.32979200  0.88818300  1
  Li  Li1  1  0.01499000  0.01499000  0.98838900  1
  Li  Li2  1  0.01199900  0.01199900  0.50081900  1
  Li  Li3  1  0.66475100  0.66475100  0.39804300  1
  Fe  Fe0  1  0.16753700  0.16753700  0.21245400  1
  Fe  Fe1  1  0.34489900  0.82464300  0.71424300  1
  Fe  Fe2  1  0.82464300  0.34489900  0.71424300  1
  Co  Co0  1  0.32995800  0.32995800  0.48920000  1
  Co  Co1  1  0.66218400  0.66218400  0.97750500  1
  Sn  Sn0  1  0.16888200  0.66038900  0.21067100  1
  Sn  Sn1  1  0.66038900  0.16888200  0.21067100  1
  Sn  Sn2  1  0.82738700  0.82738700  0.71127400  1
  O  O0  1  0.17229100  0.65707400  0.59390800  1
  O  O1  1  0.47570100  0.47570100  0.35158000  1
  O  O2  1  0.32757400  0.32757400  0.09711300  1
  O  O3  1  0.00208800  0.00208800  0.31351500  1
  O  O4  1  0.00254800  0.00254800  0.80039300  1
  O  O5  1  0.65707400  0.17229100  0.59390800  1
  O  O6  1  0.04931800  0.47005200  0.35142600  1
  O  O7  1  0.47005200  0.04931800  0.35142600  1
  O  O8  1  0.83455300  0.83455300  0.09367200  1
  O  O9  1  0.17580300  0.17580300  0.59883900  1
  O  O10  1  0.51907900  0.94955500  0.85050600  1
  O  O11  1  0.94955500  0.51907900  0.85050600  1
  O  O12  1  0.66077400  0.66077400  0.59920700  1
  O  O13  1  0.33595500  0.83466000  0.09931400  1
  O  O14  1  0.52292800  0.52292800  0.84763500  1
  O  O15  1  0.83466000  0.33595500  0.09931400  1
loop_
_geom_bond_atom_site_label_1
_geom_bond_atom_site_label_2
_geom_bond_distance
_geom_bond_site_symmetry_2
Li0 O2 1.981925 1_556
Li0 O10 2.043403 1_545
Li0 O11 2.043403 1_455
Li0 O14 2.077196 1_555
Li1 O4 1.788209 1_555
Li1 O15 2.001855 1_456
Li1 O13 2.001855 1_546
Li1 O8 2.152177 1_446
Li2 O3 1.779862 1_555
Li2 O9 1.966195 1_555
Li2 O0 2.077178 1_545
Li2 O5 2.077178 1_455
Li3 O12 1.908567 1_555
Li3 O1 2.046887 1_555
Li3 O7 2.082003 1_565
Li3 O6 2.082003 1_655
Fe0 O3 1.993642 1_555
Fe0 O2 2.013820 1_555
Fe0 O15 2.062869 1_455
Fe0 O13 2.062869 1_545
Fe0 O6 2.083701 1_555
Fe0 O7 2.083701 1_555
Fe1 O4 1.987219 1_565
Fe1 O12 1.995840 1_555
Fe1 O14 2.043442 1_555
Fe1 O10 2.048490 1_555
Fe1 O0 2.130705 1_555
Fe1 O9 2.156258 1_565
Fe2 O4 1.987219 1_655
Fe2 O12 1.995840 1_555
Fe2 O14 2.043442 1_555
Fe2 O11 2.048490 1_555
Fe2 O5 2.130705 1_555
Fe2 O9 2.156258 1_655
Co0 O9 1.932312 1_555
Co0 O7 1.978471 1_555
Co0 O6 1.978471 1_555
Co0 O5 1.996145 1_555
Co0 O0 1.996145 1_555
Co0 O1 2.018369 1_555
Co1 O14 1.920427 1_555
Co1 O10 1.939343 1_555
Co1 O11 1.939343 1_555
Co1 O15 2.077435 1_556
Co1 O13 2.077435 1_556
Co1 O8 2.130296 1_556
O0 Sn2 2.137150 1_455
O1 Sn1 2.111969 1_555
O1 Sn0 2.111969 1_555
O2 Sn1 2.065126 1_555
O2 Sn0 2.065126 1_555
O3 Sn0 2.054795 1_545
O3 Sn1 2.054795 1_455
O4 Sn2 2.036209 1_445
O5 Sn2 2.137150 1_545
O6 Sn0 2.123240 1_555
O7 Sn1 2.123240 1_555
O8 Sn0 2.089083 1_655
O8 Sn1 2.089083 1_565
O10 Sn2 2.107099 1_555
O11 Sn2 2.107099 1_555
O12 Sn2 2.058074 1_555
O13 Sn0 2.089883 1_555
O15 Sn1 2.089883 1_555
