# generated using pymatgen
data_Li2V2P7HO24
_symmetry_space_group_name_H-M   'P 1'
_cell_length_a   18.01494100
_cell_length_b   4.99079900
_cell_length_c   10.46444773
_cell_angle_alpha   83.56920481
_cell_angle_beta   90.00000000
_cell_angle_gamma   90.00000000
_symmetry_Int_Tables_number   1
_chemical_formula_structural   Li2V2P7HO24
_chemical_formula_sum   'Li4 V4 P14 H2 O48'
_cell_volume   934.92756220
_cell_formula_units_Z   2
loop_
 _symmetry_equiv_pos_site_id
 _symmetry_equiv_pos_as_xyz
  1  'x, y, z'
loop_
 _atom_site_type_symbol
 _atom_site_label
 _atom_site_symmetry_multiplicity
 _atom_site_fract_x
 _atom_site_fract_y
 _atom_site_fract_z
 _atom_site_occupancy
  Li  Li0  1  0.25000000  0.87229400  0.64672200  1
  Li  Li1  1  0.75000000  0.53493000  0.05812500  1
  Li  Li2  1  0.25000000  0.46507000  0.94187500  1
  Li  Li3  1  0.75000000  0.12770600  0.35327800  1
  V  V0  1  0.52314300  0.82257400  0.80603800  1
  V  V1  1  0.97685700  0.82257400  0.80603800  1
  V  V2  1  0.02314300  0.17742600  0.19396200  1
  V  V3  1  0.47685700  0.17742600  0.19396200  1
  P  P0  1  0.87391300  0.83803600  0.53658400  1
  P  P1  1  0.62608700  0.83803600  0.53658400  1
  P  P2  1  0.75000000  0.58912400  0.68982000  1
  P  P3  1  0.09642800  0.71887500  0.04710900  1
  P  P4  1  0.40357200  0.71887500  0.04710900  1
  P  P5  1  0.91424600  0.64404300  0.29354000  1
  P  P6  1  0.58575400  0.64404300  0.29354000  1
  P  P7  1  0.41424600  0.35595700  0.70646000  1
  P  P8  1  0.08575400  0.35595700  0.70646000  1
  P  P9  1  0.90357200  0.28112500  0.95289100  1
  P  P10  1  0.59642800  0.28112500  0.95289100  1
  P  P11  1  0.25000000  0.41087600  0.31018000  1
  P  P12  1  0.12608700  0.16196400  0.46341600  1
  P  P13  1  0.37391300  0.16196400  0.46341600  1
  H  H0  1  0.25000000  0.88899500  0.25204500  1
  H  H1  1  0.75000000  0.11100500  0.74795500  1
  O  O0  1  0.33177500  0.93484200  0.53128900  1
  O  O1  1  0.16822500  0.93484200  0.53128900  1
  O  O2  1  0.40203100  0.98550400  0.11122100  1
  O  O3  1  0.09796900  0.98550400  0.11122100  1
  O  O4  1  0.75000000  0.81599400  0.77068200  1
  O  O5  1  0.92501500  0.90625800  0.64510100  1
  O  O6  1  0.57498500  0.90625800  0.64510100  1
  O  O7  1  0.47496500  0.73946700  0.95982900  1
  O  O8  1  0.02503500  0.73946700  0.95982900  1
  O  O9  1  0.96843500  0.85994000  0.22640000  1
  O  O10  1  0.53156500  0.85994000  0.22640000  1
  O  O11  1  0.33575900  0.66476000  0.97423200  1
  O  O12  1  0.16424100  0.66476000  0.97423200  1
  O  O13  1  0.92547400  0.68011800  0.44580000  1
  O  O14  1  0.57452600  0.68011800  0.44580000  1
  O  O15  1  0.83563000  0.67475900  0.25284200  1
  O  O16  1  0.66437000  0.67475900  0.25284200  1
  O  O17  1  0.82009400  0.59495300  0.59496600  1
  O  O18  1  0.67990600  0.59495300  0.59496600  1
  O  O19  1  0.25000000  0.68739000  0.23327200  1
  O  O20  1  0.45059100  0.63447300  0.71668700  1
  O  O21  1  0.04940900  0.63447300  0.71668700  1
  O  O22  1  0.92055100  0.51188900  0.84088700  1
  O  O23  1  0.57944900  0.51188900  0.84088700  1
  O  O24  1  0.42055100  0.48811100  0.15911300  1
  O  O25  1  0.07944900  0.48811100  0.15911300  1
  O  O26  1  0.54940900  0.36552700  0.28331300  1
  O  O27  1  0.95059100  0.36552700  0.28331300  1
  O  O28  1  0.75000000  0.31261000  0.76672800  1
  O  O29  1  0.17990600  0.40504700  0.40503400  1
  O  O30  1  0.32009400  0.40504700  0.40503400  1
  O  O31  1  0.16437000  0.32524100  0.74715800  1
  O  O32  1  0.33563000  0.32524100  0.74715800  1
  O  O33  1  0.42547400  0.31988200  0.55420000  1
  O  O34  1  0.07452600  0.31988200  0.55420000  1
  O  O35  1  0.83575900  0.33524000  0.02576800  1
  O  O36  1  0.66424100  0.33524000  0.02576800  1
  O  O37  1  0.03156500  0.14006000  0.77360000  1
  O  O38  1  0.46843500  0.14006000  0.77360000  1
  O  O39  1  0.97496500  0.26053300  0.04017100  1
  O  O40  1  0.52503500  0.26053300  0.04017100  1
  O  O41  1  0.07498500  0.09374200  0.35489900  1
  O  O42  1  0.42501500  0.09374200  0.35489900  1
  O  O43  1  0.25000000  0.18400600  0.22931800  1
  O  O44  1  0.90203100  0.01449600  0.88877900  1
  O  O45  1  0.59796900  0.01449600  0.88877900  1
  O  O46  1  0.66822500  0.06515800  0.46871100  1
  O  O47  1  0.83177500  0.06515800  0.46871100  1
loop_
_geom_bond_atom_site_label_1
_geom_bond_atom_site_label_2
_geom_bond_distance
_geom_bond_site_symmetry_2
Li0 O0 1.908491 1_555
Li0 O1 1.908491 1_555
Li1 O35 1.889531 1_555
Li1 O36 1.889531 1_555
Li2 O11 1.889531 1_555
Li2 O12 1.889531 1_555
Li3 O47 1.908491 1_555
Li3 O46 1.908491 1_555
H0 O19 1.046541 1_555
H0 O43 1.464892 1_565
H1 O28 1.046541 1_555
H1 O4 1.464892 1_545
O0 P13 1.478255 1_565
O1 P12 1.478255 1_565
O2 P4 1.556148 1_555
O2 V3 1.915721 1_565
O3 P3 1.556148 1_555
O3 V2 1.915721 1_565
O4 P2 1.487498 1_555
O5 P0 1.529563 1_555
O5 V1 1.930116 1_555
O6 P1 1.529563 1_555
O6 V0 1.930116 1_555
O7 P4 1.574128 1_556
O7 V0 1.834603 1_555
O8 P3 1.574128 1_556
O8 V1 1.834603 1_455
O9 P5 1.561421 1_555
O9 V2 1.864602 1_665
O10 P6 1.561421 1_555
O10 V3 1.864602 1_565
O11 P4 1.480907 1_556
O12 P3 1.480907 1_556
O13 P0 1.598182 1_555
O13 P5 1.635924 1_555
O14 P1 1.598182 1_555
O14 P6 1.635924 1_555
O15 P5 1.481908 1_555
O16 P6 1.481908 1_555
O17 P2 1.604410 1_555
O17 P0 1.618344 1_555
O18 P2 1.604410 1_555
O18 P1 1.618344 1_555
O19 P11 1.517690 1_555
O20 P7 1.551008 1_555
O20 V0 1.913234 1_555
O21 P8 1.551008 1_555
O21 V1 1.913234 1_455
O22 P9 1.578390 1_555
O22 V1 1.854585 1_555
O23 P10 1.578390 1_555
O23 V0 1.854585 1_555
O24 P4 1.578390 1_555
O24 V3 1.854585 1_555
O25 P3 1.578390 1_555
O25 V2 1.854585 1_555
O26 P6 1.551008 1_555
O26 V3 1.913234 1_555
O27 P5 1.551008 1_555
O27 V2 1.913234 1_655
O28 P2 1.517690 1_555
O29 P11 1.604410 1_555
O29 P12 1.618344 1_555
O30 P11 1.604410 1_555
O30 P13 1.618344 1_555
O31 P8 1.481908 1_555
O32 P7 1.481908 1_555
O33 P13 1.598182 1_555
O33 P7 1.635924 1_555
O34 P12 1.598182 1_555
O34 P8 1.635924 1_555
O35 P9 1.480907 1_554
O36 P10 1.480907 1_554
O37 P8 1.561421 1_555
O37 V1 1.864602 1_445
O38 P7 1.561421 1_555
O38 V0 1.864602 1_545
O39 P9 1.574128 1_554
O39 V2 1.834603 1_655
O40 P10 1.574128 1_554
O40 V3 1.834603 1_555
O41 P12 1.529563 1_555
O41 V2 1.930116 1_555
O42 P13 1.529563 1_555
O42 V3 1.930116 1_555
O43 P11 1.487498 1_555
O44 P9 1.556148 1_555
O44 V1 1.915721 1_545
O45 P10 1.556148 1_555
O45 V0 1.915721 1_545
O46 P1 1.478255 1_545
O47 P0 1.478255 1_545
