# generated using pymatgen
data_Bi2OF4
_symmetry_space_group_name_H-M   'P 1'
_cell_length_a   7.06557438
_cell_length_b   7.06557438
_cell_length_c   5.62580846
_cell_angle_alpha   76.92409380
_cell_angle_beta   76.92409380
_cell_angle_gamma   47.86140727
_symmetry_Int_Tables_number   1
_chemical_formula_structural   Bi2OF4
_chemical_formula_sum   'Bi4 O2 F8'
_cell_volume   201.77923643
_cell_formula_units_Z   2
loop_
 _symmetry_equiv_pos_site_id
 _symmetry_equiv_pos_as_xyz
  1  'x, y, z'
loop_
 _atom_site_type_symbol
 _atom_site_label
 _atom_site_symmetry_multiplicity
 _atom_site_fract_x
 _atom_site_fract_y
 _atom_site_fract_z
 _atom_site_occupancy
  Bi  Bi0  1  0.11177709  0.67721790  0.58851263  1
  Bi  Bi1  1  0.67721790  0.11177709  0.08851263  1
  Bi  Bi2  1  0.32278210  0.88822291  0.91148737  1
  Bi  Bi3  1  0.88822291  0.32278210  0.41148737  1
  O  O0  1  0.96798413  0.03201587  0.75000000  1
  O  O1  1  0.03201587  0.96798413  0.25000000  1
  F  F0  1  0.29376321  0.55286819  0.96115456  1
  F  F1  1  0.55286819  0.29376321  0.46115456  1
  F  F2  1  0.73439138  0.83574911  0.84320732  1
  F  F3  1  0.83574911  0.73439138  0.34320732  1
  F  F4  1  0.16425089  0.26560862  0.65679268  1
  F  F5  1  0.26560862  0.16425089  0.15679268  1
  F  F6  1  0.44713181  0.70623679  0.53884544  1
  F  F7  1  0.70623679  0.44713181  0.03884544  1
loop_
_geom_bond_atom_site_label_1
_geom_bond_atom_site_label_2
_geom_bond_distance
_geom_bond_site_symmetry_2
Bi0 O1 2.307978 1_555
Bi0 O0 2.310233 1_465
Bi0 F2 2.325379 1_455
Bi0 F0 2.385502 1_555
Bi0 F3 2.404117 1_455
Bi0 F6 2.461895 1_555
Bi0 F1 2.470715 1_555
Bi0 F4 2.618217 1_555
Bi1 O0 2.307978 1_554
Bi1 O1 2.310233 1_645
Bi1 F3 2.325379 1_545
Bi1 F1 2.385502 1_555
Bi1 F2 2.404117 1_544
Bi1 F7 2.461895 1_555
Bi1 F0 2.470715 1_554
Bi1 F5 2.618217 1_555
Bi2 O1 2.307978 1_556
Bi2 O0 2.310233 1_465
Bi2 F4 2.325379 1_565
Bi2 F6 2.385502 1_555
Bi2 F5 2.404117 1_566
Bi2 F0 2.461895 1_555
Bi2 F7 2.470715 1_556
Bi2 F2 2.618217 1_555
Bi3 O0 2.307978 1_555
Bi3 O1 2.310233 1_645
Bi3 F5 2.325379 1_655
Bi3 F7 2.385502 1_555
Bi3 F4 2.404117 1_655
Bi3 F1 2.461895 1_555
Bi3 F6 2.470715 1_555
Bi3 F3 2.618217 1_555
