# generated using pymatgen
data_Li3FeO3
_symmetry_space_group_name_H-M   'P 1'
_cell_length_a   8.90190407
_cell_length_b   8.90187807
_cell_length_c   3.62976800
_cell_angle_alpha   90.00008598
_cell_angle_beta   90.00015617
_cell_angle_gamma   89.98582713
_symmetry_Int_Tables_number   1
_chemical_formula_structural   Li3FeO3
_chemical_formula_sum   'Li12 Fe4 O12'
_cell_volume   287.63610912
_cell_formula_units_Z   4
loop_
 _symmetry_equiv_pos_site_id
 _symmetry_equiv_pos_as_xyz
  1  'x, y, z'
loop_
 _atom_site_type_symbol
 _atom_site_label
 _atom_site_symmetry_multiplicity
 _atom_site_fract_x
 _atom_site_fract_y
 _atom_site_fract_z
 _atom_site_occupancy
  Li  Li0  1  0.10078000  0.35906300  0.50000000  1
  Li  Li1  1  0.14092800  0.60084000  0.00000100  1
  Li  Li2  1  0.16800800  0.16799400  0.00000200  1
  Li  Li3  1  0.33194400  0.66808200  0.50000100  1
  Li  Li4  1  0.35907600  0.10076600  0.50000300  1
  Li  Li5  1  0.39917400  0.85910700  0.00000100  1
  Li  Li6  1  0.60084500  0.14091300  0.00000300  1
  Li  Li7  1  0.64095700  0.89923700  0.49999900  1
  Li  Li8  1  0.66809000  0.33194200  0.50000100  1
  Li  Li9  1  0.83201400  0.83200100  0.00000200  1
  Li  Li10  1  0.85911300  0.39917400  0.00000400  1
  Li  Li11  1  0.89924100  0.64094200  0.49999700  1
  Fe  Fe0  1  0.11525300  0.88474400  0.49999600  1
  Fe  Fe1  1  0.38483900  0.38484300  0.99999300  1
  Fe  Fe2  1  0.61506300  0.61511900  0.99997800  1
  Fe  Fe3  1  0.88473900  0.11525800  0.50002700  1
  O  O0  1  0.10154500  0.10154400  0.49999800  1
  O  O1  1  0.11181200  0.67796000  0.49999900  1
  O  O2  1  0.17792100  0.38814700  0.99999900  1
  O  O3  1  0.32204000  0.88820500  0.49999800  1
  O  O4  1  0.38816100  0.17791300  0.00000700  1
  O  O5  1  0.39842200  0.60153800  0.00000000  1
  O  O6  1  0.60153500  0.39844300  0.99999800  1
  O  O7  1  0.61184200  0.82205800  0.99998800  1
  O  O8  1  0.67795800  0.11181200  0.50000400  1
  O  O9  1  0.82203000  0.61184500  0.99998800  1
  O  O10  1  0.88821400  0.32204800  0.50000700  1
  O  O11  1  0.89845800  0.89846300  0.50000500  1
loop_
_geom_bond_atom_site_label_1
_geom_bond_atom_site_label_2
_geom_bond_distance
_geom_bond_site_symmetry_2
Li0 O10 1.920797 1_455
Li0 O2 1.957667 1_555
Li0 O2 1.957678 1_554
Li0 O0 2.292411 1_555
Li1 O2 1.921711 1_554
Li1 O1 1.957592 1_555
Li1 O1 1.957606 1_554
Li1 O5 2.292197 1_555
Li2 O2 1.961783 1_554
Li2 O4 1.961791 1_555
Li2 O0 1.998471 1_555
Li2 O0 1.998493 1_554
Li3 O3 1.961469 1_555
Li3 O1 1.961544 1_555
Li3 O5 1.998679 1_556
Li3 O5 1.998687 1_555
Li4 O3 1.920780 1_545
Li4 O4 1.957680 1_555
Li4 O4 1.957704 1_556
Li4 O0 2.292525 1_555
Li5 O7 1.921583 1_554
Li5 O3 1.957613 1_555
Li5 O3 1.957631 1_554
Li5 O5 2.292859 1_555
Li6 O4 1.921648 1_555
Li6 O8 1.957558 1_554
Li6 O8 1.957562 1_555
Li6 O6 2.292510 1_554
Li7 O8 1.920849 1_565
Li7 O7 1.957792 1_555
Li7 O7 1.957863 1_554
Li7 O11 2.292258 1_555
Li8 O10 1.961479 1_555
Li8 O8 1.961517 1_555
Li8 O6 1.998763 1_555
Li8 O6 1.998782 1_554
Li9 O9 1.961838 1_554
Li9 O7 1.961969 1_554
Li9 O11 1.998456 1_554
Li9 O11 1.998471 1_555
Li10 O9 1.921656 1_554
Li10 O10 1.957590 1_554
Li10 O10 1.957611 1_555
Li10 O6 2.292945 1_554
Li11 O1 1.920845 1_655
Li11 O9 1.957878 1_555
Li11 O9 1.957935 1_554
Li11 O11 2.292429 1_555
Fe0 O1 1.841028 1_555
Fe0 O3 1.841063 1_555
Fe0 O11 1.933718 1_455
Fe0 O0 1.933751 1_565
Fe1 O2 1.842192 1_555
Fe1 O4 1.842296 1_556
Fe1 O5 1.932808 1_556
Fe1 O6 1.932832 1_555
Fe2 O7 1.842362 1_555
Fe2 O9 1.842624 1_555
Fe2 O5 1.932333 1_556
Fe2 O6 1.932609 1_555
Fe3 O8 1.841008 1_555
Fe3 O10 1.841087 1_555
Fe3 O11 1.933713 1_545
Fe3 O0 1.933813 1_655
