# generated using pymatgen
data_LiMnPO5
_symmetry_space_group_name_H-M   'P 1'
_cell_length_a   6.28844800
_cell_length_b   7.10588000
_cell_length_c   7.42632000
_cell_angle_alpha   90.00000000
_cell_angle_beta   90.00000000
_cell_angle_gamma   90.00000000
_symmetry_Int_Tables_number   1
_chemical_formula_structural   LiMnPO5
_chemical_formula_sum   'Li4 Mn4 P4 O20'
_cell_volume   331.84478893
_cell_formula_units_Z   4
loop_
 _symmetry_equiv_pos_site_id
 _symmetry_equiv_pos_as_xyz
  1  'x, y, z'
loop_
 _atom_site_type_symbol
 _atom_site_label
 _atom_site_symmetry_multiplicity
 _atom_site_fract_x
 _atom_site_fract_y
 _atom_site_fract_z
 _atom_site_occupancy
  Li  Li0  1  0.00000000  0.00000000  0.00000000  1
  Li  Li1  1  0.50000000  0.00000000  0.00000000  1
  Li  Li2  1  0.00000000  0.50000000  0.50000000  1
  Li  Li3  1  0.50000000  0.50000000  0.50000000  1
  Mn  Mn0  1  0.25000000  0.14075300  0.73028400  1
  Mn  Mn1  1  0.75000000  0.35924700  0.23028400  1
  Mn  Mn2  1  0.25000000  0.64075300  0.76971600  1
  Mn  Mn3  1  0.75000000  0.85924700  0.26971600  1
  P  P0  1  0.75000000  0.12378600  0.61969400  1
  P  P1  1  0.25000000  0.37621400  0.11969400  1
  P  P2  1  0.75000000  0.62378600  0.88030600  1
  P  P3  1  0.25000000  0.87621400  0.38030600  1
  O  O0  1  0.25000000  0.06161700  0.48790800  1
  O  O1  1  0.75000000  0.10784100  0.16106000  1
  O  O2  1  0.55823800  0.12999400  0.74997000  1
  O  O3  1  0.94176200  0.12999400  0.74997000  1
  O  O4  1  0.25000000  0.20101600  0.99471300  1
  O  O5  1  0.75000000  0.29898400  0.49471300  1
  O  O6  1  0.05823800  0.37000600  0.24997000  1
  O  O7  1  0.44176200  0.37000600  0.24997000  1
  O  O8  1  0.25000000  0.39215900  0.66106000  1
  O  O9  1  0.75000000  0.43838300  0.98790800  1
  O  O10  1  0.25000000  0.56161700  0.01209200  1
  O  O11  1  0.75000000  0.60784100  0.33894000  1
  O  O12  1  0.55823800  0.62999400  0.75003000  1
  O  O13  1  0.94176200  0.62999400  0.75003000  1
  O  O14  1  0.25000000  0.70101600  0.50528700  1
  O  O15  1  0.75000000  0.79898400  0.00528700  1
  O  O16  1  0.05823800  0.87000600  0.25003000  1
  O  O17  1  0.44176200  0.87000600  0.25003000  1
  O  O18  1  0.25000000  0.89215900  0.83894000  1
  O  O19  1  0.75000000  0.93838300  0.51209200  1
loop_
_geom_bond_atom_site_label_1
_geom_bond_atom_site_label_2
_geom_bond_distance
_geom_bond_site_symmetry_2
Li0 O3 2.105968 1_454
Li0 O16 2.105968 1_545
Li0 O18 2.118814 1_544
Li0 O1 2.118814 1_455
Li0 O15 2.124474 1_445
Li0 O4 2.124474 1_554
Li1 O2 2.105968 1_554
Li1 O17 2.105968 1_545
Li1 O18 2.118814 1_544
Li1 O1 2.118814 1_555
Li1 O15 2.124474 1_545
Li1 O4 2.124474 1_554
Li2 O13 2.105968 1_455
Li2 O6 2.105968 1_555
Li2 O11 2.118814 1_455
Li2 O8 2.118814 1_555
Li2 O5 2.124474 1_455
Li2 O14 2.124474 1_555
Li3 O12 2.105968 1_555
Li3 O7 2.105968 1_555
Li3 O11 2.118814 1_555
Li3 O8 2.118814 1_555
Li3 O5 2.124474 1_555
Li3 O14 2.124474 1_555
Mn0 O8 1.858957 1_555
Mn0 O0 1.885757 1_555
Mn0 O18 1.942050 1_545
Mn0 O2 1.945347 1_555
Mn0 O3 1.945347 1_455
Mn0 O4 2.009882 1_555
Mn1 O1 1.858957 1_555
Mn1 O9 1.885757 1_554
Mn1 O11 1.942050 1_555
Mn1 O6 1.945347 1_655
Mn1 O7 1.945347 1_555
Mn1 O5 2.009882 1_555
Mn2 O18 1.858957 1_555
Mn2 O10 1.885757 1_556
Mn2 O8 1.942050 1_555
Mn2 O13 1.945347 1_455
Mn2 O12 1.945347 1_555
Mn2 O14 2.009882 1_555
Mn3 O11 1.858957 1_555
Mn3 O19 1.885757 1_555
Mn3 O1 1.942050 1_565
Mn3 O16 1.945347 1_655
Mn3 O17 1.945347 1_555
Mn3 O15 2.009882 1_555
O0 P3 1.540850 1_545
O2 P0 1.546644 1_555
O3 P0 1.546644 1_555
O4 P1 1.552844 1_556
O5 P0 1.552844 1_555
O6 P1 1.546644 1_555
O7 P1 1.546644 1_555
O9 P2 1.540850 1_555
O10 P1 1.540850 1_555
O12 P2 1.546644 1_555
O13 P2 1.546644 1_555
O14 P3 1.552844 1_555
O15 P2 1.552844 1_554
O16 P3 1.546644 1_555
O17 P3 1.546644 1_555
O19 P0 1.540850 1_565
