# generated using pymatgen
data_Mn13Fe3O32
_symmetry_space_group_name_H-M   'P 1'
_cell_length_a   8.30055341
_cell_length_b   8.30055341
_cell_length_c   10.12595498
_cell_angle_alpha   66.00815883
_cell_angle_beta   66.00815883
_cell_angle_gamma   89.49452181
_symmetry_Int_Tables_number   1
_chemical_formula_structural   Mn13Fe3O32
_chemical_formula_sum   'Mn13 Fe3 O32'
_cell_volume   571.99649612
_cell_formula_units_Z   1
loop_
 _symmetry_equiv_pos_site_id
 _symmetry_equiv_pos_as_xyz
  1  'x, y, z'
loop_
 _atom_site_type_symbol
 _atom_site_label
 _atom_site_symmetry_multiplicity
 _atom_site_fract_x
 _atom_site_fract_y
 _atom_site_fract_z
 _atom_site_occupancy
  Mn  Mn0  1  0.50000000  0.00000000  0.00000000  1
  Mn  Mn1  1  0.00000000  0.50000000  0.00000000  1
  Mn  Mn2  1  0.37530700  0.12475900  0.75011500  1
  Mn  Mn3  1  0.87528700  0.62538300  0.74972400  1
  Mn  Mn4  1  0.62538300  0.87528700  0.74972400  1
  Mn  Mn5  1  0.12475900  0.37530700  0.75011500  1
  Mn  Mn6  1  0.00000000  0.00000000  0.50000000  1
  Mn  Mn7  1  0.75042100  0.75042100  0.50016900  1
  Mn  Mn8  1  0.24957900  0.24957900  0.49983100  1
  Mn  Mn9  1  0.37461700  0.12471300  0.25027600  1
  Mn  Mn10  1  0.87524100  0.62469300  0.24988500  1
  Mn  Mn11  1  0.12471300  0.37461700  0.25027600  1
  Mn  Mn12  1  0.62469300  0.87524100  0.24988500  1
  Fe  Fe0  1  0.24993700  0.75006300  0.00000000  1
  Fe  Fe1  1  0.75006300  0.24993700  0.00000000  1
  Fe  Fe2  1  0.50000000  0.50000000  0.50000000  1
  O  O0  1  0.49806800  0.77499000  0.98356800  1
  O  O1  1  0.77499000  0.49806800  0.98356800  1
  O  O2  1  0.99949200  0.27537100  0.98252100  1
  O  O3  1  0.27537100  0.99949200  0.98252100  1
  O  O4  1  0.10192400  0.60213400  0.76533200  1
  O  O5  1  0.60213400  0.10192400  0.76533200  1
  O  O6  1  0.88848800  0.38749300  0.75819500  1
  O  O7  1  0.38749300  0.88848800  0.75819500  1
  O  O8  1  0.14857300  0.14857300  0.73416500  1
  O  O9  1  0.36481800  0.36481800  0.73833600  1
  O  O10  1  0.64776000  0.64776000  0.73476100  1
  O  O11  1  0.86690800  0.86690800  0.73458800  1
  O  O12  1  0.97601900  0.75733300  0.51566800  1
  O  O13  1  0.25365300  0.47596700  0.51603600  1
  O  O14  1  0.47596700  0.25365300  0.51603600  1
  O  O15  1  0.75733300  0.97601900  0.51566800  1
  O  O16  1  0.74634700  0.52403300  0.48396400  1
  O  O17  1  0.52403300  0.74634700  0.48396400  1
  O  O18  1  0.02398100  0.24266700  0.48433200  1
  O  O19  1  0.24266700  0.02398100  0.48433200  1
  O  O20  1  0.63518200  0.63518200  0.26166400  1
  O  O21  1  0.13309200  0.13309200  0.26541200  1
  O  O22  1  0.85142700  0.85142700  0.26583500  1
  O  O23  1  0.35224000  0.35224000  0.26523900  1
  O  O24  1  0.39786600  0.89807600  0.23466800  1
  O  O25  1  0.61250700  0.11151200  0.24180500  1
  O  O26  1  0.11151200  0.61250700  0.24180500  1
  O  O27  1  0.89807600  0.39786600  0.23466800  1
  O  O28  1  0.50193200  0.22501000  0.01643200  1
  O  O29  1  0.22501000  0.50193200  0.01643200  1
  O  O30  1  0.72462900  0.00050800  0.01747900  1
  O  O31  1  0.00050800  0.72462900  0.01747900  1
loop_
_geom_bond_atom_site_label_1
_geom_bond_atom_site_label_2
_geom_bond_distance
_geom_bond_site_symmetry_2
Mn0 O28 1.942085 1_555
Mn0 O0 1.942085 1_544
Mn0 O30 1.943447 1_555
Mn0 O3 1.943447 1_544
Mn0 O5 1.954626 1_554
Mn0 O24 1.954626 1_545
Mn1 O29 1.942085 1_555
Mn1 O1 1.942085 1_454
Mn1 O31 1.943447 1_555
Mn1 O2 1.943447 1_454
Mn1 O4 1.954626 1_554
Mn1 O27 1.954626 1_455
Mn2 O7 1.932846 1_545
Mn2 O3 1.935264 1_545
Mn2 O14 1.950378 1_555
Mn2 O9 1.950503 1_555
Mn2 O5 1.952035 1_555
Mn2 O8 1.954945 1_555
Mn3 O6 1.945397 1_555
Mn3 O1 1.947891 1_555
Mn3 O11 1.950346 1_555
Mn3 O12 1.951793 1_555
Mn3 O4 1.952372 1_655
Mn3 O10 1.956500 1_555
Mn4 O7 1.945397 1_555
Mn4 O0 1.947891 1_555
Mn4 O11 1.950346 1_555
Mn4 O15 1.951793 1_555
Mn4 O5 1.952372 1_565
Mn4 O10 1.956500 1_555
Mn5 O6 1.932846 1_455
Mn5 O2 1.935264 1_455
Mn5 O13 1.950378 1_555
Mn5 O9 1.950503 1_555
Mn5 O4 1.952035 1_555
Mn5 O8 1.954945 1_555
Mn6 O11 1.958819 1_445
Mn6 O21 1.958819 1_555
Mn6 O12 1.960508 1_445
Mn6 O18 1.960508 1_555
Mn6 O15 1.960508 1_445
Mn6 O19 1.960508 1_555
Mn7 O15 1.944922 1_555
Mn7 O12 1.944922 1_555
Mn7 O22 1.952705 1_555
Mn7 O16 1.953368 1_555
Mn7 O17 1.953368 1_555
Mn7 O10 1.953377 1_555
Mn8 O19 1.944922 1_555
Mn8 O18 1.944922 1_555
Mn8 O8 1.952705 1_555
Mn8 O13 1.953368 1_555
Mn8 O14 1.953368 1_555
Mn8 O23 1.953377 1_555
Mn9 O25 1.945397 1_555
Mn9 O28 1.947891 1_555
Mn9 O21 1.950346 1_555
Mn9 O19 1.951793 1_555
Mn9 O24 1.952372 1_545
Mn9 O23 1.956500 1_555
Mn10 O26 1.932846 1_655
Mn10 O31 1.935264 1_655
Mn10 O16 1.950378 1_555
Mn10 O20 1.950503 1_555
Mn10 O27 1.952035 1_555
Mn10 O22 1.954945 1_555
Mn11 O26 1.945397 1_555
Mn11 O29 1.947891 1_555
Mn11 O21 1.950346 1_555
Mn11 O18 1.951793 1_555
Mn11 O27 1.952372 1_455
Mn11 O23 1.956500 1_555
Mn12 O25 1.932846 1_565
Mn12 O30 1.935264 1_565
Mn12 O17 1.950378 1_555
Mn12 O20 1.950503 1_555
Mn12 O24 1.952035 1_555
Mn12 O22 1.954945 1_555
Fe0 O0 2.003343 1_554
Fe0 O29 2.003343 1_555
Fe0 O3 2.010417 1_554
Fe0 O31 2.010417 1_555
Fe0 O26 2.020123 1_555
Fe0 O7 2.020123 1_554
Fe1 O1 2.003343 1_554
Fe1 O28 2.003343 1_555
Fe1 O30 2.010417 1_555
Fe1 O2 2.010417 1_554
Fe1 O25 2.020123 1_555
Fe1 O6 2.020123 1_554
Fe2 O13 1.989541 1_555
Fe2 O14 1.989541 1_555
Fe2 O16 1.989541 1_555
Fe2 O17 1.989541 1_555
Fe2 O9 1.990069 1_555
Fe2 O20 1.990069 1_555
