# generated using pymatgen
data_Li2VF5
_symmetry_space_group_name_H-M   'P 1'
_cell_length_a   5.51411000
_cell_length_b   7.49037200
_cell_length_c   9.65349700
_cell_angle_alpha   90.00000000
_cell_angle_beta   90.00000000
_cell_angle_gamma   90.00000000
_symmetry_Int_Tables_number   1
_chemical_formula_structural   Li2VF5
_chemical_formula_sum   'Li8 V4 F20'
_cell_volume   398.71582985
_cell_formula_units_Z   4
loop_
 _symmetry_equiv_pos_site_id
 _symmetry_equiv_pos_as_xyz
  1  'x, y, z'
loop_
 _atom_site_type_symbol
 _atom_site_label
 _atom_site_symmetry_multiplicity
 _atom_site_fract_x
 _atom_site_fract_y
 _atom_site_fract_z
 _atom_site_occupancy
  Li  Li0  1  0.75000000  0.93112900  0.28326400  1
  Li  Li1  1  0.25000000  0.08373400  0.42954400  1
  Li  Li2  1  0.75000000  0.41626600  0.92954400  1
  Li  Li3  1  0.25000000  0.56887100  0.78326400  1
  Li  Li4  1  0.75000000  0.43112900  0.21673600  1
  Li  Li5  1  0.25000000  0.58373400  0.07045600  1
  Li  Li6  1  0.75000000  0.91626600  0.57045600  1
  Li  Li7  1  0.25000000  0.06887100  0.71673600  1
  V  V0  1  0.25000000  0.18263800  0.04746800  1
  V  V1  1  0.75000000  0.31736200  0.54746800  1
  V  V2  1  0.25000000  0.68263800  0.45253200  1
  V  V3  1  0.75000000  0.81736200  0.95253200  1
  F  F0  1  0.00000000  0.00000000  0.00000000  1
  F  F1  1  0.50000000  0.00000000  0.00000000  1
  F  F2  1  0.25000000  0.11292300  0.23826700  1
  F  F3  1  0.49565600  0.13479800  0.58272000  1
  F  F4  1  0.00434400  0.13479800  0.58272000  1
  F  F5  1  0.75000000  0.23927000  0.35236800  1
  F  F6  1  0.25000000  0.26073000  0.85236800  1
  F  F7  1  0.99565600  0.36520200  0.08272000  1
  F  F8  1  0.50434400  0.36520200  0.08272000  1
  F  F9  1  0.75000000  0.38707700  0.73826700  1
  F  F10  1  0.00000000  0.50000000  0.50000000  1
  F  F11  1  0.50000000  0.50000000  0.50000000  1
  F  F12  1  0.25000000  0.61292300  0.26173300  1
  F  F13  1  0.49565600  0.63479800  0.91728000  1
  F  F14  1  0.00434400  0.63479800  0.91728000  1
  F  F15  1  0.75000000  0.73927000  0.14763200  1
  F  F16  1  0.25000000  0.76073000  0.64763200  1
  F  F17  1  0.99565600  0.86520200  0.41728000  1
  F  F18  1  0.50434400  0.86520200  0.41728000  1
  F  F19  1  0.75000000  0.88707700  0.76173300  1
loop_
_geom_bond_atom_site_label_1
_geom_bond_atom_site_label_2
_geom_bond_distance
_geom_bond_site_symmetry_2
F0 V0 1.995448 1_555
F0 V3 1.995448 1_444
F1 V0 1.995448 1_555
F1 V3 1.995448 1_544
F2 Li1 1.859391 1_555
F2 V0 1.914470 1_555
F3 Li7 1.937123 1_555
F3 V1 1.988150 1_555
F3 Li1 2.041488 1_555
F3 Li6 2.158788 1_545
F4 Li7 1.937123 1_555
F4 V1 1.988150 1_455
F4 Li1 2.041488 1_555
F4 Li6 2.158788 1_445
F5 Li4 1.944112 1_555
F5 V1 1.972140 1_555
F5 Li0 2.402561 1_545
F6 Li7 1.944112 1_555
F6 V0 1.972140 1_556
F6 Li3 2.402561 1_555
F7 Li4 1.937123 1_555
F7 V0 1.988150 1_655
F7 Li2 2.041488 1_554
F7 Li5 2.158788 1_655
F8 Li4 1.937123 1_555
F8 V0 1.988150 1_555
F8 Li2 2.041488 1_554
F8 Li5 2.158788 1_555
F9 Li2 1.859391 1_555
F9 V1 1.914470 1_555
F10 V1 1.995448 1_455
F10 V2 1.995448 1_555
F11 V1 1.995448 1_555
F11 V2 1.995448 1_555
F12 Li5 1.859391 1_555
F12 V2 1.914470 1_555
F13 Li3 1.937123 1_555
F13 V3 1.988150 1_555
F13 Li5 2.041488 1_556
F13 Li2 2.158788 1_555
F14 Li3 1.937123 1_555
F14 V3 1.988150 1_455
F14 Li5 2.041488 1_556
F14 Li2 2.158788 1_455
F15 Li0 1.944112 1_555
F15 V3 1.972140 1_554
F15 Li4 2.402561 1_555
F16 Li3 1.944112 1_555
F16 V2 1.972140 1_555
F16 Li7 2.402561 1_565
F17 Li0 1.937123 1_555
F17 V2 1.988150 1_655
F17 Li6 2.041488 1_555
F17 Li1 2.158788 1_665
F18 Li0 1.937123 1_555
F18 V2 1.988150 1_555
F18 Li6 2.041488 1_555
F18 Li1 2.158788 1_565
F19 Li6 1.859391 1_555
F19 V3 1.914470 1_555
