# generated using pymatgen
data_Ni(IO3)2
_symmetry_space_group_name_H-M   'P 1'
_cell_length_a   5.20093700
_cell_length_b   6.89597500
_cell_length_c   14.69710700
_cell_angle_alpha   90.00000000
_cell_angle_beta   90.00000000
_cell_angle_gamma   90.00000000
_symmetry_Int_Tables_number   1
_chemical_formula_structural   Ni(IO3)2
_chemical_formula_sum   'Ni4 I8 O24'
_cell_volume   527.11955449
_cell_formula_units_Z   4
loop_
 _symmetry_equiv_pos_site_id
 _symmetry_equiv_pos_as_xyz
  1  'x, y, z'
loop_
 _atom_site_type_symbol
 _atom_site_label
 _atom_site_symmetry_multiplicity
 _atom_site_fract_x
 _atom_site_fract_y
 _atom_site_fract_z
 _atom_site_occupancy
  Ni  Ni0  1  0.25000000  0.37233800  0.00000000  1
  Ni  Ni1  1  0.75000000  0.62766200  0.00000000  1
  Ni  Ni2  1  0.75000000  0.12766200  0.50000000  1
  Ni  Ni3  1  0.25000000  0.87233800  0.50000000  1
  I  I0  1  0.76725100  0.21817100  0.14756300  1
  I  I1  1  0.26725100  0.78182900  0.14756300  1
  I  I2  1  0.26725100  0.28182900  0.35243700  1
  I  I3  1  0.76725100  0.71817100  0.35243700  1
  I  I4  1  0.23274900  0.28182900  0.64756300  1
  I  I5  1  0.73274900  0.71817100  0.64756300  1
  I  I6  1  0.73274900  0.21817100  0.85243700  1
  I  I7  1  0.23274900  0.78182900  0.85243700  1
  O  O0  1  0.08932700  0.59916700  0.07726100  1
  O  O1  1  0.58932700  0.40083300  0.07726100  1
  O  O2  1  0.05852100  0.17224100  0.07879000  1
  O  O3  1  0.55852100  0.82775900  0.07879000  1
  O  O4  1  0.39115100  0.12726800  0.26294500  1
  O  O5  1  0.89115100  0.87273200  0.26294500  1
  O  O6  1  0.39115100  0.62726800  0.23705500  1
  O  O7  1  0.89115100  0.37273200  0.23705500  1
  O  O8  1  0.55852100  0.32775900  0.42121000  1
  O  O9  1  0.05852100  0.67224100  0.42121000  1
  O  O10  1  0.08932700  0.09916700  0.42273900  1
  O  O11  1  0.58932700  0.90083300  0.42273900  1
  O  O12  1  0.41067300  0.09916700  0.57726100  1
  O  O13  1  0.91067300  0.90083300  0.57726100  1
  O  O14  1  0.94147900  0.32775900  0.57879000  1
  O  O15  1  0.44147900  0.67224100  0.57879000  1
  O  O16  1  0.60884900  0.37273200  0.76294500  1
  O  O17  1  0.10884900  0.62726800  0.76294500  1
  O  O18  1  0.10884900  0.12726800  0.73705500  1
  O  O19  1  0.60884900  0.87273200  0.73705500  1
  O  O20  1  0.44147900  0.17224100  0.92121000  1
  O  O21  1  0.94147900  0.82775900  0.92121000  1
  O  O22  1  0.91067300  0.40083300  0.92273900  1
  O  O23  1  0.41067300  0.59916700  0.92273900  1
loop_
_geom_bond_atom_site_label_1
_geom_bond_atom_site_label_2
_geom_bond_distance
_geom_bond_site_symmetry_2
Ni0 O20 2.058327 1_554
Ni0 O2 2.058327 1_555
Ni0 O23 2.105812 1_554
Ni0 O0 2.105812 1_555
Ni0 O1 2.107744 1_555
Ni0 O22 2.107744 1_454
Ni1 O21 2.058327 1_554
Ni1 O3 2.058327 1_555
Ni1 O22 2.105812 1_554
Ni1 O1 2.105812 1_555
Ni1 O0 2.107744 1_655
Ni1 O23 2.107744 1_554
Ni2 O14 2.058327 1_555
Ni2 O8 2.058327 1_555
Ni2 O13 2.105812 1_545
Ni2 O11 2.105812 1_545
Ni2 O10 2.107744 1_655
Ni2 O12 2.107744 1_555
Ni3 O15 2.058327 1_555
Ni3 O9 2.058327 1_555
Ni3 O12 2.105812 1_565
Ni3 O10 2.105812 1_565
Ni3 O11 2.107744 1_555
Ni3 O13 2.107744 1_455
I0 O7 1.811415 1_555
I0 O2 1.848463 1_655
I0 O1 1.873650 1_555
I1 O6 1.811415 1_555
I1 O3 1.848463 1_555
I1 O0 1.873650 1_555
I2 O4 1.811415 1_555
I2 O8 1.848463 1_555
I2 O10 1.873650 1_555
I3 O5 1.811415 1_555
I3 O9 1.848463 1_655
I3 O11 1.873650 1_555
I4 O18 1.811415 1_555
I4 O14 1.848463 1_455
I4 O12 1.873650 1_555
I5 O19 1.811415 1_555
I5 O15 1.848463 1_555
I5 O13 1.873650 1_555
I6 O16 1.811415 1_555
I6 O20 1.848463 1_555
I6 O22 1.873650 1_555
I7 O17 1.811415 1_555
I7 O21 1.848463 1_455
I7 O23 1.873650 1_555
