# generated using pymatgen
data_BeO
_symmetry_space_group_name_H-M   'P 1'
_cell_length_a   2.68522923
_cell_length_b   4.60864522
_cell_length_c   4.60864522
_cell_angle_alpha   90.00000000
_cell_angle_beta   90.00000000
_cell_angle_gamma   90.00000000
_symmetry_Int_Tables_number   1
_chemical_formula_structural   BeO
_chemical_formula_sum   'Be4 O4'
_cell_volume   57.03322366
_cell_formula_units_Z   4
loop_
 _symmetry_equiv_pos_site_id
 _symmetry_equiv_pos_as_xyz
  1  'x, y, z'
loop_
 _atom_site_type_symbol
 _atom_site_label
 _atom_site_symmetry_multiplicity
 _atom_site_fract_x
 _atom_site_fract_y
 _atom_site_fract_z
 _atom_site_occupancy
  Be  Be0  1  -0.00000000  0.32641998  0.67358002  1
  Be  Be1  1  0.50000000  0.82641998  0.82641998  1
  Be  Be2  1  0.50000000  0.17358002  0.17358002  1
  Be  Be3  1  -0.00000000  0.67358002  0.32641998  1
  O  O0  1  0.00000000  0.31135549  0.31135549  1
  O  O1  1  0.50000000  0.18864451  0.81135549  1
  O  O2  1  0.50000000  0.81135549  0.18864451  1
  O  O3  1  0.00000000  0.68864451  0.68864451  1
loop_
_geom_bond_atom_site_label_1
_geom_bond_atom_site_label_2
_geom_bond_distance
_geom_bond_site_symmetry_2
Be0 O1 1.615227 1_555
Be0 O1 1.615227 1_455
Be0 O3 1.670807 1_555
Be0 O0 1.670807 1_555
Be1 O3 1.615227 1_655
Be1 O3 1.615227 1_555
Be1 O1 1.670807 1_565
Be1 O2 1.670807 1_556
Be2 O0 1.615227 1_655
Be2 O0 1.615227 1_555
Be2 O2 1.670807 1_545
Be2 O1 1.670807 1_554
Be3 O2 1.615227 1_555
Be3 O2 1.615227 1_455
Be3 O3 1.670807 1_555
Be3 O0 1.670807 1_555
