# generated using pymatgen
data_NaMnPCO7
_symmetry_space_group_name_H-M   'P 1'
_cell_length_a   8.13385500
_cell_length_b   8.15830841
_cell_length_c   9.11439053
_cell_angle_alpha   90.26386379
_cell_angle_beta   92.53727522
_cell_angle_gamma   100.40872657
_symmetry_Int_Tables_number   1
_chemical_formula_structural   NaMnPCO7
_chemical_formula_sum   'Na4 Mn4 P4 C4 O28'
_cell_volume   594.23229307
_cell_formula_units_Z   4
loop_
 _symmetry_equiv_pos_site_id
 _symmetry_equiv_pos_as_xyz
  1  'x, y, z'
loop_
 _atom_site_type_symbol
 _atom_site_label
 _atom_site_symmetry_multiplicity
 _atom_site_fract_x
 _atom_site_fract_y
 _atom_site_fract_z
 _atom_site_occupancy
  Na  Na0  1  0.39620000  0.85011600  0.75523400  1
  Na  Na1  1  0.10247200  0.14330600  0.75459300  1
  Na  Na2  1  0.89497400  0.86617800  0.23891600  1
  Na  Na3  1  0.39435000  0.36535300  0.23776500  1
  Mn  Mn0  1  0.52289000  0.27251300  0.66000900  1
  Mn  Mn1  1  0.01105700  0.76094500  0.65603200  1
  Mn  Mn2  1  0.47669800  0.73809500  0.34288600  1
  Mn  Mn3  1  0.97532200  0.24019000  0.34215800  1
  P  P0  1  0.73286400  0.98588000  0.56610200  1
  P  P1  1  0.23490500  0.48365400  0.56646100  1
  P  P2  1  0.76068000  0.51624000  0.43339800  1
  P  P3  1  0.26485200  0.02088600  0.43444000  1
  C  C0  1  0.99378400  0.73611000  0.92058700  1
  C  C1  1  0.49202800  0.23455700  0.92220300  1
  C  C2  1  0.51232800  0.75910600  0.08052200  1
  C  C3  1  0.00753000  0.26344200  0.07909200  1
  O  O0  1  0.53444500  0.76842900  0.94817700  1
  O  O1  1  0.02633800  0.27511900  0.94653900  1
  O  O2  1  0.60501200  0.34539300  0.86138400  1
  O  O3  1  0.10645300  0.84705500  0.85367600  1
  O  O4  1  0.89831900  0.64034300  0.82149700  1
  O  O5  1  0.39765300  0.13992800  0.81735700  1
  O  O6  1  0.86782300  0.92460100  0.66837500  1
  O  O7  1  0.35862100  0.41548200  0.67451200  1
  O  O8  1  0.66774900  0.10986000  0.66751000  1
  O  O9  1  0.17713000  0.61955100  0.66121800  1
  O  O10  1  0.58678800  0.83893600  0.52485000  1
  O  O11  1  0.68828500  0.43932800  0.57421500  1
  O  O12  1  0.19153100  0.94448100  0.57808000  1
  O  O13  1  0.08684500  0.33893100  0.52468200  1
  O  O14  1  0.90271800  0.66788100  0.47343700  1
  O  O15  1  0.80941500  0.06124700  0.42486600  1
  O  O16  1  0.31536800  0.55514100  0.42550200  1
  O  O17  1  0.40645200  0.17146700  0.47497500  1
  O  O18  1  0.82441300  0.39160100  0.33125100  1
  O  O19  1  0.62781100  0.57894900  0.32982000  1
  O  O20  1  0.32509200  0.89116500  0.33549700  1
  O  O21  1  0.12868200  0.08056000  0.33260900  1
  O  O22  1  0.60450900  0.85599200  0.18296500  1
  O  O23  1  0.10093100  0.35963100  0.18146000  1
  O  O24  1  0.89336000  0.15363100  0.14276100  1
  O  O25  1  0.39478600  0.65237500  0.14322300  1
  O  O26  1  0.98116600  0.72656500  0.05446000  1
  O  O27  1  0.47147300  0.21769100  0.05470800  1
loop_
_geom_bond_atom_site_label_1
_geom_bond_atom_site_label_2
_geom_bond_distance
_geom_bond_site_symmetry_2
Na0 O0 2.215302 1_555
Na0 O5 2.426518 1_565
Na0 O9 2.467077 1_555
Na0 O12 2.491530 1_555
Na0 O3 2.554631 1_555
Na0 O10 2.675485 1_555
Na0 O8 2.913591 1_565
Na1 O1 2.218058 1_555
Na1 O5 2.448481 1_555
Na1 O6 2.463260 1_445
Na1 O12 2.499573 1_545
Na1 O3 2.589177 1_545
Na1 O13 2.652340 1_555
Na1 O7 2.877867 1_555
Na2 O26 2.233952 1_555
Na2 O22 2.381352 1_555
Na2 O21 2.458247 1_665
Na2 O24 2.509365 1_565
Na2 O15 2.523720 1_565
Na2 O14 2.692000 1_555
Na3 O27 2.230628 1_555
Na3 O23 2.410936 1_555
Na3 O19 2.448735 1_555
Na3 O16 2.484017 1_555
Na3 O25 2.498307 1_555
Na3 O17 2.693509 1_555
Mn0 O8 1.926784 1_555
Mn0 O11 1.927382 1_555
Mn0 O7 1.934049 1_555
Mn0 O2 1.976443 1_555
Mn0 O17 1.996098 1_555
Mn0 O5 2.002473 1_555
Mn1 O9 1.927555 1_555
Mn1 O6 1.930004 1_455
Mn1 O14 1.933766 1_455
Mn1 O4 1.973184 1_455
Mn1 O3 2.002069 1_555
Mn1 O12 2.051734 1_555
Mn2 O20 1.906440 1_555
Mn2 O19 1.949069 1_555
Mn2 O10 1.954228 1_555
Mn2 O16 1.976590 1_555
Mn2 O22 1.978941 1_555
Mn2 O25 1.989279 1_555
Mn3 O18 1.892257 1_555
Mn3 O13 1.956868 1_655
Mn3 O21 1.963462 1_655
Mn3 O15 1.977093 1_555
Mn3 O23 1.981038 1_655
Mn3 O24 1.989171 1_555
C0 O26 1.230646 1_556
C0 O4 1.319560 1_555
C0 O3 1.336362 1_655
C1 O27 1.231473 1_556
C1 O2 1.311078 1_555
C1 O5 1.346317 1_555
C2 O0 1.228123 1_554
C2 O25 1.323255 1_555
C2 O22 1.332603 1_555
C3 O1 1.226474 1_554
C3 O24 1.324237 1_455
C3 O23 1.333635 1_555
O6 P0 1.560727 1_555
O7 P1 1.552848 1_555
O8 P0 1.544721 1_545
O9 P1 1.552836 1_555
O10 P0 1.559442 1_555
O11 P2 1.525962 1_555
O12 P3 1.549361 1_565
O13 P1 1.559116 1_555
O14 P2 1.562207 1_555
O15 P0 1.537130 1_545
O16 P1 1.537042 1_555
O17 P3 1.555343 1_555
O18 P2 1.547243 1_555
O19 P2 1.560403 1_555
O20 P3 1.546301 1_565
O21 P3 1.559861 1_555
