# generated using pymatgen
data_Sn4P2O9
_symmetry_space_group_name_H-M   'P 1'
_cell_length_a   7.11077600
_cell_length_b   9.48306000
_cell_length_c   14.59487082
_cell_angle_alpha   74.57534790
_cell_angle_beta   90.00000000
_cell_angle_gamma   90.00000000
_symmetry_Int_Tables_number   1
_chemical_formula_structural   Sn4P2O9
_chemical_formula_sum   'Sn16 P8 O36'
_cell_volume   948.71168884
_cell_formula_units_Z   4
loop_
 _symmetry_equiv_pos_site_id
 _symmetry_equiv_pos_as_xyz
  1  'x, y, z'
loop_
 _atom_site_type_symbol
 _atom_site_label
 _atom_site_symmetry_multiplicity
 _atom_site_fract_x
 _atom_site_fract_y
 _atom_site_fract_z
 _atom_site_occupancy
  Sn  Sn0  1  0.78372500  0.96269600  0.35247200  1
  Sn  Sn1  1  0.71627500  0.96269600  0.85247200  1
  Sn  Sn2  1  0.27120700  0.67733300  0.32968800  1
  Sn  Sn3  1  0.01962600  0.71738000  0.11284000  1
  Sn  Sn4  1  0.50159400  0.68026300  0.09088000  1
  Sn  Sn5  1  0.22879300  0.67733300  0.82968800  1
  Sn  Sn6  1  0.48037400  0.71738000  0.61284000  1
  Sn  Sn7  1  0.99840600  0.68026300  0.59088000  1
  Sn  Sn8  1  0.00159400  0.31973700  0.40912000  1
  Sn  Sn9  1  0.51962600  0.28262000  0.38716000  1
  Sn  Sn10  1  0.77120700  0.32266700  0.17031200  1
  Sn  Sn11  1  0.49840600  0.31973700  0.90912000  1
  Sn  Sn12  1  0.98037400  0.28262000  0.88716000  1
  Sn  Sn13  1  0.72879300  0.32266700  0.67031200  1
  Sn  Sn14  1  0.28372500  0.03730400  0.14752800  1
  Sn  Sn15  1  0.21627500  0.03730400  0.64752800  1
  P  P0  1  0.29166500  0.96854900  0.40160000  1
  P  P1  1  0.20833500  0.96854900  0.90160000  1
  P  P2  1  0.73295000  0.63123000  0.31568800  1
  P  P3  1  0.76705000  0.63123000  0.81568800  1
  P  P4  1  0.23295000  0.36877000  0.18431200  1
  P  P5  1  0.26705000  0.36877000  0.68431200  1
  P  P6  1  0.79166500  0.03145100  0.09840000  1
  P  P7  1  0.70833500  0.03145100  0.59840000  1
  O  O0  1  0.23158800  0.92754600  0.30677300  1
  O  O1  1  0.99736800  0.96695000  0.11214900  1
  O  O2  1  0.28867900  0.82018300  0.47862700  1
  O  O3  1  0.66291900  0.91667400  0.07669900  1
  O  O4  1  0.60190400  0.74798200  0.34233300  1
  O  O5  1  0.26841200  0.92754600  0.80677300  1
  O  O6  1  0.28663400  0.76155800  0.17451200  1
  O  O7  1  0.50263200  0.96695000  0.61214900  1
  O  O8  1  0.92330200  0.70688100  0.27922400  1
  O  O9  1  0.21132100  0.82018300  0.97862700  1
  O  O10  1  0.83708100  0.91667400  0.57669900  1
  O  O11  1  0.89809600  0.74798200  0.84233300  1
  O  O12  1  0.62915000  0.57498400  0.23736700  1
  O  O13  1  0.76336100  0.49650300  0.40215200  1
  O  O14  1  0.21336600  0.76155800  0.67451200  1
  O  O15  1  0.57669800  0.70688100  0.77922400  1
  O  O16  1  0.26336100  0.50349700  0.09784800  1
  O  O17  1  0.12915000  0.42501600  0.26263300  1
  O  O18  1  0.87085000  0.57498400  0.73736700  1
  O  O19  1  0.73663900  0.49650300  0.90215200  1
  O  O20  1  0.42330200  0.29311900  0.22077600  1
  O  O21  1  0.78663400  0.23844200  0.32548800  1
  O  O22  1  0.23663900  0.50349700  0.59784800  1
  O  O23  1  0.37085000  0.42501600  0.76263300  1
  O  O24  1  0.10190400  0.25201800  0.15766700  1
  O  O25  1  0.16291900  0.08332600  0.42330100  1
  O  O26  1  0.78867900  0.17981700  0.02137300  1
  O  O27  1  0.07669800  0.29311900  0.72077600  1
  O  O28  1  0.49736800  0.03305000  0.38785100  1
  O  O29  1  0.71336600  0.23844200  0.82548800  1
  O  O30  1  0.73158800  0.07245400  0.19322700  1
  O  O31  1  0.39809600  0.25201800  0.65766700  1
  O  O32  1  0.33708100  0.08332600  0.92330100  1
  O  O33  1  0.71132100  0.17981700  0.52137300  1
  O  O34  1  0.00263200  0.03305000  0.88785100  1
  O  O35  1  0.76841200  0.07245400  0.69322700  1
loop_
_geom_bond_atom_site_label_1
_geom_bond_atom_site_label_2
_geom_bond_distance
_geom_bond_site_symmetry_2
O0 P0 1.592284 1_555
O0 Sn14 2.309914 1_565
O0 Sn2 2.323618 1_555
O1 P6 1.577538 1_565
O1 Sn14 2.245258 1_665
O1 Sn3 2.369317 1_655
O2 P0 1.549982 1_555
O2 Sn6 2.372681 1_555
O3 P6 1.518716 1_565
O3 Sn4 2.477513 1_555
O4 P2 1.573022 1_555
O4 Sn0 2.449413 1_555
O4 Sn2 2.465421 1_555
O5 P1 1.592284 1_555
O5 Sn15 2.309914 1_565
O5 Sn5 2.323618 1_555
O6 Sn3 2.188854 1_555
O6 Sn2 2.194754 1_555
O6 Sn4 2.218366 1_555
O6 Sn14 2.538800 1_565
O7 P7 1.577538 1_565
O7 Sn15 2.245258 1_565
O7 Sn6 2.369317 1_555
O8 P2 1.557850 1_555
O8 Sn3 2.499468 1_655
O8 Sn2 2.575120 1_655
O9 P1 1.549982 1_555
O9 Sn3 2.372681 1_556
O10 P7 1.518716 1_565
O10 Sn7 2.477513 1_555
O11 P3 1.573022 1_555
O11 Sn1 2.449413 1_555
O11 Sn5 2.465421 1_655
O12 P2 1.568521 1_555
O12 Sn4 2.292353 1_555
O13 P2 1.553679 1_555
O13 Sn8 2.366282 1_655
O13 Sn9 2.720589 1_555
O14 Sn6 2.188854 1_555
O14 Sn5 2.194754 1_555
O14 Sn7 2.218366 1_455
O14 Sn15 2.538800 1_565
O15 P3 1.557850 1_555
O15 Sn6 2.499468 1_555
O15 Sn5 2.575120 1_555
O16 P4 1.553679 1_555
O16 Sn4 2.366282 1_555
O16 Sn3 2.720589 1_555
O17 P4 1.568521 1_555
O17 Sn8 2.292353 1_555
O18 P3 1.568521 1_555
O18 Sn7 2.292353 1_555
O19 P3 1.553679 1_555
O19 Sn11 2.366282 1_555
O19 Sn12 2.720589 1_555
O20 P4 1.557850 1_555
O20 Sn9 2.499468 1_555
O20 Sn10 2.575120 1_555
O21 Sn9 2.188854 1_555
O21 Sn10 2.194754 1_555
O21 Sn8 2.218366 1_655
O21 Sn0 2.538800 1_545
O22 P5 1.553679 1_555
O22 Sn7 2.366282 1_455
O22 Sn6 2.720589 1_555
O23 P5 1.568521 1_555
O23 Sn11 2.292353 1_555
O24 P4 1.573022 1_555
O24 Sn14 2.449413 1_555
O24 Sn10 2.465421 1_455
O25 P0 1.518716 1_545
O25 Sn8 2.477513 1_555
O26 P6 1.549982 1_555
O26 Sn12 2.372681 1_554
O27 P5 1.557850 1_555
O27 Sn12 2.499468 1_455
O27 Sn13 2.575120 1_455
O28 P0 1.577538 1_545
O28 Sn0 2.245258 1_545
O28 Sn9 2.369317 1_555
O29 Sn12 2.188854 1_555
O29 Sn13 2.194754 1_555
O29 Sn11 2.218366 1_555
O29 Sn1 2.538800 1_545
O30 P6 1.592284 1_555
O30 Sn0 2.309914 1_545
O30 Sn10 2.323618 1_555
O31 P5 1.573022 1_555
O31 Sn15 2.449413 1_555
O31 Sn13 2.465421 1_555
O32 P1 1.518716 1_545
O32 Sn11 2.477513 1_555
O33 P7 1.549982 1_555
O33 Sn9 2.372681 1_555
O34 P1 1.577538 1_545
O34 Sn1 2.245258 1_445
O34 Sn12 2.369317 1_455
O35 P7 1.592284 1_555
O35 Sn1 2.309914 1_545
O35 Sn13 2.323618 1_555
