# generated using pymatgen
data_Li3BiO4
_symmetry_space_group_name_H-M   'P 1'
_cell_length_a   5.19504984
_cell_length_b   6.24712741
_cell_length_c   5.28892190
_cell_angle_alpha   90.00000000
_cell_angle_beta   108.10902261
_cell_angle_gamma   90.00000000
_symmetry_Int_Tables_number   1
_chemical_formula_structural   Li3BiO4
_chemical_formula_sum   'Li6 Bi2 O8'
_cell_volume   163.14515692
_cell_formula_units_Z   2
loop_
 _symmetry_equiv_pos_site_id
 _symmetry_equiv_pos_as_xyz
  1  'x, y, z'
loop_
 _atom_site_type_symbol
 _atom_site_label
 _atom_site_symmetry_multiplicity
 _atom_site_fract_x
 _atom_site_fract_y
 _atom_site_fract_z
 _atom_site_occupancy
  Li  Li0  1  -0.00000000  0.38764070  0.75000000  1
  Li  Li1  1  -0.00000000  0.61235930  0.25000000  1
  Li  Li2  1  0.50000000  0.15685394  0.75000000  1
  Li  Li3  1  0.50000000  0.57339368  0.75000000  1
  Li  Li4  1  0.50000000  0.42660632  0.25000000  1
  Li  Li5  1  0.50000000  0.84314606  0.25000000  1
  Bi  Bi0  1  -0.00000000  0.85051108  0.75000000  1
  Bi  Bi1  1  -0.00000000  0.14948892  0.25000000  1
  O  O0  1  0.25175634  0.62610459  0.98713284  1
  O  O1  1  0.23652255  0.89211152  0.48746671  1
  O  O2  1  0.25175634  0.37389641  0.48713284  1
  O  O3  1  0.23652255  0.10788848  0.98746671  1
  O  O4  1  0.74824366  0.62610459  0.51286716  1
  O  O5  1  0.76347745  0.10788848  0.51253329  1
  O  O6  1  0.74824366  0.37389641  0.01286716  1
  O  O7  1  0.76347745  0.89211152  0.01253329  1
loop_
_geom_bond_atom_site_label_1
_geom_bond_atom_site_label_2
_geom_bond_distance
_geom_bond_site_symmetry_2
Li0 O0 2.117325 1_555
Li0 O4 2.117325 1_455
Li0 O2 2.186596 1_555
Li0 O6 2.186596 1_456
Li0 O3 2.276429 1_555
Li0 O5 2.276429 1_455
Li1 O2 2.117321 1_555
Li1 O6 2.117321 1_455
Li1 O0 2.186596 1_554
Li1 O4 2.186596 1_455
Li1 O7 2.276429 1_455
Li1 O1 2.276429 1_555
Li2 O2 2.078437 1_555
Li2 O6 2.078437 1_556
Li2 O5 2.147837 1_555
Li2 O3 2.147837 1_555
Li2 O1 2.314165 1_545
Li2 O7 2.314165 1_546
Li3 O2 2.008652 1_555
Li3 O6 2.008652 1_556
Li3 O0 2.085675 1_555
Li3 O4 2.085675 1_555
Li3 O1 2.566009 1_555
Li3 O7 2.566009 1_556
Li4 O0 2.008656 1_554
Li4 O4 2.008656 1_555
Li4 O2 2.085674 1_555
Li4 O6 2.085674 1_555
Li4 O5 2.566009 1_555
Li4 O3 2.566009 1_554
Li5 O4 2.078433 1_555
Li5 O0 2.078433 1_554
Li5 O7 2.147837 1_555
Li5 O1 2.147837 1_555
Li5 O3 2.314165 1_564
Li5 O5 2.314165 1_565
Bi0 O0 2.056485 1_555
Bi0 O4 2.056485 1_455
Bi0 O7 2.136811 1_456
Bi0 O1 2.136811 1_555
Bi0 O3 2.170967 1_565
Bi0 O5 2.170967 1_465
Bi1 O2 2.056489 1_555
Bi1 O6 2.056489 1_455
Bi1 O3 2.136811 1_554
Bi1 O5 2.136811 1_455
Bi1 O1 2.170967 1_545
Bi1 O7 2.170967 1_445
