# generated using pymatgen
data_BaH8PtC4(NO)4
_symmetry_space_group_name_H-M   'P 1'
_cell_length_a   9.32344550
_cell_length_b   9.32344550
_cell_length_c   6.67899044
_cell_angle_alpha   78.30825436
_cell_angle_beta   78.30825436
_cell_angle_gamma   96.97657867
_symmetry_Int_Tables_number   1
_chemical_formula_structural   BaH8PtC4(NO)4
_chemical_formula_sum   'Ba2 H16 Pt2 C8 N8 O8'
_cell_volume   548.68538074
_cell_formula_units_Z   2
loop_
 _symmetry_equiv_pos_site_id
 _symmetry_equiv_pos_as_xyz
  1  'x, y, z'
loop_
 _atom_site_type_symbol
 _atom_site_label
 _atom_site_symmetry_multiplicity
 _atom_site_fract_x
 _atom_site_fract_y
 _atom_site_fract_z
 _atom_site_occupancy
  Ba  Ba0  1  0.37035100  0.62964900  0.75000000  1
  Ba  Ba1  1  0.62964900  0.37035100  0.25000000  1
  H  H0  1  0.70914900  0.50635800  0.65765800  1
  H  H1  1  0.49364200  0.29085100  0.84234200  1
  H  H2  1  0.29085100  0.49364200  0.34234200  1
  H  H3  1  0.50635800  0.70914900  0.15765800  1
  H  H4  1  0.71448300  0.62912600  0.45972900  1
  H  H5  1  0.37087400  0.28551700  0.04027100  1
  H  H6  1  0.28551700  0.37087400  0.54027100  1
  H  H7  1  0.62912600  0.71448300  0.95972900  1
  H  H8  1  0.90969300  0.53254900  0.80908000  1
  H  H9  1  0.46745100  0.09030700  0.69092000  1
  H  H10  1  0.09030700  0.46745100  0.19092000  1
  H  H11  1  0.53254900  0.90969300  0.30908000  1
  H  H12  1  0.87449300  0.37408100  0.77841900  1
  H  H13  1  0.62591900  0.12550700  0.72158100  1
  H  H14  1  0.12550700  0.62591900  0.22158100  1
  H  H15  1  0.37408100  0.87449300  0.27841900  1
  Pt  Pt0  1  0.00000000  0.00000000  0.00000000  1
  Pt  Pt1  1  0.00000000  0.00000000  0.50000000  1
  C  C0  1  0.90475800  0.78662100  0.08695100  1
  C  C1  1  0.21337900  0.09524200  0.41304900  1
  C  C2  1  0.09524200  0.21337900  0.91304900  1
  C  C3  1  0.78662100  0.90475800  0.58695100  1
  C  C4  1  0.19750400  0.93556300  0.94645700  1
  C  C5  1  0.06443700  0.80249600  0.55354300  1
  C  C6  1  0.80249600  0.06443700  0.05354300  1
  C  C7  1  0.93556300  0.19750400  0.44645700  1
  N  N0  1  0.85012400  0.66054000  0.13707300  1
  N  N1  1  0.33946000  0.14987600  0.36292700  1
  N  N2  1  0.14987600  0.33946000  0.86292700  1
  N  N3  1  0.66054000  0.85012400  0.63707300  1
  N  N4  1  0.31179800  0.89341700  0.91174000  1
  N  N5  1  0.10658300  0.68820200  0.58826000  1
  N  N6  1  0.68820200  0.10658300  0.08826000  1
  N  N7  1  0.89341700  0.31179800  0.41174000  1
  O  O0  1  0.64830500  0.54286600  0.55785100  1
  O  O1  1  0.45713400  0.35169500  0.94214900  1
  O  O2  1  0.35169500  0.45713400  0.44214900  1
  O  O3  1  0.54286600  0.64830500  0.05785100  1
  O  O4  1  0.82732000  0.44960800  0.83589300  1
  O  O5  1  0.55039200  0.17268000  0.66410700  1
  O  O6  1  0.17268000  0.55039200  0.16410700  1
  O  O7  1  0.44960800  0.82732000  0.33589300  1
loop_
_geom_bond_atom_site_label_1
_geom_bond_atom_site_label_2
_geom_bond_distance
_geom_bond_site_symmetry_2
Ba0 O3 2.874431 1_556
Ba0 O2 2.874431 1_555
Ba0 O6 2.892622 1_556
Ba0 O7 2.892622 1_555
Ba0 O1 2.932541 1_555
Ba0 O0 2.932541 1_555
Ba0 N4 2.945608 1_555
Ba0 N5 2.945608 1_555
Ba0 N3 3.050887 1_555
Ba0 N2 3.050887 1_555
Ba1 O0 2.874431 1_555
Ba1 O1 2.874431 1_554
Ba1 O5 2.892622 1_555
Ba1 O4 2.892622 1_554
Ba1 O2 2.932541 1_555
Ba1 O3 2.932541 1_555
Ba1 N7 2.945608 1_555
Ba1 N6 2.945608 1_555
Ba1 N0 3.050887 1_555
Ba1 N1 3.050887 1_555
H0 O0 0.995106 1_555
H1 O1 0.995106 1_555
H2 O2 0.995106 1_555
H3 O3 0.995106 1_555
H4 O0 0.979258 1_555
H5 O1 0.979258 1_554
H6 O2 0.979258 1_555
H7 O3 0.979258 1_556
H8 O4 0.981703 1_555
H9 O5 0.981703 1_555
H10 O6 0.981703 1_555
H11 O7 0.981703 1_555
H12 O4 0.976224 1_555
H13 O5 0.976224 1_555
H14 O6 0.976224 1_555
H15 O7 0.976224 1_555
C0 N0 1.174433 1_555
C0 Pt0 1.994289 1_665
C1 N1 1.174433 1_555
C1 Pt1 1.994289 1_555
C2 N2 1.174433 1_555
C2 Pt0 1.994289 1_556
C3 N3 1.174433 1_555
C3 Pt1 1.994289 1_665
C4 N4 1.175674 1_555
C4 Pt0 1.992126 1_566
C5 N5 1.175674 1_555
C5 Pt1 1.992126 1_565
C6 N6 1.175674 1_555
C6 Pt0 1.992126 1_655
C7 N7 1.175674 1_555
C7 Pt1 1.992126 1_655
