# generated using pymatgen
data_Li6MnFe3(PO4)6
_symmetry_space_group_name_H-M   'P 1'
_cell_length_a   8.51272200
_cell_length_b   8.53990835
_cell_length_c   8.68836135
_cell_angle_alpha   61.24253060
_cell_angle_beta   62.19147607
_cell_angle_gamma   62.09669554
_symmetry_Int_Tables_number   1
_chemical_formula_structural   Li6MnFe3(PO4)6
_chemical_formula_sum   'Li6 Mn1 Fe3 P6 O24'
_cell_volume   464.99161682
_cell_formula_units_Z   1
loop_
 _symmetry_equiv_pos_site_id
 _symmetry_equiv_pos_as_xyz
  1  'x, y, z'
loop_
 _atom_site_type_symbol
 _atom_site_label
 _atom_site_symmetry_multiplicity
 _atom_site_fract_x
 _atom_site_fract_y
 _atom_site_fract_z
 _atom_site_occupancy
  Li  Li0  1  0.98955500  0.02241900  0.01575600  1
  Li  Li1  1  0.35090400  0.75340900  0.14477600  1
  Li  Li2  1  0.49433600  0.47737800  0.50376100  1
  Li  Li3  1  0.65114400  0.24121300  0.84635600  1
  Li  Li4  1  0.84167200  0.66368000  0.25489400  1
  Li  Li5  1  0.24754100  0.83902900  0.64540900  1
  Mn  Mn0  1  0.85722400  0.85228200  0.84988900  1
  Fe  Fe0  1  0.13706500  0.14536700  0.14796000  1
  Fe  Fe1  1  0.35260100  0.35252400  0.36498300  1
  Fe  Fe2  1  0.64848400  0.64868000  0.64835300  1
  P  P0  1  0.45140500  0.04909900  0.75304600  1
  P  P1  1  0.74818700  0.45274300  0.04831400  1
  P  P2  1  0.05411000  0.74871400  0.44840700  1
  P  P3  1  0.95216000  0.24812000  0.54279900  1
  P  P4  1  0.24992600  0.54641100  0.96023000  1
  P  P5  1  0.53847200  0.95550800  0.25352800  1
  O  O0  1  0.48358400  0.12538100  0.30653500  1
  O  O1  1  0.11291900  0.30481900  0.51176400  1
  O  O2  1  0.27093200  0.04307300  0.92099600  1
  O  O3  1  0.29712900  0.53311000  0.11744300  1
  O  O4  1  0.42978000  0.24094500  0.59619500  1
  O  O5  1  0.61528500  0.01866200  0.80988100  1
  O  O6  1  0.90810600  0.26453100  0.06667700  1
  O  O7  1  0.58204900  0.45021700  0.22943000  1
  O  O8  1  0.24787400  0.59331900  0.42153000  1
  O  O9  1  0.98830900  0.19612200  0.38129100  1
  O  O10  1  0.93554800  0.08201200  0.73413200  1
  O  O11  1  0.20420000  0.37291000  0.00625700  1
  O  O12  1  0.80513900  0.61933000  0.01213100  1
  O  O13  1  0.06819900  0.90589900  0.25486400  1
  O  O14  1  0.03162200  0.80743100  0.60018100  1
  O  O15  1  0.75799500  0.40451300  0.57027300  1
  O  O16  1  0.40757800  0.56701800  0.76969100  1
  O  O17  1  0.08486000  0.73587500  0.93101300  1
  O  O18  1  0.38328500  0.97073900  0.19739100  1
  O  O19  1  0.56307800  0.76361700  0.41692900  1
  O  O20  1  0.69132200  0.48696500  0.88678200  1
  O  O21  1  0.73176700  0.94289000  0.10057800  1
  O  O22  1  0.89108500  0.68608400  0.48887600  1
  O  O23  1  0.49456400  0.88795900  0.68969800  1
loop_
_geom_bond_atom_site_label_1
_geom_bond_atom_site_label_2
_geom_bond_distance
_geom_bond_site_symmetry_2
Li0 O6 2.050290 1_555
Li0 O13 2.106955 1_645
Li0 O2 2.205002 1_654
Li0 O21 2.285725 1_545
Li0 O10 2.467766 1_554
Li0 O17 2.550788 1_644
Li1 O8 2.100383 1_555
Li1 O13 2.126002 1_555
Li1 O18 2.267686 1_555
Li1 O3 2.267765 1_555
Li1 O2 2.322474 1_564
Li1 O7 2.422030 1_555
Li2 O4 2.022446 1_555
Li2 O8 2.160155 1_555
Li2 O7 2.236443 1_555
Li2 O15 2.305582 1_555
Li2 O19 2.457524 1_555
Li2 O16 2.459762 1_555
Li3 O15 2.111577 1_555
Li3 O10 2.157036 1_555
Li3 O5 2.240217 1_555
Li3 O20 2.477517 1_555
Li3 O21 2.490705 1_546
Li3 O16 2.567097 1_555
Li4 O21 2.089198 1_555
Li4 O19 2.116899 1_555
Li4 O22 2.365112 1_555
Li4 O12 2.485937 1_555
Li4 O17 2.583451 1_654
Li4 O15 2.594852 1_555
Li5 O16 2.101213 1_555
Li5 O17 2.164149 1_555
Li5 O14 2.201331 1_555
Li5 O19 2.491259 1_555
Li5 O10 2.534675 1_465
Li5 O23 2.544940 1_555
Mn0 O12 1.919743 1_556
Mn0 O5 1.958381 1_565
Mn0 O10 2.001273 1_565
Mn0 O17 2.009295 1_655
Mn0 O14 2.078421 1_655
Mn0 O21 2.271820 1_556
Fe0 O11 1.923367 1_555
Fe0 O9 1.959016 1_455
Fe0 O6 2.017307 1_455
Fe0 O18 2.024768 1_545
Fe0 O13 2.043262 1_545
Fe0 O2 2.139961 1_554
Fe1 O0 1.912858 1_555
Fe1 O1 1.950806 1_555
Fe1 O8 2.027901 1_555
Fe1 O4 2.044203 1_555
Fe1 O3 2.073993 1_555
Fe1 O7 2.081254 1_555
Fe2 O23 1.944886 1_555
Fe2 O22 1.951562 1_555
Fe2 O20 1.952510 1_555
Fe2 O19 2.081333 1_555
Fe2 O16 2.101750 1_555
Fe2 O15 2.151469 1_555
O0 P5 1.530557 1_545
O1 P3 1.526505 1_455
O2 P0 1.549924 1_555
O3 P4 1.536298 1_554
O4 P0 1.542303 1_555
O5 P0 1.561239 1_555
O6 P1 1.539510 1_555
O7 P1 1.547996 1_555
O8 P2 1.557682 1_555
O9 P3 1.526348 1_555
O10 P3 1.579600 1_555
O11 P4 1.526849 1_554
O12 P1 1.559097 1_555
O13 P2 1.560298 1_555
O14 P2 1.528997 1_555
O15 P3 1.563714 1_555
O16 P4 1.562187 1_555
O17 P4 1.570510 1_555
O18 P5 1.542508 1_555
O19 P5 1.569221 1_555
O20 P1 1.547972 1_556
O21 P5 1.554582 1_555
O22 P2 1.547302 1_655
O23 P0 1.548714 1_565
