# generated using pymatgen
data_Li5FeO4
_symmetry_space_group_name_H-M   'P 1'
_cell_length_a   6.82455100
_cell_length_b   5.53590500
_cell_length_c   11.22348093
_cell_angle_alpha   73.78337784
_cell_angle_beta   90.00000000
_cell_angle_gamma   90.00000000
_symmetry_Int_Tables_number   1
_chemical_formula_structural   Li5FeO4
_chemical_formula_sum   'Li20 Fe4 O16'
_cell_volume   407.15308894
_cell_formula_units_Z   4
loop_
 _symmetry_equiv_pos_site_id
 _symmetry_equiv_pos_as_xyz
  1  'x, y, z'
loop_
 _atom_site_type_symbol
 _atom_site_label
 _atom_site_symmetry_multiplicity
 _atom_site_fract_x
 _atom_site_fract_y
 _atom_site_fract_z
 _atom_site_occupancy
  Li  Li0  1  0.28494300  0.61746400  0.78622600  1
  Li  Li1  1  0.52905500  0.63889300  0.57802500  1
  Li  Li2  1  0.25255200  0.32062700  0.16300600  1
  Li  Li3  1  0.47883200  0.36572900  0.93682800  1
  Li  Li4  1  0.97883200  0.63427100  0.56317200  1
  Li  Li5  1  0.97144300  0.09608600  0.29794400  1
  Li  Li6  1  0.02905500  0.36110700  0.92197500  1
  Li  Li7  1  0.78494300  0.38253600  0.71377400  1
  Li  Li8  1  0.47144300  0.90391400  0.20205600  1
  Li  Li9  1  0.75255200  0.67937300  0.33699400  1
  Li  Li10  1  0.24744800  0.32062700  0.66300600  1
  Li  Li11  1  0.52855700  0.09608600  0.79794400  1
  Li  Li12  1  0.21505700  0.61746400  0.28622600  1
  Li  Li13  1  0.97094500  0.63889300  0.07802500  1
  Li  Li14  1  0.02855700  0.90391400  0.70205600  1
  Li  Li15  1  0.02116800  0.36572900  0.43682800  1
  Li  Li16  1  0.52116800  0.63427100  0.06317200  1
  Li  Li17  1  0.74744800  0.67937300  0.83699400  1
  Li  Li18  1  0.47094500  0.36110700  0.42197500  1
  Li  Li19  1  0.71505700  0.38253600  0.21377400  1
  Fe  Fe0  1  0.25632700  0.89021800  0.43935700  1
  Fe  Fe1  1  0.75632700  0.10978200  0.06064300  1
  Fe  Fe2  1  0.24367300  0.89021800  0.93935700  1
  Fe  Fe3  1  0.74367300  0.10978200  0.56064300  1
  O  O0  1  0.24122300  0.72990700  0.61393400  1
  O  O1  1  0.77082900  0.75894300  0.64575400  1
  O  O2  1  0.52475700  0.25633900  0.11504000  1
  O  O3  1  0.96571300  0.27161400  0.12015600  1
  O  O4  1  0.27082900  0.24105700  0.85424600  1
  O  O5  1  0.74122300  0.27009300  0.88606600  1
  O  O6  1  0.46571300  0.72838600  0.37984400  1
  O  O7  1  0.02475700  0.74366100  0.38496000  1
  O  O8  1  0.97524300  0.25633900  0.61504000  1
  O  O9  1  0.53428700  0.27161400  0.62015600  1
  O  O10  1  0.25877700  0.72990700  0.11393400  1
  O  O11  1  0.72917100  0.75894300  0.14575400  1
  O  O12  1  0.03428700  0.72838600  0.87984400  1
  O  O13  1  0.47524300  0.74366100  0.88496000  1
  O  O14  1  0.22917100  0.24105700  0.35424600  1
  O  O15  1  0.75877700  0.27009300  0.38606600  1
loop_
_geom_bond_atom_site_label_1
_geom_bond_atom_site_label_2
_geom_bond_distance
_geom_bond_site_symmetry_2
Li0 O0 1.882405 1_555
Li0 O13 1.958338 1_555
Li0 O4 2.011369 1_555
Li0 O12 2.183494 1_555
Li1 O9 1.954959 1_555
Li1 O1 2.006034 1_555
Li1 O0 2.094821 1_555
Li1 O6 2.182715 1_555
Li2 O2 1.993602 1_555
Li2 O3 2.051776 1_455
Li2 O14 2.073248 1_555
Li2 O10 2.177547 1_555
Li3 O4 1.925553 1_555
Li3 O2 1.946550 1_556
Li3 O5 1.994986 1_555
Li3 O13 2.009103 1_555
Li4 O1 1.925553 1_555
Li4 O7 1.946550 1_655
Li4 O0 1.994986 1_655
Li4 O8 2.009103 1_555
Li5 O7 1.956607 1_645
Li5 O3 1.960711 1_555
Li5 O14 2.102448 1_655
Li5 O15 2.131821 1_555
Li6 O12 1.954959 1_555
Li6 O4 2.006034 1_555
Li6 O5 2.094821 1_455
Li6 O3 2.182715 1_456
Li7 O5 1.882405 1_555
Li7 O8 1.958338 1_555
Li7 O1 2.011369 1_555
Li7 O9 2.183494 1_555
Li8 O2 1.956607 1_565
Li8 O6 1.960711 1_555
Li8 O11 2.102448 1_555
Li8 O10 2.131821 1_555
Li9 O7 1.993602 1_655
Li9 O6 2.051776 1_555
Li9 O11 2.073248 1_555
Li9 O15 2.177547 1_555
Li10 O8 1.993602 1_455
Li10 O9 2.051776 1_555
Li10 O4 2.073248 1_555
Li10 O0 2.177547 1_555
Li11 O13 1.956607 1_545
Li11 O9 1.960711 1_555
Li11 O4 2.102448 1_555
Li11 O5 2.131821 1_555
Li12 O10 1.882405 1_555
Li12 O7 1.958338 1_555
Li12 O14 2.011369 1_555
Li12 O6 2.183494 1_555
Li13 O3 1.954959 1_555
Li13 O11 2.006034 1_555
Li13 O10 2.094821 1_655
Li13 O12 2.182715 1_654
Li14 O8 1.956607 1_465
Li14 O12 1.960711 1_555
Li14 O1 2.102448 1_455
Li14 O0 2.131821 1_555
Li15 O14 1.925553 1_555
Li15 O8 1.946550 1_455
Li15 O15 1.994986 1_455
Li15 O7 2.009103 1_555
Li16 O11 1.925553 1_555
Li16 O13 1.946550 1_554
Li16 O10 1.994986 1_555
Li16 O2 2.009103 1_555
Li17 O13 1.993602 1_555
Li17 O12 2.051776 1_655
Li17 O1 2.073248 1_555
Li17 O5 2.177547 1_555
Li18 O6 1.954959 1_555
Li18 O14 2.006034 1_555
Li18 O15 2.094821 1_555
Li18 O9 2.182715 1_555
Li19 O15 1.882405 1_555
Li19 O2 1.958338 1_555
Li19 O11 2.011369 1_555
Li19 O3 2.183494 1_555
Fe0 O6 1.903926 1_555
Fe0 O0 1.914705 1_555
Fe0 O14 1.919055 1_565
Fe0 O7 1.950691 1_555
Fe1 O3 1.903926 1_555
Fe1 O5 1.914705 1_554
Fe1 O11 1.919055 1_545
Fe1 O2 1.950691 1_555
Fe2 O12 1.903926 1_555
Fe2 O10 1.914705 1_556
Fe2 O4 1.919055 1_565
Fe2 O13 1.950691 1_555
Fe3 O9 1.903926 1_555
Fe3 O15 1.914705 1_555
Fe3 O1 1.919055 1_545
Fe3 O8 1.950691 1_555
