# generated using pymatgen
data_Ti3Mn2Cr(PO4)6
_symmetry_space_group_name_H-M   'P 1'
_cell_length_a   8.64513640
_cell_length_b   8.64513640
_cell_length_c   8.64513628
_cell_angle_alpha   60.07915807
_cell_angle_beta   60.07915807
_cell_angle_gamma   60.07915793
_symmetry_Int_Tables_number   1
_chemical_formula_structural   Ti3Mn2Cr(PO4)6
_chemical_formula_sum   'Ti3 Mn2 Cr1 P6 O24'
_cell_volume   457.69786933
_cell_formula_units_Z   1
loop_
 _symmetry_equiv_pos_site_id
 _symmetry_equiv_pos_as_xyz
  1  'x, y, z'
loop_
 _atom_site_type_symbol
 _atom_site_label
 _atom_site_symmetry_multiplicity
 _atom_site_fract_x
 _atom_site_fract_y
 _atom_site_fract_z
 _atom_site_occupancy
  Ti  Ti0  1  0.64514600  0.64514600  0.64514600  1
  Ti  Ti1  1  0.35480300  0.35480300  0.35480300  1
  Ti  Ti2  1  0.14437100  0.14437100  0.14437100  1
  Mn  Mn0  1  0.49883800  0.49883800  0.49883800  1
  Mn  Mn1  1  0.00032300  0.00032300  0.00032300  1
  Cr  Cr0  1  0.85738300  0.85738300  0.85738300  1
  P  P0  1  0.75072200  0.04142100  0.46101100  1
  P  P1  1  0.95670700  0.54360200  0.24844200  1
  P  P2  1  0.54360200  0.24844200  0.95670700  1
  P  P3  1  0.46101100  0.75072200  0.04142100  1
  P  P4  1  0.04142100  0.46101100  0.75072200  1
  P  P5  1  0.24844200  0.95670700  0.54360200  1
  O  O0  1  0.91335000  0.05641800  0.26593000  1
  O  O1  1  0.80610500  0.00696300  0.61855800  1
  O  O2  1  0.73597900  0.08620400  0.94223700  1
  O  O3  1  0.99695600  0.38140800  0.19081800  1
  O  O4  1  0.87901700  0.50072100  0.69100700  1
  O  O5  1  0.58580600  0.23465300  0.43984700  1
  O  O6  1  0.76429600  0.55795700  0.41445100  1
  O  O7  1  0.94223700  0.73597900  0.08620400  1
  O  O8  1  0.50206800  0.30890500  0.11757800  1
  O  O9  1  0.30890500  0.11757800  0.50206800  1
  O  O10  1  0.38140800  0.19081800  0.99695600  1
  O  O11  1  0.55795700  0.41445100  0.76429600  1
  O  O12  1  0.43984700  0.58580600  0.23465300  1
  O  O13  1  0.69100700  0.87901700  0.50072100  1
  O  O14  1  0.61855800  0.80610500  0.00696300  1
  O  O15  1  0.50072100  0.69100700  0.87901700  1
  O  O16  1  0.05641800  0.26593000  0.91335000  1
  O  O17  1  0.23465300  0.43984700  0.58580600  1
  O  O18  1  0.41445100  0.76429600  0.55795700  1
  O  O19  1  0.11757800  0.50206800  0.30890500  1
  O  O20  1  0.00696300  0.61855800  0.80610500  1
  O  O21  1  0.26593000  0.91335000  0.05641800  1
  O  O22  1  0.19081800  0.99695600  0.38140800  1
  O  O23  1  0.08620400  0.94223700  0.73597900  1
loop_
_geom_bond_atom_site_label_1
_geom_bond_atom_site_label_2
_geom_bond_distance
_geom_bond_site_symmetry_2
Mn0 O12 2.260098 1_555
Mn0 O5 2.260098 1_555
Mn0 O17 2.260098 1_555
Mn0 O11 2.277722 1_555
Mn0 O18 2.277722 1_555
Mn0 O6 2.277722 1_555
Mn1 O0 2.257840 1_455
Mn1 O21 2.257841 1_545
Mn1 O16 2.257841 1_554
Mn1 O23 2.259689 1_544
Mn1 O2 2.259689 1_454
Mn1 O7 2.259689 1_445
Cr0 O1 1.951742 1_565
Cr0 O20 1.951742 1_655
Cr0 O14 1.951742 1_556
Cr0 O7 2.039920 1_556
Cr0 O2 2.039920 1_565
Cr0 O23 2.039920 1_655
O0 P0 1.560780 1_555
O0 Ti2 2.072527 1_655
O1 P0 1.508834 1_555
O2 P2 1.545722 1_555
O3 P1 1.540315 1_555
O3 Ti2 1.920867 1_655
O4 P4 1.555964 1_655
O4 Ti0 1.895115 1_555
O5 P0 1.560805 1_555
O5 Ti1 2.059415 1_555
O6 P1 1.559566 1_555
O6 Ti0 2.069414 1_555
O7 P1 1.545722 1_555
O8 P2 1.541477 1_554
O8 Ti1 1.920254 1_555
O9 P5 1.541477 1_545
O9 Ti1 1.920254 1_555
O10 P2 1.540315 1_555
O10 Ti2 1.920867 1_556
O11 P2 1.559566 1_555
O11 Ti0 2.069414 1_555
O12 P3 1.560805 1_555
O12 Ti1 2.059415 1_555
O13 P0 1.555964 1_565
O13 Ti0 1.895115 1_555
O14 P3 1.508834 1_555
O15 P3 1.555964 1_556
O15 Ti0 1.895115 1_555
O16 P4 1.560780 1_555
O16 Ti2 2.072527 1_556
O17 P4 1.560805 1_555
O17 Ti1 2.059415 1_555
O18 P5 1.559566 1_555
O18 Ti0 2.069414 1_555
O19 P1 1.541477 1_455
O19 Ti1 1.920254 1_555
O20 P4 1.508834 1_555
O21 P3 1.560780 1_555
O21 Ti2 2.072527 1_565
O22 P5 1.540315 1_555
O22 Ti2 1.920867 1_565
O23 P5 1.545722 1_555
