# generated using pymatgen
data_Li4Fe(PO3)6
_symmetry_space_group_name_H-M   'P 1'
_cell_length_a   7.32367200
_cell_length_b   7.55424563
_cell_length_c   7.61989196
_cell_angle_alpha   106.72439567
_cell_angle_beta   99.55489629
_cell_angle_gamma   113.39285394
_symmetry_Int_Tables_number   1
_chemical_formula_structural   Li4Fe(PO3)6
_chemical_formula_sum   'Li4 Fe1 P6 O18'
_cell_volume   351.21284321
_cell_formula_units_Z   1
loop_
 _symmetry_equiv_pos_site_id
 _symmetry_equiv_pos_as_xyz
  1  'x, y, z'
loop_
 _atom_site_type_symbol
 _atom_site_label
 _atom_site_symmetry_multiplicity
 _atom_site_fract_x
 _atom_site_fract_y
 _atom_site_fract_z
 _atom_site_occupancy
  Li  Li0  1  0.24021400  0.08154500  0.87708900  1
  Li  Li1  1  0.62261900  0.43635900  0.84484700  1
  Li  Li2  1  0.47488900  0.00441900  0.54833900  1
  Li  Li3  1  0.36964500  0.55450900  0.14045000  1
  Fe  Fe0  1  0.78591400  0.93394900  0.14662900  1
  P  P0  1  0.98616900  0.31254500  0.77875000  1
  P  P1  1  0.32978300  0.67836400  0.78207100  1
  P  P2  1  0.20815100  0.26691200  0.49962000  1
  P  P3  1  0.77632300  0.72455100  0.48978300  1
  P  P4  1  0.67571100  0.32439500  0.20649800  1
  P  P5  1  0.02694400  0.69499100  0.23793500  1
  O  O0  1  0.11957900  0.28538400  0.93052400  1
  O  O1  1  0.49274400  0.67628500  0.93368700  1
  O  O2  1  0.10273100  0.55901800  0.80664300  1
  O  O3  1  0.75926900  0.24970100  0.75225000  1
  O  O4  1  0.36801500  0.22512200  0.60767500  1
  O  O5  1  0.00264700  0.20169600  0.57031200  1
  O  O6  1  0.35577100  0.87935500  0.76826000  1
  O  O7  1  0.82138500  0.81306900  0.70117500  1
  O  O8  1  0.30084800  0.51980500  0.57014300  1
  O  O9  1  0.69012700  0.46966100  0.41630200  1
  O  O10  1  0.12010500  0.16773600  0.28333000  1
  O  O11  1  0.65556700  0.12176300  0.21446700  1
  O  O12  1  0.99991300  0.79562800  0.44337300  1
  O  O13  1  0.63819100  0.76542900  0.35149100  1
  O  O14  1  0.25446500  0.76268700  0.26886500  1
  O  O15  1  0.90857300  0.44788500  0.19546800  1
  O  O16  1  0.51581400  0.32284500  0.05308200  1
  O  O17  1  0.89789200  0.72439000  0.08094000  1
loop_
_geom_bond_atom_site_label_1
_geom_bond_atom_site_label_2
_geom_bond_distance
_geom_bond_site_symmetry_2
Li0 O16 1.991994 1_556
Li0 O0 2.038710 1_555
Li0 O6 2.065740 1_545
Li1 O4 2.036686 1_555
Li1 O3 2.066409 1_555
Li1 O16 2.127768 1_556
Li1 O17 2.257196 1_556
Li1 O1 2.350429 1_555
Li2 O4 2.077651 1_555
Li2 O3 2.095119 1_555
Li2 O14 2.180693 1_545
Li2 O6 2.281208 1_545
Li3 O13 1.994946 1_555
Li3 O0 2.060395 1_554
Li3 O14 2.141018 1_555
Li3 O1 2.188244 1_554
Li3 O16 2.388618 1_555
Fe0 O11 2.002171 1_565
Fe0 O17 2.034772 1_555
Fe0 O1 2.176831 1_554
Fe0 O10 2.203828 1_665
Fe0 O13 2.416330 1_555
O0 P0 1.501616 1_455
O1 P1 1.525423 1_555
O2 P1 1.619579 1_555
O2 P0 1.640283 1_455
O3 P0 1.494835 1_555
O4 P2 1.507120 1_555
O5 P0 1.617654 1_455
O5 P2 1.622076 1_555
O6 P1 1.490565 1_555
O7 P3 1.476161 1_555
O8 P2 1.630188 1_555
O8 P1 1.630646 1_555
O9 P4 1.616613 1_555
O9 P3 1.648189 1_555
O10 P2 1.498757 1_555
O11 P4 1.498580 1_555
O12 P5 1.614041 1_655
O12 P3 1.642598 1_555
O13 P3 1.520077 1_555
O14 P5 1.489026 1_555
O15 P5 1.617103 1_655
O15 P4 1.617137 1_555
O16 P4 1.504929 1_555
O17 P5 1.522474 1_655
