# generated using pymatgen
data_Li8Mn3Fe5(BO3)8
_symmetry_space_group_name_H-M   'P 1'
_cell_length_a   5.22858600
_cell_length_b   6.02856385
_cell_length_c   16.20040506
_cell_angle_alpha   81.61439464
_cell_angle_beta   89.17997319
_cell_angle_gamma   88.92713901
_symmetry_Int_Tables_number   1
_chemical_formula_structural   Li8Mn3Fe5(BO3)8
_chemical_formula_sum   'Li8 Mn3 Fe5 B8 O24'
_cell_volume   505.06822190
_cell_formula_units_Z   1
loop_
 _symmetry_equiv_pos_site_id
 _symmetry_equiv_pos_as_xyz
  1  'x, y, z'
loop_
 _atom_site_type_symbol
 _atom_site_label
 _atom_site_symmetry_multiplicity
 _atom_site_fract_x
 _atom_site_fract_y
 _atom_site_fract_z
 _atom_site_occupancy
  Li  Li0  1  0.84797700  0.06307800  0.39061100  1
  Li  Li1  1  0.15219000  0.43392500  0.10974000  1
  Li  Li2  1  0.65255400  0.18783600  0.85695800  1
  Li  Li3  1  0.34786500  0.31465500  0.64087200  1
  Li  Li4  1  0.65219600  0.68612200  0.36018600  1
  Li  Li5  1  0.34762100  0.81341500  0.14156100  1
  Li  Li6  1  0.84656100  0.56701400  0.88887700  1
  Li  Li7  1  0.15036800  0.93448700  0.61028100  1
  Mn  Mn0  1  0.67004200  0.27428800  0.04109700  1
  Mn  Mn1  1  0.16888100  0.51951300  0.29132800  1
  Mn  Mn2  1  0.32965900  0.72477800  0.95949700  1
  Fe  Fe0  1  0.16627700  0.02894500  0.79172200  1
  Fe  Fe1  1  0.33117900  0.22227000  0.46235700  1
  Fe  Fe2  1  0.83429400  0.47573700  0.70686800  1
  Fe  Fe3  1  0.66401400  0.77539800  0.53938700  1
  Fe  Fe4  1  0.83839800  0.97251500  0.20924600  1
  B  B0  1  0.33110700  0.03625500  0.29802100  1
  B  B1  1  0.82972200  0.28799700  0.54639200  1
  B  B2  1  0.67119400  0.46227200  0.20329100  1
  B  B3  1  0.16766000  0.21550000  0.95093400  1
  B  B4  1  0.83034100  0.78520700  0.04905000  1
  B  B5  1  0.32912700  0.53953600  0.79590200  1
  B  B6  1  0.17183500  0.71209100  0.45427100  1
  B  B7  1  0.66888900  0.96247000  0.70194400  1
  O  O0  1  0.59177000  0.01210100  0.30884000  1
  O  O1  1  0.18551900  0.16576100  0.34719900  1
  O  O2  1  0.70911800  0.17563300  0.48906000  1
  O  O3  1  0.28733600  0.32919800  0.00809600  1
  O  O4  1  0.79428000  0.07754400  0.75783300  1
  O  O5  1  0.82133700  0.32763500  0.15717200  1
  O  O6  1  0.31650000  0.08257800  0.90310500  1
  O  O7  1  0.09253200  0.26405100  0.55781900  1
  O  O8  1  0.41039900  0.48520200  0.18930700  1
  O  O9  1  0.90699300  0.23677000  0.93844200  1
  O  O10  1  0.68583100  0.41933800  0.59540400  1
  O  O11  1  0.20415800  0.42307900  0.74022100  1
  O  O12  1  0.78730600  0.58029900  0.25990300  1
  O  O13  1  0.31708300  0.57971200  0.40658000  1
  O  O14  1  0.09127600  0.76424600  0.06172300  1
  O  O15  1  0.58960200  0.51412000  0.80780600  1
  O  O16  1  0.91044000  0.73698400  0.44319300  1
  O  O17  1  0.68094900  0.91778300  0.09663500  1
  O  O18  1  0.18160800  0.67296200  0.84351300  1
  O  O19  1  0.20669400  0.92516300  0.24051700  1
  O  O20  1  0.71250300  0.67026900  0.99180000  1
  O  O21  1  0.29426000  0.82687900  0.51131200  1
  O  O22  1  0.81483700  0.82933900  0.65371300  1
  O  O23  1  0.40772200  0.98805000  0.69040900  1
loop_
_geom_bond_atom_site_label_1
_geom_bond_atom_site_label_2
_geom_bond_distance
_geom_bond_site_symmetry_2
Li0 O2 1.948168 1_555
Li0 O0 1.956737 1_555
Li0 O1 1.967480 1_655
Li0 O16 2.047552 1_545
Li1 O8 1.939451 1_555
Li1 O5 1.963018 1_455
Li1 O3 1.965369 1_555
Li1 O14 2.050269 1_555
Li2 O9 1.943712 1_555
Li2 O4 1.956766 1_555
Li2 O6 1.978562 1_555
Li2 O15 2.034208 1_555
Li3 O11 1.958605 1_555
Li3 O7 1.967768 1_555
Li3 O10 1.983017 1_555
Li3 O23 2.035197 1_545
Li4 O12 1.948852 1_555
Li4 O13 1.977444 1_555
Li4 O16 1.978202 1_555
Li4 O0 2.039899 1_565
Li5 O14 1.932240 1_555
Li5 O19 1.956887 1_555
Li5 O17 1.958127 1_555
Li5 O8 2.039036 1_555
Li6 O15 1.954594 1_555
Li6 O18 1.971060 1_655
Li6 O20 1.977860 1_555
Li6 O9 2.055653 1_555
Li7 O23 1.946409 1_555
Li7 O21 1.951443 1_555
Li7 O22 1.962363 1_455
Li7 O7 2.062401 1_565
Mn0 O3 2.086541 1_555
Mn0 O9 2.095725 1_554
Mn0 O5 2.119868 1_555
Mn0 O17 2.205622 1_545
Mn0 O20 2.417544 1_554
Mn1 O12 2.078741 1_455
Mn1 O8 2.097456 1_555
Mn1 O13 2.113742 1_555
Mn1 O1 2.192529 1_555
Mn1 O19 2.474550 1_555
Mn2 O20 2.084221 1_555
Mn2 O14 2.097036 1_556
Mn2 O18 2.109333 1_555
Mn2 O6 2.216656 1_565
Mn2 O3 2.413122 1_556
Fe0 O4 2.032895 1_455
Fe0 O6 2.048845 1_555
Fe0 O23 2.096530 1_545
Fe0 O18 2.187762 1_545
Fe0 O11 2.411575 1_555
Fe1 O7 2.014636 1_555
Fe1 O2 2.034526 1_555
Fe1 O1 2.100554 1_555
Fe1 O13 2.212105 1_555
Fe1 O21 2.410282 1_545
Fe2 O11 2.022242 1_655
Fe2 O10 2.051348 1_555
Fe2 O15 2.098519 1_555
Fe2 O22 2.180612 1_555
Fe2 O4 2.433886 1_555
Fe3 O21 2.000582 1_555
Fe3 O16 2.044242 1_555
Fe3 O22 2.094057 1_555
Fe3 O10 2.206760 1_555
Fe3 O2 2.446261 1_565
Fe4 O19 2.002870 1_655
Fe4 O17 2.084118 1_555
Fe4 O0 2.089090 1_565
Fe4 O5 2.184302 1_565
Fe4 O12 2.405643 1_555
B0 O0 1.378905 1_555
B0 O19 1.398277 1_545
B0 O1 1.401979 1_555
B1 O7 1.391182 1_655
B1 O2 1.391202 1_555
B1 O10 1.402638 1_555
B2 O8 1.386527 1_555
B2 O12 1.392279 1_555
B2 O5 1.403404 1_555
B3 O9 1.381568 1_455
B3 O3 1.391659 1_556
B3 O6 1.410190 1_555
B4 O14 1.383288 1_655
B4 O20 1.392742 1_554
B4 O17 1.407940 1_555
B5 O15 1.380785 1_555
B5 O11 1.397252 1_555
B5 O18 1.406258 1_555
B6 O16 1.383530 1_455
B6 O13 1.396755 1_555
B6 O21 1.400923 1_555
B7 O23 1.383618 1_555
B7 O4 1.395750 1_565
B7 O22 1.407091 1_555
