# generated using pymatgen
data_K2Li3NiO4
_symmetry_space_group_name_H-M   'P 1'
_cell_length_a   8.79584000
_cell_length_b   5.54562000
_cell_length_c   10.96674510
_cell_angle_alpha   68.49955377
_cell_angle_beta   90.00000000
_cell_angle_gamma   90.00000000
_symmetry_Int_Tables_number   1
_chemical_formula_structural   K2Li3NiO4
_chemical_formula_sum   'K8 Li12 Ni4 O16'
_cell_volume   497.71616599
_cell_formula_units_Z   4
loop_
 _symmetry_equiv_pos_site_id
 _symmetry_equiv_pos_as_xyz
  1  'x, y, z'
loop_
 _atom_site_type_symbol
 _atom_site_label
 _atom_site_symmetry_multiplicity
 _atom_site_fract_x
 _atom_site_fract_y
 _atom_site_fract_z
 _atom_site_occupancy
  K  K0  1  0.22785900  0.71977600  0.89160200  1
  K  K1  1  0.49222900  0.70841700  0.63795600  1
  K  K2  1  0.27214100  0.71977600  0.39160200  1
  K  K3  1  0.99222900  0.29158300  0.86204400  1
  K  K4  1  0.00777100  0.70841700  0.13795600  1
  K  K5  1  0.72785900  0.28022400  0.60839800  1
  K  K6  1  0.50777100  0.29158300  0.36204400  1
  K  K7  1  0.77214100  0.28022400  0.10839800  1
  Li  Li0  1  0.96968200  0.90753100  0.70054900  1
  Li  Li1  1  0.73652900  0.62428400  0.80164300  1
  Li  Li2  1  0.53031800  0.90753100  0.20054900  1
  Li  Li3  1  0.50588900  0.36605600  0.93296200  1
  Li  Li4  1  0.00588900  0.63394400  0.56703800  1
  Li  Li5  1  0.23652900  0.37571600  0.69835700  1
  Li  Li6  1  0.76347100  0.62428400  0.30164300  1
  Li  Li7  1  0.99411100  0.36605600  0.43296200  1
  Li  Li8  1  0.49411100  0.63394400  0.06703800  1
  Li  Li9  1  0.46968200  0.09246900  0.79945100  1
  Li  Li10  1  0.26347100  0.37571600  0.19835700  1
  Li  Li11  1  0.03031800  0.09246900  0.29945100  1
  Ni  Ni0  1  0.71416500  0.90020500  0.93776000  1
  Ni  Ni1  1  0.78583500  0.90020500  0.43776000  1
  Ni  Ni2  1  0.21416500  0.09979500  0.56224000  1
  Ni  Ni3  1  0.28583500  0.09979500  0.06224000  1
  O  O0  1  0.89241400  0.78090800  0.88537900  1
  O  O1  1  0.55157400  0.74119400  0.87650500  1
  O  O2  1  0.81074600  0.76574500  0.61976800  1
  O  O3  1  0.17557500  0.74646700  0.64457800  1
  O  O4  1  0.60758600  0.78090800  0.38537900  1
  O  O5  1  0.94842600  0.74119400  0.37650500  1
  O  O6  1  0.67557500  0.25353300  0.85542200  1
  O  O7  1  0.31074600  0.23425500  0.88023200  1
  O  O8  1  0.68925400  0.76574500  0.11976800  1
  O  O9  1  0.32442500  0.74646700  0.14457800  1
  O  O10  1  0.05157400  0.25880600  0.62349500  1
  O  O11  1  0.39241400  0.21909200  0.61462100  1
  O  O12  1  0.82442500  0.25353300  0.35542200  1
  O  O13  1  0.18925400  0.23425500  0.38023200  1
  O  O14  1  0.44842600  0.25880600  0.12349500  1
  O  O15  1  0.10758600  0.21909200  0.11462100  1
loop_
_geom_bond_atom_site_label_1
_geom_bond_atom_site_label_2
_geom_bond_distance
_geom_bond_site_symmetry_2
K0 O3 2.697854 1_555
K0 O7 2.835986 1_555
K0 O1 2.852101 1_555
K0 O7 2.902845 1_565
K0 O9 2.956558 1_556
K0 O0 2.967861 1_455
K0 O15 3.135709 1_556
K1 O1 2.738265 1_555
K1 O3 2.796173 1_555
K1 O2 2.818417 1_555
K1 O4 2.836814 1_555
K1 O11 2.885365 1_565
K1 O11 2.951104 1_555
K2 O9 2.697854 1_555
K2 O13 2.835986 1_555
K2 O5 2.852101 1_455
K2 O13 2.902845 1_565
K2 O3 2.956558 1_555
K2 O4 2.967861 1_555
K2 O11 3.135709 1_555
K3 O10 2.738265 1_655
K3 O6 2.796173 1_555
K3 O7 2.818417 1_655
K3 O15 2.836814 1_656
K3 O0 2.885365 1_545
K3 O0 2.951104 1_555
K4 O5 2.738265 1_455
K4 O9 2.796173 1_555
K4 O8 2.818417 1_455
K4 O0 2.836814 1_454
K4 O15 2.885365 1_565
K4 O15 2.951104 1_555
K5 O6 2.697854 1_555
K5 O2 2.835986 1_555
K5 O10 2.852101 1_655
K5 O2 2.902845 1_545
K5 O12 2.956558 1_555
K5 O11 2.967861 1_555
K5 O4 3.135709 1_555
K6 O14 2.738265 1_555
K6 O12 2.796173 1_555
K6 O13 2.818417 1_555
K6 O11 2.836814 1_555
K6 O4 2.885365 1_545
K6 O4 2.951104 1_555
K7 O12 2.697854 1_555
K7 O8 2.835986 1_555
K7 O14 2.852101 1_555
K7 O8 2.902845 1_545
K7 O6 2.956558 1_554
K7 O15 2.967861 1_655
K7 O0 3.135709 1_554
Li0 O10 1.954767 1_665
Li0 O2 1.966729 1_555
Li0 O0 2.005072 1_555
Li0 O3 2.203678 1_655
Li1 O2 1.967979 1_555
Li1 O6 1.993424 1_555
Li1 O0 2.015544 1_555
Li1 O1 2.032519 1_555
Li2 O14 1.954767 1_565
Li2 O8 1.966729 1_555
Li2 O4 2.005072 1_555
Li2 O9 2.203678 1_555
Li3 O6 1.931092 1_555
Li3 O1 1.982070 1_555
Li3 O14 2.016025 1_556
Li3 O7 2.030926 1_555
Li4 O3 1.931092 1_555
Li4 O10 1.982070 1_555
Li4 O5 2.016025 1_455
Li4 O2 2.030926 1_455
Li5 O7 1.967979 1_555
Li5 O3 1.993424 1_555
Li5 O11 2.015544 1_555
Li5 O10 2.032519 1_555
Li6 O8 1.967979 1_555
Li6 O12 1.993424 1_555
Li6 O4 2.015544 1_555
Li6 O5 2.032519 1_555
Li7 O12 1.931092 1_555
Li7 O5 1.982070 1_555
Li7 O10 2.016025 1_655
Li7 O13 2.030926 1_655
Li8 O9 1.931092 1_555
Li8 O14 1.982070 1_555
Li8 O1 2.016025 1_554
Li8 O8 2.030926 1_555
Li9 O1 1.954767 1_545
Li9 O7 1.966729 1_555
Li9 O11 2.005072 1_555
Li9 O6 2.203678 1_555
Li10 O13 1.967979 1_555
Li10 O9 1.993424 1_555
Li10 O15 2.015544 1_555
Li10 O14 2.032519 1_555
Li11 O5 1.954767 1_445
Li11 O13 1.966729 1_555
Li11 O15 2.005072 1_555
Li11 O12 2.203678 1_455
Ni0 O6 1.863594 1_565
Ni0 O8 1.870075 1_556
Ni0 O0 1.872005 1_555
Ni0 O1 1.925707 1_555
Ni1 O12 1.863594 1_565
Ni1 O2 1.870075 1_555
Ni1 O4 1.872005 1_555
Ni1 O5 1.925707 1_555
Ni2 O3 1.863594 1_545
Ni2 O13 1.870075 1_555
Ni2 O11 1.872005 1_555
Ni2 O10 1.925707 1_555
Ni3 O9 1.863594 1_545
Ni3 O7 1.870075 1_554
Ni3 O15 1.872005 1_555
Ni3 O14 1.925707 1_555
