# generated using pymatgen
data_Li5V3P8O29
_symmetry_space_group_name_H-M   'P 1'
_cell_length_a   9.80608900
_cell_length_b   9.81195760
_cell_length_c   13.92184802
_cell_angle_alpha   89.83744539
_cell_angle_beta   89.89238295
_cell_angle_gamma   60.08031265
_symmetry_Int_Tables_number   1
_chemical_formula_structural   Li5V3P8O29
_chemical_formula_sum   'Li10 V6 P16 O58'
_cell_volume   1160.98899287
_cell_formula_units_Z   2
loop_
 _symmetry_equiv_pos_site_id
 _symmetry_equiv_pos_as_xyz
  1  'x, y, z'
loop_
 _atom_site_type_symbol
 _atom_site_label
 _atom_site_symmetry_multiplicity
 _atom_site_fract_x
 _atom_site_fract_y
 _atom_site_fract_z
 _atom_site_occupancy
  Li  Li0  1  0.22095700  0.08715900  0.94042400  1
  Li  Li1  1  0.08966200  0.23037900  0.44011000  1
  Li  Li2  1  0.67859400  0.09764200  0.44252100  1
  Li  Li3  1  0.33495300  0.33405600  0.11628000  1
  Li  Li4  1  0.68613200  0.22810500  0.93817900  1
  Li  Li5  1  0.09223900  0.68078200  0.94026500  1
  Li  Li6  1  0.23130000  0.67463200  0.43914300  1
  Li  Li7  1  0.32114100  0.90722100  0.56056500  1
  Li  Li8  1  0.90543500  0.77447200  0.56117900  1
  Li  Li9  1  0.77293800  0.90479100  0.06012600  1
  V  V0  1  0.57184700  0.43488100  0.74686700  1
  V  V1  1  0.43586100  0.56742800  0.24630900  1
  V  V2  1  0.99298500  0.43130600  0.24685000  1
  V  V3  1  0.00071300  0.56442000  0.74925700  1
  V  V4  1  0.43059200  0.00105600  0.75265400  1
  V  V5  1  0.56769600  0.00183500  0.25319700  1
  P  P0  1  0.23078200  0.08990600  0.15712300  1
  P  P1  1  0.08643400  0.23106800  0.65646800  1
  P  P2  1  0.67893900  0.09049500  0.65957500  1
  P  P3  1  0.33582800  0.33370300  0.87356300  1
  P  P4  1  0.32977400  0.33632400  0.37299800  1
  P  P5  1  0.68173900  0.22960200  0.15599100  1
  P  P6  1  0.76712300  0.31625200  0.34165800  1
  P  P7  1  0.08961100  0.68061300  0.15788100  1
  P  P8  1  0.91401200  0.31666700  0.84183300  1
  P  P9  1  0.23304500  0.68086900  0.65755200  1
  P  P10  1  0.31651800  0.76726700  0.84324900  1
  P  P11  1  0.66367600  0.67168100  0.62617100  1
  P  P12  1  0.66619800  0.67020700  0.12551500  1
  P  P13  1  0.31743400  0.91293600  0.34142700  1
  P  P14  1  0.91397600  0.76663700  0.34195500  1
  P  P15  1  0.76935900  0.91107500  0.84132700  1
  O  O0  1  0.24303800  0.00355900  0.43181700  1
  O  O1  1  0.25456500  0.08329500  0.66282800  1
  O  O2  1  0.00352300  0.22950300  0.92785700  1
  O  O3  1  0.08276000  0.25808100  0.16606800  1
  O  O4  1  0.37467000  0.11236800  0.17457400  1
  O  O5  1  0.32916500  0.18550700  0.83593800  1
  O  O6  1  0.52033100  0.10081200  0.67746900  1
  O  O7  1  0.75787300  0.99892800  0.93195300  1
  O  O8  1  0.66483000  0.07870500  0.16240300  1
  O  O9  1  0.18216900  0.33144600  0.33007000  1
  O  O10  1  0.09745200  0.38151600  0.67764000  1
  O  O11  1  0.48518000  0.18726200  0.33448400  1
  O  O12  1  0.33924100  0.33047800  0.98195800  1
  O  O13  1  0.32642400  0.33618800  0.48022200  1
  O  O14  1  0.48903100  0.32870100  0.83372900  1
  O  O15  1  0.10486500  0.51527500  0.17485400  1
  O  O16  1  0.18814600  0.48568600  0.83538700  1
  O  O17  1  0.65969500  0.25656500  0.66551100  1
  O  O18  1  0.79161600  0.21289100  0.24506600  1
  O  O19  1  0.76738300  0.22663400  0.42774300  1
  O  O20  1  0.75261600  0.23779100  0.06357700  1
  O  O21  1  0.51378900  0.37210300  0.17454600  1
  O  O22  1  0.32815100  0.48704600  0.33110100  1
  O  O23  1  0.74463000  0.33789300  0.83821600  1
  O  O24  1  0.38308500  0.52040000  0.67711400  1
  O  O25  1  0.08519400  0.66330800  0.65800500  1
  O  O26  1  0.99473000  0.21148500  0.74579000  1
  O  O27  1  0.00828500  0.24000400  0.56385100  1
  O  O28  1  0.00366400  0.75264000  0.43263900  1
  O  O29  1  0.91575300  0.33772100  0.33848200  1
  O  O30  1  0.61787600  0.47574900  0.32678300  1
  O  O31  1  0.25453200  0.65826800  0.15889600  1
  O  O32  1  0.66551700  0.52085300  0.67400600  1
  O  O33  1  0.47634500  0.61637100  0.82304800  1
  O  O34  1  0.23323300  0.75551600  0.92907100  1
  O  O35  1  0.24753200  0.75451100  0.56584200  1
  O  O36  1  0.21143800  0.79328700  0.74644600  1
  O  O37  1  0.33515200  0.74885900  0.34170100  1
  O  O38  1  0.81669300  0.52062900  0.17414100  1
  O  O39  1  0.90029600  0.47752100  0.82396000  1
  O  O40  1  0.52272600  0.66337800  0.17118800  1
  O  O41  1  0.67682100  0.65974000  0.01943900  1
  O  O42  1  0.66245200  0.66650900  0.51935600  1
  O  O43  1  0.51077000  0.81592000  0.66659900  1
  O  O44  1  0.90615700  0.61670400  0.32143700  1
  O  O45  1  0.81317900  0.67358400  0.66579500  1
  O  O46  1  0.33726900  0.91358100  0.84273300  1
  O  O47  1  0.21033900  0.00066200  0.24910500  1
  O  O48  1  0.23603900  0.00869700  0.06659000  1
  O  O49  1  0.47709100  0.90520500  0.32158900  1
  O  O50  1  0.67049700  0.81630400  0.16548900  1
  O  O51  1  0.61889500  0.90173600  0.82329400  1
  O  O52  1  0.91698400  0.74513500  0.83969900  1
  O  O53  1  0.99613200  0.75573000  0.06860500  1
  O  O54  1  0.99982800  0.79055600  0.24976700  1
  O  O55  1  0.74885200  0.91462600  0.34350500  1
  O  O56  1  0.75856300  0.00307500  0.56923000  1
  O  O57  1  0.79274700  0.99869300  0.75006000  1
loop_
_geom_bond_atom_site_label_1
_geom_bond_atom_site_label_2
_geom_bond_distance
_geom_bond_site_symmetry_2
Li0 O2 1.885942 1_555
Li0 O48 1.891944 1_556
Li0 O46 2.029969 1_545
Li0 O5 2.276135 1_555
Li1 O27 1.879892 1_555
Li1 O0 1.972343 1_555
Li1 O29 2.056258 1_455
Li1 O9 2.244267 1_555
Li2 O19 1.870683 1_555
Li2 O56 1.964113 1_555
Li2 O55 2.091860 1_545
Li2 O11 2.229838 1_555
Li3 O12 1.870440 1_554
Li3 O21 2.129063 1_555
Li3 O4 2.165142 1_555
Li3 O15 2.217330 1_555
Li4 O20 1.883830 1_556
Li4 O7 1.995430 1_545
Li4 O23 2.007778 1_555
Li4 O14 2.218952 1_555
Li5 O34 1.866414 1_555
Li5 O53 1.982710 1_456
Li5 O52 2.057634 1_455
Li5 O16 2.212592 1_555
Li6 O28 1.967944 1_555
Li6 O35 1.970855 1_555
Li6 O37 2.033945 1_555
Li6 O22 2.195159 1_555
Li7 O35 1.962060 1_555
Li7 O0 1.991526 1_565
Li7 O1 2.079215 1_565
Li7 O43 2.186435 1_555
Li8 O56 1.973890 1_565
Li8 O28 1.991468 1_655
Li8 O25 2.048562 1_655
Li8 O45 2.190850 1_555
Li9 O53 1.936487 1_555
Li9 O7 1.978536 1_554
Li9 O8 2.065602 1_565
Li9 O50 2.184462 1_555
O0 P13 1.504068 1_545
O1 P1 1.563171 1_555
O1 V4 1.951266 1_555
O2 P8 1.478324 1_455
O3 P0 1.567305 1_555
O3 V2 1.855578 1_455
O4 P0 1.552505 1_555
O4 V5 1.977452 1_555
O5 P3 1.578689 1_555
O5 V4 1.954727 1_555
O6 P2 1.527405 1_555
O6 V4 1.917814 1_555
O7 P15 1.502122 1_555
O8 P5 1.572171 1_555
O8 V5 1.944387 1_555
O9 P4 1.589663 1_555
O9 V2 1.982997 1_455
O10 P1 1.561852 1_555
O10 V3 1.850142 1_555
O11 P4 1.589632 1_555
O11 V5 1.945575 1_555
O12 P3 1.509385 1_555
O13 P4 1.493067 1_555
O14 P3 1.578097 1_555
O14 V0 2.010091 1_555
O15 P7 1.570323 1_555
O15 V2 1.944218 1_455
O16 P3 1.564471 1_555
O16 V3 1.999844 1_555
O17 P2 1.546472 1_555
O17 V0 1.894772 1_555
O18 P5 1.597892 1_555
O18 P6 1.630365 1_555
O19 P6 1.483688 1_555
O20 P5 1.482077 1_555
O21 P5 1.561217 1_555
O21 V1 1.949913 1_555
O22 P4 1.580890 1_555
O22 V1 1.988010 1_555
O23 P8 1.568412 1_555
O23 V0 1.945881 1_555
O24 P9 1.551165 1_555
O24 V0 1.877786 1_555
O25 P9 1.543029 1_555
O25 V3 2.008125 1_555
O26 P1 1.599612 1_655
O26 P8 1.633524 1_555
O27 P1 1.481064 1_555
O28 P14 1.506298 1_455
O29 P6 1.573708 1_555
O29 V2 1.930700 1_555
O30 P6 1.532459 1_555
O30 V1 1.910550 1_555
O31 P7 1.519887 1_555
O31 V1 1.964205 1_555
O32 P11 1.613002 1_555
O32 V0 1.829977 1_555
O33 P10 1.553525 1_555
O33 V0 1.875195 1_555
O34 P10 1.482340 1_555
O35 P9 1.506295 1_555
O36 P9 1.602119 1_555
O36 P10 1.638297 1_555
O37 P13 1.530675 1_555
O37 V1 2.040281 1_555
O38 P12 1.620999 1_555
O38 V2 1.808700 1_555
O39 P8 1.535299 1_555
O39 V3 1.899193 1_655
O40 P12 1.574358 1_555
O40 V1 1.869952 1_555
O41 P12 1.480497 1_555
O42 P11 1.488347 1_555
O43 P11 1.566023 1_555
O43 V4 1.984280 1_565
O44 P14 1.538410 1_555
O44 V2 1.890682 1_555
O45 P11 1.576176 1_555
O45 V3 1.978694 1_655
O46 P10 1.547204 1_555
O46 V4 1.979890 1_565
O47 P13 1.610219 1_545
O47 P0 1.616967 1_555
O48 P0 1.480078 1_555
O49 P13 1.553444 1_555
O49 V5 1.851208 1_565
O50 P12 1.559262 1_555
O50 V5 1.999614 1_565
O51 P15 1.544284 1_555
O51 V4 1.879561 1_565
O52 P15 1.547885 1_555
O52 V3 1.989998 1_655
O53 P7 1.501125 1_655
O54 P14 1.613180 1_555
O54 P7 1.622163 1_655
O55 P14 1.544465 1_555
O55 V5 1.988594 1_565
O56 P2 1.503897 1_555
O57 P15 1.611063 1_555
O57 P2 1.624735 1_565
