# generated using pymatgen
data_Li4Fe2Co3Te3O16
_symmetry_space_group_name_H-M   'P 1'
_cell_length_a   6.18392100
_cell_length_b   6.19817713
_cell_length_c   9.72331116
_cell_angle_alpha   89.45008827
_cell_angle_beta   91.24133041
_cell_angle_gamma   119.88415230
_symmetry_Int_Tables_number   1
_chemical_formula_structural   Li4Fe2Co3Te3O16
_chemical_formula_sum   'Li4 Fe2 Co3 Te3 O16'
_cell_volume   323.05478585
_cell_formula_units_Z   1
loop_
 _symmetry_equiv_pos_site_id
 _symmetry_equiv_pos_as_xyz
  1  'x, y, z'
loop_
 _atom_site_type_symbol
 _atom_site_label
 _atom_site_symmetry_multiplicity
 _atom_site_fract_x
 _atom_site_fract_y
 _atom_site_fract_z
 _atom_site_occupancy
  Li  Li0  1  0.32462500  0.66441500  0.87908800  1
  Li  Li1  1  0.96858600  0.98497300  0.98742500  1
  Li  Li2  1  0.97955900  0.98212500  0.50783900  1
  Li  Li3  1  0.64942500  0.33505200  0.40224000  1
  Fe  Fe0  1  0.36573400  0.68565500  0.50948800  1
  Fe  Fe1  1  0.70400600  0.33246000  0.97084600  1
  Co  Co0  1  0.66218900  0.84077100  0.21239600  1
  Co  Co1  1  0.83899500  0.66316600  0.71567200  1
  Co  Co2  1  0.83877500  0.17519300  0.71179600  1
  Te  Te0  1  0.16450300  0.82962600  0.21650200  1
  Te  Te1  1  0.17446000  0.34080500  0.21882300  1
  Te  Te2  1  0.34679200  0.17407700  0.71430200  1
  O  O0  1  0.19467500  0.86581500  0.59870700  1
  O  O1  1  0.02930700  0.53869500  0.34326200  1
  O  O2  1  0.31746100  0.68286200  0.10096600  1
  O  O3  1  0.00595000  0.97726600  0.32151400  1
  O  O4  1  0.02669600  0.01196600  0.80491600  1
  O  O5  1  0.19060500  0.32885500  0.59555200  1
  O  O6  1  0.46200000  0.96326200  0.33436500  1
  O  O7  1  0.47897500  0.52567700  0.34231300  1
  O  O8  1  0.30929600  0.13008200  0.10225700  1
  O  O9  1  0.67421900  0.83988200  0.59854900  1
  O  O10  1  0.49963800  0.45702700  0.84472400  1
  O  O11  1  0.50194700  0.03485900  0.83761600  1
  O  O12  1  0.64912100  0.32896200  0.60601500  1
  O  O13  1  0.85779100  0.67952800  0.10359000  1
  O  O14  1  0.96689800  0.48019300  0.83974400  1
  O  O15  1  0.81777300  0.14704800  0.08733600  1
loop_
_geom_bond_atom_site_label_1
_geom_bond_atom_site_label_2
_geom_bond_distance
_geom_bond_site_symmetry_2
Li0 O14 1.948954 1_455
Li0 O11 2.032104 1_565
Li0 O10 2.084582 1_555
Li0 O2 2.164090 1_556
Li1 O4 1.807849 1_665
Li1 O15 1.953013 1_566
Li1 O13 2.007321 1_556
Li1 O8 2.126910 1_666
Li2 O3 1.824428 1_655
Li2 O9 1.875863 1_555
Li2 O0 1.990585 1_655
Li2 O5 2.059432 1_665
Li3 O12 1.981389 1_555
Li3 O7 2.011903 1_555
Li3 O6 2.103279 1_545
Li3 O1 2.128454 1_655
Fe0 O9 1.852012 1_555
Fe0 O0 2.086603 1_555
Fe0 O5 2.093087 1_555
Fe0 O7 2.210888 1_555
Fe0 O6 2.276280 1_555
Fe0 O1 2.400922 1_555
Fe1 O14 1.921024 1_555
Fe1 O15 1.960802 1_556
Fe1 O11 2.078680 1_555
Fe1 O10 2.141072 1_555
Fe1 O13 2.271443 1_556
Fe1 O8 2.493436 1_556
Co0 O15 2.048029 1_565
Co0 O3 2.118438 1_655
Co0 O7 2.122100 1_555
Co0 O2 2.125424 1_555
Co0 O6 2.129057 1_555
Co0 O13 2.204898 1_555
Co1 O14 2.047781 1_555
Co1 O4 2.065417 1_665
Co1 O12 2.090665 1_555
Co1 O9 2.138428 1_555
Co1 O10 2.241070 1_555
Co1 O0 2.244290 1_655
Co2 O14 2.063767 1_555
Co2 O4 2.074180 1_655
Co2 O12 2.093928 1_555
Co2 O9 2.110760 1_545
Co2 O11 2.208252 1_555
Co2 O5 2.222437 1_655
O0 Te2 2.000799 1_565
O1 Te0 1.992348 1_555
O1 Te1 2.224144 1_555
O2 Te0 1.976683 1_555
O2 Te1 2.172365 1_555
O3 Te0 1.948518 1_555
O3 Te1 2.195956 1_565
O4 Te2 1.944405 1_555
O5 Te2 2.010012 1_555
O6 Te0 1.947388 1_555
O7 Te1 2.019665 1_555
O8 Te0 1.961004 1_545
O8 Te1 2.200078 1_555
O10 Te2 1.978936 1_555
O11 Te2 1.964213 1_555
O12 Te2 1.950108 1_555
O13 Te0 1.959409 1_655
O15 Te1 2.282464 1_655
