# generated using pymatgen
data_Na4Ti5O12
_symmetry_space_group_name_H-M   'P 1'
_cell_length_a   6.19543198
_cell_length_b   6.19543198
_cell_length_c   14.05543179
_cell_angle_alpha   79.30286962
_cell_angle_beta   79.30286962
_cell_angle_gamma   90.17250870
_symmetry_Int_Tables_number   1
_chemical_formula_structural   Na4Ti5O12
_chemical_formula_sum   'Na8 Ti10 O24'
_cell_volume   520.51500541
_cell_formula_units_Z   2
loop_
 _symmetry_equiv_pos_site_id
 _symmetry_equiv_pos_as_xyz
  1  'x, y, z'
loop_
 _atom_site_type_symbol
 _atom_site_label
 _atom_site_symmetry_multiplicity
 _atom_site_fract_x
 _atom_site_fract_y
 _atom_site_fract_z
 _atom_site_occupancy
  Na  Na0  1  0.46335600  0.19200100  0.58004000  1
  Na  Na1  1  0.00000000  0.00000000  0.50000000  1
  Na  Na2  1  0.53664400  0.80799900  0.41996000  1
  Na  Na3  1  0.10910800  0.89089200  0.25000000  1
  Na  Na4  1  0.19200100  0.46335600  0.08004000  1
  Na  Na5  1  0.00000000  0.00000000  0.00000000  1
  Na  Na6  1  0.80799900  0.53664400  0.91996000  1
  Na  Na7  1  0.89089200  0.10910800  0.75000000  1
  Ti  Ti0  1  0.00000000  0.50000000  0.50000000  1
  Ti  Ti1  1  0.83745300  0.35813900  0.33668900  1
  Ti  Ti2  1  0.33891700  0.34637200  0.33492500  1
  Ti  Ti3  1  0.64186100  0.16254700  0.16331100  1
  Ti  Ti4  1  0.65362800  0.66108300  0.16507500  1
  Ti  Ti5  1  0.50000000  0.00000000  0.00000000  1
  Ti  Ti6  1  0.35813900  0.83745300  0.83668900  1
  Ti  Ti7  1  0.34637200  0.33891700  0.83492500  1
  Ti  Ti8  1  0.66108300  0.65362800  0.66507500  1
  Ti  Ti9  1  0.16254700  0.64186100  0.66331100  1
  O  O0  1  0.76105300  0.70248600  0.52742600  1
  O  O1  1  0.21676600  0.70776400  0.52641300  1
  O  O2  1  0.23894700  0.29751400  0.47257400  1
  O  O3  1  0.78323400  0.29223600  0.47358700  1
  O  O4  1  0.05123600  0.57556400  0.35272200  1
  O  O5  1  0.07708900  0.17999900  0.31977900  1
  O  O6  1  0.57209900  0.15082900  0.32341900  1
  O  O7  1  0.57282200  0.57354400  0.31772800  1
  O  O8  1  0.42645600  0.42717800  0.18227200  1
  O  O9  1  0.84917100  0.42790100  0.17658100  1
  O  O10  1  0.82000100  0.92291100  0.18022100  1
  O  O11  1  0.42443600  0.94876400  0.14727800  1
  O  O12  1  0.70248600  0.76105300  0.02742600  1
  O  O13  1  0.70776400  0.21676600  0.02641300  1
  O  O14  1  0.29223600  0.78323400  0.97358700  1
  O  O15  1  0.29751400  0.23894700  0.97257400  1
  O  O16  1  0.57556400  0.05123600  0.85272200  1
  O  O17  1  0.17999900  0.07708900  0.81977900  1
  O  O18  1  0.15082900  0.57209900  0.82341900  1
  O  O19  1  0.57354400  0.57282200  0.81772800  1
  O  O20  1  0.42790100  0.84917100  0.67658100  1
  O  O21  1  0.42717800  0.42645600  0.68227200  1
  O  O22  1  0.92291100  0.82000100  0.68022100  1
  O  O23  1  0.94876400  0.42443600  0.64727800  1
loop_
_geom_bond_atom_site_label_1
_geom_bond_atom_site_label_2
_geom_bond_distance
_geom_bond_site_symmetry_2
Na0 O21 2.209547 1_555
Na0 O2 2.249525 1_555
Na0 O3 2.258030 1_555
Na0 O20 2.284162 1_545
Na1 O1 2.273670 1_545
Na1 O3 2.273670 1_455
Na1 O0 2.290318 1_445
Na1 O2 2.290318 1_555
Na1 O22 2.527296 1_445
Na1 O5 2.527296 1_555
Na2 O7 2.209547 1_555
Na2 O0 2.249525 1_555
Na2 O1 2.258030 1_555
Na2 O6 2.284162 1_565
Na3 O11 2.187726 1_555
Na3 O4 2.187726 1_555
Na3 O5 2.188955 1_565
Na3 O10 2.188955 1_455
Na4 O8 2.209547 1_555
Na4 O15 2.249525 1_554
Na4 O14 2.258030 1_554
Na4 O9 2.284162 1_455
Na5 O14 2.273670 1_544
Na5 O13 2.273670 1_455
Na5 O15 2.290318 1_554
Na5 O12 2.290318 1_445
Na5 O17 2.527296 1_554
Na5 O10 2.527296 1_445
Na6 O19 2.209547 1_555
Na6 O12 2.249525 1_556
Na6 O13 2.258030 1_556
Na6 O18 2.284162 1_655
Na7 O23 2.187726 1_555
Na7 O16 2.187726 1_555
Na7 O22 2.188955 1_545
Na7 O17 2.188955 1_655
O0 Ti8 1.885464 1_555
O0 Ti0 1.972998 1_655
O1 Ti9 1.857286 1_555
O1 Ti0 1.987534 1_555
O2 Ti2 1.885464 1_555
O2 Ti0 1.972998 1_555
O3 Ti1 1.857286 1_555
O3 Ti0 1.987534 1_655
O4 Ti1 1.957625 1_455
O4 Ti0 2.000116 1_555
O4 Ti2 2.288454 1_555
O5 Ti1 1.858756 1_455
O5 Ti2 1.984613 1_555
O6 Ti2 1.891405 1_555
O6 Ti1 2.139424 1_555
O6 Ti3 2.198727 1_555
O7 Ti2 1.967406 1_555
O7 Ti4 2.077497 1_555
O7 Ti1 2.140866 1_555
O8 Ti4 1.967406 1_555
O8 Ti2 2.077497 1_555
O8 Ti3 2.140866 1_555
O9 Ti4 1.891405 1_555
O9 Ti3 2.139424 1_555
O9 Ti1 2.198727 1_555
O10 Ti3 1.858756 1_565
O10 Ti4 1.984613 1_555
O11 Ti3 1.957625 1_565
O11 Ti5 2.000116 1_565
O11 Ti4 2.288454 1_555
O12 Ti4 1.885464 1_555
O12 Ti5 1.972998 1_565
O13 Ti3 1.857286 1_555
O13 Ti5 1.987534 1_555
O14 Ti6 1.857286 1_555
O14 Ti5 1.987534 1_566
O15 Ti7 1.885464 1_555
O15 Ti5 1.972998 1_556
O16 Ti6 1.957625 1_545
O16 Ti5 2.000116 1_556
O16 Ti7 2.288454 1_555
O17 Ti6 1.858756 1_545
O17 Ti7 1.984613 1_555
O18 Ti7 1.891405 1_555
O18 Ti6 2.139424 1_555
O18 Ti9 2.198727 1_555
O19 Ti7 1.967406 1_555
O19 Ti8 2.077497 1_555
O19 Ti6 2.140866 1_555
O20 Ti8 1.891405 1_555
O20 Ti9 2.139424 1_555
O20 Ti6 2.198727 1_555
O21 Ti8 1.967406 1_555
O21 Ti7 2.077497 1_555
O21 Ti9 2.140866 1_555
O22 Ti9 1.858756 1_655
O22 Ti8 1.984613 1_555
O23 Ti9 1.957625 1_655
O23 Ti0 2.000116 1_655
O23 Ti8 2.288454 1_555
