# generated using pymatgen
data_Li3MnV(PO4)3
_symmetry_space_group_name_H-M   'P 1'
_cell_length_a   10.31122220
_cell_length_b   10.31122220
_cell_length_c   10.07918476
_cell_angle_alpha   70.83035261
_cell_angle_beta   70.83035261
_cell_angle_gamma   108.97971653
_symmetry_Int_Tables_number   1
_chemical_formula_structural   Li3MnV(PO4)3
_chemical_formula_sum   'Li12 Mn4 V4 P12 O48'
_cell_volume   835.89920497
_cell_formula_units_Z   4
loop_
 _symmetry_equiv_pos_site_id
 _symmetry_equiv_pos_as_xyz
  1  'x, y, z'
loop_
 _atom_site_type_symbol
 _atom_site_label
 _atom_site_symmetry_multiplicity
 _atom_site_fract_x
 _atom_site_fract_y
 _atom_site_fract_z
 _atom_site_occupancy
  Li  Li0  1  0.62177300  0.74416200  0.12738300  1
  Li  Li1  1  0.13685600  0.86314400  0.25000000  1
  Li  Li2  1  0.24813100  0.87847800  0.88255900  1
  Li  Li3  1  0.61688900  0.38311100  0.25000000  1
  Li  Li4  1  0.74416200  0.62177300  0.62738300  1
  Li  Li5  1  0.12152200  0.75186900  0.61744100  1
  Li  Li6  1  0.87847800  0.24813100  0.38255900  1
  Li  Li7  1  0.25583800  0.37822700  0.37261700  1
  Li  Li8  1  0.38311100  0.61688900  0.75000000  1
  Li  Li9  1  0.75186900  0.12152200  0.11744100  1
  Li  Li10  1  0.86314400  0.13685600  0.75000000  1
  Li  Li11  1  0.37822700  0.25583800  0.87261700  1
  Mn  Mn0  1  0.50000000  0.00000000  0.00000000  1
  Mn  Mn1  1  0.50000000  0.50000000  0.00000000  1
  Mn  Mn2  1  0.00000000  0.50000000  0.50000000  1
  Mn  Mn3  1  0.50000000  0.50000000  0.50000000  1
  V  V0  1  0.00000000  0.00000000  0.00000000  1
  V  V1  1  0.00000000  0.00000000  0.50000000  1
  V  V2  1  0.50000000  0.00000000  0.50000000  1
  V  V3  1  0.00000000  0.50000000  0.00000000  1
  P  P0  1  0.74864500  0.87753700  0.37590100  1
  P  P1  1  0.62693600  0.87719800  0.74800400  1
  P  P2  1  0.87719800  0.62693600  0.24800400  1
  P  P3  1  0.87753700  0.74864500  0.87590100  1
  P  P4  1  0.37568000  0.75688800  0.37010000  1
  P  P5  1  0.24311200  0.62432000  0.12990000  1
  P  P6  1  0.75688800  0.37568000  0.87010000  1
  P  P7  1  0.12246300  0.25135500  0.12409900  1
  P  P8  1  0.62432000  0.24311200  0.62990000  1
  P  P9  1  0.12280200  0.37306400  0.75199600  1
  P  P10  1  0.37306400  0.12280200  0.25199600  1
  P  P11  1  0.25135500  0.12246300  0.62409900  1
  O  O0  1  0.50666900  0.89609300  0.19589200  1
  O  O1  1  0.89008200  0.89127800  0.40692300  1
  O  O2  1  0.20276500  0.99409400  0.38629300  1
  O  O3  1  0.79213600  0.91571900  0.19888100  1
  O  O4  1  0.61105300  0.90675300  0.89415700  1
  O  O5  1  0.89127800  0.89008200  0.90692300  1
  O  O6  1  0.00590600  0.79723500  0.11370700  1
  O  O7  1  0.70972400  0.59302300  0.28435300  1
  O  O8  1  0.90675300  0.61105300  0.39415700  1
  O  O9  1  0.20651400  0.72166400  0.40714400  1
  O  O10  1  0.59302300  0.70972400  0.78435300  1
  O  O11  1  0.29831100  0.99177000  0.61554500  1
  O  O12  1  0.27833600  0.79348600  0.09285600  1
  O  O13  1  0.91571900  0.79213600  0.69888100  1
  O  O14  1  0.71082700  0.61612200  0.00475500  1
  O  O15  1  0.00823000  0.70168900  0.88445500  1
  O  O16  1  0.61612200  0.71082700  0.50475500  1
  O  O17  1  0.49761300  0.89143900  0.70083700  1
  O  O18  1  0.89143900  0.49761300  0.20083700  1
  O  O19  1  0.40843000  0.62094700  0.37774200  1
  O  O20  1  0.10390800  0.49333100  0.30410800  1
  O  O21  1  0.19699500  0.60868000  0.99780600  1
  O  O22  1  0.62094700  0.40843100  0.87774200  1
  O  O23  1  0.39132000  0.80300500  0.50219400  1
  O  O24  1  0.60868000  0.19699500  0.49780600  1
  O  O25  1  0.37905300  0.59157000  0.12225800  1
  O  O26  1  0.80300500  0.39132000  0.00219400  1
  O  O27  1  0.89609300  0.50666900  0.69589200  1
  O  O28  1  0.59157000  0.37905300  0.62225800  1
  O  O29  1  0.10856100  0.50238700  0.79916300  1
  O  O30  1  0.50238700  0.10856100  0.29916300  1
  O  O31  1  0.38387800  0.28917300  0.49524500  1
  O  O32  1  0.99177000  0.29831100  0.11554500  1
  O  O33  1  0.28917300  0.38387800  0.99524500  1
  O  O34  1  0.08428100  0.20786400  0.30111900  1
  O  O35  1  0.72166400  0.20651400  0.90714400  1
  O  O36  1  0.70168900  0.00823000  0.38445500  1
  O  O37  1  0.40697700  0.29027600  0.21564700  1
  O  O38  1  0.79348600  0.27833600  0.59285600  1
  O  O39  1  0.09324700  0.38894700  0.60584300  1
  O  O40  1  0.29027600  0.40697700  0.71564700  1
  O  O41  1  0.99409400  0.20276500  0.88629300  1
  O  O42  1  0.10872200  0.10991800  0.09307700  1
  O  O43  1  0.38894700  0.09324700  0.10584300  1
  O  O44  1  0.20786400  0.08428100  0.80111900  1
  O  O45  1  0.79723500  0.00590600  0.61370700  1
  O  O46  1  0.10991800  0.10872200  0.59307700  1
  O  O47  1  0.49333100  0.10390800  0.80410800  1
loop_
_geom_bond_atom_site_label_1
_geom_bond_atom_site_label_2
_geom_bond_distance
_geom_bond_site_symmetry_2
Li0 O14 2.286658 1_555
Li0 O19 2.291724 1_555
Li0 O0 2.391926 1_555
Li0 O5 2.439904 1_554
Li0 O7 2.448795 1_555
Li0 O4 2.460045 1_554
Li0 O25 2.513731 1_555
Li0 O3 2.526192 1_555
Li1 O12 2.250335 1_555
Li1 O9 2.250335 1_555
Li1 O2 2.325197 1_555
Li1 O6 2.325197 1_555
Li1 O43 2.396087 1_565
Li1 O8 2.396087 1_455
Li2 O12 2.179217 1_556
Li2 O44 2.236603 1_565
Li2 O11 2.345845 1_555
Li2 O21 2.426510 1_555
Li2 O6 2.429739 1_556
Li2 O47 2.465347 1_565
Li2 O15 2.540740 1_555
Li2 O17 2.551761 1_555
Li3 O7 2.254594 1_555
Li3 O37 2.254594 1_555
Li3 O14 2.415463 1_555
Li3 O31 2.415463 1_555
Li3 O30 2.484787 1_555
Li3 O18 2.484787 1_555
Li3 O26 2.556573 1_555
Li3 O24 2.556573 1_555
Li4 O16 2.286658 1_555
Li4 O22 2.291720 1_555
Li4 O27 2.391926 1_555
Li4 O1 2.439904 1_555
Li4 O10 2.448795 1_555
Li4 O8 2.460045 1_555
Li4 O28 2.513731 1_555
Li4 O13 2.526192 1_555
Li5 O9 2.179217 1_555
Li5 O13 2.236603 1_455
Li5 O15 2.345845 1_555
Li5 O23 2.426510 1_555
Li5 O2 2.429739 1_555
Li5 O27 2.465342 1_455
Li5 O11 2.540740 1_555
Li5 O29 2.551761 1_555
Li6 O38 2.179217 1_555
Li6 O34 2.236603 1_655
Li6 O32 2.345845 1_555
Li6 O24 2.426510 1_555
Li6 O45 2.429739 1_555
Li6 O20 2.465347 1_655
Li6 O36 2.540740 1_555
Li6 O18 2.551761 1_555
Li7 O31 2.286658 1_555
Li7 O25 2.291724 1_555
Li7 O20 2.391916 1_555
Li7 O46 2.439904 1_555
Li7 O37 2.448795 1_555
Li7 O39 2.460045 1_555
Li7 O19 2.513731 1_555
Li7 O34 2.526192 1_555
Li8 O10 2.254594 1_555
Li8 O40 2.254594 1_555
Li8 O33 2.415463 1_555
Li8 O16 2.415463 1_555
Li8 O29 2.484787 1_555
Li8 O17 2.484787 1_555
Li8 O23 2.556573 1_555
Li8 O21 2.556573 1_555
Li9 O35 2.179217 1_554
Li9 O3 2.236603 1_545
Li9 O36 2.345845 1_555
Li9 O26 2.426510 1_555
Li9 O41 2.429739 1_554
Li9 O0 2.465342 1_545
Li9 O32 2.540740 1_555
Li9 O30 2.551761 1_555
Li10 O38 2.250335 1_555
Li10 O35 2.250335 1_555
Li10 O41 2.325197 1_555
Li10 O45 2.325197 1_555
Li10 O4 2.396087 1_545
Li10 O39 2.396087 1_655
Li11 O33 2.286658 1_555
Li11 O28 2.291724 1_555
Li11 O47 2.391916 1_555
Li11 O42 2.439904 1_556
Li11 O40 2.448795 1_555
Li11 O43 2.460045 1_556
Li11 O22 2.513734 1_555
Li11 O44 2.526192 1_555
Mn0 O0 1.949063 1_545
Mn0 O47 1.949066 1_554
Mn0 O4 1.990305 1_544
Mn0 O43 1.990305 1_555
Mn0 O35 2.180571 1_554
Mn0 O12 2.180571 1_545
Mn1 O22 2.118025 1_554
Mn1 O25 2.118034 1_555
Mn1 O37 2.124979 1_555
Mn1 O10 2.124979 1_554
Mn1 O33 2.138863 1_554
Mn1 O14 2.138863 1_555
Mn2 O27 1.949063 1_455
Mn2 O20 1.949066 1_555
Mn2 O8 1.990305 1_455
Mn2 O39 1.990305 1_555
Mn2 O38 2.180571 1_455
Mn2 O9 2.180571 1_555
Mn3 O19 2.118034 1_555
Mn3 O28 2.118034 1_555
Mn3 O7 2.124979 1_555
Mn3 O40 2.124979 1_555
Mn3 O16 2.138863 1_555
Mn3 O31 2.138863 1_555
O0 P4 1.579217 1_555
O1 P0 1.561697 1_555
O1 V1 1.995983 1_665
O2 P10 1.555764 1_565
O2 V1 2.059968 1_565
O3 P0 1.561379 1_555
O3 V0 2.046975 1_665
O4 P1 1.567984 1_555
O5 P3 1.561697 1_555
O5 V0 1.995983 1_666
O6 P2 1.555764 1_455
O6 V0 2.059968 1_565
O7 P2 1.531711 1_555
O8 P2 1.567984 1_555
O9 P4 1.544365 1_555
O10 P1 1.531711 1_555
O11 P11 1.590974 1_565
O11 V2 1.979442 1_565
O12 P5 1.544365 1_555
O13 P3 1.561379 1_555
O13 V1 2.046975 1_665
O14 P3 1.532745 1_554
O15 P3 1.590974 1_455
O15 V3 1.979442 1_556
O16 P0 1.532745 1_555
O17 P1 1.588581 1_555
O17 V2 1.952578 1_565
O18 P2 1.588581 1_555
O18 V3 1.952578 1_655
O19 P4 1.529332 1_555
O20 P5 1.579214 1_555
O21 P5 1.591121 1_556
O21 V3 1.963640 1_556
O22 P6 1.529338 1_555
O23 P4 1.591121 1_555
O23 V2 1.963640 1_565
O24 P8 1.591121 1_555
O24 V2 1.963640 1_555
O25 P5 1.529332 1_555
O26 P6 1.591121 1_554
O26 V3 1.963640 1_655
O27 P6 1.579217 1_555
O28 P8 1.529332 1_555
O29 P9 1.588581 1_555
O29 V3 1.952578 1_556
O30 P10 1.588581 1_555
O30 V2 1.952578 1_555
O31 P11 1.532745 1_555
O32 P7 1.590974 1_655
O32 V3 1.979442 1_655
O33 P7 1.532745 1_556
O34 P7 1.561379 1_555
O34 V1 2.046975 1_555
O35 P6 1.544365 1_555
O36 P0 1.590974 1_545
O36 V2 1.979442 1_555
O37 P10 1.531711 1_555
O38 P8 1.544365 1_555
O39 P9 1.567984 1_555
O40 P9 1.531711 1_555
O41 P9 1.555764 1_655
O41 V0 2.059968 1_656
O42 P7 1.561697 1_555
O42 V0 1.995983 1_555
O43 P10 1.567984 1_555
O44 P11 1.561379 1_555
O44 V0 2.046975 1_556
O45 P1 1.555764 1_545
O45 V1 2.059968 1_655
O46 P11 1.561697 1_555
O46 V1 1.995983 1_555
O47 P8 1.579214 1_555
