# generated using pymatgen
data_Li4Mn2Nb3Co3O16
_symmetry_space_group_name_H-M   'P 1'
_cell_length_a   5.97626721
_cell_length_b   5.97626721
_cell_length_c   9.84991410
_cell_angle_alpha   88.31668221
_cell_angle_beta   88.31668221
_cell_angle_gamma   60.47132598
_symmetry_Int_Tables_number   1
_chemical_formula_structural   Li4Mn2Nb3Co3O16
_chemical_formula_sum   'Li4 Mn2 Nb3 Co3 O16'
_cell_volume   305.92503412
_cell_formula_units_Z   1
loop_
 _symmetry_equiv_pos_site_id
 _symmetry_equiv_pos_as_xyz
  1  'x, y, z'
loop_
 _atom_site_type_symbol
 _atom_site_label
 _atom_site_symmetry_multiplicity
 _atom_site_fract_x
 _atom_site_fract_y
 _atom_site_fract_z
 _atom_site_occupancy
  Li  Li0  1  0.33943000  0.33943000  0.09802400  1
  Li  Li1  1  0.98112500  0.98112500  0.99821800  1
  Li  Li2  1  0.96724300  0.96724300  0.51142500  1
  Li  Li3  1  0.67148800  0.67148800  0.62056900  1
  Mn  Mn0  1  0.34854300  0.34854300  0.52246300  1
  Mn  Mn1  1  0.66930400  0.66930400  0.99074700  1
  Nb  Nb0  1  0.17471100  0.17471100  0.79133500  1
  Nb  Nb1  1  0.83761100  0.34041500  0.28775500  1
  Nb  Nb2  1  0.34041500  0.83761100  0.28775500  1
  Co  Co0  1  0.66723900  0.17064100  0.78091500  1
  Co  Co1  1  0.17064100  0.66723900  0.78091500  1
  Co  Co2  1  0.82733900  0.82733900  0.28713000  1
  O  O0  1  0.66597000  0.16890700  0.40159100  1
  O  O1  1  0.49027500  0.49027500  0.67770800  1
  O  O2  1  0.33781200  0.33781200  0.89260400  1
  O  O3  1  0.00232600  0.00232600  0.68734500  1
  O  O4  1  0.00607500  0.00607500  0.18434600  1
  O  O5  1  0.16890700  0.66597000  0.40159100  1
  O  O6  1  0.48939700  0.05127800  0.65725700  1
  O  O7  1  0.05127800  0.48939700  0.65725700  1
  O  O8  1  0.84227400  0.84227400  0.88084900  1
  O  O9  1  0.15457600  0.15457600  0.40168400  1
  O  O10  1  0.97366800  0.50314600  0.16441700  1
  O  O11  1  0.50314600  0.97366800  0.16441700  1
  O  O12  1  0.65183700  0.65183700  0.40722700  1
  O  O13  1  0.84360900  0.30964300  0.89123900  1
  O  O14  1  0.51479700  0.51479700  0.17429200  1
  O  O15  1  0.30964300  0.84360900  0.89123900  1
loop_
_geom_bond_atom_site_label_1
_geom_bond_atom_site_label_2
_geom_bond_distance
_geom_bond_site_symmetry_2
Li0 O14 1.984021 1_555
Li0 O11 2.002132 1_545
Li0 O10 2.002132 1_455
Li0 O2 2.024006 1_554
Li1 O4 1.860015 1_666
Li1 O8 1.872205 1_555
Li1 O13 1.994798 1_565
Li1 O15 1.994798 1_655
Li2 O3 1.782281 1_665
Li2 O0 1.939988 1_565
Li2 O5 1.939988 1_655
Li2 O9 2.183695 1_665
Li3 O1 1.935694 1_555
Li3 O6 2.014167 1_565
Li3 O7 2.014167 1_655
Li3 O12 2.118032 1_555
Mn0 O7 2.020018 1_555
Mn0 O6 2.020018 1_555
Mn0 O5 2.025744 1_555
Mn0 O0 2.025744 1_555
Mn0 O1 2.152351 1_555
Mn0 O9 2.364185 1_555
Mn1 O8 2.056875 1_555
Mn1 O13 2.126635 1_555
Mn1 O15 2.126635 1_555
Mn1 O11 2.350216 1_556
Mn1 O10 2.350216 1_556
Mn1 O14 2.370242 1_556
Nb0 O13 1.973181 1_455
Nb0 O15 1.973181 1_545
Nb0 O2 1.986452 1_555
Nb0 O3 2.083761 1_555
Nb0 O6 2.090206 1_555
Nb0 O7 2.090206 1_555
Nb1 O10 1.932587 1_555
Nb1 O9 2.014681 1_655
Nb1 O12 2.023962 1_555
Nb1 O4 2.029757 1_655
Nb1 O14 2.033083 1_555
Nb1 O0 2.064299 1_555
Nb2 O11 1.932587 1_555
Nb2 O9 2.014681 1_565
Nb2 O12 2.023962 1_555
Nb2 O4 2.029757 1_565
Nb2 O14 2.033083 1_555
Nb2 O5 2.064299 1_555
Co0 O1 1.938702 1_555
Co0 O3 1.957546 1_655
Co0 O8 1.959016 1_545
Co0 O13 1.991324 1_555
Co0 O6 1.999121 1_555
Co0 O2 2.020613 1_555
Co1 O1 1.938702 1_555
Co1 O3 1.957546 1_565
Co1 O8 1.959016 1_455
Co1 O15 1.991324 1_555
Co1 O7 1.999121 1_555
Co1 O2 2.020613 1_555
Co2 O4 2.074754 1_665
Co2 O10 2.094009 1_555
Co2 O11 2.094009 1_555
Co2 O5 2.121061 1_655
Co2 O0 2.121061 1_565
Co2 O12 2.130282 1_555
