# generated using pymatgen
data_Na2LiMnPCO7
_symmetry_space_group_name_H-M   'P 1'
_cell_length_a   5.17723258
_cell_length_b   8.90182768
_cell_length_c   6.80434075
_cell_angle_alpha   92.40644113
_cell_angle_beta   89.86998845
_cell_angle_gamma   88.43871410
_symmetry_Int_Tables_number   1
_chemical_formula_structural   Na2LiMnPCO7
_chemical_formula_sum   'Na4 Li2 Mn2 P2 C2 O14'
_cell_volume   313.19581504
_cell_formula_units_Z   2
loop_
 _symmetry_equiv_pos_site_id
 _symmetry_equiv_pos_as_xyz
  1  'x, y, z'
loop_
 _atom_site_type_symbol
 _atom_site_label
 _atom_site_symmetry_multiplicity
 _atom_site_fract_x
 _atom_site_fract_y
 _atom_site_fract_z
 _atom_site_occupancy
  Na  Na0  1  0.75620200  0.08697200  0.27053600  1
  Na  Na1  1  0.25457800  0.24481000  0.98450300  1
  Na  Na2  1  0.74641500  0.74639100  0.51075100  1
  Na  Na3  1  0.74985500  0.74774500  0.00064000  1
  Li  Li0  1  0.22746700  0.29057400  0.45155200  1
  Li  Li1  1  0.23516500  0.89526000  0.73635100  1
  Mn  Mn0  1  0.22622100  0.64428500  0.25445500  1
  Mn  Mn1  1  0.78557000  0.36113400  0.74134200  1
  P  P0  1  0.72225100  0.41411400  0.24820700  1
  P  P1  1  0.29474500  0.58671000  0.74826800  1
  C  C0  1  0.71635100  0.04546800  0.75209800  1
  C  C1  1  0.26750600  0.94924000  0.26495200  1
  O  O0  1  0.28875800  0.09431500  0.26667700  1
  O  O1  1  0.96531900  0.06015500  0.75875200  1
  O  O2  1  0.56261400  0.16245600  0.73261800  1
  O  O3  1  0.79862900  0.32149700  0.05765300  1
  O  O4  1  0.83589100  0.32594500  0.42301100  1
  O  O5  1  0.41959200  0.42560200  0.26670600  1
  O  O6  1  0.18461000  0.42554500  0.72852900  1
  O  O7  1  0.82611400  0.57579600  0.24913800  1
  O  O8  1  0.59554400  0.57140900  0.74658200  1
  O  O9  1  0.20714200  0.68764000  0.57642800  1
  O  O10  1  0.20402800  0.67432100  0.93942800  1
  O  O11  1  0.47312700  0.86062000  0.26236800  1
  O  O12  1  0.04227900  0.88769100  0.26495700  1
  O  O13  1  0.61402500  0.91431000  0.76349700  1
loop_
_geom_bond_atom_site_label_1
_geom_bond_atom_site_label_2
_geom_bond_distance
_geom_bond_site_symmetry_2
Na0 O12 2.278800 1_645
Na0 O4 2.374115 1_555
Na0 O0 2.419400 1_555
Na0 O11 2.522460 1_545
Na0 O3 2.604318 1_555
Na0 O0 2.759812 1_655
Na1 O0 2.391049 1_556
Na1 O2 2.415907 1_555
Na1 O6 2.441260 1_555
Na1 O3 2.482800 1_456
Na1 O5 2.613427 1_556
Na1 O1 2.690124 1_455
Na2 O7 2.319635 1_555
Na2 O13 2.320502 1_555
Na2 O8 2.425264 1_555
Na2 O11 2.443154 1_555
Na2 O9 2.473727 1_655
Na2 O12 2.644915 1_655
Na2 O9 2.891660 1_555
Na3 O13 2.333662 1_554
Na3 O7 2.354838 1_555
Na3 O8 2.436672 1_554
Na3 O11 2.448155 1_555
Na3 O10 2.453267 1_654
Na3 O12 2.646807 1_655
Li0 O5 2.050013 1_555
Li0 O4 2.053986 1_455
Li0 O0 2.125745 1_555
Li0 O6 2.199572 1_555
Li1 O13 1.981738 1_555
Li1 O1 1.999532 1_465
Li1 O9 2.113631 1_555
Li1 O10 2.459269 1_555
Mn0 O5 2.169462 1_555
Mn0 O10 2.174184 1_554
Mn0 O7 2.175136 1_455
Mn0 O9 2.210047 1_555
Mn0 O11 2.339079 1_555
Mn0 O12 2.341173 1_555
Mn1 O8 2.089687 1_555
Mn1 O2 2.136960 1_555
Mn1 O6 2.161557 1_655
Mn1 O4 2.189454 1_555
Mn1 O3 2.196485 1_556
C0 O1 1.299817 1_555
C0 O13 1.300367 1_545
C0 O2 1.304802 1_555
C1 O0 1.298660 1_565
C1 O12 1.301801 1_555
C1 O11 1.307245 1_555
O3 P0 1.551578 1_555
O4 P0 1.559904 1_555
O5 P0 1.571904 1_555
O6 P1 1.558898 1_555
O7 P0 1.549869 1_555
O8 P1 1.559524 1_555
O9 P1 1.564774 1_555
O10 P1 1.553310 1_555
