# generated using pymatgen
data_La16Mn15O48
_symmetry_space_group_name_H-M   'P 1'
_cell_length_a   5.53584700
_cell_length_b   12.42081819
_cell_length_c   14.82537388
_cell_angle_alpha   85.54980325
_cell_angle_beta   79.59944920
_cell_angle_gamma   78.31870168
_symmetry_Int_Tables_number   1
_chemical_formula_structural   La16Mn15O48
_chemical_formula_sum   'La16 Mn15 O48'
_cell_volume   980.98269648
_cell_formula_units_Z   1
loop_
 _symmetry_equiv_pos_site_id
 _symmetry_equiv_pos_as_xyz
  1  'x, y, z'
loop_
 _atom_site_type_symbol
 _atom_site_label
 _atom_site_symmetry_multiplicity
 _atom_site_fract_x
 _atom_site_fract_y
 _atom_site_fract_z
 _atom_site_occupancy
  La  La0  1  0.40245600  0.14253300  0.02977000  1
  La  La1  1  0.84660500  0.08934500  0.20645900  1
  La  La2  1  0.28079000  0.03148300  0.40529900  1
  La  La3  1  0.65691100  0.40464100  0.28098700  1
  La  La4  1  0.21953600  0.46778800  0.09315000  1
  La  La5  1  0.96353300  0.20815300  0.85416400  1
  La  La6  1  0.52936700  0.28196400  0.65795200  1
  La  La7  1  0.90692200  0.65631900  0.53133700  1
  La  La8  1  0.03646700  0.79184700  0.14583600  1
  La  La9  1  0.47063300  0.71803600  0.34204800  1
  La  La10  1  0.09307800  0.34368100  0.46866300  1
  La  La11  1  0.78046400  0.53221200  0.90685000  1
  La  La12  1  0.34308900  0.59535900  0.71901300  1
  La  La13  1  0.71921000  0.96851700  0.59470100  1
  La  La14  1  0.59754400  0.85746700  0.97023000  1
  La  La15  1  0.15339500  0.91065500  0.79354100  1
  Mn  Mn0  1  0.81166400  0.31286200  0.06252000  1
  Mn  Mn1  1  0.68874900  0.18653700  0.43641300  1
  Mn  Mn2  1  0.24984600  0.24977000  0.24961800  1
  Mn  Mn3  1  0.62398500  0.62523600  0.12485800  1
  Mn  Mn4  1  0.56341800  0.06307700  0.81067600  1
  Mn  Mn5  1  0.93785000  0.43612600  0.68871600  1
  Mn  Mn6  1  0.43658200  0.93692300  0.18932400  1
  Mn  Mn7  1  0.12614800  0.12375800  0.62525100  1
  Mn  Mn8  1  0.87385200  0.87624200  0.37474900  1
  Mn  Mn9  1  0.50000000  0.50000000  0.50000000  1
  Mn  Mn10  1  0.06215000  0.56387400  0.31128400  1
  Mn  Mn11  1  0.31125100  0.81346300  0.56358700  1
  Mn  Mn12  1  0.37601500  0.37476400  0.87514200  1
  Mn  Mn13  1  0.75015400  0.75023000  0.75038200  1
  Mn  Mn14  1  0.18833600  0.68713800  0.93748000  1
  O  O0  1  0.90064700  0.17337300  0.01322900  1
  O  O1  1  0.79070700  0.03952800  0.37846600  1
  O  O2  1  0.57158400  0.25842900  0.16543400  1
  O  O3  1  0.94803900  0.62889300  0.03868300  1
  O  O4  1  0.71371600  0.45716800  0.11950400  1
  O  O5  1  0.92774200  0.24591700  0.33697900  1
  O  O6  1  0.33524700  0.08535600  0.24489300  1
  O  O7  1  0.95544600  0.13891400  0.51358600  1
  O  O8  1  0.45499200  0.63541600  0.01572800  1
  O  O9  1  0.08378400  0.26285100  0.13906900  1
  O  O10  1  0.41671500  0.23646700  0.36135500  1
  O  O11  1  0.79034900  0.60770300  0.23567100  1
  O  O12  1  0.44901000  0.13065700  0.53870100  1
  O  O13  1  0.82337600  0.50626500  0.41469900  1
  O  O14  1  0.53819000  0.79020600  0.13258400  1
  O  O15  1  0.16551200  0.41409300  0.25614100  1
  O  O16  1  0.95848800  0.71133800  0.36994900  1
  O  O17  1  0.79319700  0.11873800  0.70838500  1
  O  O18  1  0.58475300  0.33567500  0.49479700  1
  O  O19  1  0.29904200  0.62106700  0.20960400  1
  O  O20  1  0.66439600  0.98979200  0.09428000  1
  O  O21  1  0.81427700  0.02251000  0.88409100  1
  O  O22  1  0.33217000  0.51418700  0.38941300  1
  O  O23  1  0.70750800  0.88969800  0.26241400  1
  O  O24  1  0.29249200  0.11030200  0.73758600  1
  O  O25  1  0.66783000  0.48581300  0.61058700  1
  O  O26  1  0.18572300  0.97749000  0.11590900  1
  O  O27  1  0.04151200  0.28866200  0.63005100  1
  O  O28  1  0.70095800  0.37893300  0.79039600  1
  O  O29  1  0.33560400  0.01020800  0.90572000  1
  O  O30  1  0.41524700  0.66432500  0.50520300  1
  O  O31  1  0.20680300  0.88126200  0.29161500  1
  O  O32  1  0.46181000  0.20979400  0.86741600  1
  O  O33  1  0.83448800  0.58590700  0.74385900  1
  O  O34  1  0.17662400  0.49373500  0.58530100  1
  O  O35  1  0.55099000  0.86934300  0.46129900  1
  O  O36  1  0.58328500  0.76353300  0.63864500  1
  O  O37  1  0.20965100  0.39229700  0.76432900  1
  O  O38  1  0.54500800  0.36458400  0.98427200  1
  O  O39  1  0.04455400  0.86108600  0.48641400  1
  O  O40  1  0.91621600  0.73714900  0.86093100  1
  O  O41  1  0.66475300  0.91464400  0.75510700  1
  O  O42  1  0.28628400  0.54283200  0.88049600  1
  O  O43  1  0.07225800  0.75408300  0.66302100  1
  O  O44  1  0.20929300  0.96047200  0.62153400  1
  O  O45  1  0.05196100  0.37110700  0.96131700  1
  O  O46  1  0.42841600  0.74157100  0.83456600  1
  O  O47  1  0.09935300  0.82662700  0.98677100  1
loop_
_geom_bond_atom_site_label_1
_geom_bond_atom_site_label_2
_geom_bond_distance
_geom_bond_site_symmetry_2
La0 O20 2.392020 1_545
La0 O32 2.472432 1_554
La0 O9 2.499461 1_555
La0 O29 2.679869 1_554
La0 O26 2.703558 1_545
La0 O0 2.779262 1_455
La0 O0 2.825236 1_555
La0 O2 2.944316 1_555
La0 O38 3.014143 1_554
La0 O21 3.070829 1_554
La0 O6 3.184551 1_555
La0 O45 3.299722 1_554
La1 O26 2.362205 1_645
La1 O2 2.437187 1_555
La1 O1 2.555236 1_555
La1 O20 2.596577 1_545
La1 O23 2.766540 1_545
La1 O9 2.775706 1_655
La1 O6 2.794742 1_555
La1 O6 2.853465 1_655
La1 O0 2.956073 1_555
La1 O5 2.996592 1_555
La2 O6 2.402040 1_555
La2 O7 2.432481 1_455
La2 O35 2.439583 1_545
La2 O31 2.745276 1_545
La2 O39 2.791747 1_545
La2 O1 2.793290 1_455
La2 O12 2.793489 1_555
La2 O10 2.795438 1_555
La2 O1 2.799852 1_555
La3 O5 2.412909 1_555
La3 O4 2.413478 1_555
La3 O22 2.443896 1_555
La3 O2 2.752880 1_555
La3 O11 2.769620 1_555
La3 O10 2.778040 1_555
La3 O15 2.788424 1_555
La3 O15 2.798107 1_655
La3 O13 2.809095 1_555
La4 O38 2.414713 1_554
La4 O3 2.425853 1_455
La4 O15 2.437826 1_555
La4 O8 2.745795 1_555
La4 O45 2.755459 1_554
La4 O4 2.785213 1_455
La4 O9 2.797977 1_555
La4 O4 2.808190 1_555
La4 O19 2.814753 1_555
La5 O0 2.339937 1_556
La5 O24 2.464522 1_655
La5 O28 2.538234 1_555
La5 O21 2.583952 1_555
La5 O32 2.744811 1_555
La5 O32 2.804774 1_655
La5 O45 2.835640 1_655
La6 O17 2.400524 1_555
La6 O37 2.417271 1_555
La6 O18 2.440178 1_555
La6 O28 2.777076 1_555
La6 O27 2.789045 1_555
La6 O25 2.794127 1_555
La6 O24 2.800378 1_555
La6 O27 2.807646 1_655
La6 O12 2.827294 1_555
La7 O36 2.418200 1_555
La7 O16 2.419062 1_555
La7 O34 2.430417 1_655
La7 O43 2.754399 1_655
La7 O30 2.791475 1_655
La7 O25 2.793727 1_555
La7 O13 2.795661 1_555
La7 O39 2.798469 1_655
La7 O30 2.798854 1_555
La8 O47 2.339937 1_554
La8 O23 2.464522 1_455
La8 O19 2.538234 1_555
La8 O26 2.583952 1_555
La8 O14 2.744811 1_555
La8 O14 2.804774 1_455
La8 O3 2.835640 1_455
La9 O31 2.400524 1_555
La9 O11 2.417271 1_555
La9 O30 2.440178 1_555
La9 O19 2.777076 1_555
La9 O16 2.789045 1_555
La9 O22 2.794127 1_555
La9 O23 2.800378 1_555
La9 O16 2.807646 1_455
La9 O35 2.827294 1_555
La10 O10 2.418200 1_555
La10 O27 2.419062 1_555
La10 O13 2.430417 1_455
La10 O5 2.754399 1_455
La10 O18 2.791475 1_455
La10 O22 2.793727 1_555
La10 O34 2.795661 1_555
La10 O7 2.798469 1_455
La10 O18 2.798854 1_555
La11 O8 2.414713 1_556
La11 O45 2.425853 1_655
La11 O33 2.437826 1_555
La11 O38 2.745795 1_555
La11 O3 2.755459 1_556
La11 O42 2.785213 1_655
La11 O40 2.797977 1_555
La11 O42 2.808190 1_555
La11 O28 2.814753 1_555
La12 O43 2.412909 1_555
La12 O42 2.413478 1_555
La12 O25 2.443896 1_555
La12 O46 2.752880 1_555
La12 O37 2.769620 1_555
La12 O36 2.778040 1_555
La12 O33 2.788424 1_555
La12 O33 2.798107 1_455
La12 O34 2.809095 1_555
La13 O41 2.402040 1_555
La13 O39 2.432481 1_655
La13 O12 2.439583 1_565
La13 O17 2.745276 1_565
La13 O7 2.791747 1_565
La13 O44 2.793290 1_655
La13 O35 2.793489 1_555
La13 O36 2.795438 1_555
La13 O44 2.799852 1_555
La14 O29 2.392020 1_565
La14 O14 2.472432 1_556
La14 O40 2.499461 1_555
La14 O20 2.679869 1_556
La14 O21 2.703558 1_565
La14 O47 2.779262 1_655
La14 O47 2.825236 1_555
La14 O46 2.944316 1_555
La14 O8 3.014143 1_556
La14 O26 3.070829 1_556
La14 O41 3.184551 1_555
La14 O3 3.299722 1_556
La15 O21 2.362205 1_465
La15 O46 2.437187 1_555
La15 O44 2.555236 1_555
La15 O29 2.596577 1_565
La15 O24 2.766540 1_565
La15 O40 2.775706 1_455
La15 O41 2.794742 1_555
La15 O41 2.853465 1_455
La15 O47 2.956073 1_555
La15 O43 2.996592 1_555
Mn0 O0 1.870658 1_555
Mn0 O4 1.973942 1_555
Mn0 O2 2.005740 1_555
Mn0 O45 2.011140 1_654
Mn0 O38 2.013985 1_554
Mn0 O9 2.017922 1_655
Mn1 O5 1.997427 1_555
Mn1 O7 1.997465 1_555
Mn1 O10 2.002615 1_555
Mn1 O12 2.006426 1_555
Mn1 O1 2.010424 1_555
Mn1 O18 2.036945 1_555
Mn2 O2 1.998912 1_555
Mn2 O9 1.999944 1_555
Mn2 O6 2.004522 1_555
Mn2 O15 2.005387 1_555
Mn2 O5 2.012546 1_455
Mn2 O10 2.018166 1_555
Mn3 O8 1.993891 1_555
Mn3 O11 2.001021 1_555
Mn3 O19 2.007144 1_555
Mn3 O3 2.012185 1_555
Mn3 O14 2.014957 1_555
Mn3 O4 2.049989 1_555
Mn4 O21 1.882638 1_555
Mn4 O29 1.886085 1_555
Mn4 O17 1.972994 1_555
Mn4 O24 1.974727 1_555
Mn4 O32 1.999228 1_555
Mn4 O41 2.010599 1_545
Mn5 O28 1.998522 1_555
Mn5 O37 1.999888 1_655
Mn5 O27 2.020389 1_655
Mn5 O34 2.022586 1_655
Mn5 O33 2.023093 1_555
Mn5 O25 2.024242 1_555
Mn6 O26 1.882638 1_555
Mn6 O20 1.886085 1_555
Mn6 O31 1.972994 1_555
Mn6 O23 1.974727 1_555
Mn6 O14 1.999228 1_555
Mn6 O6 2.010599 1_565
Mn7 O44 1.989583 1_545
Mn7 O27 2.010438 1_555
Mn7 O12 2.016232 1_555
Mn7 O24 2.024276 1_555
Mn7 O7 2.028167 1_455
Mn7 O17 2.033369 1_455
Mn8 O1 1.989583 1_565
Mn8 O16 2.010438 1_555
Mn8 O35 2.016232 1_555
Mn8 O23 2.024276 1_555
Mn8 O39 2.028167 1_655
Mn8 O31 2.033369 1_655
Mn9 O30 2.003886 1_555
Mn9 O18 2.003886 1_555
Mn9 O25 2.005249 1_555
Mn9 O22 2.005249 1_555
Mn9 O34 2.008418 1_555
Mn9 O13 2.008418 1_555
Mn10 O19 1.998522 1_555
Mn10 O11 1.999888 1_455
Mn10 O16 2.020389 1_455
Mn10 O13 2.022586 1_455
Mn10 O15 2.023093 1_555
Mn10 O22 2.024242 1_555
Mn11 O43 1.997427 1_555
Mn11 O39 1.997465 1_555
Mn11 O36 2.002615 1_555
Mn11 O35 2.006426 1_555
Mn11 O44 2.010424 1_555
Mn11 O30 2.036945 1_555
Mn12 O38 1.993891 1_555
Mn12 O37 2.001021 1_555
Mn12 O28 2.007144 1_555
Mn12 O45 2.012185 1_555
Mn12 O32 2.014957 1_555
Mn12 O42 2.049989 1_555
Mn13 O46 1.998912 1_555
Mn13 O40 1.999944 1_555
Mn13 O41 2.004522 1_555
Mn13 O33 2.005387 1_555
Mn13 O43 2.012546 1_655
Mn13 O36 2.018166 1_555
Mn14 O47 1.870658 1_555
Mn14 O42 1.973942 1_555
Mn14 O46 2.005740 1_555
Mn14 O3 2.011140 1_456
Mn14 O8 2.013985 1_556
Mn14 O40 2.017922 1_455
