# generated using pymatgen
data_LiMn2F9
_symmetry_space_group_name_H-M   'P 1'
_cell_length_a   5.37359300
_cell_length_b   5.47568242
_cell_length_c   13.78874308
_cell_angle_alpha   91.56767520
_cell_angle_beta   90.44927937
_cell_angle_gamma   118.92243838
_symmetry_Int_Tables_number   1
_chemical_formula_structural   LiMn2F9
_chemical_formula_sum   'Li2 Mn4 F18'
_cell_volume   354.88181784
_cell_formula_units_Z   2
loop_
 _symmetry_equiv_pos_site_id
 _symmetry_equiv_pos_as_xyz
  1  'x, y, z'
loop_
 _atom_site_type_symbol
 _atom_site_label
 _atom_site_symmetry_multiplicity
 _atom_site_fract_x
 _atom_site_fract_y
 _atom_site_fract_z
 _atom_site_occupancy
  Li  Li0  1  0.97590300  0.29495400  0.53861900  1
  Li  Li1  1  0.18713900  0.68883400  0.03603700  1
  Mn  Mn0  1  0.84755000  0.02711300  0.15852900  1
  Mn  Mn1  1  0.66440100  0.01843600  0.34310200  1
  Mn  Mn2  1  0.31763200  0.97390000  0.66000900  1
  Mn  Mn3  1  0.14925000  0.98174500  0.84571900  1
  F  F0  1  0.92861100  0.12508400  0.87339500  1
  F  F1  1  0.77223800  0.31711600  0.42330100  1
  F  F2  1  0.68871500  0.13701400  0.63387400  1
  F  F3  1  0.62887400  0.18216100  0.21843700  1
  F  F4  1  0.94889800  0.81482100  0.71774600  1
  F  F5  1  0.75538900  0.84989700  0.43262500  1
  F  F6  1  0.61041900  0.73627400  0.24374500  1
  F  F7  1  0.59724900  0.84929100  0.06060600  1
  F  F8  1  0.40426000  0.16258200  0.93876600  1
  F  F9  1  0.36906800  0.26436200  0.75293400  1
  F  F10  1  0.23514700  0.14879200  0.56768700  1
  F  F11  1  0.04322700  0.17880700  0.28124100  1
  F  F12  1  0.37243300  0.82569600  0.77862200  1
  F  F13  1  0.06242500  0.32962500  0.09097700  1
  F  F14  1  0.30254500  0.86560600  0.36842500  1
  F  F15  1  0.23213500  0.67137100  0.58479100  1
  F  F16  1  0.06168900  0.86633300  0.13137500  1
  F  F17  1  0.97262700  0.68235800  0.91904800  1
loop_
_geom_bond_atom_site_label_1
_geom_bond_atom_site_label_2
_geom_bond_distance
_geom_bond_site_symmetry_2
F0 Mn3 1.748764 1_645
F1 Mn1 1.791027 1_555
F1 Li0 1.962799 1_555
F2 Mn2 1.791657 1_545
F2 Li0 1.912499 1_555
F3 Mn0 1.930226 1_555
F3 Mn1 2.009915 1_555
F4 Mn2 1.926621 1_655
F4 Mn3 2.009585 1_655
F5 Mn1 1.761764 1_565
F6 Mn0 1.924475 1_565
F6 Mn1 1.947469 1_565
F7 Mn0 1.792519 1_565
F7 Li1 1.960221 1_555
F8 Mn3 1.759213 1_545
F9 Mn2 1.924975 1_545
F9 Mn3 1.947014 1_545
F10 Mn2 1.789560 1_545
F10 Li0 1.956795 1_455
F11 Mn0 1.925874 1_455
F11 Mn1 1.995439 1_455
F12 Mn2 1.927806 1_555
F12 Mn3 1.997436 1_555
F13 Mn0 1.787731 1_455
F13 Li1 1.925166 1_555
F14 Mn1 1.748111 1_565
F15 Mn2 1.786988 1_555
F15 Li0 1.928440 1_455
F16 Mn0 1.791076 1_465
F16 Li1 1.924825 1_555
F17 Mn3 1.792038 1_655
F17 Li1 1.964775 1_656
