# generated using pymatgen
data_LiLa4CoO8
_symmetry_space_group_name_H-M   'P 1'
_cell_length_a   5.34394512
_cell_length_b   25.90907207
_cell_length_c   5.34394511
_cell_angle_alpha   89.96840157
_cell_angle_beta   90.03564297
_cell_angle_gamma   89.96728348
_symmetry_Int_Tables_number   1
_chemical_formula_structural   LiLa4CoO8
_chemical_formula_sum   'Li4 La16 Co4 O32'
_cell_volume   739.90441093
_cell_formula_units_Z   4
loop_
 _symmetry_equiv_pos_site_id
 _symmetry_equiv_pos_as_xyz
  1  'x, y, z'
loop_
 _atom_site_type_symbol
 _atom_site_label
 _atom_site_symmetry_multiplicity
 _atom_site_fract_x
 _atom_site_fract_y
 _atom_site_fract_z
 _atom_site_occupancy
  Li  Li0  1  0.00000600  0.99991600  0.99998600  1
  Li  Li1  1  0.50000300  0.50005300  0.49999200  1
  Li  Li2  1  0.99998000  0.25001800  0.50000300  1
  Li  Li3  1  0.49999100  0.74996700  0.99999600  1
  La  La0  1  0.49975400  0.18162300  0.50046200  1
  La  La1  1  0.99980400  0.68157000  0.00057800  1
  La  La2  1  0.49989500  0.06845700  0.00160000  1
  La  La3  1  0.99984200  0.56847600  0.50084500  1
  La  La4  1  0.50062900  0.43154600  0.99986400  1
  La  La5  1  0.00012100  0.93165400  0.49973100  1
  La  La6  1  0.00148100  0.31847100  0.99990200  1
  La  La7  1  0.50103600  0.81844500  0.49982400  1
  La  La8  1  0.50023200  0.31932300  0.49965900  1
  La  La9  1  0.00017000  0.81935400  0.99951300  1
  La  La10  1  0.00006700  0.43063000  0.49921000  1
  La  La11  1  0.49999100  0.93061700  0.99847700  1
  La  La12  1  0.99996000  0.06928600  0.50029400  1
  La  La13  1  0.49950100  0.56936400  0.00012800  1
  La  La14  1  0.99859700  0.18061600  0.00003400  1
  La  La15  1  0.49902500  0.68063100  0.50007700  1
  Co  Co0  1  0.99999700  0.50000000  0.99997100  1
  Co  Co1  1  0.99997900  0.75000200  0.49998800  1
  Co  Co2  1  0.50000700  0.99996800  0.49997000  1
  Co  Co3  1  0.49995300  0.24999400  0.00000500  1
  O  O0  1  0.50005300  0.40958800  0.50005900  1
  O  O1  1  0.00004800  0.90962400  0.00007900  1
  O  O2  1  0.00007500  0.15958300  0.50007500  1
  O  O3  1  0.50006900  0.65961300  0.00001400  1
  O  O4  1  0.99998000  0.34039200  0.50002200  1
  O  O5  1  0.49996000  0.84036500  0.00005600  1
  O  O6  1  0.00002600  0.09035600  0.99997700  1
  O  O7  1  0.50004800  0.59038200  0.49999300  1
  O  O8  1  0.49998200  0.08984900  0.49940100  1
  O  O9  1  0.00015500  0.59003400  0.99973700  1
  O  O10  1  0.50054900  0.16015400  0.99976500  1
  O  O11  1  0.00033500  0.66001600  0.49979000  1
  O  O12  1  0.49943700  0.33988000  0.00019200  1
  O  O13  1  0.99963200  0.84000900  0.50013600  1
  O  O14  1  0.99977100  0.41000700  0.00024900  1
  O  O15  1  0.49995000  0.91016600  0.50056700  1
  O  O16  1  0.25498900  0.25001000  0.24475600  1
  O  O17  1  0.75511900  0.75003200  0.74471300  1
  O  O18  1  0.25539800  0.99998400  0.25502100  1
  O  O19  1  0.75537500  0.50001000  0.75539400  1
  O  O20  1  0.74454300  0.99998300  0.25503500  1
  O  O21  1  0.24475800  0.50002700  0.75528500  1
  O  O22  1  0.25531000  0.25002400  0.75543800  1
  O  O23  1  0.75533500  0.75001600  0.25547600  1
  O  O24  1  0.25554400  0.99998700  0.74492000  1
  O  O25  1  0.75527800  0.49997200  0.24473800  1
  O  O26  1  0.74465800  0.24999700  0.24442900  1
  O  O27  1  0.24461800  0.74999200  0.74441900  1
  O  O28  1  0.74449800  0.99998600  0.74493100  1
  O  O29  1  0.24457200  0.49999000  0.24454200  1
  O  O30  1  0.74503200  0.25001400  0.75534400  1
  O  O31  1  0.24488600  0.74997900  0.25534400  1
loop_
_geom_bond_atom_site_label_1
_geom_bond_atom_site_label_2
_geom_bond_distance
_geom_bond_site_symmetry_2
Li0 O18 1.928173 1_556
Li0 O28 1.928685 1_455
Li0 O20 1.929693 1_456
Li0 O24 1.930041 1_555
Li0 O1 2.339382 1_556
Li0 O6 2.343217 1_565
Li1 O19 1.929481 1_555
Li1 O25 1.929757 1_555
Li1 O21 1.929790 1_555
Li1 O29 1.929888 1_555
Li1 O7 2.340341 1_555
Li1 O0 2.343864 1_555
Li2 O16 1.928725 1_655
Li2 O30 1.928850 1_555
Li2 O22 1.929448 1_655
Li2 O26 1.929943 1_555
Li2 O4 2.341507 1_555
Li2 O2 2.343087 1_655
Li3 O17 1.929311 1_555
Li3 O31 1.929469 1_556
Li3 O23 1.929672 1_556
Li3 O27 1.930146 1_555
Li3 O3 2.340988 1_556
Li3 O5 2.342128 1_556
La0 O8 2.377789 1_555
La0 O22 2.589590 1_555
La0 O16 2.590376 1_555
La0 O30 2.591565 1_555
La0 O26 2.593322 1_555
La0 O10 2.725310 1_555
La0 O2 2.730951 1_555
La0 O10 2.733209 1_554
La0 O2 2.733671 1_655
La1 O9 2.371619 1_654
La1 O23 2.590236 1_555
La1 O31 2.591029 1_655
La1 O17 2.591936 1_554
La1 O27 2.594284 1_654
La1 O11 2.725283 1_655
La1 O3 2.730794 1_555
La1 O3 2.732933 1_655
La1 O11 2.734133 1_654
La2 O10 2.375804 1_554
La2 O20 2.585232 1_545
La2 O18 2.586642 1_545
La2 O24 2.595531 1_544
La2 O28 2.596035 1_544
La2 O8 2.717645 1_555
La2 O6 2.730555 1_554
La2 O6 2.732569 1_654
La2 O8 2.740059 1_554
La3 O11 2.371723 1_655
La3 O21 2.588325 1_655
La3 O19 2.589598 1_555
La3 O25 2.595090 1_555
La3 O29 2.595608 1_655
La3 O9 2.724233 1_655
La3 O7 2.730193 1_555
La3 O7 2.732987 1_655
La3 O9 2.735224 1_654
La4 O12 2.374993 1_556
La4 O19 2.590166 1_555
La4 O25 2.590441 1_556
La4 O21 2.592004 1_555
La4 O29 2.593983 1_556
La4 O14 2.724826 1_556
La4 O0 2.731155 1_555
La4 O0 2.732583 1_556
La4 O14 2.734429 1_456
La5 O13 2.374440 1_455
La5 O20 2.588802 1_455
La5 O18 2.589933 1_555
La5 O24 2.591819 1_555
La5 O28 2.592188 1_455
La5 O15 2.728152 1_555
La5 O15 2.730569 1_455
La5 O1 2.730745 1_555
La5 O1 2.733767 1_556
La6 O14 2.371627 1_456
La6 O16 2.585760 1_556
La6 O22 2.587198 1_555
La6 O30 2.595206 1_455
La6 O26 2.596355 1_456
La6 O12 2.718556 1_556
La6 O4 2.730740 1_455
La6 O4 2.732617 1_456
La6 O12 2.739328 1_456
La7 O15 2.376415 1_555
La7 O17 2.586612 1_555
La7 O23 2.587883 1_555
La7 O31 2.594312 1_555
La7 O27 2.595021 1_555
La7 O13 2.722728 1_555
La7 O5 2.730145 1_555
La7 O5 2.733190 1_556
La7 O13 2.736793 1_455
La8 O0 2.338684 1_555
La8 O26 2.606712 1_555
La8 O30 2.606795 1_555
La8 O16 2.607935 1_555
La8 O22 2.609089 1_555
La8 O12 2.721458 1_555
La8 O4 2.726149 1_555
La8 O12 2.727626 1_556
La8 O4 2.728180 1_455
La9 O1 2.338815 1_556
La9 O27 2.607033 1_555
La9 O17 2.607293 1_455
La9 O31 2.608156 1_556
La9 O23 2.610066 1_456
La9 O13 2.721482 1_455
La9 O5 2.726068 1_556
La9 O5 2.727662 1_456
La9 O13 2.728594 1_456
La10 O4 2.337985 1_455
La10 O25 2.603967 1_455
La10 O29 2.605953 1_555
La10 O19 2.611062 1_455
La10 O21 2.611232 1_555
La10 O14 2.719718 1_455
La10 O0 2.726646 1_555
La10 O0 2.727408 1_455
La10 O14 2.730031 1_456
La11 O5 2.338356 1_556
La11 O24 2.601004 1_555
La11 O28 2.602994 1_555
La11 O18 2.611576 1_556
La11 O20 2.611661 1_556
La11 O15 2.713335 1_555
La11 O1 2.726771 1_656
La11 O1 2.726794 1_556
La11 O15 2.734673 1_556
La12 O2 2.339512 1_655
La12 O24 2.605867 1_645
La12 O28 2.607499 1_545
La12 O18 2.609095 1_645
La12 O20 2.609236 1_545
La12 O8 2.724157 1_555
La12 O8 2.724990 1_655
La12 O6 2.725804 1_655
La12 O6 2.728534 1_654
La13 O3 2.338271 1_555
La13 O29 2.606731 1_555
La13 O21 2.606844 1_554
La13 O25 2.608023 1_555
La13 O19 2.609795 1_554
La13 O9 2.721386 1_554
La13 O7 2.726487 1_555
La13 O7 2.727316 1_554
La13 O9 2.728842 1_654
La14 O6 2.338561 1_654
La14 O30 2.602178 1_554
La14 O26 2.603965 1_555
La14 O16 2.612151 1_655
La14 O22 2.612826 1_654
La14 O10 2.714124 1_554
La14 O2 2.726903 1_655
La14 O2 2.727072 1_654
La14 O10 2.733996 1_654
La15 O7 2.338271 1_555
La15 O31 2.602996 1_555
La15 O27 2.604770 1_555
La15 O17 2.611211 1_555
La15 O23 2.611297 1_555
La15 O11 2.718268 1_555
La15 O3 2.726277 1_556
La15 O3 2.727532 1_555
La15 O11 2.731401 1_655
Co0 O29 1.847780 1_656
Co0 O19 1.847980 1_555
Co0 O21 1.850068 1_655
Co0 O25 1.850216 1_556
Co0 O14 2.331636 1_556
Co0 O9 2.332698 1_655
Co1 O27 1.847493 1_655
Co1 O23 1.847818 1_555
Co1 O31 1.850462 1_655
Co1 O17 1.850590 1_555
Co1 O11 2.331454 1_655
Co1 O13 2.331998 1_555
Co2 O28 1.848938 1_555
Co2 O18 1.849337 1_555
Co2 O24 1.849941 1_555
Co2 O20 1.850159 1_555
Co2 O15 2.326687 1_555
Co2 O8 2.328734 1_565
Co3 O26 1.847717 1_555
Co3 O22 1.848022 1_554
Co3 O16 1.851081 1_555
Co3 O30 1.851176 1_554
Co3 O10 2.327672 1_554
Co3 O12 2.328864 1_555
