# generated using pymatgen
data_Zr2N2O
_symmetry_space_group_name_H-M   'P 1'
_cell_length_a   8.78561284
_cell_length_b   8.79282617
_cell_length_c   8.77935681
_cell_angle_alpha   109.25877981
_cell_angle_beta   109.42779660
_cell_angle_gamma   109.60248616
_symmetry_Int_Tables_number   1
_chemical_formula_structural   Zr2N2O
_chemical_formula_sum   'Zr16 N16 O8'
_cell_volume   522.88292208
_cell_formula_units_Z   8
loop_
 _symmetry_equiv_pos_site_id
 _symmetry_equiv_pos_as_xyz
  1  'x, y, z'
loop_
 _atom_site_type_symbol
 _atom_site_label
 _atom_site_symmetry_multiplicity
 _atom_site_fract_x
 _atom_site_fract_y
 _atom_site_fract_z
 _atom_site_occupancy
  Zr  Zr0  1  0.75193359  0.96840310  0.20835734  1
  Zr  Zr1  1  0.02938242  0.77528484  0.24424882  1
  Zr  Zr2  1  0.99588275  0.98864524  0.99006919  1
  Zr  Zr3  1  0.52814251  0.27875861  0.25323469  1
  Zr  Zr4  1  0.50220659  0.50257417  0.00305301  1
  Zr  Zr5  1  0.48948518  0.99154550  0.48895429  1
  Zr  Zr6  1  0.25884711  0.54075075  0.28886104  1
  Zr  Zr7  1  0.29589325  0.26584779  0.54617818  1
  Zr  Zr8  1  0.71338405  0.74697292  0.46234760  1
  Zr  Zr9  1  0.78488728  0.25108547  0.04313018  1
  Zr  Zr10  1  0.20733070  0.74761774  0.96118669  1
  Zr  Zr11  1  0.74965418  0.46243008  0.71592515  1
  Zr  Zr12  1  0.00967144  0.49936608  0.50093028  1
  Zr  Zr13  1  0.97382247  0.21763462  0.75055626  1
  Zr  Zr14  1  0.46620975  0.71660578  0.74414103  1
  Zr  Zr15  1  0.24111982  0.02744659  0.78611214  1
  N  N0  1  0.73213854  0.96999476  0.96222245  1
  N  N1  1  0.75693067  0.22645011  0.27377855  1
  N  N2  1  0.45324058  0.48209749  0.22521167  1
  N  N3  1  0.77113642  0.73428288  0.24173681  1
  N  N4  1  0.49308725  0.22980810  0.46092519  1
  N  N5  1  0.22871610  0.27074829  0.76336101  1
  N  N6  1  0.98631445  0.53080958  0.25642250  1
  N  N7  1  0.51253200  0.77622954  0.54430907  1
  N  N8  1  0.95440442  0.72978676  0.96873326  1
  N  N9  1  0.54707516  0.51448840  0.77759932  1
  N  N10  1  0.22504590  0.45071128  0.48480369  1
  N  N11  1  0.27944560  0.76739963  0.22953275  1
  N  N12  1  0.96315673  0.95131130  0.72674629  1
  N  N13  1  0.24027908  0.77236655  0.72478890  1
  N  N14  1  0.00672878  0.46437397  0.73835989  1
  N  N15  1  0.27158490  0.03649081  0.04192996  1
  O  O0  1  0.53831825  0.26415238  0.98433932  1
  O  O1  1  0.73970461  0.01662674  0.47092320  1
  O  O2  1  0.04061827  0.27230260  0.02671390  1
  O  O3  1  0.72508718  0.23588851  0.77447803  1
  O  O4  1  0.77273259  0.54852776  0.51582106  1
  O  O5  1  0.03560401  0.04662051  0.27528677  1
  O  O6  1  0.46702383  0.73918031  0.01411429  1
  O  O7  1  0.26124158  0.98838546  0.53057823  1
loop_
_geom_bond_atom_site_label_1
_geom_bond_atom_site_label_2
_geom_bond_distance
_geom_bond_site_symmetry_2
N0 Zr0 2.114601 1_556
N0 Zr9 2.163880 1_566
N0 Zr2 2.190343 1_555
N0 Zr14 2.192211 1_555
N1 Zr0 2.129956 1_545
N1 Zr3 2.172148 1_555
N1 Zr9 2.189101 1_555
N1 Zr12 2.233400 1_655
N2 Zr6 2.128568 1_555
N2 Zr3 2.159204 1_555
N2 Zr4 2.181615 1_555
N2 Zr8 2.246463 1_555
N3 Zr8 2.137835 1_555
N3 Zr1 2.165817 1_655
N3 Zr4 2.187349 1_555
N3 Zr0 2.224902 1_555
N4 Zr3 2.099334 1_555
N4 Zr7 2.176372 1_555
N4 Zr5 2.179762 1_545
N4 Zr11 2.192089 1_555
N5 Zr13 2.083697 1_455
N5 Zr7 2.167318 1_555
N5 Zr4 2.208404 1_556
N5 Zr15 2.247720 1_555
N6 Zr1 2.099570 1_655
N6 Zr9 2.127071 1_555
N6 Zr12 2.205237 1_655
N6 Zr6 2.282819 1_655
N7 Zr14 2.111144 1_555
N7 Zr5 2.158754 1_555
N7 Zr8 2.173699 1_555
N7 Zr6 2.190743 1_555
N8 Zr2 2.113127 1_555
N8 Zr1 2.137677 1_656
N8 Zr11 2.180144 1_555
N8 Zr10 2.199495 1_655
N9 Zr7 2.151157 1_555
N9 Zr11 2.166688 1_555
N9 Zr4 2.170778 1_556
N9 Zr14 2.191378 1_555
N10 Zr7 2.086494 1_555
N10 Zr12 2.113032 1_555
N10 Zr6 2.180538 1_555
N10 Zr14 2.257148 1_555
N11 Zr5 2.068702 1_555
N11 Zr10 2.155165 1_554
N11 Zr6 2.186573 1_555
N11 Zr1 2.265666 1_555
N12 Zr15 2.123607 1_665
N12 Zr2 2.128085 1_555
N12 Zr8 2.155573 1_555
N12 Zr13 2.247892 1_565
N13 Zr15 2.123692 1_565
N13 Zr14 2.166299 1_555
N13 Zr12 2.169159 1_555
N13 Zr10 2.256954 1_555
N14 Zr13 2.134225 1_455
N14 Zr10 2.164029 1_555
N14 Zr11 2.194565 1_455
N14 Zr12 2.212235 1_555
N15 Zr3 2.109398 1_555
N15 Zr15 2.142453 1_554
N15 Zr2 2.169711 1_444
N15 Zr10 2.203804 1_544
O0 Zr9 2.105851 1_556
O0 Zr4 2.185473 1_556
O0 Zr15 2.262630 1_555
O0 Zr3 2.354915 1_556
O1 Zr13 2.172724 1_555
O1 Zr5 2.198997 1_545
O1 Zr0 2.248474 1_545
O1 Zr8 2.276762 1_545
O2 Zr13 2.132842 1_454
O2 Zr6 2.233541 1_555
O2 Zr9 2.248418 1_455
O2 Zr2 2.282009 1_444
O3 Zr11 2.177035 1_555
O3 Zr9 2.185748 1_556
O3 Zr5 2.279402 1_545
O3 Zr13 2.315986 1_555
O4 Zr8 2.127188 1_555
O4 Zr11 2.170672 1_555
O4 Zr3 2.288194 1_555
O4 Zr12 2.298861 1_655
O5 Zr0 2.153733 1_445
O5 Zr7 2.236377 1_555
O5 Zr2 2.260325 1_444
O5 Zr1 2.289769 1_545
O6 Zr0 2.178034 1_555
O6 Zr4 2.179764 1_555
O6 Zr10 2.204088 1_554
O6 Zr14 2.309692 1_554
O7 Zr5 2.147596 1_555
O7 Zr1 2.214688 1_555
O7 Zr15 2.231243 1_565
O7 Zr7 2.305852 1_565
