# generated using pymatgen
data_LiVF5
_symmetry_space_group_name_H-M   'P 1'
_cell_length_a   10.63432199
_cell_length_b   10.63432199
_cell_length_c   10.63432199
_cell_angle_alpha   95.83809566
_cell_angle_beta   95.83809566
_cell_angle_gamma   142.80327437
_symmetry_Int_Tables_number   1
_chemical_formula_structural   LiVF5
_chemical_formula_sum   'Li8 V8 F40'
_cell_volume   689.08156341
_cell_formula_units_Z   8
loop_
 _symmetry_equiv_pos_site_id
 _symmetry_equiv_pos_as_xyz
  1  'x, y, z'
loop_
 _atom_site_type_symbol
 _atom_site_label
 _atom_site_symmetry_multiplicity
 _atom_site_fract_x
 _atom_site_fract_y
 _atom_site_fract_z
 _atom_site_occupancy
  Li  Li0  1  0.48470900  0.01430700  0.30122300  1
  Li  Li1  1  0.53691600  0.56651500  0.80122300  1
  Li  Li2  1  0.26430700  0.46308400  0.02959900  1
  Li  Li3  1  0.81651500  0.51529100  0.52959900  1
  Li  Li4  1  0.43348500  0.23470900  0.97040100  1
  Li  Li5  1  0.98569300  0.28691600  0.47040100  1
  Li  Li6  1  0.71308400  0.18348500  0.69877700  1
  Li  Li7  1  0.76529100  0.73569300  0.19877700  1
  V  V0  1  0.48645200  0.69472200  0.39562800  1
  V  V1  1  0.34082400  0.23645200  0.29173100  1
  V  V2  1  0.94472200  0.04909300  0.70826900  1
  V  V3  1  0.29909300  0.09082400  0.60437200  1
  V  V4  1  0.95090700  0.65917600  0.89562800  1
  V  V5  1  0.30527800  0.70090700  0.79173100  1
  V  V6  1  0.90917600  0.51354800  0.20826900  1
  V  V7  1  0.76354800  0.05527800  0.10437200  1
  F  F0  1  0.70132900  0.78448500  0.34291100  1
  F  F1  1  0.33422600  0.40671400  0.36732400  1
  F  F2  1  0.65671400  0.78939000  0.57248800  1
  F  F3  1  0.03448500  0.19157400  0.58315600  1
  F  F4  1  0.60841800  0.45132900  0.41684400  1
  F  F5  1  0.21690200  0.08422600  0.42751200  1
  F  F6  1  0.37182000  0.09273900  0.24523300  1
  F  F7  1  0.40249400  0.62341400  0.74523300  1
  F  F8  1  0.03939000  0.96690200  0.63267600  1
  F  F9  1  0.11340900  0.80735900  0.53574300  1
  F  F10  1  0.97838300  0.17233400  0.03574300  1
  F  F11  1  0.80805400  0.37777800  0.34424000  1
  F  F12  1  0.21646300  0.28618700  0.84424000  1
  F  F13  1  0.44157400  0.35841800  0.65708900  1
  F  F14  1  0.19264100  0.72838300  0.30604900  1
  F  F15  1  0.82766600  0.86340900  0.80604900  1
  F  F16  1  0.53618700  0.19194600  0.56972400  1
  F  F17  1  0.62777800  0.78353700  0.06972400  1
  F  F18  1  0.87341400  0.62818000  0.72092000  1
  F  F19  1  0.34273900  0.59750600  0.22092000  1
  F  F20  1  0.90726100  0.15249400  0.27908000  1
  F  F21  1  0.37658600  0.12182000  0.77908000  1
  F  F22  1  0.62222200  0.96646300  0.43027600  1
  F  F23  1  0.71381300  0.55805400  0.93027600  1
  F  F24  1  0.42233400  0.88659100  0.69395100  1
  F  F25  1  0.05735900  0.02161700  0.19395100  1
  F  F26  1  0.80842600  0.39158200  0.84291100  1
  F  F27  1  0.44194600  0.37222200  0.15576000  1
  F  F28  1  0.03353700  0.46381300  0.65576000  1
  F  F29  1  0.27161700  0.57766600  0.46425700  1
  F  F30  1  0.13659100  0.94264100  0.96425700  1
  F  F31  1  0.21061000  0.78309800  0.86732400  1
  F  F32  1  0.84750600  0.12658600  0.75476700  1
  F  F33  1  0.87818000  0.65726100  0.25476700  1
  F  F34  1  0.03309800  0.66577400  0.07248800  1
  F  F35  1  0.64158200  0.29867100  0.08315600  1
  F  F36  1  0.21551500  0.55842600  0.91684400  1
  F  F37  1  0.59328600  0.96061000  0.92751200  1
  F  F38  1  0.91577400  0.34328600  0.13267600  1
  F  F39  1  0.54867100  0.96551500  0.15708900  1
loop_
_geom_bond_atom_site_label_1
_geom_bond_atom_site_label_2
_geom_bond_distance
_geom_bond_site_symmetry_2
F0 V0 1.827973 1_555
F0 Li7 1.921935 1_555
F1 V1 1.961443 1_555
F1 V0 1.976415 1_555
F2 V0 1.961447 1_555
F2 V2 1.976410 1_565
F3 V2 1.827969 1_455
F3 Li5 1.921941 1_455
F4 V1 1.827968 1_555
F4 Li3 1.921948 1_555
F5 V3 1.961443 1_555
F5 V1 1.976406 1_555
F6 V1 1.835973 1_555
F6 Li0 2.010524 1_555
F7 V5 1.835974 1_555
F7 Li1 2.010524 1_555
F8 V2 1.961434 1_465
F8 V3 1.976406 1_565
F9 V3 1.815221 1_565
F9 Li3 1.978270 1_455
F10 V7 1.815210 1_555
F10 Li2 1.978270 1_655
F11 V6 1.897188 1_555
F11 Li0 2.262594 1_555
F11 Li3 2.280344 1_555
F12 V2 1.897189 1_455
F12 Li1 2.262589 1_555
F12 Li2 2.280349 1_556
F13 V3 1.827968 1_555
F13 Li1 1.921941 1_555
F14 V6 1.815219 1_455
F14 Li0 1.978270 1_565
F15 V2 1.815211 1_565
F15 Li1 1.978270 1_555
F16 V3 1.897198 1_555
F16 Li3 2.262589 1_555
F16 Li6 2.280341 1_555
F17 V7 1.897188 1_565
F17 Li2 2.262594 1_555
F17 Li7 2.280333 1_555
F18 V4 1.835961 1_555
F18 Li3 2.010524 1_555
F19 V0 1.835962 1_555
F19 Li2 2.010524 1_555
F20 V7 1.835962 1_555
F20 Li5 2.010524 1_555
F21 V3 1.835961 1_555
F21 Li4 2.010524 1_555
F22 V0 1.897188 1_555
F22 Li5 2.262594 1_565
F22 Li0 2.280333 1_565
F23 V4 1.897198 1_555
F23 Li4 2.262589 1_555
F23 Li1 2.280341 1_555
F24 V5 1.815211 1_555
F24 Li6 1.978270 1_565
F25 V1 1.815219 1_555
F25 Li7 1.978270 1_445
F26 V4 1.827968 1_555
F26 Li6 1.921941 1_555
F27 V1 1.897188 1_555
F27 Li7 2.262594 1_555
F27 Li4 2.280344 1_554
F28 V5 1.897189 1_555
F28 Li6 2.262589 1_455
F28 Li5 2.280349 1_455
F29 V0 1.815210 1_555
F29 Li5 1.978270 1_455
F30 V4 1.815221 1_455
F30 Li4 1.978270 1_565
F31 V5 1.961434 1_555
F31 V4 1.976406 1_455
F32 V2 1.835974 1_555
F32 Li6 2.010524 1_555
F33 V6 1.835973 1_555
F33 Li7 2.010524 1_555
F34 V4 1.961443 1_454
F34 V6 1.976406 1_455
F35 V6 1.827968 1_555
F35 Li4 1.921948 1_554
F36 V5 1.827969 1_555
F36 Li2 1.921941 1_556
F37 V7 1.961447 1_566
F37 V5 1.976410 1_555
F38 V6 1.961443 1_555
F38 V7 1.976415 1_555
F39 V7 1.827973 1_565
F39 Li0 1.921935 1_565
