# generated using pymatgen
data_LiFe3(SiO4)2
_symmetry_space_group_name_H-M   'P 1'
_cell_length_a   5.09027400
_cell_length_b   8.89627564
_cell_length_c   13.51554744
_cell_angle_alpha   108.30130712
_cell_angle_beta   100.46251904
_cell_angle_gamma   90.04412334
_symmetry_Int_Tables_number   1
_chemical_formula_structural   LiFe3(SiO4)2
_chemical_formula_sum   'Li3 Fe9 Si6 O24'
_cell_volume   570.32928924
_cell_formula_units_Z   3
loop_
 _symmetry_equiv_pos_site_id
 _symmetry_equiv_pos_as_xyz
  1  'x, y, z'
loop_
 _atom_site_type_symbol
 _atom_site_label
 _atom_site_symmetry_multiplicity
 _atom_site_fract_x
 _atom_site_fract_y
 _atom_site_fract_z
 _atom_site_occupancy
  Li  Li0  1  0.62780400  0.90106700  0.30810200  1
  Li  Li1  1  0.51020100  0.26245700  0.14009800  1
  Li  Li2  1  0.29098400  0.98251700  0.64432200  1
  Fe  Fe0  1  0.00265800  0.02021600  0.00372400  1
  Fe  Fe1  1  0.74019800  0.73099500  0.51284800  1
  Fe  Fe2  1  0.78613700  0.26365600  0.81670200  1
  Fe  Fe3  1  0.71176300  0.52448300  0.65720000  1
  Fe  Fe4  1  0.07744600  0.76069500  0.16204900  1
  Fe  Fe5  1  0.39172300  0.48969400  0.95971700  1
  Fe  Fe6  1  0.30180600  0.73958200  0.80725100  1
  Fe  Fe7  1  0.12771700  0.16216200  0.46202800  1
  Fe  Fe8  1  0.05811300  0.43643000  0.31278000  1
  Si  Si0  1  0.96802900  0.38589900  0.06611500  1
  Si  Si1  1  0.52663500  0.86696000  0.06200500  1
  Si  Si2  1  0.80422700  0.89320800  0.74776800  1
  Si  Si3  1  0.59251400  0.33406300  0.40346800  1
  Si  Si4  1  0.18572000  0.80563100  0.40334900  1
  Si  Si5  1  0.24613900  0.36601000  0.71611600  1
  O  O0  1  0.99734400  0.64686900  0.39772500  1
  O  O1  1  0.90435300  0.29282400  0.38061800  1
  O  O2  1  0.97742300  0.95071100  0.40711300  1
  O  O3  1  0.85500000  0.40348800  0.17658700  1
  O  O4  1  0.97810100  0.85055800  0.65269200  1
  O  O5  1  0.66311600  0.02076300  0.04175000  1
  O  O6  1  0.70526600  0.82883400  0.16307400  1
  O  O7  1  0.61810600  0.49944100  0.50217100  1
  O  O8  1  0.46723700  0.18228300  0.42698600  1
  O  O9  1  0.71043500  0.35790500  0.96959300  1
  O  O10  1  0.59581400  0.74170900  0.73037400  1
  O  O11  1  0.40470600  0.36059600  0.29771600  1
  O  O12  1  0.57256200  0.39818800  0.73778700  1
  O  O13  1  0.62950900  0.04679000  0.75790800  1
  O  O14  1  0.41372700  0.85300200  0.51042100  1
  O  O15  1  0.31583700  0.77033400  0.29775600  1
  O  O16  1  0.22710000  0.91891900  0.09117000  1
  O  O17  1  0.15271700  0.23097300  0.04564900  1
  O  O18  1  0.15879900  0.53947100  0.07413200  1
  O  O19  1  0.47364900  0.71238000  0.95313200  1
  O  O20  1  0.14437300  0.21308700  0.60800000  1
  O  O21  1  0.17002600  0.33116600  0.82039800  1
  O  O22  1  0.11338400  0.52772500  0.70222000  1
  O  O23  1  0.02861600  0.90918400  0.85949800  1
loop_
_geom_bond_atom_site_label_1
_geom_bond_atom_site_label_2
_geom_bond_distance
_geom_bond_site_symmetry_2
Li0 O15 1.925699 1_555
Li0 O6 1.974986 1_555
Li0 O2 1.978805 1_555
Li1 O17 1.987533 1_555
Li1 O3 2.047307 1_555
Li1 O11 2.199294 1_555
Li1 O5 2.362069 1_555
Li2 O4 2.018283 1_455
Li2 O14 2.023691 1_555
Li2 O13 2.034579 1_565
Li2 O20 2.346727 1_565
Fe0 O5 1.890092 1_455
Fe0 O17 1.895613 1_555
Fe0 O23 1.917655 1_544
Fe0 O16 1.922048 1_545
Fe1 O14 1.986503 1_555
Fe1 O4 2.018513 1_555
Fe1 O7 2.104590 1_555
Fe1 O0 2.168937 1_555
Fe2 O13 1.947822 1_555
Fe2 O21 2.031159 1_655
Fe2 O12 2.033341 1_555
Fe2 O9 2.079209 1_555
Fe3 O12 1.999593 1_555
Fe3 O7 2.002770 1_555
Fe3 O10 2.018530 1_555
Fe3 O22 2.021779 1_655
Fe4 O15 1.984117 1_555
Fe4 O6 1.990678 1_455
Fe4 O18 2.041569 1_555
Fe4 O16 2.142337 1_555
Fe5 O9 2.011700 1_555
Fe5 O19 2.056558 1_555
Fe5 O18 2.056644 1_556
Fe5 O21 2.089521 1_555
Fe6 O10 1.974022 1_555
Fe6 O22 2.075989 1_555
Fe6 O19 2.093984 1_555
Fe6 O23 2.097555 1_555
Fe7 O20 1.866171 1_555
Fe7 O2 1.894600 1_445
Fe7 O8 1.895584 1_555
Fe7 O1 2.050734 1_455
Fe8 O3 1.874209 1_455
Fe8 O11 1.911860 1_555
Fe8 O0 1.923184 1_455
Fe8 O1 2.019931 1_455
O0 Si4 1.680507 1_655
O1 Si3 1.690391 1_555
O2 Si4 1.665261 1_655
O3 Si0 1.658382 1_555
O4 Si2 1.638875 1_555
O5 Si1 1.653062 1_545
O6 Si1 1.627313 1_555
O7 Si3 1.632524 1_555
O8 Si3 1.634862 1_555
O9 Si0 1.630149 1_556
O10 Si2 1.644829 1_555
O11 Si3 1.651819 1_555
O12 Si5 1.642696 1_555
O13 Si2 1.614028 1_545
O14 Si4 1.620210 1_555
O15 Si4 1.623640 1_555
O16 Si1 1.672942 1_555
O17 Si0 1.648316 1_455
O18 Si0 1.639526 1_455
O19 Si1 1.647291 1_556
O20 Si5 1.652244 1_555
O21 Si5 1.644750 1_555
O22 Si5 1.639136 1_555
O23 Si2 1.686336 1_455
