# generated using pymatgen
data_Li2CuSnO4
_symmetry_space_group_name_H-M   'P 1'
_cell_length_a   6.27966228
_cell_length_b   6.27966228
_cell_length_c   6.27966228
_cell_angle_alpha   123.96847746
_cell_angle_beta   122.42678555
_cell_angle_gamma   84.55108822
_symmetry_Int_Tables_number   1
_chemical_formula_structural   Li2CuSnO4
_chemical_formula_sum   'Li4 Cu2 Sn2 O8'
_cell_volume   165.77798363
_cell_formula_units_Z   2
loop_
 _symmetry_equiv_pos_site_id
 _symmetry_equiv_pos_as_xyz
  1  'x, y, z'
loop_
 _atom_site_type_symbol
 _atom_site_label
 _atom_site_symmetry_multiplicity
 _atom_site_fract_x
 _atom_site_fract_y
 _atom_site_fract_z
 _atom_site_occupancy
  Li  Li0  1  0.00000000  0.00000000  0.00000000  1
  Li  Li1  1  0.50000000  0.00000000  0.00000000  1
  Li  Li2  1  0.50000000  0.00000000  0.50000000  1
  Li  Li3  1  0.50000000  0.50000000  0.50000000  1
  Cu  Cu0  1  0.00000000  0.50000000  0.00000000  1
  Cu  Cu1  1  0.00000000  0.00000000  0.50000000  1
  Sn  Sn0  1  0.00000000  0.50000000  0.50000000  1
  Sn  Sn1  1  0.50000000  0.50000000  0.00000000  1
  O  O0  1  0.73002600  0.72435700  0.49433200  1
  O  O1  1  0.75114800  0.72620100  0.02494700  1
  O  O2  1  0.73002600  0.23569400  0.00566800  1
  O  O3  1  0.20125300  0.72620100  0.47505300  1
  O  O4  1  0.79874700  0.27379900  0.52494700  1
  O  O5  1  0.26997400  0.76430600  0.99433200  1
  O  O6  1  0.24885200  0.27379900  0.97505300  1
  O  O7  1  0.26997400  0.27564300  0.50566800  1
loop_
_geom_bond_atom_site_label_1
_geom_bond_atom_site_label_2
_geom_bond_distance
_geom_bond_site_symmetry_2
Li0 O5 2.143687 1_544
Li0 O2 2.143687 1_455
Li0 O7 2.143688 1_555
Li0 O0 2.143688 1_444
Li0 O1 2.548849 1_445
Li0 O6 2.548849 1_554
Li1 O5 2.137864 1_544
Li1 O2 2.137864 1_555
Li1 O6 2.233634 1_554
Li1 O1 2.233634 1_545
Li1 O4 2.233635 1_555
Li1 O3 2.233635 1_544
Li2 O2 2.143687 1_556
Li2 O5 2.143687 1_544
Li2 O0 2.143692 1_545
Li2 O7 2.143692 1_555
Li2 O4 2.548854 1_555
Li2 O3 2.548854 1_545
Li3 O7 2.137860 1_555
Li3 O0 2.137860 1_555
Li3 O6 2.233634 1_554
Li3 O1 2.233634 1_556
Li3 O4 2.233639 1_555
Li3 O3 2.233639 1_555
Cu0 O6 2.019065 1_554
Cu0 O1 2.019065 1_455
Cu0 O4 2.019066 1_454
Cu0 O3 2.019066 1_555
Cu0 O2 2.509057 1_455
Cu0 O5 2.509057 1_554
Cu1 O3 2.019061 1_545
Cu1 O4 2.019061 1_455
Cu1 O1 2.019065 1_445
Cu1 O6 2.019065 1_555
Cu1 O0 2.509062 1_445
Cu1 O7 2.509062 1_555
O0 Sn0 2.097170 1_655
O0 Sn1 2.097175 1_555
O1 Sn1 2.107465 1_555
O2 Sn0 2.097174 1_655
O2 Sn1 2.097174 1_555
O3 Sn0 2.107461 1_555
O4 Sn0 2.107461 1_655
O5 Sn0 2.097174 1_555
O5 Sn1 2.097174 1_556
O6 Sn1 2.107465 1_556
O7 Sn0 2.097170 1_555
O7 Sn1 2.097175 1_556
