# generated using pymatgen
data_Dy2SiO5
_symmetry_space_group_name_H-M   'P 1'
_cell_length_a   7.95264848
_cell_length_b   7.95264848
_cell_length_c   10.38909997
_cell_angle_alpha   61.09743602
_cell_angle_beta   61.09743602
_cell_angle_gamma   49.89545183
_symmetry_Int_Tables_number   1
_chemical_formula_structural   Dy2SiO5
_chemical_formula_sum   'Dy8 Si4 O20'
_cell_volume   425.20608054
_cell_formula_units_Z   4
loop_
 _symmetry_equiv_pos_site_id
 _symmetry_equiv_pos_as_xyz
  1  'x, y, z'
loop_
 _atom_site_type_symbol
 _atom_site_label
 _atom_site_symmetry_multiplicity
 _atom_site_fract_x
 _atom_site_fract_y
 _atom_site_fract_z
 _atom_site_occupancy
  Dy  Dy0  1  0.76758251  0.51410437  0.16591641  1
  Dy  Dy1  1  0.21840417  0.70808888  0.46462377  1
  Dy  Dy2  1  0.29191112  0.78159583  0.03537623  1
  Dy  Dy3  1  0.51410437  0.76758251  0.66591641  1
  Dy  Dy4  1  0.48589563  0.23241749  0.33408359  1
  Dy  Dy5  1  0.70808888  0.21840417  0.96462377  1
  Dy  Dy6  1  0.78159583  0.29191112  0.53537623  1
  Dy  Dy7  1  0.23241749  0.48589563  0.83408359  1
  Si  Si0  1  0.91003476  0.72742580  0.30893463  1
  Si  Si1  1  0.72742580  0.91003476  0.80893463  1
  Si  Si2  1  0.27257420  0.08996524  0.19106537  1
  Si  Si3  1  0.08996524  0.27257420  0.69106537  1
  O  O0  1  0.73452614  0.86512423  0.44073947  1
  O  O1  1  0.90931882  0.91283852  0.14402059  1
  O  O2  1  0.84978810  0.55765510  0.32573718  1
  O  O3  1  0.86512423  0.73452614  0.94073947  1
  O  O4  1  0.91283852  0.90931882  0.64402059  1
  O  O5  1  0.40797990  0.82900130  0.18082546  1
  O  O6  1  0.55765510  0.84978810  0.82573718  1
  O  O7  1  0.57809424  0.38489880  0.39865915  1
  O  O8  1  0.61510120  0.42190576  0.10134085  1
  O  O9  1  0.82900130  0.40797990  0.68082546  1
  O  O10  1  0.17099870  0.59202010  0.31917454  1
  O  O11  1  0.38489880  0.57809424  0.89865915  1
  O  O12  1  0.42190576  0.61510120  0.60134085  1
  O  O13  1  0.44234490  0.15021190  0.17426282  1
  O  O14  1  0.59202010  0.17099870  0.81917454  1
  O  O15  1  0.08716148  0.09068118  0.35597941  1
  O  O16  1  0.13487577  0.26547386  0.05926053  1
  O  O17  1  0.15021190  0.44234490  0.67426282  1
  O  O18  1  0.09068118  0.08716148  0.85597941  1
  O  O19  1  0.26547386  0.13487577  0.55926053  1
loop_
_geom_bond_atom_site_label_1
_geom_bond_atom_site_label_2
_geom_bond_distance
_geom_bond_site_symmetry_2
Dy0 O8 2.205808 1_555
Dy0 O3 2.276175 1_554
Dy0 O5 2.278955 1_555
Dy0 O2 2.280599 1_555
Dy0 O16 2.284206 1_655
Dy0 O7 2.290061 1_555
Dy1 O12 2.201870 1_555
Dy1 O15 2.312695 1_565
Dy1 O17 2.321532 1_555
Dy1 O4 2.331239 1_455
Dy1 O7 2.365077 1_555
Dy1 O10 2.371675 1_555
Dy1 O5 2.592500 1_555
Dy2 O11 2.201870 1_554
Dy2 O1 2.312695 1_455
Dy2 O6 2.321532 1_554
Dy2 O18 2.331239 1_564
Dy2 O8 2.365077 1_555
Dy2 O5 2.371675 1_555
Dy2 O10 2.592500 1_555
Dy3 O12 2.205808 1_555
Dy3 O0 2.276175 1_555
Dy3 O9 2.278955 1_555
Dy3 O6 2.280599 1_555
Dy3 O19 2.284206 1_565
Dy3 O11 2.290061 1_555
Dy4 O7 2.205808 1_555
Dy4 O19 2.276175 1_555
Dy4 O10 2.278955 1_555
Dy4 O13 2.280599 1_555
Dy4 O0 2.284206 1_545
Dy4 O8 2.290061 1_555
Dy5 O8 2.201870 1_556
Dy5 O18 2.312695 1_655
Dy5 O13 2.321532 1_556
Dy5 O1 2.331239 1_546
Dy5 O11 2.365077 1_555
Dy5 O14 2.371675 1_555
Dy5 O9 2.592500 1_555
Dy6 O7 2.201870 1_555
Dy6 O4 2.312695 1_545
Dy6 O2 2.321532 1_555
Dy6 O15 2.331239 1_655
Dy6 O12 2.365077 1_555
Dy6 O9 2.371675 1_555
Dy6 O14 2.592500 1_555
Dy7 O11 2.205808 1_555
Dy7 O16 2.276175 1_556
Dy7 O14 2.278955 1_555
Dy7 O17 2.280599 1_555
Dy7 O3 2.284206 1_455
Dy7 O12 2.290061 1_555
O0 Si0 1.629469 1_555
O1 Si0 1.632864 1_555
O2 Si0 1.614811 1_555
O3 Si1 1.629469 1_555
O4 Si1 1.632864 1_555
O5 Si2 1.643595 1_565
O6 Si1 1.614811 1_555
O9 Si3 1.643595 1_655
O10 Si0 1.643595 1_455
O13 Si2 1.614811 1_555
O14 Si1 1.643595 1_545
O15 Si2 1.632864 1_555
O16 Si2 1.629469 1_555
O17 Si3 1.614811 1_555
O18 Si3 1.632864 1_555
O19 Si3 1.629469 1_555
