# generated using pymatgen
data_Li2MnF4
_symmetry_space_group_name_H-M   'P 1'
_cell_length_a   4.40755000
_cell_length_b   4.40755000
_cell_length_c   5.00650500
_cell_angle_alpha   90.00000000
_cell_angle_beta   90.00000000
_cell_angle_gamma   90.00000000
_symmetry_Int_Tables_number   1
_chemical_formula_structural   Li2MnF4
_chemical_formula_sum   'Li2 Mn1 F4'
_cell_volume   97.25885438
_cell_formula_units_Z   1
loop_
 _symmetry_equiv_pos_site_id
 _symmetry_equiv_pos_as_xyz
  1  'x, y, z'
loop_
 _atom_site_type_symbol
 _atom_site_label
 _atom_site_symmetry_multiplicity
 _atom_site_fract_x
 _atom_site_fract_y
 _atom_site_fract_z
 _atom_site_occupancy
  Li  Li0  1  0.00000000  0.50000000  0.50000000  1
  Li  Li1  1  0.50000000  0.00000000  0.50000000  1
  Mn  Mn0  1  0.00000000  0.00000000  0.00000000  1
  F  F0  1  0.23661900  0.76338100  0.72056100  1
  F  F1  1  0.23661900  0.23661900  0.27943900  1
  F  F2  1  0.76338100  0.23661900  0.72056100  1
  F  F3  1  0.76338100  0.76338100  0.27943900  1
loop_
_geom_bond_atom_site_label_1
_geom_bond_atom_site_label_2
_geom_bond_distance
_geom_bond_site_symmetry_2
F0 Li0 1.911705 1_555
F0 Li1 1.911705 1_565
F0 Mn0 2.032870 1_566
F1 Li0 1.911705 1_555
F1 Li1 1.911705 1_555
F1 Mn0 2.032870 1_555
F2 Li0 1.911705 1_655
F2 Li1 1.911705 1_555
F2 Mn0 2.032870 1_656
F3 Li0 1.911705 1_655
F3 Li1 1.911705 1_565
F3 Mn0 2.032870 1_665
