# generated using pymatgen
data_VGeO4
_symmetry_space_group_name_H-M   'P 1'
_cell_length_a   4.29921036
_cell_length_b   4.69714049
_cell_length_c   11.15893553
_cell_angle_alpha   90.00003792
_cell_angle_beta   89.99882563
_cell_angle_gamma   89.99980253
_symmetry_Int_Tables_number   1
_chemical_formula_structural   VGeO4
_chemical_formula_sum   'V4 Ge4 O16'
_cell_volume   225.34348873
_cell_formula_units_Z   4
loop_
 _symmetry_equiv_pos_site_id
 _symmetry_equiv_pos_as_xyz
  1  'x, y, z'
loop_
 _atom_site_type_symbol
 _atom_site_label
 _atom_site_symmetry_multiplicity
 _atom_site_fract_x
 _atom_site_fract_y
 _atom_site_fract_z
 _atom_site_occupancy
  V  V0  1  0.49999561  0.74999419  0.05586540  1
  V  V1  1  0.00000402  0.24999333  0.44412770  1
  V  V2  1  0.99998531  0.75000680  0.55586308  1
  V  V3  1  0.50001443  0.25000720  0.94413619  1
  Ge  Ge0  1  0.00001092  0.75001951  0.81470498  1
  Ge  Ge1  1  0.49999037  0.25001952  0.68531100  1
  Ge  Ge2  1  0.50000215  0.74998012  0.31472099  1
  Ge  Ge3  1  0.99999693  0.24997995  0.18528179  1
  O  O0  1  0.22653871  0.07838984  0.31158348  1
  O  O1  1  0.27345802  0.57838594  0.18841095  1
  O  O2  1  0.27343801  0.07844440  0.81159266  1
  O  O3  1  0.22656695  0.57843898  0.68841839  1
  O  O4  1  0.77344577  0.42156880  0.31158270  1
  O  O5  1  0.72655534  0.92157182  0.18841024  1
  O  O6  1  0.72655452  0.42159423  0.81159262  1
  O  O7  1  0.77344386  0.92160005  0.68841873  1
  O  O8  1  0.25609178  0.59031003  0.43849591  1
  O  O9  1  0.24390243  0.09031417  0.06149437  1
  O  O10  1  0.25609551  0.09033414  0.56150178  1
  O  O11  1  0.24389889  0.59031490  0.93849676  1
  O  O12  1  0.75611893  0.40967400  0.06149253  1
  O  O13  1  0.74388348  0.90968257  0.43849767  1
  O  O14  1  0.75610275  0.90969597  0.93849530  1
  O  O15  1  0.74390629  0.40967954  0.56150477  1
loop_
_geom_bond_atom_site_label_1
_geom_bond_atom_site_label_2
_geom_bond_distance
_geom_bond_site_symmetry_2
Ge0 O14 1.889506 1_455
Ge0 O11 1.889555 1_555
Ge0 O3 1.893168 1_555
Ge0 O7 1.893220 1_455
Ge0 O2 1.939809 1_565
Ge0 O6 1.939888 1_455
Ge1 O15 1.889628 1_555
Ge1 O10 1.889680 1_555
Ge1 O2 1.893112 1_555
Ge1 O6 1.893165 1_555
Ge1 O3 1.939772 1_555
Ge1 O7 1.939851 1_545
Ge2 O8 1.889378 1_555
Ge2 O13 1.889414 1_555
Ge2 O5 1.893388 1_555
Ge2 O1 1.893396 1_555
Ge2 O4 1.939800 1_555
Ge2 O0 1.939847 1_565
Ge3 O9 1.889456 1_655
Ge3 O12 1.889491 1_555
Ge3 O4 1.893293 1_555
Ge3 O0 1.893311 1_655
Ge3 O5 1.939787 1_545
Ge3 O1 1.939831 1_655
O0 V1 1.945703 1_555
O1 V0 1.945733 1_555
O2 V3 1.945741 1_555
O3 V2 1.945860 1_455
O4 V1 1.945737 1_655
O5 V0 1.945745 1_555
O6 V3 1.945681 1_555
O7 V2 1.945795 1_555
O8 V2 1.868216 1_455
O8 V1 1.941998 1_555
O9 V3 1.868156 1_554
O9 V0 1.942017 1_545
O10 V1 1.868193 1_555
O10 V2 1.942098 1_445
O11 V0 1.868204 1_556
O11 V3 1.942029 1_555
O12 V3 1.868104 1_554
O12 V0 1.942092 1_555
O13 V2 1.868183 1_555
O13 V1 1.942056 1_665
O14 V0 1.868253 1_556
O14 V3 1.941975 1_565
O15 V1 1.868251 1_655
O15 V2 1.942021 1_555
