# generated using pymatgen
data_Ba3V2P6(HO4)6
_symmetry_space_group_name_H-M   'P 1'
_cell_length_a   13.58248740
_cell_length_b   13.58248740
_cell_length_c   13.58248737
_cell_angle_alpha   41.08979427
_cell_angle_beta   41.08979427
_cell_angle_gamma   41.08979300
_symmetry_Int_Tables_number   1
_chemical_formula_structural   Ba3V2P6(HO4)6
_chemical_formula_sum   'Ba6 V4 P12 H12 O48'
_cell_volume   977.33891575
_cell_formula_units_Z   2
loop_
 _symmetry_equiv_pos_site_id
 _symmetry_equiv_pos_as_xyz
  1  'x, y, z'
loop_
 _atom_site_type_symbol
 _atom_site_label
 _atom_site_symmetry_multiplicity
 _atom_site_fract_x
 _atom_site_fract_y
 _atom_site_fract_z
 _atom_site_occupancy
  Ba  Ba0  1  0.75000000  0.16081000  0.33919000  1
  Ba  Ba1  1  0.66081000  0.25000000  0.83919000  1
  Ba  Ba2  1  0.83919000  0.66081000  0.25000000  1
  Ba  Ba3  1  0.16081000  0.33919000  0.75000000  1
  Ba  Ba4  1  0.33919000  0.75000000  0.16081000  1
  Ba  Ba5  1  0.25000000  0.83919000  0.66081000  1
  V  V0  1  0.25000000  0.25000000  0.25000000  1
  V  V1  1  0.00000000  0.00000000  0.00000000  1
  V  V2  1  0.50000000  0.50000000  0.50000000  1
  V  V3  1  0.75000000  0.75000000  0.75000000  1
  P  P0  1  0.60205300  0.04676900  0.25538500  1
  P  P1  1  0.04676900  0.25538500  0.60205300  1
  P  P2  1  0.89794700  0.24461500  0.45323100  1
  P  P3  1  0.25538500  0.60205300  0.04676900  1
  P  P4  1  0.54676900  0.10205300  0.75538500  1
  P  P5  1  0.75538500  0.54676900  0.10205300  1
  P  P6  1  0.24461500  0.45323100  0.89794700  1
  P  P7  1  0.45323100  0.89794700  0.24461500  1
  P  P8  1  0.10205300  0.75538500  0.54676900  1
  P  P9  1  0.74461500  0.39794700  0.95323100  1
  P  P10  1  0.95323100  0.74461500  0.39794700  1
  P  P11  1  0.39794700  0.95323100  0.74461500  1
  H  H0  1  0.98614600  0.06541600  0.39075200  1
  H  H1  1  0.60924800  0.01385400  0.93458400  1
  H  H2  1  0.51385400  0.10924800  0.43458400  1
  H  H3  1  0.93458400  0.60924800  0.01385400  1
  H  H4  1  0.89075200  0.56541600  0.48614600  1
  H  H5  1  0.56541600  0.48614600  0.89075200  1
  H  H6  1  0.43458400  0.51385400  0.10924800  1
  H  H7  1  0.06541600  0.39075200  0.98614600  1
  H  H8  1  0.10924800  0.43458400  0.51385400  1
  H  H9  1  0.48614600  0.89075200  0.56541600  1
  H  H10  1  0.39075200  0.98614600  0.06541600  1
  H  H11  1  0.01385400  0.93458400  0.60924800  1
  O  O0  1  0.78050500  0.00050400  0.11657100  1
  O  O1  1  0.48210200  0.18919700  0.17315500  1
  O  O2  1  0.31080300  0.01789800  0.32684500  1
  O  O3  1  0.32684500  0.31080300  0.01789800  1
  O  O4  1  0.18919700  0.17315500  0.48210200  1
  O  O5  1  0.00050400  0.11657100  0.78050500  1
  O  O6  1  0.93803900  0.09833300  0.60437200  1
  O  O7  1  0.90279800  0.18192900  0.38695600  1
  O  O8  1  0.01789800  0.32684500  0.31080300  1
  O  O9  1  0.17315500  0.48210200  0.18919700  1
  O  O10  1  0.61304400  0.09720200  0.81807100  1
  O  O11  1  0.90166700  0.39562800  0.06196100  1
  O  O12  1  0.89562800  0.40166700  0.56196100  1
  O  O13  1  0.59720200  0.11304400  0.31807100  1
  O  O14  1  0.71949500  0.38342900  0.49949600  1
  O  O15  1  0.11657100  0.78050500  0.00050400  1
  O  O16  1  0.43803900  0.10437200  0.59833300  1
  O  O17  1  0.39562800  0.06196100  0.90166700  1
  O  O18  1  0.68192900  0.40279800  0.88695600  1
  O  O19  1  0.50050400  0.28050500  0.61657100  1
  O  O20  1  0.88695600  0.68192900  0.40279800  1
  O  O21  1  0.81807100  0.61304400  0.09720200  1
  O  O22  1  0.59833300  0.43803900  0.10437200  1
  O  O23  1  0.61657100  0.50050400  0.28050500  1
  O  O24  1  0.38342900  0.49949600  0.71949500  1
  O  O25  1  0.40166700  0.56196100  0.89562800  1
  O  O26  1  0.18192900  0.38695600  0.90279800  1
  O  O27  1  0.11304400  0.31807100  0.59720200  1
  O  O28  1  0.49949600  0.71949500  0.38342900  1
  O  O29  1  0.31807100  0.59720200  0.11304400  1
  O  O30  1  0.56196100  0.89562800  0.40166700  1
  O  O31  1  0.60437200  0.93803900  0.09833300  1
  O  O32  1  0.88342900  0.21949500  0.99949600  1
  O  O33  1  0.28050500  0.61657100  0.50050400  1
  O  O34  1  0.40279800  0.88695600  0.68192900  1
  O  O35  1  0.10437200  0.59833300  0.43803900  1
  O  O36  1  0.09833300  0.60437200  0.93803900  1
  O  O37  1  0.38695600  0.90279800  0.18192900  1
  O  O38  1  0.98210200  0.67315500  0.68919700  1
  O  O39  1  0.82684500  0.51789800  0.81080300  1
  O  O40  1  0.09720200  0.81807100  0.61304400  1
  O  O41  1  0.06196100  0.90166700  0.39562800  1
  O  O42  1  0.99949600  0.88342900  0.21949500  1
  O  O43  1  0.81080300  0.82684500  0.51789800  1
  O  O44  1  0.67315500  0.68919700  0.98210200  1
  O  O45  1  0.51789800  0.81080300  0.82684500  1
  O  O46  1  0.68919700  0.98210200  0.67315500  1
  O  O47  1  0.21949500  0.99949600  0.88342900  1
loop_
_geom_bond_atom_site_label_1
_geom_bond_atom_site_label_2
_geom_bond_distance
_geom_bond_site_symmetry_2
Ba0 O43 2.815670 1_545
Ba0 O46 2.815670 1_545
Ba0 O7 2.831586 1_555
Ba0 O13 2.831586 1_555
Ba0 H0 2.865454 1_555
Ba0 H2 2.865454 1_555
Ba0 O22 2.950112 1_555
Ba0 O11 2.950112 1_555
Ba0 O23 3.039321 1_555
Ba0 O32 3.039321 1_554
Ba0 O41 3.046068 1_645
Ba0 O16 3.046068 1_555
Ba0 O42 3.162967 1_545
Ba0 O19 3.162967 1_555
Ba1 O3 2.815670 1_556
Ba1 O1 2.815670 1_556
Ba1 O18 2.831586 1_555
Ba1 O10 2.831586 1_555
Ba1 H5 2.865454 1_555
Ba1 H1 2.865454 1_555
Ba1 O6 2.950112 1_555
Ba1 O12 2.950112 1_555
Ba1 O5 3.039321 1_655
Ba1 O14 3.039321 1_555
Ba1 O25 3.046068 1_555
Ba1 O31 3.046068 1_546
Ba1 O24 3.162967 1_555
Ba1 O0 3.162967 1_556
Ba2 O9 2.815670 1_655
Ba2 O8 2.815670 1_655
Ba2 O20 2.831586 1_555
Ba2 O21 2.831586 1_555
Ba2 H4 2.865454 1_555
Ba2 H3 2.865454 1_555
Ba2 O30 2.950112 1_555
Ba2 O31 2.950112 1_555
Ba2 O0 3.039321 1_565
Ba2 O28 3.039321 1_555
Ba2 O12 3.046068 1_555
Ba2 O36 3.046068 1_654
Ba2 O15 3.162967 1_655
Ba2 O14 3.162967 1_555
Ba3 O38 2.815670 1_455
Ba3 O39 2.815670 1_455
Ba3 O26 2.831586 1_555
Ba3 O27 2.831586 1_555
Ba3 H7 2.865454 1_555
Ba3 H8 2.865454 1_555
Ba3 O17 2.950112 1_555
Ba3 O16 2.950112 1_555
Ba3 O19 3.039321 1_555
Ba3 O47 3.039321 1_545
Ba3 O11 3.046068 1_456
Ba3 O35 3.046068 1_555
Ba3 O33 3.162967 1_555
Ba3 O32 3.162967 1_455
Ba4 O44 2.815670 1_554
Ba4 O45 2.815670 1_554
Ba4 O29 2.831586 1_555
Ba4 O37 2.831586 1_555
Ba4 H6 2.865454 1_555
Ba4 H10 2.865454 1_555
Ba4 O41 2.950112 1_555
Ba4 O35 2.950112 1_555
Ba4 O42 3.039321 1_455
Ba4 O33 3.039321 1_555
Ba4 O22 3.046068 1_555
Ba4 O17 3.046068 1_564
Ba4 O23 3.162967 1_555
Ba4 O47 3.162967 1_554
Ba5 O4 2.815670 1_565
Ba5 O2 2.815670 1_565
Ba5 O40 2.831586 1_555
Ba5 O34 2.831586 1_555
Ba5 H11 2.865454 1_555
Ba5 H9 2.865454 1_555
Ba5 O25 2.950112 1_555
Ba5 O36 2.950112 1_555
Ba5 O24 3.039321 1_555
Ba5 O15 3.039321 1_556
Ba5 O6 3.046068 1_465
Ba5 O30 3.046068 1_555
Ba5 O5 3.162967 1_565
Ba5 O28 3.162967 1_555
H0 O7 1.026232 1_555
H0 O41 1.562033 1_645
H1 O10 1.026232 1_555
H1 O31 1.562033 1_546
H2 O13 1.026232 1_555
H2 O16 1.562033 1_555
H3 O21 1.026232 1_555
H3 O36 1.562033 1_654
H4 O20 1.026232 1_555
H4 O12 1.562033 1_555
H5 O18 1.026232 1_555
H5 O25 1.562033 1_555
H6 O29 1.026232 1_555
H6 O22 1.562033 1_555
H7 O26 1.026232 1_555
H7 O11 1.562033 1_456
H8 O27 1.026232 1_555
H8 O35 1.562033 1_555
H9 O34 1.026232 1_555
H9 O30 1.562033 1_555
H10 O37 1.026232 1_555
H10 O17 1.562033 1_564
H11 O40 1.026232 1_555
H11 O6 1.562033 1_465
O0 P0 1.557599 1_555
O0 V1 2.065273 1_655
O1 P0 1.542518 1_555
O1 V0 2.030969 1_555
O2 P7 1.542518 1_545
O2 V0 2.030969 1_555
O3 P6 1.542518 1_554
O3 V0 2.030969 1_555
O4 P1 1.542518 1_555
O4 V0 2.030969 1_555
O5 P1 1.557599 1_555
O5 V1 2.065273 1_556
O6 P2 1.537672 1_555
O7 P2 1.587746 1_555
O8 P2 1.542518 1_455
O8 V0 2.030969 1_555
O9 P3 1.542518 1_555
O9 V0 2.030969 1_555
O10 P4 1.587746 1_555
O11 P5 1.537672 1_555
O12 P1 1.537672 1_655
O13 P0 1.587746 1_555
O14 P2 1.557599 1_555
O14 V2 2.065273 1_555
O15 P3 1.557599 1_555
O15 V1 2.065273 1_565
O16 P11 1.537672 1_545
O17 P4 1.537672 1_555
O18 P9 1.587746 1_555
O19 P4 1.557599 1_555
O19 V2 2.065273 1_555
O20 P10 1.587746 1_555
O21 P5 1.587746 1_555
O22 P9 1.537672 1_554
O23 P5 1.557599 1_555
O23 V2 2.065273 1_555
O24 P6 1.557599 1_555
O24 V2 2.065273 1_555
O25 P3 1.537672 1_556
O26 P6 1.587746 1_555
O27 P1 1.587746 1_555
O28 P7 1.557599 1_555
O28 V2 2.065273 1_555
O29 P3 1.587746 1_555
O30 P0 1.537672 1_565
O31 P7 1.537672 1_555
O32 P9 1.557599 1_555
O32 V1 2.065273 1_656
O33 P8 1.557599 1_555
O33 V2 2.065273 1_555
O34 P11 1.587746 1_555
O35 P10 1.537672 1_455
O36 P6 1.537672 1_555
O37 P7 1.587746 1_555
O38 P8 1.542518 1_655
O38 V3 2.030969 1_555
O39 P9 1.542518 1_555
O39 V3 2.030969 1_555
O40 P8 1.587746 1_555
O41 P8 1.537672 1_555
O42 P10 1.557599 1_555
O42 V1 2.065273 1_665
O43 P10 1.542518 1_555
O43 V3 2.030969 1_555
O44 P5 1.542518 1_556
O44 V3 2.030969 1_555
O45 P11 1.542518 1_555
O45 V3 2.030969 1_555
O46 P4 1.542518 1_565
O46 V3 2.030969 1_555
O47 P11 1.557599 1_555
O47 V1 2.065273 1_566
