# generated using pymatgen
data_Li4Ni2OF7
_symmetry_space_group_name_H-M   'P 1'
_cell_length_a   5.96266895
_cell_length_b   5.96273890
_cell_length_c   10.26831134
_cell_angle_alpha   91.31485064
_cell_angle_beta   105.66379629
_cell_angle_gamma   119.70900565
_symmetry_Int_Tables_number   1
_chemical_formula_structural   Li4Ni2OF7
_chemical_formula_sum   'Li8 Ni4 O2 F14'
_cell_volume   299.90261213
_cell_formula_units_Z   2
loop_
 _symmetry_equiv_pos_site_id
 _symmetry_equiv_pos_as_xyz
  1  'x, y, z'
loop_
 _atom_site_type_symbol
 _atom_site_label
 _atom_site_symmetry_multiplicity
 _atom_site_fract_x
 _atom_site_fract_y
 _atom_site_fract_z
 _atom_site_occupancy
  Li  Li0  1  0.88894700  0.68493900  0.57395100  1
  Li  Li1  1  0.88890500  0.18512900  0.07396900  1
  Li  Li2  1  0.11362400  0.31993400  0.43344600  1
  Li  Li3  1  0.11364600  0.81978900  0.93341300  1
  Li  Li4  1  0.50170900  0.99679600  0.49864300  1
  Li  Li5  1  0.50169200  0.49681000  0.99863700  1
  Li  Li6  1  0.48109900  0.25482600  0.73600000  1
  Li  Li7  1  0.48099800  0.75484600  0.23600800  1
  Ni  Ni0  1  0.50478700  0.76057500  0.75392400  1
  Ni  Ni1  1  0.99344500  0.24912800  0.75394100  1
  Ni  Ni2  1  0.50484100  0.26056900  0.25402400  1
  Ni  Ni3  1  0.99329800  0.74938900  0.25393800  1
  O  O0  1  0.76943900  0.60111500  0.37031700  1
  O  O1  1  0.76939900  0.10094000  0.87043400  1
  F  F0  1  0.24820300  0.38765400  0.63594700  1
  F  F1  1  0.24819600  0.88776500  0.13584700  1
  F  F2  1  0.25368100  0.11797900  0.37146200  1
  F  F3  1  0.25367800  0.61774800  0.87151200  1
  F  F4  1  0.74410300  0.88311200  0.62723600  1
  F  F5  1  0.74405700  0.38331200  0.12718300  1
  F  F6  1  0.25491900  0.14583900  0.86479800  1
  F  F7  1  0.25470400  0.64601000  0.36471700  1
  F  F8  1  0.71892600  0.60986000  0.86481700  1
  F  F9  1  0.71886300  0.10989300  0.36478900  1
  F  F10  1  0.28092900  0.38621200  0.13279600  1
  F  F11  1  0.28098300  0.88614600  0.63280800  1
  F  F12  1  0.74635300  0.85194400  0.13265200  1
  F  F13  1  0.74657400  0.35174000  0.63279000  1
loop_
_geom_bond_atom_site_label_1
_geom_bond_atom_site_label_2
_geom_bond_distance
_geom_bond_site_symmetry_2
Li0 O0 1.980964 1_555
Li1 O1 1.980106 1_554
Li6 O1 2.458211 1_555
Li7 O0 2.457661 1_555
Ni0 O1 1.932607 1_565
Ni1 O1 1.933304 1_555
Ni2 O0 1.932445 1_555
Ni3 O0 1.931711 1_555
F0 Li2 1.967216 1_555
F0 Li6 1.992072 1_555
F0 Ni1 2.062475 1_455
F0 Ni0 2.063083 1_555
F1 Li3 1.966533 1_554
F1 Li7 1.992433 1_555
F1 Ni2 2.063359 1_565
F1 Ni3 2.063805 1_455
F2 Li2 1.949679 1_555
F2 Ni2 2.044497 1_555
F2 Ni3 2.044873 1_445
F2 Li4 2.115274 1_545
F3 Li3 1.949614 1_555
F3 Ni1 2.045110 1_455
F3 Ni0 2.045611 1_555
F3 Li5 2.113939 1_555
F4 Li0 1.917975 1_555
F4 Li4 2.067277 1_555
F4 Ni0 2.067584 1_555
F4 Ni1 2.067671 1_565
F5 Li1 1.917758 1_555
F5 Li5 2.066173 1_554
F5 Ni3 2.068116 1_555
F5 Ni2 2.068502 1_555
F6 Li3 1.935405 1_545
F6 Li6 2.030791 1_555
F6 Ni1 2.032590 1_455
F6 Li5 2.038936 1_555
F7 Li2 1.936078 1_555
F7 Li7 2.030484 1_555
F7 Ni3 2.032364 1_455
F7 Li4 2.038666 1_555
F8 Li3 1.935609 1_655
F8 Li6 2.031055 1_555
F8 Ni0 2.033165 1_555
F8 Li5 2.039242 1_555
F9 Li2 1.935841 1_655
F9 Li7 2.030947 1_545
F9 Ni2 2.031975 1_555
F9 Li4 2.039237 1_545
F10 Li1 1.921656 1_455
F10 Li7 1.997283 1_555
F10 Ni2 2.007518 1_555
F10 Li5 2.055683 1_554
F11 Li0 1.921717 1_455
F11 Li6 1.997404 1_565
F11 Ni0 2.006254 1_555
F11 Li4 2.055595 1_555
F12 Li1 1.921003 1_565
F12 Li7 1.997981 1_555
F12 Ni3 2.007560 1_555
F12 Li5 2.055784 1_554
F13 Li0 1.921789 1_555
F13 Li6 1.997521 1_555
F13 Ni1 2.006881 1_555
F13 Li4 2.055672 1_545
