# generated using pymatgen
data_Li5V3P8O29
_symmetry_space_group_name_H-M   'P 1'
_cell_length_a   9.77463800
_cell_length_b   9.81109951
_cell_length_c   14.07564472
_cell_angle_alpha   89.84965582
_cell_angle_beta   90.37817420
_cell_angle_gamma   119.87179254
_symmetry_Int_Tables_number   1
_chemical_formula_structural   Li5V3P8O29
_chemical_formula_sum   'Li10 V6 P16 O58'
_cell_volume   1170.48896064
_cell_formula_units_Z   2
loop_
 _symmetry_equiv_pos_site_id
 _symmetry_equiv_pos_as_xyz
  1  'x, y, z'
loop_
 _atom_site_type_symbol
 _atom_site_label
 _atom_site_symmetry_multiplicity
 _atom_site_fract_x
 _atom_site_fract_y
 _atom_site_fract_z
 _atom_site_occupancy
  Li  Li0  1  0.68661700  0.91044900  0.94268200  1
  Li  Li1  1  0.66369800  0.76703600  0.43883400  1
  Li  Li2  1  0.23636400  0.90780100  0.43937800  1
  Li  Li3  1  0.08512900  0.77412400  0.94251100  1
  Li  Li4  1  0.22600800  0.32050900  0.94163200  1
  Li  Li5  1  0.90531400  0.67121800  0.55782700  1
  Li  Li6  1  0.09943300  0.33947800  0.43734200  1
  Li  Li7  1  0.67343400  0.34166400  0.89148400  1
  Li  Li8  1  0.30963900  0.08455700  0.06337200  1
  Li  Li9  1  0.00751000  0.04395600  0.49735700  1
  V  V0  1  0.99867600  0.56214800  0.75100600  1
  V  V1  1  0.99983400  0.43142300  0.24725900  1
  V  V2  1  0.56624200  0.56764300  0.24853800  1
  V  V3  1  0.43066700  0.43019300  0.74891200  1
  V  V4  1  0.57151400  0.00103000  0.74230500  1
  V  V5  1  0.43368800  0.99739900  0.25399400  1
  P  P0  1  0.68013700  0.91240100  0.15736500  1
  P  P1  1  0.68636600  0.76825900  0.65739300  1
  P  P2  1  0.22467400  0.91406900  0.65681000  1
  P  P3  1  0.33717900  0.67119900  0.86980300  1
  P  P4  1  0.33371500  0.66485900  0.37225400  1
  P  P5  1  0.08821100  0.76814300  0.15881500  1
  P  P6  1  0.91325300  0.68331700  0.34070000  1
  P  P7  1  0.23012500  0.31855600  0.15667000  1
  P  P8  1  0.77088300  0.68220300  0.84178100  1
  P  P9  1  0.08376100  0.31283700  0.65579700  1
  P  P10  1  0.90986100  0.22448700  0.83845200  1
  P  P11  1  0.66532000  0.33392400  0.62894700  1
  P  P12  1  0.66175900  0.32992700  0.13130000  1
  P  P13  1  0.77889900  0.08529700  0.33995400  1
  P  P14  1  0.30817600  0.22525000  0.34075300  1
  P  P15  1  0.32227900  0.08954800  0.84131500  1
  O  O0  1  0.79597700  0.99396700  0.42067700  1
  O  O1  1  0.66455800  0.91540000  0.66560100  1
  O  O2  1  0.75786500  0.76893900  0.92315400  1
  O  O3  1  0.65870300  0.74386600  0.17123800  1
  O  O4  1  0.51952600  0.90018600  0.17921900  1
  O  O5  1  0.48044000  0.81988700  0.82153600  1
  O  O6  1  0.38415800  0.91540800  0.67314900  1
  O  O7  1  0.24644300  0.99693500  0.92951600  1
  O  O8  1  0.25370000  0.91815200  0.16487900  1
  O  O9  1  0.48926900  0.67525300  0.32945700  1
  O  O10  1  0.52929900  0.61924000  0.67211600  1
  O  O11  1  0.32041800  0.80873000  0.33340400  1
  O  O12  1  0.34598400  0.68681300  0.97495500  1
  O  O13  1  0.34425600  0.66858300  0.47833900  1
  O  O14  1  0.18122800  0.66405600  0.82912900  1
  O  O15  1  0.38121500  0.47990100  0.17844000  1
  O  O16  1  0.33615200  0.52053100  0.83361300  1
  O  O17  1  0.08298100  0.74630600  0.66214200  1
  O  O18  1  0.99479900  0.78878800  0.24780900  1
  O  O19  1  0.99857800  0.77460500  0.42916100  1
  O  O20  1  0.00848500  0.75935400  0.06729200  1
  O  O21  1  0.10285100  0.62099100  0.18023400  1
  O  O22  1  0.19009500  0.51005500  0.33365200  1
  O  O23  1  0.91638600  0.65912900  0.84521500  1
  O  O24  1  0.08520200  0.46895100  0.66871400  1
  O  O25  1  0.25312200  0.34086800  0.67178700  1
  O  O26  1  0.79969800  0.78339400  0.74416000  1
  O  O27  1  0.76968800  0.77419200  0.56624600  1
  O  O28  1  0.20128300  0.21165100  0.42022700  1
  O  O29  1  0.74220000  0.65747300  0.34042900  1
  O  O30  1  0.91215200  0.52866900  0.33009600  1
  O  O31  1  0.08634300  0.33983400  0.15994200  1
  O  O32  1  0.81489900  0.48722800  0.67034900  1
  O  O33  1  0.88444700  0.36846200  0.82506100  1
  O  O34  1  0.00810600  0.23608800  0.92142600  1
  O  O35  1  0.01771500  0.23216300  0.56318300  1
  O  O36  1  0.98283800  0.19896700  0.74160400  1
  O  O37  1  0.91803100  0.25667800  0.33917600  1
  O  O38  1  0.65627600  0.47556500  0.17839200  1
  O  O39  1  0.62377200  0.51571900  0.82551900  1
  O  O40  1  0.80987800  0.33211600  0.17219600  1
  O  O41  1  0.65821500  0.33849700  0.02501200  1
  O  O42  1  0.67092400  0.33234200  0.52388500  1
  O  O43  1  0.67157200  0.18603500  0.67507400  1
  O  O44  1  0.46296000  0.38425300  0.33137400  1
  O  O45  1  0.51806200  0.32590200  0.67428800  1
  O  O46  1  0.74093000  0.07629300  0.83968900  1
  O  O47  1  0.79963000  0.01251100  0.24143600  1
  O  O48  1  0.74765100  0.98410300  0.06488700  1
  O  O49  1  0.62041500  0.08224300  0.33325400  1
  O  O50  1  0.51072000  0.18157400  0.16839700  1
  O  O51  1  0.48835800  0.11025400  0.82355500  1
  O  O52  1  0.33702600  0.25387700  0.84408800  1
  O  O53  1  0.24968100  0.24959000  0.06608200  1
  O  O54  1  0.21358000  0.20171300  0.24143700  1
  O  O55  1  0.34161000  0.08638600  0.34237300  1
  O  O56  1  0.22064200  0.99160500  0.56647900  1
  O  O57  1  0.21173000  0.00324800  0.74997500  1
loop_
_geom_bond_atom_site_label_1
_geom_bond_atom_site_label_2
_geom_bond_distance
_geom_bond_site_symmetry_2
Li0 O48 1.844027 1_556
Li0 O2 1.858978 1_555
Li0 O46 2.041632 1_565
Li0 O5 2.436709 1_555
Li1 O0 1.956516 1_555
Li1 O27 2.048960 1_555
Li1 O29 2.122802 1_555
Li1 O9 2.128690 1_555
Li2 O56 2.009348 1_555
Li2 O19 2.025251 1_455
Li2 O55 2.050136 1_565
Li2 O11 2.159653 1_555
Li3 O20 1.890764 1_556
Li3 O7 1.966364 1_555
Li3 O23 1.998392 1_455
Li3 O14 2.373764 1_555
Li4 O34 1.881328 1_555
Li4 O53 1.937732 1_556
Li4 O52 2.054529 1_555
Li4 O16 2.285463 1_555
Li5 O27 2.032003 1_555
Li5 O19 2.056918 1_555
Li5 O17 2.100506 1_655
Li5 O32 2.227646 1_555
Li6 O28 1.967339 1_555
Li6 O35 2.013754 1_555
Li6 O22 2.059896 1_555
Li6 O37 2.062011 1_455
Li7 O41 1.885303 1_556
Li7 O33 2.163666 1_555
Li7 O39 2.196670 1_555
Li7 O51 2.288837 1_555
Li8 O53 1.977996 1_555
Li8 O8 2.028461 1_545
Li8 O7 2.033381 1_544
Li8 O50 2.249438 1_555
Li9 O35 2.025424 1_555
Li9 O28 2.094432 1_555
Li9 O0 2.154961 1_445
Li9 O56 2.566514 1_545
O0 P13 1.504305 1_565
O1 P1 1.565422 1_555
O1 V4 1.864789 1_565
O2 P8 1.472122 1_555
O3 P0 1.571590 1_555
O3 V2 1.853777 1_555
O4 P0 1.546734 1_555
O4 V5 1.880289 1_555
O5 P3 1.588411 1_555
O5 V4 1.903007 1_565
O6 P2 1.567837 1_555
O6 V4 1.858851 1_565
O7 P15 1.500561 1_565
O8 P5 1.554775 1_555
O8 V5 1.971427 1_555
O9 P4 1.594512 1_555
O9 V2 1.946000 1_555
O10 P1 1.517978 1_555
O10 V3 1.939091 1_555
O11 P4 1.576741 1_555
O11 V5 1.966106 1_555
O12 P3 1.485898 1_555
O13 P4 1.495375 1_555
O14 P3 1.593313 1_555
O14 V0 1.896199 1_455
O15 P7 1.564803 1_555
O15 V2 1.848121 1_555
O16 P3 1.560070 1_555
O16 V3 1.973873 1_555
O17 P2 1.537176 1_555
O17 V0 2.006673 1_455
O18 P6 1.612677 1_555
O18 P5 1.626193 1_655
O19 P6 1.515323 1_555
O20 P5 1.481453 1_555
O21 P5 1.548758 1_555
O21 V1 1.871071 1_455
O22 P4 1.563046 1_555
O22 V1 2.019511 1_455
O23 P8 1.547935 1_555
O23 V0 2.023315 1_555
O24 P9 1.535951 1_555
O24 V0 1.918825 1_455
O25 P9 1.551992 1_555
O25 V3 1.850243 1_555
O26 P1 1.600011 1_555
O26 P8 1.634769 1_555
O27 P1 1.509586 1_555
O28 P14 1.495543 1_555
O29 P6 1.561233 1_555
O29 V2 1.968377 1_555
O30 P6 1.519669 1_555
O30 V1 1.959063 1_555
O31 P7 1.521204 1_555
O31 V1 1.951781 1_455
O32 P11 1.594472 1_555
O32 V0 1.928279 1_555
O33 P10 1.562070 1_555
O33 V0 1.958496 1_555
O34 P10 1.475189 1_455
O35 P9 1.492626 1_555
O36 P9 1.609612 1_655
O36 P10 1.619372 1_555
O37 P13 1.548911 1_555
O37 V1 1.972062 1_555
O38 P12 1.601759 1_555
O38 V2 1.836722 1_555
O39 P8 1.563989 1_555
O39 V3 1.956981 1_555
O40 P12 1.544688 1_555
O40 V1 1.921092 1_555
O41 P12 1.499353 1_555
O42 P11 1.480599 1_555
O43 P11 1.616604 1_555
O43 V4 1.838892 1_555
O44 P14 1.546142 1_555
O44 V2 1.952213 1_555
O45 P11 1.544140 1_555
O45 V3 1.941181 1_555
O46 P10 1.565119 1_555
O46 V4 1.980846 1_555
O47 P0 1.604479 1_545
O47 P13 1.620807 1_555
O48 P0 1.472706 1_555
O49 P13 1.536693 1_555
O49 V5 1.932212 1_545
O50 P12 1.560913 1_555
O50 V5 1.982153 1_545
O51 P15 1.554237 1_555
O51 V4 2.000823 1_555
O52 P15 1.546093 1_555
O52 V3 2.012883 1_555
O53 P7 1.502263 1_555
O54 P7 1.604555 1_555
O54 P14 1.623100 1_555
O55 P14 1.551365 1_555
O55 V5 1.980660 1_545
O56 P2 1.490300 1_555
O57 P15 1.616629 1_555
O57 P2 1.618541 1_545
