# generated using pymatgen
data_Ti3Ni3(TeO8)2
_symmetry_space_group_name_H-M   'P 1'
_cell_length_a   5.97604477
_cell_length_b   5.97604477
_cell_length_c   9.23429384
_cell_angle_alpha   88.86574587
_cell_angle_beta   88.86574587
_cell_angle_gamma   59.26075015
_symmetry_Int_Tables_number   1
_chemical_formula_structural   Ti3Ni3(TeO8)2
_chemical_formula_sum   'Ti3 Ni3 Te2 O16'
_cell_volume   283.37777498
_cell_formula_units_Z   1
loop_
 _symmetry_equiv_pos_site_id
 _symmetry_equiv_pos_as_xyz
  1  'x, y, z'
loop_
 _atom_site_type_symbol
 _atom_site_label
 _atom_site_symmetry_multiplicity
 _atom_site_fract_x
 _atom_site_fract_y
 _atom_site_fract_z
 _atom_site_occupancy
  Ti  Ti0  1  0.33760400  0.83535300  0.79080200  1
  Ti  Ti1  1  0.83535300  0.33760400  0.79080200  1
  Ti  Ti2  1  0.15786200  0.15786200  0.28314200  1
  Ni  Ni0  1  0.82825100  0.82825100  0.79433500  1
  Ni  Ni1  1  0.16466100  0.65810100  0.29180800  1
  Ni  Ni2  1  0.65810100  0.16466100  0.29180800  1
  Te  Te0  1  0.67349600  0.67349600  0.51186900  1
  Te  Te1  1  0.33815700  0.33815700  0.01690200  1
  O  O0  1  0.35640800  0.83681100  0.39860000  1
  O  O1  1  0.52573500  0.52573500  0.65376200  1
  O  O2  1  0.64991500  0.64991500  0.89879500  1
  O  O3  1  0.00576200  0.00576200  0.70360500  1
  O  O4  1  0.99365800  0.99365800  0.19930400  1
  O  O5  1  0.83681100  0.35640800  0.39860000  1
  O  O6  1  0.51091100  0.95815300  0.65170600  1
  O  O7  1  0.95815300  0.51091100  0.65170600  1
  O  O8  1  0.18173200  0.18173200  0.89433900  1
  O  O9  1  0.83677600  0.83677600  0.40756300  1
  O  O10  1  0.03890700  0.46674400  0.15115000  1
  O  O11  1  0.46674400  0.03890700  0.15115000  1
  O  O12  1  0.33383900  0.33383900  0.38647600  1
  O  O13  1  0.18058100  0.65334700  0.90242700  1
  O  O14  1  0.47731000  0.47731000  0.16115900  1
  O  O15  1  0.65334700  0.18058100  0.90242700  1
loop_
_geom_bond_atom_site_label_1
_geom_bond_atom_site_label_2
_geom_bond_distance
_geom_bond_site_symmetry_2
Ni0 O3 2.008136 1_665
Ni0 O2 2.069251 1_555
Ni0 O15 2.077076 1_565
Ni0 O13 2.077076 1_655
Ni0 O6 2.118311 1_555
Ni0 O7 2.118311 1_555
Ni1 O12 1.872593 1_555
Ni1 O4 1.914966 1_455
Ni1 O9 1.986357 1_455
Ni1 O14 2.003129 1_555
Ni1 O10 2.129685 1_555
Ni1 O0 2.182566 1_555
Ni2 O12 1.872593 1_555
Ni2 O4 1.914966 1_545
Ni2 O9 1.986357 1_545
Ni2 O14 2.003129 1_555
Ni2 O11 2.129685 1_555
Ni2 O5 2.182566 1_555
O0 Te0 1.945456 1_555
O0 Ti2 1.966616 1_565
O1 Te0 1.995443 1_555
O1 Ti0 2.049099 1_555
O1 Ti1 2.049099 1_555
O2 Ti1 1.903034 1_555
O2 Ti0 1.903034 1_555
O3 Ti1 1.893247 1_455
O3 Ti0 1.893247 1_545
O4 Ti2 1.889377 1_665
O5 Te0 1.945456 1_555
O5 Ti2 1.966616 1_655
O6 Te0 1.962896 1_555
O6 Ti0 1.986960 1_555
O7 Te0 1.962896 1_555
O7 Ti1 1.986960 1_555
O8 Te1 2.001432 1_556
O8 Ti0 2.034352 1_545
O8 Ti1 2.034352 1_455
O9 Te0 1.931552 1_555
O10 Te1 1.967377 1_555
O10 Ti2 2.000520 1_555
O11 Te1 1.967377 1_555
O11 Ti2 2.000520 1_555
O12 Ti2 2.081463 1_555
O13 Te1 1.923402 1_556
O13 Ti0 2.021580 1_555
O14 Te1 1.988021 1_555
O15 Te1 1.923402 1_556
O15 Ti1 2.021580 1_555
