# generated using pymatgen
data_ErInO3
_symmetry_space_group_name_H-M   'P 1'
_cell_length_a   6.23832989
_cell_length_b   6.23832799
_cell_length_c   12.21741889
_cell_angle_alpha   90.00000063
_cell_angle_beta   89.99999774
_cell_angle_gamma   120.00008823
_symmetry_Int_Tables_number   1
_chemical_formula_structural   ErInO3
_chemical_formula_sum   'Er6 In6 O18'
_cell_volume   411.76198769
_cell_formula_units_Z   6
loop_
 _symmetry_equiv_pos_site_id
 _symmetry_equiv_pos_as_xyz
  1  'x, y, z'
loop_
 _atom_site_type_symbol
 _atom_site_label
 _atom_site_symmetry_multiplicity
 _atom_site_fract_x
 _atom_site_fract_y
 _atom_site_fract_z
 _atom_site_occupancy
  Er  Er0  1  0.33333577  0.66666745  0.23009571  1
  Er  Er1  1  0.00000109  0.00000040  0.26573107  1
  Er  Er2  1  0.99999971  0.00000102  0.76573216  1
  Er  Er3  1  0.33333022  0.66666179  0.73009542  1
  Er  Er4  1  0.66666236  0.33332977  0.73009579  1
  Er  Er5  1  0.66666303  0.33332848  0.23009596  1
  In  In0  1  -0.00000044  0.66660957  0.49589654  1
  In  In1  1  0.00000125  0.33339237  0.99589574  1
  In  In2  1  0.33339063  0.33339087  0.49589596  1
  In  In3  1  0.66660955  0.66660965  0.99589498  1
  In  In4  1  0.33339190  0.00000100  0.99589514  1
  In  In5  1  0.66660899  -0.00000034  0.49589605  1
  O  O0  1  0.00000030  0.69620291  0.66837202  1
  O  O1  1  0.00000047  0.63466929  0.32561751  1
  O  O2  1  0.00000023  0.36533130  0.82561744  1
  O  O3  1  0.00000043  0.30379855  0.16837321  1
  O  O4  1  0.33333322  0.66666671  0.02739787  1
  O  O5  1  0.00000168  0.00000316  0.46088014  1
  O  O6  1  -0.00000018  -0.00000016  0.96088271  1
  O  O7  1  0.33333377  0.66666763  0.52739704  1
  O  O8  1  0.30379777  0.30379806  0.66837253  1
  O  O9  1  0.36533270  0.36533229  0.32561724  1
  O  O10  1  0.30379927  0.00000101  0.16837320  1
  O  O11  1  0.63466838  0.63466876  0.82561755  1
  O  O12  1  0.69620163  0.69620196  0.16837303  1
  O  O13  1  0.36533136  0.00000067  0.82561758  1
  O  O14  1  0.66666740  0.33333423  0.52739715  1
  O  O15  1  0.66666625  0.33333301  0.02739782  1
  O  O16  1  0.63466763  0.00000023  0.32561726  1
  O  O17  1  0.69620264  0.00000035  0.66837217  1
loop_
_geom_bond_atom_site_label_1
_geom_bond_atom_site_label_2
_geom_bond_distance
_geom_bond_site_symmetry_2
Er0 O12 2.304292 1_555
Er0 O3 2.304308 1_555
Er0 O10 2.304310 1_565
Er0 O16 2.304504 1_565
Er0 O9 2.304512 1_555
Er0 O1 2.304528 1_555
Er0 O4 2.476444 1_555
Er1 O10 2.237537 1_555
Er1 O3 2.237539 1_555
Er1 O12 2.237541 1_445
Er1 O5 2.384218 1_555
Er1 O1 2.393618 1_545
Er1 O9 2.393620 1_555
Er1 O16 2.393633 1_455
Er2 O8 2.237544 1_655
Er2 O17 2.237544 1_555
Er2 O0 2.237554 1_645
Er2 O6 2.384236 1_655
Er2 O2 2.393609 1_655
Er2 O11 2.393617 1_545
Er2 O13 2.393621 1_655
Er3 O8 2.304285 1_555
Er3 O0 2.304308 1_555
Er3 O17 2.304331 1_565
Er3 O2 2.304495 1_555
Er3 O11 2.304520 1_555
Er3 O13 2.304542 1_565
Er3 O7 2.476451 1_555
Er4 O8 2.304294 1_555
Er4 O17 2.304303 1_555
Er4 O0 2.304334 1_655
Er4 O13 2.304492 1_555
Er4 O11 2.304525 1_555
Er4 O2 2.304533 1_655
Er4 O14 2.476454 1_555
Er5 O10 2.304272 1_555
Er5 O3 2.304313 1_655
Er5 O12 2.304326 1_555
Er5 O16 2.304493 1_555
Er5 O9 2.304506 1_555
Er5 O1 2.304539 1_655
Er5 O15 2.476448 1_555
In0 O1 2.089891 1_555
In0 O14 2.114573 1_455
In0 O7 2.114584 1_555
In0 O0 2.115277 1_555
In0 O5 2.123356 1_565
In1 O2 2.089881 1_555
In1 O4 2.114573 1_556
In1 O15 2.114589 1_456
In1 O3 2.115301 1_556
In1 O6 2.123343 1_555
In2 O9 2.089888 1_555
In2 O7 2.114585 1_555
In2 O14 2.114585 1_555
In2 O8 2.115290 1_555
In2 O5 2.123326 1_555
In3 O11 2.089872 1_555
In3 O4 2.114588 1_556
In3 O15 2.114588 1_556
In3 O12 2.115307 1_556
In3 O6 2.123329 1_665
In4 O13 2.089872 1_555
In4 O15 2.114574 1_556
In4 O4 2.114587 1_546
In4 O10 2.115308 1_556
In4 O6 2.123340 1_555
In5 O16 2.089888 1_555
In5 O7 2.114573 1_545
In5 O14 2.114586 1_555
In5 O17 2.115285 1_555
In5 O5 2.123345 1_655
