# generated using pymatgen
data_Li3MnO2F
_symmetry_space_group_name_H-M   'P 1'
_cell_length_a   9.02285000
_cell_length_b   9.97236000
_cell_length_c   3.55013000
_cell_angle_alpha   89.99999425
_cell_angle_beta   89.99999365
_cell_angle_gamma   90.00002419
_symmetry_Int_Tables_number   1
_chemical_formula_structural   Li3MnO2F
_chemical_formula_sum   'Li12 Mn4 O8 F4'
_cell_volume   319.43753220
_cell_formula_units_Z   4
loop_
 _symmetry_equiv_pos_site_id
 _symmetry_equiv_pos_as_xyz
  1  'x, y, z'
loop_
 _atom_site_type_symbol
 _atom_site_label
 _atom_site_symmetry_multiplicity
 _atom_site_fract_x
 _atom_site_fract_y
 _atom_site_fract_z
 _atom_site_occupancy
  Li  Li0  1  0.09544500  0.34358200  0.50000000  1
  Li  Li1  1  0.15362000  0.57206400  0.00000100  1
  Li  Li2  1  0.16726400  0.18043600  0.00000000  1
  Li  Li3  1  0.33273800  0.68043700  0.50000000  1
  Li  Li4  1  0.34638200  0.07206400  0.50000000  1
  Li  Li5  1  0.40455700  0.84358300  0.00000100  1
  Li  Li6  1  0.59544700  0.15642000  0.00000100  1
  Li  Li7  1  0.65361900  0.92793800  0.50000000  1
  Li  Li8  1  0.66726500  0.31956500  0.50000000  1
  Li  Li9  1  0.83273800  0.81956400  0.00000000  1
  Li  Li10  1  0.84638200  0.42793900  0.00000000  1
  Li  Li11  1  0.90455500  0.65641900  0.50000000  1
  Mn  Mn0  1  0.11528900  0.89820200  0.49999800  1
  Mn  Mn1  1  0.38471200  0.39820100  0.00000300  1
  Mn  Mn2  1  0.61527500  0.60179500  0.99999400  1
  Mn  Mn3  1  0.88471500  0.10177900  0.49999300  1
  O  O0  1  0.10605100  0.11638100  0.50000100  1
  O  O1  1  0.16983100  0.37813400  0.00000200  1
  O  O2  1  0.33017200  0.87813200  0.50000100  1
  O  O3  1  0.39394300  0.61638300  0.00000100  1
  O  O4  1  0.60604800  0.38362000  0.00000000  1
  O  O5  1  0.66983000  0.12186900  0.49999800  1
  O  O6  1  0.83016300  0.62186900  0.00000100  1
  O  O7  1  0.89395200  0.88361800  0.50000100  1
  F  F0  1  0.11768700  0.64540600  0.50000000  1
  F  F1  1  0.38231700  0.14540800  0.00000100  1
  F  F2  1  0.61768600  0.85459500  0.00000000  1
  F  F3  1  0.88231600  0.35459600  0.49999900  1
loop_
_geom_bond_atom_site_label_1
_geom_bond_atom_site_label_2
_geom_bond_distance
_geom_bond_site_symmetry_2
Li0 O1 1.928738 1_555
Li0 O1 1.928751 1_556
Li0 O0 2.267750 1_555
Li1 O1 1.939463 1_555
Li1 O3 2.212981 1_555
Li2 O0 1.965690 1_554
Li2 O0 1.965696 1_555
Li2 O1 1.971652 1_555
Li3 O3 1.965666 1_555
Li3 O3 1.965672 1_556
Li3 O2 1.971622 1_555
Li4 O2 1.939482 1_545
Li4 O0 2.213048 1_555
Li5 O2 1.928736 1_555
Li5 O2 1.928736 1_554
Li5 O3 2.267743 1_555
Li6 O5 1.928723 1_555
Li6 O5 1.928743 1_554
Li6 O4 2.267738 1_555
Li7 O5 1.939473 1_565
Li7 O7 2.213072 1_555
Li8 O4 1.965703 1_555
Li8 O4 1.965703 1_556
Li8 O5 1.971632 1_555
Li9 O7 1.965689 1_554
Li9 O7 1.965695 1_555
Li9 O6 1.971623 1_555
Li10 O6 1.939469 1_555
Li10 O4 2.213078 1_555
Li11 O6 1.928756 1_555
Li11 O6 1.928763 1_556
Li11 O7 2.267729 1_555
Mn0 O2 1.949160 1_555
Mn0 O7 2.002379 1_455
Mn0 O0 2.177356 1_565
Mn1 O1 1.949139 1_555
Mn1 O4 2.002368 1_555
Mn1 O3 2.177383 1_555
Mn2 O6 1.949209 1_556
Mn2 O3 2.002337 1_556
Mn2 O4 2.177312 1_556
Mn3 O5 1.949199 1_555
Mn3 O0 2.002383 1_655
Mn3 O7 2.177176 1_545
F0 Li11 1.926192 1_455
F0 Li1 1.947022 1_555
F0 Li1 1.947029 1_556
F0 Li3 1.971569 1_555
F0 Mn0 2.521066 1_555
F1 Li6 1.926173 1_555
F1 Li4 1.947033 1_555
F1 Li4 1.947039 1_554
F1 Li2 1.971582 1_555
F1 Mn1 2.521035 1_555
F2 Li5 1.926164 1_555
F2 Li7 1.947029 1_554
F2 Li7 1.947029 1_555
F2 Li9 1.971579 1_555
F2 Mn2 2.521106 1_554
F3 Li0 1.926165 1_655
F3 Li10 1.947028 1_555
F3 Li10 1.947034 1_556
F3 Li8 1.971569 1_555
F3 Mn3 2.521275 1_555
