# generated using pymatgen
data_Li3Fe(PO4)2
_symmetry_space_group_name_H-M   'P 1'
_cell_length_a   4.70427601
_cell_length_b   13.79150440
_cell_length_c   9.14327636
_cell_angle_alpha   79.55213137
_cell_angle_beta   89.99446806
_cell_angle_gamma   99.81911776
_symmetry_Int_Tables_number   1
_chemical_formula_structural   Li3Fe(PO4)2
_chemical_formula_sum   'Li12 Fe4 P8 O32'
_cell_volume   574.53140363
_cell_formula_units_Z   4
loop_
 _symmetry_equiv_pos_site_id
 _symmetry_equiv_pos_as_xyz
  1  'x, y, z'
loop_
 _atom_site_type_symbol
 _atom_site_label
 _atom_site_symmetry_multiplicity
 _atom_site_fract_x
 _atom_site_fract_y
 _atom_site_fract_z
 _atom_site_occupancy
  Li  Li0  1  0.32732500  0.75101100  0.62399900  1
  Li  Li1  1  0.82732600  0.75100900  0.12401200  1
  Li  Li2  1  0.17213900  0.25097400  0.87410700  1
  Li  Li3  1  0.67213900  0.25098100  0.37409600  1
  Li  Li4  1  0.29636000  0.65833400  0.33850400  1
  Li  Li5  1  0.79636000  0.65833600  0.83849500  1
  Li  Li6  1  0.11013300  0.15809800  0.58826400  1
  Li  Li7  1  0.61015000  0.15809600  0.08825700  1
  Li  Li8  1  0.88919600  0.84378600  0.40959900  1
  Li  Li9  1  0.38919800  0.84377100  0.90959700  1
  Li  Li10  1  0.70238700  0.34359700  0.66031200  1
  Li  Li11  1  0.20239200  0.34360400  0.16031000  1
  Fe  Fe0  1  0.24931800  0.50090800  0.75006500  1
  Fe  Fe1  1  0.99996000  0.00092900  0.99859100  1
  Fe  Fe2  1  0.74937400  0.50096900  0.25005500  1
  Fe  Fe3  1  0.49982500  0.00091800  0.49863800  1
  P  P0  1  0.42444300  0.88606400  0.21401800  1
  P  P1  1  0.92440700  0.88606800  0.71402700  1
  P  P2  1  0.20992100  0.38602700  0.46509500  1
  P  P3  1  0.70992100  0.38603200  0.96510900  1
  P  P4  1  0.78901400  0.61590500  0.53455100  1
  P  P5  1  0.28900300  0.61589400  0.03453400  1
  P  P6  1  0.57526400  0.11569200  0.78356200  1
  P  P7  1  0.07523700  0.11569400  0.28356200  1
  O  O0  1  0.16610900  0.86809600  0.10684700  1
  O  O1  1  0.66606700  0.86809900  0.60686300  1
  O  O2  1  0.45046200  0.36817200  0.35801600  1
  O  O3  1  0.95046600  0.36816900  0.85801300  1
  O  O4  1  0.54895300  0.63388800  0.64187000  1
  O  O5  1  0.04894900  0.63388800  0.14186700  1
  O  O6  1  0.83343900  0.13366900  0.89080900  1
  O  O7  1  0.33340200  0.13366900  0.39081200  1
  O  O8  1  0.65454700  0.96923500  0.12631600  1
  O  O9  1  0.15449900  0.96924100  0.62631500  1
  O  O10  1  0.06298300  0.46925300  0.37759800  1
  O  O11  1  0.56298700  0.46925200  0.87758500  1
  O  O12  1  0.93603100  0.53272600  0.62225200  1
  O  O13  1  0.43600900  0.53272100  0.12226100  1
  O  O14  1  0.34529600  0.03232100  0.87106500  1
  O  O15  1  0.84526400  0.03232600  0.37105400  1
  O  O16  1  0.55792100  0.79115800  0.26546900  1
  O  O17  1  0.05789400  0.79115900  0.76545800  1
  O  O18  1  0.98163700  0.29099900  0.51602500  1
  O  O19  1  0.48164700  0.29099600  0.01601600  1
  O  O20  1  0.01736800  0.71080000  0.48285700  1
  O  O21  1  0.51735900  0.71079500  0.98287000  1
  O  O22  1  0.44146800  0.21059100  0.73264000  1
  O  O23  1  0.94145400  0.21059000  0.23262100  1
  O  O24  1  0.63873400  0.58552900  0.39336200  1
  O  O25  1  0.13873700  0.58552400  0.89334900  1
  O  O26  1  0.69481100  0.08561900  0.64207500  1
  O  O27  1  0.19483200  0.08561800  0.14208700  1
  O  O28  1  0.30479500  0.91630100  0.35532600  1
  O  O29  1  0.80480200  0.91629700  0.85534700  1
  O  O30  1  0.35920600  0.41609200  0.60669400  1
  O  O31  1  0.85919900  0.41609900  0.10670500  1
loop_
_geom_bond_atom_site_label_1
_geom_bond_atom_site_label_2
_geom_bond_distance
_geom_bond_site_symmetry_2
Li0 O20 2.020689 1_555
Li0 O17 2.021078 1_555
Li0 O4 2.049788 1_555
Li0 O1 2.049891 1_555
Li1 O21 2.020731 1_554
Li1 O16 2.020989 1_555
Li1 O5 2.049759 1_655
Li1 O0 2.049989 1_655
Li2 O22 2.022417 1_555
Li2 O19 2.023406 1_556
Li2 O3 2.051870 1_455
Li2 O6 2.051954 1_455
Li3 O23 2.022479 1_555
Li3 O18 2.023486 1_555
Li3 O2 2.051843 1_555
Li3 O7 2.052119 1_555
Li4 O16 2.025585 1_555
Li4 O24 2.054988 1_555
Li4 O20 2.158261 1_555
Li4 O5 2.187963 1_555
Li5 O17 2.025520 1_655
Li5 O25 2.055050 1_655
Li5 O21 2.158372 1_555
Li5 O4 2.187866 1_555
Li6 O18 2.024870 1_455
Li6 O26 2.052773 1_455
Li6 O22 2.158319 1_555
Li6 O7 2.194750 1_555
Li7 O19 2.024875 1_555
Li7 O27 2.052779 1_555
Li7 O23 2.158152 1_555
Li7 O6 2.194756 1_554
Li8 O20 2.026761 1_655
Li8 O28 2.054687 1_655
Li8 O16 2.157222 1_555
Li8 O1 2.192342 1_555
Li9 O21 2.026637 1_555
Li9 O29 2.054718 1_555
Li9 O17 2.157296 1_555
Li9 O0 2.192201 1_556
Li10 O22 2.025022 1_555
Li10 O30 2.054078 1_555
Li10 O18 2.159665 1_555
Li10 O3 2.198190 1_555
Li11 O23 2.025119 1_455
Li11 O31 2.054109 1_455
Li11 O19 2.159799 1_555
Li11 O2 2.198195 1_555
Fe0 O11 1.939804 1_555
Fe0 O12 1.940421 1_455
Fe0 O25 2.027361 1_555
Fe0 O30 2.028837 1_555
Fe0 O3 2.183714 1_455
Fe0 O4 2.188385 1_555
Fe1 O14 1.939805 1_655
Fe1 O8 1.941000 1_546
Fe1 O29 2.027256 1_545
Fe1 O27 2.028994 1_656
Fe1 O6 2.184307 1_555
Fe1 O0 2.185779 1_646
Fe2 O10 1.939900 1_655
Fe2 O13 1.940393 1_555
Fe2 O24 2.027048 1_555
Fe2 O31 2.029137 1_555
Fe2 O2 2.184408 1_555
Fe2 O5 2.187681 1_655
Fe3 O9 1.940433 1_545
Fe3 O15 1.940484 1_555
Fe3 O28 2.027382 1_545
Fe3 O26 2.028880 1_555
Fe3 O7 2.184320 1_555
Fe3 O1 2.185755 1_545
O0 P0 1.576094 1_555
O1 P1 1.576076 1_555
O2 P2 1.575405 1_555
O3 P3 1.575563 1_555
O4 P4 1.575844 1_555
O5 P5 1.575962 1_555
O6 P6 1.576007 1_555
O7 P7 1.575986 1_555
O8 P0 1.540530 1_555
O9 P1 1.540548 1_455
O10 P2 1.540448 1_555
O11 P3 1.540472 1_555
O12 P4 1.540908 1_555
O13 P5 1.540910 1_555
O14 P6 1.540928 1_555
O15 P7 1.540881 1_655
O16 P0 1.544622 1_555
O17 P1 1.544653 1_455
O18 P2 1.544753 1_655
O19 P3 1.544771 1_554
O20 P4 1.544745 1_455
O21 P5 1.544764 1_556
O22 P6 1.544641 1_555
O23 P7 1.544597 1_655
O24 P4 1.561120 1_555
O25 P5 1.561033 1_556
O26 P6 1.560720 1_555
O27 P7 1.560735 1_555
O28 P0 1.560559 1_555
O29 P1 1.560520 1_555
O30 P2 1.561047 1_555
O31 P3 1.561019 1_554
