# generated using pymatgen
data_Li3VBPO7
_symmetry_space_group_name_H-M   'P 1'
_cell_length_a   6.41266200
_cell_length_b   5.05812500
_cell_length_c   8.48537535
_cell_angle_alpha   84.41773849
_cell_angle_beta   90.00000000
_cell_angle_gamma   90.00000000
_symmetry_Int_Tables_number   1
_chemical_formula_structural   Li3VBPO7
_chemical_formula_sum   'Li6 V2 B2 P2 O14'
_cell_volume   273.92675472
_cell_formula_units_Z   2
loop_
 _symmetry_equiv_pos_site_id
 _symmetry_equiv_pos_as_xyz
  1  'x, y, z'
loop_
 _atom_site_type_symbol
 _atom_site_label
 _atom_site_symmetry_multiplicity
 _atom_site_fract_x
 _atom_site_fract_y
 _atom_site_fract_z
 _atom_site_occupancy
  Li  Li0  1  0.75000000  0.24407600  0.90761400  1
  Li  Li1  1  0.00398900  0.74465600  0.76691600  1
  Li  Li2  1  0.49601100  0.74465600  0.76691600  1
  Li  Li3  1  0.50398900  0.25534400  0.23308400  1
  Li  Li4  1  0.99601100  0.25534400  0.23308400  1
  Li  Li5  1  0.25000000  0.75592400  0.09238600  1
  V  V0  1  0.25000000  0.21013800  0.67661700  1
  V  V1  1  0.75000000  0.78986200  0.32338300  1
  B  B0  1  0.25000000  0.28574300  0.95778000  1
  B  B1  1  0.75000000  0.71425700  0.04222000  1
  P  P0  1  0.75000000  0.26773800  0.58227800  1
  P  P1  1  0.25000000  0.73226200  0.41772200  1
  O  O0  1  0.75000000  0.64217500  0.89276200  1
  O  O1  1  0.25000000  0.02822600  0.91214800  1
  O  O2  1  0.25000000  0.48238500  0.82534600  1
  O  O3  1  0.93756100  0.17223800  0.69037400  1
  O  O4  1  0.56243900  0.17223800  0.69037400  1
  O  O5  1  0.75000000  0.57301100  0.54713300  1
  O  O6  1  0.25000000  0.86020900  0.57552800  1
  O  O7  1  0.75000000  0.13979100  0.42447200  1
  O  O8  1  0.25000000  0.42698900  0.45286700  1
  O  O9  1  0.43756100  0.82776200  0.30962600  1
  O  O10  1  0.06243900  0.82776200  0.30962600  1
  O  O11  1  0.75000000  0.51761500  0.17465400  1
  O  O12  1  0.75000000  0.97177400  0.08785200  1
  O  O13  1  0.25000000  0.35782500  0.10723800  1
loop_
_geom_bond_atom_site_label_1
_geom_bond_atom_site_label_2
_geom_bond_distance
_geom_bond_site_symmetry_2
Li0 O12 1.956085 1_546
Li0 O0 2.005302 1_555
Li0 O4 2.259862 1_555
Li0 O3 2.259862 1_555
Li1 O0 1.988499 1_455
Li1 O2 2.089617 1_555
Li1 O3 2.237757 1_465
Li1 O6 2.298500 1_555
Li1 O1 2.531532 1_565
Li1 O5 2.683206 1_455
Li2 O0 1.988499 1_555
Li2 O2 2.089617 1_555
Li2 O4 2.237757 1_565
Li2 O6 2.298500 1_555
Li2 O1 2.531532 1_565
Li2 O5 2.683206 1_555
Li3 O13 1.988499 1_555
Li3 O11 2.089617 1_555
Li3 O9 2.237757 1_545
Li3 O7 2.298500 1_555
Li3 O12 2.531532 1_545
Li3 O8 2.683206 1_555
Li4 O13 1.988499 1_655
Li4 O11 2.089617 1_555
Li4 O10 2.237757 1_645
Li4 O7 2.298500 1_555
Li4 O12 2.531532 1_545
Li4 O8 2.683206 1_655
Li5 O1 1.956085 1_564
Li5 O13 2.005302 1_555
Li5 O9 2.259862 1_555
Li5 O10 2.259862 1_555
B0 O13 1.353233 1_556
B0 O1 1.394523 1_555
B0 O2 1.426420 1_555
B1 O0 1.353233 1_554
B1 O12 1.394523 1_555
B1 O11 1.426420 1_555
O1 V0 2.117347 1_555
O2 V0 1.956296 1_555
O3 P0 1.560482 1_555
O3 V0 2.015018 1_655
O4 P0 1.560482 1_555
O4 V0 2.015018 1_555
O5 P0 1.543898 1_555
O5 V1 2.098248 1_555
O6 P1 1.542875 1_555
O6 V0 2.040589 1_565
O7 P0 1.542875 1_555
O7 V1 2.040589 1_545
O8 P1 1.543898 1_555
O8 V0 2.098248 1_555
O9 P1 1.560482 1_555
O9 V1 2.015018 1_555
O10 P1 1.560482 1_555
O10 V1 2.015018 1_455
O11 V1 1.956296 1_555
O12 V1 2.117347 1_555
