# generated using pymatgen
data_LuTa3O9
_symmetry_space_group_name_H-M   'P 1'
_cell_length_a   6.43588500
_cell_length_b   7.62050400
_cell_length_c   12.61096000
_cell_angle_alpha   90.00000000
_cell_angle_beta   90.00000000
_cell_angle_gamma   90.00000000
_symmetry_Int_Tables_number   1
_chemical_formula_structural   LuTa3O9
_chemical_formula_sum   'Lu4 Ta12 O36'
_cell_volume   618.50059084
_cell_formula_units_Z   4
loop_
 _symmetry_equiv_pos_site_id
 _symmetry_equiv_pos_as_xyz
  1  'x, y, z'
loop_
 _atom_site_type_symbol
 _atom_site_label
 _atom_site_symmetry_multiplicity
 _atom_site_fract_x
 _atom_site_fract_y
 _atom_site_fract_z
 _atom_site_occupancy
  Lu  Lu0  1  0.05498100  0.25000000  0.45877400  1
  Lu  Lu1  1  0.44501900  0.75000000  0.95877400  1
  Lu  Lu2  1  0.55498100  0.25000000  0.04122600  1
  Lu  Lu3  1  0.94501900  0.75000000  0.54122600  1
  Ta  Ta0  1  0.00000000  0.00000000  0.00000000  1
  Ta  Ta1  1  0.00000000  0.50000000  0.00000000  1
  Ta  Ta2  1  0.20528700  0.00266000  0.71257300  1
  Ta  Ta3  1  0.20528700  0.49734000  0.71257300  1
  Ta  Ta4  1  0.29471300  0.50266000  0.21257300  1
  Ta  Ta5  1  0.29471300  0.99734000  0.21257300  1
  Ta  Ta6  1  0.50000000  0.00000000  0.50000000  1
  Ta  Ta7  1  0.50000000  0.50000000  0.50000000  1
  Ta  Ta8  1  0.70528700  0.00266000  0.78742700  1
  Ta  Ta9  1  0.70528700  0.49734000  0.78742700  1
  Ta  Ta10  1  0.79471300  0.50266000  0.28742700  1
  Ta  Ta11  1  0.79471300  0.99734000  0.28742700  1
  O  O0  1  0.01600500  0.04241300  0.84288300  1
  O  O1  1  0.01600500  0.45758700  0.84288300  1
  O  O2  1  0.08753300  0.75000000  0.97504600  1
  O  O3  1  0.10236700  0.03925700  0.33307800  1
  O  O4  1  0.10236700  0.46074300  0.33307800  1
  O  O5  1  0.16515200  0.25000000  0.66967000  1
  O  O6  1  0.20617500  0.75000000  0.69674700  1
  O  O7  1  0.20456200  0.54107500  0.53596000  1
  O  O8  1  0.20456200  0.95892500  0.53596000  1
  O  O9  1  0.29543800  0.45892500  0.03596000  1
  O  O10  1  0.29543800  0.04107500  0.03596000  1
  O  O11  1  0.29382500  0.25000000  0.19674700  1
  O  O12  1  0.33484800  0.75000000  0.16967000  1
  O  O13  1  0.39763300  0.53925700  0.83307800  1
  O  O14  1  0.39763300  0.96074300  0.83307800  1
  O  O15  1  0.41246700  0.25000000  0.47504600  1
  O  O16  1  0.48399500  0.54241300  0.34288300  1
  O  O17  1  0.48399500  0.95758700  0.34288300  1
  O  O18  1  0.51600500  0.04241300  0.65711700  1
  O  O19  1  0.51600500  0.45758700  0.65711700  1
  O  O20  1  0.58753300  0.75000000  0.52495400  1
  O  O21  1  0.60236700  0.03925700  0.16692200  1
  O  O22  1  0.60236700  0.46074300  0.16692200  1
  O  O23  1  0.66515200  0.25000000  0.83033000  1
  O  O24  1  0.70617500  0.75000000  0.80325300  1
  O  O25  1  0.70456200  0.54107500  0.96404000  1
  O  O26  1  0.70456200  0.95892500  0.96404000  1
  O  O27  1  0.79543800  0.04107500  0.46404000  1
  O  O28  1  0.79543800  0.45892500  0.46404000  1
  O  O29  1  0.79382500  0.25000000  0.30325300  1
  O  O30  1  0.83484800  0.75000000  0.33033000  1
  O  O31  1  0.89763300  0.53925700  0.66692200  1
  O  O32  1  0.89763300  0.96074300  0.66692200  1
  O  O33  1  0.91246700  0.25000000  0.02495400  1
  O  O34  1  0.98399500  0.54241300  0.15711700  1
  O  O35  1  0.98399500  0.95758700  0.15711700  1
loop_
_geom_bond_atom_site_label_1
_geom_bond_atom_site_label_2
_geom_bond_distance
_geom_bond_site_symmetry_2
Lu0 O4 2.277023 1_555
Lu0 O3 2.277023 1_555
Lu0 O27 2.308557 1_455
Lu0 O28 2.308557 1_455
Lu0 O15 2.309872 1_555
Lu0 O29 2.582937 1_455
Lu0 O7 2.606605 1_555
Lu0 O8 2.606605 1_545
Lu0 O5 2.752495 1_555
Lu1 O14 2.277023 1_555
Lu1 O13 2.277023 1_555
Lu1 O25 2.308557 1_555
Lu1 O26 2.308557 1_555
Lu1 O2 2.309872 1_555
Lu1 O24 2.582937 1_555
Lu1 O9 2.606605 1_556
Lu1 O10 2.606605 1_566
Lu1 O12 2.752495 1_556
Lu2 O21 2.277023 1_555
Lu2 O22 2.277023 1_555
Lu2 O10 2.308557 1_555
Lu2 O9 2.308557 1_555
Lu2 O33 2.309872 1_555
Lu2 O11 2.582937 1_555
Lu2 O25 2.606605 1_554
Lu2 O26 2.606605 1_544
Lu2 O23 2.752495 1_554
Lu3 O32 2.277023 1_555
Lu3 O31 2.277023 1_555
Lu3 O8 2.308557 1_655
Lu3 O7 2.308557 1_655
Lu3 O20 2.309872 1_555
Lu3 O6 2.582937 1_655
Lu3 O27 2.606605 1_565
Lu3 O28 2.606605 1_555
Lu3 O30 2.752495 1_555
O0 Ta0 2.010225 1_556
O0 Ta2 2.067927 1_555
O0 Ta8 2.140058 1_455
O1 Ta1 2.010225 1_556
O1 Ta3 2.067927 1_555
O1 Ta9 2.140058 1_455
O2 Ta0 2.011443 1_566
O2 Ta1 2.011443 1_556
O3 Ta5 1.985928 1_545
O3 Ta11 2.086617 1_445
O4 Ta4 1.985928 1_555
O4 Ta10 2.086617 1_455
O5 Ta3 1.977912 1_555
O5 Ta2 1.977912 1_555
O6 Ta3 1.935721 1_555
O6 Ta2 1.935721 1_565
O7 Ta7 1.979639 1_555
O7 Ta3 2.252062 1_555
O8 Ta6 1.979639 1_565
O8 Ta2 2.252062 1_565
O9 Ta1 1.979639 1_555
O9 Ta4 2.252062 1_555
O10 Ta0 1.979639 1_555
O10 Ta5 2.252062 1_545
O11 Ta5 1.935721 1_545
O11 Ta4 1.935721 1_555
O12 Ta5 1.977912 1_555
O12 Ta4 1.977912 1_555
O13 Ta3 1.985928 1_555
O13 Ta9 2.086617 1_555
O14 Ta2 1.985928 1_565
O14 Ta8 2.086617 1_565
O15 Ta6 2.011443 1_555
O15 Ta7 2.011443 1_555
O16 Ta7 2.010225 1_555
O16 Ta4 2.067927 1_555
O16 Ta10 2.140058 1_555
O17 Ta6 2.010225 1_565
O17 Ta5 2.067927 1_555
O17 Ta11 2.140058 1_555
O18 Ta6 2.010225 1_555
O18 Ta8 2.067927 1_555
O18 Ta2 2.140058 1_555
O19 Ta7 2.010225 1_555
O19 Ta9 2.067927 1_555
O19 Ta3 2.140058 1_555
O20 Ta7 2.011443 1_555
O20 Ta6 2.011443 1_565
O21 Ta11 1.985928 1_545
O21 Ta5 2.086617 1_545
O22 Ta10 1.985928 1_555
O22 Ta4 2.086617 1_555
O23 Ta9 1.977912 1_555
O23 Ta8 1.977912 1_555
O24 Ta9 1.935721 1_555
O24 Ta8 1.935721 1_565
O25 Ta1 1.979639 1_656
O25 Ta9 2.252062 1_555
O26 Ta0 1.979639 1_666
O26 Ta8 2.252062 1_565
O27 Ta6 1.979639 1_555
O27 Ta11 2.252062 1_545
O28 Ta7 1.979639 1_555
O28 Ta10 2.252062 1_555
O29 Ta11 1.935721 1_545
O29 Ta10 1.935721 1_555
O30 Ta11 1.977912 1_555
O30 Ta10 1.977912 1_555
O31 Ta9 1.985928 1_555
O31 Ta3 2.086617 1_655
O32 Ta8 1.985928 1_565
O32 Ta2 2.086617 1_665
O33 Ta1 2.011443 1_655
O33 Ta0 2.011443 1_655
O34 Ta1 2.010225 1_655
O34 Ta10 2.067927 1_555
O34 Ta4 2.140058 1_655
O35 Ta0 2.010225 1_665
O35 Ta11 2.067927 1_555
O35 Ta5 2.140058 1_655
