# generated using pymatgen
data_VOF
_symmetry_space_group_name_H-M   'P 1'
_cell_length_a   4.66472400
_cell_length_b   5.66668990
_cell_length_c   7.87869433
_cell_angle_alpha   85.96365247
_cell_angle_beta   88.79196912
_cell_angle_gamma   88.55907413
_symmetry_Int_Tables_number   1
_chemical_formula_structural   VOF
_chemical_formula_sum   'V6 O6 F6'
_cell_volume   207.64059999
_cell_formula_units_Z   6
loop_
 _symmetry_equiv_pos_site_id
 _symmetry_equiv_pos_as_xyz
  1  'x, y, z'
loop_
 _atom_site_type_symbol
 _atom_site_label
 _atom_site_symmetry_multiplicity
 _atom_site_fract_x
 _atom_site_fract_y
 _atom_site_fract_z
 _atom_site_occupancy
  V  V0  1  0.52003600  0.83170300  0.64877700  1
  V  V1  1  0.50000000  0.50000000  0.00000000  1
  V  V2  1  0.47996400  0.16829700  0.35122300  1
  V  V3  1  0.01509600  0.34027800  0.68521700  1
  V  V4  1  0.98490400  0.65972200  0.31478300  1
  V  V5  1  0.00000000  0.00000000  0.00000000  1
  O  O0  1  0.80817500  0.71024700  0.09160700  1
  O  O1  1  0.68862400  0.53858000  0.76532200  1
  O  O2  1  0.70801500  0.87499600  0.42630800  1
  O  O3  1  0.29198500  0.12500400  0.57369200  1
  O  O4  1  0.31137600  0.46142000  0.23467800  1
  O  O5  1  0.19182500  0.28975300  0.90839300  1
  F  F0  1  0.80202400  0.36689900  0.44289000  1
  F  F1  1  0.79408900  0.03834100  0.77192100  1
  F  F2  1  0.70274800  0.19727300  0.11226900  1
  F  F3  1  0.29725200  0.80272700  0.88773100  1
  F  F4  1  0.20591100  0.96165900  0.22807900  1
  F  F5  1  0.19797600  0.63310100  0.55711000  1
loop_
_geom_bond_atom_site_label_1
_geom_bond_atom_site_label_2
_geom_bond_distance
_geom_bond_site_symmetry_2
O0 V4 1.957477 1_555
O0 V5 1.974183 1_665
O0 V1 2.063456 1_555
O1 V3 1.988349 1_655
O1 V0 1.992653 1_555
O1 V1 2.030959 1_556
O2 V0 1.945958 1_555
O2 V4 1.988029 1_555
O2 V2 2.010774 1_565
O3 V2 1.945958 1_555
O3 V3 1.988029 1_555
O3 V0 2.010774 1_545
O4 V4 1.988349 1_455
O4 V2 1.992653 1_555
O4 V1 2.030959 1_555
O5 V3 1.957477 1_555
O5 V5 1.974183 1_556
O5 V1 2.063456 1_556
F0 V2 2.071311 1_555
F0 V4 2.073399 1_555
F0 V3 2.165107 1_655
F1 V5 2.050903 1_656
F1 V0 2.057723 1_545
F1 V3 2.086005 1_655
F2 V5 1.991043 1_655
F2 V1 2.087998 1_555
F2 V2 2.129289 1_555
F3 V5 1.991043 1_566
F3 V1 2.087998 1_556
F3 V0 2.129289 1_555
F4 V5 2.050903 1_565
F4 V2 2.057723 1_565
F4 V4 2.086005 1_455
F5 V0 2.071311 1_555
F5 V3 2.073399 1_555
F5 V4 2.165107 1_455
