# generated using pymatgen
data_Mn6OF11
_symmetry_space_group_name_H-M   'P 1'
_cell_length_a   4.96707000
_cell_length_b   5.88326600
_cell_length_c   16.21804806
_cell_angle_alpha   89.60620175
_cell_angle_beta   90.00000000
_cell_angle_gamma   90.00000000
_symmetry_Int_Tables_number   1
_chemical_formula_structural   Mn6OF11
_chemical_formula_sum   'Mn12 O2 F22'
_cell_volume   473.92224074
_cell_formula_units_Z   2
loop_
 _symmetry_equiv_pos_site_id
 _symmetry_equiv_pos_as_xyz
  1  'x, y, z'
loop_
 _atom_site_type_symbol
 _atom_site_label
 _atom_site_symmetry_multiplicity
 _atom_site_fract_x
 _atom_site_fract_y
 _atom_site_fract_z
 _atom_site_occupancy
  Mn  Mn0  1  0.01511300  0.08503800  0.24319600  1
  Mn  Mn1  1  0.01639200  0.39677900  0.08208100  1
  Mn  Mn2  1  0.97870200  0.05967600  0.91275800  1
  Mn  Mn3  1  0.00326800  0.07845100  0.58542600  1
  Mn  Mn4  1  0.99942900  0.41700200  0.41634900  1
  Mn  Mn5  1  0.99713000  0.42058100  0.75220400  1
  Mn  Mn6  1  0.50326800  0.92154900  0.41457400  1
  Mn  Mn7  1  0.51511300  0.91496200  0.75680400  1
  Mn  Mn8  1  0.47870200  0.94032400  0.08724200  1
  Mn  Mn9  1  0.51639200  0.60322100  0.91791900  1
  Mn  Mn10  1  0.49713000  0.57941900  0.24779600  1
  Mn  Mn11  1  0.49942900  0.58299800  0.58365100  1
  O  O0  1  0.21232500  0.16493000  0.13303500  1
  O  O1  1  0.71232500  0.83507000  0.86696500  1
  F  F0  1  0.23145500  0.14297000  0.47443500  1
  F  F1  1  0.21276700  0.13381300  0.80832000  1
  F  F2  1  0.24781500  0.37783900  0.96980500  1
  F  F3  1  0.23544900  0.35477600  0.30806000  1
  F  F4  1  0.22570300  0.35887000  0.64168800  1
  F  F5  1  0.27911000  0.85653600  0.97449800  1
  F  F6  1  0.25672400  0.64308100  0.13606100  1
  F  F7  1  0.26810900  0.85411800  0.30485100  1
  F  F8  1  0.26868000  0.64714700  0.47397300  1
  F  F9  1  0.27891900  0.85939100  0.64617800  1
  F  F10  1  0.27291100  0.63134300  0.81253400  1
  F  F11  1  0.74781500  0.62216100  0.03019500  1
  F  F12  1  0.71276700  0.86618700  0.19168000  1
  F  F13  1  0.72570300  0.64113000  0.35831200  1
  F  F14  1  0.73544900  0.64522400  0.69194000  1
  F  F15  1  0.73145500  0.85703000  0.52556500  1
  F  F16  1  0.77911000  0.14346400  0.02550200  1
  F  F17  1  0.77891900  0.14060900  0.35382200  1
  F  F18  1  0.77291100  0.36865700  0.18746600  1
  F  F19  1  0.75672400  0.35691900  0.86393900  1
  F  F20  1  0.76810900  0.14588200  0.69514900  1
  F  F21  1  0.76868000  0.35285300  0.52602700  1
loop_
_geom_bond_atom_site_label_1
_geom_bond_atom_site_label_2
_geom_bond_distance
_geom_bond_site_symmetry_2
Mn0 O0 2.088267 1_555
Mn1 O0 1.864167 1_555
Mn2 O1 2.015397 1_545
Mn7 O1 2.088267 1_555
Mn8 O0 2.015397 1_565
Mn9 O1 1.864167 1_555
F0 Mn6 2.116524 1_545
F0 Mn3 2.158597 1_555
F0 Mn4 2.189520 1_455
F1 Mn2 2.097775 1_455
F1 Mn7 2.150805 1_545
F1 Mn5 2.191072 1_455
F2 Mn9 2.056857 1_555
F2 Mn1 2.156898 1_556
F2 Mn2 2.484016 1_455
F3 Mn10 2.091328 1_555
F3 Mn4 2.145129 1_455
F3 Mn0 2.201301 1_555
F4 Mn11 2.110962 1_555
F4 Mn5 2.154596 1_455
F4 Mn3 2.189918 1_555
F5 Mn9 2.114458 1_555
F5 Mn8 2.140468 1_556
F5 Mn2 2.154295 1_465
F6 Mn1 2.075730 1_555
F6 Mn10 2.200148 1_555
F6 Mn8 2.209452 1_555
F7 Mn0 2.099056 1_565
F7 Mn6 2.167493 1_555
F7 Mn10 2.186937 1_555
F8 Mn4 2.124314 1_455
F8 Mn11 2.147291 1_555
F8 Mn6 2.206941 1_555
F9 Mn3 2.118712 1_565
F9 Mn7 2.170314 1_555
F9 Mn11 2.212427 1_555
F10 Mn5 2.094744 1_455
F10 Mn9 2.099347 1_555
F10 Mn7 2.242257 1_555
F11 Mn1 2.056857 1_655
F11 Mn9 2.156898 1_554
F11 Mn8 2.484016 1_555
F12 Mn8 2.097775 1_555
F12 Mn0 2.150805 1_665
F12 Mn10 2.191072 1_555
F13 Mn4 2.110962 1_555
F13 Mn10 2.154596 1_555
F13 Mn6 2.189918 1_555
F14 Mn5 2.091328 1_555
F14 Mn11 2.145129 1_555
F14 Mn7 2.201301 1_555
F15 Mn3 2.116524 1_665
F15 Mn6 2.158597 1_555
F15 Mn11 2.189520 1_555
F16 Mn1 2.114458 1_655
F16 Mn2 2.140468 1_554
F16 Mn8 2.154295 1_545
F17 Mn6 2.118712 1_545
F17 Mn0 2.170314 1_655
F17 Mn4 2.212427 1_555
F18 Mn10 2.094744 1_555
F18 Mn1 2.099347 1_655
F18 Mn0 2.242257 1_655
F19 Mn9 2.075730 1_555
F19 Mn5 2.200148 1_555
F19 Mn2 2.209452 1_555
F20 Mn7 2.099056 1_545
F20 Mn3 2.167493 1_655
F20 Mn5 2.186937 1_555
F21 Mn11 2.124314 1_555
F21 Mn4 2.147291 1_555
F21 Mn3 2.206941 1_655
