# generated using pymatgen
data_Li2V2Sn(PO4)3
_symmetry_space_group_name_H-M   'P 1'
_cell_length_a   9.17476051
_cell_length_b   9.28535011
_cell_length_c   9.28534999
_cell_angle_alpha   57.08539166
_cell_angle_beta   57.42922874
_cell_angle_gamma   57.42922636
_symmetry_Int_Tables_number   1
_chemical_formula_structural   Li2V2Sn(PO4)3
_chemical_formula_sum   'Li4 V4 Sn2 P6 O24'
_cell_volume   524.74781080
_cell_formula_units_Z   2
loop_
 _symmetry_equiv_pos_site_id
 _symmetry_equiv_pos_as_xyz
  1  'x, y, z'
loop_
 _atom_site_type_symbol
 _atom_site_label
 _atom_site_symmetry_multiplicity
 _atom_site_fract_x
 _atom_site_fract_y
 _atom_site_fract_z
 _atom_site_occupancy
  Li  Li0  1  0.75000000  0.14241133  0.35758867  1
  Li  Li1  1  0.25000000  0.84262072  0.65737928  1
  Li  Li2  1  0.66158440  0.25050022  0.84034869  1
  Li  Li3  1  0.83841560  0.65965131  0.24949978  1
  V  V0  1  0.14808538  0.15361338  0.15288118  1
  V  V1  1  0.35191462  0.34711882  0.34638662  1
  V  V2  1  0.64610010  0.64874715  0.65432525  1
  V  V3  1  0.85389990  0.84567475  0.85125285  1
  Sn  Sn0  1  0.03595609  0.01132168  0.99924482  1
  Sn  Sn1  1  0.46404391  0.50075518  0.48867832  1
  P  P0  1  0.03930817  0.75040951  0.46087888  1
  P  P1  1  0.46069083  0.03912112  0.74959049  1
  P  P2  1  0.75000000  0.45771157  0.04228843  1
  P  P3  1  0.25000000  0.53821059  0.96178941  1
  P  P4  1  0.54436087  0.96351976  0.25216896  1
  P  P5  1  0.95563913  0.24783104  0.53648024  1
  O  O0  1  0.13131134  0.26245374  0.50108631  1
  O  O1  1  0.27654934  0.51511750  0.12288160  1
  O  O2  1  0.05052062  0.92944424  0.28073524  1
  O  O3  1  0.54185513  0.11962141  0.27248808  1
  O  O4  1  0.02914791  0.77846692  0.61393628  1
  O  O5  1  0.22284752  0.58479275  0.42245276  1
  O  O6  1  0.27715248  0.07754724  0.91520725  1
  O  O7  1  0.44947938  0.21926476  0.57055576  1
  O  O8  1  0.22345066  0.37711840  0.98488250  1
  O  O9  1  0.58685721  0.42330963  0.23374695  1
  O  O10  1  0.08294502  0.72040496  0.92921615  1
  O  O11  1  0.36868866  0.99891369  0.23754626  1
  O  O12  1  0.62316309  0.00910021  0.78124503  1
  O  O13  1  0.91314279  0.26625305  0.07669037  1
  O  O14  1  0.41705498  0.57078385  0.77959504  1
  O  O15  1  0.79079259  0.61042319  0.01741705  1
  O  O16  1  0.57270456  0.78067406  0.42089246  1
  O  O17  1  0.71942881  0.92469808  0.08462992  1
  O  O18  1  0.78057119  0.41536908  0.57530192  1
  O  O19  1  0.95814487  0.22751192  0.38037859  1
  O  O20  1  0.47085209  0.88606372  0.72153308  1
  O  O21  1  0.92729544  0.07910754  0.71932594  1
  O  O22  1  0.70920741  0.48258295  0.88957681  1
  O  O23  1  0.87683691  0.71875497  0.49089979  1
loop_
_geom_bond_atom_site_label_1
_geom_bond_atom_site_label_2
_geom_bond_distance
_geom_bond_site_symmetry_2
Li0 O9 2.180802 1_555
Li0 O13 2.180802 1_555
Li0 O2 2.359360 1_645
Li0 O7 2.359360 1_555
Li0 O3 2.560781 1_555
Li0 O19 2.560781 1_555
Li1 O14 2.145332 1_555
Li1 O10 2.145332 1_555
Li1 O21 2.541216 1_465
Li1 O16 2.541216 1_555
Li1 O20 2.657834 1_555
Li1 O4 2.657834 1_555
Li2 O18 2.098637 1_555
Li2 O21 2.134323 1_555
Li2 O14 2.559611 1_555
Li2 O17 2.586212 1_546
Li3 O17 2.098640 1_555
Li3 O16 2.134323 1_555
Li3 O10 2.559611 1_654
Li3 O18 2.586215 1_555
O0 P5 1.530031 1_455
O0 V1 2.033109 1_555
O1 P3 1.526501 1_554
O1 V1 2.020859 1_555
O2 P0 1.596540 1_555
O2 V0 2.172473 1_565
O2 Sn0 2.352569 1_564
O3 P4 1.547161 1_545
O3 V1 2.072252 1_555
O4 P0 1.526415 1_555
O4 V3 2.104705 1_455
O5 P0 1.577673 1_555
O5 V1 2.179729 1_555
O5 Sn1 2.229014 1_555
O6 P1 1.577670 1_555
O6 V0 2.179729 1_556
O6 Sn0 2.229014 1_555
O7 P1 1.596539 1_555
O7 V1 2.172473 1_555
O7 Sn1 2.352569 1_555
O8 P3 1.526501 1_555
O8 V0 2.020859 1_556
O9 P2 1.592329 1_555
O9 V1 2.156655 1_555
O9 Sn1 2.344313 1_555
O10 P3 1.566492 1_555
O10 V3 2.093822 1_455
O11 P4 1.530031 1_555
O11 V0 2.033109 1_565
O12 P1 1.523620 1_555
O12 V3 2.039030 1_545
O13 P2 1.592329 1_555
O13 V0 2.156655 1_655
O13 Sn0 2.344313 1_654
O14 P3 1.566492 1_555
O14 V2 2.093822 1_555
O15 P2 1.525294 1_555
O15 V3 2.055355 1_554
O16 P4 1.573893 1_555
O16 V2 2.109477 1_555
O17 P4 1.557447 1_555
O17 V3 2.152019 1_554
O18 P5 1.557442 1_555
O18 V2 2.152027 1_555
O19 P5 1.547161 1_555
O19 V0 2.072252 1_655
O20 P1 1.526410 1_565
O20 V2 2.104705 1_555
O21 P5 1.573893 1_555
O21 V3 2.109478 1_545
O22 P2 1.525294 1_556
O22 V2 2.055355 1_555
O23 P0 1.523611 1_655
O23 V2 2.039030 1_555
