# generated using pymatgen
data_Na2GePCO7
_symmetry_space_group_name_H-M   'P 1'
_cell_length_a   6.59961900
_cell_length_b   5.30537400
_cell_length_c   9.09297364
_cell_angle_alpha   87.65132381
_cell_angle_beta   90.00000000
_cell_angle_gamma   90.00000000
_symmetry_Int_Tables_number   1
_chemical_formula_structural   Na2GePCO7
_chemical_formula_sum   'Na4 Ge2 P2 C2 O14'
_cell_volume   318.10889598
_cell_formula_units_Z   2
loop_
 _symmetry_equiv_pos_site_id
 _symmetry_equiv_pos_as_xyz
  1  'x, y, z'
loop_
 _atom_site_type_symbol
 _atom_site_label
 _atom_site_symmetry_multiplicity
 _atom_site_fract_x
 _atom_site_fract_y
 _atom_site_fract_z
 _atom_site_occupancy
  Na  Na0  1  0.49490200  0.23795900  0.76992600  1
  Na  Na1  1  0.00509800  0.23795900  0.76992600  1
  Na  Na2  1  0.50509800  0.76204100  0.23007400  1
  Na  Na3  1  0.99490200  0.76204100  0.23007400  1
  Ge  Ge0  1  0.75000000  0.79085300  0.64833000  1
  Ge  Ge1  1  0.25000000  0.20914700  0.35167000  1
  P  P0  1  0.25000000  0.71164900  0.58083500  1
  P  P1  1  0.75000000  0.28835100  0.41916500  1
  C  C0  1  0.75000000  0.72471100  0.92523600  1
  C  C1  1  0.25000000  0.27528900  0.07476400  1
  O  O0  1  0.25000000  0.29056100  0.93684000  1
  O  O1  1  0.75000000  0.94480400  0.84917200  1
  O  O2  1  0.75000000  0.52910700  0.84072700  1
  O  O3  1  0.06252300  0.80802400  0.66702000  1
  O  O4  1  0.43747700  0.80802400  0.66702000  1
  O  O5  1  0.75000000  0.17294500  0.58099600  1
  O  O6  1  0.25000000  0.41983000  0.57688300  1
  O  O7  1  0.75000000  0.58017000  0.42311700  1
  O  O8  1  0.25000000  0.82705500  0.41900400  1
  O  O9  1  0.56252300  0.19197600  0.33298000  1
  O  O10  1  0.93747700  0.19197600  0.33298000  1
  O  O11  1  0.25000000  0.47089300  0.15927300  1
  O  O12  1  0.25000000  0.05519600  0.15082800  1
  O  O13  1  0.75000000  0.70943900  0.06316000  1
loop_
_geom_bond_atom_site_label_1
_geom_bond_atom_site_label_2
_geom_bond_distance
_geom_bond_site_symmetry_2
Na0 O0 2.242419 1_555
Na0 O1 2.383416 1_545
Na0 O2 2.390869 1_555
Na0 O5 2.439914 1_555
Na0 O4 2.529218 1_545
Na0 O6 2.546703 1_555
Na1 O0 2.242419 1_555
Na1 O1 2.383416 1_445
Na1 O2 2.390869 1_455
Na1 O5 2.439914 1_455
Na1 O3 2.529218 1_545
Na1 O6 2.546703 1_555
Na2 O13 2.242419 1_555
Na2 O12 2.383416 1_565
Na2 O11 2.390869 1_555
Na2 O8 2.439914 1_555
Na2 O9 2.529218 1_565
Na2 O7 2.546703 1_555
Na3 O13 2.242419 1_555
Na3 O12 2.383416 1_665
Na3 O11 2.390869 1_655
Na3 O8 2.439914 1_655
Na3 O10 2.529218 1_565
Na3 O7 2.546703 1_555
Ge0 O1 2.030901 1_555
Ge0 O4 2.071833 1_555
Ge0 O3 2.071833 1_655
Ge0 O5 2.093429 1_565
Ge0 O2 2.188578 1_555
Ge0 O7 2.372908 1_555
Ge1 O12 2.030901 1_555
Ge1 O10 2.071833 1_455
Ge1 O9 2.071833 1_555
Ge1 O8 2.093429 1_545
Ge1 O11 2.188578 1_555
Ge1 O6 2.372908 1_555
C0 O13 1.253436 1_556
C0 O2 1.316354 1_555
C0 O1 1.332535 1_555
C1 O0 1.253436 1_554
C1 O11 1.316354 1_555
C1 O12 1.332535 1_555
O3 P0 1.561819 1_555
O4 P0 1.561819 1_555
O5 P1 1.570483 1_555
O6 P0 1.550097 1_555
O7 P1 1.550097 1_555
O8 P0 1.570483 1_555
O9 P1 1.561819 1_555
O10 P1 1.561819 1_555
