# generated using pymatgen
data_LiFe4(BO3)4
_symmetry_space_group_name_H-M   'P 1'
_cell_length_a   5.25182500
_cell_length_b   9.13413937
_cell_length_c   11.47883962
_cell_angle_alpha   113.13567667
_cell_angle_beta   101.99177443
_cell_angle_gamma   90.92618043
_symmetry_Int_Tables_number   1
_chemical_formula_structural   LiFe4(BO3)4
_chemical_formula_sum   'Li2 Fe8 B8 O24'
_cell_volume   492.37884118
_cell_formula_units_Z   2
loop_
 _symmetry_equiv_pos_site_id
 _symmetry_equiv_pos_as_xyz
  1  'x, y, z'
loop_
 _atom_site_type_symbol
 _atom_site_label
 _atom_site_symmetry_multiplicity
 _atom_site_fract_x
 _atom_site_fract_y
 _atom_site_fract_z
 _atom_site_occupancy
  Li  Li0  1  0.51036000  0.84468200  0.34013100  1
  Li  Li1  1  0.22987600  0.59074600  0.83692700  1
  Fe  Fe0  1  0.98490100  0.97944800  0.62546900  1
  Fe  Fe1  1  0.73251500  0.05151700  0.11448700  1
  Fe  Fe2  1  0.51158100  0.51705600  0.37118200  1
  Fe  Fe3  1  0.76500400  0.43769400  0.87700800  1
  Fe  Fe4  1  0.22620300  0.55169200  0.11980800  1
  Fe  Fe5  1  0.49130000  0.46887800  0.62150300  1
  Fe  Fe6  1  0.02042100  0.02766600  0.36849600  1
  Fe  Fe7  1  0.26211000  0.94544800  0.87500400  1
  B  B0  1  0.97918500  0.30888600  0.62632200  1
  B  B1  1  0.74305200  0.73498600  0.12866700  1
  B  B2  1  0.53283000  0.18264600  0.37416500  1
  B  B3  1  0.76325100  0.75880000  0.87303300  1
  B  B4  1  0.46946200  0.80463600  0.61557000  1
  B  B5  1  0.23674500  0.22674900  0.12857700  1
  B  B6  1  0.01866200  0.69386000  0.37581400  1
  B  B7  1  0.26167700  0.27131300  0.86364600  1
  O  O0  1  0.97811200  0.20540100  0.12341000  1
  O  O1  1  0.89349500  0.88605000  0.17447700  1
  O  O2  1  0.85848900  0.59929800  0.06266600  1
  O  O3  1  0.85521300  0.57308100  0.36782300  1
  O  O4  1  0.93741600  0.85044400  0.41610600  1
  O  O5  1  0.75420400  0.15720800  0.32392400  1
  O  O6  1  0.75312000  0.34120200  0.67305100  1
  O  O7  1  0.50656900  0.72873100  0.15401300  1
  O  O8  1  0.36910000  0.38110200  0.18345400  1
  O  O9  1  0.52660700  0.64359700  0.56929300  1
  O  O10  1  0.63752700  0.91835700  0.61494900  1
  O  O11  1  0.37239900  0.09633100  0.07720600  1
  O  O12  1  0.63842600  0.89404300  0.92616500  1
  O  O13  1  0.38261800  0.05819700  0.37283300  1
  O  O14  1  0.46787600  0.33910500  0.42799000  1
  O  O15  1  0.59957600  0.60884400  0.82375900  1
  O  O16  1  0.52158600  0.28290800  0.86897800  1
  O  O17  1  0.26215500  0.67568700  0.34421200  1
  O  O18  1  0.24014800  0.83855000  0.65718900  1
  O  O19  1  0.02337500  0.15041900  0.56317300  1
  O  O20  1  0.15557000  0.43193600  0.64702100  1
  O  O21  1  0.14266300  0.41466300  0.90718800  1
  O  O22  1  0.11115000  0.12513400  0.81639500  1
  O  O23  1  0.01314400  0.75901400  0.86459500  1
loop_
_geom_bond_atom_site_label_1
_geom_bond_atom_site_label_2
_geom_bond_distance
_geom_bond_site_symmetry_2
Li0 O7 1.972299 1_555
Li0 O13 1.991536 1_565
Li0 O17 2.025168 1_555
Li0 O4 2.222817 1_555
Li1 O23 1.892606 1_555
Li1 O15 1.987762 1_555
Li1 O20 2.037596 1_555
Li1 O21 2.143859 1_555
Fe0 O10 1.864617 1_555
Fe0 O18 1.951168 1_655
Fe0 O19 1.979491 1_665
Fe0 O22 2.022238 1_665
Fe0 O4 2.177705 1_555
Fe1 O0 1.850195 1_555
Fe1 O11 1.937509 1_555
Fe1 O12 2.018882 1_544
Fe1 O1 2.022506 1_545
Fe1 O5 2.187115 1_555
Fe2 O3 1.880121 1_555
Fe2 O8 1.985622 1_555
Fe2 O14 2.000743 1_555
Fe2 O17 2.038776 1_555
Fe2 O9 2.090604 1_555
Fe3 O16 1.852540 1_555
Fe3 O21 1.970628 1_655
Fe3 O2 2.007849 1_556
Fe3 O15 2.036291 1_555
Fe3 O6 2.139597 1_555
Fe4 O2 2.018329 1_455
Fe4 O7 2.030044 1_555
Fe4 O8 2.056565 1_555
Fe4 O21 2.202849 1_554
Fe4 O17 2.334965 1_555
Fe5 O20 1.892504 1_555
Fe5 O9 1.930979 1_555
Fe5 O6 1.963897 1_555
Fe5 O14 2.041334 1_555
Fe5 O15 2.107940 1_555
Fe6 O13 1.905567 1_555
Fe6 O5 1.961779 1_455
Fe6 O4 1.969898 1_445
Fe6 O1 2.041815 1_445
Fe6 O19 2.065729 1_555
Fe7 O12 2.058078 1_555
Fe7 O23 2.080150 1_555
Fe7 O22 2.112600 1_565
Fe7 O11 2.126964 1_566
Fe7 O18 2.275107 1_555
B0 O20 1.357522 1_655
B0 O19 1.389499 1_655
B0 O6 1.391389 1_555
B1 O7 1.338401 1_555
B1 O2 1.398178 1_555
B1 O1 1.423609 1_555
B2 O13 1.366412 1_555
B2 O5 1.385753 1_555
B2 O14 1.396411 1_555
B3 O23 1.335909 1_655
B3 O12 1.388537 1_555
B3 O15 1.444317 1_555
B4 O10 1.355323 1_555
B4 O18 1.381818 1_555
B4 O9 1.415078 1_555
B5 O0 1.354762 1_455
B5 O11 1.387218 1_555
B5 O8 1.398645 1_555
B6 O3 1.348887 1_455
B6 O17 1.395255 1_555
B6 O4 1.422509 1_455
B7 O16 1.354140 1_555
B7 O22 1.385841 1_555
B7 O21 1.413139 1_555
