# generated using pymatgen
data_Li2Mn(NiO3)2
_symmetry_space_group_name_H-M   'P 1'
_cell_length_a   6.53812995
_cell_length_b   6.53812995
_cell_length_c   5.92260757
_cell_angle_alpha   74.52278197
_cell_angle_beta   74.52278197
_cell_angle_gamma   25.85892059
_symmetry_Int_Tables_number   1
_chemical_formula_structural   Li2Mn(NiO3)2
_chemical_formula_sum   'Li2 Mn1 Ni2 O6'
_cell_volume   106.20421552
_cell_formula_units_Z   1
loop_
 _symmetry_equiv_pos_site_id
 _symmetry_equiv_pos_as_xyz
  1  'x, y, z'
loop_
 _atom_site_type_symbol
 _atom_site_label
 _atom_site_symmetry_multiplicity
 _atom_site_fract_x
 _atom_site_fract_y
 _atom_site_fract_z
 _atom_site_occupancy
  Li  Li0  1  0.66391600  0.01475300  0.81092700  1
  Li  Li1  1  0.98524700  0.33608400  0.18907300  1
  Mn  Mn0  1  0.34986800  0.65013200  0.00000000  1
  Ni  Ni0  1  0.65969100  0.00883000  0.33532000  1
  Ni  Ni1  1  0.99117000  0.34030900  0.66468000  1
  O  O0  1  0.52703000  0.78630300  0.91107600  1
  O  O1  1  0.84107700  0.14327900  0.21975600  1
  O  O2  1  0.10876100  0.53069900  0.57294900  1
  O  O3  1  0.85672100  0.15892300  0.78024400  1
  O  O4  1  0.21369700  0.47297000  0.08892400  1
  O  O5  1  0.46930100  0.89123900  0.42705100  1
loop_
_geom_bond_atom_site_label_1
_geom_bond_atom_site_label_2
_geom_bond_distance
_geom_bond_site_symmetry_2
Li0 O2 2.021986 1_645
Li0 O3 2.106043 1_555
Li0 O4 2.127334 1_556
Li0 O2 2.167276 1_555
Li0 O0 2.243533 1_545
Li0 O4 2.304209 1_646
Li1 O5 2.021986 1_645
Li1 O1 2.106043 1_555
Li1 O0 2.127334 1_554
Li1 O5 2.167276 1_555
Li1 O4 2.243533 1_655
Li1 O0 2.304209 1_644
Mn0 O4 1.921414 1_555
Mn0 O0 1.921414 1_554
Mn0 O1 1.940283 1_555
Mn0 O3 1.940283 1_554
Mn0 O1 1.944554 1_465
Mn0 O3 1.944554 1_464
Ni0 O5 1.890584 1_545
Ni0 O2 1.926699 1_645
Ni0 O1 1.941514 1_555
Ni0 O4 1.955326 1_555
Ni0 O2 2.082153 1_555
Ni0 O4 2.143034 1_645
Ni1 O2 1.890584 1_655
Ni1 O5 1.926699 1_645
Ni1 O3 1.941514 1_555
Ni1 O0 1.955326 1_555
Ni1 O5 2.082153 1_555
Ni1 O0 2.143034 1_645
