# generated using pymatgen
data_Ca3W2O9
_symmetry_space_group_name_H-M   'P 1'
_cell_length_a   7.83319000
_cell_length_b   8.68227900
_cell_length_c   15.84669400
_cell_angle_alpha   90.00000000
_cell_angle_beta   90.00000000
_cell_angle_gamma   90.00000000
_symmetry_Int_Tables_number   1
_chemical_formula_structural   Ca3W2O9
_chemical_formula_sum   'Ca12 W8 O36'
_cell_volume   1077.73272462
_cell_formula_units_Z   4
loop_
 _symmetry_equiv_pos_site_id
 _symmetry_equiv_pos_as_xyz
  1  'x, y, z'
loop_
 _atom_site_type_symbol
 _atom_site_label
 _atom_site_symmetry_multiplicity
 _atom_site_fract_x
 _atom_site_fract_y
 _atom_site_fract_z
 _atom_site_occupancy
  Ca  Ca0  1  0.50000000  0.00000000  0.00000000  1
  Ca  Ca1  1  0.75000000  0.21208700  0.86057800  1
  Ca  Ca2  1  0.25000000  0.19130100  0.57846100  1
  Ca  Ca3  1  0.75000000  0.30869900  0.07846100  1
  Ca  Ca4  1  0.25000000  0.28791300  0.36057800  1
  Ca  Ca5  1  0.00000000  0.50000000  0.50000000  1
  Ca  Ca6  1  0.50000000  0.50000000  0.50000000  1
  Ca  Ca7  1  0.75000000  0.71208700  0.63942200  1
  Ca  Ca8  1  0.25000000  0.69130100  0.92153900  1
  Ca  Ca9  1  0.75000000  0.80869900  0.42153900  1
  Ca  Ca10  1  0.25000000  0.78791300  0.13942200  1
  Ca  Ca11  1  0.00000000  0.00000000  0.00000000  1
  W  W0  1  0.75000000  0.15609900  0.60539300  1
  W  W1  1  0.75000000  0.25556900  0.33272300  1
  W  W2  1  0.25000000  0.24443100  0.83272300  1
  W  W3  1  0.25000000  0.34390100  0.10539300  1
  W  W4  1  0.75000000  0.65609900  0.89460700  1
  W  W5  1  0.75000000  0.75556900  0.16727700  1
  W  W6  1  0.25000000  0.74443100  0.66727700  1
  W  W7  1  0.25000000  0.84390100  0.39460700  1
  O  O0  1  0.75000000  0.06732400  0.38186900  1
  O  O1  1  0.25000000  0.04884100  0.42041400  1
  O  O2  1  0.75000000  0.11310800  0.98637300  1
  O  O3  1  0.05831700  0.14098300  0.86718300  1
  O  O4  1  0.44168300  0.14098300  0.86718300  1
  O  O5  1  0.75000000  0.17897900  0.71787000  1
  O  O6  1  0.75000000  0.23188900  0.21983300  1
  O  O7  1  0.94057900  0.24791800  0.56299400  1
  O  O8  1  0.05942100  0.25208200  0.06299400  1
  O  O9  1  0.55942100  0.24791800  0.56299400  1
  O  O10  1  0.44057900  0.25208200  0.06299400  1
  O  O11  1  0.25000000  0.26811100  0.71983300  1
  O  O12  1  0.25000000  0.32102100  0.21787000  1
  O  O13  1  0.94168300  0.35901700  0.36718300  1
  O  O14  1  0.55831700  0.35901700  0.36718300  1
  O  O15  1  0.25000000  0.38689200  0.48637300  1
  O  O16  1  0.75000000  0.45115900  0.92041400  1
  O  O17  1  0.25000000  0.43267600  0.88186900  1
  O  O18  1  0.75000000  0.56732400  0.11813100  1
  O  O19  1  0.25000000  0.54884100  0.07958600  1
  O  O20  1  0.75000000  0.61310800  0.51362700  1
  O  O21  1  0.05831700  0.64098300  0.63281700  1
  O  O22  1  0.44168300  0.64098300  0.63281700  1
  O  O23  1  0.75000000  0.67897900  0.78213000  1
  O  O24  1  0.75000000  0.73188900  0.28016700  1
  O  O25  1  0.94057900  0.74791800  0.93700600  1
  O  O26  1  0.05942100  0.75208200  0.43700600  1
  O  O27  1  0.55942100  0.74791800  0.93700600  1
  O  O28  1  0.44057900  0.75208200  0.43700600  1
  O  O29  1  0.25000000  0.76811100  0.78016700  1
  O  O30  1  0.25000000  0.82102100  0.28213000  1
  O  O31  1  0.94168300  0.85901700  0.13281700  1
  O  O32  1  0.55831700  0.85901700  0.13281700  1
  O  O33  1  0.25000000  0.88689200  0.01362700  1
  O  O34  1  0.75000000  0.95115900  0.57958600  1
  O  O35  1  0.25000000  0.93267600  0.61813100  1
loop_
_geom_bond_atom_site_label_1
_geom_bond_atom_site_label_2
_geom_bond_distance
_geom_bond_site_symmetry_2
Ca0 O2 2.201353 1_554
Ca0 O33 2.201353 1_545
Ca0 O10 2.450167 1_555
Ca0 O27 2.450167 1_544
Ca0 O32 2.477254 1_545
Ca0 O4 2.477254 1_554
Ca1 O2 2.170780 1_555
Ca1 O5 2.279646 1_555
Ca1 O16 2.282012 1_555
Ca1 O3 2.494956 1_655
Ca1 O4 2.494956 1_555
Ca2 O15 2.239046 1_555
Ca2 O35 2.331792 1_545
Ca2 O11 2.337431 1_555
Ca2 O9 2.485214 1_555
Ca2 O7 2.485214 1_455
Ca2 O1 2.793295 1_555
Ca3 O2 2.239046 1_554
Ca3 O18 2.331792 1_555
Ca3 O6 2.337431 1_555
Ca3 O8 2.485214 1_655
Ca3 O10 2.485214 1_555
Ca3 O16 2.793295 1_554
Ca4 O15 2.170780 1_555
Ca4 O12 2.279646 1_555
Ca4 O1 2.282012 1_555
Ca4 O13 2.494956 1_455
Ca4 O14 2.494956 1_555
Ca5 O15 2.201353 1_555
Ca5 O20 2.201353 1_455
Ca5 O26 2.450167 1_555
Ca5 O7 2.450167 1_455
Ca5 O21 2.477254 1_555
Ca5 O13 2.477254 1_455
Ca6 O15 2.201353 1_555
Ca6 O20 2.201353 1_555
Ca6 O9 2.450167 1_555
Ca6 O28 2.450167 1_555
Ca6 O22 2.477254 1_555
Ca6 O14 2.477254 1_555
Ca7 O20 2.170780 1_555
Ca7 O23 2.279646 1_555
Ca7 O34 2.282012 1_555
Ca7 O21 2.494956 1_655
Ca7 O22 2.494956 1_555
Ca8 O33 2.239046 1_556
Ca8 O17 2.331792 1_555
Ca8 O29 2.337431 1_555
Ca8 O27 2.485214 1_555
Ca8 O25 2.485214 1_455
Ca8 O19 2.793295 1_556
Ca9 O20 2.239046 1_555
Ca9 O0 2.331792 1_565
Ca9 O24 2.337431 1_555
Ca9 O26 2.485214 1_655
Ca9 O28 2.485214 1_555
Ca9 O34 2.793295 1_555
Ca10 O33 2.170780 1_555
Ca10 O30 2.279646 1_555
Ca10 O19 2.282012 1_555
Ca10 O31 2.494956 1_455
Ca10 O32 2.494956 1_555
Ca11 O2 2.201353 1_454
Ca11 O33 2.201353 1_545
Ca11 O8 2.450167 1_555
Ca11 O25 2.450167 1_444
Ca11 O3 2.477254 1_554
Ca11 O31 2.477254 1_445
O0 W1 1.810464 1_555
O1 W7 1.825738 1_545
O3 W2 1.832858 1_555
O4 W2 1.832858 1_555
O5 W0 1.793424 1_555
O6 W1 1.800709 1_555
O7 W0 1.820859 1_555
O8 W3 1.820859 1_555
O9 W0 1.820859 1_555
O10 W3 1.820859 1_555
O11 W2 1.800709 1_555
O12 W3 1.793424 1_555
O13 W1 1.832858 1_555
O14 W1 1.832858 1_555
O16 W4 1.825738 1_555
O17 W2 1.810464 1_555
O18 W5 1.810464 1_555
O19 W3 1.825738 1_555
O21 W6 1.832858 1_555
O22 W6 1.832858 1_555
O23 W4 1.793424 1_555
O24 W5 1.800709 1_555
O25 W4 1.820859 1_555
O26 W7 1.820859 1_555
O27 W4 1.820859 1_555
O28 W7 1.820859 1_555
O29 W6 1.800709 1_555
O30 W7 1.793424 1_555
O31 W5 1.832858 1_555
O32 W5 1.832858 1_555
O34 W0 1.825738 1_565
O35 W6 1.810464 1_555
