# generated using pymatgen
data_K7(Bi3O8)3
_symmetry_space_group_name_H-M   'P 1'
_cell_length_a   9.57766597
_cell_length_b   9.57766597
_cell_length_c   9.57835244
_cell_angle_alpha   66.42670123
_cell_angle_beta   66.42670123
_cell_angle_gamma   53.11573046
_symmetry_Int_Tables_number   1
_chemical_formula_structural   K7(Bi3O8)3
_chemical_formula_sum   'K7 Bi9 O24'
_cell_volume   628.62468448
_cell_formula_units_Z   1
loop_
 _symmetry_equiv_pos_site_id
 _symmetry_equiv_pos_as_xyz
  1  'x, y, z'
loop_
 _atom_site_type_symbol
 _atom_site_label
 _atom_site_symmetry_multiplicity
 _atom_site_fract_x
 _atom_site_fract_y
 _atom_site_fract_z
 _atom_site_occupancy
  K  K0  1  0.50000000  0.50000000  0.50000000  1
  K  K1  1  0.37531700  0.37531700  0.00135900  1
  K  K2  1  0.87491100  0.87491100  0.99776400  1
  K  K3  1  0.12508900  0.12508900  0.00223600  1
  K  K4  1  0.24822500  0.24822500  0.50001200  1
  K  K5  1  0.75177500  0.75177500  0.49998800  1
  K  K6  1  0.62468300  0.62468300  0.99864100  1
  Bi  Bi0  1  0.56037700  0.06327800  0.75083300  1
  Bi  Bi1  1  0.18810800  0.68631000  0.24943300  1
  Bi  Bi2  1  0.06327800  0.56037700  0.75083300  1
  Bi  Bi3  1  0.31369000  0.81189200  0.75056700  1
  Bi  Bi4  1  0.43962300  0.93672200  0.24916700  1
  Bi  Bi5  1  0.00000000  0.00000000  0.50000000  1
  Bi  Bi6  1  0.68631000  0.18810800  0.24943300  1
  Bi  Bi7  1  0.93672200  0.43962300  0.24916700  1
  Bi  Bi8  1  0.81189200  0.31369000  0.75056700  1
  O  O0  1  0.56013400  0.06162100  0.25662000  1
  O  O1  1  0.31779200  0.31779200  0.74366200  1
  O  O2  1  0.56013600  0.56013600  0.74507500  1
  O  O3  1  0.43986400  0.43986400  0.25492500  1
  O  O4  1  0.06162100  0.56013400  0.25662000  1
  O  O5  1  0.28735800  0.82805400  0.26895300  1
  O  O6  1  0.43986600  0.93837900  0.74338000  1
  O  O7  1  0.24457300  0.75542700  0.00000000  1
  O  O8  1  0.17194600  0.71264200  0.73104700  1
  O  O9  1  0.50000000  0.00000000  0.00000000  1
  O  O10  1  0.34411800  0.88608600  0.50020000  1
  O  O11  1  0.11391400  0.65588200  0.49980000  1
  O  O12  1  0.94233200  0.94233200  0.26979200  1
  O  O13  1  0.05766800  0.05766800  0.73020800  1
  O  O14  1  0.17322200  0.17322200  0.26867100  1
  O  O15  1  0.82677800  0.82677800  0.73132900  1
  O  O16  1  0.88608600  0.34411800  0.50020000  1
  O  O17  1  0.71264200  0.17194600  0.73104700  1
  O  O18  1  0.65588200  0.11391400  0.49980000  1
  O  O19  1  0.75542700  0.24457300  0.00000000  1
  O  O20  1  0.82805400  0.28735800  0.26895300  1
  O  O21  1  0.93837900  0.43986600  0.74338000  1
  O  O22  1  0.00000000  0.50000000  0.00000000  1
  O  O23  1  0.68220800  0.68220800  0.25633800  1
loop_
_geom_bond_atom_site_label_1
_geom_bond_atom_site_label_2
_geom_bond_distance
_geom_bond_site_symmetry_2
K0 O23 2.945900 1_555
K0 O1 2.945900 1_555
K0 O2 2.955478 1_555
K0 O3 2.955478 1_555
K0 O16 3.046145 1_555
K0 O10 3.046145 1_555
K0 O11 3.046145 1_555
K0 O18 3.046145 1_555
K0 O20 3.046223 1_555
K0 O5 3.046223 1_555
K0 O17 3.046223 1_555
K0 O8 3.046223 1_555
K1 O2 3.017100 1_554
K1 O22 3.036429 1_555
K1 O9 3.036429 1_555
K1 O1 3.039658 1_554
K1 O19 3.053637 1_555
K1 O7 3.053637 1_555
K1 O0 3.056163 1_555
K1 O4 3.056163 1_555
K1 O3 3.086070 1_555
K1 O14 3.258558 1_555
K1 O17 3.274847 1_554
K1 O8 3.274847 1_554
K2 O19 3.003766 1_566
K2 O7 3.003766 1_656
K2 O15 3.012458 1_555
K2 O8 3.015039 1_655
K2 O17 3.015039 1_565
K2 O22 3.020659 1_656
K2 O9 3.020659 1_566
K2 O13 3.032712 1_665
K2 O4 3.087126 1_656
K2 O0 3.087126 1_566
K2 O23 3.118266 1_556
K2 O12 3.288622 1_556
K3 O19 3.003766 1_455
K3 O7 3.003766 1_545
K3 O14 3.012458 1_555
K3 O5 3.015039 1_545
K3 O20 3.015039 1_455
K3 O22 3.020659 1_555
K3 O9 3.020659 1_555
K3 O12 3.032712 1_445
K3 O21 3.087126 1_454
K3 O6 3.087126 1_544
K3 O1 3.118266 1_554
K3 O13 3.288622 1_554
K4 O0 2.984382 1_555
K4 O4 2.984382 1_555
K4 O6 2.993345 1_545
K4 O21 2.993345 1_455
K4 O16 3.007666 1_455
K4 O10 3.007666 1_545
K4 O13 3.014069 1_555
K4 O14 3.017932 1_555
K4 O1 3.058547 1_555
K4 O3 3.065941 1_555
K4 O11 3.296332 1_555
K4 O18 3.296332 1_555
K5 O21 2.984382 1_555
K5 O6 2.984382 1_555
K5 O0 2.993345 1_565
K5 O4 2.993345 1_655
K5 O11 3.007666 1_655
K5 O18 3.007666 1_565
K5 O12 3.014069 1_555
K5 O15 3.017932 1_555
K5 O23 3.058547 1_555
K5 O2 3.065941 1_555
K5 O16 3.296332 1_555
K5 O10 3.296332 1_555
K6 O3 3.017100 1_556
K6 O9 3.036429 1_566
K6 O22 3.036429 1_656
K6 O23 3.039658 1_556
K6 O19 3.053637 1_556
K6 O7 3.053637 1_556
K6 O6 3.056163 1_555
K6 O21 3.056163 1_555
K6 O2 3.086070 1_555
K6 O15 3.258558 1_555
K6 O20 3.274847 1_556
K6 O5 3.274847 1_556
Bi0 O1 2.130757 1_555
Bi0 O9 2.134836 1_556
Bi0 O6 2.135398 1_545
Bi0 O17 2.165430 1_555
Bi0 O18 2.166577 1_555
Bi0 O15 2.166878 1_545
Bi1 O4 2.134690 1_555
Bi1 O3 2.135029 1_555
Bi1 O7 2.137765 1_555
Bi1 O11 2.160410 1_555
Bi1 O5 2.162374 1_555
Bi1 O12 2.162950 1_455
Bi2 O1 2.130757 1_555
Bi2 O22 2.134836 1_556
Bi2 O21 2.135398 1_455
Bi2 O8 2.165430 1_555
Bi2 O11 2.166577 1_555
Bi2 O15 2.166878 1_455
Bi3 O6 2.134690 1_555
Bi3 O2 2.135029 1_555
Bi3 O7 2.137765 1_556
Bi3 O10 2.160410 1_555
Bi3 O8 2.162374 1_555
Bi3 O13 2.162950 1_565
Bi4 O23 2.130757 1_555
Bi4 O9 2.134836 1_565
Bi4 O0 2.135398 1_565
Bi4 O5 2.165430 1_555
Bi4 O10 2.166577 1_555
Bi4 O14 2.166878 1_565
Bi5 O16 2.782059 1_455
Bi5 O10 2.782059 1_545
Bi5 O18 2.782059 1_455
Bi5 O11 2.782059 1_545
Bi5 O13 2.790455 1_555
Bi5 O12 2.790455 1_445
Bi5 O17 2.790516 1_455
Bi5 O8 2.790516 1_545
Bi5 O5 2.790516 1_545
Bi5 O20 2.790516 1_455
Bi5 O14 2.799653 1_555
Bi5 O15 2.799653 1_445
Bi6 O0 2.134690 1_555
Bi6 O3 2.135029 1_555
Bi6 O19 2.137765 1_555
Bi6 O18 2.160410 1_555
Bi6 O20 2.162374 1_555
Bi6 O12 2.162950 1_545
Bi7 O23 2.130757 1_555
Bi7 O22 2.134836 1_655
Bi7 O4 2.135398 1_655
Bi7 O20 2.165430 1_555
Bi7 O16 2.166577 1_555
Bi7 O14 2.166878 1_655
Bi8 O21 2.134690 1_555
Bi8 O2 2.135029 1_555
Bi8 O19 2.137765 1_556
Bi8 O16 2.160410 1_555
Bi8 O17 2.162374 1_555
Bi8 O13 2.162950 1_655
