# generated using pymatgen
data_LiFeSiO4
_symmetry_space_group_name_H-M   'P 1'
_cell_length_a   5.13610600
_cell_length_b   6.43709000
_cell_length_c   10.84452100
_cell_angle_alpha   90.00000000
_cell_angle_beta   90.00000000
_cell_angle_gamma   90.00000000
_symmetry_Int_Tables_number   1
_chemical_formula_structural   LiFeSiO4
_chemical_formula_sum   'Li4 Fe4 Si4 O16'
_cell_volume   358.53696142
_cell_formula_units_Z   4
loop_
 _symmetry_equiv_pos_site_id
 _symmetry_equiv_pos_as_xyz
  1  'x, y, z'
loop_
 _atom_site_type_symbol
 _atom_site_label
 _atom_site_symmetry_multiplicity
 _atom_site_fract_x
 _atom_site_fract_y
 _atom_site_fract_z
 _atom_site_occupancy
  Li  Li0  1  0.26257800  0.48630800  0.33265400  1
  Li  Li1  1  0.76257800  0.51369200  0.66734600  1
  Li  Li2  1  0.76257800  0.98630800  0.16734600  1
  Li  Li3  1  0.26257800  0.01369200  0.83265400  1
  Fe  Fe0  1  0.26192400  0.77649500  0.58549300  1
  Fe  Fe1  1  0.26192400  0.72350500  0.08549300  1
  Fe  Fe2  1  0.76192400  0.22350500  0.41450700  1
  Fe  Fe3  1  0.76192400  0.27649500  0.91450700  1
  Si  Si0  1  0.26287300  0.51711600  0.82719600  1
  Si  Si1  1  0.26287300  0.98288400  0.32719600  1
  Si  Si2  1  0.76287300  0.01711600  0.67280400  1
  Si  Si3  1  0.76287300  0.48288400  0.17280400  1
  O  O0  1  0.62604000  0.69516000  0.11555500  1
  O  O1  1  0.19774800  0.72515100  0.91284300  1
  O  O2  1  0.19774800  0.77484900  0.41284300  1
  O  O3  1  0.62604000  0.80484000  0.61555500  1
  O  O4  1  0.15361200  0.95246000  0.18497800  1
  O  O5  1  0.08222200  0.98541400  0.67289500  1
  O  O6  1  0.58222200  0.01458600  0.32710500  1
  O  O7  1  0.65361200  0.04754000  0.81502200  1
  O  O8  1  0.12604000  0.19516000  0.38444500  1
  O  O9  1  0.69774800  0.22515100  0.58715700  1
  O  O10  1  0.69774800  0.27484900  0.08715700  1
  O  O11  1  0.12604000  0.30484000  0.88444500  1
  O  O12  1  0.65361200  0.45246000  0.31502200  1
  O  O13  1  0.58222200  0.48541400  0.82710500  1
  O  O14  1  0.08222200  0.51458600  0.17289500  1
  O  O15  1  0.15361200  0.54754000  0.68497800  1
loop_
_geom_bond_atom_site_label_1
_geom_bond_atom_site_label_2
_geom_bond_distance
_geom_bond_site_symmetry_2
Li0 O14 1.973020 1_555
Li0 O12 2.029205 1_555
Li0 O2 2.077715 1_555
Li0 O8 2.078378 1_555
Li1 O13 1.973020 1_555
Li1 O15 2.029205 1_655
Li1 O9 2.077715 1_555
Li1 O3 2.078378 1_555
Li2 O6 1.973020 1_565
Li2 O4 2.029205 1_655
Li2 O10 2.077715 1_565
Li2 O0 2.078378 1_555
Li3 O5 1.973020 1_545
Li3 O7 2.029205 1_555
Li3 O1 2.077715 1_545
Li3 O11 2.078378 1_555
Fe0 O5 1.886485 1_555
Fe0 O2 1.901129 1_555
Fe0 O3 1.907089 1_555
Fe0 O15 1.909326 1_555
Fe1 O14 1.886485 1_555
Fe1 O1 1.901129 1_554
Fe1 O0 1.907089 1_555
Fe1 O4 1.909326 1_555
Fe2 O6 1.886485 1_555
Fe2 O9 1.901129 1_555
Fe2 O8 1.907089 1_655
Fe2 O12 1.909326 1_555
Fe3 O13 1.886485 1_555
Fe3 O10 1.901129 1_556
Fe3 O11 1.907089 1_655
Fe3 O7 1.909326 1_555
O0 Si3 1.657260 1_555
O1 Si0 1.663686 1_555
O2 Si1 1.663686 1_555
O3 Si2 1.657260 1_565
O4 Si1 1.652852 1_555
O5 Si2 1.652857 1_465
O6 Si1 1.652857 1_545
O7 Si2 1.652852 1_555
O8 Si1 1.657260 1_545
O9 Si2 1.663686 1_555
O10 Si3 1.663686 1_555
O11 Si0 1.657260 1_555
O12 Si3 1.652852 1_555
O13 Si0 1.652857 1_555
O14 Si3 1.652857 1_455
O15 Si0 1.652852 1_555
