# generated using pymatgen
data_CaZrGeO5
_symmetry_space_group_name_H-M   'P 1'
_cell_length_a   7.54473900
_cell_length_b   5.81924376
_cell_length_c   5.67178421
_cell_angle_alpha   107.20265739
_cell_angle_beta   102.02406181
_cell_angle_gamma   104.12937971
_symmetry_Int_Tables_number   1
_chemical_formula_structural   CaZrGeO5
_chemical_formula_sum   'Ca2 Zr2 Ge2 O10'
_cell_volume   219.85061290
_cell_formula_units_Z   2
loop_
 _symmetry_equiv_pos_site_id
 _symmetry_equiv_pos_as_xyz
  1  'x, y, z'
loop_
 _atom_site_type_symbol
 _atom_site_label
 _atom_site_symmetry_multiplicity
 _atom_site_fract_x
 _atom_site_fract_y
 _atom_site_fract_z
 _atom_site_occupancy
  Ca  Ca0  1  0.15759700  0.77817600  0.82326700  1
  Ca  Ca1  1  0.84240300  0.22182400  0.17673300  1
  Zr  Zr0  1  0.50000000  0.50000000  0.50000000  1
  Zr  Zr1  1  0.50000000  0.00000000  0.50000000  1
  Ge  Ge0  1  0.18370200  0.25052500  0.82451000  1
  Ge  Ge1  1  0.81629800  0.74947500  0.17549000  1
  O  O0  1  0.59814400  0.25029300  0.42417500  1
  O  O1  1  0.40185600  0.74970700  0.57582500  1
  O  O2  1  0.89305100  0.06584800  0.75371100  1
  O  O3  1  0.10694900  0.93415200  0.24628900  1
  O  O4  1  0.22072500  0.40431300  0.12336100  1
  O  O5  1  0.77927500  0.59568700  0.87663900  1
  O  O6  1  0.81495600  0.62197000  0.39330500  1
  O  O7  1  0.18504400  0.37803000  0.60669500  1
  O  O8  1  0.57918200  0.87288100  0.16542800  1
  O  O9  1  0.42081800  0.12711900  0.83457200  1
loop_
_geom_bond_atom_site_label_1
_geom_bond_atom_site_label_2
_geom_bond_distance
_geom_bond_site_symmetry_2
Ca0 O7 2.371370 1_555
Ca0 O9 2.443856 1_565
Ca0 O3 2.447375 1_556
Ca0 O1 2.546051 1_555
Ca0 Ge0 2.705165 1_565
Ca0 O6 2.893289 1_455
Ca0 O5 2.904633 1_455
Ca0 O2 2.938642 1_465
Ca1 O6 2.371370 1_555
Ca1 O8 2.443856 1_545
Ca1 O2 2.447375 1_554
Ca1 O0 2.546051 1_555
Ca1 Ge1 2.705165 1_545
Ca1 O7 2.893289 1_655
Ca1 O4 2.904633 1_655
Ca1 O3 2.938642 1_645
Ge0 O4 1.592303 1_556
Ge0 O7 1.618826 1_555
Ge0 O9 2.080468 1_555
Ge0 O2 2.086196 1_455
Ge1 O5 1.592303 1_554
Ge1 O6 1.618826 1_555
Ge1 O8 2.080468 1_555
Ge1 O3 2.086196 1_655
O0 Zr1 1.682656 1_555
O0 Zr0 1.770063 1_555
O1 Zr1 1.682656 1_565
O1 Zr0 1.770063 1_555
O2 Zr1 2.890095 1_555
O3 Zr1 2.890095 1_565
O6 Zr0 2.558585 1_555
O7 Zr0 2.558585 1_555
O8 Zr1 2.088741 1_565
O9 Zr1 2.088741 1_555
