# generated using pymatgen
data_Li5Zn4(BO3)4
_symmetry_space_group_name_H-M   'P 1'
_cell_length_a   5.11635200
_cell_length_b   5.11772575
_cell_length_c   11.51355927
_cell_angle_alpha   88.70564111
_cell_angle_beta   89.29308811
_cell_angle_gamma   60.20003144
_symmetry_Int_Tables_number   1
_chemical_formula_structural   Li5Zn4(BO3)4
_chemical_formula_sum   'Li5 Zn4 B4 O12'
_cell_volume   261.54012845
_cell_formula_units_Z   1
loop_
 _symmetry_equiv_pos_site_id
 _symmetry_equiv_pos_as_xyz
  1  'x, y, z'
loop_
 _atom_site_type_symbol
 _atom_site_label
 _atom_site_symmetry_multiplicity
 _atom_site_fract_x
 _atom_site_fract_y
 _atom_site_fract_z
 _atom_site_occupancy
  Li  Li0  1  0.02412800  0.66037600  0.83908500  1
  Li  Li1  1  0.02363400  0.63837200  0.46864800  1
  Li  Li2  1  0.96998300  0.66065800  0.28495300  1
  Li  Li3  1  0.01867400  0.31251800  0.66650900  1
  Li  Li4  1  0.01187200  0.33702000  0.08038100  1
  Zn  Zn0  1  0.65689600  0.01460600  0.63922200  1
  Zn  Zn1  1  0.67236700  0.31463400  0.88789800  1
  Zn  Zn2  1  0.32669000  0.99881400  0.36628300  1
  Zn  Zn3  1  0.33121300  0.68769500  0.10218900  1
  B  B0  1  0.34290200  0.99067200  0.87037300  1
  B  B1  1  0.66099900  0.33016100  0.37790900  1
  B  B2  1  0.34331600  0.67098100  0.63290900  1
  B  B3  1  0.65855200  0.01222900  0.11611200  1
  O  O0  1  0.61586600  0.97319500  0.83942600  1
  O  O1  1  0.36934400  0.57993400  0.36418100  1
  O  O2  1  0.07586000  0.65417800  0.63799400  1
  O  O3  1  0.92094500  0.73225800  0.12247200  1
  O  O4  1  0.32372900  0.94450700  0.60433900  1
  O  O5  1  0.67571700  0.26681400  0.08033800  1
  O  O6  1  0.32790400  0.73433200  0.90358400  1
  O  O7  1  0.69995200  0.03844500  0.39210800  1
  O  O8  1  0.07968900  0.26995100  0.86803200  1
  O  O9  1  0.91242800  0.37075700  0.37752000  1
  O  O10  1  0.61556400  0.41345700  0.65612900  1
  O  O11  1  0.38297600  0.03553800  0.14600400  1
loop_
_geom_bond_atom_site_label_1
_geom_bond_atom_site_label_2
_geom_bond_distance
_geom_bond_site_symmetry_2
Li0 O8 1.895241 1_555
Li0 O0 1.897999 1_455
Li0 O6 1.932928 1_555
Li0 O2 2.326242 1_555
Li1 O2 1.980159 1_555
Li1 O1 2.025505 1_555
Li1 O9 2.038258 1_455
Li1 O7 2.072571 1_465
Li2 O3 1.893700 1_555
Li2 O9 1.943920 1_555
Li2 O1 2.089900 1_655
Li2 O7 2.140011 1_565
Li3 O10 1.865254 1_455
Li3 O4 1.899235 1_545
Li3 O2 1.931556 1_555
Li3 O8 2.335787 1_555
Li4 O11 1.904580 1_555
Li4 O3 1.909475 1_455
Li4 O5 1.923887 1_455
Li4 O8 2.472713 1_554
B0 O8 1.393966 1_565
B0 O6 1.396351 1_555
B0 O0 1.396566 1_555
B1 O9 1.401237 1_555
B1 O1 1.409410 1_555
B1 O7 1.410428 1_555
B2 O10 1.384650 1_555
B2 O4 1.385045 1_555
B2 O2 1.413540 1_555
B3 O11 1.394033 1_555
B3 O3 1.395133 1_545
B3 O5 1.401248 1_555
O0 Zn1 1.999629 1_565
O0 Zn0 2.326477 1_565
O1 Zn2 2.044733 1_555
O2 Zn0 2.016910 1_465
O3 Zn3 2.006778 1_655
O4 Zn0 1.956243 1_565
O5 Zn3 2.012346 1_555
O5 Zn1 2.222982 1_554
O6 Zn1 1.999815 1_555
O6 Zn3 2.293099 1_556
O7 Zn2 2.044108 1_545
O8 Zn1 1.991131 1_455
O9 Zn2 2.031421 1_645
O10 Zn0 1.958838 1_555
O11 Zn3 2.001520 1_545
