# generated using pymatgen
data_Li3MgV8O16
_symmetry_space_group_name_H-M   'P 1'
_cell_length_a   5.99800606
_cell_length_b   5.99800606
_cell_length_c   10.32123589
_cell_angle_alpha   74.18392686
_cell_angle_beta   74.18392686
_cell_angle_gamma   60.40453850
_symmetry_Int_Tables_number   1
_chemical_formula_structural   Li3MgV8O16
_chemical_formula_sum   'Li3 Mg1 V8 O16'
_cell_volume   306.39788943
_cell_formula_units_Z   1
loop_
 _symmetry_equiv_pos_site_id
 _symmetry_equiv_pos_as_xyz
  1  'x, y, z'
loop_
 _atom_site_type_symbol
 _atom_site_label
 _atom_site_symmetry_multiplicity
 _atom_site_fract_x
 _atom_site_fract_y
 _atom_site_fract_z
 _atom_site_occupancy
  Li  Li0  1  0.99941700  0.99941700  0.00129300  1
  Li  Li1  1  0.62829800  0.62829800  0.12236400  1
  Li  Li2  1  0.12467000  0.12467000  0.62901800  1
  Mg  Mg0  1  0.81428400  0.81428400  0.56349400  1
  V  V0  1  0.56128200  0.06135100  0.30734700  1
  V  V1  1  0.31132700  0.31132700  0.06644800  1
  V  V2  1  0.50074500  0.50074500  0.49670000  1
  V  V3  1  0.06253000  0.06253000  0.31070200  1
  V  V4  1  0.06135100  0.56128200  0.30734700  1
  V  V5  1  0.05338000  0.56745400  0.81449100  1
  V  V6  1  0.56745400  0.05338000  0.81449100  1
  V  V7  1  0.56337000  0.56337000  0.81491000  1
  O  O0  1  0.41556600  0.97094700  0.18514000  1
  O  O1  1  0.42313300  0.42313300  0.17817500  1
  O  O2  1  0.19625600  0.19625600  0.41736600  1
  O  O3  1  0.97094700  0.41556600  0.18514000  1
  O  O4  1  0.92850600  0.92850600  0.20459100  1
  O  O5  1  0.16904800  0.69694600  0.43322700  1
  O  O6  1  0.69694600  0.16904800  0.43322700  1
  O  O7  1  0.69770400  0.69770400  0.43338800  1
  O  O8  1  0.91910400  0.91910400  0.70766400  1
  O  O9  1  0.92822300  0.46087000  0.70654400  1
  O  O10  1  0.70195400  0.70195400  0.92262200  1
  O  O11  1  0.46087000  0.92822300  0.70654400  1
  O  O12  1  0.65325000  0.20277200  0.92785500  1
  O  O13  1  0.42716100  0.42716100  0.69894700  1
  O  O14  1  0.20277200  0.65325000  0.92785500  1
  O  O15  1  0.21044600  0.21044600  0.93311500  1
loop_
_geom_bond_atom_site_label_1
_geom_bond_atom_site_label_2
_geom_bond_distance
_geom_bond_site_symmetry_2
Li0 O4 1.992571 1_555
Li0 O14 2.055660 1_654
Li0 O12 2.055660 1_564
Li0 O15 2.076271 1_664
Li1 O10 1.959677 1_554
Li1 O3 1.989161 1_555
Li1 O0 1.989161 1_555
Li1 O1 2.020755 1_555
Li2 O8 2.027291 1_445
Li2 O11 2.028225 1_545
Li2 O9 2.028225 1_455
Li2 O2 2.073725 1_555
Mg0 O7 2.070699 1_555
Mg0 O5 2.075565 1_655
Mg0 O6 2.075565 1_565
Mg0 O8 2.101210 1_555
Mg0 O11 2.133890 1_555
Mg0 O9 2.133890 1_555
O0 V1 1.962943 1_565
O0 V0 2.022553 1_565
O0 V3 2.051429 1_565
O1 V1 1.875237 1_555
O1 V0 2.102853 1_555
O1 V4 2.102853 1_555
O2 V3 2.024061 1_555
O2 V4 2.033107 1_555
O2 V0 2.033107 1_555
O3 V1 1.962943 1_655
O3 V4 2.022553 1_655
O3 V3 2.051429 1_655
O4 V4 2.016169 1_655
O4 V0 2.016169 1_565
O4 V3 2.022376 1_665
O5 V2 1.936461 1_555
O5 V4 2.078552 1_555
O5 V3 2.088241 1_565
O6 V2 1.936461 1_555
O6 V0 2.078552 1_555
O6 V3 2.088241 1_655
O7 V2 1.937820 1_555
O7 V0 2.095231 1_565
O7 V4 2.095231 1_655
O8 V5 1.962535 1_655
O8 V6 1.962535 1_565
O9 V5 1.879296 1_655
O9 V7 2.032164 1_555
O10 V5 1.966785 1_655
O10 V6 1.966785 1_565
O10 V7 2.075505 1_555
O11 V6 1.879296 1_565
O11 V7 2.032164 1_555
O12 V6 1.947291 1_555
O12 V7 2.035691 1_555
O12 V1 2.065367 1_556
O13 V2 1.983682 1_555
O13 V5 2.093504 1_555
O13 V6 2.093504 1_555
O13 V7 2.119613 1_555
O14 V5 1.947291 1_555
O14 V7 2.035691 1_555
O14 V1 2.065367 1_556
O15 V1 1.973707 1_556
O15 V6 2.044235 1_555
O15 V5 2.044235 1_555
