# generated using pymatgen
data_Li24Mn7Cr5O36
_symmetry_space_group_name_H-M   'P 1'
_cell_length_a   5.00763300
_cell_length_b   9.74763217
_cell_length_c   13.28117156
_cell_angle_alpha   97.02125604
_cell_angle_beta   100.37961513
_cell_angle_gamma   94.65586592
_symmetry_Int_Tables_number   1
_chemical_formula_structural   Li24Mn7Cr5O36
_chemical_formula_sum   'Li24 Mn7 Cr5 O36'
_cell_volume   629.35148283
_cell_formula_units_Z   1
loop_
 _symmetry_equiv_pos_site_id
 _symmetry_equiv_pos_as_xyz
  1  'x, y, z'
loop_
 _atom_site_type_symbol
 _atom_site_label
 _atom_site_symmetry_multiplicity
 _atom_site_fract_x
 _atom_site_fract_y
 _atom_site_fract_z
 _atom_site_occupancy
  Li  Li0  1  0.16697300  0.00010300  0.83322100  1
  Li  Li1  1  0.05037300  0.00026200  0.61289900  1
  Li  Li2  1  0.99926000  0.74954100  0.25043500  1
  Li  Li3  1  0.33072900  0.75042400  0.91773700  1
  Li  Li4  1  0.04767700  0.50051100  0.11340000  1
  Li  Li5  1  0.38102800  0.50016500  0.77813200  1
  Li  Li6  1  0.16594000  0.50035500  0.33394400  1
  Li  Li7  1  0.49934300  0.50012500  0.00019600  1
  Li  Li8  1  0.28846400  0.50023100  0.55345500  1
  Li  Li9  1  0.33129800  0.25058800  0.41763800  1
  Li  Li10  1  0.49832100  0.00001300  0.50019500  1
  Li  Li11  1  0.27938100  0.99839900  0.05255100  1
  Li  Li12  1  0.61836700  0.99858100  0.71808900  1
  Li  Li13  1  0.37976700  0.99822200  0.27973000  1
  Li  Li14  1  0.72190900  0.00218000  0.94832600  1
  Li  Li15  1  0.66260100  0.75018700  0.58414800  1
  Li  Li16  1  0.71373400  0.49879500  0.44460000  1
  Li  Li17  1  0.83148100  0.50042500  0.66661400  1
  Li  Li18  1  0.62405600  0.50327800  0.22309100  1
  Li  Li19  1  0.95111800  0.49816800  0.88650200  1
  Li  Li20  1  0.66836500  0.24911000  0.08284400  1
  Li  Li21  1  0.83250500  0.99950600  0.16673100  1
  Li  Li22  1  0.99749200  0.25045500  0.75050900  1
  Li  Li23  1  0.95555900  0.00142400  0.38684100  1
  Mn  Mn0  1  0.10831500  0.24845800  0.97151200  1
  Mn  Mn1  1  0.22367900  0.75025200  0.69395300  1
  Mn  Mn2  1  0.55814800  0.25174600  0.86203900  1
  Mn  Mn3  1  0.44415600  0.74968500  0.13897600  1
  Mn  Mn4  1  0.55330200  0.74847900  0.35953100  1
  Mn  Mn5  1  0.89043300  0.24993100  0.52720100  1
  Mn  Mn6  1  0.89237100  0.75117900  0.02892500  1
  Cr  Cr0  1  0.10324700  0.75054900  0.47300900  1
  Cr  Cr1  1  0.22574800  0.24784700  0.19205000  1
  Cr  Cr2  1  0.43896800  0.24991600  0.64041100  1
  Cr  Cr3  1  0.77275300  0.74978700  0.80746300  1
  Cr  Cr4  1  0.77425400  0.25199500  0.30716700  1
  O  O0  1  0.00362600  0.86304300  0.93154300  1
  O  O1  1  0.07003400  0.63645400  0.78449300  1
  O  O2  1  0.00455200  0.36352100  0.43110600  1
  O  O3  1  0.14590700  0.36082000  0.64208900  1
  O  O4  1  0.26332900  0.36372300  0.88152500  1
  O  O5  1  0.33626700  0.86374600  0.59752100  1
  O  O6  1  0.06895200  0.13552900  0.28346400  1
  O  O7  1  0.18620200  0.13700000  0.52227200  1
  O  O8  1  0.40325900  0.13655100  0.95201100  1
  O  O9  1  0.14316800  0.86116900  0.14347100  1
  O  O10  1  0.26490100  0.86390500  0.38210300  1
  O  O11  1  0.47996300  0.86126600  0.80886900  1
  O  O12  1  0.33944100  0.13911400  0.73839300  1
  O  O13  1  0.19136700  0.63817700  0.02412200  1
  O  O14  1  0.40310800  0.63666800  0.45070700  1
  O  O15  1  0.51858600  0.63667700  0.68865700  1
  O  O16  1  0.33168400  0.63807100  0.23741200  1
  O  O17  1  0.67241300  0.63873900  0.90500200  1
  O  O18  1  0.32774600  0.36064400  0.09492700  1
  O  O19  1  0.66940500  0.36339700  0.76463700  1
  O  O20  1  0.48281400  0.36220800  0.30928700  1
  O  O21  1  0.59857100  0.36347700  0.54892000  1
  O  O22  1  0.80904600  0.36140000  0.97700000  1
  O  O23  1  0.66540900  0.86141000  0.26111900  1
  O  O24  1  0.51638900  0.13730100  0.19028600  1
  O  O25  1  0.73689100  0.13636100  0.61782600  1
  O  O26  1  0.85718500  0.13874600  0.85652800  1
  O  O27  1  0.59695300  0.86325300  0.04829800  1
  O  O28  1  0.81058900  0.86137800  0.47396400  1
  O  O29  1  0.93196500  0.86385900  0.71560300  1
  O  O30  1  0.67079900  0.13907200  0.40401800  1
  O  O31  1  0.73623900  0.63589600  0.11849000  1
  O  O32  1  0.85049600  0.63681300  0.35517000  1
  O  O33  1  0.00452700  0.63928100  0.57057700  1
  O  O34  1  0.93176600  0.36395600  0.21609700  1
  O  O35  1  0.99533700  0.13650000  0.06843100  1
loop_
_geom_bond_atom_site_label_1
_geom_bond_atom_site_label_2
_geom_bond_distance
_geom_bond_site_symmetry_2
Li0 O29 2.040960 1_445
Li0 O8 2.053523 1_555
Li0 O26 2.177124 1_455
Li0 O12 2.187997 1_555
Li0 O0 2.189340 1_545
Li0 O11 2.193778 1_545
Li1 O5 2.051907 1_545
Li1 O7 2.056201 1_555
Li1 O25 2.140660 1_455
Li1 O29 2.141693 1_445
Li1 O12 2.228515 1_555
Li1 O28 2.237498 1_445
Li2 O32 2.076406 1_555
Li2 O16 2.081603 1_655
Li2 O9 2.083489 1_655
Li2 O23 2.085130 1_555
Li2 O31 2.118879 1_555
Li2 O10 2.124778 1_655
Li3 O0 2.067059 1_555
Li3 O13 2.071183 1_556
Li3 O27 2.111019 1_556
Li3 O11 2.111077 1_555
Li3 O17 2.122046 1_555
Li3 O1 2.126385 1_555
Li4 O18 2.058777 1_555
Li4 O13 2.064967 1_555
Li4 O31 2.128071 1_455
Li4 O34 2.138393 1_455
Li4 O16 2.199946 1_555
Li4 O22 2.214674 1_454
Li5 O15 2.046962 1_555
Li5 O19 2.059666 1_555
Li5 O1 2.133823 1_555
Li5 O4 2.147729 1_555
Li5 O3 2.206718 1_555
Li5 O17 2.242880 1_555
Li6 O14 2.038939 1_555
Li6 O34 2.041897 1_455
Li6 O2 2.172317 1_555
Li6 O32 2.180336 1_455
Li6 O16 2.181262 1_555
Li6 O20 2.205631 1_555
Li7 O31 2.047513 1_555
Li7 O4 2.051846 1_554
Li7 O13 2.167780 1_555
Li7 O22 2.177030 1_554
Li7 O18 2.188135 1_555
Li7 O17 2.190325 1_554
Li8 O33 2.065073 1_555
Li8 O3 2.068433 1_555
Li8 O21 2.131250 1_555
Li8 O14 2.136006 1_555
Li8 O15 2.177828 1_555
Li8 O2 2.183606 1_555
Li9 O2 2.066587 1_555
Li9 O7 2.072296 1_555
Li9 O30 2.113625 1_555
Li9 O20 2.114825 1_555
Li9 O21 2.119725 1_555
Li9 O6 2.141933 1_555
Li10 O10 2.040908 1_545
Li10 O25 2.048524 1_555
Li10 O5 2.171736 1_545
Li10 O7 2.172585 1_555
Li10 O28 2.194775 1_545
Li10 O30 2.201304 1_555
Li11 O35 2.056537 1_465
Li11 O9 2.063080 1_555
Li11 O8 2.140972 1_564
Li11 O0 2.148640 1_554
Li11 O27 2.149858 1_555
Li11 O24 2.222475 1_565
Li12 O12 2.063059 1_565
Li12 O11 2.066540 1_555
Li12 O25 2.126449 1_565
Li12 O29 2.129464 1_555
Li12 O5 2.157799 1_555
Li12 O26 2.237356 1_565
Li13 O23 2.059629 1_555
Li13 O24 2.062309 1_565
Li13 O10 2.118586 1_555
Li13 O6 2.136849 1_565
Li13 O9 2.200641 1_555
Li13 O30 2.233381 1_565
Li14 O0 2.056527 1_645
Li14 O26 2.065275 1_555
Li14 O35 2.131870 1_556
Li14 O27 2.142363 1_546
Li14 O8 2.148473 1_555
Li14 O11 2.254853 1_545
Li15 O15 2.068210 1_555
Li15 O5 2.068213 1_555
Li15 O33 2.120622 1_655
Li15 O14 2.123952 1_555
Li15 O28 2.124502 1_555
Li15 O29 2.128645 1_555
Li16 O32 2.055209 1_555
Li16 O2 2.059049 1_655
Li16 O14 2.142548 1_555
Li16 O21 2.145508 1_555
Li16 O20 2.180759 1_555
Li16 O33 2.243502 1_655
Li17 O21 2.041037 1_555
Li17 O1 2.048820 1_655
Li17 O15 2.170893 1_555
Li17 O19 2.183464 1_555
Li17 O33 2.199932 1_655
Li17 O3 2.204846 1_655
Li18 O20 2.054362 1_555
Li18 O16 2.063407 1_555
Li18 O31 2.125794 1_555
Li18 O32 2.131339 1_555
Li18 O34 2.141910 1_555
Li18 O18 2.282222 1_555
Li19 O17 2.058512 1_555
Li19 O22 2.067359 1_555
Li19 O4 2.124819 1_655
Li19 O1 2.148010 1_655
Li19 O19 2.166121 1_555
Li19 O13 2.232019 1_656
Li20 O35 2.067807 1_555
Li20 O22 2.068398 1_554
Li20 O24 2.107150 1_555
Li20 O8 2.109917 1_554
Li20 O18 2.115222 1_555
Li20 O34 2.135380 1_555
Li21 O6 2.035849 1_665
Li21 O27 2.048369 1_555
Li21 O23 2.165941 1_555
Li21 O9 2.178490 1_655
Li21 O35 2.187592 1_565
Li21 O24 2.197442 1_565
Li22 O26 2.066180 1_555
Li22 O19 2.073811 1_555
Li22 O3 2.101828 1_655
Li22 O4 2.115644 1_655
Li22 O12 2.119964 1_655
Li22 O25 2.121742 1_555
Li23 O30 2.058813 1_555
Li23 O28 2.063345 1_545
Li23 O6 2.124960 1_655
Li23 O10 2.133562 1_645
Li23 O7 2.176743 1_655
Li23 O23 2.237981 1_545
Mn0 O35 1.916651 1_456
Mn0 O26 1.935885 1_455
Mn0 O22 1.936700 1_455
Mn0 O8 1.941328 1_555
Mn0 O18 1.951315 1_556
Mn0 O4 1.953020 1_555
Mn1 O5 1.920249 1_555
Mn1 O15 1.922315 1_555
Mn1 O29 1.943981 1_455
Mn1 O33 1.945603 1_555
Mn1 O1 1.946614 1_555
Mn1 O11 1.952529 1_555
Mn2 O19 1.916705 1_555
Mn2 O22 1.934935 1_555
Mn2 O26 1.936127 1_555
Mn2 O4 1.941182 1_555
Mn2 O8 1.952160 1_555
Mn2 O12 1.953844 1_555
Mn3 O16 1.929671 1_555
Mn3 O9 1.933578 1_555
Mn3 O23 1.941573 1_555
Mn3 O31 1.943351 1_555
Mn3 O27 1.944680 1_555
Mn3 O13 1.945815 1_555
Mn4 O32 1.918755 1_555
Mn4 O14 1.933298 1_555
Mn4 O23 1.936771 1_555
Mn4 O16 1.936789 1_555
Mn4 O10 1.943929 1_555
Mn4 O28 1.958625 1_555
Mn5 O2 1.920136 1_655
Mn5 O7 1.921389 1_655
Mn5 O30 1.944325 1_555
Mn5 O21 1.944424 1_555
Mn5 O25 1.945872 1_555
Mn5 O3 1.949904 1_655
Mn6 O0 1.917792 1_654
Mn6 O9 1.932700 1_655
Mn6 O13 1.934980 1_655
Mn6 O27 1.943945 1_555
Mn6 O31 1.951497 1_555
Mn6 O17 1.957824 1_554
Cr0 O28 1.890869 1_455
Cr0 O33 1.894008 1_555
Cr0 O10 1.966467 1_555
Cr0 O32 1.978551 1_455
Cr0 O14 1.981227 1_555
Cr0 O5 1.990801 1_555
Cr1 O24 1.881665 1_555
Cr1 O18 1.904368 1_555
Cr1 O6 1.953989 1_555
Cr1 O35 1.970606 1_455
Cr1 O34 1.975277 1_455
Cr1 O20 1.986107 1_555
Cr2 O3 1.893752 1_555
Cr2 O12 1.896910 1_555
Cr2 O21 1.968694 1_555
Cr2 O25 1.972076 1_555
Cr2 O7 1.977736 1_555
Cr2 O19 1.984397 1_555
Cr3 O17 1.895097 1_555
Cr3 O11 1.895896 1_555
Cr3 O1 1.969233 1_655
Cr3 O29 1.974509 1_555
Cr3 O0 1.983071 1_655
Cr3 O15 1.987085 1_555
Cr4 O20 1.883298 1_555
Cr4 O30 1.904796 1_555
Cr4 O34 1.950093 1_555
Cr4 O2 1.973894 1_655
Cr4 O6 1.979331 1_655
Cr4 O24 1.986478 1_555
