# generated using pymatgen
data_LaB4
_symmetry_space_group_name_H-M   'P 1'
_cell_length_a   4.18757793
_cell_length_b   7.31965624
_cell_length_c   7.31965624
_cell_angle_alpha   90.00000000
_cell_angle_beta   90.00000000
_cell_angle_gamma   90.00000000
_symmetry_Int_Tables_number   1
_chemical_formula_structural   LaB4
_chemical_formula_sum   'La4 B16'
_cell_volume   224.35940157
_cell_formula_units_Z   4
loop_
 _symmetry_equiv_pos_site_id
 _symmetry_equiv_pos_as_xyz
  1  'x, y, z'
loop_
 _atom_site_type_symbol
 _atom_site_label
 _atom_site_symmetry_multiplicity
 _atom_site_fract_x
 _atom_site_fract_y
 _atom_site_fract_z
 _atom_site_occupancy
  La  La0  1  0.00000000  0.68377381  0.18377381  1
  La  La1  1  0.00000000  0.81622619  0.68377381  1
  La  La2  1  0.00000000  0.18377381  0.31622619  1
  La  La3  1  0.00000000  0.31622619  0.81622619  1
  B  B0  1  0.50000000  0.46121556  0.32711622  1
  B  B1  1  0.50000000  0.53878444  0.67288378  1
  B  B2  1  0.50000000  0.32711622  0.53878444  1
  B  B3  1  0.50000000  0.67288378  0.46121556  1
  B  B4  1  0.20639914  -0.00000000  0.00000000  1
  B  B5  1  0.79360086  0.50000000  0.50000000  1
  B  B6  1  0.79360086  -0.00000000  0.00000000  1
  B  B7  1  0.20639914  0.50000000  0.50000000  1
  B  B8  1  0.50000000  0.08881339  0.58881339  1
  B  B9  1  0.50000000  0.41118661  0.08881339  1
  B  B10  1  0.50000000  0.58881339  0.91118661  1
  B  B11  1  0.50000000  0.91118661  0.41118661  1
  B  B12  1  0.50000000  0.17288378  0.03878444  1
  B  B13  1  0.50000000  0.96121556  0.17288378  1
  B  B14  1  0.50000000  0.03878444  0.82711622  1
  B  B15  1  0.50000000  0.82711622  0.96121556  1
loop_
_geom_bond_atom_site_label_1
_geom_bond_atom_site_label_2
_geom_bond_distance
_geom_bond_site_symmetry_2
B0 B9 1.782320 1_555
B0 B5 1.787056 1_555
B0 B7 1.787056 1_555
B0 B3 1.834097 1_555
B0 B2 1.834097 1_555
B0 La0 2.852825 1_555
B0 La0 2.852825 1_655
B0 La2 2.917939 1_655
B0 La2 2.917939 1_555
B1 B10 1.782320 1_555
B1 B7 1.787056 1_555
B1 B5 1.787056 1_555
B1 B3 1.834097 1_555
B1 B2 1.834097 1_555
B1 La3 2.852825 1_555
B1 La3 2.852825 1_655
B1 La1 2.917939 1_555
B1 La1 2.917939 1_655
B2 B8 1.782320 1_555
B2 B5 1.787056 1_555
B2 B7 1.787056 1_555
B2 La2 2.852825 1_555
B2 La2 2.852825 1_655
B2 La3 2.917939 1_655
B2 La3 2.917939 1_555
B3 B7 1.787056 1_555
B3 B5 1.787056 1_555
B3 La1 2.852825 1_555
B3 La1 2.852825 1_655
B3 La0 2.917939 1_555
B3 La0 2.917939 1_655
B4 B6 1.728625 1_455
B4 La2 2.813215 1_555
B4 La1 2.813215 1_544
B4 La0 2.813215 1_545
B4 La3 2.813215 1_554
B5 B7 1.728625 1_655
B5 La2 2.813215 1_655
B5 La3 2.813215 1_655
B5 La0 2.813215 1_655
B5 La1 2.813215 1_655
B6 La0 2.813215 1_645
B6 La2 2.813215 1_655
B6 La1 2.813215 1_644
B6 La3 2.813215 1_654
B7 La2 2.813215 1_555
B7 La0 2.813215 1_555
B7 La3 2.813215 1_555
B7 La1 2.813215 1_555
B8 La2 2.974573 1_655
B8 La2 2.974573 1_555
B8 La1 2.974573 1_545
B8 La1 2.974573 1_645
B8 La3 3.150497 1_555
B8 La3 3.150497 1_655
B9 La0 2.974573 1_555
B9 La3 2.974573 1_554
B9 La3 2.974573 1_654
B9 La0 2.974573 1_655
B9 La2 3.150497 1_655
B9 La2 3.150497 1_555
B10 B15 1.782320 1_555
B10 B9 1.838714 1_556
B10 La0 2.974573 1_656
B10 La0 2.974573 1_556
B10 La3 2.974573 1_555
B10 La3 2.974573 1_655
B10 La1 3.150497 1_555
B10 La1 3.150497 1_655
B11 B3 1.782320 1_555
B11 B13 1.782320 1_555
B11 B8 1.838714 1_565
B11 La2 2.974573 1_565
B11 La2 2.974573 1_665
B11 La1 2.974573 1_555
B11 La1 2.974573 1_655
B11 La0 3.150497 1_555
B11 La0 3.150497 1_655
B12 B9 1.782320 1_555
B12 B6 1.787056 1_555
B12 B4 1.787056 1_555
B12 B13 1.834097 1_545
B12 B14 1.834097 1_554
B12 La3 2.852825 1_554
B12 La3 2.852825 1_654
B12 La2 2.917939 1_555
B12 La2 2.917939 1_655
B13 B6 1.787056 1_565
B13 B4 1.787056 1_565
B13 B15 1.834097 1_554
B13 La2 2.852825 1_565
B13 La2 2.852825 1_665
B13 La0 2.917939 1_555
B13 La0 2.917939 1_655
B14 B8 1.782320 1_555
B14 B4 1.787056 1_556
B14 B6 1.787056 1_556
B14 B15 1.834097 1_545
B14 La1 2.852825 1_645
B14 La1 2.852825 1_545
B14 La3 2.917939 1_555
B14 La3 2.917939 1_655
B15 B6 1.787056 1_566
B15 B4 1.787056 1_566
B15 La0 2.852825 1_556
B15 La0 2.852825 1_656
B15 La1 2.917939 1_555
B15 La1 2.917939 1_655
