# generated using pymatgen
data_Li5Mn7Fe3O20
_symmetry_space_group_name_H-M   'P 1'
_cell_length_a   6.00541939
_cell_length_b   5.94041365
_cell_length_c   24.52900779
_cell_angle_alpha   90.17538088
_cell_angle_beta   97.58103865
_cell_angle_gamma   120.30840504
_symmetry_Int_Tables_number   1
_chemical_formula_structural   Li5Mn7Fe3O20
_chemical_formula_sum   'Li10 Mn14 Fe6 O40'
_cell_volume   746.37504573
_cell_formula_units_Z   2
loop_
 _symmetry_equiv_pos_site_id
 _symmetry_equiv_pos_as_xyz
  1  'x, y, z'
loop_
 _atom_site_type_symbol
 _atom_site_label
 _atom_site_symmetry_multiplicity
 _atom_site_fract_x
 _atom_site_fract_y
 _atom_site_fract_z
 _atom_site_occupancy
  Li  Li0  1  0.84592300  0.67613000  0.02701800  1
  Li  Li1  1  0.95782300  0.73273600  0.17131100  1
  Li  Li2  1  0.64712000  0.07026100  0.22725700  1
  Li  Li3  1  0.26496000  0.88415200  0.62394000  1
  Li  Li4  1  0.46447900  0.48454900  0.42674100  1
  Li  Li5  1  0.74211800  0.12537000  0.37322400  1
  Li  Li6  1  0.53854600  0.51263800  0.57722500  1
  Li  Li7  1  0.33577900  0.91541700  0.77697800  1
  Li  Li8  1  0.05092800  0.28819200  0.82401600  1
  Li  Li9  1  0.15582600  0.31699700  0.97324800  1
  Mn  Mn0  1  0.40375700  0.70272500  0.10009200  1
  Mn  Mn1  1  0.40354700  0.20215100  0.09949100  1
  Mn  Mn2  1  0.19739200  0.59942600  0.29939000  1
  Mn  Mn3  1  0.69969900  0.60057200  0.30017500  1
  Mn  Mn4  1  0.90340300  0.20310700  0.09964900  1
  Mn  Mn5  1  0.19785300  0.09971800  0.29929700  1
  Mn  Mn6  1  0.00177500  0.00017400  0.50062900  1
  Mn  Mn7  1  0.09949000  0.79922500  0.89912800  1
  Mn  Mn8  1  0.50219300  0.00088800  0.50132000  1
  Mn  Mn9  1  0.29801900  0.39891500  0.70036300  1
  Mn  Mn10  1  0.60044100  0.80110700  0.89977100  1
  Mn  Mn11  1  0.79956300  0.40095600  0.70096000  1
  Mn  Mn12  1  0.68712500  0.59954400  0.80030600  1
  Mn  Mn13  1  0.90355000  0.20038100  0.60065300  1
  Fe  Fe0  1  0.10663800  0.80519200  0.40060000  1
  Fe  Fe1  1  0.50169900  0.99566800  0.99945700  1
  Fe  Fe2  1  0.30310100  0.40225500  0.19964600  1
  Fe  Fe3  1  0.00254400  0.50242300  0.50015000  1
  Fe  Fe4  1  0.79858400  0.90003300  0.70058400  1
  Fe  Fe5  1  0.59981200  0.29858300  0.90058900  1
  O  O0  1  0.23811200  0.86528400  0.05422100  1
  O  O1  1  0.68396300  0.86612700  0.05591300  1
  O  O2  1  0.98186800  0.76511800  0.25544700  1
  O  O3  1  0.23994200  0.36961400  0.05603300  1
  O  O4  1  0.12299100  0.53911200  0.14455100  1
  O  O5  1  0.56745300  0.53534900  0.14548600  1
  O  O6  1  0.35875300  0.93365900  0.34391100  1
  O  O7  1  0.12251900  0.08505800  0.14340900  1
  O  O8  1  0.49119500  0.71800500  0.25551300  1
  O  O9  1  0.68384200  0.31809200  0.05501900  1
  O  O10  1  0.03864500  0.26653200  0.25352800  1
  O  O11  1  0.48378600  0.26513700  0.25495000  1
  O  O12  1  0.29859800  0.67454500  0.45468300  1
  O  O13  1  0.20986100  0.86086000  0.54269300  1
  O  O14  1  0.56768000  0.03685500  0.14389800  1
  O  O15  1  0.41299600  0.43392900  0.34327500  1
  O  O16  1  0.91758900  0.93799000  0.34480300  1
  O  O17  1  0.90927000  0.48396700  0.34489600  1
  O  O18  1  0.70312600  0.88328400  0.55045800  1
  O  O19  1  0.15660400  0.31826000  0.54982800  1
  O  O20  1  0.84068300  0.67923100  0.45350900  1
  O  O21  1  0.11000700  0.51762400  0.64938500  1
  O  O22  1  0.31041600  0.12842900  0.45506800  1
  O  O23  1  0.08867400  0.07182600  0.65252200  1
  O  O24  1  0.50440000  0.72531900  0.74795500  1
  O  O25  1  0.79297000  0.14055500  0.45881700  1
  O  O26  1  0.71772000  0.32631300  0.55034800  1
  O  O27  1  0.59329000  0.53639800  0.65975900  1
  O  O28  1  0.40458000  0.94036300  0.85776900  1
  O  O29  1  0.32591300  0.67270000  0.94484300  1
  O  O30  1  0.48670800  0.28181100  0.75189400  1
  O  O31  1  0.94984200  0.72414000  0.75124100  1
  O  O32  1  0.64659400  0.07856800  0.65099800  1
  O  O33  1  0.86667300  0.91745300  0.85070900  1
  O  O34  1  0.43588200  0.47807900  0.85154200  1
  O  O35  1  0.87899000  0.47817900  0.85010600  1
  O  O36  1  0.00480800  0.26337100  0.74160800  1
  O  O37  1  0.79719900  0.66042300  0.94181900  1
  O  O38  1  0.30716200  0.12106900  0.94585100  1
  O  O39  1  0.77071700  0.12688300  0.94659600  1
loop_
_geom_bond_atom_site_label_1
_geom_bond_atom_site_label_2
_geom_bond_distance
_geom_bond_site_symmetry_2
Li0 O1 2.001810 1_555
Li0 O9 2.009649 1_555
Li0 O0 2.040758 1_655
Li0 O37 2.066806 1_554
Li1 O7 1.981190 1_665
Li1 O4 2.014047 1_655
Li1 O5 2.025150 1_555
Li1 O2 2.051320 1_555
Li2 O8 1.984539 1_545
Li2 O11 2.020097 1_555
Li2 O14 2.022970 1_555
Li2 O10 2.032684 1_655
Li3 O13 1.969371 1_555
Li3 O32 1.987311 1_565
Li3 O21 2.028010 1_555
Li3 O23 2.058528 1_565
Li4 O20 1.959504 1_555
Li4 O22 2.004313 1_555
Li4 O12 2.011527 1_555
Li4 O15 2.028049 1_555
Li5 O6 2.006556 1_545
Li5 O17 2.015724 1_555
Li5 O16 2.051451 1_545
Li5 O25 2.076345 1_555
Li6 O19 1.990332 1_555
Li6 O27 2.000578 1_555
Li6 O26 2.049959 1_555
Li6 O18 2.058998 1_555
Li7 O28 1.959658 1_555
Li7 O31 2.003229 1_455
Li7 O30 2.025243 1_565
Li7 O24 2.036406 1_555
Li8 O36 1.998422 1_555
Li8 O34 2.006044 1_555
Li8 O35 2.023760 1_455
Li8 O33 2.060042 1_445
Li9 O38 1.963732 1_555
Li9 O39 2.002979 1_455
Li9 O29 2.003008 1_555
Li9 O3 2.010583 1_556
Mn0 O1 1.946070 1_555
Mn0 O3 1.947573 1_555
Mn0 O14 1.949125 1_565
Mn0 O4 1.953081 1_555
Mn0 O0 1.966968 1_555
Mn0 O5 1.974671 1_555
Mn1 O7 1.947327 1_555
Mn1 O3 1.951392 1_555
Mn1 O9 1.953650 1_555
Mn1 O14 1.955091 1_555
Mn1 O5 1.971392 1_555
Mn1 O0 1.978203 1_545
Mn2 O6 1.959424 1_555
Mn2 O10 1.971189 1_555
Mn2 O8 2.004727 1_555
Mn2 O17 2.006680 1_455
Mn2 O15 2.173770 1_555
Mn2 O2 2.174874 1_455
Mn3 O8 1.943979 1_555
Mn3 O17 1.946120 1_555
Mn3 O15 1.956662 1_555
Mn3 O2 1.963658 1_555
Mn3 O11 1.970177 1_555
Mn3 O16 1.972202 1_555
Mn4 O1 1.961126 1_545
Mn4 O4 1.970478 1_655
Mn4 O9 1.984020 1_555
Mn4 O7 1.984633 1_655
Mn4 O3 2.183335 1_655
Mn4 O14 2.189194 1_555
Mn5 O6 1.947824 1_545
Mn5 O15 1.950579 1_555
Mn5 O2 1.951094 1_445
Mn5 O10 1.958663 1_555
Mn5 O16 1.967738 1_445
Mn5 O11 1.973276 1_555
Mn6 O20 1.933016 1_445
Mn6 O19 1.951421 1_555
Mn6 O13 2.004974 1_545
Mn6 O25 2.010236 1_455
Mn6 O22 2.095570 1_555
Mn6 O18 2.125887 1_445
Mn7 O38 1.930548 1_565
Mn7 O35 1.963032 1_455
Mn7 O28 2.008553 1_555
Mn7 O37 2.016962 1_455
Mn7 O29 2.075008 1_555
Mn7 O33 2.101604 1_455
Mn8 O22 1.931004 1_555
Mn8 O12 1.945972 1_545
Mn8 O13 1.950696 1_545
Mn8 O25 1.961631 1_555
Mn8 O18 1.967022 1_545
Mn8 O26 1.976937 1_555
Mn9 O21 1.942220 1_555
Mn9 O30 1.946470 1_555
Mn9 O27 1.952587 1_555
Mn9 O36 1.953584 1_555
Mn9 O24 1.958920 1_555
Mn9 O23 1.965780 1_555
Mn10 O29 1.933653 1_555
Mn10 O39 1.946582 1_565
Mn10 O28 1.948546 1_555
Mn10 O34 1.954995 1_555
Mn10 O37 1.959291 1_555
Mn10 O33 1.969694 1_555
Mn11 O36 1.969487 1_655
Mn11 O27 1.970744 1_555
Mn11 O32 1.981507 1_555
Mn11 O31 1.991099 1_555
Mn11 O30 2.207814 1_555
Mn11 O21 2.209098 1_655
Mn12 O30 1.933283 1_555
Mn12 O34 1.945174 1_555
Mn12 O35 1.952445 1_555
Mn12 O31 1.952776 1_555
Mn12 O33 1.958659 1_555
Mn12 O24 1.967979 1_555
Mn13 O21 1.937647 1_655
Mn13 O19 1.945565 1_655
Mn13 O32 1.952212 1_555
Mn13 O26 1.952584 1_555
Mn13 O18 1.954316 1_545
Mn13 O23 1.981805 1_655
Fe0 O20 2.035140 1_455
Fe0 O22 2.037358 1_565
Fe0 O17 2.046216 1_455
Fe0 O12 2.048645 1_555
Fe0 O6 2.050395 1_555
Fe0 O16 2.070034 1_455
Fe1 O38 2.031704 1_565
Fe1 O29 2.038828 1_555
Fe1 O1 2.040754 1_556
Fe1 O39 2.046161 1_565
Fe1 O9 2.049030 1_566
Fe1 O0 2.059145 1_556
Fe2 O8 2.027168 1_555
Fe2 O7 2.038711 1_555
Fe2 O4 2.041032 1_555
Fe2 O10 2.046247 1_555
Fe2 O11 2.047332 1_555
Fe2 O5 2.050939 1_555
Fe3 O20 2.025160 1_455
Fe3 O13 2.034882 1_555
Fe3 O12 2.036087 1_555
Fe3 O25 2.037693 1_455
Fe3 O19 2.066393 1_555
Fe3 O26 2.072159 1_455
Fe4 O31 2.031987 1_555
Fe4 O32 2.032081 1_565
Fe4 O27 2.040102 1_555
Fe4 O36 2.040809 1_665
Fe4 O23 2.054536 1_665
Fe4 O24 2.060807 1_555
Fe5 O38 2.021097 1_555
Fe5 O39 2.031084 1_555
Fe5 O37 2.036391 1_555
Fe5 O28 2.036991 1_545
Fe5 O35 2.057440 1_555
Fe5 O34 2.075658 1_555
