# generated using pymatgen
data_Li4Co2C4SO16
_symmetry_space_group_name_H-M   'P 1'
_cell_length_a   9.14550200
_cell_length_b   9.15633002
_cell_length_c   9.24263428
_cell_angle_alpha   118.92522839
_cell_angle_beta   118.89628031
_cell_angle_gamma   91.29093861
_symmetry_Int_Tables_number   1
_chemical_formula_structural   Li4Co2C4SO16
_chemical_formula_sum   'Li8 Co4 C8 S2 O32'
_cell_volume   558.93355083
_cell_formula_units_Z   2
loop_
 _symmetry_equiv_pos_site_id
 _symmetry_equiv_pos_as_xyz
  1  'x, y, z'
loop_
 _atom_site_type_symbol
 _atom_site_label
 _atom_site_symmetry_multiplicity
 _atom_site_fract_x
 _atom_site_fract_y
 _atom_site_fract_z
 _atom_site_occupancy
  Li  Li0  1  0.33396100  0.66446200  0.74841400  1
  Li  Li1  1  0.67762700  0.91522600  0.24863600  1
  Li  Li2  1  0.91884000  0.67302400  0.76248800  1
  Li  Li3  1  0.32940000  0.08341600  0.17529700  1
  Li  Li4  1  0.07402000  0.33721900  0.25475100  1
  Li  Li5  1  0.91406000  0.08512700  0.74866000  1
  Li  Li6  1  0.32265100  0.07790800  0.73046300  1
  Li  Li7  1  0.68009100  0.33958700  0.25463500  1
  Co  Co0  1  0.50067200  0.99804300  0.49867000  1
  Co  Co1  1  0.50028200  0.49876600  0.99792800  1
  Co  Co2  1  0.99947300  0.49915100  0.99847900  1
  Co  Co3  1  0.49899400  0.49948000  0.49968500  1
  C  C0  1  0.35451900  0.28357300  0.57235400  1
  C  C1  1  0.71602100  0.64344800  0.92420800  1
  C  C2  1  0.71007700  0.27654700  0.92538500  1
  C  C3  1  0.72130800  0.28695200  0.57065600  1
  C  C4  1  0.28692900  0.71809000  0.06795700  1
  C  C5  1  0.28074400  0.71006500  0.42597100  1
  C  C6  1  0.64580700  0.71453800  0.42401000  1
  C  C7  1  0.28314100  0.34930200  0.07090300  1
  S  S0  1  0.12946200  0.88095800  0.76090700  1
  S  S1  1  0.87241700  0.12995500  0.25211900  1
  O  O0  1  0.41560400  0.86974900  0.21358000  1
  O  O1  1  0.34336600  0.41352100  0.54884300  1
  O  O2  1  0.58606600  0.65505300  0.94907000  1
  O  O3  1  0.63842900  0.69809700  0.27416100  1
  O  O4  1  0.69889000  0.64289700  0.77669200  1
  O  O5  1  0.06879900  0.95706500  0.64058900  1
  O  O6  1  0.06029600  0.94294800  0.89091400  1
  O  O7  1  0.85644300  0.63773500  0.04987700  1
  O  O8  1  0.35886600  0.14170900  0.44363400  1
  O  O9  1  0.69346500  0.40178000  0.05793200  1
  O  O10  1  0.59321400  0.30126600  0.43577000  1
  O  O11  1  0.06920200  0.68472900  0.64022700  1
  O  O12  1  0.32787400  0.94845400  0.89111500  1
  O  O13  1  0.13668000  0.70039600  0.04684600  1
  O  O14  1  0.29856800  0.86235500  0.45125500  1
  O  O15  1  0.86237600  0.42002400  0.71961400  1
  O  O16  1  0.13854800  0.57646500  0.27494200  1
  O  O17  1  0.86298200  0.29339700  0.94840700  1
  O  O18  1  0.70577900  0.13490400  0.54869400  1
  O  O19  1  0.67288000  0.06836500  0.12979000  1
  O  O20  1  0.93205500  0.32993700  0.37283800  1
  O  O21  1  0.40494600  0.69229800  0.55989800  1
  O  O22  1  0.30691400  0.59220400  0.93993200  1
  O  O23  1  0.65319800  0.86291000  0.55773800  1
  O  O24  1  0.13787000  0.34879600  0.94283800  1
  O  O25  1  0.94533300  0.07666000  0.12907700  1
  O  O26  1  0.92764300  0.05962500  0.37749100  1
  O  O27  1  0.29889600  0.34198300  0.21529300  1
  O  O28  1  0.35782900  0.29834800  0.71924700  1
  O  O29  1  0.41496300  0.34711300  0.05258900  1
  O  O30  1  0.65323900  0.58482000  0.44684500  1
  O  O31  1  0.57828700  0.13310600  0.77523200  1
loop_
_geom_bond_atom_site_label_1
_geom_bond_atom_site_label_2
_geom_bond_distance
_geom_bond_site_symmetry_2
Li0 O1 2.179830 1_555
Li0 O11 2.181064 1_555
Li0 O2 2.189477 1_555
Li0 O21 2.244469 1_555
Li0 O22 2.276176 1_555
Li0 O12 2.294390 1_555
Li1 O26 2.025700 1_565
Li1 O19 2.149697 1_565
Li1 O3 2.154080 1_555
Li1 O0 2.257193 1_555
Li1 O2 2.308968 1_554
Li1 O18 2.386199 1_565
Li2 O4 2.098792 1_555
Li2 O15 2.156488 1_555
Li2 O6 2.173698 1_655
Li2 O11 2.189000 1_655
Li2 O13 2.284584 1_656
Li2 O30 2.418127 1_555
Li3 O8 2.139080 1_555
Li3 O6 2.226046 1_544
Li3 O0 2.245840 1_545
Li3 O27 2.258865 1_555
Li3 O10 2.262761 1_555
Li3 O12 2.291344 1_544
Li4 O25 2.073117 1_455
Li4 O20 2.077829 1_455
Li4 O16 2.149825 1_555
Li4 O27 2.258483 1_555
Li4 O17 2.342588 1_454
Li4 O1 2.357723 1_555
Li5 O5 2.164087 1_645
Li5 O18 2.168769 1_555
Li5 O17 2.175131 1_555
Li5 O23 2.277047 1_545
Li5 O6 2.290612 1_645
Li5 O24 2.296713 1_655
Li6 O28 2.096105 1_555
Li6 O5 2.106067 1_545
Li6 O31 2.168420 1_555
Li6 O14 2.260012 1_545
Li6 O12 2.290979 1_545
Li6 O29 2.455770 1_556
Li7 O20 2.044715 1_555
Li7 O19 2.156429 1_555
Li7 O30 2.201371 1_555
Li7 O9 2.204048 1_555
Li7 O29 2.264348 1_555
Li7 O10 2.323459 1_555
Co0 O31 1.927740 1_565
Co0 O14 1.933648 1_555
Co0 O8 1.938472 1_565
Co0 O23 1.941662 1_555
Co0 O18 1.948901 1_565
Co0 O0 1.977807 1_555
Co1 O3 1.927914 1_556
Co1 O22 1.934517 1_555
Co1 O28 1.943234 1_555
Co1 O2 1.945286 1_555
Co1 O29 1.950136 1_556
Co1 O9 1.953907 1_556
Co2 O7 1.907655 1_556
Co2 O16 1.927899 1_656
Co2 O13 1.930465 1_656
Co2 O15 1.941559 1_555
Co2 O24 1.945385 1_655
Co2 O17 1.952937 1_555
Co3 O4 1.933284 1_555
Co3 O21 1.935747 1_555
Co3 O1 1.942192 1_555
Co3 O30 1.955592 1_555
Co3 O27 1.975649 1_555
Co3 O10 1.977547 1_555
C0 O28 1.282548 1_555
C0 O8 1.287405 1_555
C0 O1 1.306721 1_555
C1 O7 1.273299 1_556
C1 O4 1.292438 1_555
C1 O2 1.312498 1_555
C2 O31 1.285540 1_555
C2 O9 1.291361 1_556
C2 O17 1.302126 1_555
C3 O15 1.278428 1_555
C3 O18 1.299793 1_555
C3 O10 1.302806 1_555
C4 O13 1.285592 1_555
C4 O22 1.288925 1_554
C4 O0 1.308571 1_555
C5 O16 1.287733 1_555
C5 O14 1.289693 1_555
C5 O21 1.301230 1_555
C6 O3 1.285681 1_555
C6 O23 1.291786 1_555
C6 O30 1.300829 1_555
C7 O24 1.280929 1_554
C7 O29 1.295184 1_555
C7 O27 1.306663 1_555
O5 S0 1.483533 1_555
O6 S0 1.502388 1_555
O11 S0 1.482830 1_555
O12 S0 1.497481 1_555
O19 S1 1.506422 1_555
O20 S1 1.511906 1_555
O25 S1 1.478811 1_555
O26 S1 1.477630 1_555
