# generated using pymatgen
data_Na3Sb5O14
_symmetry_space_group_name_H-M   'P 1'
_cell_length_a   7.21709800
_cell_length_b   7.41116700
_cell_length_c   24.41592800
_cell_angle_alpha   90.00000000
_cell_angle_beta   90.00000000
_cell_angle_gamma   90.00000000
_symmetry_Int_Tables_number   1
_chemical_formula_structural   Na3Sb5O14
_chemical_formula_sum   'Na12 Sb20 O56'
_cell_volume   1305.93763504
_cell_formula_units_Z   4
loop_
 _symmetry_equiv_pos_site_id
 _symmetry_equiv_pos_as_xyz
  1  'x, y, z'
loop_
 _atom_site_type_symbol
 _atom_site_label
 _atom_site_symmetry_multiplicity
 _atom_site_fract_x
 _atom_site_fract_y
 _atom_site_fract_z
 _atom_site_occupancy
  Na  Na0  1  0.19474300  0.50000000  0.02933600  1
  Na  Na1  1  0.57467200  0.50000000  0.12638200  1
  Na  Na2  1  0.69231700  0.00000000  0.19322200  1
  Na  Na3  1  0.19231700  0.00000000  0.30677800  1
  Na  Na4  1  0.07467200  0.50000000  0.37361800  1
  Na  Na5  1  0.69474300  0.50000000  0.47066400  1
  Na  Na6  1  0.30525700  0.50000000  0.52933600  1
  Na  Na7  1  0.92532800  0.50000000  0.62638200  1
  Na  Na8  1  0.80768300  0.00000000  0.69322200  1
  Na  Na9  1  0.30768300  0.00000000  0.80677800  1
  Na  Na10  1  0.42532800  0.50000000  0.87361800  1
  Na  Na11  1  0.80525700  0.50000000  0.97066400  1
  Sb  Sb0  1  0.42195300  0.00000000  0.05824000  1
  Sb  Sb1  1  0.90861100  0.00000000  0.06146200  1
  Sb  Sb2  1  0.10688300  0.73598300  0.14602700  1
  Sb  Sb3  1  0.10688300  0.26401700  0.14602700  1
  Sb  Sb4  1  0.80863900  0.50000000  0.24157600  1
  Sb  Sb5  1  0.30863900  0.50000000  0.25842400  1
  Sb  Sb6  1  0.60688300  0.73598300  0.35397300  1
  Sb  Sb7  1  0.60688300  0.26401700  0.35397300  1
  Sb  Sb8  1  0.40861100  0.00000000  0.43853800  1
  Sb  Sb9  1  0.92195300  0.00000000  0.44176000  1
  Sb  Sb10  1  0.07804700  0.00000000  0.55824000  1
  Sb  Sb11  1  0.59138900  0.00000000  0.56146200  1
  Sb  Sb12  1  0.39311700  0.73598300  0.64602700  1
  Sb  Sb13  1  0.39311700  0.26401700  0.64602700  1
  Sb  Sb14  1  0.69136100  0.50000000  0.74157600  1
  Sb  Sb15  1  0.19136100  0.50000000  0.75842400  1
  Sb  Sb16  1  0.89311700  0.73598300  0.85397300  1
  Sb  Sb17  1  0.89311700  0.26401700  0.85397300  1
  Sb  Sb18  1  0.09138900  0.00000000  0.93853800  1
  Sb  Sb19  1  0.57804700  0.00000000  0.94176000  1
  O  O0  1  0.50000000  0.82048800  0.00000000  1
  O  O1  1  0.50000000  0.17951200  0.00000000  1
  O  O2  1  0.16301100  0.00000000  0.01809200  1
  O  O3  1  0.96154000  0.74138200  0.07205900  1
  O  O4  1  0.96154000  0.25861800  0.07205900  1
  O  O5  1  0.66620800  0.00000000  0.09604700  1
  O  O6  1  0.34353900  0.80283100  0.10635500  1
  O  O7  1  0.34353900  0.19716900  0.10635500  1
  O  O8  1  0.19245100  0.50000000  0.12137700  1
  O  O9  1  0.01976900  0.00000000  0.14341000  1
  O  O10  1  0.86306300  0.68325200  0.18145100  1
  O  O11  1  0.86306300  0.31674800  0.18145100  1
  O  O12  1  0.24150200  0.27037400  0.21545600  1
  O  O13  1  0.24150200  0.72962600  0.21545600  1
  O  O14  1  0.54498000  0.50000000  0.21676700  1
  O  O15  1  0.04498000  0.50000000  0.28323300  1
  O  O16  1  0.74150200  0.72962600  0.28454400  1
  O  O17  1  0.74150200  0.27037400  0.28454400  1
  O  O18  1  0.36306300  0.68325200  0.31854900  1
  O  O19  1  0.36306300  0.31674800  0.31854900  1
  O  O20  1  0.51976900  0.00000000  0.35659000  1
  O  O21  1  0.69245100  0.50000000  0.37862300  1
  O  O22  1  0.84353900  0.80283100  0.39364500  1
  O  O23  1  0.84353900  0.19716900  0.39364500  1
  O  O24  1  0.16620800  0.00000000  0.40395300  1
  O  O25  1  0.46154000  0.74138200  0.42794100  1
  O  O26  1  0.46154000  0.25861800  0.42794100  1
  O  O27  1  0.66301100  0.00000000  0.48190800  1
  O  O28  1  0.00000000  0.82048800  0.50000000  1
  O  O29  1  0.00000000  0.17951200  0.50000000  1
  O  O30  1  0.33698900  0.00000000  0.51809200  1
  O  O31  1  0.53846000  0.74138200  0.57205900  1
  O  O32  1  0.53846000  0.25861800  0.57205900  1
  O  O33  1  0.83379200  0.00000000  0.59604700  1
  O  O34  1  0.15646100  0.80283100  0.60635500  1
  O  O35  1  0.15646100  0.19716900  0.60635500  1
  O  O36  1  0.30754900  0.50000000  0.62137700  1
  O  O37  1  0.48023100  0.00000000  0.64341000  1
  O  O38  1  0.63693700  0.68325200  0.68145100  1
  O  O39  1  0.63693700  0.31674800  0.68145100  1
  O  O40  1  0.25849800  0.27037400  0.71545600  1
  O  O41  1  0.25849800  0.72962600  0.71545600  1
  O  O42  1  0.95502000  0.50000000  0.71676700  1
  O  O43  1  0.45502000  0.50000000  0.78323300  1
  O  O44  1  0.75849800  0.72962600  0.78454400  1
  O  O45  1  0.75849800  0.27037400  0.78454400  1
  O  O46  1  0.13693700  0.68325200  0.81854900  1
  O  O47  1  0.13693700  0.31674800  0.81854900  1
  O  O48  1  0.98023100  0.00000000  0.85659000  1
  O  O49  1  0.80754900  0.50000000  0.87862300  1
  O  O50  1  0.65646100  0.80283100  0.89364500  1
  O  O51  1  0.65646100  0.19716900  0.89364500  1
  O  O52  1  0.33379200  0.00000000  0.90395300  1
  O  O53  1  0.03846000  0.74138200  0.92794100  1
  O  O54  1  0.03846000  0.25861800  0.92794100  1
  O  O55  1  0.83698900  0.00000000  0.98190800  1
loop_
_geom_bond_atom_site_label_1
_geom_bond_atom_site_label_2
_geom_bond_distance
_geom_bond_site_symmetry_2
Na0 O8 2.247327 1_555
Na0 O3 2.668520 1_455
Na0 O4 2.668520 1_455
Na1 O14 2.217213 1_555
Na1 O8 2.761232 1_555
Na1 O10 2.825652 1_555
Na1 O11 2.825652 1_555
Na1 O6 2.838787 1_555
Na1 O7 2.838787 1_555
Na2 O5 2.380089 1_555
Na2 O9 2.657842 1_655
Na2 O11 2.666789 1_555
Na2 O10 2.666789 1_545
Na2 O17 3.018738 1_555
Na2 O16 3.018738 1_545
Na3 O24 2.380089 1_555
Na3 O20 2.657842 1_555
Na3 O19 2.666789 1_555
Na3 O18 2.666789 1_545
Na3 O12 3.018738 1_555
Na3 O13 3.018738 1_545
Na4 O15 2.217213 1_555
Na4 O21 2.761232 1_455
Na4 O18 2.825652 1_555
Na4 O19 2.825652 1_555
Na4 O22 2.838787 1_455
Na4 O23 2.838787 1_455
Na5 O21 2.247327 1_555
Na5 O25 2.668520 1_555
Na5 O26 2.668520 1_555
Na6 O36 2.247327 1_555
Na6 O32 2.668520 1_555
Na6 O31 2.668520 1_555
Na7 O42 2.217213 1_555
Na7 O36 2.761232 1_655
Na7 O38 2.825652 1_555
Na7 O39 2.825652 1_555
Na7 O34 2.838787 1_655
Na7 O35 2.838787 1_655
Na8 O33 2.380089 1_555
Na8 O37 2.657842 1_555
Na8 O39 2.666789 1_555
Na8 O38 2.666789 1_545
Na8 O44 3.018738 1_545
Na8 O45 3.018738 1_555
Na9 O52 2.380089 1_555
Na9 O48 2.657842 1_455
Na9 O47 2.666789 1_555
Na9 O46 2.666789 1_545
Na9 O40 3.018738 1_555
Na9 O41 3.018738 1_545
Na10 O43 2.217213 1_555
Na10 O49 2.761232 1_555
Na10 O47 2.825652 1_555
Na10 O46 2.825652 1_555
Na10 O50 2.838787 1_555
Na10 O51 2.838787 1_555
Na11 O49 2.247327 1_555
Na11 O53 2.668520 1_655
Na11 O54 2.668520 1_655
O0 Sb19 2.027131 1_564
O0 Sb0 2.027131 1_565
O1 Sb19 2.027131 1_554
O1 Sb0 2.027131 1_555
O2 Sb18 2.009987 1_554
O2 Sb0 2.110294 1_555
O2 Sb1 2.119508 1_455
O3 Sb1 1.971409 1_565
O3 Sb2 2.088907 1_655
O4 Sb1 1.971409 1_555
O4 Sb3 2.088907 1_655
O5 Sb1 1.942580 1_555
O5 Sb0 1.989876 1_555
O6 Sb0 1.958473 1_565
O6 Sb2 2.025054 1_555
O7 Sb0 1.958473 1_555
O7 Sb3 2.025054 1_555
O8 Sb2 1.949944 1_555
O8 Sb3 1.949944 1_555
O9 Sb3 2.056194 1_555
O9 Sb2 2.056194 1_545
O9 Sb1 2.155675 1_455
O10 Sb2 1.999310 1_655
O10 Sb4 2.038085 1_555
O11 Sb3 1.999310 1_655
O11 Sb4 2.038085 1_555
O12 Sb3 1.954420 1_555
O12 Sb5 2.057062 1_555
O13 Sb2 1.954420 1_555
O13 Sb5 2.057062 1_555
O14 Sb5 1.985920 1_555
O14 Sb4 1.996939 1_555
O15 Sb4 1.985920 1_455
O15 Sb5 1.996939 1_555
O16 Sb6 1.954420 1_555
O16 Sb4 2.057062 1_555
O17 Sb7 1.954420 1_555
O17 Sb4 2.057062 1_555
O18 Sb6 1.999310 1_555
O18 Sb5 2.038085 1_555
O19 Sb7 1.999310 1_555
O19 Sb5 2.038085 1_555
O20 Sb7 2.056194 1_555
O20 Sb6 2.056194 1_545
O20 Sb8 2.155675 1_555
O21 Sb6 1.949944 1_555
O21 Sb7 1.949944 1_555
O22 Sb9 1.958473 1_565
O22 Sb6 2.025054 1_555
O23 Sb9 1.958473 1_555
O23 Sb7 2.025054 1_555
O24 Sb8 1.942580 1_555
O24 Sb9 1.989876 1_455
O25 Sb8 1.971409 1_565
O25 Sb6 2.088907 1_555
O26 Sb8 1.971409 1_555
O26 Sb7 2.088907 1_555
O27 Sb11 2.009987 1_555
O27 Sb9 2.110294 1_555
O27 Sb8 2.119508 1_555
O28 Sb10 2.027131 1_565
O28 Sb9 2.027131 1_465
O29 Sb10 2.027131 1_555
O29 Sb9 2.027131 1_455
O30 Sb8 2.009987 1_555
O30 Sb10 2.110294 1_555
O30 Sb11 2.119508 1_555
O31 Sb11 1.971409 1_565
O31 Sb12 2.088907 1_555
O32 Sb11 1.971409 1_555
O32 Sb13 2.088907 1_555
O33 Sb11 1.942580 1_555
O33 Sb10 1.989876 1_655
O34 Sb10 1.958473 1_565
O34 Sb12 2.025054 1_555
O35 Sb10 1.958473 1_555
O35 Sb13 2.025054 1_555
O36 Sb12 1.949944 1_555
O36 Sb13 1.949944 1_555
O37 Sb13 2.056194 1_555
O37 Sb12 2.056194 1_545
O37 Sb11 2.155675 1_555
O38 Sb12 1.999310 1_555
O38 Sb14 2.038085 1_555
O39 Sb13 1.999310 1_555
O39 Sb14 2.038085 1_555
O40 Sb13 1.954420 1_555
O40 Sb15 2.057062 1_555
O41 Sb12 1.954420 1_555
O41 Sb15 2.057062 1_555
O42 Sb15 1.985920 1_655
O42 Sb14 1.996939 1_555
O43 Sb14 1.985920 1_555
O43 Sb15 1.996939 1_555
O44 Sb16 1.954420 1_555
O44 Sb14 2.057062 1_555
O45 Sb17 1.954420 1_555
O45 Sb14 2.057062 1_555
O46 Sb16 1.999310 1_455
O46 Sb15 2.038085 1_555
O47 Sb17 1.999310 1_455
O47 Sb15 2.038085 1_555
O48 Sb17 2.056194 1_555
O48 Sb16 2.056194 1_545
O48 Sb18 2.155675 1_655
O49 Sb16 1.949944 1_555
O49 Sb17 1.949944 1_555
O50 Sb19 1.958473 1_565
O50 Sb16 2.025054 1_555
O51 Sb19 1.958473 1_555
O51 Sb17 2.025054 1_555
O52 Sb18 1.942580 1_555
O52 Sb19 1.989876 1_555
O53 Sb18 1.971409 1_565
O53 Sb16 2.088907 1_455
O54 Sb18 1.971409 1_555
O54 Sb17 2.088907 1_455
O55 Sb1 2.009987 1_556
O55 Sb19 2.110294 1_555
O55 Sb18 2.119508 1_655
