# generated using pymatgen
data_LiMn2P2HO9
_symmetry_space_group_name_H-M   'P 1'
_cell_length_a   6.83976700
_cell_length_b   6.16328400
_cell_length_c   8.93149685
_cell_angle_alpha   72.71201820
_cell_angle_beta   90.00000000
_cell_angle_gamma   90.00000000
_symmetry_Int_Tables_number   1
_chemical_formula_structural   LiMn2P2HO9
_chemical_formula_sum   'Li2 Mn4 P4 H2 O18'
_cell_volume   359.50147732
_cell_formula_units_Z   2
loop_
 _symmetry_equiv_pos_site_id
 _symmetry_equiv_pos_as_xyz
  1  'x, y, z'
loop_
 _atom_site_type_symbol
 _atom_site_label
 _atom_site_symmetry_multiplicity
 _atom_site_fract_x
 _atom_site_fract_y
 _atom_site_fract_z
 _atom_site_occupancy
  Li  Li0  1  0.25000000  0.01093200  0.14582500  1
  Li  Li1  1  0.75000000  0.98906800  0.85417500  1
  Mn  Mn0  1  0.25000000  0.47205600  0.70654000  1
  Mn  Mn1  1  0.75000000  0.52794400  0.29346000  1
  Mn  Mn2  1  0.50000000  0.50000000  0.00000000  1
  Mn  Mn3  1  0.00000000  0.50000000  0.00000000  1
  P  P0  1  0.25000000  0.90518900  0.80419200  1
  P  P1  1  0.75000000  0.55836600  0.66276400  1
  P  P2  1  0.25000000  0.44163400  0.33723600  1
  P  P3  1  0.75000000  0.09481100  0.19580800  1
  H  H0  1  0.75000000  0.92801600  0.51289700  1
  H  H1  1  0.25000000  0.07198400  0.48710300  1
  O  O0  1  0.43772300  0.83634400  0.90659600  1
  O  O1  1  0.06227700  0.83634400  0.90659600  1
  O  O2  1  0.75000000  0.83104400  0.62264700  1
  O  O3  1  0.25000000  0.79775600  0.66693400  1
  O  O4  1  0.75000000  0.84077600  0.27773000  1
  O  O5  1  0.25000000  0.41341800  0.94001200  1
  O  O6  1  0.93128200  0.47205900  0.76486400  1
  O  O7  1  0.56871800  0.47205900  0.76486400  1
  O  O8  1  0.25000000  0.52838200  0.48011900  1
  O  O9  1  0.75000000  0.47161800  0.51988100  1
  O  O10  1  0.43128200  0.52794100  0.23513600  1
  O  O11  1  0.06871800  0.52794100  0.23513600  1
  O  O12  1  0.75000000  0.58658200  0.05998800  1
  O  O13  1  0.25000000  0.15922400  0.72227000  1
  O  O14  1  0.75000000  0.20224400  0.33306600  1
  O  O15  1  0.25000000  0.16895600  0.37735300  1
  O  O16  1  0.93772300  0.16365600  0.09340400  1
  O  O17  1  0.56227700  0.16365600  0.09340400  1
loop_
_geom_bond_atom_site_label_1
_geom_bond_atom_site_label_2
_geom_bond_distance
_geom_bond_site_symmetry_2
Li0 O16 2.324944 1_455
Li0 O17 2.324944 1_555
Li0 O15 2.534123 1_555
Li0 O5 2.611972 1_554
Li1 O1 2.324944 1_655
Li1 O0 2.324944 1_555
Li1 O2 2.534123 1_555
Li1 O12 2.611972 1_556
Mn0 O13 1.891086 1_555
Mn0 O3 1.932012 1_555
Mn0 O8 1.947529 1_555
Mn0 O5 2.007732 1_555
Mn0 O7 2.241334 1_555
Mn0 O6 2.241334 1_455
Mn1 O4 1.891086 1_555
Mn1 O14 1.932012 1_555
Mn1 O9 1.947529 1_555
Mn1 O12 2.007732 1_555
Mn1 O10 2.241334 1_555
Mn1 O11 2.241334 1_655
Mn2 O12 1.914590 1_555
Mn2 O5 1.914590 1_554
Mn2 O0 2.036372 1_554
Mn2 O17 2.036372 1_555
Mn2 O10 2.208169 1_555
Mn2 O7 2.208169 1_554
Mn3 O12 1.914590 1_455
Mn3 O5 1.914590 1_554
Mn3 O16 2.036372 1_455
Mn3 O1 2.036372 1_554
Mn3 O11 2.208169 1_555
Mn3 O6 2.208169 1_454
H0 O2 0.984814 1_555
H1 O15 0.984814 1_555
O0 P0 1.560296 1_555
O1 P0 1.560296 1_555
O2 P1 1.610862 1_555
O3 P0 1.556843 1_555
O4 P3 1.518508 1_565
O6 P1 1.537414 1_555
O7 P1 1.537414 1_555
O8 P2 1.523142 1_555
O9 P1 1.523142 1_555
O10 P2 1.537414 1_555
O11 P2 1.537414 1_555
O13 P0 1.518508 1_545
O14 P3 1.556843 1_555
O15 P2 1.610862 1_555
O16 P3 1.560296 1_555
O17 P3 1.560296 1_555
