# generated using pymatgen
data_Ca9Mn(PO4)7
_symmetry_space_group_name_H-M   'P 1'
_cell_length_a   13.91632343
_cell_length_b   13.91632343
_cell_length_c   13.91632279
_cell_angle_alpha   44.13004072
_cell_angle_beta   44.13004072
_cell_angle_gamma   44.13004323
_symmetry_Int_Tables_number   1
_chemical_formula_structural   Ca9Mn(PO4)7
_chemical_formula_sum   'Ca18 Mn2 P14 O56'
_cell_volume   1187.09683040
_cell_formula_units_Z   2
loop_
 _symmetry_equiv_pos_site_id
 _symmetry_equiv_pos_as_xyz
  1  'x, y, z'
loop_
 _atom_site_type_symbol
 _atom_site_label
 _atom_site_symmetry_multiplicity
 _atom_site_fract_x
 _atom_site_fract_y
 _atom_site_fract_z
 _atom_site_occupancy
  Ca  Ca0  1  0.47387200  0.03284600  0.00888400  1
  Ca  Ca1  1  0.00888400  0.47387200  0.03284600  1
  Ca  Ca2  1  0.03284600  0.00888400  0.47387200  1
  Ca  Ca3  1  0.50888400  0.53284600  0.97387200  1
  Ca  Ca4  1  0.97387200  0.50888400  0.53284600  1
  Ca  Ca5  1  0.53284600  0.97387200  0.50888400  1
  Ca  Ca6  1  0.35089700  0.92957000  0.91730300  1
  Ca  Ca7  1  0.91730300  0.35089700  0.92957000  1
  Ca  Ca8  1  0.92957000  0.91730300  0.35089700  1
  Ca  Ca9  1  0.41730300  0.42957000  0.85089700  1
  Ca  Ca10  1  0.85089700  0.41730300  0.42957000  1
  Ca  Ca11  1  0.42957000  0.85089700  0.41730300  1
  Ca  Ca12  1  0.65093600  0.06288100  0.09106100  1
  Ca  Ca13  1  0.09106100  0.65093600  0.06288100  1
  Ca  Ca14  1  0.06288100  0.09106100  0.65093600  1
  Ca  Ca15  1  0.59106100  0.56288100  0.15093600  1
  Ca  Ca16  1  0.15093600  0.59106100  0.56288100  1
  Ca  Ca17  1  0.56288100  0.15093600  0.59106100  1
  Mn  Mn0  1  0.50053000  0.50053000  0.50053000  1
  Mn  Mn1  1  0.00053000  0.00053000  0.00053000  1
  P  P0  1  0.25589400  0.25589400  0.25589400  1
  P  P1  1  0.75589400  0.75589400  0.75589400  1
  P  P2  1  0.68246500  0.19051200  0.22136200  1
  P  P3  1  0.22136200  0.68246500  0.19051200  1
  P  P4  1  0.19051200  0.22136200  0.68246500  1
  P  P5  1  0.72136200  0.69051200  0.18246500  1
  P  P6  1  0.18246500  0.72136200  0.69051200  1
  P  P7  1  0.69051200  0.18246500  0.72136200  1
  P  P8  1  0.82065000  0.27459300  0.30814500  1
  P  P9  1  0.30814500  0.82065000  0.27459300  1
  P  P10  1  0.27459300  0.30814500  0.82065000  1
  P  P11  1  0.80814500  0.77459300  0.32065000  1
  P  P12  1  0.32065000  0.80814500  0.77459300  1
  P  P13  1  0.77459300  0.32065000  0.80814500  1
  O  O0  1  0.61064900  0.13700700  0.22964700  1
  O  O1  1  0.22964700  0.61064900  0.13700700  1
  O  O2  1  0.13700700  0.22964700  0.61064900  1
  O  O3  1  0.72964700  0.63700700  0.11064900  1
  O  O4  1  0.11064900  0.72964700  0.63700700  1
  O  O5  1  0.63700700  0.11064900  0.72964700  1
  O  O6  1  0.62452000  0.36461400  0.14497200  1
  O  O7  1  0.14497200  0.62452000  0.36461400  1
  O  O8  1  0.36461400  0.14497200  0.62452000  1
  O  O9  1  0.64497200  0.86461400  0.12452000  1
  O  O10  1  0.12452000  0.64497200  0.86461400  1
  O  O11  1  0.86461400  0.12452000  0.64497200  1
  O  O12  1  0.65931600  0.11579900  0.38582600  1
  O  O13  1  0.38582600  0.65931600  0.11579900  1
  O  O14  1  0.11579900  0.38582600  0.65931600  1
  O  O15  1  0.88582600  0.61579900  0.15931600  1
  O  O16  1  0.15931600  0.88582600  0.61579900  1
  O  O17  1  0.61579900  0.15931600  0.88582600  1
  O  O18  1  0.86113700  0.12447400  0.12690200  1
  O  O19  1  0.12690200  0.86113700  0.12447400  1
  O  O20  1  0.12447400  0.12690200  0.86113700  1
  O  O21  1  0.62690200  0.62447400  0.36113700  1
  O  O22  1  0.36113700  0.62690200  0.62447400  1
  O  O23  1  0.62447400  0.36113700  0.62690200  1
  O  O24  1  0.91147100  0.29993700  0.31001700  1
  O  O25  1  0.31001700  0.91147100  0.29993700  1
  O  O26  1  0.29993700  0.31001700  0.91147100  1
  O  O27  1  0.81001700  0.79993700  0.41147100  1
  O  O28  1  0.41147100  0.81001700  0.79993700  1
  O  O29  1  0.79993700  0.41147100  0.81001700  1
  O  O30  1  0.85559800  0.10326400  0.40345300  1
  O  O31  1  0.40345300  0.85559800  0.10326400  1
  O  O32  1  0.10326400  0.40345300  0.85559800  1
  O  O33  1  0.90345300  0.60326400  0.35559800  1
  O  O34  1  0.35559800  0.90345300  0.60326400  1
  O  O35  1  0.60326400  0.35559800  0.90345300  1
  O  O36  1  0.86346700  0.33681800  0.14108500  1
  O  O37  1  0.14108500  0.86346700  0.33681800  1
  O  O38  1  0.33681800  0.14108500  0.86346700  1
  O  O39  1  0.64108500  0.83681800  0.36346700  1
  O  O40  1  0.36346700  0.64108500  0.83681800  1
  O  O41  1  0.83681800  0.36346700  0.64108500  1
  O  O42  1  0.64334500  0.36329200  0.38443400  1
  O  O43  1  0.38443400  0.64334500  0.36329200  1
  O  O44  1  0.36329200  0.38443400  0.64334500  1
  O  O45  1  0.88443400  0.86329200  0.14334500  1
  O  O46  1  0.14334500  0.88443400  0.86329200  1
  O  O47  1  0.86329200  0.14334500  0.88443400  1
  O  O48  1  0.29646300  0.29646300  0.29646300  1
  O  O49  1  0.79646300  0.79646300  0.79646300  1
  O  O50  1  0.22359300  0.39087700  0.11079300  1
  O  O51  1  0.11079300  0.22359300  0.39087700  1
  O  O52  1  0.39087700  0.11079300  0.22359300  1
  O  O53  1  0.61079300  0.89087700  0.72359300  1
  O  O54  1  0.72359300  0.61079300  0.89087700  1
  O  O55  1  0.89087700  0.72359300  0.61079300  1
loop_
_geom_bond_atom_site_label_1
_geom_bond_atom_site_label_2
_geom_bond_distance
_geom_bond_site_symmetry_2
Ca0 O17 2.395675 1_554
Ca0 O31 2.396109 1_545
Ca0 O9 2.414560 1_545
Ca0 O5 2.500280 1_554
Ca0 O26 2.525109 1_554
Ca0 O25 2.628265 1_545
Ca0 O38 2.653800 1_554
Ca0 O52 3.055933 1_555
Ca1 O15 2.395675 1_455
Ca1 O32 2.396109 1_554
Ca1 O10 2.414560 1_554
Ca1 O3 2.500280 1_455
Ca1 O24 2.525109 1_455
Ca1 O26 2.628266 1_554
Ca1 O36 2.653800 1_455
Ca1 O50 3.055933 1_555
Ca2 O16 2.395675 1_545
Ca2 O30 2.396109 1_455
Ca2 O11 2.414560 1_455
Ca2 O4 2.500280 1_545
Ca2 O25 2.525109 1_545
Ca2 O24 2.628266 1_455
Ca2 O37 2.653800 1_545
Ca2 O51 3.055933 1_555
Ca3 O13 2.395675 1_556
Ca3 O35 2.396109 1_555
Ca3 O6 2.414560 1_556
Ca3 O1 2.500280 1_556
Ca3 O28 2.525109 1_555
Ca3 O29 2.628266 1_555
Ca3 O40 2.653800 1_555
Ca3 O54 3.055933 1_555
Ca4 O14 2.395675 1_655
Ca4 O33 2.396109 1_555
Ca4 O7 2.414560 1_655
Ca4 O2 2.500280 1_655
Ca4 O29 2.525109 1_555
Ca4 O27 2.628266 1_555
Ca4 O41 2.653800 1_555
Ca4 O55 3.055933 1_555
Ca5 O12 2.395675 1_565
Ca5 O34 2.396109 1_555
Ca5 O8 2.414560 1_565
Ca5 O0 2.500280 1_565
Ca5 O27 2.525109 1_555
Ca5 O28 2.628265 1_555
Ca5 O39 2.653800 1_555
Ca5 O53 3.055933 1_555
Ca6 O38 2.341165 1_565
Ca6 O53 2.435148 1_555
Ca6 O28 2.461184 1_555
Ca6 O31 2.470593 1_556
Ca6 O20 2.472550 1_565
Ca6 O19 2.520875 1_556
Ca6 O13 2.530025 1_556
Ca6 O8 2.792005 1_565
Ca7 O36 2.341164 1_556
Ca7 O54 2.435148 1_555
Ca7 O29 2.461184 1_555
Ca7 O32 2.470593 1_655
Ca7 O18 2.472550 1_556
Ca7 O20 2.520875 1_655
Ca7 O14 2.530025 1_655
Ca7 O6 2.792005 1_556
Ca8 O37 2.341165 1_655
Ca8 O55 2.435148 1_555
Ca8 O27 2.461184 1_555
Ca8 O30 2.470593 1_565
Ca8 O19 2.472550 1_655
Ca8 O18 2.520875 1_565
Ca8 O12 2.530025 1_565
Ca8 O7 2.792005 1_655
Ca9 O40 2.341165 1_555
Ca9 O50 2.435148 1_556
Ca9 O26 2.461184 1_555
Ca9 O35 2.470593 1_555
Ca9 O22 2.472550 1_555
Ca9 O23 2.520875 1_555
Ca9 O17 2.530025 1_555
Ca9 O10 2.792005 1_555
Ca10 O41 2.341164 1_555
Ca10 O51 2.435148 1_655
Ca10 O24 2.461184 1_555
Ca10 O33 2.470593 1_555
Ca10 O23 2.472550 1_555
Ca10 O21 2.520875 1_555
Ca10 O15 2.530025 1_555
Ca10 O11 2.792005 1_555
Ca11 O39 2.341165 1_555
Ca11 O52 2.435148 1_565
Ca11 O25 2.461184 1_555
Ca11 O34 2.470593 1_555
Ca11 O21 2.472550 1_555
Ca11 O22 2.520875 1_555
Ca11 O16 2.530025 1_555
Ca11 O9 2.792005 1_555
Ca12 O0 2.360403 1_555
Ca12 O52 2.379769 1_555
Ca12 O17 2.399586 1_554
Ca12 O47 2.486993 1_554
Ca12 O9 2.503116 1_545
Ca12 O45 2.517861 1_545
Ca12 O39 2.653256 1_545
Ca12 O35 2.681424 1_554
Ca13 O1 2.360403 1_555
Ca13 O50 2.379769 1_555
Ca13 O15 2.399586 1_455
Ca13 O45 2.486993 1_455
Ca13 O10 2.503116 1_554
Ca13 O46 2.517861 1_554
Ca13 O40 2.653256 1_554
Ca13 O33 2.681424 1_455
Ca14 O2 2.360403 1_555
Ca14 O51 2.379769 1_555
Ca14 O16 2.399586 1_545
Ca14 O46 2.486993 1_545
Ca14 O11 2.503116 1_455
Ca14 O47 2.517861 1_455
Ca14 O41 2.653256 1_455
Ca14 O34 2.681424 1_545
Ca15 O3 2.360403 1_555
Ca15 O54 2.379769 1_554
Ca15 O13 2.399586 1_555
Ca15 O43 2.486993 1_555
Ca15 O6 2.503116 1_555
Ca15 O42 2.517861 1_555
Ca15 O36 2.653256 1_555
Ca15 O31 2.681424 1_555
Ca16 O4 2.360403 1_555
Ca16 O55 2.379769 1_455
Ca16 O14 2.399586 1_555
Ca16 O44 2.486993 1_555
Ca16 O7 2.503116 1_555
Ca16 O43 2.517861 1_555
Ca16 O37 2.653256 1_555
Ca16 O32 2.681424 1_555
Ca17 O5 2.360403 1_555
Ca17 O53 2.379769 1_545
Ca17 O12 2.399586 1_555
Ca17 O42 2.486993 1_555
Ca17 O8 2.503116 1_555
Ca17 O44 2.517861 1_555
Ca17 O38 2.653256 1_555
Ca17 O30 2.681424 1_555
Mn0 O21 2.117769 1_555
Mn0 O23 2.117769 1_555
Mn0 O22 2.117769 1_555
Mn0 O43 2.139835 1_555
Mn0 O44 2.139835 1_555
Mn0 O42 2.139835 1_555
Mn1 O20 2.117769 1_554
Mn1 O18 2.117769 1_455
Mn1 O19 2.117769 1_545
Mn1 O46 2.139835 1_544
Mn1 O45 2.139835 1_445
Mn1 O47 2.139835 1_454
O0 P2 1.531713 1_555
O1 P3 1.531713 1_555
O2 P4 1.531713 1_555
O3 P5 1.531713 1_555
O4 P6 1.531713 1_555
O5 P7 1.531713 1_555
O6 P2 1.542441 1_555
O7 P3 1.542440 1_555
O8 P4 1.542441 1_555
O9 P5 1.542441 1_555
O10 P6 1.542440 1_555
O11 P7 1.542441 1_555
O12 P2 1.558670 1_555
O13 P3 1.558671 1_555
O14 P4 1.558671 1_555
O15 P5 1.558671 1_555
O16 P6 1.558671 1_555
O17 P7 1.558670 1_555
O18 P2 1.586482 1_555
O19 P3 1.586482 1_555
O20 P4 1.586482 1_555
O21 P5 1.586482 1_555
O22 P6 1.586482 1_555
O23 P7 1.586482 1_555
O24 P8 1.556557 1_555
O25 P9 1.556557 1_555
O26 P10 1.556557 1_555
O27 P11 1.556557 1_555
O28 P12 1.556557 1_555
O29 P13 1.556557 1_555
O30 P8 1.549909 1_555
O31 P9 1.549909 1_555
O32 P10 1.549909 1_555
O33 P11 1.549909 1_555
O34 P12 1.549909 1_555
O35 P13 1.549909 1_555
O36 P8 1.540124 1_555
O37 P9 1.540125 1_555
O38 P10 1.540125 1_555
O39 P11 1.540125 1_555
O40 P12 1.540125 1_555
O41 P13 1.540124 1_555
O42 P8 1.577205 1_555
O43 P9 1.577205 1_555
O44 P10 1.577205 1_555
O45 P11 1.577205 1_555
O46 P12 1.577205 1_555
O47 P13 1.577205 1_555
O48 P0 1.526074 1_555
O49 P1 1.526074 1_555
O50 P0 1.566488 1_555
O51 P0 1.566488 1_555
O52 P0 1.566488 1_555
O53 P1 1.566488 1_555
O54 P1 1.566488 1_555
O55 P1 1.566488 1_555
