# generated using pymatgen
data_Na6B4Sb2PO16
_symmetry_space_group_name_H-M   'P 1'
_cell_length_a   10.05324116
_cell_length_b   10.05324116
_cell_length_c   10.05324116
_cell_angle_alpha   60.00000000
_cell_angle_beta   60.00000000
_cell_angle_gamma   60.00000000
_symmetry_Int_Tables_number   1
_chemical_formula_structural   Na6B4Sb2PO16
_chemical_formula_sum   'Na12 B8 Sb4 P2 O32'
_cell_volume   718.46117575
_cell_formula_units_Z   2
loop_
 _symmetry_equiv_pos_site_id
 _symmetry_equiv_pos_as_xyz
  1  'x, y, z'
loop_
 _atom_site_type_symbol
 _atom_site_label
 _atom_site_symmetry_multiplicity
 _atom_site_fract_x
 _atom_site_fract_y
 _atom_site_fract_z
 _atom_site_occupancy
  Na  Na0  1  0.29882600  0.70117400  0.29882600  1
  Na  Na1  1  0.54882600  0.95117400  0.54882600  1
  Na  Na2  1  0.54882600  0.95117400  0.95117400  1
  Na  Na3  1  0.29882600  0.70117400  0.70117400  1
  Na  Na4  1  0.54882600  0.54882600  0.95117400  1
  Na  Na5  1  0.29882600  0.29882600  0.70117400  1
  Na  Na6  1  0.70117400  0.29882600  0.29882600  1
  Na  Na7  1  0.70117400  0.70117400  0.29882600  1
  Na  Na8  1  0.95117400  0.95117400  0.54882600  1
  Na  Na9  1  0.95117400  0.54882600  0.54882600  1
  Na  Na10  1  0.70117400  0.29882600  0.70117400  1
  Na  Na11  1  0.95117400  0.54882600  0.95117400  1
  B  B0  1  0.34035900  0.97892400  0.34035900  1
  B  B1  1  0.34035900  0.34035900  0.34035900  1
  B  B2  1  0.90964100  0.90964100  0.27107600  1
  B  B3  1  0.97892400  0.34035900  0.34035900  1
  B  B4  1  0.27107600  0.90964100  0.90964100  1
  B  B5  1  0.34035900  0.34035900  0.97892400  1
  B  B6  1  0.90964100  0.27107600  0.90964100  1
  B  B7  1  0.90964100  0.90964100  0.90964100  1
  Sb  Sb0  1  0.12500000  0.12500000  0.62500000  1
  Sb  Sb1  1  0.12500000  0.62500000  0.12500000  1
  Sb  Sb2  1  0.12500000  0.12500000  0.12500000  1
  Sb  Sb3  1  0.62500000  0.12500000  0.12500000  1
  P  P0  1  0.50000000  0.50000000  0.50000000  1
  P  P1  1  0.75000000  0.75000000  0.75000000  1
  O  O0  1  0.49015900  0.31678500  0.21702300  1
  O  O1  1  0.56334800  0.56334800  0.30995500  1
  O  O2  1  0.49015900  0.97603400  0.31678500  1
  O  O3  1  0.31678500  0.97603400  0.21702300  1
  O  O4  1  0.56334800  0.56334800  0.56334800  1
  O  O5  1  0.56334800  0.30995500  0.56334800  1
  O  O6  1  0.21702300  0.49015900  0.31678500  1
  O  O7  1  0.31678500  0.21702300  0.49015900  1
  O  O8  1  0.30995500  0.56334800  0.56334800  1
  O  O9  1  0.97603400  0.49015900  0.21702300  1
  O  O10  1  0.03297700  0.93321500  0.27396600  1
  O  O11  1  0.21702300  0.97603400  0.49015900  1
  O  O12  1  0.97603400  0.21702300  0.31678500  1
  O  O13  1  0.93321500  0.75984100  0.27396600  1
  O  O14  1  0.49015900  0.21702300  0.97603400  1
  O  O15  1  0.27396600  0.93321500  0.75984100  1
  O  O16  1  0.97603400  0.31678500  0.49015900  1
  O  O17  1  0.75984100  0.03297700  0.27396600  1
  O  O18  1  0.31678500  0.49015900  0.97603400  1
  O  O19  1  0.27396600  0.03297700  0.93321500  1
  O  O20  1  0.03297700  0.27396600  0.75984100  1
  O  O21  1  0.21702300  0.31678500  0.97603400  1
  O  O22  1  0.27396600  0.75984100  0.03297700  1
  O  O23  1  0.94004500  0.68665200  0.68665200  1
  O  O24  1  0.93321500  0.03297700  0.75984100  1
  O  O25  1  0.03297700  0.75984100  0.93321500  1
  O  O26  1  0.68665200  0.94004500  0.68665200  1
  O  O27  1  0.68665200  0.68665200  0.68665200  1
  O  O28  1  0.93321500  0.27396600  0.03297700  1
  O  O29  1  0.75984100  0.27396600  0.93321500  1
  O  O30  1  0.68665200  0.68665200  0.94004500  1
  O  O31  1  0.75984100  0.93321500  0.03297700  1
loop_
_geom_bond_atom_site_label_1
_geom_bond_atom_site_label_2
_geom_bond_distance
_geom_bond_site_symmetry_2
Na0 O1 2.337108 1_555
Na0 O8 2.337108 1_555
Na0 O6 2.534225 1_555
Na0 O3 2.534235 1_555
Na0 O10 2.549034 1_555
Na0 O22 2.549037 1_555
Na1 O27 2.337111 1_555
Na1 O26 2.337117 1_555
Na1 O17 2.534230 1_565
Na1 O15 2.534232 1_555
Na1 O2 2.549027 1_555
Na1 O7 2.549032 1_565
Na2 O30 2.337108 1_555
Na2 O26 2.337108 1_555
Na2 O31 2.534225 1_556
Na2 O19 2.534235 1_565
Na2 O3 2.549034 1_556
Na2 O14 2.549037 1_565
Na3 O4 2.337111 1_555
Na3 O8 2.337117 1_555
Na3 O11 2.534230 1_555
Na3 O18 2.534232 1_555
Na3 O15 2.549027 1_555
Na3 O25 2.549032 1_555
Na4 O27 2.337111 1_555
Na4 O30 2.337117 1_555
Na4 O22 2.534230 1_556
Na4 O29 2.534232 1_555
Na4 O18 2.549027 1_555
Na4 O0 2.549032 1_556
Na5 O8 2.337108 1_555
Na5 O5 2.337108 1_555
Na5 O7 2.534225 1_555
Na5 O21 2.534235 1_555
Na5 O19 2.549034 1_555
Na5 O20 2.549037 1_555
Na6 O1 2.337108 1_555
Na6 O5 2.337108 1_555
Na6 O0 2.534225 1_555
Na6 O12 2.534235 1_555
Na6 O28 2.549034 1_555
Na6 O17 2.549037 1_555
Na7 O4 2.337111 1_555
Na7 O1 2.337117 1_555
Na7 O9 2.534230 1_555
Na7 O2 2.534232 1_555
Na7 O13 2.549027 1_555
Na7 O31 2.549032 1_555
Na8 O23 2.337108 1_555
Na8 O26 2.337108 1_555
Na8 O24 2.534225 1_565
Na8 O10 2.534235 1_655
Na8 O12 2.549034 1_565
Na8 O11 2.549037 1_655
Na9 O27 2.337111 1_555
Na9 O23 2.337117 1_555
Na9 O20 2.534230 1_655
Na9 O13 2.534232 1_555
Na9 O16 2.549027 1_555
Na9 O6 2.549032 1_655
Na10 O4 2.337111 1_555
Na10 O5 2.337117 1_555
Na10 O14 2.534230 1_555
Na10 O16 2.534232 1_555
Na10 O29 2.549027 1_555
Na10 O24 2.549032 1_555
Na11 O30 2.337108 1_555
Na11 O23 2.337108 1_555
Na11 O25 2.534225 1_655
Na11 O28 2.534235 1_556
Na11 O21 2.549034 1_655
Na11 O9 2.549037 1_556
B0 O2 1.389675 1_555
B0 O11 1.389675 1_555
B0 O3 1.389675 1_555
B1 O0 1.389675 1_555
B1 O7 1.389675 1_555
B1 O6 1.389675 1_555
B2 O10 1.389675 1_655
B2 O17 1.389675 1_565
B2 O13 1.389675 1_555
B3 O16 1.389675 1_555
B3 O9 1.389675 1_555
B3 O12 1.389675 1_555
B4 O19 1.389675 1_565
B4 O22 1.389675 1_556
B4 O15 1.389675 1_555
B5 O18 1.389675 1_555
B5 O14 1.389675 1_555
B5 O21 1.389675 1_555
B6 O28 1.389675 1_556
B6 O20 1.389675 1_655
B6 O29 1.389675 1_555
B7 O25 1.389675 1_655
B7 O31 1.389675 1_556
B7 O24 1.389675 1_565
O0 Sb3 2.080110 1_555
O1 P0 1.559972 1_555
O2 Sb3 2.080104 1_565
O3 Sb2 2.080110 1_565
O4 P0 1.559964 1_555
O5 P0 1.559972 1_555
O6 Sb1 2.080110 1_555
O7 Sb0 2.080110 1_555
O8 P0 1.559972 1_555
O9 Sb1 2.080102 1_655
O10 Sb2 2.080110 1_565
O11 Sb0 2.080102 1_565
O12 Sb2 2.080110 1_655
O13 Sb1 2.080104 1_655
O14 Sb3 2.080102 1_556
O15 Sb0 2.080104 1_565
O16 Sb0 2.080104 1_655
O17 Sb3 2.080102 1_555
O18 Sb1 2.080104 1_556
O19 Sb2 2.080110 1_556
O20 Sb0 2.080102 1_555
O21 Sb2 2.080110 1_556
O22 Sb1 2.080102 1_555
O23 P1 1.559972 1_555
O24 Sb0 2.080110 1_655
O25 Sb1 2.080110 1_556
O26 P1 1.559972 1_555
O27 P1 1.559964 1_555
O28 Sb2 2.080110 1_655
O29 Sb3 2.080104 1_556
O30 P1 1.559972 1_555
O31 Sb3 2.080110 1_565
