# generated using pymatgen
data_LiSb(PO4)2
_symmetry_space_group_name_H-M   'P 1'
_cell_length_a   5.90099100
_cell_length_b   4.89489000
_cell_length_c   10.04358698
_cell_angle_alpha   89.32209886
_cell_angle_beta   90.00000000
_cell_angle_gamma   90.00000000
_symmetry_Int_Tables_number   1
_chemical_formula_structural   LiSb(PO4)2
_chemical_formula_sum   'Li2 Sb2 P4 O16'
_cell_volume   290.08570991
_cell_formula_units_Z   2
loop_
 _symmetry_equiv_pos_site_id
 _symmetry_equiv_pos_as_xyz
  1  'x, y, z'
loop_
 _atom_site_type_symbol
 _atom_site_label
 _atom_site_symmetry_multiplicity
 _atom_site_fract_x
 _atom_site_fract_y
 _atom_site_fract_z
 _atom_site_occupancy
  Li  Li0  1  0.25000000  0.55402800  0.77306900  1
  Li  Li1  1  0.75000000  0.44597200  0.22693100  1
  Sb  Sb0  1  0.75000000  0.02249800  0.72252400  1
  Sb  Sb1  1  0.25000000  0.97750200  0.27747600  1
  P  P0  1  0.75000000  0.59509400  0.90431300  1
  P  P1  1  0.25000000  0.07251300  0.59344700  1
  P  P2  1  0.75000000  0.92748700  0.40655300  1
  P  P3  1  0.25000000  0.40490600  0.09568700  1
  O  O0  1  0.25000000  0.36470100  0.94939500  1
  O  O1  1  0.75000000  0.28120800  0.87289800  1
  O  O2  1  0.94992700  0.74849900  0.82436800  1
  O  O3  1  0.55007300  0.74849900  0.82436800  1
  O  O4  1  0.04089800  0.21570400  0.66524600  1
  O  O5  1  0.45910200  0.21570400  0.66524600  1
  O  O6  1  0.25000000  0.76909900  0.60139300  1
  O  O7  1  0.75000000  0.80989600  0.55450100  1
  O  O8  1  0.25000000  0.19010400  0.44549900  1
  O  O9  1  0.75000000  0.23090100  0.39860700  1
  O  O10  1  0.95910200  0.78429600  0.33475400  1
  O  O11  1  0.54089800  0.78429600  0.33475400  1
  O  O12  1  0.44992700  0.25150100  0.17563200  1
  O  O13  1  0.05007300  0.25150100  0.17563200  1
  O  O14  1  0.25000000  0.71879200  0.12710200  1
  O  O15  1  0.75000000  0.63529900  0.05060500  1
loop_
_geom_bond_atom_site_label_1
_geom_bond_atom_site_label_2
_geom_bond_distance
_geom_bond_site_symmetry_2
Li0 O0 1.989033 1_555
Li0 O6 2.009562 1_555
Li0 O2 2.078144 1_455
Li0 O3 2.078144 1_555
Li0 O4 2.340990 1_555
Li0 O5 2.340990 1_555
Li1 O15 1.989033 1_555
Li1 O9 2.009562 1_555
Li1 O12 2.078144 1_555
Li1 O13 2.078144 1_655
Li1 O10 2.340990 1_555
Li1 O11 2.340990 1_555
O0 P3 1.484724 1_556
O1 P0 1.572153 1_555
O1 Sb0 1.982399 1_555
O2 P0 1.608148 1_555
O2 Sb0 2.050481 1_565
O3 P0 1.608148 1_555
O3 Sb0 2.050481 1_565
O4 P1 1.595547 1_555
O4 Sb0 2.039394 1_455
O5 P1 1.595547 1_555
O5 Sb0 2.039394 1_555
O6 P1 1.486378 1_565
O7 P2 1.587153 1_555
O7 Sb0 1.993081 1_565
O8 P1 1.587153 1_555
O8 Sb1 1.993081 1_545
O9 P2 1.486378 1_545
O10 P2 1.595547 1_555
O10 Sb1 2.039394 1_655
O11 P2 1.595547 1_555
O11 Sb1 2.039394 1_555
O12 P3 1.608148 1_555
O12 Sb1 2.050481 1_545
O13 P3 1.608148 1_555
O13 Sb1 2.050481 1_545
O14 P3 1.572153 1_555
O14 Sb1 1.982399 1_555
O15 P0 1.484724 1_554
