# generated using pymatgen
data_BaYCl5
_symmetry_space_group_name_H-M   'P 1'
_cell_length_a   24.05442600
_cell_length_b   7.21699300
_cell_length_c   11.94106822
_cell_angle_alpha   55.90565804
_cell_angle_beta   90.00000000
_cell_angle_gamma   90.00000000
_symmetry_Int_Tables_number   1
_chemical_formula_structural   BaYCl5
_chemical_formula_sum   'Ba8 Y8 Cl40'
_cell_volume   1716.66470068
_cell_formula_units_Z   8
loop_
 _symmetry_equiv_pos_site_id
 _symmetry_equiv_pos_as_xyz
  1  'x, y, z'
loop_
 _atom_site_type_symbol
 _atom_site_label
 _atom_site_symmetry_multiplicity
 _atom_site_fract_x
 _atom_site_fract_y
 _atom_site_fract_z
 _atom_site_occupancy
  Ba  Ba0  1  0.54269700  0.39506900  0.75619300  1
  Ba  Ba1  1  0.26608600  0.82522000  0.49201300  1
  Ba  Ba2  1  0.04269700  0.60493100  0.74380700  1
  Ba  Ba3  1  0.76608600  0.17478000  0.00798700  1
  Ba  Ba4  1  0.23391400  0.82522000  0.99201300  1
  Ba  Ba5  1  0.95730300  0.39506900  0.25619300  1
  Ba  Ba6  1  0.73391400  0.17478000  0.50798700  1
  Ba  Ba7  1  0.45730300  0.60493100  0.24380700  1
  Y  Y0  1  0.37041300  0.29958500  0.96408200  1
  Y  Y1  1  0.87041300  0.70041500  0.53591800  1
  Y  Y2  1  0.10696200  0.09494700  0.13281200  1
  Y  Y3  1  0.60696200  0.90505300  0.36718800  1
  Y  Y4  1  0.39303800  0.09494700  0.63281200  1
  Y  Y5  1  0.89303800  0.90505300  0.86718800  1
  Y  Y6  1  0.12958700  0.29958500  0.46408200  1
  Y  Y7  1  0.62958700  0.70041500  0.03591800  1
  Cl  Cl0  1  0.11996700  0.12877200  0.90427700  1
  Cl  Cl1  1  0.36388000  0.51407900  0.50552300  1
  Cl  Cl2  1  0.16123400  0.51213700  0.56992000  1
  Cl  Cl3  1  0.92070700  0.34348200  0.75660900  1
  Cl  Cl4  1  0.58898700  0.92703000  0.14075800  1
  Cl  Cl5  1  0.34563100  0.89155100  0.16546200  1
  Cl  Cl6  1  0.27626800  0.33804400  0.83830000  1
  Cl  Cl7  1  0.20996000  0.95063100  0.20707100  1
  Cl  Cl8  1  0.97232500  0.77866000  0.44368100  1
  Cl  Cl9  1  0.50369300  0.77813800  0.43504300  1
  Cl  Cl10  1  0.77626800  0.66195600  0.66170000  1
  Cl  Cl11  1  0.00369300  0.22186200  0.06495700  1
  Cl  Cl12  1  0.47232500  0.22134000  0.05631900  1
  Cl  Cl13  1  0.70996000  0.04936900  0.29292900  1
  Cl  Cl14  1  0.42070700  0.65651800  0.74339100  1
  Cl  Cl15  1  0.66123400  0.48786300  0.93008000  1
  Cl  Cl16  1  0.84563100  0.10844900  0.33453800  1
  Cl  Cl17  1  0.08898700  0.07297000  0.35924200  1
  Cl  Cl18  1  0.86388000  0.48592100  0.99447700  1
  Cl  Cl19  1  0.61996700  0.87122800  0.59572300  1
  Cl  Cl20  1  0.38003300  0.12877200  0.40427700  1
  Cl  Cl21  1  0.13612000  0.51407900  0.00552300  1
  Cl  Cl22  1  0.91101300  0.92703000  0.64075800  1
  Cl  Cl23  1  0.15436900  0.89155100  0.66546200  1
  Cl  Cl24  1  0.33876600  0.51213700  0.06992000  1
  Cl  Cl25  1  0.57929300  0.34348200  0.25660900  1
  Cl  Cl26  1  0.29004000  0.95063100  0.70707100  1
  Cl  Cl27  1  0.52767500  0.77866000  0.94368100  1
  Cl  Cl28  1  0.99630700  0.77813800  0.93504300  1
  Cl  Cl29  1  0.22373200  0.33804400  0.33830000  1
  Cl  Cl30  1  0.49630700  0.22186200  0.56495700  1
  Cl  Cl31  1  0.02767500  0.22134000  0.55631900  1
  Cl  Cl32  1  0.79004000  0.04936900  0.79292900  1
  Cl  Cl33  1  0.72373200  0.66195600  0.16170000  1
  Cl  Cl34  1  0.65436900  0.10844900  0.83453800  1
  Cl  Cl35  1  0.41101300  0.07297000  0.85924200  1
  Cl  Cl36  1  0.07929300  0.65651800  0.24339100  1
  Cl  Cl37  1  0.83876600  0.48786300  0.43008000  1
  Cl  Cl38  1  0.63612000  0.48592100  0.49447700  1
  Cl  Cl39  1  0.88003300  0.87122800  0.09572300  1
loop_
_geom_bond_atom_site_label_1
_geom_bond_atom_site_label_2
_geom_bond_distance
_geom_bond_site_symmetry_2
Ba0 Cl34 3.193776 1_555
Ba0 Cl30 3.350029 1_555
Ba0 Cl9 3.368026 1_555
Ba0 Cl19 3.399000 1_555
Ba0 Cl14 3.445430 1_555
Ba0 Cl12 3.499090 1_556
Ba0 Cl38 3.598525 1_555
Ba0 Cl35 3.707367 1_555
Ba0 Cl27 3.710416 1_545
Ba0 Cl15 3.801186 1_555
Ba1 Cl2 3.158407 1_555
Ba1 Cl1 3.193096 1_555
Ba1 Cl26 3.217410 1_555
Ba1 Cl29 3.238631 1_565
Ba1 Cl7 3.281223 1_555
Ba1 Cl20 3.291881 1_565
Ba1 Cl23 3.584966 1_555
Ba1 Cl6 3.636069 1_555
Ba2 Cl23 3.193776 1_555
Ba2 Cl28 3.350029 1_455
Ba2 Cl11 3.368026 1_556
Ba2 Cl0 3.399000 1_555
Ba2 Cl3 3.445430 1_455
Ba2 Cl8 3.499090 1_455
Ba2 Cl21 3.598525 1_556
Ba2 Cl22 3.707367 1_455
Ba2 Cl31 3.710416 1_565
Ba2 Cl2 3.801186 1_555
Ba3 Cl15 3.158407 1_554
Ba3 Cl18 3.193096 1_554
Ba3 Cl32 3.217410 1_554
Ba3 Cl33 3.238631 1_545
Ba3 Cl13 3.281223 1_555
Ba3 Cl39 3.291881 1_545
Ba3 Cl34 3.584966 1_554
Ba3 Cl10 3.636069 1_554
Ba4 Cl24 3.158407 1_556
Ba4 Cl21 3.193096 1_556
Ba4 Cl7 3.217410 1_556
Ba4 Cl6 3.238631 1_565
Ba4 Cl26 3.281223 1_555
Ba4 Cl0 3.291881 1_565
Ba4 Cl5 3.584966 1_556
Ba4 Cl29 3.636069 1_556
Ba5 Cl16 3.193776 1_555
Ba5 Cl11 3.350029 1_655
Ba5 Cl28 3.368026 1_554
Ba5 Cl39 3.399000 1_555
Ba5 Cl36 3.445430 1_655
Ba5 Cl31 3.499090 1_655
Ba5 Cl18 3.598525 1_554
Ba5 Cl17 3.707367 1_655
Ba5 Cl8 3.710416 1_545
Ba5 Cl37 3.801186 1_555
Ba6 Cl37 3.158407 1_555
Ba6 Cl38 3.193096 1_555
Ba6 Cl13 3.217410 1_555
Ba6 Cl10 3.238631 1_545
Ba6 Cl32 3.281223 1_555
Ba6 Cl19 3.291881 1_545
Ba6 Cl16 3.584966 1_555
Ba6 Cl33 3.636069 1_555
Ba7 Cl5 3.193776 1_555
Ba7 Cl9 3.350029 1_555
Ba7 Cl30 3.368026 1_555
Ba7 Cl20 3.399000 1_555
Ba7 Cl25 3.445430 1_555
Ba7 Cl27 3.499090 1_554
Ba7 Cl1 3.598525 1_555
Ba7 Cl4 3.707367 1_555
Ba7 Cl12 3.710416 1_565
Ba7 Cl24 3.801186 1_555
Cl0 Y2 2.618735 1_556
Cl1 Y4 2.607208 1_555
Cl2 Y6 2.589080 1_555
Cl3 Y1 2.726424 1_555
Cl3 Y5 2.741211 1_545
Cl4 Y3 2.653666 1_555
Cl4 Y7 2.737015 1_555
Cl5 Y0 2.621200 1_564
Cl6 Y0 2.644620 1_555
Cl7 Y2 2.640824 1_565
Cl8 Y1 2.616147 1_555
Cl9 Y3 2.614206 1_555
Cl10 Y1 2.644620 1_555
Cl11 Y2 2.614206 1_555
Cl12 Y0 2.616147 1_554
Cl13 Y3 2.640824 1_545
Cl14 Y0 2.726424 1_555
Cl14 Y4 2.741211 1_565
Cl15 Y7 2.589080 1_556
Cl16 Y1 2.621200 1_545
Cl17 Y2 2.653666 1_555
Cl17 Y6 2.737015 1_555
Cl18 Y5 2.607208 1_555
Cl19 Y3 2.618735 1_555
Cl20 Y4 2.618735 1_555
Cl21 Y2 2.607208 1_555
Cl22 Y5 2.653666 1_555
Cl22 Y1 2.737015 1_555
Cl23 Y6 2.621200 1_565
Cl24 Y0 2.589080 1_554
Cl25 Y7 2.726424 1_555
Cl25 Y3 2.741211 1_545
Cl26 Y4 2.640824 1_565
Cl27 Y7 2.616147 1_556
Cl28 Y5 2.614206 1_555
Cl29 Y6 2.644620 1_555
Cl30 Y4 2.614206 1_555
Cl31 Y6 2.616147 1_555
Cl32 Y5 2.640824 1_545
Cl33 Y7 2.644620 1_555
Cl34 Y7 2.621200 1_546
Cl35 Y4 2.653666 1_555
Cl35 Y0 2.737015 1_555
Cl36 Y6 2.726424 1_555
Cl36 Y2 2.741211 1_565
Cl37 Y1 2.589080 1_555
Cl38 Y3 2.607208 1_555
Cl39 Y5 2.618735 1_554
