# generated using pymatgen
data_Li4Ti3Cr3(FeO8)2
_symmetry_space_group_name_H-M   'P 1'
_cell_length_a   5.91244400
_cell_length_b   5.91625894
_cell_length_c   9.59886826
_cell_angle_alpha   89.96863100
_cell_angle_beta   90.35349919
_cell_angle_gamma   119.83457325
_symmetry_Int_Tables_number   1
_chemical_formula_structural   Li4Ti3Cr3(FeO8)2
_chemical_formula_sum   'Li4 Ti3 Cr3 Fe2 O16'
_cell_volume   291.25695945
_cell_formula_units_Z   1
loop_
 _symmetry_equiv_pos_site_id
 _symmetry_equiv_pos_as_xyz
  1  'x, y, z'
loop_
 _atom_site_type_symbol
 _atom_site_label
 _atom_site_symmetry_multiplicity
 _atom_site_fract_x
 _atom_site_fract_y
 _atom_site_fract_z
 _atom_site_occupancy
  Li  Li0  1  0.66258400  0.32922200  0.89270200  1
  Li  Li1  1  0.99817300  0.00434700  0.99485300  1
  Li  Li2  1  0.99960100  0.99912300  0.49733500  1
  Li  Li3  1  0.33294500  0.66804500  0.39578600  1
  Ti  Ti0  1  0.16642600  0.81999300  0.71971000  1
  Ti  Ti1  1  0.83263500  0.66094700  0.21476200  1
  Ti  Ti2  1  0.33971700  0.16824300  0.21554200  1
  Cr  Cr0  1  0.82998500  0.17069800  0.21306900  1
  Cr  Cr1  1  0.66040700  0.83080600  0.71375700  1
  Cr  Cr2  1  0.17219700  0.33424800  0.70986400  1
  Fe  Fe0  1  0.67277300  0.34037500  0.49140700  1
  Fe  Fe1  1  0.33703200  0.66240200  0.99069800  1
  O  O0  1  0.84236900  0.67422900  0.59988700  1
  O  O1  1  0.51891300  0.48353000  0.33440800  1
  O  O2  1  0.66090500  0.33807100  0.10326700  1
  O  O3  1  0.00254900  0.99981000  0.31062200  1
  O  O4  1  0.00505000  0.99996400  0.80934100  1
  O  O5  1  0.32770800  0.17068100  0.60358200  1
  O  O6  1  0.96165800  0.48846100  0.33807200  1
  O  O7  1  0.51438700  0.04138900  0.33930400  1
  O  O8  1  0.16365200  0.83451300  0.10263900  1
  O  O9  1  0.84932100  0.17416700  0.60440500  1
  O  O10  1  0.47381300  0.95921400  0.84026200  1
  O  O11  1  0.03502300  0.51333800  0.83473600  1
  O  O12  1  0.32677600  0.66800900  0.60351500  1
  O  O13  1  0.67517100  0.83056900  0.10017600  1
  O  O14  1  0.46939300  0.51011700  0.83308800  1
  O  O15  1  0.16913600  0.32579000  0.10105100  1
loop_
_geom_bond_atom_site_label_1
_geom_bond_atom_site_label_2
_geom_bond_distance
_geom_bond_site_symmetry_2
Li0 O10 1.963248 1_545
Li0 O11 1.993207 1_655
Li0 O14 1.996270 1_555
Li0 O2 2.022106 1_556
Li1 O4 1.781917 1_645
Li1 O15 1.937581 1_656
Li1 O13 1.948144 1_546
Li1 O8 2.000446 1_646
Li2 O3 1.792408 1_655
Li2 O0 1.938860 1_555
Li2 O9 1.961175 1_565
Li2 O5 1.962435 1_665
Li3 O6 1.979816 1_455
Li3 O1 1.987640 1_555
Li3 O7 1.992929 1_565
Li3 O12 1.994520 1_555
Cr0 O3 1.988338 1_645
Cr0 O2 2.015331 1_555
Cr0 O6 2.028493 1_555
Cr0 O7 2.035148 1_555
Cr0 O15 2.052748 1_655
Cr0 O13 2.053993 1_545
Cr1 O4 1.986047 1_655
Cr1 O12 2.005860 1_555
Cr1 O14 2.017116 1_555
Cr1 O10 2.029838 1_555
Cr1 O0 2.053653 1_555
Cr1 O9 2.056816 1_565
Cr2 O5 1.928881 1_555
Cr2 O14 1.930234 1_555
Cr2 O9 1.934995 1_455
Cr2 O4 1.965867 1_545
Cr2 O12 1.997535 1_555
Cr2 O11 2.021269 1_555
Fe0 O0 2.002435 1_555
Fe0 O9 2.058918 1_555
Fe0 O5 2.077878 1_555
Fe0 O6 2.095685 1_555
Fe0 O7 2.115490 1_555
Fe0 O1 2.136402 1_555
Fe1 O13 2.021682 1_556
Fe1 O15 2.029067 1_556
Fe1 O8 2.072585 1_556
Fe1 O10 2.102717 1_555
Fe1 O14 2.104897 1_555
Fe1 O11 2.146847 1_555
O0 Ti0 2.016776 1_655
O1 Ti2 1.981107 1_555
O1 Ti1 1.987212 1_555
O2 Ti1 1.970850 1_555
O2 Ti2 1.975551 1_555
O3 Ti2 1.960826 1_565
O3 Ti1 1.965144 1_455
O4 Ti0 1.950957 1_555
O5 Ti0 2.120975 1_545
O6 Ti1 1.945863 1_555
O7 Ti2 1.948366 1_555
O8 Ti1 2.016986 1_455
O8 Ti2 2.024817 1_565
O10 Ti0 1.950916 1_555
O11 Ti0 1.928758 1_555
O12 Ti0 1.952863 1_555
O13 Ti1 1.999839 1_555
O15 Ti2 2.003568 1_555
