# generated using pymatgen
data_Fe19(SiO4)12
_symmetry_space_group_name_H-M   'P 1'
_cell_length_a   7.70350800
_cell_length_b   11.44279454
_cell_length_c   11.46432676
_cell_angle_alpha   68.23685806
_cell_angle_beta   74.64030123
_cell_angle_gamma   81.69128809
_symmetry_Int_Tables_number   1
_chemical_formula_structural   Fe19(SiO4)12
_chemical_formula_sum   'Fe19 Si12 O48'
_cell_volume   903.81391252
_cell_formula_units_Z   1
loop_
 _symmetry_equiv_pos_site_id
 _symmetry_equiv_pos_as_xyz
  1  'x, y, z'
loop_
 _atom_site_type_symbol
 _atom_site_label
 _atom_site_symmetry_multiplicity
 _atom_site_fract_x
 _atom_site_fract_y
 _atom_site_fract_z
 _atom_site_occupancy
  Fe  Fe0  1  0.00000000  0.00000000  0.50000000  1
  Fe  Fe1  1  0.26436400  0.00510700  0.22851200  1
  Fe  Fe2  1  0.25621800  0.00836400  0.72539300  1
  Fe  Fe3  1  0.31982600  0.34149000  0.99514500  1
  Fe  Fe4  1  0.68218000  0.16319700  0.99391000  1
  Fe  Fe5  1  0.07154500  0.32988100  0.27376900  1
  Fe  Fe6  1  0.07152400  0.32500900  0.77106100  1
  Fe  Fe7  1  0.33154600  0.33555800  0.50023100  1
  Fe  Fe8  1  0.60055900  0.33702400  0.23021000  1
  Fe  Fe9  1  0.58843900  0.33744900  0.72000900  1
  Fe  Fe10  1  0.68017400  0.65851000  0.00485500  1
  Fe  Fe11  1  0.31782000  0.83680300  0.00609000  1
  Fe  Fe12  1  0.41156100  0.66255100  0.27999100  1
  Fe  Fe13  1  0.39944100  0.66297600  0.76979000  1
  Fe  Fe14  1  0.66845400  0.66444200  0.49976900  1
  Fe  Fe15  1  0.92847600  0.67499100  0.22893900  1
  Fe  Fe16  1  0.92845500  0.67011900  0.72623100  1
  Fe  Fe17  1  0.74378200  0.99163600  0.27460700  1
  Fe  Fe18  1  0.73563600  0.99489300  0.77148800  1
  Si  Si0  1  0.38448200  0.13490400  0.40347700  1
  Si  Si1  1  0.33712300  0.09580400  0.90721500  1
  Si  Si2  1  0.98551300  0.23754400  0.09695600  1
  Si  Si3  1  0.32484700  0.56916000  0.09755700  1
  Si  Si4  1  0.94881800  0.19600500  0.59678300  1
  Si  Si5  1  0.27687300  0.53165300  0.59826900  1
  Si  Si6  1  0.72312700  0.46834700  0.40173100  1
  Si  Si7  1  0.05118200  0.80399500  0.40321700  1
  Si  Si8  1  0.67515300  0.43084000  0.90244300  1
  Si  Si9  1  0.01448700  0.76245600  0.90304400  1
  Si  Si10  1  0.66287700  0.90419600  0.09278500  1
  Si  Si11  1  0.61551800  0.86509600  0.59652300  1
  O  O0  1  0.26130900  0.00164700  0.05605900  1
  O  O1  1  0.16025400  0.19302300  0.16873000  1
  O  O2  1  0.26828700  0.03403200  0.39044400  1
  O  O3  1  0.01936100  0.04405400  0.66825200  1
  O  O4  1  0.36573000  0.12631900  0.55255900  1
  O  O5  1  0.59550500  0.13915000  0.31953200  1
  O  O6  1  0.32076900  0.28679200  0.32976400  1
  O  O7  1  0.86512100  0.12634600  0.10863700  1
  O  O8  1  0.21717600  0.45227600  0.10836800  1
  O  O9  1  0.06026300  0.29957700  0.60923500  1
  O  O10  1  0.18538300  0.14439300  0.82028400  1
  O  O11  1  0.45891400  0.99816500  0.83242300  1
  O  O12  1  0.58849100  0.33374200  0.05161300  1
  O  O13  1  0.08245500  0.31906200  0.94698400  1
  O  O14  1  0.20152200  0.66783800  0.16697500  1
  O  O15  1  0.87017700  0.32730600  0.17895600  1
  O  O16  1  0.50401500  0.52155100  0.16227500  1
  O  O17  1  0.60498300  0.36669900  0.39039300  1
  O  O18  1  0.45468700  0.20631800  0.90640700  1
  O  O19  1  0.33338900  0.37988000  0.67434900  1
  O  O20  1  0.73978500  0.18322200  0.68319600  1
  O  O21  1  0.06432900  0.52763100  0.68186100  1
  O  O22  1  0.29649900  0.53595400  0.45161400  1
  O  O23  1  0.96955200  0.20685400  0.44686400  1
  O  O24  1  0.70350100  0.46404600  0.54838600  1
  O  O25  1  0.03044800  0.79314600  0.55313600  1
  O  O26  1  0.93567100  0.47236900  0.31813900  1
  O  O27  1  0.26021500  0.81677800  0.31680400  1
  O  O28  1  0.66661100  0.62012000  0.32565100  1
  O  O29  1  0.54531300  0.79368200  0.09359300  1
  O  O30  1  0.39501700  0.63330100  0.60960700  1
  O  O31  1  0.49598500  0.47844900  0.83772500  1
  O  O32  1  0.79847800  0.33216200  0.83302500  1
  O  O33  1  0.12982300  0.67269400  0.82104400  1
  O  O34  1  0.91754500  0.68093800  0.05301600  1
  O  O35  1  0.41150900  0.66625800  0.94838700  1
  O  O36  1  0.54108600  0.00183500  0.16757700  1
  O  O37  1  0.81461700  0.85560700  0.17971600  1
  O  O38  1  0.93973700  0.70042300  0.39076500  1
  O  O39  1  0.13487900  0.87365400  0.89136300  1
  O  O40  1  0.78282400  0.54772400  0.89163200  1
  O  O41  1  0.67923100  0.71320800  0.67023600  1
  O  O42  1  0.40449500  0.86085000  0.68046800  1
  O  O43  1  0.63427000  0.87368100  0.44744100  1
  O  O44  1  0.98063900  0.95594600  0.33174800  1
  O  O45  1  0.73171300  0.96596800  0.60955600  1
  O  O46  1  0.83974600  0.80697700  0.83127000  1
  O  O47  1  0.73869100  0.99835300  0.94394100  1
loop_
_geom_bond_atom_site_label_1
_geom_bond_atom_site_label_2
_geom_bond_distance
_geom_bond_site_symmetry_2
Fe0 O45 2.120231 1_445
Fe0 O2 2.120231 1_555
Fe0 O25 2.207883 1_545
Fe0 O23 2.207883 1_455
Fe0 O3 2.211827 1_555
Fe0 O44 2.211827 1_445
Fe1 O0 1.998460 1_555
Fe1 O2 2.011241 1_555
Fe1 O27 2.013675 1_545
Fe1 O36 2.059396 1_555
Fe1 O1 2.106327 1_555
Fe1 O44 2.232856 1_445
Fe2 O4 1.979879 1_555
Fe2 O3 2.035842 1_555
Fe2 O39 2.041941 1_545
Fe2 O42 2.048176 1_545
Fe2 O10 2.144706 1_555
Fe2 O11 2.193979 1_545
Fe3 O8 2.074603 1_556
Fe3 O13 2.118966 1_555
Fe3 O18 2.156202 1_555
Fe3 O31 2.185080 1_555
Fe3 O1 2.271152 1_556
Fe3 O12 2.307518 1_556
Fe4 O7 2.071898 1_556
Fe4 O47 2.123104 1_545
Fe4 O18 2.152998 1_555
Fe4 O32 2.218914 1_555
Fe4 O12 2.250384 1_556
Fe4 O36 2.293960 1_556
Fe5 O26 1.962770 1_455
Fe5 O23 1.989772 1_455
Fe5 O8 2.042927 1_555
Fe5 O6 2.117976 1_555
Fe5 O15 2.125775 1_455
Fe5 O1 2.241148 1_555
Fe6 O9 2.006735 1_555
Fe6 O13 2.016408 1_555
Fe6 O32 2.034076 1_455
Fe6 O10 2.057348 1_555
Fe6 O19 2.087562 1_555
Fe6 O21 2.158527 1_555
Fe7 O9 2.140607 1_555
Fe7 O22 2.143559 1_555
Fe7 O17 2.151437 1_555
Fe7 O4 2.235658 1_555
Fe7 O19 2.238266 1_555
Fe7 O6 2.246228 1_555
Fe8 O17 1.996923 1_555
Fe8 O15 2.001686 1_555
Fe8 O16 2.061961 1_555
Fe8 O12 2.088337 1_555
Fe8 O5 2.112317 1_555
Fe8 O6 2.201591 1_555
Fe9 O24 2.022141 1_555
Fe9 O20 2.085396 1_555
Fe9 O19 2.109688 1_555
Fe9 O18 2.186847 1_555
Fe9 O32 2.307507 1_555
Fe9 O31 2.388514 1_555
Fe10 O40 2.074603 1_554
Fe10 O34 2.118966 1_555
Fe10 O29 2.156202 1_555
Fe10 O16 2.185080 1_555
Fe10 O46 2.271152 1_554
Fe10 O35 2.307518 1_554
Fe11 O39 2.071898 1_554
Fe11 O0 2.123104 1_565
Fe11 O29 2.152998 1_555
Fe11 O14 2.218914 1_555
Fe11 O35 2.250384 1_554
Fe11 O11 2.293960 1_554
Fe12 O22 2.022141 1_555
Fe12 O27 2.085396 1_555
Fe12 O28 2.109688 1_555
Fe12 O29 2.186847 1_555
Fe12 O14 2.307507 1_555
Fe12 O16 2.388514 1_555
Fe13 O30 1.996923 1_555
Fe13 O33 2.001686 1_555
Fe13 O31 2.061961 1_555
Fe13 O35 2.088337 1_555
Fe13 O42 2.112317 1_555
Fe13 O41 2.201591 1_555
Fe14 O38 2.140607 1_555
Fe14 O24 2.143559 1_555
Fe14 O30 2.151437 1_555
Fe14 O43 2.235658 1_555
Fe14 O28 2.238266 1_555
Fe14 O41 2.246228 1_555
Fe15 O38 2.006735 1_555
Fe15 O34 2.016408 1_555
Fe15 O14 2.034076 1_655
Fe15 O37 2.057348 1_555
Fe15 O28 2.087562 1_555
Fe15 O26 2.158527 1_555
Fe16 O21 1.962770 1_655
Fe16 O25 1.989772 1_655
Fe16 O40 2.042927 1_555
Fe16 O41 2.117976 1_555
Fe16 O33 2.125775 1_655
Fe16 O46 2.241148 1_555
Fe17 O43 1.979879 1_555
Fe17 O44 2.035842 1_555
Fe17 O7 2.041941 1_565
Fe17 O5 2.048176 1_565
Fe17 O37 2.144706 1_555
Fe17 O36 2.193979 1_565
Fe18 O47 1.998460 1_555
Fe18 O45 2.011241 1_555
Fe18 O20 2.013675 1_565
Fe18 O11 2.059396 1_555
Fe18 O46 2.106327 1_555
Fe18 O3 2.232856 1_665
O0 Si1 1.644476 1_554
O1 Si2 1.681181 1_455
O2 Si0 1.628864 1_555
O3 Si4 1.701835 1_455
O4 Si0 1.643299 1_555
O5 Si0 1.652432 1_555
O6 Si0 1.691098 1_555
O7 Si2 1.626663 1_555
O8 Si3 1.623400 1_555
O9 Si4 1.626796 1_455
O10 Si1 1.639258 1_555
O11 Si1 1.686711 1_565
O12 Si8 1.674904 1_554
O13 Si2 1.647955 1_456
O14 Si3 1.663337 1_555
O15 Si2 1.654671 1_555
O16 Si3 1.666655 1_555
O17 Si6 1.636716 1_555
O18 Si1 1.654495 1_555
O19 Si5 1.681018 1_555
O20 Si4 1.646622 1_555
O21 Si5 1.661085 1_555
O22 Si5 1.630393 1_555
O23 Si4 1.642256 1_555
O24 Si6 1.630393 1_555
O25 Si7 1.642256 1_555
O26 Si6 1.661085 1_555
O27 Si7 1.646622 1_555
O28 Si6 1.681018 1_555
O29 Si10 1.654495 1_555
O30 Si5 1.636716 1_555
O31 Si8 1.666655 1_555
O32 Si8 1.663337 1_555
O33 Si9 1.654671 1_555
O34 Si9 1.647955 1_654
O35 Si3 1.674904 1_556
O36 Si10 1.686711 1_545
O37 Si10 1.639258 1_555
O38 Si7 1.626796 1_655
O39 Si9 1.626663 1_555
O40 Si8 1.623400 1_555
O41 Si11 1.691098 1_555
O42 Si11 1.652432 1_555
O43 Si11 1.643299 1_555
O44 Si7 1.701835 1_655
O45 Si11 1.628864 1_555
O46 Si9 1.681181 1_655
O47 Si10 1.644476 1_556
