# generated using pymatgen
data_Li4VCr(TeO6)2
_symmetry_space_group_name_H-M   'P 1'
_cell_length_a   5.11170800
_cell_length_b   5.35738868
_cell_length_c   7.42393986
_cell_angle_alpha   86.41378559
_cell_angle_beta   89.97121296
_cell_angle_gamma   89.82259568
_symmetry_Int_Tables_number   1
_chemical_formula_structural   Li4VCr(TeO6)2
_chemical_formula_sum   'Li4 V1 Cr1 Te2 O12'
_cell_volume   202.90851362
_cell_formula_units_Z   1
loop_
 _symmetry_equiv_pos_site_id
 _symmetry_equiv_pos_as_xyz
  1  'x, y, z'
loop_
 _atom_site_type_symbol
 _atom_site_label
 _atom_site_symmetry_multiplicity
 _atom_site_fract_x
 _atom_site_fract_y
 _atom_site_fract_z
 _atom_site_occupancy
  Li  Li0  1  0.99797800  0.42793300  0.72201200  1
  Li  Li1  1  0.49964100  0.92989400  0.20489700  1
  Li  Li2  1  0.00252500  0.43078600  0.20980400  1
  Li  Li3  1  0.50081800  0.96090100  0.73488600  1
  V  V0  1  0.49700100  0.49076200  0.49111300  1
  Cr  Cr0  1  0.00056300  0.99661900  0.99978300  1
  Te  Te0  1  0.00027800  0.98855100  0.49989000  1
  Te  Te1  1  0.49576500  0.49895800  0.99171400  1
  O  O0  1  0.69443000  0.20583400  0.56740200  1
  O  O1  1  0.87355400  0.01902000  0.25913300  1
  O  O2  1  0.66992600  0.81608200  0.95260100  1
  O  O3  1  0.80284300  0.69408700  0.57235800  1
  O  O4  1  0.20271700  0.68850500  0.07290700  1
  O  O5  1  0.61962300  0.50969700  0.26299400  1
  O  O6  1  0.37556400  0.51072800  0.74330700  1
  O  O7  1  0.81605400  0.32878200  0.94886400  1
  O  O8  1  0.19358200  0.32022900  0.44453900  1
  O  O9  1  0.31390800  0.20073000  0.06968600  1
  O  O10  1  0.12311500  0.02407900  0.74019700  1
  O  O11  1  0.32011600  0.81542100  0.44071200  1
loop_
_geom_bond_atom_site_label_1
_geom_bond_atom_site_label_2
_geom_bond_distance
_geom_bond_site_symmetry_2
Li0 O7 1.967953 1_555
Li0 O6 1.990338 1_655
Li0 O3 2.014102 1_555
Li0 O10 2.250233 1_655
Li0 O0 2.307589 1_555
Li0 O8 2.391465 1_655
Li1 O9 1.955643 1_565
Li1 O1 2.018362 1_565
Li1 O11 2.037319 1_555
Li1 O2 2.185325 1_554
Li1 O4 2.260186 1_555
Li1 O5 2.345239 1_555
Li2 O4 1.954119 1_555
Li2 O5 2.044650 1_455
Li2 O8 2.051945 1_555
Li2 O7 2.257758 1_454
Li2 O9 2.298089 1_555
Li2 O1 2.311457 1_455
Li3 O2 1.949870 1_555
Li3 O10 1.959922 1_565
Li3 O0 2.012479 1_565
Li3 O3 2.466350 1_555
Li3 O6 2.494203 1_555
Li3 O11 2.539615 1_555
Cr0 O4 1.991277 1_556
Cr0 O2 1.991931 1_455
Cr0 O10 2.022840 1_565
Cr0 O7 2.026072 1_465
Cr0 O9 2.028119 1_566
Cr0 O1 2.042115 1_466
O0 V0 1.884740 1_555
O0 Te0 2.027667 1_645
O1 Te0 1.898669 1_645
O2 Te1 1.926324 1_555
O3 Te0 1.923490 1_655
O3 V0 2.021925 1_555
O4 Te1 1.924761 1_554
O5 V0 1.802525 1_555
O5 Te1 2.115708 1_554
O6 Te1 1.941333 1_555
O6 V0 1.981326 1_555
O7 Te1 1.907724 1_555
O8 V0 1.846250 1_555
O8 Te0 2.054706 1_545
O9 Te1 1.909165 1_554
O10 Te0 1.912481 1_545
O11 Te0 1.940912 1_555
O11 V0 1.972813 1_555
