# generated using pymatgen
data_Li2Fe12P7
_symmetry_space_group_name_H-M   'P 1'
_cell_length_a   9.13988839
_cell_length_b   9.13991734
_cell_length_c   3.43701935
_cell_angle_alpha   90.00000000
_cell_angle_beta   90.00000000
_cell_angle_gamma   119.99938511
_symmetry_Int_Tables_number   1
_chemical_formula_structural   Li2Fe12P7
_chemical_formula_sum   'Li2 Fe12 P7'
_cell_volume   248.65572348
_cell_formula_units_Z   1
loop_
 _symmetry_equiv_pos_site_id
 _symmetry_equiv_pos_as_xyz
  1  'x, y, z'
loop_
 _atom_site_type_symbol
 _atom_site_label
 _atom_site_symmetry_multiplicity
 _atom_site_fract_x
 _atom_site_fract_y
 _atom_site_fract_z
 _atom_site_occupancy
  Li  Li0  1  0.66666013  0.33333470  0.00000000  1
  Li  Li1  1  0.00005002  0.00006091  0.50000000  1
  Fe  Fe0  1  0.44300845  0.50349938  -0.00000000  1
  Fe  Fe1  1  0.37539242  0.26530025  0.50000000  1
  Fe  Fe2  1  0.49650595  0.93948831  -0.00000000  1
  Fe  Fe3  1  0.88989966  0.62459331  0.50000000  1
  Fe  Fe4  1  0.73474377  0.11010099  0.50000000  1
  Fe  Fe5  1  0.55287780  0.75826544  0.50000000  1
  Fe  Fe6  1  0.06043653  0.55697085  0.00000000  1
  Fe  Fe7  1  0.95720509  0.24256587  0.00000000  1
  Fe  Fe8  1  0.75741602  0.71461780  -0.00000000  1
  Fe  Fe9  1  0.20536260  0.44707034  0.50000000  1
  Fe  Fe10  1  0.28537053  0.04281771  -0.00000000  1
  Fe  Fe11  1  0.24170526  0.79461385  0.50000000  1
  P  P0  1  0.60619609  0.52282758  0.50000000  1
  P  P1  1  0.47718915  0.08338681  0.50000000  1
  P  P2  1  0.33332503  0.66665398  -0.00000000  1
  P  P3  1  0.91660892  0.39379816  0.50000000  1
  P  P4  1  0.75071023  0.95780046  0.00000000  1
  P  P5  1  0.20713652  0.24932335  0.00000000  1
  P  P6  1  0.04220183  0.79291094  0.00000000  1
loop_
_geom_bond_atom_site_label_1
_geom_bond_atom_site_label_2
_geom_bond_distance
_geom_bond_site_symmetry_2
Li0 P1 2.686087 1_554
Li0 P1 2.686087 1_555
Li0 P3 2.686107 1_554
Li0 P3 2.686107 1_555
Li0 P0 2.686158 1_554
Li0 P0 2.686158 1_555
Li1 P5 2.722882 1_556
Li1 P5 2.722882 1_555
Li1 P4 2.723195 1_445
Li1 P4 2.723195 1_446
Li1 P6 2.723203 1_545
Li1 P6 2.723203 1_546
Fe0 P2 2.173394 1_555
Fe0 P0 2.223876 1_554
Fe0 P0 2.223876 1_555
Fe0 P5 2.244198 1_555
Fe1 P0 2.241673 1_555
Fe1 P5 2.261634 1_555
Fe1 P5 2.261634 1_556
Fe1 P1 2.275322 1_555
Fe2 P2 2.173418 1_555
Fe2 P1 2.224062 1_564
Fe2 P1 2.224062 1_565
Fe2 P4 2.244400 1_555
Fe3 P3 2.241499 1_555
Fe3 P6 2.261912 1_656
Fe3 P6 2.261912 1_655
Fe3 P0 2.275322 1_555
Fe4 P1 2.241934 1_555
Fe4 P4 2.261727 1_545
Fe4 P4 2.261727 1_546
Fe4 P3 2.275184 1_555
Fe5 P0 2.432432 1_555
Fe5 P2 2.449687 1_556
Fe5 P2 2.449687 1_555
Fe5 P4 2.500239 1_556
Fe5 P4 2.500239 1_555
Fe6 P2 2.173830 1_555
Fe6 P3 2.223759 1_454
Fe6 P3 2.223759 1_455
Fe6 P6 2.244449 1_555
Fe7 P5 2.254099 1_655
Fe7 P4 2.328974 1_545
Fe7 P3 2.348283 1_555
Fe7 P3 2.348283 1_554
Fe8 P4 2.253939 1_555
Fe8 P6 2.329083 1_655
Fe8 P0 2.348112 1_555
Fe8 P0 2.348112 1_554
Fe9 P3 2.432556 1_455
Fe9 P2 2.449870 1_556
Fe9 P2 2.449870 1_555
Fe9 P5 2.499901 1_556
Fe9 P5 2.499901 1_555
Fe10 P6 2.253983 1_545
Fe10 P5 2.328806 1_555
Fe10 P1 2.348278 1_554
Fe10 P1 2.348278 1_555
Fe11 P1 2.432699 1_565
Fe11 P2 2.449834 1_556
Fe11 P2 2.449834 1_555
Fe11 P6 2.500014 1_555
Fe11 P6 2.500014 1_556
