# generated using pymatgen
data_LiFeP2O7
_symmetry_space_group_name_H-M   'P 1'
_cell_length_a   7.03304812
_cell_length_b   9.47270432
_cell_length_c   8.74791004
_cell_angle_alpha   109.66988508
_cell_angle_beta   87.07604071
_cell_angle_gamma   94.74481287
_symmetry_Int_Tables_number   1
_chemical_formula_structural   LiFeP2O7
_chemical_formula_sum   'Li4 Fe4 P8 O28'
_cell_volume   546.74774939
_cell_formula_units_Z   4
loop_
 _symmetry_equiv_pos_site_id
 _symmetry_equiv_pos_as_xyz
  1  'x, y, z'
loop_
 _atom_site_type_symbol
 _atom_site_label
 _atom_site_symmetry_multiplicity
 _atom_site_fract_x
 _atom_site_fract_y
 _atom_site_fract_z
 _atom_site_occupancy
  Li  Li0  1  0.00000400  0.99999600  0.99998500  1
  Li  Li1  1  0.50000800  0.50000500  0.49999700  1
  Li  Li2  1  0.74998300  0.74998100  0.24995800  1
  Li  Li3  1  0.25004000  0.25003200  0.75004500  1
  Fe  Fe0  1  0.92148000  0.23040500  0.46408700  1
  Fe  Fe1  1  0.07849000  0.76959000  0.53588600  1
  Fe  Fe2  1  0.42143300  0.73036500  0.96409700  1
  Fe  Fe3  1  0.57856400  0.26962600  0.03593100  1
  P  P0  1  0.58624100  0.02154300  0.24147800  1
  P  P1  1  0.08622700  0.52155200  0.74152800  1
  P  P2  1  0.91378100  0.47844700  0.25846200  1
  P  P3  1  0.41376000  0.97844900  0.75852600  1
  P  P4  1  0.17796700  0.94849900  0.26124700  1
  P  P5  1  0.67796700  0.44853700  0.76128400  1
  P  P6  1  0.32204200  0.55146600  0.23872300  1
  P  P7  1  0.82201800  0.05150200  0.73874400  1
  O  O0  1  0.55653900  0.14993300  0.18167100  1
  O  O1  1  0.05651500  0.64994000  0.68171100  1
  O  O2  1  0.94348400  0.35006300  0.31828500  1
  O  O3  1  0.44345600  0.85007500  0.81834600  1
  O  O4  1  0.63724400  0.87311600  0.10763400  1
  O  O5  1  0.13720900  0.37314100  0.60765700  1
  O  O6  1  0.86279700  0.62686200  0.39233600  1
  O  O7  1  0.36276700  0.12688200  0.89236600  1
  O  O8  1  0.59494900  0.59996100  0.79181500  1
  O  O9  1  0.09495200  0.09996100  0.29183300  1
  O  O10  1  0.90504200  0.90004600  0.70816400  1
  O  O11  1  0.40504800  0.40003300  0.20819000  1
  O  O12  1  0.19579800  0.86906300  0.07567100  1
  O  O13  1  0.69583500  0.36909600  0.57569600  1
  O  O14  1  0.30416000  0.63090900  0.42431000  1
  O  O15  1  0.80419800  0.13093300  0.92432400  1
  O  O16  1  0.39076700  0.98258000  0.33058500  1
  O  O17  1  0.89075900  0.48262000  0.83064100  1
  O  O18  1  0.10924900  0.51738700  0.16935300  1
  O  O19  1  0.60922600  0.01740700  0.66941500  1
  O  O20  1  0.23097300  0.56017200  0.87486600  1
  O  O21  1  0.73099100  0.06020100  0.37486400  1
  O  O22  1  0.26900400  0.93978300  0.62514600  1
  O  O23  1  0.76903100  0.43982800  0.12512400  1
  O  O24  1  0.43554700  0.64931900  0.15304700  1
  O  O25  1  0.93551600  0.14937000  0.65305900  1
  O  O26  1  0.06446900  0.85063700  0.34694800  1
  O  O27  1  0.56446800  0.35068300  0.84696300  1
loop_
_geom_bond_atom_site_label_1
_geom_bond_atom_site_label_2
_geom_bond_distance
_geom_bond_site_symmetry_2
Li0 O15 2.191154 1_465
Li0 O12 2.191184 1_556
Li0 O10 2.510296 1_455
Li0 O9 2.510483 1_566
Li1 O13 2.191240 1_555
Li1 O14 2.191253 1_555
Li1 O11 2.510184 1_555
Li1 O8 2.510231 1_555
Li2 O4 2.184196 1_555
Li2 O6 2.184675 1_555
Li2 O24 2.411772 1_555
Li2 O26 2.412261 1_655
Li3 O7 2.184246 1_555
Li3 O5 2.184722 1_555
Li3 O27 2.411717 1_555
Li3 O25 2.412505 1_455
Fe0 O2 1.964598 1_555
Fe0 O21 1.976285 1_555
Fe0 O9 2.023448 1_655
Fe0 O25 2.053098 1_555
Fe0 O5 2.102229 1_655
Fe0 O13 2.126283 1_555
Fe1 O1 1.964707 1_555
Fe1 O22 1.976381 1_555
Fe1 O10 2.023497 1_455
Fe1 O26 2.052881 1_555
Fe1 O6 2.101950 1_455
Fe1 O14 2.126307 1_555
Fe2 O3 1.964612 1_555
Fe2 O20 1.976102 1_555
Fe2 O8 2.023608 1_555
Fe2 O24 2.053051 1_556
Fe2 O4 2.102566 1_556
Fe2 O12 2.126198 1_556
Fe3 O0 1.964404 1_555
Fe3 O23 1.976135 1_555
Fe3 O11 2.023517 1_555
Fe3 O27 2.053251 1_554
Fe3 O7 2.102574 1_554
Fe3 O15 2.126229 1_554
O0 P0 1.509319 1_555
O1 P1 1.509371 1_555
O2 P2 1.509355 1_555
O3 P3 1.509239 1_555
O4 P0 1.552021 1_565
O5 P1 1.551983 1_555
O6 P2 1.552024 1_555
O7 P3 1.552025 1_545
O8 P5 1.527895 1_555
O9 P4 1.528137 1_545
O10 P7 1.528122 1_565
O11 P6 1.527932 1_555
O12 P4 1.545917 1_555
O13 P5 1.546034 1_555
O14 P6 1.546036 1_555
O15 P7 1.545936 1_555
O16 P4 1.610250 1_555
O16 P0 1.623042 1_565
O17 P5 1.610257 1_555
O17 P1 1.622942 1_655
O18 P6 1.610304 1_555
O18 P2 1.622948 1_455
O19 P7 1.610169 1_555
O19 P3 1.623000 1_545
O20 P1 1.517560 1_555
O21 P0 1.517856 1_555
O22 P3 1.517842 1_555
O23 P2 1.517580 1_555
O24 P6 1.530499 1_555
O25 P7 1.530633 1_555
O26 P4 1.530685 1_555
O27 P5 1.530504 1_555
