# generated using pymatgen
data_Li4Mn3(PO4)4
_symmetry_space_group_name_H-M   'P 1'
_cell_length_a   7.59220700
_cell_length_b   7.67925614
_cell_length_c   11.44077886
_cell_angle_alpha   105.43815287
_cell_angle_beta   105.07217559
_cell_angle_gamma   101.83924517
_symmetry_Int_Tables_number   1
_chemical_formula_structural   Li4Mn3(PO4)4
_chemical_formula_sum   'Li8 Mn6 P8 O32'
_cell_volume   593.24949980
_cell_formula_units_Z   2
loop_
 _symmetry_equiv_pos_site_id
 _symmetry_equiv_pos_as_xyz
  1  'x, y, z'
loop_
 _atom_site_type_symbol
 _atom_site_label
 _atom_site_symmetry_multiplicity
 _atom_site_fract_x
 _atom_site_fract_y
 _atom_site_fract_z
 _atom_site_occupancy
  Li  Li0  1  0.52614500  0.77345600  0.27108000  1
  Li  Li1  1  0.74863200  0.26208300  0.01752100  1
  Li  Li2  1  0.26867700  0.74439700  0.01140000  1
  Li  Li3  1  0.51371600  0.50079300  0.49658400  1
  Li  Li4  1  0.25683700  0.75280100  0.49347900  1
  Li  Li5  1  0.98136300  0.01372700  0.48772100  1
  Li  Li6  1  0.02290700  0.27391000  0.27876600  1
  Li  Li7  1  0.00278100  0.01032200  0.01593300  1
  Mn  Mn0  1  0.99237200  0.73400100  0.22334900  1
  Mn  Mn1  1  0.98027100  0.72760200  0.72243300  1
  Mn  Mn2  1  0.48763000  0.23810700  0.22848900  1
  Mn  Mn3  1  0.50655700  0.75545600  0.78441000  1
  Mn  Mn4  1  0.48228200  0.23537000  0.72532100  1
  Mn  Mn5  1  0.00674600  0.25722700  0.78065600  1
  P  P0  1  0.70430100  0.95875800  0.09733800  1
  P  P1  1  0.87392700  0.62511900  0.40170900  1
  P  P2  1  0.63633300  0.88384800  0.59650400  1
  P  P3  1  0.20412100  0.44822100  0.09325300  1
  P  P4  1  0.78492600  0.53765400  0.90882000  1
  P  P5  1  0.37510200  0.12178000  0.40395200  1
  P  P6  1  0.13507400  0.38633500  0.59475700  1
  P  P7  1  0.28448000  0.03317500  0.90629800  1
  O  O0  1  0.91213600  0.95379700  0.16231100  1
  O  O1  1  0.79817200  0.54326600  0.04511800  1
  O  O2  1  0.54549900  0.80867700  0.10100300  1
  O  O3  1  0.81657800  0.76489800  0.32748300  1
  O  O4  1  0.51346400  0.76528800  0.45754600  1
  O  O5  1  0.49916600  0.95392300  0.66957600  1
  O  O6  1  0.00590100  0.45780000  0.67330500  1
  O  O7  1  0.70017800  0.74144500  0.66582600  1
  O  O8  1  0.70543800  0.47214200  0.39272700  1
  O  O9  1  0.21084700  0.95819800  0.39471200  1
  O  O10  1  0.94024700  0.69146800  0.90119800  1
  O  O11  1  0.69666600  0.94725000  0.95526100  1
  O  O12  1  0.70040100  0.16743900  0.16158100  1
  O  O13  1  0.19930900  0.65722500  0.16121900  1
  O  O14  1  0.40582100  0.44267000  0.16566300  1
  O  O15  1  0.28709200  0.03941700  0.04236900  1
  O  O16  1  0.27647500  0.82249600  0.83254800  1
  O  O17  1  0.77744300  0.32780600  0.83160400  1
  O  O18  1  0.57859900  0.53070200  0.82830900  1
  O  O19  1  0.04113500  0.29349500  0.09364400  1
  O  O20  1  0.30356500  0.55412000  0.60996900  1
  O  O21  1  0.80756900  0.04410700  0.61229300  1
  O  O22  1  0.30992300  0.26107400  0.33159400  1
  O  O23  1  0.01280300  0.55697300  0.33022100  1
  O  O24  1  0.50256400  0.05360700  0.32330700  1
  O  O25  1  0.49073600  0.24622000  0.54306300  1
  O  O26  1  0.00057900  0.75032600  0.54102500  1
  O  O27  1  0.02390700  0.26779600  0.45589600  1
  O  O28  1  0.20419200  0.24851700  0.66750500  1
  O  O29  1  0.44165100  0.17882100  0.89659700  1
  O  O30  1  0.18955600  0.44334600  0.95338200  1
  O  O31  1  0.07526400  0.02810100  0.82993000  1
loop_
_geom_bond_atom_site_label_1
_geom_bond_atom_site_label_2
_geom_bond_distance
_geom_bond_site_symmetry_2
Li0 O2 2.072080 1_555
Li0 O24 2.132297 1_565
Li0 O3 2.150559 1_555
Li0 O4 2.177113 1_555
Li0 O13 2.325020 1_555
Li0 O14 2.363350 1_555
Li1 O1 2.036088 1_555
Li1 O12 2.054546 1_555
Li1 O19 2.100205 1_655
Li1 O29 2.235050 1_554
Li1 O11 2.248070 1_544
Li1 O17 2.365388 1_554
Li2 O2 1.973843 1_555
Li2 O30 2.133514 1_554
Li2 O13 2.144557 1_555
Li2 O15 2.166712 1_565
Li2 O16 2.291712 1_554
Li2 O10 2.376698 1_454
Li3 O8 2.114404 1_555
Li3 O25 2.143993 1_555
Li3 O7 2.182724 1_555
Li3 O22 2.192755 1_555
Li3 O4 2.192957 1_555
Li3 O20 2.336192 1_555
Li4 O4 2.082118 1_555
Li4 O26 2.149932 1_555
Li4 O23 2.178167 1_555
Li4 O9 2.203701 1_555
Li4 O5 2.253651 1_555
Li4 O20 2.299706 1_555
Li5 O27 2.055315 1_655
Li5 O3 2.130377 1_545
Li5 O21 2.180356 1_555
Li5 O26 2.283889 1_645
Li5 O28 2.303881 1_655
Li5 O9 2.318875 1_645
Li6 O27 2.037593 1_555
Li6 O23 2.118514 1_555
Li6 O22 2.135024 1_555
Li6 O19 2.200209 1_555
Li6 O12 2.312777 1_455
Li6 O0 2.313125 1_445
Li7 O19 2.044547 1_555
Li7 O15 2.056046 1_555
Li7 O0 2.080961 1_445
Li7 O11 2.153582 1_444
Li7 O10 2.330583 1_444
Li7 O31 2.362801 1_554
Mn0 O13 2.014701 1_655
Mn0 O3 2.015788 1_555
Mn0 O23 2.059120 1_655
Mn0 O1 2.106502 1_555
Mn0 O0 2.129750 1_555
Mn0 O9 2.213375 1_655
Mn1 O6 2.061258 1_655
Mn1 O7 2.089497 1_555
Mn1 O16 2.130917 1_655
Mn1 O31 2.168545 1_665
Mn1 O26 2.170233 1_655
Mn1 O10 2.223280 1_555
Mn2 O24 2.004304 1_555
Mn2 O22 2.014311 1_555
Mn2 O14 2.034562 1_555
Mn2 O12 2.066792 1_555
Mn2 O15 2.193458 1_555
Mn2 O8 2.204958 1_555
Mn3 O11 2.049623 1_555
Mn3 O18 2.058224 1_555
Mn3 O16 2.082824 1_555
Mn3 O20 2.128021 1_555
Mn3 O7 2.244441 1_555
Mn3 O5 2.261590 1_555
Mn4 O28 2.074149 1_555
Mn4 O17 2.115371 1_555
Mn4 O18 2.124913 1_555
Mn4 O5 2.125265 1_545
Mn4 O25 2.125774 1_555
Mn4 O29 2.199076 1_555
Mn5 O30 2.032264 1_555
Mn5 O17 2.100244 1_455
Mn5 O31 2.106052 1_555
Mn5 O21 2.113467 1_455
Mn5 O6 2.210867 1_555
Mn5 O28 2.220750 1_555
O0 P0 1.572766 1_555
O1 P4 1.524614 1_554
O2 P0 1.505157 1_555
O3 P1 1.596147 1_555
O4 P2 1.528452 1_555
O5 P2 1.586257 1_555
O6 P6 1.577075 1_555
O7 P2 1.593464 1_555
O8 P1 1.509204 1_555
O9 P5 1.536969 1_565
O10 P4 1.526479 1_555
O11 P0 1.589259 1_556
O12 P0 1.585199 1_545
O13 P3 1.598867 1_555
O14 P3 1.555299 1_555
O15 P7 1.539485 1_554
O16 P7 1.593520 1_565
O17 P4 1.599661 1_555
O18 P4 1.579316 1_555
O19 P3 1.531474 1_555
O20 P6 1.554136 1_555
O21 P2 1.529815 1_545
O22 P5 1.596866 1_555
O23 P1 1.581616 1_455
O24 P5 1.573814 1_555
O25 P5 1.528494 1_555
O26 P1 1.548290 1_455
O27 P6 1.510744 1_555
O28 P6 1.599335 1_555
O29 P7 1.508140 1_555
O30 P3 1.564849 1_556
O31 P7 1.588287 1_555
