# generated using pymatgen
data_Na2Bi4O7
_symmetry_space_group_name_H-M   'P 1'
_cell_length_a   10.21390576
_cell_length_b   10.21390561
_cell_length_c   5.87822982
_cell_angle_alpha   74.76081792
_cell_angle_beta   74.76038697
_cell_angle_gamma   114.74533288
_symmetry_Int_Tables_number   1
_chemical_formula_structural   Na2Bi4O7
_chemical_formula_sum   'Na4 Bi8 O14'
_cell_volume   486.26520754
_cell_formula_units_Z   2
loop_
 _symmetry_equiv_pos_site_id
 _symmetry_equiv_pos_as_xyz
  1  'x, y, z'
loop_
 _atom_site_type_symbol
 _atom_site_label
 _atom_site_symmetry_multiplicity
 _atom_site_fract_x
 _atom_site_fract_y
 _atom_site_fract_z
 _atom_site_occupancy
  Na  Na0  1  0.48466461  0.65589644  0.43233533  1
  Na  Na1  1  0.34410740  0.51533699  0.06765647  1
  Na  Na2  1  0.65589549  0.48466470  0.93233552  1
  Na  Na3  1  0.51533651  0.34410355  0.56766184  1
  Bi  Bi0  1  0.61238898  0.11776920  0.16771362  1
  Bi  Bi1  1  0.26787770  0.12750147  0.23872987  1
  Bi  Bi2  1  0.11777358  0.61238913  0.66770194  1
  Bi  Bi3  1  0.12750079  0.26787411  0.73872878  1
  Bi  Bi4  1  0.87249799  0.73212184  0.26127162  1
  Bi  Bi5  1  0.88223069  0.38760801  0.33229470  1
  Bi  Bi6  1  0.73212101  0.87249756  0.76127142  1
  Bi  Bi7  1  0.38760811  0.88222758  0.83230088  1
  O  O0  1  0.49510209  0.21595507  0.96752616  1
  O  O1  1  0.37175550  0.99254377  0.45363385  1
  O  O2  1  0.71135679  0.67845984  0.09545750  1
  O  O3  1  0.68092353  0.31908061  0.24999664  1
  O  O4  1  0.21596165  0.49510458  0.46752601  1
  O  O5  1  0.99254344  0.37176032  0.95362707  1
  O  O6  1  0.32154230  0.28864310  0.40454113  1
  O  O7  1  0.67845764  0.71135611  0.59545867  1
  O  O8  1  0.00745992  0.62824213  0.04637200  1
  O  O9  1  0.78404342  0.50489659  0.53247331  1
  O  O10  1  0.31907923  0.68092596  0.74999321  1
  O  O11  1  0.28864331  0.32154056  0.90453815  1
  O  O12  1  0.62823736  0.00746027  0.54638133  1
  O  O13  1  0.50489097  0.78403750  0.03247297  1
loop_
_geom_bond_atom_site_label_1
_geom_bond_atom_site_label_2
_geom_bond_distance
_geom_bond_site_symmetry_2
Na0 O13 2.276309 1_555
Na0 O10 2.316276 1_555
Na0 O7 2.345836 1_555
Na0 O4 2.453942 1_555
Na0 O2 2.497708 1_555
Na1 O4 2.276324 1_555
Na1 O10 2.316320 1_554
Na1 O11 2.345840 1_554
Na1 O13 2.453923 1_555
Na1 O6 2.497744 1_555
Na2 O9 2.276295 1_555
Na2 O3 2.316283 1_556
Na2 O2 2.345844 1_556
Na2 O0 2.454001 1_555
Na2 O7 2.497718 1_555
Na3 O0 2.276304 1_555
Na3 O3 2.316271 1_555
Na3 O6 2.345835 1_555
Na3 O9 2.453982 1_555
Na3 O11 2.497713 1_555
Bi0 O3 2.108947 1_555
Bi0 O1 2.137298 1_545
Bi0 O0 2.225319 1_554
Bi0 O12 2.296508 1_555
Bi1 O0 2.070370 1_554
Bi1 O6 2.080458 1_555
Bi1 O11 2.283486 1_554
Bi1 O1 2.373865 1_545
Bi2 O10 2.108924 1_555
Bi2 O5 2.137277 1_455
Bi2 O4 2.225264 1_555
Bi2 O8 2.296549 1_556
Bi3 O4 2.070404 1_555
Bi3 O11 2.080462 1_555
Bi3 O6 2.283458 1_555
Bi3 O5 2.373908 1_455
Bi4 O9 2.070378 1_555
Bi4 O2 2.080470 1_555
Bi4 O7 2.283466 1_555
Bi4 O8 2.373886 1_655
Bi5 O3 2.108962 1_555
Bi5 O8 2.137310 1_655
Bi5 O9 2.225304 1_555
Bi5 O5 2.296506 1_554
Bi6 O13 2.070392 1_556
Bi6 O7 2.080463 1_555
Bi6 O2 2.283465 1_556
Bi6 O12 2.373906 1_565
Bi7 O10 2.108941 1_555
Bi7 O12 2.137260 1_565
Bi7 O13 2.225256 1_556
Bi7 O1 2.296548 1_555
