# generated using pymatgen
data_LiCoPO4
_symmetry_space_group_name_H-M   'P 1'
_cell_length_a   5.43457700
_cell_length_b   7.43473901
_cell_length_c   8.22021601
_cell_angle_alpha   89.99568695
_cell_angle_beta   89.99990207
_cell_angle_gamma   90.00030173
_symmetry_Int_Tables_number   1
_chemical_formula_structural   LiCoPO4
_chemical_formula_sum   'Li4 Co4 P4 O16'
_cell_volume   332.13504504
_cell_formula_units_Z   4
loop_
 _symmetry_equiv_pos_site_id
 _symmetry_equiv_pos_as_xyz
  1  'x, y, z'
loop_
 _atom_site_type_symbol
 _atom_site_label
 _atom_site_symmetry_multiplicity
 _atom_site_fract_x
 _atom_site_fract_y
 _atom_site_fract_z
 _atom_site_occupancy
  Li  Li0  1  0.73063200  0.92080900  0.75197400  1
  Li  Li1  1  0.23065100  0.57919400  0.25201000  1
  Li  Li2  1  0.73065200  0.42080300  0.74799000  1
  Li  Li3  1  0.23062600  0.07918900  0.24802400  1
  Co  Co0  1  0.71533900  0.26476400  0.06132200  1
  Co  Co1  1  0.21534300  0.73523700  0.93867700  1
  Co  Co2  1  0.21535300  0.23523200  0.56130500  1
  Co  Co3  1  0.71535300  0.76477100  0.43869300  1
  P  P0  1  0.72175700  0.20052800  0.42367800  1
  P  P1  1  0.22172400  0.29948200  0.92367600  1
  P  P2  1  0.72173000  0.70051600  0.07632600  1
  P  P3  1  0.22175600  0.79947300  0.57632200  1
  O  O0  1  0.69089800  0.01960200  0.51458200  1
  O  O1  1  0.19090500  0.48039600  0.01456600  1
  O  O2  1  0.69090800  0.51960000  0.98543400  1
  O  O3  1  0.19089400  0.98039700  0.48541700  1
  O  O4  1  0.46365000  0.27994700  0.38138900  1
  O  O5  1  0.96362200  0.22007700  0.88138300  1
  O  O6  1  0.46362800  0.77992100  0.11861600  1
  O  O7  1  0.96365100  0.72005700  0.61861200  1
  O  O8  1  0.86894700  0.17482000  0.26154800  1
  O  O9  1  0.36896600  0.32518300  0.76151300  1
  O  O10  1  0.86897000  0.67481700  0.23848900  1
  O  O11  1  0.36895100  0.82518600  0.73845100  1
  O  O12  1  0.86978700  0.33068300  0.53578000  1
  O  O13  1  0.36975700  0.16931800  0.03579100  1
  O  O14  1  0.86976300  0.83067700  0.96421100  1
  O  O15  1  0.36978200  0.66932000  0.46422100  1
loop_
_geom_bond_atom_site_label_1
_geom_bond_atom_site_label_2
_geom_bond_distance
_geom_bond_site_symmetry_2
Li0 O14 2.016021 1_555
Li0 O11 2.093155 1_555
Li0 O0 2.096168 1_565
Li0 O7 2.243523 1_555
Li1 O15 2.015906 1_555
Li1 O10 2.093155 1_455
Li1 O1 2.096688 1_555
Li1 O6 2.243281 1_555
Li2 O12 2.015893 1_555
Li2 O9 2.093167 1_555
Li2 O2 2.096685 1_555
Li2 O5 2.243261 1_555
Li3 O13 2.015980 1_555
Li3 O8 2.093172 1_455
Li3 O3 2.096171 1_545
Li3 O4 2.243573 1_555
Co0 O8 1.962878 1_555
Co0 O2 1.999064 1_554
Co0 O13 2.018623 1_555
Co0 O5 2.029519 1_554
Co1 O11 1.962885 1_555
Co1 O1 1.999103 1_556
Co1 O14 2.018606 1_455
Co1 O6 2.029523 1_556
Co2 O9 1.962865 1_555
Co2 O3 1.999155 1_545
Co2 O12 2.018546 1_455
Co2 O4 2.029427 1_555
Co3 O10 1.962855 1_555
Co3 O0 1.999129 1_565
Co3 O15 2.018566 1_555
Co3 O7 2.029453 1_555
O0 P0 1.547821 1_555
O1 P1 1.547764 1_554
O2 P2 1.547785 1_556
O3 P3 1.547816 1_555
O4 P0 1.561102 1_555
O5 P1 1.561060 1_655
O6 P2 1.561059 1_555
O7 P3 1.561079 1_655
O8 P0 1.566090 1_555
O9 P1 1.566433 1_555
O10 P2 1.566429 1_555
O11 P3 1.566103 1_555
O12 P0 1.559765 1_555
O13 P1 1.559797 1_554
O14 P2 1.559776 1_556
O15 P3 1.559743 1_555
