# generated using pymatgen
data_Cr3(FeO4)2
_symmetry_space_group_name_H-M   'P 1'
_cell_length_a   5.97929777
_cell_length_b   5.97929777
_cell_length_c   5.93934436
_cell_angle_alpha   59.77722513
_cell_angle_beta   59.77722513
_cell_angle_gamma   60.00000000
_symmetry_Int_Tables_number   1
_chemical_formula_structural   Cr3(FeO4)2
_chemical_formula_sum   'Cr3 Fe2 O8'
_cell_volume   149.64191637
_cell_formula_units_Z   1
loop_
 _symmetry_equiv_pos_site_id
 _symmetry_equiv_pos_as_xyz
  1  'x, y, z'
loop_
 _atom_site_type_symbol
 _atom_site_label
 _atom_site_symmetry_multiplicity
 _atom_site_fract_x
 _atom_site_fract_y
 _atom_site_fract_z
 _atom_site_occupancy
  Cr  Cr0  1  0.62211400  0.13871000  0.61706200  1
  Cr  Cr1  1  0.13871000  0.62211400  0.61706200  1
  Cr  Cr2  1  0.62211400  0.62211400  0.61706200  1
  Fe  Fe0  1  0.00182900  0.00182900  0.99451300  1
  Fe  Fe1  1  0.62191700  0.62191700  0.13424700  1
  O  O0  1  0.83328800  0.38356700  0.39957700  1
  O  O1  1  0.38356700  0.38356700  0.39957700  1
  O  O2  1  0.38356700  0.83328800  0.39957700  1
  O  O3  1  0.39155900  0.39155900  0.82532200  1
  O  O4  1  0.86771700  0.86771700  0.39684800  1
  O  O5  1  0.86776800  0.39807900  0.86638400  1
  O  O6  1  0.39807900  0.86776800  0.86638400  1
  O  O7  1  0.86776800  0.86776800  0.86638400  1
loop_
_geom_bond_atom_site_label_1
_geom_bond_atom_site_label_2
_geom_bond_distance
_geom_bond_site_symmetry_2
Cr0 O0 1.925916 1_555
Cr0 O1 1.925920 1_555
Cr0 O3 1.948830 1_555
Cr0 O4 2.076813 1_545
Cr0 O7 2.090414 1_545
Cr0 O6 2.090418 1_545
Cr1 O2 1.925916 1_555
Cr1 O1 1.925920 1_555
Cr1 O3 1.948830 1_555
Cr1 O4 2.076813 1_455
Cr1 O7 2.090414 1_455
Cr1 O5 2.090418 1_455
Cr2 O2 1.925920 1_555
Cr2 O0 1.925920 1_555
Cr2 O3 1.948835 1_555
Cr2 O4 2.076809 1_555
Cr2 O5 2.090413 1_555
Cr2 O6 2.090413 1_555
Fe0 O6 1.932610 1_545
Fe0 O5 1.932610 1_455
Fe0 O7 1.932614 1_445
Fe0 O4 1.944510 1_446
Fe1 O1 2.013627 1_555
Fe1 O0 2.013631 1_555
Fe1 O2 2.013631 1_555
Fe1 O6 2.074858 1_554
Fe1 O5 2.074858 1_554
Fe1 O7 2.074862 1_554
