# generated using pymatgen
data_Li4FeSi2O7
_symmetry_space_group_name_H-M   'P 1'
_cell_length_a   7.22932065
_cell_length_b   8.13650322
_cell_length_c   10.59780778
_cell_angle_alpha   87.01187291
_cell_angle_beta   73.09171343
_cell_angle_gamma   85.65500945
_symmetry_Int_Tables_number   1
_chemical_formula_structural   Li4FeSi2O7
_chemical_formula_sum   'Li16 Fe4 Si8 O28'
_cell_volume   594.41998707
_cell_formula_units_Z   4
loop_
 _symmetry_equiv_pos_site_id
 _symmetry_equiv_pos_as_xyz
  1  'x, y, z'
loop_
 _atom_site_type_symbol
 _atom_site_label
 _atom_site_symmetry_multiplicity
 _atom_site_fract_x
 _atom_site_fract_y
 _atom_site_fract_z
 _atom_site_occupancy
  Li  Li0  1  0.05453600  0.87557900  0.79169800  1
  Li  Li1  1  0.55445300  0.87562600  0.29166400  1
  Li  Li2  1  0.21482200  0.37556700  0.63138900  1
  Li  Li3  1  0.71476500  0.37558100  0.13140200  1
  Li  Li4  1  0.85064100  0.59324600  0.73493200  1
  Li  Li5  1  0.35069100  0.59322100  0.23491000  1
  Li  Li6  1  0.02779000  0.09323300  0.55783900  1
  Li  Li7  1  0.52765600  0.09327800  0.05792400  1
  Li  Li8  1  0.15741100  0.94668300  0.28870500  1
  Li  Li9  1  0.65734300  0.94670500  0.78870500  1
  Li  Li10  1  0.01169500  0.44669800  0.43431200  1
  Li  Li11  1  0.51169700  0.44668300  0.93432600  1
  Li  Li12  1  0.40179600  0.02178900  0.59247000  1
  Li  Li13  1  0.90172700  0.02171600  0.09245400  1
  Li  Li14  1  0.08956300  0.52181900  0.90464700  1
  Li  Li15  1  0.58955100  0.52179200  0.40463900  1
  Fe  Fe0  1  0.30680500  0.79816500  0.99279200  1
  Fe  Fe1  1  0.14207700  0.29789900  0.15700200  1
  Fe  Fe2  1  0.80687900  0.79764100  0.49277000  1
  Fe  Fe3  1  0.64279200  0.29743500  0.65715600  1
  Si  Si0  1  0.20990500  0.73817500  0.51762800  1
  Si  Si1  1  0.70983200  0.73811300  0.01763300  1
  Si  Si2  1  0.88155300  0.23818100  0.84624500  1
  Si  Si3  1  0.38147300  0.23806300  0.34618500  1
  Si  Si4  1  0.94578300  0.67108500  0.20232800  1
  Si  Si5  1  0.44584400  0.67111700  0.70228100  1
  Si  Si6  1  0.77614400  0.17128300  0.37169100  1
  Si  Si7  1  0.27620600  0.17132000  0.87171600  1
  O  O0  1  0.36492000  0.60548300  0.57875000  1
  O  O1  1  0.86498800  0.60538400  0.07875800  1
  O  O2  1  0.05049300  0.10512000  0.89348700  1
  O  O3  1  0.55047500  0.10511000  0.39348900  1
  O  O4  1  0.17538100  0.90324200  0.60346900  1
  O  O5  1  0.67544400  0.90321100  0.10343200  1
  O  O6  1  0.99343900  0.40313000  0.78588700  1
  O  O7  1  0.49342200  0.40298200  0.28587300  1
  O  O8  1  0.31151500  0.77127000  0.36111100  1
  O  O9  1  0.81147400  0.77134300  0.86111200  1
  O  O10  1  0.19699300  0.27152600  0.47488900  1
  O  O11  1  0.69700100  0.27149900  0.97486800  1
  O  O12  1  0.00772400  0.64077600  0.54496100  1
  O  O13  1  0.50782800  0.64041600  0.04489100  1
  O  O14  1  0.82191600  0.14069200  0.73144700  1
  O  O15  1  0.32190200  0.14047200  0.23145100  1
  O  O16  1  0.09005000  0.52177700  0.23700700  1
  O  O17  1  0.58999100  0.52168400  0.73691200  1
  O  O18  1  0.90003000  0.02190800  0.42655300  1
  O  O19  1  0.40008000  0.02194000  0.92652300  1
  O  O20  1  0.06932100  0.83602800  0.15006200  1
  O  O21  1  0.56926700  0.83610800  0.65008900  1
  O  O22  1  0.75969500  0.33606100  0.45955800  1
  O  O23  1  0.25977400  0.33610500  0.95957200  1
  O  O24  1  0.75824500  0.70692700  0.33122000  1
  O  O25  1  0.25831300  0.70699900  0.83125100  1
  O  O26  1  0.87595000  0.20690400  0.21343800  1
  O  O27  1  0.37588500  0.20693700  0.71348400  1
loop_
_geom_bond_atom_site_label_1
_geom_bond_atom_site_label_2
_geom_bond_distance
_geom_bond_site_symmetry_2
Li0 O9 1.938294 1_455
Li0 O4 1.939702 1_555
Li0 O25 2.054370 1_555
Li0 O2 2.199121 1_565
Li1 O8 1.938058 1_555
Li1 O5 1.939839 1_555
Li1 O24 2.055045 1_555
Li1 O3 2.199009 1_565
Li2 O6 1.937067 1_455
Li2 O10 1.941983 1_555
Li2 O27 2.053777 1_555
Li2 O0 2.198839 1_555
Li3 O7 1.936599 1_555
Li3 O11 1.942305 1_554
Li3 O26 2.054226 1_555
Li3 O1 2.198476 1_555
Li4 O6 1.935296 1_555
Li4 O9 1.971757 1_555
Li4 O17 2.008013 1_555
Li4 O12 2.036644 1_655
Li5 O7 1.935807 1_555
Li5 O8 1.971603 1_555
Li5 O16 2.007261 1_555
Li5 O13 2.036680 1_555
Li6 O4 1.932423 1_545
Li6 O10 1.970780 1_555
Li6 O18 2.009627 1_455
Li6 O14 2.035557 1_455
Li7 O5 1.933211 1_545
Li7 O11 1.971152 1_554
Li7 O19 2.009782 1_554
Li7 O15 2.034171 1_555
Li8 O8 2.002287 1_555
Li8 O15 2.008260 1_565
Li8 O20 2.035714 1_555
Li8 O18 2.076170 1_465
Li9 O9 2.002142 1_555
Li9 O14 2.009909 1_565
Li9 O21 2.035181 1_555
Li9 O19 2.075475 1_565
Li10 O10 1.998178 1_555
Li10 O12 2.009009 1_555
Li10 O22 2.034874 1_455
Li10 O16 2.072827 1_555
Li11 O11 1.998133 1_555
Li11 O13 2.006327 1_556
Li11 O23 2.034137 1_555
Li11 O17 2.073715 1_555
Li12 O4 1.933826 1_545
Li12 O27 1.992033 1_555
Li12 O21 2.043984 1_545
Li12 O3 2.169034 1_555
Li13 O5 1.932855 1_545
Li13 O26 1.992225 1_555
Li13 O20 2.044526 1_645
Li13 O2 2.169265 1_654
Li14 O6 1.933059 1_455
Li14 O25 1.991949 1_555
Li14 O23 2.044378 1_555
Li14 O1 2.173445 1_456
Li15 O7 1.933682 1_555
Li15 O24 1.991480 1_555
Li15 O22 2.044141 1_555
Li15 O0 2.173946 1_555
Fe0 O19 2.010049 1_565
Fe0 O25 2.030985 1_555
Fe0 O20 2.032076 1_556
Fe0 O13 2.043152 1_556
Fe1 O16 2.012521 1_555
Fe1 O26 2.026740 1_455
Fe1 O23 2.033505 1_554
Fe1 O15 2.047490 1_555
Fe2 O18 2.013322 1_565
Fe2 O24 2.029979 1_555
Fe2 O21 2.033575 1_555
Fe2 O12 2.038609 1_655
Fe3 O17 2.014173 1_555
Fe3 O27 2.030069 1_555
Fe3 O22 2.034815 1_555
Fe3 O14 2.039944 1_555
O0 Si5 1.705014 1_555
O0 Si0 1.734100 1_555
O1 Si4 1.705036 1_555
O1 Si1 1.735006 1_555
O2 Si7 1.705052 1_555
O2 Si2 1.735867 1_455
O3 Si6 1.704623 1_555
O3 Si3 1.736014 1_555
O4 Si0 1.624268 1_555
O5 Si1 1.624303 1_555
O6 Si2 1.624408 1_555
O7 Si3 1.624305 1_555
O8 Si0 1.624242 1_555
O9 Si1 1.624480 1_556
O10 Si3 1.624439 1_555
O11 Si2 1.624034 1_555
O12 Si0 1.659401 1_555
O13 Si1 1.659677 1_555
O14 Si2 1.659139 1_555
O15 Si3 1.658776 1_555
O16 Si4 1.638017 1_455
O17 Si5 1.637962 1_555
O18 Si6 1.637567 1_555
O19 Si7 1.637266 1_555
O20 Si4 1.649822 1_455
O21 Si5 1.649623 1_555
O22 Si6 1.649359 1_555
O23 Si7 1.649357 1_555
O24 Si4 1.641166 1_555
O25 Si5 1.641686 1_555
O26 Si6 1.641494 1_555
O27 Si7 1.641149 1_555
