# generated using pymatgen
data_AsHPb4(ClO)4
_symmetry_space_group_name_H-M   'P 1'
_cell_length_a   8.04365100
_cell_length_b   10.98412100
_cell_length_c   14.06576357
_cell_angle_alpha   77.35095672
_cell_angle_beta   90.00000000
_cell_angle_gamma   90.00000000
_symmetry_Int_Tables_number   1
_chemical_formula_structural   AsHPb4(ClO)4
_chemical_formula_sum   'As4 H4 Pb16 Cl16 O16'
_cell_volume   1212.58266880
_cell_formula_units_Z   4
loop_
 _symmetry_equiv_pos_site_id
 _symmetry_equiv_pos_as_xyz
  1  'x, y, z'
loop_
 _atom_site_type_symbol
 _atom_site_label
 _atom_site_symmetry_multiplicity
 _atom_site_fract_x
 _atom_site_fract_y
 _atom_site_fract_z
 _atom_site_occupancy
  As  As0  1  0.55060000  0.15184900  0.79887800  1
  As  As1  1  0.05060000  0.34815100  0.20112200  1
  As  As2  1  0.44940000  0.84815100  0.20112200  1
  As  As3  1  0.94940000  0.65184900  0.79887800  1
  H  H0  1  0.75481900  0.19316600  0.20090000  1
  H  H1  1  0.25481900  0.30683400  0.79910000  1
  H  H2  1  0.24518100  0.80683400  0.79910000  1
  H  H3  1  0.74518100  0.69316600  0.20090000  1
  Pb  Pb0  1  0.72194000  0.63040000  0.58589900  1
  Pb  Pb1  1  0.22194000  0.86960000  0.41410100  1
  Pb  Pb2  1  0.27806000  0.36960000  0.41410100  1
  Pb  Pb3  1  0.77806000  0.13040000  0.58589900  1
  Pb  Pb4  1  0.59093400  0.84717600  0.81449500  1
  Pb  Pb5  1  0.09093400  0.65282400  0.18550500  1
  Pb  Pb6  1  0.40906600  0.15282400  0.18550500  1
  Pb  Pb7  1  0.90906600  0.34717600  0.81449500  1
  Pb  Pb8  1  0.74022100  0.01435400  0.05540700  1
  Pb  Pb9  1  0.24022100  0.48564600  0.94459300  1
  Pb  Pb10  1  0.25977900  0.98564600  0.94459300  1
  Pb  Pb11  1  0.75977900  0.51435400  0.05540700  1
  Pb  Pb12  1  0.74478300  0.94634400  0.33207300  1
  Pb  Pb13  1  0.24478300  0.55365600  0.66792700  1
  Pb  Pb14  1  0.25521700  0.05365600  0.66792700  1
  Pb  Pb15  1  0.75521700  0.44634400  0.33207300  1
  Cl  Cl0  1  0.05462800  0.93894200  0.21768500  1
  Cl  Cl1  1  0.55462800  0.56105800  0.78231500  1
  Cl  Cl2  1  0.94537200  0.06105800  0.78231500  1
  Cl  Cl3  1  0.44537200  0.43894200  0.21768500  1
  Cl  Cl4  1  0.44089100  0.72051100  0.00173000  1
  Cl  Cl5  1  0.94089100  0.77948900  0.99827000  1
  Cl  Cl6  1  0.55910900  0.27948900  0.99827000  1
  Cl  Cl7  1  0.05910900  0.22051100  0.00173000  1
  Cl  Cl8  1  0.93561500  0.65714400  0.41961300  1
  Cl  Cl9  1  0.43561500  0.84285600  0.58038700  1
  Cl  Cl10  1  0.06438500  0.34285600  0.58038700  1
  Cl  Cl11  1  0.56438500  0.15714400  0.41961300  1
  Cl  Cl12  1  0.60305100  0.37423600  0.59083700  1
  Cl  Cl13  1  0.10305100  0.12576400  0.40916300  1
  Cl  Cl14  1  0.39694900  0.62576400  0.40916300  1
  Cl  Cl15  1  0.89694900  0.87423600  0.59083700  1
  O  O0  1  0.55930400  0.06398000  0.70001200  1
  O  O1  1  0.05930400  0.43602000  0.29998800  1
  O  O2  1  0.44069600  0.93602000  0.29998800  1
  O  O3  1  0.94069600  0.56398000  0.70001200  1
  O  O4  1  0.55665300  0.01169800  0.89786800  1
  O  O5  1  0.05665300  0.48830200  0.10213200  1
  O  O6  1  0.44334700  0.98830200  0.10213200  1
  O  O7  1  0.94334700  0.51169800  0.89786800  1
  O  O8  1  0.32676900  0.16077000  0.79698600  1
  O  O9  1  0.82676900  0.33923000  0.20301400  1
  O  O10  1  0.67323100  0.83923000  0.20301400  1
  O  O11  1  0.17323100  0.66077000  0.79698600  1
  O  O12  1  0.69816900  0.11132600  0.19910000  1
  O  O13  1  0.19816900  0.38867400  0.80090000  1
  O  O14  1  0.30183100  0.88867400  0.80090000  1
  O  O15  1  0.80183100  0.61132600  0.19910000  1
loop_
_geom_bond_atom_site_label_1
_geom_bond_atom_site_label_2
_geom_bond_distance
_geom_bond_site_symmetry_2
As0 O8 1.802963 1_555
As0 O4 1.836350 1_555
As0 O0 1.859597 1_555
As1 O9 1.802963 1_455
As1 O5 1.836350 1_555
As1 O1 1.859597 1_555
As2 O10 1.802963 1_555
As2 O6 1.836350 1_555
As2 O2 1.859597 1_555
As3 O11 1.802963 1_655
As3 O7 1.836350 1_555
As3 O3 1.859597 1_555
H0 O12 1.013085 1_555
H0 O9 1.711949 1_555
H1 O13 1.013085 1_555
H1 O8 1.711949 1_555
H2 O14 1.013085 1_555
H2 O11 1.711949 1_555
H3 O15 1.013085 1_555
H3 O10 1.711949 1_555
Cl0 Pb12 2.977267 1_455
Cl0 Pb1 3.017028 1_555
Cl1 Pb13 2.977267 1_555
Cl1 Pb0 3.017028 1_555
Cl2 Pb14 2.977267 1_655
Cl2 Pb3 3.017028 1_555
Cl3 Pb15 2.977267 1_555
Cl3 Pb2 3.017028 1_555
Cl4 Pb4 2.953548 1_554
Cl5 Pb5 2.953548 1_656
Cl6 Pb6 2.953548 1_556
Cl7 Pb7 2.953548 1_454
Cl8 Pb0 2.865317 1_555
Cl9 Pb1 2.865317 1_555
Cl10 Pb2 2.865317 1_555
Cl11 Pb3 2.865317 1_555
Cl12 Pb0 2.958185 1_555
Cl12 Pb3 3.039962 1_555
Cl13 Pb1 2.958185 1_545
Cl13 Pb2 3.039962 1_555
Cl14 Pb2 2.958185 1_555
Cl14 Pb1 3.039962 1_555
Cl15 Pb3 2.958185 1_565
Cl15 Pb0 3.039962 1_555
O0 Pb3 2.385769 1_555
O0 Pb14 2.494336 1_555
O0 Pb4 2.578640 1_545
O1 Pb2 2.385769 1_555
O1 Pb15 2.494336 1_455
O1 Pb5 2.578640 1_555
O2 Pb1 2.385769 1_555
O2 Pb12 2.494336 1_555
O2 Pb6 2.578640 1_565
O3 Pb0 2.385769 1_555
O3 Pb13 2.494336 1_655
O3 Pb7 2.578640 1_555
O4 Pb4 2.375946 1_545
O4 Pb10 2.476645 1_545
O4 Pb8 2.668262 1_556
O5 Pb5 2.375946 1_555
O5 Pb11 2.476645 1_455
O5 Pb9 2.668262 1_554
O6 Pb6 2.375946 1_565
O6 Pb8 2.476645 1_565
O6 Pb10 2.668262 1_554
O7 Pb7 2.375946 1_555
O7 Pb9 2.476645 1_655
O7 Pb11 2.668262 1_556
O8 Pb14 2.438499 1_555
O8 Pb10 2.559699 1_545
O9 Pb15 2.438499 1_555
O9 Pb11 2.559699 1_555
O10 Pb12 2.438499 1_555
O10 Pb8 2.559699 1_565
O11 Pb13 2.438499 1_555
O11 Pb9 2.559699 1_555
O12 Pb12 2.332044 1_545
O12 Pb6 2.369357 1_555
O12 Pb8 2.505368 1_555
O13 Pb13 2.332044 1_555
O13 Pb7 2.369357 1_455
O13 Pb9 2.505368 1_555
O14 Pb14 2.332044 1_565
O14 Pb4 2.369357 1_555
O14 Pb10 2.505368 1_555
O15 Pb15 2.332044 1_555
O15 Pb5 2.369357 1_655
O15 Pb11 2.505368 1_555
