# generated using pymatgen
data_Li7(NiO2)10
_symmetry_space_group_name_H-M   'P 1'
_cell_length_a   4.97400897
_cell_length_b   8.59133572
_cell_length_c   8.59133572
_cell_angle_alpha   68.63414160
_cell_angle_beta   95.34939994
_cell_angle_gamma   84.65060006
_symmetry_Int_Tables_number   1
_chemical_formula_structural   Li7(NiO2)10
_chemical_formula_sum   'Li7 Ni10 O20'
_cell_volume   337.19735333
_cell_formula_units_Z   1
loop_
 _symmetry_equiv_pos_site_id
 _symmetry_equiv_pos_as_xyz
  1  'x, y, z'
loop_
 _atom_site_type_symbol
 _atom_site_label
 _atom_site_symmetry_multiplicity
 _atom_site_fract_x
 _atom_site_fract_y
 _atom_site_fract_z
 _atom_site_occupancy
  Li  Li0  1  0.25000000  0.04989700  0.54989700  1
  Li  Li1  1  0.25000000  0.24372800  0.74372800  1
  Li  Li2  1  0.25000000  0.45627200  0.95627200  1
  Li  Li3  1  0.25000000  0.65010300  0.15010300  1
  Li  Li4  1  0.75000000  0.35000000  0.85000000  1
  Li  Li5  1  0.75000000  0.75067100  0.25067100  1
  Li  Li6  1  0.75000000  0.94932900  0.44932900  1
  Ni  Ni0  1  0.00224800  0.20213300  0.19708000  1
  Ni  Ni1  1  0.99444800  0.40050400  0.40105900  1
  Ni  Ni2  1  0.99751400  0.60118000  0.59881900  1
  Ni  Ni3  1  0.99444800  0.79894100  0.79949600  1
  Ni  Ni4  1  0.00224800  0.00292000  0.99786700  1
  Ni  Ni5  1  0.50555200  0.29949600  0.29894100  1
  Ni  Ni6  1  0.49775200  0.49786700  0.50292000  1
  Ni  Ni7  1  0.49775200  0.69708000  0.70213300  1
  Ni  Ni8  1  0.50555200  0.90105900  0.90050400  1
  Ni  Ni9  1  0.50248600  0.09882000  0.10118100  1
  O  O0  1  0.15448700  0.00949100  0.79547800  1
  O  O1  1  0.13967300  0.20209700  0.99790300  1
  O  O2  1  0.10457400  0.81092100  0.59214500  1
  O  O3  1  0.15448700  0.40452200  0.19050900  1
  O  O4  1  0.10457400  0.60785500  0.38907900  1
  O  O5  1  0.36032700  0.49790300  0.70209700  1
  O  O6  1  0.34551300  0.69050900  0.90452200  1
  O  O7  1  0.39542600  0.09214500  0.31092100  1
  O  O8  1  0.34551300  0.29547800  0.50949100  1
  O  O9  1  0.39542600  0.88907900  0.10785500  1
  O  O10  1  0.61322100  0.12241300  0.89520900  1
  O  O11  1  0.62624000  0.89731300  0.69472600  1
  O  O12  1  0.61322100  0.30479100  0.07758700  1
  O  O13  1  0.64937500  0.70294300  0.49705700  1
  O  O14  1  0.62624000  0.50527400  0.30268700  1
  O  O15  1  0.88677900  0.57758700  0.80479100  1
  O  O16  1  0.88677900  0.39520900  0.62241300  1
  O  O17  1  0.87376000  0.19472600  0.39731300  1
  O  O18  1  0.85062500  0.99705700  0.20294300  1
  O  O19  1  0.87376000  0.80268700  0.00527400  1
loop_
_geom_bond_atom_site_label_1
_geom_bond_atom_site_label_2
_geom_bond_distance
_geom_bond_site_symmetry_2
Li0 O8 2.117010 1_555
Li0 O0 2.117010 1_555
Li0 O7 2.157120 1_555
Li0 O2 2.157120 1_545
Li0 O17 2.165360 1_455
Li0 O11 2.165360 1_545
Li1 O8 2.009696 1_555
Li1 O0 2.009696 1_555
Li1 O10 2.065475 1_555
Li1 O16 2.065475 1_455
Li1 O5 2.211011 1_555
Li1 O1 2.211011 1_555
Li2 O3 2.009696 1_556
Li2 O6 2.009696 1_555
Li2 O12 2.065475 1_556
Li2 O15 2.065475 1_455
Li2 O1 2.211011 1_555
Li2 O5 2.211011 1_555
Li3 O3 2.117010 1_555
Li3 O6 2.117010 1_554
Li3 O9 2.157120 1_555
Li3 O4 2.157120 1_555
Li3 O19 2.165360 1_455
Li3 O14 2.165360 1_555
Li4 O15 2.044694 1_555
Li4 O16 2.044694 1_555
Li4 O12 2.044694 1_556
Li4 O10 2.044694 1_555
Li4 O1 2.211582 1_655
Li4 O5 2.211582 1_555
Li5 O9 2.042624 1_555
Li5 O4 2.042624 1_655
Li5 O13 2.121978 1_555
Li5 O18 2.121978 1_555
Li5 O14 2.151815 1_555
Li5 O19 2.151815 1_555
Li6 O2 2.042624 1_655
Li6 O7 2.042624 1_565
Li6 O13 2.121978 1_555
Li6 O18 2.121978 1_555
Li6 O17 2.151815 1_565
Li6 O11 2.151815 1_555
Ni0 O17 1.872068 1_455
Ni0 O1 1.901022 1_554
Ni0 O3 1.944723 1_555
Ni0 O18 1.966139 1_445
Ni0 O12 2.056149 1_455
Ni0 O7 2.073526 1_555
Ni1 O8 1.876603 1_655
Ni1 O4 1.882277 1_655
Ni1 O17 1.929414 1_555
Ni1 O14 1.930924 1_555
Ni1 O16 2.009191 1_555
Ni1 O3 2.033499 1_655
Ni2 O13 1.845481 1_555
Ni2 O16 1.848518 1_555
Ni2 O15 1.848528 1_555
Ni2 O4 1.908715 1_655
Ni2 O2 1.908726 1_655
Ni2 O5 1.913244 1_655
Ni3 O6 1.876603 1_655
Ni3 O2 1.882277 1_655
Ni3 O19 1.929414 1_556
Ni3 O11 1.930924 1_555
Ni3 O15 2.009191 1_555
Ni3 O0 2.033499 1_665
Ni4 O19 1.872068 1_446
Ni4 O1 1.901022 1_555
Ni4 O0 1.944723 1_555
Ni4 O18 1.966139 1_446
Ni4 O10 2.056149 1_455
Ni4 O9 2.073526 1_546
Ni5 O3 1.876603 1_555
Ni5 O7 1.882277 1_555
Ni5 O14 1.929414 1_555
Ni5 O17 1.930924 1_555
Ni5 O12 2.009191 1_555
Ni5 O8 2.033499 1_555
Ni6 O14 1.872068 1_555
Ni6 O5 1.901022 1_555
Ni6 O8 1.944723 1_555
Ni6 O13 1.966139 1_555
Ni6 O16 2.056149 1_555
Ni6 O4 2.073526 1_555
Ni7 O11 1.872068 1_555
Ni7 O5 1.901022 1_555
Ni7 O6 1.944723 1_555
Ni7 O13 1.966139 1_555
Ni7 O15 2.056149 1_555
Ni7 O2 2.073526 1_555
Ni8 O0 1.876603 1_565
Ni8 O9 1.882277 1_556
Ni8 O11 1.929414 1_555
Ni8 O19 1.930924 1_556
Ni8 O10 2.009191 1_565
Ni8 O6 2.033499 1_555
Ni9 O18 1.845481 1_545
Ni9 O12 1.848518 1_555
Ni9 O10 1.848528 1_554
Ni9 O7 1.908715 1_555
Ni9 O9 1.908726 1_545
Ni9 O1 1.913244 1_554
