# generated using pymatgen
data_SbOF
_symmetry_space_group_name_H-M   'P 1'
_cell_length_a   5.49156900
_cell_length_b   12.56840000
_cell_length_c   13.49907800
_cell_angle_alpha   90.00000000
_cell_angle_beta   90.00000000
_cell_angle_gamma   90.00000000
_symmetry_Int_Tables_number   1
_chemical_formula_structural   SbOF
_chemical_formula_sum   'Sb16 O16 F16'
_cell_volume   931.70954691
_cell_formula_units_Z   16
loop_
 _symmetry_equiv_pos_site_id
 _symmetry_equiv_pos_as_xyz
  1  'x, y, z'
loop_
 _atom_site_type_symbol
 _atom_site_label
 _atom_site_symmetry_multiplicity
 _atom_site_fract_x
 _atom_site_fract_y
 _atom_site_fract_z
 _atom_site_occupancy
  Sb  Sb0  1  0.75865400  0.83512800  0.98324100  1
  Sb  Sb1  1  0.74134600  0.83512800  0.48324100  1
  Sb  Sb2  1  0.28983000  0.90404400  0.73083700  1
  Sb  Sb3  1  0.21017000  0.90404400  0.23083700  1
  Sb  Sb4  1  0.71017000  0.59595600  0.23083700  1
  Sb  Sb5  1  0.78983000  0.59595600  0.73083700  1
  Sb  Sb6  1  0.24134600  0.66487200  0.48324100  1
  Sb  Sb7  1  0.25865400  0.66487200  0.98324100  1
  Sb  Sb8  1  0.75865400  0.33512800  0.51675900  1
  Sb  Sb9  1  0.74134600  0.33512800  0.01675900  1
  Sb  Sb10  1  0.21017000  0.40404400  0.26916300  1
  Sb  Sb11  1  0.28983000  0.40404400  0.76916300  1
  Sb  Sb12  1  0.78983000  0.09595600  0.76916300  1
  Sb  Sb13  1  0.71017000  0.09595600  0.26916300  1
  Sb  Sb14  1  0.24134600  0.16487200  0.01675900  1
  Sb  Sb15  1  0.25865400  0.16487200  0.51675900  1
  O  O0  1  0.51765500  0.98045400  0.20352100  1
  O  O1  1  0.98234500  0.98045400  0.70352100  1
  O  O2  1  0.43780900  0.78395600  0.42104600  1
  O  O3  1  0.06219100  0.78395600  0.92104600  1
  O  O4  1  0.56219100  0.71604400  0.92104600  1
  O  O5  1  0.93780900  0.71604400  0.42104600  1
  O  O6  1  0.01765500  0.51954600  0.20352100  1
  O  O7  1  0.48234500  0.51954600  0.70352100  1
  O  O8  1  0.51765500  0.48045400  0.29647900  1
  O  O9  1  0.98234500  0.48045400  0.79647900  1
  O  O10  1  0.06219100  0.28395600  0.57895400  1
  O  O11  1  0.43780900  0.28395600  0.07895400  1
  O  O12  1  0.56219100  0.21604400  0.57895400  1
  O  O13  1  0.93780900  0.21604400  0.07895400  1
  O  O14  1  0.01765500  0.01954600  0.29647900  1
  O  O15  1  0.48234500  0.01954600  0.79647900  1
  F  F0  1  0.07521500  0.95346100  0.10042600  1
  F  F1  1  0.42478500  0.95346100  0.60042600  1
  F  F2  1  0.84287200  0.74850400  0.10396700  1
  F  F3  1  0.65712800  0.74850400  0.60396700  1
  F  F4  1  0.34287200  0.75149600  0.10396700  1
  F  F5  1  0.15712800  0.75149600  0.60396700  1
  F  F6  1  0.92478500  0.54653900  0.60042600  1
  F  F7  1  0.57521500  0.54653900  0.10042600  1
  F  F8  1  0.42478500  0.45346100  0.89957400  1
  F  F9  1  0.07521500  0.45346100  0.39957400  1
  F  F10  1  0.65712800  0.24850400  0.89603300  1
  F  F11  1  0.84287200  0.24850400  0.39603300  1
  F  F12  1  0.15712800  0.25149600  0.89603300  1
  F  F13  1  0.34287200  0.25149600  0.39603300  1
  F  F14  1  0.92478500  0.04653900  0.89957400  1
  F  F15  1  0.57521500  0.04653900  0.39957400  1
loop_
_geom_bond_atom_site_label_1
_geom_bond_atom_site_label_2
_geom_bond_distance
_geom_bond_site_symmetry_2
O0 Sb3 1.977253 1_555
O0 Sb13 2.002558 1_565
O1 Sb2 1.977253 1_655
O1 Sb12 2.002558 1_565
O2 Sb1 1.974099 1_555
O2 Sb6 2.027064 1_555
O3 Sb0 1.974099 1_455
O3 Sb7 2.027064 1_555
O4 Sb7 1.974099 1_555
O4 Sb0 2.027064 1_555
O5 Sb6 1.974099 1_655
O5 Sb1 2.027064 1_555
O6 Sb4 1.977253 1_455
O6 Sb10 2.002558 1_555
O7 Sb5 1.977253 1_555
O7 Sb11 2.002558 1_555
O8 Sb10 1.977253 1_555
O8 Sb4 2.002558 1_555
O9 Sb11 1.977253 1_655
O9 Sb5 2.002558 1_555
O10 Sb8 1.974099 1_455
O10 Sb15 2.027064 1_555
O11 Sb9 1.974099 1_555
O11 Sb14 2.027064 1_555
O12 Sb15 1.974099 1_555
O12 Sb8 2.027064 1_555
O13 Sb14 1.974099 1_655
O13 Sb9 2.027064 1_555
O14 Sb13 1.977253 1_455
O14 Sb3 2.002558 1_545
O15 Sb12 1.977253 1_555
O15 Sb2 2.002558 1_545
F0 Sb3 2.008511 1_555
F1 Sb2 2.008511 1_555
F2 Sb0 2.013730 1_554
F3 Sb1 2.013730 1_555
F4 Sb7 2.013730 1_554
F5 Sb6 2.013730 1_555
F6 Sb5 2.008511 1_555
F7 Sb4 2.008511 1_555
F8 Sb11 2.008511 1_555
F9 Sb10 2.008511 1_555
F10 Sb9 2.013730 1_556
F11 Sb8 2.013730 1_555
F12 Sb14 2.013730 1_556
F13 Sb15 2.013730 1_555
F14 Sb12 2.008511 1_555
F15 Sb13 2.008511 1_555
