# generated using pymatgen
data_Li2FePCO7
_symmetry_space_group_name_H-M   'P 1'
_cell_length_a   6.50220400
_cell_length_b   5.08791000
_cell_length_c   16.65941593
_cell_angle_alpha   84.92581714
_cell_angle_beta   90.00000000
_cell_angle_gamma   90.00000000
_symmetry_Int_Tables_number   1
_chemical_formula_structural   Li2FePCO7
_chemical_formula_sum   'Li8 Fe4 P4 C4 O28'
_cell_volume   548.97737611
_cell_formula_units_Z   4
loop_
 _symmetry_equiv_pos_site_id
 _symmetry_equiv_pos_as_xyz
  1  'x, y, z'
loop_
 _atom_site_type_symbol
 _atom_site_label
 _atom_site_symmetry_multiplicity
 _atom_site_fract_x
 _atom_site_fract_y
 _atom_site_fract_z
 _atom_site_occupancy
  Li  Li0  1  0.26970000  0.76107300  0.04785600  1
  Li  Li1  1  0.03238000  0.24705600  0.13935100  1
  Li  Li2  1  0.53238000  0.75294400  0.36064900  1
  Li  Li3  1  0.76970000  0.23892700  0.45214400  1
  Li  Li4  1  0.23030000  0.76107300  0.54785600  1
  Li  Li5  1  0.46762000  0.24705600  0.63935100  1
  Li  Li6  1  0.96762000  0.75294400  0.86064900  1
  Li  Li7  1  0.73030000  0.23892700  0.95214400  1
  Fe  Fe0  1  0.73467900  0.79983000  0.16499800  1
  Fe  Fe1  1  0.23467900  0.20017000  0.33500200  1
  Fe  Fe2  1  0.76532100  0.79983000  0.66499800  1
  Fe  Fe3  1  0.26532100  0.20017000  0.83500200  1
  P  P0  1  0.24425400  0.72370800  0.20954600  1
  P  P1  1  0.74425400  0.27629200  0.29045400  1
  P  P2  1  0.25574600  0.72370800  0.70954600  1
  P  P3  1  0.75574600  0.27629200  0.79045400  1
  C  C0  1  0.77305100  0.70131300  0.02051600  1
  C  C1  1  0.27305100  0.29868700  0.47948400  1
  C  C2  1  0.72694900  0.70131300  0.52051600  1
  C  C3  1  0.22694900  0.29868700  0.97948400  1
  O  O0  1  0.75422600  0.94758400  0.03786800  1
  O  O1  1  0.21239800  0.36886500  0.05025200  1
  O  O2  1  0.77170500  0.52674300  0.08360000  1
  O  O3  1  0.05835400  0.83119000  0.15829000  1
  O  O4  1  0.43069300  0.78126700  0.15204800  1
  O  O5  1  0.77035500  0.14420700  0.21127700  1
  O  O6  1  0.21793500  0.42042300  0.23028200  1
  O  O7  1  0.71793500  0.57957700  0.26971800  1
  O  O8  1  0.27035500  0.85579300  0.28872300  1
  O  O9  1  0.55835400  0.16881000  0.34171000  1
  O  O10  1  0.93069300  0.21873300  0.34795200  1
  O  O11  1  0.27170500  0.47325700  0.41640000  1
  O  O12  1  0.71239800  0.63113500  0.44974800  1
  O  O13  1  0.25422600  0.05241600  0.46213200  1
  O  O14  1  0.74577400  0.94758400  0.53786800  1
  O  O15  1  0.28760200  0.36886500  0.55025200  1
  O  O16  1  0.72829500  0.52674300  0.58360000  1
  O  O17  1  0.06930700  0.78126700  0.65204800  1
  O  O18  1  0.44164600  0.83119000  0.65829000  1
  O  O19  1  0.72964500  0.14420700  0.71127700  1
  O  O20  1  0.28206500  0.42042300  0.73028200  1
  O  O21  1  0.78206500  0.57957700  0.76971800  1
  O  O22  1  0.22964500  0.85579300  0.78872300  1
  O  O23  1  0.56930700  0.21873300  0.84795200  1
  O  O24  1  0.94164600  0.16881000  0.84171000  1
  O  O25  1  0.22829500  0.47325700  0.91640000  1
  O  O26  1  0.78760200  0.63113500  0.94974800  1
  O  O27  1  0.24577400  0.05241600  0.96213200  1
loop_
_geom_bond_atom_site_label_1
_geom_bond_atom_site_label_2
_geom_bond_distance
_geom_bond_site_symmetry_2
Li0 O27 1.971429 1_564
Li0 O1 2.026924 1_555
Li0 O4 2.037361 1_555
Li0 O3 2.348739 1_555
Li1 O1 1.948006 1_555
Li1 O3 2.118246 1_545
Li1 O5 2.121659 1_455
Li1 O6 2.182864 1_555
Li1 O2 2.350899 1_455
Li2 O12 1.948006 1_555
Li2 O9 2.118246 1_565
Li2 O8 2.121659 1_555
Li2 O7 2.182864 1_555
Li2 O11 2.350899 1_555
Li3 O14 1.971429 1_545
Li3 O12 2.026924 1_555
Li3 O10 2.037361 1_555
Li3 O9 2.348739 1_555
Li4 O13 1.971429 1_565
Li4 O15 2.026924 1_555
Li4 O17 2.037361 1_555
Li4 O18 2.348739 1_555
Li5 O15 1.948006 1_555
Li5 O18 2.118246 1_545
Li5 O19 2.121659 1_555
Li5 O20 2.182864 1_555
Li5 O16 2.350899 1_555
Li6 O26 1.948006 1_555
Li6 O24 2.118246 1_565
Li6 O22 2.121659 1_655
Li6 O21 2.182864 1_555
Li6 O25 2.350899 1_655
Li7 O0 1.971429 1_546
Li7 O26 2.026924 1_555
Li7 O23 2.037361 1_555
Li7 O24 2.348739 1_555
Fe0 O5 1.989282 1_565
Fe0 O7 1.991324 1_555
Fe0 O4 1.991465 1_555
Fe0 O2 2.039767 1_555
Fe0 O3 2.112851 1_655
Fe0 O0 2.187511 1_555
Fe1 O8 1.989282 1_545
Fe1 O6 1.991324 1_555
Fe1 O10 1.991465 1_455
Fe1 O11 2.039767 1_555
Fe1 O9 2.112851 1_555
Fe1 O13 2.187511 1_555
Fe2 O19 1.989282 1_565
Fe2 O21 1.991324 1_555
Fe2 O17 1.991465 1_655
Fe2 O16 2.039767 1_555
Fe2 O18 2.112851 1_555
Fe2 O14 2.187511 1_555
Fe3 O22 1.989282 1_545
Fe3 O20 1.991324 1_555
Fe3 O23 1.991465 1_555
Fe3 O25 2.039767 1_555
Fe3 O24 2.112851 1_455
Fe3 O27 2.187511 1_555
C0 O26 1.265242 1_554
C0 O2 1.314660 1_555
C0 O0 1.316298 1_555
C1 O15 1.265242 1_555
C1 O11 1.314660 1_555
C1 O13 1.316298 1_555
C2 O12 1.265242 1_555
C2 O16 1.314660 1_555
C2 O14 1.316298 1_555
C3 O1 1.265242 1_556
C3 O25 1.314660 1_555
C3 O27 1.316298 1_555
O3 P0 1.551351 1_555
O4 P0 1.556685 1_555
O5 P1 1.541789 1_555
O6 P0 1.560591 1_555
O7 P1 1.560591 1_555
O8 P0 1.541789 1_555
O9 P1 1.551351 1_555
O10 P1 1.556685 1_555
O17 P2 1.556685 1_555
O18 P2 1.551351 1_555
O19 P3 1.541789 1_555
O20 P2 1.560591 1_555
O21 P3 1.560591 1_555
O22 P2 1.541789 1_555
O23 P3 1.556685 1_555
O24 P3 1.551351 1_555
