# generated using pymatgen
data_LiNiPO4
_symmetry_space_group_name_H-M   'P 1'
_cell_length_a   5.75278500
_cell_length_b   7.46736300
_cell_length_c   13.95621600
_cell_angle_alpha   90.00000000
_cell_angle_beta   90.00000000
_cell_angle_gamma   90.00000000
_symmetry_Int_Tables_number   1
_chemical_formula_structural   LiNiPO4
_chemical_formula_sum   'Li8 Ni8 P8 O32'
_cell_volume   599.53299505
_cell_formula_units_Z   8
loop_
 _symmetry_equiv_pos_site_id
 _symmetry_equiv_pos_as_xyz
  1  'x, y, z'
loop_
 _atom_site_type_symbol
 _atom_site_label
 _atom_site_symmetry_multiplicity
 _atom_site_fract_x
 _atom_site_fract_y
 _atom_site_fract_z
 _atom_site_occupancy
  Li  Li0  1  0.15287000  0.19309100  0.72075800  1
  Li  Li1  1  0.65287000  0.19309100  0.77924200  1
  Li  Li2  1  0.65287000  0.30690900  0.27924200  1
  Li  Li3  1  0.15287000  0.30690900  0.22075800  1
  Li  Li4  1  0.34713000  0.69309100  0.72075800  1
  Li  Li5  1  0.84713000  0.69309100  0.77924200  1
  Li  Li6  1  0.34713000  0.80690900  0.22075800  1
  Li  Li7  1  0.84713000  0.80690900  0.27924200  1
  Ni  Ni0  1  0.40088600  0.17923800  0.03353400  1
  Ni  Ni1  1  0.90088600  0.17923800  0.46646600  1
  Ni  Ni2  1  0.40088600  0.32076200  0.53353400  1
  Ni  Ni3  1  0.90088600  0.32076200  0.96646600  1
  Ni  Ni4  1  0.09911400  0.67923800  0.03353400  1
  Ni  Ni5  1  0.59911400  0.67923800  0.46646600  1
  Ni  Ni6  1  0.09911400  0.82076200  0.53353400  1
  Ni  Ni7  1  0.59911400  0.82076200  0.96646600  1
  P  P0  1  0.90148400  0.04471500  0.12639700  1
  P  P1  1  0.40148400  0.04471500  0.37360300  1
  P  P2  1  0.90148400  0.45528500  0.62639700  1
  P  P3  1  0.40148400  0.45528500  0.87360300  1
  P  P4  1  0.59851600  0.54471500  0.12639700  1
  P  P5  1  0.09851600  0.54471500  0.37360300  1
  P  P6  1  0.59851600  0.95528500  0.62639700  1
  P  P7  1  0.09851600  0.95528500  0.87360300  1
  O  O0  1  0.81852300  0.97686800  0.56131700  1
  O  O1  1  0.31852300  0.97686800  0.93868300  1
  O  O2  1  0.34373600  0.10907200  0.27348000  1
  O  O3  1  0.84373600  0.10907200  0.22652000  1
  O  O4  1  0.46764200  0.13482300  0.63325500  1
  O  O5  1  0.96764200  0.13482300  0.86674500  1
  O  O6  1  0.06057400  0.19074200  0.07738500  1
  O  O7  1  0.56057400  0.19074200  0.42261500  1
  O  O8  1  0.06057400  0.30925800  0.57738500  1
  O  O9  1  0.56057400  0.30925800  0.92261500  1
  O  O10  1  0.46764200  0.36517700  0.13325500  1
  O  O11  1  0.96764200  0.36517700  0.36674500  1
  O  O12  1  0.84373600  0.39092800  0.72652000  1
  O  O13  1  0.34373600  0.39092800  0.77348000  1
  O  O14  1  0.81852300  0.52313200  0.06131700  1
  O  O15  1  0.31852300  0.52313200  0.43868300  1
  O  O16  1  0.18147700  0.47686800  0.93868300  1
  O  O17  1  0.68147700  0.47686800  0.56131700  1
  O  O18  1  0.65626400  0.60907200  0.22652000  1
  O  O19  1  0.15626400  0.60907200  0.27348000  1
  O  O20  1  0.03235800  0.63482300  0.63325500  1
  O  O21  1  0.53235800  0.63482300  0.86674500  1
  O  O22  1  0.43942600  0.69074200  0.07738500  1
  O  O23  1  0.93942600  0.69074200  0.42261500  1
  O  O24  1  0.43942600  0.80925800  0.57738500  1
  O  O25  1  0.93942600  0.80925800  0.92261500  1
  O  O26  1  0.03235800  0.86517700  0.13325500  1
  O  O27  1  0.53235800  0.86517700  0.36674500  1
  O  O28  1  0.65626400  0.89092800  0.72652000  1
  O  O29  1  0.15626400  0.89092800  0.77348000  1
  O  O30  1  0.68147700  0.02313200  0.06131700  1
  O  O31  1  0.18147700  0.02313200  0.43868300  1
loop_
_geom_bond_atom_site_label_1
_geom_bond_atom_site_label_2
_geom_bond_distance
_geom_bond_site_symmetry_2
Li0 O13 1.982298 1_555
Li0 O4 2.227045 1_555
Li0 O8 2.244590 1_555
Li0 O12 2.313349 1_455
Li0 O5 2.340059 1_455
Li0 O29 2.373383 1_545
Li1 O12 1.982298 1_555
Li1 O5 2.227045 1_555
Li1 O9 2.244590 1_555
Li1 O13 2.313349 1_555
Li1 O4 2.340059 1_555
Li1 O28 2.373383 1_545
Li2 O3 1.982298 1_555
Li2 O11 2.227045 1_555
Li2 O7 2.244590 1_555
Li2 O2 2.313349 1_555
Li2 O10 2.340059 1_555
Li2 O18 2.373383 1_555
Li3 O2 1.982298 1_555
Li3 O10 2.227045 1_555
Li3 O6 2.244590 1_555
Li3 O3 2.313349 1_455
Li3 O11 2.340059 1_455
Li3 O19 2.373383 1_555
Li4 O29 1.982298 1_555
Li4 O20 2.227045 1_555
Li4 O24 2.244590 1_555
Li4 O28 2.313349 1_555
Li4 O21 2.340059 1_555
Li4 O13 2.373383 1_555
Li5 O28 1.982298 1_555
Li5 O21 2.227045 1_555
Li5 O25 2.244590 1_555
Li5 O29 2.313349 1_655
Li5 O20 2.340059 1_655
Li5 O12 2.373383 1_555
Li6 O19 1.982298 1_555
Li6 O26 2.227045 1_555
Li6 O22 2.244590 1_555
Li6 O18 2.313349 1_555
Li6 O27 2.340059 1_555
Li6 O2 2.373383 1_565
Li7 O18 1.982298 1_555
Li7 O27 2.227045 1_555
Li7 O23 2.244590 1_555
Li7 O19 2.313349 1_655
Li7 O26 2.340059 1_655
Li7 O3 2.373383 1_565
Ni0 O10 2.003060 1_555
Ni0 O30 2.028492 1_555
Ni0 O9 2.045217 1_554
Ni0 O6 2.052966 1_555
Ni0 O1 2.064093 1_544
Ni1 O11 2.003060 1_555
Ni1 O31 2.028492 1_655
Ni1 O8 2.045217 1_655
Ni1 O7 2.052966 1_555
Ni1 O0 2.064093 1_545
Ni2 O4 2.003060 1_555
Ni2 O17 2.028492 1_555
Ni2 O7 2.045217 1_555
Ni2 O8 2.052966 1_555
Ni2 O15 2.064093 1_555
Ni3 O5 2.003060 1_555
Ni3 O16 2.028492 1_655
Ni3 O6 2.045217 1_656
Ni3 O9 2.052966 1_555
Ni3 O14 2.064093 1_556
Ni4 O26 2.003060 1_555
Ni4 O14 2.028492 1_455
Ni4 O25 2.045217 1_454
Ni4 O22 2.052966 1_555
Ni4 O16 2.064093 1_554
Ni5 O27 2.003060 1_555
Ni5 O15 2.028492 1_555
Ni5 O24 2.045217 1_555
Ni5 O23 2.052966 1_555
Ni5 O17 2.064093 1_555
Ni6 O20 2.003060 1_555
Ni6 O0 2.028492 1_455
Ni6 O23 2.045217 1_455
Ni6 O24 2.052966 1_555
Ni6 O31 2.064093 1_565
Ni7 O21 2.003060 1_555
Ni7 O1 2.028492 1_555
Ni7 O22 2.045217 1_556
Ni7 O25 2.052966 1_555
Ni7 O30 2.064093 1_566
O0 P6 1.566144 1_555
O1 P7 1.566144 1_555
O2 P1 1.514554 1_555
O3 P0 1.514554 1_555
O4 P6 1.540589 1_545
O5 P7 1.540589 1_645
O6 P0 1.579414 1_455
O7 P1 1.579414 1_555
O8 P2 1.579414 1_455
O9 P3 1.579414 1_555
O10 P4 1.540589 1_555
O11 P5 1.540589 1_655
O12 P2 1.514554 1_555
O13 P3 1.514554 1_555
O14 P4 1.566144 1_555
O15 P5 1.566144 1_555
O16 P3 1.566144 1_555
O17 P2 1.566144 1_555
O18 P4 1.514554 1_555
O19 P5 1.514554 1_555
O20 P2 1.540589 1_455
O21 P3 1.540589 1_555
O22 P4 1.579414 1_555
O23 P5 1.579414 1_655
O24 P6 1.579414 1_555
O25 P7 1.579414 1_655
O26 P0 1.540589 1_465
O27 P1 1.540589 1_565
O28 P6 1.514554 1_555
O29 P7 1.514554 1_555
O30 P0 1.566144 1_555
O31 P1 1.566144 1_555
