# generated using pymatgen
data_Li32Ti13Cr3O48
_symmetry_space_group_name_H-M   'P 1'
_cell_length_a   5.09105700
_cell_length_b   8.81240898
_cell_length_c   19.60622435
_cell_angle_alpha   98.30384554
_cell_angle_beta   94.92536147
_cell_angle_gamma   89.79577417
_symmetry_Int_Tables_number   1
_chemical_formula_structural   Li32Ti13Cr3O48
_chemical_formula_sum   'Li32 Ti13 Cr3 O48'
_cell_volume   867.15223002
_cell_formula_units_Z   1
loop_
 _symmetry_equiv_pos_site_id
 _symmetry_equiv_pos_as_xyz
  1  'x, y, z'
loop_
 _atom_site_type_symbol
 _atom_site_label
 _atom_site_symmetry_multiplicity
 _atom_site_fract_x
 _atom_site_fract_y
 _atom_site_fract_z
 _atom_site_occupancy
  Li  Li0  1  0.99301400  0.16755400  0.25035200  1
  Li  Li1  1  0.87521100  0.37511500  0.37500800  1
  Li  Li2  1  0.74960800  0.24995000  0.99997400  1
  Li  Li3  1  0.74283100  0.91883500  0.99979300  1
  Li  Li4  1  0.99229700  0.16925800  0.74944300  1
  Li  Li5  1  0.75617300  0.58016400  0.49941900  1
  Li  Li6  1  0.87500100  0.37514500  0.87491100  1
  Li  Li7  1  0.75310000  0.24825400  0.49971800  1
  Li  Li8  1  0.74141400  0.92112000  0.49934500  1
  Li  Li9  1  0.62498000  0.12500700  0.12504100  1
  Li  Li10  1  0.75629000  0.58059500  0.99946800  1
  Li  Li11  1  0.50770900  0.33237500  0.24992000  1
  Li  Li12  1  0.62572600  0.12575800  0.62474000  1
  Li  Li13  1  0.50126000  0.99902900  0.25009700  1
  Li  Li14  1  0.48956200  0.66770400  0.24951200  1
  Li  Li15  1  0.50456000  0.33038000  0.74953500  1
  Li  Li16  1  0.37512900  0.87645000  0.37500300  1
  Li  Li17  1  0.49952000  0.00008900  0.74993600  1
  Li  Li18  1  0.24844500  0.75076700  0.00012000  1
  Li  Li19  1  0.49199400  0.66918300  0.74973200  1
  Li  Li20  1  0.24377400  0.41948600  0.00058500  1
  Li  Li21  1  0.37497500  0.87420600  0.87505900  1
  Li  Li22  1  0.25497600  0.08002800  0.50022900  1
  Li  Li23  1  0.25196500  0.74930100  0.50016600  1
  Li  Li24  1  0.12487100  0.62510900  0.12511600  1
  Li  Li25  1  0.24282300  0.42088100  0.50109100  1
  Li  Li26  1  0.00921400  0.83337300  0.25109200  1
  Li  Li27  1  0.25862500  0.08051600  0.00015700  1
  Li  Li28  1  0.12548600  0.62325300  0.62514400  1
  Li  Li29  1  0.00022000  0.50008300  0.25023400  1
  Li  Li30  1  0.00916900  0.83104900  0.75046700  1
  Li  Li31  1  0.00231400  0.49958400  0.74970400  1
  Ti  Ti0  1  0.87282500  0.71107200  0.37483400  1
  Ti  Ti1  1  0.87707500  0.03967100  0.87529500  1
  Ti  Ti2  1  0.62675200  0.79139000  0.12512600  1
  Ti  Ti3  1  0.62413400  0.45866900  0.12507800  1
  Ti  Ti4  1  0.62401600  0.79177800  0.62504200  1
  Ti  Ti5  1  0.62516800  0.45871500  0.62622900  1
  Ti  Ti6  1  0.37560500  0.54026600  0.37512500  1
  Ti  Ti7  1  0.37504400  0.20381000  0.37494500  1
  Ti  Ti8  1  0.37584400  0.54572200  0.87496000  1
  Ti  Ti9  1  0.37411900  0.20958800  0.87473000  1
  Ti  Ti10  1  0.12399300  0.95860600  0.12530800  1
  Ti  Ti11  1  0.12648500  0.29115100  0.12528200  1
  Ti  Ti12  1  0.11926500  0.95944200  0.62341300  1
  Cr  Cr0  1  0.87663700  0.04380000  0.37534600  1
  Cr  Cr1  1  0.87316100  0.70663600  0.87464400  1
  Cr  Cr2  1  0.12996200  0.29025200  0.62463600  1
  O  O0  1  0.96253500  0.10641600  0.06833200  1
  O  O1  1  0.92899000  0.78427000  0.06858600  1
  O  O2  1  0.92763000  0.42772400  0.06725000  1
  O  O3  1  0.95975000  0.10566700  0.56821500  1
  O  O4  1  0.82146400  0.96574700  0.18170600  1
  O  O5  1  0.82263600  0.32234500  0.18287100  1
  O  O6  1  0.92904500  0.78519700  0.56818900  1
  O  O7  1  0.93005700  0.42524100  0.56805400  1
  O  O8  1  0.78720600  0.64351200  0.18177900  1
  O  O9  1  0.71312800  0.86072500  0.31940500  1
  O  O10  1  0.82149500  0.96579200  0.68178800  1
  O  O11  1  0.82665900  0.32020200  0.68163700  1
  O  O12  1  0.67874100  0.53539900  0.31831800  1
  O  O13  1  0.68339300  0.17434800  0.31797800  1
  O  O14  1  0.78694900  0.64292400  0.68169900  1
  O  O15  1  0.71346300  0.85299600  0.81917100  1
  O  O16  1  0.46148500  0.60643300  0.06818900  1
  O  O17  1  0.57157300  0.71568700  0.43167100  1
  O  O18  1  0.56932100  0.07222800  0.43325400  1
  O  O19  1  0.68358000  0.53739900  0.81879700  1
  O  O20  1  0.67723300  0.17634300  0.81683600  1
  O  O21  1  0.42718500  0.92764300  0.06723000  1
  O  O22  1  0.42853300  0.28428400  0.06843500  1
  O  O23  1  0.53617700  0.39264800  0.43202900  1
  O  O24  1  0.46417000  0.60570100  0.56802600  1
  O  O25  1  0.56973800  0.71572000  0.93177700  1
  O  O26  1  0.57290700  0.07261100  0.93281300  1
  O  O27  1  0.32321100  0.82243600  0.18294300  1
  O  O28  1  0.32171400  0.46576400  0.18176200  1
  O  O29  1  0.42719000  0.92777700  0.56709100  1
  O  O30  1  0.41883400  0.28314600  0.56878600  1
  O  O31  1  0.53601900  0.39406000  0.93180800  1
  O  O32  1  0.28845500  0.14352300  0.18190100  1
  O  O33  1  0.21393900  0.35581300  0.31850000  1
  O  O34  1  0.32401500  0.82376900  0.68282500  1
  O  O35  1  0.32524800  0.46650300  0.68179400  1
  O  O36  1  0.17699700  0.67760300  0.31726600  1
  O  O37  1  0.18164100  0.03404800  0.31816300  1
  O  O38  1  0.28648600  0.14817700  0.68091500  1
  O  O39  1  0.21359600  0.35697900  0.81817700  1
  O  O40  1  0.07202700  0.57357800  0.43298600  1
  O  O41  1  0.06405600  0.21168800  0.43074400  1
  O  O42  1  0.17959500  0.67786100  0.81689700  1
  O  O43  1  0.17808600  0.03456000  0.81797300  1
  O  O44  1  0.03643900  0.89705800  0.43076600  1
  O  O45  1  0.06709100  0.57557300  0.93192800  1
  O  O46  1  0.07077500  0.21445900  0.93174400  1
  O  O47  1  0.03722600  0.89025900  0.93089300  1
loop_
_geom_bond_atom_site_label_1
_geom_bond_atom_site_label_2
_geom_bond_distance
_geom_bond_site_symmetry_2
Li0 O37 2.073284 1_655
Li0 O32 2.090595 1_655
Li0 O13 2.140460 1_555
Li0 O5 2.163182 1_555
Li0 O4 2.203358 1_545
Li0 O33 2.217563 1_655
Li1 O41 2.111142 1_655
Li1 O12 2.117423 1_555
Li1 O33 2.121742 1_655
Li1 O23 2.128967 1_555
Li1 O13 2.141850 1_555
Li1 O40 2.144203 1_655
Li2 O26 2.048823 1_555
Li2 O2 2.055118 1_556
Li2 O0 2.191276 1_556
Li2 O46 2.193612 1_655
Li2 O31 2.193682 1_555
Li2 O22 2.195698 1_556
Li3 O1 2.087606 1_556
Li3 O47 2.093161 1_655
Li3 O26 2.149403 1_565
Li3 O21 2.161220 1_556
Li3 O25 2.208786 1_555
Li3 O0 2.214243 1_566
Li4 O43 2.084083 1_655
Li4 O38 2.086715 1_655
Li4 O11 2.134977 1_555
Li4 O20 2.159173 1_555
Li4 O10 2.203779 1_545
Li4 O39 2.220509 1_655
Li5 O17 2.075991 1_555
Li5 O24 2.079314 1_555
Li5 O40 2.150067 1_655
Li5 O7 2.185380 1_555
Li5 O23 2.204370 1_555
Li5 O6 2.227349 1_555
Li6 O19 2.113038 1_555
Li6 O46 2.120178 1_655
Li6 O39 2.123745 1_655
Li6 O31 2.127282 1_555
Li6 O45 2.140085 1_655
Li6 O20 2.149184 1_555
Li7 O18 2.048626 1_555
Li7 O7 2.058756 1_555
Li7 O41 2.162615 1_655
Li7 O3 2.173630 1_555
Li7 O23 2.196845 1_555
Li7 O30 2.257438 1_555
Li8 O44 2.090689 1_655
Li8 O6 2.099178 1_555
Li8 O18 2.124868 1_565
Li8 O29 2.160673 1_555
Li8 O3 2.196486 1_565
Li8 O17 2.214921 1_555
Li9 O22 2.109846 1_555
Li9 O4 2.110488 1_545
Li9 O32 2.116164 1_555
Li9 O0 2.118918 1_555
Li9 O5 2.137613 1_555
Li9 O21 2.137946 1_545
Li10 O25 2.076851 1_555
Li10 O16 2.091895 1_556
Li10 O45 2.145119 1_655
Li10 O2 2.156744 1_556
Li10 O31 2.201659 1_555
Li10 O1 2.221507 1_556
Li11 O28 2.071870 1_555
Li11 O33 2.085740 1_555
Li11 O5 2.152646 1_555
Li11 O13 2.200626 1_555
Li11 O12 2.207962 1_555
Li11 O32 2.216012 1_555
Li12 O3 2.101466 1_555
Li12 O30 2.113597 1_555
Li12 O10 2.117921 1_545
Li12 O11 2.119301 1_555
Li12 O38 2.120439 1_555
Li12 O29 2.142406 1_545
Li13 O27 2.047015 1_555
Li13 O13 2.054851 1_565
Li13 O9 2.170885 1_555
Li13 O37 2.185016 1_565
Li13 O4 2.190851 1_555
Li13 O32 2.194560 1_565
Li14 O12 2.080879 1_555
Li14 O8 2.089659 1_555
Li14 O27 2.143832 1_555
Li14 O36 2.152434 1_555
Li14 O28 2.189678 1_555
Li14 O9 2.267009 1_555
Li15 O35 2.068935 1_555
Li15 O39 2.075855 1_555
Li15 O20 2.160147 1_555
Li15 O38 2.180139 1_555
Li15 O11 2.192838 1_555
Li15 O19 2.255366 1_555
Li16 O37 2.095204 1_565
Li16 O9 2.108381 1_555
Li16 O44 2.113196 1_555
Li16 O17 2.120247 1_555
Li16 O18 2.123081 1_565
Li16 O36 2.147814 1_555
Li17 O34 2.039963 1_545
Li17 O20 2.041883 1_555
Li17 O43 2.191776 1_555
Li17 O10 2.195323 1_545
Li17 O15 2.225651 1_545
Li17 O38 2.226790 1_555
Li18 O21 2.049632 1_555
Li18 O45 2.055609 1_554
Li18 O47 2.175201 1_554
Li18 O1 2.188868 1_455
Li18 O16 2.192527 1_555
Li18 O25 2.195372 1_554
Li19 O14 2.083259 1_555
Li19 O19 2.086387 1_555
Li19 O42 2.144559 1_555
Li19 O34 2.150158 1_555
Li19 O35 2.194196 1_555
Li19 O15 2.204789 1_555
Li20 O22 2.075798 1_555
Li20 O31 2.082561 1_554
Li20 O2 2.153406 1_455
Li20 O16 2.197604 1_555
Li20 O45 2.197997 1_554
Li20 O46 2.228167 1_554
Li21 O25 2.102327 1_555
Li21 O47 2.109930 1_555
Li21 O15 2.113772 1_555
Li21 O43 2.123302 1_565
Li21 O42 2.128661 1_555
Li21 O26 2.144615 1_565
Li22 O3 2.083617 1_455
Li22 O41 2.089981 1_555
Li22 O29 2.142341 1_545
Li22 O18 2.150381 1_555
Li22 O44 2.193353 1_545
Li22 O30 2.197665 1_555
Li23 O40 2.045929 1_555
Li23 O29 2.050401 1_555
Li23 O24 2.183683 1_555
Li23 O17 2.189904 1_555
Li23 O6 2.198280 1_455
Li23 O44 2.235183 1_555
Li24 O1 2.106995 1_455
Li24 O28 2.111605 1_555
Li24 O16 2.117318 1_555
Li24 O8 2.118874 1_455
Li24 O2 2.137278 1_455
Li24 O27 2.139012 1_555
Li25 O30 2.071506 1_555
Li25 O23 2.091201 1_555
Li25 O7 2.145829 1_455
Li25 O40 2.158949 1_555
Li25 O24 2.187824 1_555
Li25 O41 2.278391 1_555
Li26 O4 2.086210 1_455
Li26 O9 2.091663 1_455
Li26 O36 2.147800 1_555
Li26 O27 2.162983 1_555
Li26 O37 2.183649 1_565
Li26 O8 2.239780 1_455
Li27 O46 2.082306 1_554
Li27 O0 2.089603 1_455
Li27 O21 2.142512 1_545
Li27 O26 2.154925 1_554
Li27 O22 2.209678 1_555
Li27 O47 2.240243 1_544
Li28 O35 2.101243 1_555
Li28 O14 2.121452 1_455
Li28 O24 2.128554 1_555
Li28 O6 2.131237 1_455
Li28 O7 2.131820 1_455
Li28 O34 2.159200 1_555
Li29 O36 2.048795 1_555
Li29 O5 2.054883 1_455
Li29 O8 2.192098 1_455
Li29 O12 2.192930 1_455
Li29 O33 2.196187 1_555
Li29 O28 2.197533 1_555
Li30 O10 2.090174 1_455
Li30 O15 2.095036 1_455
Li30 O42 2.139394 1_555
Li30 O34 2.161467 1_555
Li30 O43 2.199451 1_565
Li30 O14 2.225310 1_455
Li31 O42 2.055832 1_555
Li31 O11 2.067701 1_455
Li31 O39 2.183645 1_555
Li31 O14 2.191139 1_455
Li31 O35 2.195702 1_555
Li31 O19 2.196015 1_455
Cr0 O41 1.909710 1_655
Cr0 O13 1.931889 1_555
Cr0 O44 1.939415 1_645
Cr0 O9 1.959700 1_545
Cr0 O37 1.986371 1_655
Cr0 O18 2.004926 1_555
Cr1 O19 1.926604 1_555
Cr1 O45 1.935539 1_655
Cr1 O15 1.937355 1_555
Cr1 O47 1.966811 1_655
Cr1 O25 1.979332 1_555
Cr1 O42 1.999391 1_655
Cr2 O30 1.903124 1_555
Cr2 O38 1.913385 1_555
Cr2 O7 1.964745 1_455
Cr2 O11 1.977676 1_455
Cr2 O3 1.986519 1_455
Cr2 O35 1.993405 1_555
O0 Ti10 1.968552 1_645
O0 Ti11 1.979467 1_655
O1 Ti2 1.967877 1_555
O1 Ti10 1.977481 1_655
O2 Ti3 1.988902 1_555
O2 Ti11 1.989230 1_655
O3 Ti12 1.932776 1_645
O4 Ti10 1.967357 1_655
O4 Ti2 1.975802 1_555
O5 Ti3 1.984019 1_555
O5 Ti11 1.987616 1_655
O6 Ti12 1.954046 1_655
O6 Ti4 1.983770 1_555
O7 Ti5 2.000219 1_555
O8 Ti2 1.963160 1_555
O8 Ti3 1.976503 1_555
O9 Ti0 1.958545 1_555
O10 Ti12 1.972313 1_655
O10 Ti4 1.981486 1_555
O11 Ti5 1.976130 1_555
O12 Ti6 1.976090 1_555
O12 Ti0 1.981961 1_555
O13 Ti7 1.998411 1_555
O14 Ti5 1.960131 1_555
O14 Ti4 1.974245 1_555
O15 Ti1 1.985039 1_565
O16 Ti3 1.969414 1_555
O16 Ti2 1.983346 1_555
O17 Ti0 1.968654 1_555
O17 Ti6 1.985009 1_555
O18 Ti7 1.952011 1_555
O19 Ti8 1.986087 1_555
O20 Ti9 1.989252 1_555
O20 Ti1 1.997289 1_555
O21 Ti2 1.987321 1_555
O21 Ti10 1.990663 1_555
O22 Ti11 1.970967 1_555
O22 Ti3 1.978545 1_555
O23 Ti6 1.964761 1_555
O23 Ti7 2.002239 1_555
O24 Ti5 1.977524 1_555
O24 Ti4 1.981062 1_555
O25 Ti8 1.949181 1_555
O26 Ti1 1.988987 1_555
O26 Ti9 1.992133 1_555
O27 Ti10 1.982860 1_555
O27 Ti2 1.989005 1_555
O28 Ti3 1.970425 1_555
O28 Ti11 1.977786 1_555
O29 Ti4 1.980068 1_555
O29 Ti12 1.989966 1_555
O30 Ti5 2.017619 1_555
O31 Ti9 1.974873 1_555
O31 Ti8 1.989959 1_555
O32 Ti11 1.963939 1_555
O32 Ti10 1.978791 1_545
O33 Ti6 1.970663 1_555
O33 Ti7 1.989027 1_555
O34 Ti4 1.974200 1_555
O34 Ti12 2.014401 1_555
O35 Ti5 1.945841 1_555
O36 Ti0 1.989895 1_455
O36 Ti6 1.991196 1_555
O37 Ti7 1.946314 1_555
O38 Ti12 2.016365 1_545
O39 Ti9 1.958869 1_555
O39 Ti8 2.001314 1_555
O40 Ti6 1.990838 1_555
O40 Ti0 1.997058 1_455
O41 Ti7 1.995767 1_555
O42 Ti8 1.956897 1_555
O43 Ti1 1.973369 1_455
O43 Ti9 1.984412 1_555
O44 Ti0 1.978990 1_455
O45 Ti8 2.000298 1_555
O46 Ti1 1.975073 1_455
O46 Ti9 1.979515 1_555
O47 Ti1 1.959839 1_465
