# generated using pymatgen
data_Li3FeCu3O8
_symmetry_space_group_name_H-M   'P 1'
_cell_length_a   5.94608121
_cell_length_b   5.94608121
_cell_length_c   5.94608130
_cell_angle_alpha   58.94721443
_cell_angle_beta   58.94721443
_cell_angle_gamma   58.94720875
_symmetry_Int_Tables_number   1
_chemical_formula_structural   Li3FeCu3O8
_chemical_formula_sum   'Li3 Fe1 Cu3 O8'
_cell_volume   145.08334584
_cell_formula_units_Z   1
loop_
 _symmetry_equiv_pos_site_id
 _symmetry_equiv_pos_as_xyz
  1  'x, y, z'
loop_
 _atom_site_type_symbol
 _atom_site_label
 _atom_site_symmetry_multiplicity
 _atom_site_fract_x
 _atom_site_fract_y
 _atom_site_fract_z
 _atom_site_occupancy
  Li  Li0  1  0.00000000  0.00000000  0.50000000  1
  Li  Li1  1  0.50000000  0.00000000  0.00000000  1
  Li  Li2  1  0.00000000  0.50000000  0.00000000  1
  Fe  Fe0  1  0.00000000  0.00000000  0.00000000  1
  Cu  Cu0  1  0.50000000  0.50000000  0.00000000  1
  Cu  Cu1  1  0.00000000  0.50000000  0.50000000  1
  Cu  Cu2  1  0.50000000  0.00000000  0.50000000  1
  O  O0  1  0.25734800  0.25734800  0.25734800  1
  O  O1  1  0.76532100  0.76532100  0.24881700  1
  O  O2  1  0.24881700  0.76532100  0.76532100  1
  O  O3  1  0.74265200  0.74265200  0.74265200  1
  O  O4  1  0.76532100  0.24881700  0.76532100  1
  O  O5  1  0.23467900  0.23467900  0.75118300  1
  O  O6  1  0.75118300  0.23467900  0.23467900  1
  O  O7  1  0.23467900  0.75118300  0.23467900  1
loop_
_geom_bond_atom_site_label_1
_geom_bond_atom_site_label_2
_geom_bond_distance
_geom_bond_site_symmetry_2
Li0 O0 2.150599 1_555
Li0 O3 2.150599 1_445
Li0 O4 2.152191 1_455
Li0 O2 2.152191 1_545
Li0 O7 2.152191 1_545
Li0 O6 2.152191 1_455
Li1 O0 2.150599 1_555
Li1 O3 2.150599 1_544
Li1 O1 2.152191 1_545
Li1 O5 2.152191 1_554
Li1 O4 2.152191 1_554
Li1 O7 2.152191 1_545
Li2 O0 2.150599 1_555
Li2 O3 2.150599 1_454
Li2 O1 2.152191 1_455
Li2 O5 2.152191 1_554
Li2 O2 2.152191 1_554
Li2 O6 2.152191 1_455
Fe0 O7 1.957651 1_545
Fe0 O6 1.957651 1_455
Fe0 O4 1.957651 1_454
Fe0 O2 1.957651 1_544
Fe0 O5 1.957651 1_554
Fe0 O1 1.957651 1_445
Cu0 O3 2.024170 1_554
Cu0 O0 2.024170 1_555
Cu0 O6 2.028526 1_555
Cu0 O7 2.028526 1_555
Cu0 O2 2.028526 1_554
Cu0 O4 2.028526 1_554
Cu1 O3 2.024170 1_455
Cu1 O0 2.024170 1_555
Cu1 O5 2.028526 1_555
Cu1 O1 2.028526 1_455
Cu1 O7 2.028526 1_555
Cu1 O4 2.028526 1_455
Cu2 O3 2.024170 1_545
Cu2 O0 2.024170 1_555
Cu2 O5 2.028526 1_555
Cu2 O1 2.028526 1_545
Cu2 O6 2.028526 1_555
Cu2 O2 2.028526 1_545
