# generated using pymatgen
data_Co2O3F
_symmetry_space_group_name_H-M   'P 1'
_cell_length_a   4.38539041
_cell_length_b   4.38539041
_cell_length_c   11.80212500
_cell_angle_alpha   90.00000000
_cell_angle_beta   90.00000000
_cell_angle_gamma   92.81378047
_symmetry_Int_Tables_number   1
_chemical_formula_structural   Co2O3F
_chemical_formula_sum   'Co8 O12 F4'
_cell_volume   226.70067632
_cell_formula_units_Z   4
loop_
 _symmetry_equiv_pos_site_id
 _symmetry_equiv_pos_as_xyz
  1  'x, y, z'
loop_
 _atom_site_type_symbol
 _atom_site_label
 _atom_site_symmetry_multiplicity
 _atom_site_fract_x
 _atom_site_fract_y
 _atom_site_fract_z
 _atom_site_occupancy
  Co  Co0  1  0.99683300  0.00316700  0.62499000  1
  Co  Co1  1  0.99683300  0.00316700  0.37501000  1
  Co  Co2  1  0.98601200  0.01398800  0.12514200  1
  Co  Co3  1  0.98601200  0.01398800  0.87485800  1
  Co  Co4  1  0.47044700  0.52955300  0.50000000  1
  Co  Co5  1  0.52005100  0.47994900  0.00000000  1
  Co  Co6  1  0.52090600  0.47909400  0.24988700  1
  Co  Co7  1  0.52090600  0.47909400  0.75011300  1
  O  O0  1  0.80171300  0.19828700  0.00000000  1
  O  O1  1  0.80422200  0.19577800  0.24963200  1
  O  O2  1  0.80422200  0.19577800  0.75036800  1
  O  O3  1  0.30024700  0.31256800  0.62519300  1
  O  O4  1  0.30024700  0.31256800  0.37480700  1
  O  O5  1  0.31250500  0.29706100  0.87493500  1
  O  O6  1  0.31250500  0.29706100  0.12506500  1
  O  O7  1  0.68743200  0.69975300  0.62519300  1
  O  O8  1  0.68743200  0.69975300  0.37480700  1
  O  O9  1  0.70293900  0.68749500  0.12506500  1
  O  O10  1  0.70293900  0.68749500  0.87493500  1
  O  O11  1  0.18934900  0.81065100  0.50000000  1
  F  F0  1  0.77594400  0.22405600  0.50000000  1
  F  F1  1  0.19885700  0.80114300  0.00000000  1
  F  F2  1  0.21072200  0.78927800  0.24574500  1
  F  F3  1  0.21072200  0.78927800  0.75425500  1
loop_
_geom_bond_atom_site_label_1
_geom_bond_atom_site_label_2
_geom_bond_distance
_geom_bond_site_symmetry_2
Co0 O7 1.853171 1_545
Co0 O3 1.853171 1_655
Co0 O11 1.916137 1_645
Co0 O2 1.920050 1_555
Co0 F0 2.035900 1_555
Co0 F3 2.042910 1_645
Co1 O8 1.853171 1_545
Co1 O4 1.853171 1_655
Co1 O11 1.916137 1_645
Co1 O1 1.920050 1_555
Co1 F0 2.035900 1_555
Co1 F2 2.042910 1_645
Co2 O9 1.848400 1_545
Co2 O6 1.848400 1_655
Co2 O1 1.868744 1_555
Co2 O0 1.884659 1_555
Co2 F1 2.002348 1_645
Co2 F2 2.015817 1_645
Co3 O10 1.848400 1_545
Co3 O5 1.848400 1_655
Co3 O2 1.868744 1_555
Co3 O0 1.884659 1_556
Co3 F1 2.002348 1_646
Co3 F3 2.015817 1_645
Co4 O11 1.785613 1_555
Co4 O3 1.891026 1_555
Co4 O4 1.891026 1_555
Co4 O7 1.891026 1_555
Co4 O8 1.891026 1_555
Co4 F0 1.940602 1_555
Co5 O0 1.789196 1_555
Co5 O6 1.891738 1_555
Co5 O9 1.891738 1_555
Co5 O5 1.891738 1_554
Co5 O10 1.891738 1_554
Co5 F1 2.040314 1_555
Co6 O1 1.799705 1_555
Co6 O6 1.889734 1_555
Co6 O9 1.889734 1_555
Co6 O4 1.890489 1_555
Co6 O8 1.890489 1_555
Co6 F2 1.970982 1_555
Co7 O2 1.799705 1_555
Co7 O5 1.889734 1_555
Co7 O10 1.889734 1_555
Co7 O3 1.890489 1_555
Co7 O7 1.890489 1_555
Co7 F3 1.970982 1_555
