# generated using pymatgen
data_YBiO3
_symmetry_space_group_name_H-M   'P 1'
_cell_length_a   6.16586678
_cell_length_b   6.16586678
_cell_length_c   6.16586669
_cell_angle_alpha   58.51184125
_cell_angle_beta   58.51184125
_cell_angle_gamma   58.51183334
_symmetry_Int_Tables_number   1
_chemical_formula_structural   YBiO3
_chemical_formula_sum   'Y2 Bi2 O6'
_cell_volume   160.11286608
_cell_formula_units_Z   2
loop_
 _symmetry_equiv_pos_site_id
 _symmetry_equiv_pos_as_xyz
  1  'x, y, z'
loop_
 _atom_site_type_symbol
 _atom_site_label
 _atom_site_symmetry_multiplicity
 _atom_site_fract_x
 _atom_site_fract_y
 _atom_site_fract_z
 _atom_site_occupancy
  Y  Y0  1  0.77654400  0.77654400  0.77654400  1
  Y  Y1  1  0.27654400  0.27654400  0.27654400  1
  Bi  Bi0  1  0.99023200  0.99023200  0.99023200  1
  Bi  Bi1  1  0.49023200  0.49023200  0.49023200  1
  O  O0  1  0.14786300  0.59067900  0.91627100  1
  O  O1  1  0.09067900  0.64786300  0.41627100  1
  O  O2  1  0.41627100  0.09067900  0.64786300  1
  O  O3  1  0.91627100  0.14786300  0.59067900  1
  O  O4  1  0.59067900  0.91627100  0.14786300  1
  O  O5  1  0.64786300  0.41627100  0.09067900  1
loop_
_geom_bond_atom_site_label_1
_geom_bond_atom_site_label_2
_geom_bond_distance
_geom_bond_site_symmetry_2
Bi0 O0 2.330487 1_655
Bi0 O3 2.330487 1_565
Bi0 O4 2.330487 1_556
Bi0 O5 2.506259 1_566
Bi0 O1 2.506259 1_656
Bi0 O2 2.506260 1_665
Bi1 O1 2.330487 1_555
Bi1 O5 2.330487 1_555
Bi1 O2 2.330487 1_555
Bi1 O3 2.506259 1_555
Bi1 O0 2.506259 1_555
Bi1 O4 2.506260 1_555
O0 Y1 2.248736 1_556
O0 Y0 2.363391 1_455
O1 Y0 2.248736 1_455
O1 Y1 2.363391 1_555
O2 Y0 2.248736 1_545
O2 Y1 2.363391 1_555
O3 Y1 2.248736 1_655
O3 Y0 2.363391 1_545
O4 Y1 2.248736 1_565
O4 Y0 2.363391 1_554
O5 Y0 2.248736 1_554
O5 Y1 2.363391 1_555
