# generated using pymatgen
data_Tm2(WO4)3
_symmetry_space_group_name_H-M   'P 1'
_cell_length_a   10.16168200
_cell_length_b   10.04477600
_cell_length_c   17.16137383
_cell_angle_alpha   54.59124156
_cell_angle_beta   90.00000000
_cell_angle_gamma   90.00000000
_symmetry_Int_Tables_number   1
_chemical_formula_structural   Tm2(WO4)3
_chemical_formula_sum   'Tm8 W12 O48'
_cell_volume   1427.69823883
_cell_formula_units_Z   4
loop_
 _symmetry_equiv_pos_site_id
 _symmetry_equiv_pos_as_xyz
  1  'x, y, z'
loop_
 _atom_site_type_symbol
 _atom_site_label
 _atom_site_symmetry_multiplicity
 _atom_site_fract_x
 _atom_site_fract_y
 _atom_site_fract_z
 _atom_site_occupancy
  Tm  Tm0  1  0.97041800  0.63330600  0.11827500  1
  Tm  Tm1  1  0.03434000  0.13707900  0.61824300  1
  Tm  Tm2  1  0.53434000  0.86292100  0.88175700  1
  Tm  Tm3  1  0.47041800  0.36669400  0.38172500  1
  Tm  Tm4  1  0.52958200  0.63330600  0.61827500  1
  Tm  Tm5  1  0.46566000  0.13707900  0.11824300  1
  Tm  Tm6  1  0.96566000  0.86292100  0.38175700  1
  Tm  Tm7  1  0.02958200  0.36669400  0.88172500  1
  W  W0  1  0.74920800  0.47397800  0.50005000  1
  W  W1  1  0.61937300  0.75310200  0.14336900  1
  W  W2  1  0.88032600  0.03549000  0.85709700  1
  W  W3  1  0.38032600  0.96451000  0.64290300  1
  W  W4  1  0.11937300  0.24689800  0.35663100  1
  W  W5  1  0.24920800  0.52602200  0.99995000  1
  W  W6  1  0.75079200  0.47397800  0.00005000  1
  W  W7  1  0.88062700  0.75310200  0.64336900  1
  W  W8  1  0.61967400  0.03549000  0.35709700  1
  W  W9  1  0.11967400  0.96451000  0.14290300  1
  W  W10  1  0.38062700  0.24689800  0.85663100  1
  W  W11  1  0.25079200  0.52602200  0.49995000  1
  O  O0  1  0.09675700  0.79578700  0.13312600  1
  O  O1  1  0.34392700  0.50463400  0.41758800  1
  O  O2  1  0.17411700  0.33253900  0.58907200  1
  O  O3  1  0.41126500  0.06309900  0.86275100  1
  O  O4  1  0.87498100  0.31953200  0.56511700  1
  O  O5  1  0.79289000  0.70020500  0.16551100  1
  O  O6  1  0.70881000  0.02512400  0.83225700  1
  O  O7  1  0.64035300  0.41595400  0.44111300  1
  O  O8  1  0.98311800  0.06572300  0.76185000  1
  O  O9  1  0.52163600  0.58506300  0.23831400  1
  O  O10  1  0.57558000  0.78801500  0.03067100  1
  O  O11  1  0.92690200  0.84740000  0.96879200  1
  O  O12  1  0.42690200  0.15260000  0.53120800  1
  O  O13  1  0.07558000  0.21198500  0.46932900  1
  O  O14  1  0.02163600  0.41493700  0.26168600  1
  O  O15  1  0.48311800  0.93427700  0.73815000  1
  O  O16  1  0.14035300  0.58404600  0.05888700  1
  O  O17  1  0.20881000  0.97487600  0.66774300  1
  O  O18  1  0.29289000  0.29979500  0.33448900  1
  O  O19  1  0.37498100  0.68046800  0.93488300  1
  O  O20  1  0.84392700  0.49536600  0.08241200  1
  O  O21  1  0.91126500  0.93690100  0.63724900  1
  O  O22  1  0.67411700  0.66746100  0.91092800  1
  O  O23  1  0.59675700  0.20421300  0.36687400  1
  O  O24  1  0.40324300  0.79578700  0.63312600  1
  O  O25  1  0.32588300  0.33253900  0.08907200  1
  O  O26  1  0.08873500  0.06309900  0.36275100  1
  O  O27  1  0.15607300  0.50463400  0.91758800  1
  O  O28  1  0.62501900  0.31953200  0.06511700  1
  O  O29  1  0.70711000  0.70020500  0.66551100  1
  O  O30  1  0.79119000  0.02512400  0.33225700  1
  O  O31  1  0.85964700  0.41595400  0.94111300  1
  O  O32  1  0.51688200  0.06572300  0.26185000  1
  O  O33  1  0.97836400  0.58506300  0.73831400  1
  O  O34  1  0.92442000  0.78801500  0.53067100  1
  O  O35  1  0.57309800  0.84740000  0.46879200  1
  O  O36  1  0.07309800  0.15260000  0.03120800  1
  O  O37  1  0.42442000  0.21198500  0.96932900  1
  O  O38  1  0.47836400  0.41493700  0.76168600  1
  O  O39  1  0.01688200  0.93427700  0.23815000  1
  O  O40  1  0.35964700  0.58404600  0.55888700  1
  O  O41  1  0.29119000  0.97487600  0.16774300  1
  O  O42  1  0.20711000  0.29979500  0.83448900  1
  O  O43  1  0.12501900  0.68046800  0.43488300  1
  O  O44  1  0.58873500  0.93690100  0.13724900  1
  O  O45  1  0.82588300  0.66746100  0.41092800  1
  O  O46  1  0.65607300  0.49536600  0.58241200  1
  O  O47  1  0.90324300  0.20421300  0.86687400  1
loop_
_geom_bond_atom_site_label_1
_geom_bond_atom_site_label_2
_geom_bond_distance
_geom_bond_site_symmetry_2
O0 W9 1.812236 1_555
O0 Tm0 2.204282 1_455
O1 W11 1.814265 1_555
O1 Tm3 2.222377 1_555
O2 W11 1.810779 1_555
O2 Tm1 2.232451 1_555
O3 W10 1.814329 1_555
O3 Tm2 2.225668 1_545
O4 W0 1.810983 1_555
O4 Tm1 2.208182 1_655
O5 W1 1.817060 1_555
O5 Tm0 2.234791 1_555
O6 W2 1.811538 1_555
O6 Tm2 2.217106 1_545
O7 W0 1.808149 1_555
O7 Tm3 2.202242 1_555
O8 W2 1.811044 1_555
O8 Tm1 2.193495 1_655
O9 W1 1.817500 1_555
O9 Tm3 2.209887 1_555
O10 W1 1.809863 1_555
O10 Tm2 2.245988 1_554
O11 W2 1.808632 1_565
O11 Tm0 2.237920 1_556
O12 W3 1.808632 1_545
O12 Tm3 2.237920 1_555
O13 W4 1.809863 1_555
O13 Tm1 2.245988 1_555
O14 W4 1.817500 1_555
O14 Tm0 2.209887 1_455
O15 W3 1.811044 1_555
O15 Tm2 2.193495 1_555
O16 W5 1.808149 1_554
O16 Tm0 2.202242 1_455
O17 W3 1.811538 1_555
O17 Tm1 2.217106 1_565
O18 W4 1.817060 1_555
O18 Tm3 2.234791 1_555
O19 W5 1.810983 1_555
O19 Tm2 2.208182 1_555
O20 W6 1.814265 1_555
O20 Tm0 2.222377 1_555
O21 W7 1.814329 1_555
O21 Tm1 2.225668 1_665
O22 W6 1.810779 1_556
O22 Tm2 2.232451 1_555
O23 W8 1.812236 1_555
O23 Tm3 2.204282 1_555
O24 W3 1.812236 1_555
O24 Tm4 2.204282 1_555
O25 W5 1.810779 1_554
O25 Tm5 2.232451 1_555
O26 W4 1.814329 1_555
O26 Tm6 2.225668 1_445
O27 W5 1.814265 1_555
O27 Tm7 2.222377 1_555
O28 W6 1.810983 1_555
O28 Tm5 2.208182 1_555
O29 W7 1.817060 1_555
O29 Tm4 2.234791 1_555
O30 W8 1.811538 1_555
O30 Tm6 2.217106 1_545
O31 W6 1.808149 1_556
O31 Tm7 2.202242 1_655
O32 W8 1.811044 1_555
O32 Tm5 2.193495 1_555
O33 W7 1.817500 1_555
O33 Tm7 2.209887 1_655
O34 W7 1.809863 1_555
O34 Tm6 2.245988 1_555
O35 W8 1.808632 1_565
O35 Tm4 2.237920 1_555
O36 W9 1.808632 1_545
O36 Tm7 2.237920 1_554
O37 W10 1.809863 1_555
O37 Tm5 2.245988 1_556
O38 W10 1.817500 1_555
O38 Tm4 2.209887 1_555
O39 W9 1.811044 1_555
O39 Tm6 2.193495 1_455
O40 W11 1.808149 1_555
O40 Tm4 2.202242 1_555
O41 W9 1.811538 1_555
O41 Tm5 2.217106 1_565
O42 W10 1.817060 1_555
O42 Tm7 2.234791 1_555
O43 W11 1.810983 1_555
O43 Tm6 2.208182 1_455
O44 W1 1.814329 1_555
O44 Tm5 2.225668 1_565
O45 W0 1.810779 1_555
O45 Tm6 2.232451 1_555
O46 W0 1.814265 1_555
O46 Tm4 2.222377 1_555
O47 W2 1.812236 1_555
O47 Tm7 2.204282 1_655
