# generated using pymatgen
data_Eu3NbO7
_symmetry_space_group_name_H-M   'P 1'
_cell_length_a   7.48848100
_cell_length_b   7.69143600
_cell_length_c   10.82379000
_cell_angle_alpha   90.00000000
_cell_angle_beta   90.00000000
_cell_angle_gamma   90.00000000
_symmetry_Int_Tables_number   1
_chemical_formula_structural   Eu3NbO7
_chemical_formula_sum   'Eu12 Nb4 O28'
_cell_volume   623.41969810
_cell_formula_units_Z   4
loop_
 _symmetry_equiv_pos_site_id
 _symmetry_equiv_pos_as_xyz
  1  'x, y, z'
loop_
 _atom_site_type_symbol
 _atom_site_label
 _atom_site_symmetry_multiplicity
 _atom_site_fract_x
 _atom_site_fract_y
 _atom_site_fract_z
 _atom_site_occupancy
  Eu  Eu0  1  0.02295100  0.50602900  0.74408200  1
  Eu  Eu1  1  0.20519800  0.74995500  0.01384500  1
  Eu  Eu2  1  0.21427700  0.74389500  0.47579800  1
  Eu  Eu3  1  0.28572300  0.25610500  0.97579800  1
  Eu  Eu4  1  0.29480200  0.25004500  0.51384500  1
  Eu  Eu5  1  0.47704900  0.49397100  0.24408200  1
  Eu  Eu6  1  0.52295100  0.99397100  0.25591800  1
  Eu  Eu7  1  0.70519800  0.75004500  0.98615500  1
  Eu  Eu8  1  0.71427700  0.75610500  0.52420200  1
  Eu  Eu9  1  0.78572300  0.24389500  0.02420200  1
  Eu  Eu10  1  0.79480200  0.24995500  0.48615500  1
  Eu  Eu11  1  0.97704900  0.00602900  0.75591800  1
  Nb  Nb0  1  0.00609700  0.99623600  0.24887000  1
  Nb  Nb1  1  0.49390300  0.00376400  0.74887000  1
  Nb  Nb2  1  0.50609700  0.50376400  0.75113000  1
  Nb  Nb3  1  0.99390300  0.49623600  0.25113000  1
  O  O0  1  0.01307000  0.26051800  0.87744300  1
  O  O1  1  0.03550900  0.24528800  0.60670800  1
  O  O2  1  0.07577900  0.75232300  0.24335100  1
  O  O3  1  0.14629800  0.04417100  0.10280400  1
  O  O4  1  0.19002300  0.47126700  0.11884300  1
  O  O5  1  0.19987900  0.03791700  0.36867900  1
  O  O6  1  0.21081800  0.45870300  0.36866700  1
  O  O7  1  0.28918200  0.54129700  0.86866700  1
  O  O8  1  0.30012100  0.96208300  0.86867900  1
  O  O9  1  0.30997700  0.52873300  0.61884300  1
  O  O10  1  0.35370200  0.95582900  0.60280400  1
  O  O11  1  0.42422100  0.24767700  0.74335100  1
  O  O12  1  0.46449100  0.75471200  0.10670800  1
  O  O13  1  0.48693000  0.73948200  0.37744300  1
  O  O14  1  0.51307000  0.23948200  0.12255700  1
  O  O15  1  0.53550900  0.25471200  0.39329200  1
  O  O16  1  0.57577900  0.74767700  0.75664900  1
  O  O17  1  0.64629800  0.45582900  0.89719600  1
  O  O18  1  0.69002300  0.02873300  0.88115700  1
  O  O19  1  0.69987900  0.46208300  0.63132100  1
  O  O20  1  0.71081800  0.04129700  0.63133300  1
  O  O21  1  0.78918200  0.95870300  0.13133300  1
  O  O22  1  0.80012100  0.53791700  0.13132100  1
  O  O23  1  0.80997700  0.97126700  0.38115700  1
  O  O24  1  0.85370200  0.54417100  0.39719600  1
  O  O25  1  0.92422100  0.25232300  0.25664900  1
  O  O26  1  0.96449100  0.74528800  0.89329200  1
  O  O27  1  0.98693000  0.76051800  0.62255700  1
loop_
_geom_bond_atom_site_label_1
_geom_bond_atom_site_label_2
_geom_bond_distance
_geom_bond_site_symmetry_2
Eu0 O27 2.373667 1_455
Eu0 O0 2.378000 1_555
Eu0 O7 2.422125 1_555
Eu0 O26 2.487254 1_455
Eu0 O1 2.498331 1_555
Eu0 O9 2.547138 1_555
Eu0 O19 2.730746 1_455
Eu1 O12 2.186748 1_555
Eu1 O26 2.225536 1_454
Eu1 O7 2.332465 1_554
Eu1 O8 2.374049 1_554
Eu1 O4 2.428813 1_555
Eu1 O3 2.498516 1_565
Eu1 O2 2.666545 1_555
Eu2 O13 2.302877 1_555
Eu2 O27 2.331972 1_455
Eu2 O10 2.374241 1_555
Eu2 O9 2.376866 1_555
Eu2 O6 2.481302 1_555
Eu2 O5 2.543634 1_565
Eu2 O2 2.722114 1_555
Eu3 O0 2.302877 1_555
Eu3 O14 2.331972 1_556
Eu3 O3 2.374241 1_556
Eu3 O4 2.376866 1_556
Eu3 O7 2.481302 1_555
Eu3 O8 2.543634 1_545
Eu3 O11 2.722114 1_555
Eu4 O1 2.186748 1_555
Eu4 O15 2.225536 1_555
Eu4 O6 2.332465 1_555
Eu4 O5 2.374049 1_555
Eu4 O9 2.428813 1_555
Eu4 O10 2.498516 1_545
Eu4 O11 2.666545 1_555
Eu5 O14 2.373667 1_555
Eu5 O13 2.378000 1_555
Eu5 O6 2.422125 1_555
Eu5 O15 2.487254 1_555
Eu5 O12 2.498331 1_555
Eu5 O4 2.547138 1_555
Eu5 O22 2.730746 1_555
Eu6 O13 2.373667 1_555
Eu6 O14 2.378000 1_565
Eu6 O21 2.422125 1_555
Eu6 O12 2.487254 1_555
Eu6 O15 2.498331 1_565
Eu6 O23 2.547138 1_555
Eu6 O5 2.730746 1_565
Eu7 O26 2.186748 1_555
Eu7 O12 2.225536 1_556
Eu7 O21 2.332465 1_556
Eu7 O22 2.374049 1_556
Eu7 O18 2.428813 1_565
Eu7 O17 2.498516 1_555
Eu7 O16 2.666545 1_555
Eu8 O27 2.302877 1_555
Eu8 O13 2.331972 1_555
Eu8 O24 2.374241 1_555
Eu8 O23 2.376866 1_555
Eu8 O20 2.481302 1_565
Eu8 O19 2.543634 1_555
Eu8 O16 2.722114 1_555
Eu9 O14 2.302877 1_555
Eu9 O0 2.331972 1_654
Eu9 O17 2.374241 1_554
Eu9 O18 2.376866 1_554
Eu9 O21 2.481302 1_545
Eu9 O22 2.543634 1_555
Eu9 O25 2.722114 1_555
Eu10 O15 2.186748 1_555
Eu10 O1 2.225536 1_655
Eu10 O20 2.332465 1_555
Eu10 O19 2.374049 1_555
Eu10 O23 2.428813 1_545
Eu10 O24 2.498516 1_555
Eu10 O25 2.666545 1_555
Eu11 O0 2.373667 1_655
Eu11 O27 2.378000 1_545
Eu11 O20 2.422125 1_555
Eu11 O1 2.487254 1_655
Eu11 O26 2.498331 1_545
Eu11 O18 2.547138 1_555
Eu11 O8 2.730746 1_645
Nb0 O3 1.933320 1_565
Nb0 O2 1.948175 1_555
Nb0 O5 1.972364 1_565
Nb0 O23 2.060091 1_455
Nb0 O25 2.064616 1_465
Nb0 O21 2.083357 1_455
Nb1 O10 1.933320 1_545
Nb1 O11 1.948175 1_555
Nb1 O8 1.972364 1_545
Nb1 O18 2.060091 1_555
Nb1 O16 2.064616 1_545
Nb1 O20 2.083357 1_555
Nb2 O17 1.933320 1_555
Nb2 O16 1.948175 1_555
Nb2 O19 1.972364 1_555
Nb2 O9 2.060091 1_555
Nb2 O11 2.064616 1_555
Nb2 O7 2.083357 1_555
Nb3 O24 1.933320 1_555
Nb3 O25 1.948175 1_555
Nb3 O22 1.972364 1_555
Nb3 O4 2.060091 1_655
Nb3 O2 2.064616 1_655
Nb3 O6 2.083357 1_655
