# generated using pymatgen
data_Li4V5O9F
_symmetry_space_group_name_H-M   'P 1'
_cell_length_a   5.22605694
_cell_length_b   5.22605694
_cell_length_c   13.12776611
_cell_angle_alpha   79.09310223
_cell_angle_beta   79.09310223
_cell_angle_gamma   33.48412924
_symmetry_Int_Tables_number   1
_chemical_formula_structural   Li4V5O9F
_chemical_formula_sum   'Li4 V5 O9 F1'
_cell_volume   193.90951157
_cell_formula_units_Z   1
loop_
 _symmetry_equiv_pos_site_id
 _symmetry_equiv_pos_as_xyz
  1  'x, y, z'
loop_
 _atom_site_type_symbol
 _atom_site_label
 _atom_site_symmetry_multiplicity
 _atom_site_fract_x
 _atom_site_fract_y
 _atom_site_fract_z
 _atom_site_occupancy
  Li  Li0  1  0.79855000  0.79855000  0.39854900  1
  Li  Li1  1  0.60378500  0.60378500  0.79981000  1
  Li  Li2  1  0.20006500  0.20006500  0.59704100  1
  Li  Li3  1  0.39654300  0.39654300  0.19413300  1
  V  V0  1  0.90117400  0.90117400  0.69864300  1
  V  V1  1  0.68603000  0.68603000  0.10501300  1
  V  V2  1  0.32156000  0.32156000  0.89821000  1
  V  V3  1  0.49796300  0.49796300  0.50074000  1
  V  V4  1  0.09534000  0.09534000  0.30399600  1
  O  O0  1  0.85801300  0.85801300  0.55271900  1
  O  O1  1  0.94732000  0.94732000  0.84412400  1
  O  O2  1  0.53991500  0.53991500  0.64861200  1
  O  O3  1  0.73339600  0.73339600  0.25128900  1
  O  O4  1  0.45564600  0.45564600  0.35559300  1
  O  O5  1  0.26397300  0.26397300  0.75534200  1
  O  O6  1  0.31089400  0.31089400  0.04939500  1
  O  O7  1  0.05120900  0.05120900  0.16010900  1
  O  O8  1  0.13740700  0.13740700  0.45134000  1
  F  F0  1  0.66749300  0.66749300  0.94082400  1
loop_
_geom_bond_atom_site_label_1
_geom_bond_atom_site_label_2
_geom_bond_distance
_geom_bond_site_symmetry_2
Li0 O3 2.158869 1_555
Li0 O4 2.169408 1_655
Li0 O4 2.169408 1_565
Li0 O8 2.215022 1_655
Li0 O8 2.215022 1_565
Li0 O0 2.219560 1_555
Li1 O1 2.167327 1_545
Li1 O1 2.167327 1_455
Li1 O5 2.192697 1_565
Li1 O5 2.192697 1_655
Li1 O2 2.202252 1_555
Li2 O8 2.127413 1_555
Li2 O0 2.177307 1_545
Li2 O0 2.177307 1_455
Li2 O2 2.205739 1_455
Li2 O2 2.205739 1_545
Li2 O5 2.291972 1_555
Li3 O7 2.142216 1_655
Li3 O7 2.142216 1_565
Li3 O6 2.233592 1_555
Li3 O3 2.238675 1_455
Li3 O3 2.238675 1_545
Li3 O4 2.310455 1_555
O0 V0 2.045336 1_555
O0 V3 2.077593 1_565
O0 V3 2.077593 1_655
O1 V2 2.000430 1_655
O1 V2 2.000430 1_565
O1 V0 2.051686 1_555
O2 V0 2.065354 1_455
O2 V0 2.065354 1_545
O2 V3 2.065625 1_555
O3 V1 2.066879 1_555
O3 V4 2.068011 1_655
O3 V4 2.068011 1_565
O4 V3 2.032017 1_555
O4 V4 2.075057 1_565
O4 V4 2.075057 1_655
O5 V2 2.068109 1_555
O5 V0 2.074189 1_545
O5 V0 2.074189 1_455
O6 V2 1.966414 1_554
O6 V1 2.000193 1_545
O6 V1 2.000193 1_455
O7 V4 2.023073 1_555
O7 V1 2.055419 1_545
O7 V1 2.055419 1_455
O8 V4 2.059281 1_555
O8 V3 2.068141 1_455
O8 V3 2.068141 1_545
F0 Li1 2.073650 1_555
F0 V2 2.148571 1_655
F0 V2 2.148571 1_565
F0 V1 2.199628 1_556
