# generated using pymatgen
data_LiFeF4
_symmetry_space_group_name_H-M   'P 1'
_cell_length_a   7.03122629
_cell_length_b   7.03122629
_cell_length_c   7.14595067
_cell_angle_alpha   76.13530380
_cell_angle_beta   76.13530380
_cell_angle_gamma   83.17826352
_symmetry_Int_Tables_number   1
_chemical_formula_structural   LiFeF4
_chemical_formula_sum   'Li4 Fe4 F16'
_cell_volume   332.28988816
_cell_formula_units_Z   4
loop_
 _symmetry_equiv_pos_site_id
 _symmetry_equiv_pos_as_xyz
  1  'x, y, z'
loop_
 _atom_site_type_symbol
 _atom_site_label
 _atom_site_symmetry_multiplicity
 _atom_site_fract_x
 _atom_site_fract_y
 _atom_site_fract_z
 _atom_site_occupancy
  Li  Li0  1  0.79710600  0.79710600  0.85776200  1
  Li  Li1  1  0.81859400  0.18140600  0.50000000  1
  Li  Li2  1  0.18140600  0.81859400  0.50000000  1
  Li  Li3  1  0.20289400  0.20289400  0.14223800  1
  Fe  Fe0  1  0.73053500  0.73053500  0.40875600  1
  Fe  Fe1  1  0.75291300  0.24708700  0.00000000  1
  Fe  Fe2  1  0.24708700  0.75291300  0.00000000  1
  Fe  Fe3  1  0.26946500  0.26946500  0.59124400  1
  F  F0  1  0.85861900  0.85861900  0.54023900  1
  F  F1  1  0.80629200  0.80629200  0.13553800  1
  F  F2  1  0.50622700  0.79565300  0.88623200  1
  F  F3  1  0.79565300  0.50622700  0.88623200  1
  F  F4  1  0.46803600  0.79828200  0.47441800  1
  F  F5  1  0.79828200  0.46803600  0.47441800  1
  F  F6  1  0.80674400  0.11198400  0.79631300  1
  F  F7  1  0.11198400  0.80674400  0.79631300  1
  F  F8  1  0.88801600  0.19325600  0.20368700  1
  F  F9  1  0.19325600  0.88801600  0.20368700  1
  F  F10  1  0.53196400  0.20171800  0.52558200  1
  F  F11  1  0.20171800  0.53196400  0.52558200  1
  F  F12  1  0.20434700  0.49377300  0.11376800  1
  F  F13  1  0.49377300  0.20434700  0.11376800  1
  F  F14  1  0.19370800  0.19370800  0.86446200  1
  F  F15  1  0.14138100  0.14138100  0.45976100  1
loop_
_geom_bond_atom_site_label_1
_geom_bond_atom_site_label_2
_geom_bond_distance
_geom_bond_site_symmetry_2
F0 Fe0 1.873140 1_555
F0 Li0 2.150881 1_555
F0 Li2 2.210699 1_655
F0 Li1 2.210699 1_565
F1 Fe0 1.857392 1_555
F1 Li0 2.018005 1_554
F2 Fe2 1.836913 1_556
F2 Li0 2.007246 1_555
F3 Fe1 1.836913 1_556
F3 Li0 2.007246 1_555
F4 Fe0 1.826704 1_555
F4 Li2 1.970548 1_555
F5 Fe0 1.826704 1_555
F5 Li1 1.970548 1_555
F6 Fe1 1.864791 1_556
F6 Li1 2.039243 1_555
F6 Li0 2.157444 1_545
F7 Fe2 1.864791 1_556
F7 Li2 2.039243 1_555
F7 Li0 2.157444 1_455
F8 Fe1 1.864791 1_555
F8 Li1 2.039243 1_555
F8 Li3 2.157444 1_655
F9 Fe2 1.864791 1_555
F9 Li2 2.039243 1_555
F9 Li3 2.157444 1_565
F10 Fe3 1.826704 1_555
F10 Li1 1.970548 1_555
F11 Fe3 1.826704 1_555
F11 Li2 1.970548 1_555
F12 Fe2 1.836913 1_555
F12 Li3 2.007246 1_555
F13 Fe1 1.836913 1_555
F13 Li3 2.007246 1_555
F14 Fe3 1.857392 1_555
F14 Li3 2.018005 1_556
F15 Fe3 1.873140 1_555
F15 Li3 2.150881 1_555
F15 Li1 2.210699 1_455
F15 Li2 2.210699 1_545
