# generated using pymatgen
data_Mg3Fe4O7
_symmetry_space_group_name_H-M   'P 1'
_cell_length_a   11.04581284
_cell_length_b   11.04581284
_cell_length_c   11.04581284
_cell_angle_alpha   164.08584790
_cell_angle_beta   157.31158665
_cell_angle_gamma   27.83575934
_symmetry_Int_Tables_number   1
_chemical_formula_structural   Mg3Fe4O7
_chemical_formula_sum   'Mg3 Fe4 O7'
_cell_volume   142.48071999
_cell_formula_units_Z   1
loop_
 _symmetry_equiv_pos_site_id
 _symmetry_equiv_pos_as_xyz
  1  'x, y, z'
loop_
 _atom_site_type_symbol
 _atom_site_label
 _atom_site_symmetry_multiplicity
 _atom_site_fract_x
 _atom_site_fract_y
 _atom_site_fract_z
 _atom_site_occupancy
  Mg  Mg0  1  0.64155100  0.63773600  0.99618500  1
  Mg  Mg1  1  0.50000000  0.50153800  0.00153800  1
  Mg  Mg2  1  0.35844900  0.35463400  0.99618500  1
  Fe  Fe0  1  0.92747500  0.92795000  0.00047500  1
  Fe  Fe1  1  0.07252500  0.07300000  0.00047500  1
  Fe  Fe2  1  0.78340100  0.79489800  0.01149700  1
  Fe  Fe3  1  0.21659900  0.22809600  0.01149700  1
  O  O0  1  0.00000000  0.48583000  0.48583000  1
  O  O1  1  0.85500100  0.37515100  0.52014900  1
  O  O2  1  0.71030100  0.19745800  0.48715800  1
  O  O3  1  0.42851900  0.92867200  0.50015300  1
  O  O4  1  0.57148100  0.07163400  0.50015300  1
  O  O5  1  0.14499900  0.66514800  0.52014900  1
  O  O6  1  0.28969900  0.77685700  0.48715800  1
loop_
_geom_bond_atom_site_label_1
_geom_bond_atom_site_label_2
_geom_bond_distance
_geom_bond_site_symmetry_2
Mg0 O2 2.104209 1_566
Mg0 O4 2.135108 1_555
Mg0 O2 2.143958 1_555
Mg0 O4 2.152419 1_566
Mg0 O5 2.175233 1_656
Mg0 O5 2.175233 1_555
Mg1 O4 2.162071 1_565
Mg1 O3 2.162071 1_555
Mg1 O3 2.168054 1_544
Mg1 O4 2.168054 1_554
Mg1 O0 2.173272 1_554
Mg1 O0 2.173272 1_655
Mg2 O6 2.104218 1_556
Mg2 O3 2.135108 1_545
Mg2 O6 2.143964 1_545
Mg2 O3 2.152419 1_556
Mg2 O1 2.175231 1_556
Mg2 O1 2.175235 1_455
Fe0 O1 2.138410 1_554
Fe0 O0 2.149803 1_665
Fe0 O3 2.172857 1_655
Fe0 O3 2.172857 1_554
Fe0 O0 2.212597 1_654
Fe0 O1 2.222792 1_565
Fe1 O5 2.138419 1_544
Fe1 O0 2.149803 1_555
Fe1 O4 2.172857 1_555
Fe1 O4 2.172857 1_454
Fe1 O0 2.212597 1_544
Fe1 O5 2.222799 1_555
Fe2 O2 2.138471 1_565
Fe2 O1 2.148285 1_554
Fe2 O6 2.178206 1_655
Fe2 O6 2.178206 1_554
Fe2 O1 2.185628 1_565
Fe2 O2 2.242392 1_554
Fe3 O6 2.138464 1_555
Fe3 O5 2.148278 1_544
Fe3 O2 2.178205 1_454
Fe3 O2 2.178209 1_555
Fe3 O5 2.185619 1_555
Fe3 O6 2.242384 1_544
