# generated using pymatgen
data_LiCu4(PO4)3
_symmetry_space_group_name_H-M   'P 1'
_cell_length_a   6.40294500
_cell_length_b   8.93328800
_cell_length_c   14.89811217
_cell_angle_alpha   89.89261250
_cell_angle_beta   90.00000000
_cell_angle_gamma   90.00000000
_symmetry_Int_Tables_number   1
_chemical_formula_structural   LiCu4(PO4)3
_chemical_formula_sum   'Li4 Cu16 P12 O48'
_cell_volume   852.16086126
_cell_formula_units_Z   4
loop_
 _symmetry_equiv_pos_site_id
 _symmetry_equiv_pos_as_xyz
  1  'x, y, z'
loop_
 _atom_site_type_symbol
 _atom_site_label
 _atom_site_symmetry_multiplicity
 _atom_site_fract_x
 _atom_site_fract_y
 _atom_site_fract_z
 _atom_site_occupancy
  Li  Li0  1  0.00000000  0.16058100  0.48360600  1
  Li  Li1  1  0.50000000  0.33896000  0.32061000  1
  Li  Li2  1  0.50000000  0.33338000  0.98711700  1
  Li  Li3  1  0.00000000  0.64339500  0.01604800  1
  Cu  Cu0  1  0.75092500  0.01797500  0.66391400  1
  Cu  Cu1  1  0.24204300  0.00816700  0.00220200  1
  Cu  Cu2  1  0.24382200  0.00332600  0.33133800  1
  Cu  Cu3  1  0.24907500  0.01797500  0.66391400  1
  Cu  Cu4  1  0.75795700  0.00816700  0.00220200  1
  Cu  Cu5  1  0.75617800  0.00332600  0.33133800  1
  Cu  Cu6  1  0.24355200  0.49131100  0.16433000  1
  Cu  Cu7  1  0.24473500  0.48103100  0.82955400  1
  Cu  Cu8  1  0.75644800  0.49131100  0.16433000  1
  Cu  Cu9  1  0.75526500  0.48103100  0.82955400  1
  Cu  Cu10  1  0.24492100  0.49015000  0.49321600  1
  Cu  Cu11  1  0.75507900  0.49015000  0.49321600  1
  Cu  Cu12  1  0.00000000  0.64061000  0.68181200  1
  Cu  Cu13  1  0.50000000  0.86287800  0.85413100  1
  Cu  Cu14  1  0.50000000  0.85094000  0.18544800  1
  Cu  Cu15  1  0.50000000  0.85938300  0.51717200  1
  P  P0  1  0.50000000  0.18001100  0.15250800  1
  P  P1  1  0.50000000  0.17764000  0.48556500  1
  P  P2  1  0.50000000  0.17949400  0.81641000  1
  P  P3  1  0.00000000  0.31915700  0.31814900  1
  P  P4  1  0.00000000  0.32680700  0.64782000  1
  P  P5  1  0.00000000  0.31707000  0.98711600  1
  P  P6  1  0.50000000  0.68350400  0.35384000  1
  P  P7  1  0.50000000  0.68462200  0.68229500  1
  P  P8  1  0.50000000  0.68526700  0.01744200  1
  P  P9  1  0.00000000  0.81278400  0.17515900  1
  P  P10  1  0.00000000  0.81204500  0.84696000  1
  P  P11  1  0.00000000  0.81884900  0.51047500  1
  O  O0  1  0.29989500  0.12192900  0.10825900  1
  O  O1  1  0.29881300  0.12056900  0.77316000  1
  O  O2  1  0.29837600  0.11772300  0.44076100  1
  O  O3  1  0.70118700  0.12056900  0.77316000  1
  O  O4  1  0.70162400  0.11772300  0.44076100  1
  O  O5  1  0.70010500  0.12192900  0.10825900  1
  O  O6  1  0.50000000  0.13994100  0.25386500  1
  O  O7  1  0.50000000  0.12603500  0.58414300  1
  O  O8  1  0.50000000  0.13076700  0.91728300  1
  O  O9  1  0.00000000  0.14189700  0.97416000  1
  O  O10  1  0.00000000  0.14202500  0.30660800  1
  O  O11  1  0.00000000  0.14919400  0.63275800  1
  O  O12  1  0.50000000  0.35828500  0.13676000  1
  O  O13  1  0.50000000  0.35222600  0.46591600  1
  O  O14  1  0.50000000  0.35664800  0.80940400  1
  O  O15  1  0.00000000  0.37196000  0.08452600  1
  O  O16  1  0.00000000  0.35592000  0.41964300  1
  O  O17  1  0.00000000  0.37770200  0.74651400  1
  O  O18  1  0.20208300  0.37930900  0.27482600  1
  O  O19  1  0.20035400  0.38246900  0.60183800  1
  O  O20  1  0.20196000  0.37648300  0.94172000  1
  O  O21  1  0.79964600  0.38246900  0.60183800  1
  O  O22  1  0.79804000  0.37648300  0.94172000  1
  O  O23  1  0.79791700  0.37930900  0.27482600  1
  O  O24  1  0.30169200  0.61602900  0.05773400  1
  O  O25  1  0.30068700  0.61938200  0.39451700  1
  O  O26  1  0.69830800  0.61602900  0.05773400  1
  O  O27  1  0.69931300  0.61938200  0.39451700  1
  O  O28  1  0.30146900  0.61376500  0.72428900  1
  O  O29  1  0.69853100  0.61376500  0.72428900  1
  O  O30  1  0.50000000  0.65972000  0.24995200  1
  O  O31  1  0.50000000  0.66522600  0.91409300  1
  O  O32  1  0.50000000  0.66344300  0.57971100  1
  O  O33  1  0.00000000  0.63843200  0.19000700  1
  O  O34  1  0.00000000  0.63932600  0.86957000  1
  O  O35  1  0.00000000  0.64523900  0.53426400  1
  O  O36  1  0.50000000  0.85751700  0.70699800  1
  O  O37  1  0.50000000  0.86142600  0.03936400  1
  O  O38  1  0.50000000  0.86206700  0.37114800  1
  O  O39  1  0.00000000  0.86244800  0.41243300  1
  O  O40  1  0.00000000  0.85040900  0.07447100  1
  O  O41  1  0.00000000  0.83684500  0.74403300  1
  O  O42  1  0.80138200  0.87915300  0.22158200  1
  O  O43  1  0.80311800  0.88387900  0.89027400  1
  O  O44  1  0.19861800  0.87915300  0.22158200  1
  O  O45  1  0.19688200  0.88387900  0.89027400  1
  O  O46  1  0.80223300  0.88467300  0.55928600  1
  O  O47  1  0.19776700  0.88467300  0.55928600  1
loop_
_geom_bond_atom_site_label_1
_geom_bond_atom_site_label_2
_geom_bond_distance
_geom_bond_site_symmetry_2
Li0 O16 1.986689 1_555
Li0 O2 2.050583 1_555
Li0 O4 2.050583 1_455
Li0 O11 2.224220 1_555
Li1 O6 2.038704 1_555
Li1 O23 2.057423 1_555
Li1 O18 2.057423 1_555
Li1 O13 2.168248 1_555
Li2 O20 2.060691 1_555
Li2 O22 2.060691 1_555
Li2 O8 2.089397 1_555
Li2 O12 2.240887 1_556
Li3 O24 2.043629 1_555
Li3 O26 2.043629 1_455
Li3 O40 2.045381 1_555
Li3 O34 2.182617 1_554
Cu0 O3 1.896296 1_555
Cu0 O46 1.990648 1_545
Cu0 O11 2.032470 1_655
Cu0 O7 2.218400 1_555
Cu0 O36 2.246016 1_545
Cu0 O41 2.564981 1_645
Cu1 O0 1.916400 1_555
Cu1 O9 2.000423 1_554
Cu1 O45 2.025816 1_544
Cu1 O37 2.179511 1_545
Cu1 O8 2.350093 1_554
Cu1 O40 2.354038 1_545
Cu2 O2 1.957080 1_555
Cu2 O44 1.998700 1_545
Cu2 O10 2.026456 1_555
Cu2 O38 2.152191 1_545
Cu2 O39 2.339886 1_545
Cu2 O6 2.346677 1_555
Cu3 O1 1.896296 1_555
Cu3 O47 1.990648 1_545
Cu3 O11 2.032470 1_555
Cu3 O7 2.218400 1_555
Cu3 O36 2.246016 1_545
Cu3 O41 2.564981 1_545
Cu4 O5 1.916400 1_555
Cu4 O9 2.000423 1_654
Cu4 O43 2.025816 1_544
Cu4 O37 2.179511 1_545
Cu4 O8 2.350093 1_554
Cu4 O40 2.354038 1_645
Cu5 O4 1.957080 1_555
Cu5 O42 1.998700 1_545
Cu5 O10 2.026456 1_655
Cu5 O38 2.152191 1_545
Cu5 O39 2.339886 1_645
Cu5 O6 2.346677 1_555
Cu6 O18 1.943022 1_555
Cu6 O24 1.973641 1_555
Cu6 O12 2.068568 1_555
Cu6 O33 2.075433 1_555
Cu6 O15 2.233151 1_555
Cu6 O30 2.567871 1_555
Cu7 O20 1.932327 1_555
Cu7 O28 1.997599 1_555
Cu7 O14 1.999360 1_555
Cu7 O34 2.194038 1_555
Cu7 O17 2.200549 1_555
Cu8 O23 1.943022 1_555
Cu8 O26 1.973641 1_555
Cu8 O12 2.068568 1_555
Cu8 O33 2.075433 1_655
Cu8 O15 2.233151 1_655
Cu8 O30 2.567871 1_555
Cu9 O22 1.932327 1_555
Cu9 O29 1.997599 1_555
Cu9 O14 1.999360 1_555
Cu9 O34 2.194038 1_655
Cu9 O17 2.200549 1_655
Cu10 O25 1.901601 1_555
Cu10 O19 1.902553 1_555
Cu10 O13 2.086368 1_555
Cu10 O35 2.180812 1_555
Cu10 O16 2.259101 1_555
Cu10 O32 2.594623 1_555
Cu11 O27 1.901601 1_555
Cu11 O21 1.902553 1_555
Cu11 O13 2.086368 1_555
Cu11 O35 2.180812 1_655
Cu11 O16 2.259101 1_655
Cu11 O32 2.594623 1_555
Cu12 O41 1.984557 1_555
Cu12 O29 2.045343 1_455
Cu12 O28 2.045343 1_555
Cu12 O35 2.198498 1_555
Cu12 O17 2.537078 1_555
Cu13 O31 1.977307 1_555
Cu13 O43 2.022970 1_555
Cu13 O45 2.022970 1_555
Cu13 O36 2.192617 1_555
Cu13 O8 2.573072 1_565
Cu14 O30 1.958410 1_555
Cu14 O44 2.019330 1_555
Cu14 O42 2.019330 1_555
Cu14 O37 2.178215 1_555
Cu15 O32 1.981372 1_555
Cu15 O46 2.046987 1_555
Cu15 O47 2.046987 1_555
Cu15 O38 2.175569 1_555
O0 P0 1.531898 1_555
O1 P2 1.533940 1_555
O2 P1 1.549205 1_555
O3 P2 1.533940 1_555
O4 P1 1.549205 1_555
O5 P0 1.531898 1_555
O6 P0 1.551223 1_555
O7 P1 1.538456 1_555
O8 P2 1.563805 1_555
O9 P5 1.577089 1_555
O10 P3 1.592005 1_555
O11 P4 1.602874 1_555
O12 P0 1.609327 1_555
O13 P1 1.586322 1_555
O14 P2 1.585811 1_555
O15 P5 1.532698 1_554
O16 P3 1.547924 1_555
O17 P4 1.539858 1_555
O18 P3 1.542166 1_555
O19 P4 1.536548 1_555
O20 P5 1.552406 1_555
O21 P4 1.536548 1_655
O22 P5 1.552406 1_655
O23 P3 1.542166 1_655
O24 P8 1.534206 1_555
O25 P6 1.524051 1_555
O26 P8 1.534206 1_555
O27 P6 1.524051 1_555
O28 P7 1.551292 1_555
O29 P7 1.551292 1_555
O30 P6 1.562645 1_555
O31 P8 1.550412 1_556
O32 P7 1.540326 1_555
O33 P9 1.572756 1_555
O34 P10 1.578673 1_555
O35 P11 1.590240 1_555
O36 P7 1.588433 1_555
O37 P8 1.607811 1_555
O38 P6 1.616339 1_555
O39 P11 1.510972 1_555
O40 P9 1.536641 1_555
O41 P10 1.548929 1_555
O42 P9 1.564837 1_655
O43 P10 1.555291 1_655
O44 P9 1.564837 1_555
O45 P10 1.555291 1_555
O46 P11 1.574699 1_655
O47 P11 1.574699 1_555
