# generated using pymatgen
data_LiMn2(PO4)2
_symmetry_space_group_name_H-M   'P 1'
_cell_length_a   8.66222000
_cell_length_b   8.66583485
_cell_length_c   13.36519902
_cell_angle_alpha   108.56136244
_cell_angle_beta   108.49086023
_cell_angle_gamma   90.56063364
_symmetry_Int_Tables_number   1
_chemical_formula_structural   LiMn2(PO4)2
_chemical_formula_sum   'Li6 Mn12 P12 O48'
_cell_volume   895.10828233
_cell_formula_units_Z   6
loop_
 _symmetry_equiv_pos_site_id
 _symmetry_equiv_pos_as_xyz
  1  'x, y, z'
loop_
 _atom_site_type_symbol
 _atom_site_label
 _atom_site_symmetry_multiplicity
 _atom_site_fract_x
 _atom_site_fract_y
 _atom_site_fract_z
 _atom_site_occupancy
  Li  Li0  1  0.12005000  0.14553400  0.13187700  1
  Li  Li1  1  0.00000000  0.00000000  0.50000000  1
  Li  Li2  1  0.50000000  0.50000000  0.00000000  1
  Li  Li3  1  0.24901100  0.25029600  0.74897800  1
  Li  Li4  1  0.75098900  0.74970400  0.25102200  1
  Li  Li5  1  0.87995000  0.85446600  0.86812300  1
  Mn  Mn0  1  0.00587700  0.68797500  0.07127700  1
  Mn  Mn1  1  0.56231300  0.24613800  0.18276100  1
  Mn  Mn2  1  0.11235100  0.64047600  0.37609400  1
  Mn  Mn3  1  0.39685000  0.85558300  0.12583200  1
  Mn  Mn4  1  0.50556300  0.18969300  0.57057800  1
  Mn  Mn5  1  0.93949500  0.25775500  0.32419300  1
  Mn  Mn6  1  0.06050500  0.74224500  0.67580700  1
  Mn  Mn7  1  0.49443700  0.81030700  0.42942200  1
  Mn  Mn8  1  0.88764900  0.35952400  0.62390600  1
  Mn  Mn9  1  0.60315000  0.14441700  0.87416800  1
  Mn  Mn10  1  0.43768700  0.75386200  0.81723900  1
  Mn  Mn11  1  0.99412300  0.31202500  0.92872300  1
  P  P0  1  0.31447400  0.53043500  0.18515700  1
  P  P1  1  0.66460400  0.08400400  0.37535100  1
  P  P2  1  0.83414400  0.41398700  0.12548300  1
  P  P3  1  0.18491600  0.96873000  0.31303600  1
  P  P4  1  0.21805400  0.43271900  0.56452800  1
  P  P5  1  0.71984100  0.93760200  0.06289400  1
  P  P6  1  0.28015900  0.06239800  0.93710600  1
  P  P7  1  0.78194600  0.56728100  0.43547200  1
  P  P8  1  0.81508400  0.03127000  0.68696400  1
  P  P9  1  0.16585600  0.58601300  0.87451700  1
  P  P10  1  0.33539600  0.91599600  0.62464900  1
  P  P11  1  0.68552600  0.46956500  0.81484300  1
  O  O0  1  0.37851800  0.04654500  0.05219300  1
  O  O1  1  0.13843500  0.49874400  0.09483500  1
  O  O2  1  0.12399000  0.13263600  0.30065600  1
  O  O3  1  0.36317200  0.35960400  0.18631000  1
  O  O4  1  0.53518100  0.09571700  0.26790600  1
  O  O5  1  0.84910700  0.28223800  0.01944000  1
  O  O6  1  0.36032300  0.00026100  0.40452900  1
  O  O7  1  0.75240300  0.11146300  0.15527600  1
  O  O8  1  0.65191700  0.39078600  0.11874600  1
  O  O9  1  0.43396300  0.62433000  0.15351200  1
  O  O10  1  0.12107400  0.44933600  0.44977000  1
  O  O11  1  0.20189700  0.87483400  0.19746700  1
  O  O12  1  0.29898300  0.63116400  0.29957300  1
  O  O13  1  0.06659600  0.87452700  0.34455000  1
  O  O14  1  0.12034500  0.31663900  0.59621000  1
  O  O15  1  0.62899300  0.81648200  0.09450800  1
  O  O16  1  0.35920700  0.09894800  0.63225600  1
  O  O17  1  0.84721800  0.10610200  0.38222300  1
  O  O18  1  0.85600600  0.59587200  0.13239900  1
  O  O19  1  0.75183800  0.38924900  0.34561700  1
  O  O20  1  0.96762100  0.39823700  0.23081600  1
  O  O21  1  0.65301200  0.21439300  0.48250800  1
  O  O22  1  0.38476900  0.37649100  0.56231700  1
  O  O23  1  0.88741500  0.88472500  0.05158600  1
  O  O24  1  0.11258500  0.11527500  0.94841400  1
  O  O25  1  0.61523100  0.62350900  0.43768300  1
  O  O26  1  0.03237900  0.60176300  0.76918400  1
  O  O27  1  0.34698800  0.78560700  0.51749200  1
  O  O28  1  0.24816200  0.61075100  0.65438300  1
  O  O29  1  0.14399400  0.40412800  0.86760100  1
  O  O30  1  0.15278200  0.89389800  0.61777700  1
  O  O31  1  0.64079300  0.90105200  0.36774400  1
  O  O32  1  0.37100700  0.18351800  0.90549200  1
  O  O33  1  0.93340400  0.12547300  0.65545000  1
  O  O34  1  0.87965500  0.68336100  0.40379000  1
  O  O35  1  0.70101700  0.36883600  0.70042700  1
  O  O36  1  0.79810300  0.12516600  0.80253300  1
  O  O37  1  0.87892600  0.55066400  0.55023000  1
  O  O38  1  0.56603700  0.37567000  0.84648800  1
  O  O39  1  0.34808300  0.60921400  0.88125400  1
  O  O40  1  0.24759700  0.88853700  0.84472400  1
  O  O41  1  0.63967700  0.99973900  0.59547100  1
  O  O42  1  0.15089300  0.71776200  0.98056000  1
  O  O43  1  0.46481900  0.90428300  0.73209400  1
  O  O44  1  0.63682800  0.64039600  0.81369000  1
  O  O45  1  0.87601000  0.86736400  0.69934400  1
  O  O46  1  0.86156500  0.50125600  0.90516500  1
  O  O47  1  0.62148200  0.95345500  0.94780700  1
loop_
_geom_bond_atom_site_label_1
_geom_bond_atom_site_label_2
_geom_bond_distance
_geom_bond_site_symmetry_2
Li0 O2 2.283395 1_555
Li0 O24 2.361164 1_554
Li0 O3 2.549174 1_555
Li1 O30 2.167615 1_545
Li1 O17 2.167615 1_455
Li1 O33 2.272853 1_455
Li1 O13 2.272853 1_545
Li2 O39 2.191369 1_554
Li2 O8 2.191369 1_555
Li2 O9 2.246503 1_555
Li2 O38 2.246503 1_554
Li3 O29 2.170528 1_555
Li3 O16 2.175183 1_555
Li3 O14 2.248994 1_555
Li3 O32 2.282075 1_555
Li4 O18 2.170528 1_555
Li4 O31 2.175183 1_555
Li4 O34 2.248994 1_555
Li4 O15 2.282075 1_555
Li5 O45 2.283395 1_555
Li5 O23 2.361164 1_556
Li5 O44 2.549174 1_555
Mn0 O18 2.014265 1_455
Mn0 O23 2.043985 1_455
Mn0 O1 2.059837 1_555
Mn0 O42 2.067264 1_554
Mn0 O11 2.177315 1_555
Mn0 O46 2.241155 1_454
Mn1 O8 1.997661 1_555
Mn1 O3 2.000030 1_555
Mn1 O4 2.038980 1_555
Mn1 O7 2.087255 1_555
Mn1 O0 2.198601 1_555
Mn1 O19 2.223932 1_555
Mn2 O12 2.159808 1_555
Mn2 O10 2.170850 1_555
Mn2 O34 2.176783 1_455
Mn2 O13 2.214213 1_555
Mn2 O27 2.298818 1_555
Mn2 O20 2.357537 1_455
Mn3 O9 2.159951 1_555
Mn3 O0 2.162240 1_565
Mn3 O11 2.173857 1_555
Mn3 O15 2.188770 1_555
Mn3 O4 2.316066 1_565
Mn3 O42 2.363342 1_554
Mn4 O22 1.949632 1_555
Mn4 O16 1.990289 1_555
Mn4 O21 2.042380 1_555
Mn4 O41 2.076270 1_545
Mn4 O35 2.158218 1_555
Mn4 O6 2.252111 1_555
Mn5 O2 1.991048 1_655
Mn5 O17 1.997286 1_555
Mn5 O19 2.036310 1_555
Mn5 O20 2.062336 1_555
Mn5 O10 2.132510 1_655
Mn5 O7 2.268773 1_555
Mn6 O45 1.991048 1_455
Mn6 O30 1.997286 1_555
Mn6 O28 2.036310 1_555
Mn6 O26 2.062336 1_555
Mn6 O37 2.132510 1_455
Mn6 O40 2.268773 1_555
Mn7 O25 1.949632 1_555
Mn7 O31 1.990289 1_555
Mn7 O27 2.042380 1_555
Mn7 O6 2.076270 1_565
Mn7 O12 2.158218 1_555
Mn7 O41 2.252111 1_555
Mn8 O35 2.159808 1_555
Mn8 O37 2.170850 1_555
Mn8 O14 2.176783 1_655
Mn8 O33 2.214213 1_555
Mn8 O21 2.298818 1_555
Mn8 O26 2.357537 1_655
Mn9 O38 2.159951 1_555
Mn9 O47 2.162240 1_545
Mn9 O36 2.173857 1_555
Mn9 O32 2.188770 1_555
Mn9 O43 2.316066 1_545
Mn9 O5 2.363342 1_556
Mn10 O39 1.997661 1_555
Mn10 O44 2.000030 1_555
Mn10 O43 2.038980 1_555
Mn10 O40 2.087255 1_555
Mn10 O47 2.198601 1_555
Mn10 O28 2.223932 1_555
Mn11 O29 2.014265 1_655
Mn11 O24 2.043985 1_655
Mn11 O46 2.059837 1_555
Mn11 O5 2.067264 1_556
Mn11 O36 2.177315 1_555
Mn11 O1 2.241155 1_656
O0 P6 1.554437 1_554
O1 P0 1.571967 1_555
O2 P3 1.559580 1_545
O3 P0 1.546727 1_555
O4 P1 1.550212 1_555
O5 P2 1.555075 1_555
O6 P3 1.574550 1_545
O7 P5 1.568600 1_545
O8 P2 1.559575 1_555
O9 P0 1.546786 1_555
O10 P4 1.550668 1_555
O11 P3 1.554295 1_555
O12 P0 1.549527 1_555
O13 P3 1.539682 1_555
O14 P4 1.545765 1_555
O15 P5 1.541614 1_555
O16 P10 1.563378 1_545
O17 P1 1.561426 1_555
O18 P2 1.555335 1_555
O19 P7 1.582519 1_555
O20 P2 1.558938 1_555
O21 P1 1.549561 1_555
O22 P4 1.534750 1_555
O23 P5 1.564585 1_555
O24 P6 1.564585 1_555
O25 P7 1.534750 1_555
O26 P9 1.558938 1_555
O27 P10 1.549561 1_555
O28 P4 1.582519 1_555
O29 P9 1.555335 1_555
O30 P10 1.561426 1_555
O31 P1 1.563378 1_565
O32 P6 1.541614 1_555
O33 P8 1.539682 1_555
O34 P7 1.545765 1_555
O35 P11 1.549527 1_555
O36 P8 1.554295 1_555
O37 P7 1.550668 1_555
O38 P11 1.546786 1_555
O39 P9 1.559575 1_555
O40 P6 1.568600 1_565
O41 P8 1.574550 1_565
O42 P9 1.555075 1_555
O43 P10 1.550212 1_555
O44 P11 1.546727 1_555
O45 P8 1.559580 1_565
O46 P11 1.571967 1_555
O47 P5 1.554437 1_556
