# generated using pymatgen
data_Li2Si4NiO10
_symmetry_space_group_name_H-M   'P 1'
_cell_length_a   9.96408900
_cell_length_b   6.67399200
_cell_length_c   15.43958866
_cell_angle_alpha   66.15362240
_cell_angle_beta   90.00000000
_cell_angle_gamma   90.00000000
_symmetry_Int_Tables_number   1
_chemical_formula_structural   Li2Si4NiO10
_chemical_formula_sum   'Li8 Si16 Ni4 O40'
_cell_volume   939.08680875
_cell_formula_units_Z   4
loop_
 _symmetry_equiv_pos_site_id
 _symmetry_equiv_pos_as_xyz
  1  'x, y, z'
loop_
 _atom_site_type_symbol
 _atom_site_label
 _atom_site_symmetry_multiplicity
 _atom_site_fract_x
 _atom_site_fract_y
 _atom_site_fract_z
 _atom_site_occupancy
  Li  Li0  1  0.87654200  0.97425200  0.43074400  1
  Li  Li1  1  0.08488900  0.52678600  0.76321200  1
  Li  Li2  1  0.58488900  0.47321400  0.73678800  1
  Li  Li3  1  0.37654200  0.02574800  0.06925600  1
  Li  Li4  1  0.62345800  0.97425200  0.93074400  1
  Li  Li5  1  0.41511100  0.52678600  0.26321200  1
  Li  Li6  1  0.91511100  0.47321400  0.23678800  1
  Li  Li7  1  0.12345800  0.02574800  0.56925600  1
  Si  Si0  1  0.72775700  0.64783100  0.86845600  1
  Si  Si1  1  0.44819400  0.65677000  0.84169500  1
  Si  Si2  1  0.02845600  0.08450700  0.16663400  1
  Si  Si3  1  0.26411900  0.79246000  0.45465100  1
  Si  Si4  1  0.76411900  0.20754000  0.04534900  1
  Si  Si5  1  0.52845600  0.91549300  0.33336600  1
  Si  Si6  1  0.77224300  0.64783100  0.36845600  1
  Si  Si7  1  0.05180600  0.65677000  0.34169500  1
  Si  Si8  1  0.94819400  0.34323000  0.65830500  1
  Si  Si9  1  0.22775700  0.35216900  0.63154400  1
  Si  Si10  1  0.47154400  0.08450700  0.66663400  1
  Si  Si11  1  0.23588100  0.79246000  0.95465100  1
  Si  Si12  1  0.73588100  0.20754000  0.54534900  1
  Si  Si13  1  0.97154400  0.91549300  0.83336600  1
  Si  Si14  1  0.55180600  0.34323000  0.15830500  1
  Si  Si15  1  0.27224300  0.35216900  0.13154400  1
  Ni  Ni0  1  0.86319000  0.78749900  0.67215000  1
  Ni  Ni1  1  0.36319000  0.21250100  0.82785000  1
  Ni  Ni2  1  0.63681000  0.78749900  0.17215000  1
  Ni  Ni3  1  0.13681000  0.21250100  0.32785000  1
  O  O0  1  0.54964500  0.18126800  0.27232000  1
  O  O1  1  0.69574100  0.30942100  0.11606200  1
  O  O2  1  0.17208000  0.99113100  0.45670200  1
  O  O3  1  0.99523100  0.20936300  0.23448800  1
  O  O4  1  0.42273800  0.27537200  0.10532000  1
  O  O5  1  0.72208800  0.65896900  0.76220800  1
  O  O6  1  0.17650400  0.16944500  0.11431900  1
  O  O7  1  0.41612300  0.87317300  0.41604400  1
  O  O8  1  0.77455700  0.40254200  0.93969400  1
  O  O9  1  0.91612300  0.12682700  0.08395600  1
  O  O10  1  0.67650400  0.83055500  0.38568100  1
  O  O11  1  0.97842300  0.58949100  0.64436500  1
  O  O12  1  0.47842300  0.41050900  0.85563500  1
  O  O13  1  0.27455700  0.59745800  0.56030600  1
  O  O14  1  0.92273800  0.72462800  0.39468000  1
  O  O15  1  0.49523100  0.79063700  0.26551200  1
  O  O16  1  0.67208000  0.00886900  0.04329800  1
  O  O17  1  0.19574100  0.69057900  0.38393800  1
  O  O18  1  0.04964500  0.81873200  0.22768000  1
  O  O19  1  0.22208800  0.34103100  0.73779200  1
  O  O20  1  0.77791200  0.65896900  0.26220800  1
  O  O21  1  0.95035500  0.18126800  0.77232000  1
  O  O22  1  0.80425900  0.30942100  0.61606200  1
  O  O23  1  0.32792000  0.99113100  0.95670200  1
  O  O24  1  0.50476900  0.20936300  0.73448800  1
  O  O25  1  0.07726200  0.27537200  0.60532000  1
  O  O26  1  0.72544300  0.40254200  0.43969400  1
  O  O27  1  0.52157700  0.58949100  0.14436500  1
  O  O28  1  0.02157700  0.41050900  0.35563500  1
  O  O29  1  0.32349600  0.16944500  0.61431900  1
  O  O30  1  0.08387700  0.87317300  0.91604400  1
  O  O31  1  0.22544300  0.59745800  0.06030600  1
  O  O32  1  0.58387700  0.12682700  0.58395600  1
  O  O33  1  0.82349600  0.83055500  0.88568100  1
  O  O34  1  0.27791200  0.34103100  0.23779200  1
  O  O35  1  0.57726200  0.72462800  0.89468000  1
  O  O36  1  0.00476900  0.79063700  0.76551200  1
  O  O37  1  0.82792000  0.00886900  0.54329800  1
  O  O38  1  0.30425900  0.69057900  0.88393800  1
  O  O39  1  0.45035500  0.81873200  0.72768000  1
loop_
_geom_bond_atom_site_label_1
_geom_bond_atom_site_label_2
_geom_bond_distance
_geom_bond_site_symmetry_2
Li0 O37 1.905945 1_565
Li0 O14 2.011841 1_555
Li0 O10 2.432318 1_555
Li1 O36 1.946805 1_555
Li1 O19 1.988276 1_555
Li1 O11 2.011625 1_455
Li2 O24 1.946805 1_555
Li2 O5 1.988276 1_555
Li2 O12 2.011625 1_555
Li3 O23 1.905945 1_544
Li3 O4 2.011841 1_555
Li3 O6 2.432318 1_555
Li4 O16 1.905945 1_566
Li4 O35 2.011841 1_555
Li4 O33 2.432318 1_555
Li5 O15 1.946805 1_555
Li5 O34 1.988276 1_555
Li5 O27 2.011625 1_555
Li6 O3 1.946805 1_555
Li6 O20 1.988276 1_555
Li6 O28 2.011625 1_655
Li7 O2 1.905945 1_545
Li7 O25 2.011841 1_555
Li7 O29 2.432318 1_555
Ni0 O5 1.918721 1_555
Ni0 O11 1.925392 1_555
Ni0 O37 1.971678 1_565
Ni0 O36 2.023061 1_655
Ni1 O19 1.918721 1_555
Ni1 O12 1.925392 1_555
Ni1 O23 1.971678 1_545
Ni1 O24 2.023061 1_555
Ni2 O20 1.918721 1_555
Ni2 O27 1.925392 1_555
Ni2 O16 1.971678 1_565
Ni2 O15 2.023061 1_555
Ni3 O34 1.918721 1_555
Ni3 O28 1.925392 1_555
Ni3 O2 1.971678 1_545
Ni3 O3 2.023061 1_455
O0 Si5 1.651493 1_545
O0 Si14 1.652008 1_555
O1 Si14 1.628548 1_555
O1 Si4 1.648870 1_555
O2 Si3 1.622986 1_555
O3 Si2 1.614739 1_655
O4 Si14 1.681611 1_555
O4 Si15 1.686140 1_555
O5 Si0 1.612797 1_555
O6 Si15 1.652321 1_555
O6 Si2 1.667226 1_555
O7 Si5 1.634185 1_555
O7 Si3 1.637013 1_555
O8 Si4 1.627578 1_556
O8 Si0 1.628270 1_555
O9 Si2 1.634185 1_655
O9 Si4 1.637013 1_555
O10 Si6 1.652321 1_555
O10 Si5 1.667226 1_555
O11 Si8 1.597580 1_555
O12 Si1 1.597580 1_555
O13 Si3 1.627578 1_555
O13 Si9 1.628270 1_555
O14 Si7 1.681611 1_655
O14 Si6 1.686140 1_555
O15 Si5 1.614739 1_555
O16 Si4 1.622986 1_555
O17 Si7 1.628548 1_555
O17 Si3 1.648870 1_555
O18 Si2 1.651493 1_565
O18 Si7 1.652008 1_555
O19 Si9 1.612797 1_555
O20 Si6 1.612797 1_555
O21 Si13 1.651493 1_545
O21 Si8 1.652008 1_555
O22 Si8 1.628548 1_555
O22 Si12 1.648870 1_555
O23 Si11 1.622986 1_555
O24 Si10 1.614739 1_555
O25 Si8 1.681611 1_455
O25 Si9 1.686140 1_555
O26 Si12 1.627578 1_555
O26 Si6 1.628270 1_555
O27 Si14 1.597580 1_555
O28 Si7 1.597580 1_555
O29 Si9 1.652321 1_555
O29 Si10 1.667226 1_555
O30 Si13 1.634185 1_455
O30 Si11 1.637013 1_555
O31 Si11 1.627578 1_554
O31 Si15 1.628270 1_555
O32 Si10 1.634185 1_555
O32 Si12 1.637013 1_555
O33 Si0 1.652321 1_555
O33 Si13 1.667226 1_555
O34 Si15 1.612797 1_555
O35 Si1 1.681611 1_555
O35 Si0 1.686140 1_555
O36 Si13 1.614739 1_455
O37 Si12 1.622986 1_555
O38 Si1 1.628548 1_555
O38 Si11 1.648870 1_555
O39 Si10 1.651493 1_565
O39 Si1 1.652008 1_555
