# generated using pymatgen
data_Li2Ni(PO3)4
_symmetry_space_group_name_H-M   'P 1'
_cell_length_a   4.63260200
_cell_length_b   9.30633162
_cell_length_c   9.32088648
_cell_angle_alpha   90.01092008
_cell_angle_beta   90.85708178
_cell_angle_gamma   90.68681482
_symmetry_Int_Tables_number   1
_chemical_formula_structural   Li2Ni(PO3)4
_chemical_formula_sum   'Li4 Ni2 P8 O24'
_cell_volume   401.77314761
_cell_formula_units_Z   2
loop_
 _symmetry_equiv_pos_site_id
 _symmetry_equiv_pos_as_xyz
  1  'x, y, z'
loop_
 _atom_site_type_symbol
 _atom_site_label
 _atom_site_symmetry_multiplicity
 _atom_site_fract_x
 _atom_site_fract_y
 _atom_site_fract_z
 _atom_site_occupancy
  Li  Li0  1  0.50054000  0.00307200  0.00181600  1
  Li  Li1  1  0.50010800  0.99670500  0.49648700  1
  Li  Li2  1  0.49971500  0.50179600  0.50101200  1
  Li  Li3  1  0.49987600  0.49609300  0.99742300  1
  Ni  Ni0  1  0.50101300  0.22086500  0.74750400  1
  Ni  Ni1  1  0.50178900  0.75601100  0.22109800  1
  P  P0  1  0.99762600  0.02607200  0.25198500  1
  P  P1  1  0.00398100  0.25227700  0.47499800  1
  P  P2  1  0.99640300  0.25227200  0.02631000  1
  P  P3  1  0.00316000  0.47533900  0.25211400  1
  P  P4  1  0.99763900  0.52521200  0.74934200  1
  P  P5  1  0.00197000  0.74908700  0.97369200  1
  P  P6  1  0.99680100  0.74859800  0.52572500  1
  P  P7  1  0.00143700  0.97374000  0.74961900  1
  O  O0  1  0.75361400  0.05045500  0.67915900  1
  O  O1  1  0.24647400  0.05298200  0.82344100  1
  O  O2  1  0.14028300  0.13432800  0.13509800  1
  O  O3  1  0.85273800  0.13509900  0.36550400  1
  O  O4  1  0.24772600  0.17905200  0.55326400  1
  O  O5  1  0.75013700  0.17875800  0.94756100  1
  O  O6  1  0.75937400  0.32245900  0.54870700  1
  O  O7  1  0.24340100  0.32312300  0.95289900  1
  O  O8  1  0.85074700  0.36490700  0.13609500  1
  O  O9  1  0.15698100  0.36393800  0.36446300  1
  O  O10  1  0.75530400  0.45079200  0.82361900  1
  O  O11  1  0.24336900  0.45281800  0.67926900  1
  O  O12  1  0.75910000  0.54822900  0.32323600  1
  O  O13  1  0.24668800  0.55349300  0.17970700  1
  O  O14  1  0.14931700  0.63769100  0.86719500  1
  O  O15  1  0.84589900  0.63724300  0.63763300  1
  O  O16  1  0.24297900  0.67834500  0.45453300  1
  O  O17  1  0.75476900  0.67931500  0.05059200  1
  O  O18  1  0.24690900  0.82394100  0.05224400  1
  O  O19  1  0.75451700  0.82319300  0.45028400  1
  O  O20  1  0.85578000  0.86699500  0.86696700  1
  O  O21  1  0.14740500  0.86732700  0.63773800  1
  O  O22  1  0.24429300  0.95072700  0.32265400  1
  O  O23  1  0.75013300  0.94770900  0.17895000  1
loop_
_geom_bond_atom_site_label_1
_geom_bond_atom_site_label_2
_geom_bond_distance
_geom_bond_site_symmetry_2
Li0 O5 2.058741 1_554
Li0 O23 2.070230 1_545
Li0 O1 2.078504 1_554
Li0 O18 2.085765 1_545
Li0 O2 2.435376 1_555
Li0 O20 2.450114 1_544
Li1 O22 2.035425 1_555
Li1 O19 2.059732 1_555
Li1 O0 2.110510 1_565
Li1 O4 2.143021 1_565
Li1 O3 2.414081 1_565
Li1 O21 2.422938 1_555
Li2 O16 2.081702 1_555
Li2 O12 2.103278 1_555
Li2 O11 2.103568 1_555
Li2 O6 2.112455 1_555
Li2 O15 2.381660 1_555
Li2 O9 2.382628 1_555
Li3 O7 2.028361 1_555
Li3 O10 2.066736 1_555
Li3 O17 2.116904 1_556
Li3 O13 2.149919 1_556
Li3 O8 2.405945 1_556
Li3 O14 2.416653 1_555
Ni0 O1 2.076940 1_555
Ni0 O0 2.087257 1_555
Ni0 O4 2.175163 1_555
Ni0 O5 2.215708 1_555
Ni0 O6 2.408278 1_555
Ni0 O7 2.467777 1_555
Ni0 O10 2.526602 1_555
Ni0 O11 2.555068 1_555
Ni1 O18 2.057567 1_555
Ni1 O17 2.117556 1_555
Ni1 O23 2.150627 1_555
Ni1 O13 2.242817 1_555
Ni1 O22 2.384872 1_555
Ni1 O12 2.467470 1_555
Ni1 O19 2.496434 1_555
Ni1 O16 2.598461 1_555
O0 P7 1.502115 1_645
O1 P7 1.504079 1_545
O2 P0 1.626262 1_455
O2 P2 1.635542 1_455
O3 P0 1.623808 1_555
O3 P1 1.637542 1_655
O4 P1 1.505188 1_555
O5 P2 1.504797 1_556
O6 P1 1.491152 1_655
O7 P2 1.489217 1_456
O8 P2 1.624317 1_555
O8 P3 1.638139 1_655
O9 P1 1.627361 1_555
O9 P3 1.635548 1_555
O10 P4 1.491342 1_555
O11 P4 1.488907 1_455
O12 P3 1.489488 1_655
O13 P3 1.503512 1_555
O14 P5 1.600892 1_555
O14 P4 1.659814 1_455
O15 P6 1.629573 1_555
O15 P4 1.631377 1_555
O16 P6 1.486184 1_455
O17 P5 1.501246 1_654
O18 P5 1.504961 1_554
O19 P6 1.493796 1_555
O20 P7 1.626334 1_655
O20 P5 1.627989 1_655
O21 P7 1.600699 1_555
O21 P6 1.660419 1_455
O22 P0 1.492715 1_465
O23 P0 1.505397 1_565
