# generated using pymatgen
data_Li8Mn13Fe3O32
_symmetry_space_group_name_H-M   'P 1'
_cell_length_a   8.30432800
_cell_length_b   8.66259552
_cell_length_c   10.15668754
_cell_angle_alpha   114.97563640
_cell_angle_beta   113.65627833
_cell_angle_gamma   89.46085214
_symmetry_Int_Tables_number   1
_chemical_formula_structural   Li8Mn13Fe3O32
_chemical_formula_sum   'Li8 Mn13 Fe3 O32'
_cell_volume   595.29101856
_cell_formula_units_Z   1
loop_
 _symmetry_equiv_pos_site_id
 _symmetry_equiv_pos_as_xyz
  1  'x, y, z'
loop_
 _atom_site_type_symbol
 _atom_site_label
 _atom_site_symmetry_multiplicity
 _atom_site_fract_x
 _atom_site_fract_y
 _atom_site_fract_z
 _atom_site_occupancy
  Li  Li0  1  0.56450900  0.80194300  0.87540800  1
  Li  Li1  1  0.06613500  0.30213800  0.87686900  1
  Li  Li2  1  0.18642200  0.44600900  0.62371800  1
  Li  Li3  1  0.68596300  0.94756700  0.62351700  1
  Li  Li4  1  0.31403700  0.05243300  0.37648300  1
  Li  Li5  1  0.81357800  0.55399100  0.37628200  1
  Li  Li6  1  0.43549100  0.19805700  0.12459200  1
  Li  Li7  1  0.93386500  0.69786200  0.12313100  1
  Mn  Mn0  1  0.00000000  0.00000000  0.00000000  1
  Mn  Mn1  1  0.50000000  0.50000000  0.00000000  1
  Mn  Mn2  1  0.12544000  0.87494700  0.74974700  1
  Mn  Mn3  1  0.62512500  0.37123500  0.74915400  1
  Mn  Mn4  1  0.87571300  0.62394400  0.74987900  1
  Mn  Mn5  1  0.37536100  0.12446400  0.75068400  1
  Mn  Mn6  1  0.50000000  0.50000000  0.50000000  1
  Mn  Mn7  1  0.74948500  0.24789000  0.50070800  1
  Mn  Mn8  1  0.25051500  0.75211000  0.49929200  1
  Mn  Mn9  1  0.12428700  0.37605600  0.25012100  1
  Mn  Mn10  1  0.62463900  0.87553600  0.24931600  1
  Mn  Mn11  1  0.37487500  0.62876500  0.25084600  1
  Mn  Mn12  1  0.87456000  0.12505300  0.25025300  1
  Fe  Fe0  1  0.24982600  0.74940800  0.99886400  1
  Fe  Fe1  1  0.75017400  0.25059200  0.00113600  1
  Fe  Fe2  1  0.00000000  0.00000000  0.50000000  1
  O  O0  1  0.99853900  0.76660900  0.98460400  1
  O  O1  1  0.72877500  0.48242400  0.98710900  1
  O  O2  1  0.49912300  0.26677900  0.98620700  1
  O  O3  1  0.22939500  0.98303900  0.98664300  1
  O  O4  1  0.40128800  0.38709700  0.76655100  1
  O  O5  1  0.90161900  0.88884900  0.76697900  1
  O  O6  1  0.61409500  0.15102700  0.75770000  1
  O  O7  1  0.11319200  0.65164500  0.75509500  1
  O  O8  1  0.34925800  0.86079500  0.73265300  1
  O  O9  1  0.13743200  0.09739700  0.74417300  1
  O  O10  1  0.84993200  0.35973300  0.73402800  1
  O  O11  1  0.63288900  0.59339100  0.73754900  1
  O  O12  1  0.25010200  0.98435200  0.51490700  1
  O  O13  1  0.52407900  0.25853000  0.51555400  1
  O  O14  1  0.02042300  0.76770900  0.51362500  1
  O  O15  1  0.74760400  0.48179100  0.51486800  1
  O  O16  1  0.74989800  0.01564800  0.48509300  1
  O  O17  1  0.97957700  0.23229100  0.48637500  1
  O  O18  1  0.47592100  0.74147000  0.48444600  1
  O  O19  1  0.25239600  0.51820900  0.48513200  1
  O  O20  1  0.86256800  0.90260300  0.25582700  1
  O  O21  1  0.36711100  0.40660900  0.26245100  1
  O  O22  1  0.65074200  0.13920500  0.26734700  1
  O  O23  1  0.15006800  0.64026700  0.26597200  1
  O  O24  1  0.09838100  0.11115100  0.23302100  1
  O  O25  1  0.88680800  0.34835500  0.24490500  1
  O  O26  1  0.38590500  0.84897300  0.24230000  1
  O  O27  1  0.59871200  0.61290300  0.23344900  1
  O  O28  1  0.00146100  0.23339100  0.01539600  1
  O  O29  1  0.77060500  0.01696100  0.01335700  1
  O  O30  1  0.27122500  0.51757600  0.01289100  1
  O  O31  1  0.50087700  0.73322100  0.01379300  1
loop_
_geom_bond_atom_site_label_1
_geom_bond_atom_site_label_2
_geom_bond_distance
_geom_bond_site_symmetry_2
Li0 O31 1.979314 1_556
Li0 O11 2.007338 1_555
Li0 O8 2.021032 1_555
Li0 O29 2.072058 1_566
Li1 O9 1.978543 1_555
Li1 O28 1.985618 1_556
Li1 O10 2.020227 1_455
Li1 O30 2.070389 1_556
Li2 O7 1.986720 1_555
Li2 O19 2.010308 1_555
Li2 O4 2.019791 1_555
Li2 O17 2.068819 1_455
Li3 O16 1.977743 1_565
Li3 O6 1.981022 1_565
Li3 O5 2.025768 1_555
Li3 O18 2.043744 1_555
Li4 O12 1.977743 1_545
Li4 O26 1.981022 1_545
Li4 O24 2.025768 1_555
Li4 O13 2.043744 1_555
Li5 O25 1.986720 1_555
Li5 O15 2.010308 1_555
Li5 O27 2.019791 1_555
Li5 O14 2.068819 1_655
Li6 O2 1.979314 1_554
Li6 O21 2.007338 1_555
Li6 O22 2.021032 1_555
Li6 O3 2.072058 1_544
Li7 O20 1.978543 1_555
Li7 O0 1.985618 1_554
Li7 O23 2.020227 1_655
Li7 O1 2.070389 1_554
Mn0 O24 1.932527 1_555
Mn0 O5 1.932527 1_444
Mn0 O28 1.960643 1_555
Mn0 O0 1.960643 1_444
Mn0 O3 1.963212 1_544
Mn0 O29 1.963212 1_455
Mn1 O27 1.935844 1_555
Mn1 O4 1.935844 1_554
Mn1 O1 1.956269 1_554
Mn1 O30 1.956269 1_555
Mn1 O2 1.965131 1_554
Mn1 O31 1.965131 1_555
Mn2 O8 1.932999 1_555
Mn2 O5 1.933619 1_455
Mn2 O9 1.956193 1_565
Mn2 O14 1.957157 1_555
Mn2 O7 1.962643 1_555
Mn2 O3 1.963930 1_555
Mn3 O10 1.931961 1_555
Mn3 O4 1.934830 1_555
Mn3 O13 1.936015 1_555
Mn3 O6 1.950449 1_555
Mn3 O1 1.972330 1_555
Mn3 O11 1.980286 1_555
Mn4 O0 1.958455 1_555
Mn4 O15 1.962221 1_555
Mn4 O7 1.965683 1_655
Mn4 O11 1.982767 1_555
Mn4 O10 2.231713 1_555
Mn4 O5 2.232741 1_555
Mn5 O9 1.963177 1_555
Mn5 O2 1.964414 1_555
Mn5 O12 1.964712 1_545
Mn5 O6 1.967181 1_555
Mn5 O4 2.218127 1_555
Mn5 O8 2.218485 1_545
Mn6 O21 1.981235 1_555
Mn6 O11 1.981235 1_555
Mn6 O19 2.010078 1_555
Mn6 O15 2.010078 1_555
Mn6 O18 2.164768 1_555
Mn6 O13 2.164768 1_555
Mn7 O10 1.933979 1_555
Mn7 O13 1.935603 1_555
Mn7 O22 1.935704 1_555
Mn7 O16 1.950242 1_555
Mn7 O15 1.970152 1_555
Mn7 O17 1.972867 1_555
Mn8 O23 1.933979 1_555
Mn8 O18 1.935603 1_555
Mn8 O8 1.935704 1_555
Mn8 O12 1.950242 1_555
Mn8 O19 1.970152 1_555
Mn8 O14 1.972867 1_555
Mn9 O28 1.958455 1_555
Mn9 O19 1.962221 1_555
Mn9 O25 1.965683 1_455
Mn9 O21 1.982767 1_555
Mn9 O23 2.231713 1_555
Mn9 O24 2.232741 1_555
Mn10 O20 1.963177 1_555
Mn10 O31 1.964414 1_555
Mn10 O16 1.964712 1_565
Mn10 O26 1.967181 1_555
Mn10 O27 2.218127 1_555
Mn10 O22 2.218485 1_565
Mn11 O23 1.931961 1_555
Mn11 O27 1.934830 1_555
Mn11 O18 1.936015 1_555
Mn11 O26 1.950449 1_555
Mn11 O30 1.972330 1_555
Mn11 O21 1.980286 1_555
Mn12 O22 1.932999 1_555
Mn12 O24 1.933619 1_655
Mn12 O20 1.956193 1_545
Mn12 O17 1.957157 1_555
Mn12 O25 1.962643 1_555
Mn12 O29 1.963930 1_555
Fe0 O26 2.027181 1_556
Fe0 O7 2.031661 1_555
Fe0 O31 2.036628 1_556
Fe0 O0 2.041474 1_455
Fe0 O30 2.073546 1_556
Fe0 O3 2.080611 1_555
Fe1 O6 2.027181 1_554
Fe1 O25 2.031661 1_555
Fe1 O2 2.036628 1_554
Fe1 O28 2.041474 1_655
Fe1 O1 2.073546 1_554
Fe1 O29 2.080611 1_555
Fe2 O12 2.028451 1_545
Fe2 O16 2.028451 1_455
Fe2 O9 2.035810 1_555
Fe2 O20 2.035810 1_445
Fe2 O17 2.075315 1_455
Fe2 O14 2.075315 1_545
