# generated using pymatgen
data_NaH4Au(Br2O)2
_symmetry_space_group_name_H-M   'P 1'
_cell_length_a   7.60692000
_cell_length_b   9.49071800
_cell_length_c   13.41699200
_cell_angle_alpha   90.00000000
_cell_angle_beta   90.00000000
_cell_angle_gamma   90.00000000
_symmetry_Int_Tables_number   1
_chemical_formula_structural   NaH4Au(Br2O)2
_chemical_formula_sum   'Na4 H16 Au4 Br16 O8'
_cell_volume   968.64151611
_cell_formula_units_Z   4
loop_
 _symmetry_equiv_pos_site_id
 _symmetry_equiv_pos_as_xyz
  1  'x, y, z'
loop_
 _atom_site_type_symbol
 _atom_site_label
 _atom_site_symmetry_multiplicity
 _atom_site_fract_x
 _atom_site_fract_y
 _atom_site_fract_z
 _atom_site_occupancy
  Na  Na0  1  0.75000000  0.04246100  0.01497800  1
  Na  Na1  1  0.25000000  0.54246100  0.48502200  1
  Na  Na2  1  0.75000000  0.45753900  0.51497800  1
  Na  Na3  1  0.25000000  0.95753900  0.98502200  1
  H  H0  1  0.50723900  0.86563800  0.13251100  1
  H  H1  1  0.99276100  0.86563800  0.13251100  1
  H  H2  1  0.02203700  0.01583700  0.17489000  1
  H  H3  1  0.47796300  0.01583700  0.17489000  1
  H  H4  1  0.97796300  0.51583700  0.32511000  1
  H  H5  1  0.52203700  0.51583700  0.32511000  1
  H  H6  1  0.00723900  0.36563800  0.36748900  1
  H  H7  1  0.49276100  0.36563800  0.36748900  1
  H  H8  1  0.99276100  0.63436200  0.63251100  1
  H  H9  1  0.50723900  0.63436200  0.63251100  1
  H  H10  1  0.02203700  0.48416300  0.67489000  1
  H  H11  1  0.47796300  0.48416300  0.67489000  1
  H  H12  1  0.97796300  0.98416300  0.82511000  1
  H  H13  1  0.52203700  0.98416300  0.82511000  1
  H  H14  1  0.49276100  0.13436200  0.86748900  1
  H  H15  1  0.00723900  0.13436200  0.86748900  1
  Au  Au0  1  0.75000000  0.51182600  0.06307100  1
  Au  Au1  1  0.25000000  0.01182600  0.43692900  1
  Au  Au2  1  0.75000000  0.98817400  0.56307100  1
  Au  Au3  1  0.25000000  0.48817400  0.93692900  1
  Br  Br0  1  0.25000000  0.27825700  0.04625900  1
  Br  Br1  1  0.25000000  0.64218400  0.08673600  1
  Br  Br2  1  0.75000000  0.30159500  0.17298000  1
  Br  Br3  1  0.75000000  0.66796800  0.21191000  1
  Br  Br4  1  0.25000000  0.16796800  0.28809000  1
  Br  Br5  1  0.25000000  0.80159500  0.32702000  1
  Br  Br6  1  0.75000000  0.14218400  0.41326400  1
  Br  Br7  1  0.75000000  0.77825700  0.45374100  1
  Br  Br8  1  0.25000000  0.22174300  0.54625900  1
  Br  Br9  1  0.25000000  0.85781600  0.58673600  1
  Br  Br10  1  0.75000000  0.19840500  0.67298000  1
  Br  Br11  1  0.75000000  0.83203200  0.71191000  1
  Br  Br12  1  0.25000000  0.33203200  0.78809000  1
  Br  Br13  1  0.25000000  0.69840500  0.82702000  1
  Br  Br14  1  0.75000000  0.35781600  0.91326400  1
  Br  Br15  1  0.75000000  0.72174300  0.95374100  1
  O  O0  1  0.49884500  0.96524300  0.11274600  1
  O  O1  1  0.00115500  0.96524300  0.11274600  1
  O  O2  1  0.99884500  0.46524300  0.38725400  1
  O  O3  1  0.50115500  0.46524300  0.38725400  1
  O  O4  1  0.49884500  0.53475700  0.61274600  1
  O  O5  1  0.00115500  0.53475700  0.61274600  1
  O  O6  1  0.99884500  0.03475700  0.88725400  1
  O  O7  1  0.50115500  0.03475700  0.88725400  1
loop_
_geom_bond_atom_site_label_1
_geom_bond_atom_site_label_2
_geom_bond_distance
_geom_bond_site_symmetry_2
Na0 O1 2.430605 1_645
Na0 O0 2.430605 1_545
Na0 O6 2.554458 1_554
Na0 O7 2.554458 1_554
Na1 O3 2.430605 1_555
Na1 O2 2.430605 1_455
Na1 O4 2.554458 1_555
Na1 O5 2.554458 1_555
Na2 O5 2.430605 1_655
Na2 O4 2.430605 1_555
Na2 O3 2.554458 1_555
Na2 O2 2.554458 1_555
Na3 O6 2.430605 1_465
Na3 O7 2.430605 1_565
Na3 O0 2.554458 1_556
Na3 O1 2.554458 1_556
H0 O0 0.983889 1_555
H1 O1 0.983889 1_655
H2 O1 0.975191 1_545
H3 O0 0.975191 1_545
H4 O2 0.975191 1_555
H5 O3 0.975191 1_555
H6 O2 0.983889 1_455
H7 O3 0.983889 1_555
H8 O5 0.983889 1_655
H9 O4 0.983889 1_555
H10 O5 0.975191 1_555
H11 O4 0.975191 1_555
H12 O6 0.975191 1_565
H13 O7 0.975191 1_565
H14 O7 0.983889 1_555
H15 O6 0.983889 1_455
Au0 Br15 2.474035 1_554
Au0 Br2 2.481045 1_555
Au0 Br14 2.485237 1_554
Au0 Br3 2.486749 1_555
Au1 Br8 2.474035 1_555
Au1 Br5 2.481045 1_545
Au1 Br9 2.485237 1_545
Au1 Br4 2.486749 1_555
Au2 Br7 2.474035 1_555
Au2 Br10 2.481045 1_565
Au2 Br6 2.485237 1_565
Au2 Br11 2.486749 1_555
Au3 Br0 2.474035 1_556
Au3 Br13 2.481045 1_555
Au3 Br1 2.485237 1_556
Au3 Br12 2.486749 1_555
Br0 Na3 3.152783 1_544
Br1 Na3 3.289395 1_554
Br2 Na0 3.246924 1_555
Br5 Na1 3.246924 1_555
Br6 Na2 3.289395 1_555
Br7 Na2 3.152783 1_555
Br8 Na1 3.152783 1_555
Br9 Na1 3.289395 1_555
Br10 Na2 3.246924 1_555
Br13 Na3 3.246924 1_555
Br14 Na0 3.289395 1_556
Br15 Na0 3.152783 1_566
