# generated using pymatgen
data_Li4V2(PO4)3
_symmetry_space_group_name_H-M   'P 1'
_cell_length_a   8.80587900
_cell_length_b   9.02245700
_cell_length_c   12.30537600
_cell_angle_alpha   90.00000000
_cell_angle_beta   90.00000000
_cell_angle_gamma   90.00000000
_symmetry_Int_Tables_number   1
_chemical_formula_structural   Li4V2(PO4)3
_chemical_formula_sum   'Li16 V8 P12 O48'
_cell_volume   977.67030166
_cell_formula_units_Z   4
loop_
 _symmetry_equiv_pos_site_id
 _symmetry_equiv_pos_as_xyz
  1  'x, y, z'
loop_
 _atom_site_type_symbol
 _atom_site_label
 _atom_site_symmetry_multiplicity
 _atom_site_fract_x
 _atom_site_fract_y
 _atom_site_fract_z
 _atom_site_occupancy
  Li  Li0  1  0.23873100  0.70633100  0.67983200  1
  Li  Li1  1  0.73873100  0.29366900  0.67983200  1
  Li  Li2  1  0.57365400  0.04307700  0.71223800  1
  Li  Li3  1  0.07365400  0.95692300  0.71223800  1
  Li  Li4  1  0.57365400  0.54307700  0.78776200  1
  Li  Li5  1  0.07365400  0.45692300  0.78776200  1
  Li  Li6  1  0.23873100  0.20633100  0.82016800  1
  Li  Li7  1  0.73873100  0.79366900  0.82016800  1
  Li  Li8  1  0.26126900  0.20633100  0.17983200  1
  Li  Li9  1  0.76126900  0.79366900  0.17983200  1
  Li  Li10  1  0.92634600  0.54307700  0.21223800  1
  Li  Li11  1  0.42634600  0.45692300  0.21223800  1
  Li  Li12  1  0.92634600  0.04307700  0.28776200  1
  Li  Li13  1  0.42634600  0.95692300  0.28776200  1
  Li  Li14  1  0.26126900  0.70633100  0.32016800  1
  Li  Li15  1  0.76126900  0.29366900  0.32016800  1
  V  V0  1  0.04398300  0.25036300  0.60810100  1
  V  V1  1  0.54398300  0.74963700  0.60810100  1
  V  V2  1  0.04398300  0.75036300  0.89189900  1
  V  V3  1  0.54398300  0.24963700  0.89189900  1
  V  V4  1  0.95601700  0.24963700  0.10810100  1
  V  V5  1  0.45601700  0.75036300  0.10810100  1
  V  V6  1  0.45601700  0.25036300  0.39189900  1
  V  V7  1  0.95601700  0.74963700  0.39189900  1
  P  P0  1  0.75000000  0.05068100  0.50000000  1
  P  P1  1  0.25000000  0.94931900  0.50000000  1
  P  P2  1  0.89437800  0.60328100  0.65143600  1
  P  P3  1  0.39437800  0.39671900  0.65143600  1
  P  P4  1  0.39437800  0.89671900  0.84856400  1
  P  P5  1  0.89437800  0.10328100  0.84856400  1
  P  P6  1  0.25000000  0.44931900  0.00000000  1
  P  P7  1  0.75000000  0.55068100  0.00000000  1
  P  P8  1  0.60562200  0.10328100  0.15143600  1
  P  P9  1  0.10562200  0.89671900  0.15143600  1
  P  P10  1  0.10562200  0.39671900  0.34856400  1
  P  P11  1  0.60562200  0.60328100  0.34856400  1
  O  O0  1  0.92058600  0.64832100  0.53495500  1
  O  O1  1  0.42058600  0.35167900  0.53495500  1
  O  O2  1  0.33967300  0.84431200  0.57690100  1
  O  O3  1  0.83967300  0.15568800  0.57690100  1
  O  O4  1  0.14580300  0.04295200  0.57388900  1
  O  O5  1  0.64580300  0.95704800  0.57388900  1
  O  O6  1  0.90622100  0.43249700  0.67138700  1
  O  O7  1  0.40622100  0.56750300  0.67138700  1
  O  O8  1  0.23446400  0.34570400  0.69252100  1
  O  O9  1  0.73446400  0.65429600  0.69252100  1
  O  O10  1  0.52337400  0.32934100  0.72536800  1
  O  O11  1  0.02337400  0.67065900  0.72536800  1
  O  O12  1  0.52337400  0.82934100  0.77463200  1
  O  O13  1  0.02337400  0.17065900  0.77463200  1
  O  O14  1  0.23446400  0.84570400  0.80747900  1
  O  O15  1  0.73446400  0.15429600  0.80747900  1
  O  O16  1  0.90622100  0.93249700  0.82861300  1
  O  O17  1  0.40622100  0.06750300  0.82861300  1
  O  O18  1  0.14580300  0.54295200  0.92611100  1
  O  O19  1  0.64580300  0.45704800  0.92611100  1
  O  O20  1  0.33967300  0.34431200  0.92309900  1
  O  O21  1  0.83967300  0.65568800  0.92309900  1
  O  O22  1  0.42058600  0.85167900  0.96504500  1
  O  O23  1  0.92058600  0.14832100  0.96504500  1
  O  O24  1  0.57941400  0.14832100  0.03495500  1
  O  O25  1  0.07941400  0.85167900  0.03495500  1
  O  O26  1  0.16032700  0.34431200  0.07690100  1
  O  O27  1  0.66032700  0.65568800  0.07690100  1
  O  O28  1  0.85419700  0.45704800  0.07388900  1
  O  O29  1  0.35419700  0.54295200  0.07388900  1
  O  O30  1  0.09377900  0.06750300  0.17138700  1
  O  O31  1  0.59377900  0.93249700  0.17138700  1
  O  O32  1  0.76553600  0.15429600  0.19252100  1
  O  O33  1  0.26553600  0.84570400  0.19252100  1
  O  O34  1  0.47662600  0.17065900  0.22536800  1
  O  O35  1  0.97662600  0.82934100  0.22536800  1
  O  O36  1  0.97662600  0.32934100  0.27463200  1
  O  O37  1  0.47662600  0.67065900  0.27463200  1
  O  O38  1  0.26553600  0.34570400  0.30747900  1
  O  O39  1  0.76553600  0.65429600  0.30747900  1
  O  O40  1  0.59377900  0.43249700  0.32861300  1
  O  O41  1  0.09377900  0.56750300  0.32861300  1
  O  O42  1  0.35419700  0.04295200  0.42611100  1
  O  O43  1  0.85419700  0.95704800  0.42611100  1
  O  O44  1  0.66032700  0.15568800  0.42309900  1
  O  O45  1  0.16032700  0.84431200  0.42309900  1
  O  O46  1  0.07941400  0.35167900  0.46504500  1
  O  O47  1  0.57941400  0.64832100  0.46504500  1
loop_
_geom_bond_atom_site_label_1
_geom_bond_atom_site_label_2
_geom_bond_distance
_geom_bond_site_symmetry_2
Li0 O7 1.937795 1_555
Li0 O2 1.986012 1_555
Li0 O11 2.003479 1_555
Li0 O14 2.012442 1_555
Li1 O6 1.937795 1_555
Li1 O3 1.986012 1_555
Li1 O10 2.003479 1_555
Li1 O15 2.012442 1_555
Li2 O5 1.975960 1_545
Li2 O17 2.067158 1_555
Li2 O15 2.094216 1_555
Li2 O12 2.122344 1_545
Li3 O4 1.975960 1_565
Li3 O16 2.067158 1_455
Li3 O14 2.094216 1_555
Li3 O13 2.122344 1_565
Li4 O19 1.975960 1_555
Li4 O7 2.067158 1_555
Li4 O9 2.094216 1_555
Li4 O10 2.122344 1_555
Li5 O18 1.975960 1_555
Li5 O6 2.067158 1_455
Li5 O8 2.094216 1_555
Li5 O11 2.122344 1_555
Li6 O17 1.937795 1_555
Li6 O20 1.986012 1_555
Li6 O13 2.003479 1_555
Li6 O8 2.012442 1_555
Li7 O16 1.937795 1_555
Li7 O21 1.986012 1_555
Li7 O12 2.003479 1_555
Li7 O9 2.012442 1_555
Li8 O30 1.937795 1_555
Li8 O26 1.986012 1_555
Li8 O34 2.003479 1_555
Li8 O38 2.012442 1_555
Li9 O31 1.937795 1_555
Li9 O27 1.986012 1_555
Li9 O35 2.003479 1_555
Li9 O39 2.012442 1_555
Li10 O28 1.975960 1_555
Li10 O41 2.067158 1_655
Li10 O39 2.094216 1_555
Li10 O36 2.122344 1_555
Li11 O29 1.975960 1_555
Li11 O40 2.067158 1_555
Li11 O38 2.094216 1_555
Li11 O37 2.122344 1_555
Li12 O43 1.975960 1_545
Li12 O30 2.067158 1_655
Li12 O32 2.094216 1_555
Li12 O35 2.122344 1_545
Li13 O42 1.975960 1_565
Li13 O31 2.067158 1_555
Li13 O33 2.094216 1_555
Li13 O34 2.122344 1_565
Li14 O41 1.937795 1_555
Li14 O45 1.986012 1_555
Li14 O37 2.003479 1_555
Li14 O33 2.012442 1_555
Li15 O40 1.937795 1_555
Li15 O44 1.986012 1_555
Li15 O36 2.003479 1_555
Li15 O32 2.012442 1_555
O0 P2 1.507604 1_555
O0 V7 2.007939 1_555
O1 P3 1.507604 1_555
O1 V6 2.007939 1_555
O2 P1 1.554551 1_555
O2 V1 2.028281 1_555
O3 P0 1.554551 1_555
O3 V0 2.028281 1_655
O4 P1 1.543464 1_545
O4 V0 2.117340 1_555
O5 P0 1.543464 1_565
O5 V1 2.117340 1_555
O6 P2 1.563808 1_555
O6 V0 2.185986 1_655
O7 P3 1.563808 1_555
O7 V1 2.185986 1_555
O8 P3 1.565387 1_555
O8 V0 2.152352 1_555
O9 P2 1.565387 1_555
O9 V1 2.152352 1_555
O10 P3 1.577196 1_555
O10 V3 2.179313 1_555
O11 P2 1.577196 1_455
O11 V2 2.179313 1_555
O12 P4 1.577196 1_555
O12 V1 2.179313 1_555
O13 P5 1.577196 1_455
O13 V0 2.179313 1_555
O14 P4 1.565387 1_555
O14 V2 2.152352 1_555
O15 P5 1.565387 1_555
O15 V3 2.152352 1_555
O16 P5 1.563808 1_565
O16 V2 2.185986 1_655
O17 P4 1.563808 1_545
O17 V3 2.185986 1_555
O18 P6 1.543464 1_556
O18 V2 2.117340 1_555
O19 P7 1.543464 1_556
O19 V3 2.117340 1_555
O20 P6 1.554551 1_556
O20 V3 2.028281 1_555
O21 P7 1.554551 1_556
O21 V2 2.028281 1_655
O22 P4 1.507604 1_555
O22 V5 2.007939 1_556
O23 P5 1.507604 1_555
O23 V4 2.007939 1_556
O24 P8 1.507604 1_555
O24 V3 2.007939 1_554
O25 P9 1.507604 1_555
O25 V2 2.007939 1_554
O26 P6 1.554551 1_555
O26 V4 2.028281 1_455
O27 P7 1.554551 1_555
O27 V5 2.028281 1_555
O28 P7 1.543464 1_555
O28 V4 2.117340 1_555
O29 P6 1.543464 1_555
O29 V5 2.117340 1_555
O30 P9 1.563808 1_545
O30 V4 2.185986 1_455
O31 P8 1.563808 1_565
O31 V5 2.185986 1_555
O32 P8 1.565387 1_555
O32 V4 2.152352 1_555
O33 P9 1.565387 1_555
O33 V5 2.152352 1_555
O34 P8 1.577196 1_555
O34 V6 2.179313 1_555
O35 P9 1.577196 1_655
O35 V7 2.179313 1_555
O36 P10 1.577196 1_655
O36 V4 2.179313 1_555
O37 P11 1.577196 1_555
O37 V5 2.179313 1_555
O38 P10 1.565387 1_555
O38 V6 2.152352 1_555
O39 P11 1.565387 1_555
O39 V7 2.152352 1_555
O40 P11 1.563808 1_555
O40 V6 2.185986 1_555
O41 P10 1.563808 1_555
O41 V7 2.185986 1_455
O42 P1 1.543464 1_545
O42 V6 2.117340 1_555
O43 P0 1.543464 1_565
O43 V7 2.117340 1_555
O44 P0 1.554551 1_555
O44 V6 2.028281 1_555
O45 P1 1.554551 1_555
O45 V7 2.028281 1_455
O46 P10 1.507604 1_555
O46 V0 2.007939 1_555
O47 P11 1.507604 1_555
O47 V1 2.007939 1_555
