# generated using pymatgen
data_Ti3Cu2P6WO24
_symmetry_space_group_name_H-M   'P 1'
_cell_length_a   8.70317973
_cell_length_b   8.70317973
_cell_length_c   8.70317982
_cell_angle_alpha   59.97038478
_cell_angle_beta   59.97038478
_cell_angle_gamma   59.97038784
_symmetry_Int_Tables_number   1
_chemical_formula_structural   Ti3Cu2P6WO24
_chemical_formula_sum   'Ti3 Cu2 P6 W1 O24'
_cell_volume   465.82963462
_cell_formula_units_Z   1
loop_
 _symmetry_equiv_pos_site_id
 _symmetry_equiv_pos_as_xyz
  1  'x, y, z'
loop_
 _atom_site_type_symbol
 _atom_site_label
 _atom_site_symmetry_multiplicity
 _atom_site_fract_x
 _atom_site_fract_y
 _atom_site_fract_z
 _atom_site_occupancy
  Ti  Ti0  1  0.64185600  0.64185600  0.64185600  1
  Ti  Ti1  1  0.85808500  0.85808500  0.85808500  1
  Ti  Ti2  1  0.35780400  0.35780400  0.35780400  1
  Cu  Cu0  1  0.99557900  0.99557900  0.99557900  1
  Cu  Cu1  1  0.49991700  0.49991700  0.49991700  1
  P  P0  1  0.25118300  0.54237300  0.95913400  1
  P  P1  1  0.95913400  0.25118300  0.54237300  1
  P  P2  1  0.54237300  0.95913400  0.25118300  1
  P  P3  1  0.46365900  0.03935300  0.74699100  1
  P  P4  1  0.03935300  0.74699100  0.46365900  1
  P  P5  1  0.74699100  0.46365900  0.03935300  1
  W  W0  1  0.14169200  0.14169200  0.14169200  1
  O  O0  1  0.12515200  0.30313800  0.49906000  1
  O  O1  1  0.49906000  0.12515200  0.30313800  1
  O  O2  1  0.30313800  0.49906000  0.12515200  1
  O  O3  1  0.08384700  0.72972600  0.94174700  1
  O  O4  1  0.19817600  0.38290700  0.99194000  1
  O  O5  1  0.41699900  0.56003000  0.77066300  1
  O  O6  1  0.94174700  0.08384700  0.72972600  1
  O  O7  1  0.77066300  0.41699900  0.56003000  1
  O  O8  1  0.62535400  0.00027800  0.80294800  1
  O  O9  1  0.56003000  0.77066300  0.41699900  1
  O  O10  1  0.27406000  0.05801500  0.91202500  1
  O  O11  1  0.00027800  0.80294800  0.62535400  1
  O  O12  1  0.99194000  0.19817600  0.38290700  1
  O  O13  1  0.72972600  0.94174700  0.08384700  1
  O  O14  1  0.44234300  0.22878900  0.58289100  1
  O  O15  1  0.38290700  0.99194000  0.19817600  1
  O  O16  1  0.22878900  0.58289100  0.44234300  1
  O  O17  1  0.05801500  0.91202500  0.27406000  1
  O  O18  1  0.58289100  0.44234300  0.22878900  1
  O  O19  1  0.80294800  0.62535400  0.00027800  1
  O  O20  1  0.91202500  0.27406000  0.05801500  1
  O  O21  1  0.69720700  0.50003700  0.87504100  1
  O  O22  1  0.50003700  0.87504100  0.69720700  1
  O  O23  1  0.87504100  0.69720700  0.50003700  1
loop_
_geom_bond_atom_site_label_1
_geom_bond_atom_site_label_2
_geom_bond_distance
_geom_bond_site_symmetry_2
Cu0 O13 2.260280 1_556
Cu0 O6 2.260280 1_565
Cu0 O3 2.260280 1_655
Cu0 O10 2.420102 1_665
Cu0 O17 2.420103 1_656
Cu0 O20 2.420103 1_566
Cu1 O14 2.335886 1_555
Cu1 O18 2.335886 1_555
Cu1 O16 2.335886 1_555
Cu1 O9 2.345399 1_555
Cu1 O5 2.345399 1_555
Cu1 O7 2.345399 1_555
O0 P1 1.540266 1_455
O0 Ti2 1.929996 1_555
O1 P2 1.540266 1_545
O1 Ti2 1.929996 1_555
O2 P0 1.540266 1_554
O2 Ti2 1.929996 1_555
O3 P0 1.549007 1_555
O3 Ti1 2.014848 1_455
O4 P0 1.527380 1_555
O4 W0 2.000157 1_556
O5 P0 1.548290 1_555
O5 Ti0 1.998413 1_555
O6 P1 1.549007 1_555
O6 Ti1 2.014848 1_545
O7 P1 1.548290 1_555
O7 Ti0 1.998413 1_555
O8 P3 1.540906 1_555
O8 Ti1 1.932356 1_545
O9 P2 1.548290 1_555
O9 Ti0 1.998413 1_555
O10 P3 1.550904 1_555
O10 W0 2.040914 1_556
O11 P4 1.540906 1_555
O11 Ti1 1.932356 1_455
O12 P1 1.527380 1_555
O12 W0 2.000157 1_655
O13 P2 1.549007 1_555
O13 Ti1 2.014848 1_554
O14 P3 1.547463 1_555
O14 Ti2 2.013416 1_555
O15 P2 1.527380 1_555
O15 W0 2.000157 1_565
O16 P4 1.547463 1_555
O16 Ti2 2.013416 1_555
O17 P4 1.550904 1_555
O17 W0 2.040914 1_565
O18 P5 1.547463 1_555
O18 Ti2 2.013416 1_555
O19 P5 1.540906 1_555
O19 Ti1 1.932356 1_554
O20 P5 1.550904 1_555
O20 W0 2.040914 1_655
O21 P5 1.537099 1_556
O21 Ti0 1.936603 1_555
O22 P3 1.537099 1_565
O22 Ti0 1.936603 1_555
O23 P4 1.537099 1_655
O23 Ti0 1.936603 1_555
