# generated using pymatgen
data_Li2Cr3O6
_symmetry_space_group_name_H-M   'P 1'
_cell_length_a   5.36434208
_cell_length_b   5.36450497
_cell_length_c   8.81222446
_cell_angle_alpha   99.70016067
_cell_angle_beta   80.30038345
_cell_angle_gamma   63.48729992
_symmetry_Int_Tables_number   1
_chemical_formula_structural   Li2Cr3O6
_chemical_formula_sum   'Li4 Cr6 O12'
_cell_volume   214.97018674
_cell_formula_units_Z   2
loop_
 _symmetry_equiv_pos_site_id
 _symmetry_equiv_pos_as_xyz
  1  'x, y, z'
loop_
 _atom_site_type_symbol
 _atom_site_label
 _atom_site_symmetry_multiplicity
 _atom_site_fract_x
 _atom_site_fract_y
 _atom_site_fract_z
 _atom_site_occupancy
  Li  Li0  1  0.16973700  0.83025400  0.66056900  1
  Li  Li1  1  0.83031300  0.16969400  0.33934400  1
  Li  Li2  1  0.58026700  0.91974000  0.83943100  1
  Li  Li3  1  0.91969700  0.58030500  0.16065400  1
  Cr  Cr0  1  0.00001000  0.99991100  0.99989300  1
  Cr  Cr1  1  0.08518300  0.41480300  0.82960400  1
  Cr  Cr2  1  0.41477700  0.08520700  0.17041300  1
  Cr  Cr3  1  0.33521900  0.66480000  0.32959700  1
  Cr  Cr4  1  0.66480700  0.33520400  0.67038200  1
  Cr  Cr5  1  0.74998000  0.75010500  0.50011700  1
  O  O0  1  0.21794900  0.21792300  0.99993300  1
  O  O1  1  0.09950900  0.45766600  0.33219600  1
  O  O2  1  0.18168400  0.87540300  0.16781800  1
  O  O3  1  0.45755500  0.09961800  0.66791600  1
  O  O4  1  0.29244500  0.65038300  0.83208200  1
  O  O5  1  0.65048700  0.29233600  0.16780700  1
  O  O6  1  0.53205400  0.53206400  0.50006800  1
  O  O7  1  0.56832200  0.87459300  0.33218000  1
  O  O8  1  0.78202800  0.78190200  0.99993200  1
  O  O9  1  0.87541000  0.18167000  0.83206400  1
  O  O10  1  0.87459300  0.56833000  0.66793300  1
  O  O11  1  0.96797400  0.96809000  0.50006500  1
loop_
_geom_bond_atom_site_label_1
_geom_bond_atom_site_label_2
_geom_bond_distance
_geom_bond_site_symmetry_2
Li0 O6 1.967838 1_555
Li0 O11 1.967858 1_455
Li0 O4 1.976956 1_555
Li0 O9 1.977161 1_465
Li0 O10 2.543111 1_455
Li0 O3 2.543623 1_565
Li1 O11 1.968879 1_545
Li1 O6 1.968906 1_555
Li1 O5 1.976937 1_555
Li1 O2 1.977116 1_645
Li1 O7 2.543193 1_545
Li1 O1 2.543535 1_655
Li2 O8 1.967832 1_555
Li2 O0 1.967835 1_565
Li2 O3 1.976995 1_565
Li2 O10 1.977157 1_555
Li2 O9 2.543134 1_565
Li2 O4 2.543611 1_555
Li3 O8 1.968879 1_554
Li3 O0 1.968918 1_654
Li3 O1 1.976937 1_655
Li3 O7 1.977122 1_555
Li3 O2 2.543162 1_655
Li3 O5 2.543585 1_555
Cr0 O4 1.954823 1_555
Cr0 O9 1.954981 1_465
Cr0 O5 1.955201 1_466
Cr0 O2 1.955392 1_556
Cr0 O0 1.988792 1_565
Cr0 O8 1.988975 1_455
Cr1 O4 2.021653 1_555
Cr1 O9 2.021941 1_455
Cr1 O10 2.022689 1_455
Cr1 O3 2.023084 1_555
Cr1 O8 2.024326 1_455
Cr1 O0 2.024479 1_555
Cr2 O5 2.021659 1_555
Cr2 O2 2.021913 1_545
Cr2 O7 2.023525 1_545
Cr2 O1 2.023785 1_555
Cr2 O0 2.025447 1_554
Cr2 O8 2.025503 1_544
Cr3 O1 2.021681 1_555
Cr3 O7 2.021909 1_555
Cr3 O2 2.023573 1_555
Cr3 O5 2.023822 1_555
Cr3 O11 2.025417 1_455
Cr3 O6 2.025421 1_555
Cr4 O3 2.021636 1_555
Cr4 O10 2.021964 1_555
Cr4 O9 2.022818 1_555
Cr4 O4 2.023090 1_555
Cr4 O6 2.024292 1_555
Cr4 O11 2.024339 1_545
Cr5 O3 1.954723 1_565
Cr5 O10 1.954936 1_555
Cr5 O1 1.955263 1_655
Cr5 O7 1.955420 1_555
Cr5 O6 1.988865 1_555
Cr5 O11 1.988920 1_555
