# generated using pymatgen
data_Mn5Co(PO4)6
_symmetry_space_group_name_H-M   'P 1'
_cell_length_a   8.56447186
_cell_length_b   8.56447186
_cell_length_c   8.56447147
_cell_angle_alpha   59.60446786
_cell_angle_beta   59.60446786
_cell_angle_gamma   59.60446374
_symmetry_Int_Tables_number   1
_chemical_formula_structural   Mn5Co(PO4)6
_chemical_formula_sum   'Mn5 Co1 P6 O24'
_cell_volume   440.21504308
_cell_formula_units_Z   1
loop_
 _symmetry_equiv_pos_site_id
 _symmetry_equiv_pos_as_xyz
  1  'x, y, z'
loop_
 _atom_site_type_symbol
 _atom_site_label
 _atom_site_symmetry_multiplicity
 _atom_site_fract_x
 _atom_site_fract_y
 _atom_site_fract_z
 _atom_site_occupancy
  Mn  Mn0  1  0.00143200  0.00143200  0.00143200  1
  Mn  Mn1  1  0.64367800  0.64367800  0.64367800  1
  Mn  Mn2  1  0.49985000  0.49985000  0.49985000  1
  Mn  Mn3  1  0.85718800  0.85718800  0.85718800  1
  Mn  Mn4  1  0.35640400  0.35640400  0.35640400  1
  Co  Co0  1  0.14156200  0.14156200  0.14156200  1
  P  P0  1  0.53491500  0.96271300  0.24879300  1
  P  P1  1  0.24879300  0.53491500  0.96271300  1
  P  P2  1  0.96271300  0.24879300  0.53491500  1
  P  P3  1  0.03975700  0.75281300  0.45924300  1
  P  P4  1  0.75281300  0.45924300  0.03975700  1
  P  P5  1  0.45924300  0.03975700  0.75281300  1
  O  O0  1  0.30064400  0.51159400  0.12163600  1
  O  O1  1  0.12163600  0.30064400  0.51159400  1
  O  O2  1  0.51159400  0.12163600  0.30064400  1
  O  O3  1  0.73472900  0.94420300  0.08330600  1
  O  O4  1  0.37462400  0.99015100  0.19864500  1
  O  O5  1  0.55378800  0.76488000  0.41841800  1
  O  O6  1  0.08330600  0.73472900  0.94420300  1
  O  O7  1  0.41841800  0.55378800  0.76488000  1
  O  O8  1  0.01177000  0.80055500  0.62261900  1
  O  O9  1  0.76488000  0.41841800  0.55378800  1
  O  O10  1  0.05639100  0.92073300  0.26332800  1
  O  O11  1  0.80055500  0.62261900  0.01177000  1
  O  O12  1  0.19864500  0.37462400  0.99015100  1
  O  O13  1  0.94420300  0.08330600  0.73472900  1
  O  O14  1  0.23592700  0.58339500  0.44352800  1
  O  O15  1  0.99015100  0.19864500  0.37462400  1
  O  O16  1  0.58339500  0.44352800  0.23592700  1
  O  O17  1  0.92073300  0.26332800  0.05639100  1
  O  O18  1  0.44352800  0.23592700  0.58339500  1
  O  O19  1  0.62261900  0.01177000  0.80055500  1
  O  O20  1  0.26332800  0.05639100  0.92073300  1
  O  O21  1  0.48841900  0.87881800  0.69955400  1
  O  O22  1  0.87881800  0.69955400  0.48841900  1
  O  O23  1  0.69955400  0.48841900  0.87881800  1
loop_
_geom_bond_atom_site_label_1
_geom_bond_atom_site_label_2
_geom_bond_distance
_geom_bond_site_symmetry_2
Mn0 O10 2.213756 1_545
Mn0 O17 2.213757 1_455
Mn0 O20 2.213757 1_554
Mn0 O13 2.261348 1_454
Mn0 O6 2.261348 1_544
Mn0 O3 2.261348 1_445
Mn1 O23 1.916830 1_555
Mn1 O21 1.916830 1_555
Mn1 O22 1.916830 1_555
Mn1 O5 2.014924 1_555
Mn1 O9 2.014924 1_555
Mn1 O7 2.014925 1_555
Mn2 O16 2.229646 1_555
Mn2 O14 2.229646 1_555
Mn2 O18 2.229646 1_555
Mn2 O7 2.232733 1_555
Mn2 O9 2.232733 1_555
Mn2 O5 2.232733 1_555
Mn3 O8 1.915392 1_655
Mn3 O19 1.915392 1_565
Mn3 O11 1.915393 1_556
Mn3 O3 2.004966 1_556
Mn3 O6 2.004966 1_655
Mn3 O13 2.004966 1_565
Mn4 O0 1.913751 1_555
Mn4 O2 1.913751 1_555
Mn4 O1 1.913751 1_555
Mn4 O18 2.014879 1_555
Mn4 O14 2.014879 1_555
Mn4 O16 2.014879 1_555
Co0 O15 1.905646 1_455
Co0 O4 1.905646 1_545
Co0 O12 1.905646 1_554
Co0 O20 1.956267 1_554
Co0 O17 1.956268 1_455
Co0 O10 1.956268 1_545
O0 P1 1.528547 1_554
O1 P2 1.528547 1_455
O2 P0 1.528547 1_545
O3 P0 1.568726 1_555
O4 P0 1.514051 1_555
O5 P0 1.573863 1_555
O6 P1 1.568726 1_555
O7 P1 1.573863 1_555
O8 P3 1.524096 1_555
O9 P2 1.573863 1_555
O10 P3 1.558043 1_555
O11 P4 1.524096 1_555
O12 P1 1.514051 1_555
O13 P2 1.568726 1_555
O14 P3 1.564636 1_555
O15 P2 1.514051 1_555
O16 P4 1.564637 1_555
O17 P4 1.558043 1_555
O18 P5 1.564637 1_555
O19 P5 1.524096 1_555
O20 P5 1.558043 1_555
O21 P5 1.530594 1_565
O22 P3 1.530595 1_655
O23 P4 1.530594 1_556
