# generated using pymatgen
data_ZrMnO3
_symmetry_space_group_name_H-M   'P 1'
_cell_length_a   5.47207556
_cell_length_b   5.81228011
_cell_length_c   5.47201375
_cell_angle_alpha   118.07576706
_cell_angle_beta   119.99845207
_cell_angle_gamma   61.92016266
_symmetry_Int_Tables_number   1
_chemical_formula_structural   ZrMnO3
_chemical_formula_sum   'Zr2 Mn2 O6'
_cell_volume   126.52058401
_cell_formula_units_Z   2
loop_
 _symmetry_equiv_pos_site_id
 _symmetry_equiv_pos_as_xyz
  1  'x, y, z'
loop_
 _atom_site_type_symbol
 _atom_site_label
 _atom_site_symmetry_multiplicity
 _atom_site_fract_x
 _atom_site_fract_y
 _atom_site_fract_z
 _atom_site_occupancy
  Zr  Zr0  1  0.79618600  0.61139200  0.20374200  1
  Zr  Zr1  1  0.29609000  0.11171000  0.70385700  1
  Mn  Mn0  1  0.51218900  0.46354000  0.48783500  1
  Mn  Mn1  1  0.01236500  0.96261300  0.98743500  1
  O  O0  1  0.18620600  0.30874800  0.41515500  1
  O  O1  1  0.92036800  0.30874700  0.81391600  1
  O  O2  1  0.42031100  0.80856000  0.91497900  1
  O  O3  1  0.58498400  0.30855400  0.07965500  1
  O  O4  1  0.08474700  0.80879500  0.31393400  1
  O  O5  1  0.68595300  0.80854500  0.57949300  1
loop_
_geom_bond_atom_site_label_1
_geom_bond_atom_site_label_2
_geom_bond_distance
_geom_bond_site_symmetry_2
Mn0 O0 2.148072 1_555
Mn0 O1 2.148534 1_555
Mn0 O3 2.148709 1_555
Mn0 O5 2.355456 1_555
Mn0 O2 2.356130 1_555
Mn0 O4 2.357212 1_555
Mn1 O4 2.147246 1_556
Mn1 O2 2.147401 1_555
Mn1 O5 2.147657 1_455
Mn1 O3 2.359054 1_466
Mn1 O1 2.359888 1_465
Mn1 O0 2.360812 1_566
O0 Zr1 2.067289 1_555
O0 Zr0 2.213561 1_455
O1 Zr1 2.067278 1_655
O1 Zr0 2.213260 1_556
O2 Zr0 2.067896 1_556
O2 Zr1 2.214624 1_565
O3 Zr1 2.067415 1_554
O3 Zr0 2.213668 1_555
O4 Zr0 2.067760 1_455
O4 Zr1 2.214314 1_565
O5 Zr0 2.067919 1_555
O5 Zr1 2.214361 1_565
