# generated using pymatgen
data_Er2CuO4
_symmetry_space_group_name_H-M   'P 1'
_cell_length_a   6.48362809
_cell_length_b   6.48362809
_cell_length_c   5.46700200
_cell_angle_alpha   90.00000000
_cell_angle_beta   90.00000000
_cell_angle_gamma   130.09180631
_symmetry_Int_Tables_number   1
_chemical_formula_structural   Er2CuO4
_chemical_formula_sum   'Er4 Cu2 O8'
_cell_volume   175.81443365
_cell_formula_units_Z   2
loop_
 _symmetry_equiv_pos_site_id
 _symmetry_equiv_pos_as_xyz
  1  'x, y, z'
loop_
 _atom_site_type_symbol
 _atom_site_label
 _atom_site_symmetry_multiplicity
 _atom_site_fract_x
 _atom_site_fract_y
 _atom_site_fract_z
 _atom_site_occupancy
  Er  Er0  1  0.65502500  0.34497500  0.00000000  1
  Er  Er1  1  0.34497500  0.65502500  0.00000000  1
  Er  Er2  1  0.84497500  0.15502500  0.50000000  1
  Er  Er3  1  0.15502500  0.84497500  0.50000000  1
  Cu  Cu0  1  0.00000000  0.00000000  0.00000000  1
  Cu  Cu1  1  0.50000000  0.50000000  0.50000000  1
  O  O0  1  0.69751500  0.69751500  0.19823600  1
  O  O1  1  0.50973700  0.00973700  0.25000000  1
  O  O2  1  0.00973700  0.50973700  0.25000000  1
  O  O3  1  0.19751500  0.19751500  0.30176400  1
  O  O4  1  0.80248500  0.80248500  0.69823600  1
  O  O5  1  0.99026300  0.49026300  0.75000000  1
  O  O6  1  0.49026300  0.99026300  0.75000000  1
  O  O7  1  0.30248500  0.30248500  0.80176400  1
loop_
_geom_bond_atom_site_label_1
_geom_bond_atom_site_label_2
_geom_bond_distance
_geom_bond_site_symmetry_2
Er0 O5 2.200569 1_554
Er0 O1 2.200569 1_555
Er0 O6 2.265817 1_544
Er0 O2 2.265817 1_655
Er0 O0 2.379907 1_555
Er0 O7 2.379907 1_554
Er1 O2 2.200569 1_555
Er1 O6 2.200569 1_554
Er1 O5 2.265817 1_454
Er1 O1 2.265817 1_565
Er1 O0 2.379907 1_555
Er1 O7 2.379907 1_554
Er2 O1 2.200569 1_555
Er2 O5 2.200569 1_555
Er2 O6 2.265817 1_545
Er2 O2 2.265817 1_655
Er2 O4 2.379907 1_545
Er2 O3 2.379907 1_655
Er3 O2 2.200569 1_555
Er3 O6 2.200569 1_555
Er3 O5 2.265817 1_455
Er3 O1 2.265817 1_565
Er3 O4 2.379907 1_455
Er3 O3 2.379907 1_565
Cu0 O3 1.972123 1_555
Cu0 O4 1.972123 1_444
Cu0 O7 1.978128 1_554
Cu0 O0 1.978128 1_445
Cu1 O7 1.972123 1_555
Cu1 O0 1.972123 1_555
Cu1 O4 1.978128 1_555
Cu1 O3 1.978128 1_555
