# generated using pymatgen
data_Na3Cr2P2O8F3
_symmetry_space_group_name_H-M   'P 1'
_cell_length_a   6.43040300
_cell_length_b   6.43354026
_cell_length_c   16.95396373
_cell_angle_alpha   100.67400247
_cell_angle_beta   100.59288128
_cell_angle_gamma   90.04798442
_symmetry_Int_Tables_number   1
_chemical_formula_structural   Na3Cr2P2O8F3
_chemical_formula_sum   'Na9 Cr6 P6 O24 F9'
_cell_volume   677.06550560
_cell_formula_units_Z   3
loop_
 _symmetry_equiv_pos_site_id
 _symmetry_equiv_pos_as_xyz
  1  'x, y, z'
loop_
 _atom_site_type_symbol
 _atom_site_label
 _atom_site_symmetry_multiplicity
 _atom_site_fract_x
 _atom_site_fract_y
 _atom_site_fract_z
 _atom_site_occupancy
  Na  Na0  1  0.89765400  0.56478800  0.66611600  1
  Na  Na1  1  0.84933200  0.10371500  0.66686600  1
  Na  Na2  1  0.30665300  0.83643900  0.66574100  1
  Na  Na3  1  0.95407700  0.95423900  0.32981800  1
  Na  Na4  1  0.30315400  0.44143800  0.33325800  1
  Na  Na5  1  0.44062200  0.98552400  0.33371100  1
  Na  Na6  1  0.28360800  0.31970800  0.99916200  1
  Na  Na7  1  0.79739000  0.42048300  0.00182100  1
  Na  Na8  1  0.54663700  0.83607800  0.00478600  1
  Cr  Cr0  1  0.40484300  0.39566800  0.78718200  1
  Cr  Cr1  1  0.74414000  0.72510600  0.45296300  1
  Cr  Cr2  1  0.95979300  0.93690000  0.88159700  1
  Cr  Cr3  1  0.07556900  0.06096400  0.12243200  1
  Cr  Cr4  1  0.28301200  0.27439700  0.54417500  1
  Cr  Cr5  1  0.61525700  0.60480700  0.21127700  1
  P  P0  1  0.43235800  0.92167800  0.83777100  1
  P  P1  1  0.75743200  0.25155200  0.49803200  1
  P  P2  1  0.92673800  0.41853700  0.83401300  1
  P  P3  1  0.09261200  0.59038300  0.16744400  1
  P  P4  1  0.25528900  0.75275100  0.49328300  1
  P  P5  1  0.59322200  0.09406500  0.16950700  1
  O  O0  1  0.27995200  0.95020200  0.90003100  1
  O  O1  1  0.39819800  0.70290600  0.77999500  1
  O  O2  1  0.39361900  0.08201700  0.77952800  1
  O  O3  1  0.65449400  0.94955600  0.89169400  1
  O  O4  1  0.60075100  0.26412500  0.55835600  1
  O  O5  1  0.71021700  0.38014700  0.77430500  1
  O  O6  1  0.74413000  0.03305300  0.43983400  1
  O  O7  1  0.71309400  0.41368200  0.44143200  1
  O  O8  1  0.96471900  0.25635000  0.89215300  1
  O  O9  1  0.94806100  0.63380500  0.89277800  1
  O  O10  1  0.97529000  0.28949500  0.55679800  1
  O  O11  1  0.08533700  0.39346700  0.77442200  1
  O  O12  1  0.93105900  0.60176900  0.22521000  1
  O  O13  1  0.04211800  0.71620700  0.43227900  1
  O  O14  1  0.08467700  0.37039000  0.11033400  1
  O  O15  1  0.04592100  0.74694100  0.10822500  1
  O  O16  1  0.28585100  0.58898600  0.55039100  1
  O  O17  1  0.26977600  0.96904400  0.55204400  1
  O  O18  1  0.31039200  0.63562700  0.22579800  1
  O  O19  1  0.42536800  0.73725000  0.43905000  1
  O  O20  1  0.38038400  0.04615100  0.10749600  1
  O  O21  1  0.63419400  0.92601800  0.22519300  1
  O  O22  1  0.59268800  0.30775700  0.22792800  1
  O  O23  1  0.76117800  0.08513900  0.11462400  1
  F  F0  1  0.32970500  0.33834000  0.66562900  1
  F  F1  1  0.47136000  0.45272900  0.90746300  1
  F  F2  1  0.66592200  0.68064300  0.33207500  1
  F  F3  1  0.82018900  0.78566900  0.57197700  1
  F  F4  1  0.92610300  0.87933000  0.76217900  1
  F  F5  1  0.00347400  0.01647600  0.00206500  1
  F  F6  1  0.14853900  0.10838800  0.24218900  1
  F  F7  1  0.24039400  0.20798500  0.42406800  1
  F  F8  1  0.56186000  0.54733600  0.09150100  1
loop_
_geom_bond_atom_site_label_1
_geom_bond_atom_site_label_2
_geom_bond_distance
_geom_bond_site_symmetry_2
Na0 O10 2.438591 1_555
Na0 O11 2.445461 1_655
Na0 O5 2.801036 1_555
Na0 O4 2.850747 1_555
Na1 O4 2.574774 1_555
Na1 O5 2.585098 1_555
Na1 O11 2.611871 1_655
Na1 O10 2.635753 1_555
Na2 O17 2.222884 1_555
Na2 O2 2.236810 1_565
Na2 O1 2.243842 1_555
Na2 O16 2.264293 1_555
Na3 O21 2.439081 1_555
Na3 O6 2.476958 1_565
Na3 O13 2.511688 1_655
Na3 O12 2.592789 1_555
Na4 O19 2.381436 1_555
Na4 O18 2.399258 1_555
Na5 O6 2.375683 1_565
Na5 O21 2.379645 1_555
Na5 O19 2.621313 1_555
Na5 O18 2.650244 1_555
Na6 O14 2.440218 1_556
Na6 O8 2.453436 1_455
Na6 O0 2.642302 1_545
Na6 O20 2.763536 1_556
Na7 O8 2.395822 1_554
Na7 O14 2.423287 1_655
Na8 O3 2.386817 1_554
Na8 O20 2.411809 1_565
Na8 O23 2.425887 1_565
Na8 O0 2.449398 1_554
Cr0 F1 1.969251 1_555
Cr0 F0 1.992098 1_555
Cr0 O2 1.998306 1_555
Cr0 O1 2.002793 1_555
Cr0 O5 2.015821 1_555
Cr0 O11 2.025732 1_555
Cr1 F3 1.951403 1_555
Cr1 O7 1.982979 1_555
Cr1 F2 1.984681 1_555
Cr1 O13 2.009366 1_655
Cr1 O19 2.023088 1_555
Cr1 O6 2.034211 1_565
Cr2 F4 1.960606 1_555
Cr2 F5 1.978366 1_666
Cr2 O9 1.996488 1_555
Cr2 O3 2.002182 1_555
Cr2 O0 2.024029 1_655
Cr2 O8 2.029387 1_565
Cr3 F6 1.963574 1_555
Cr3 F5 1.974050 1_555
Cr3 O15 1.994518 1_545
Cr3 O23 2.009623 1_455
Cr3 O20 2.022125 1_555
Cr3 O14 2.040559 1_555
Cr4 F7 1.968876 1_555
Cr4 F0 1.989492 1_555
Cr4 O17 1.996319 1_545
Cr4 O16 2.006966 1_555
Cr4 O4 2.015515 1_555
Cr4 O10 2.029559 1_455
Cr5 F8 1.960499 1_555
Cr5 F2 1.980601 1_555
Cr5 O22 1.991845 1_555
Cr5 O12 2.001368 1_555
Cr5 O18 2.025617 1_555
Cr5 O21 2.037012 1_555
O0 P0 1.554738 1_555
O1 P0 1.548673 1_555
O2 P0 1.545486 1_545
O3 P0 1.538523 1_555
O4 P1 1.554335 1_555
O5 P2 1.553349 1_555
O6 P1 1.553025 1_555
O7 P1 1.536489 1_555
O8 P2 1.553365 1_555
O9 P2 1.538758 1_555
O10 P1 1.552730 1_555
O11 P2 1.550989 1_455
O12 P3 1.546396 1_655
O13 P4 1.546652 1_555
O14 P3 1.554777 1_555
O15 P3 1.541732 1_555
O16 P4 1.547375 1_555
O17 P4 1.545844 1_555
O18 P3 1.551747 1_555
O19 P4 1.545128 1_555
O20 P5 1.556824 1_555
O21 P5 1.554584 1_565
O22 P5 1.538809 1_555
O23 P5 1.544454 1_555
F1 Na6 2.405868 1_555
F1 Na7 2.426548 1_556
F1 Na8 2.690040 1_556
F2 Na5 2.438529 1_555
F2 Na3 2.564903 1_555
F2 Na4 2.798757 1_555
F3 Na0 2.316004 1_555
F3 Na1 2.340742 1_565
F4 Na0 2.334512 1_555
F4 Na1 2.347540 1_565
F5 Na6 2.667487 1_554
F6 Na5 2.438338 1_545
F6 Na3 2.445632 1_445
F6 Na4 2.483954 1_555
F7 Na4 2.423430 1_555
F7 Na5 2.443145 1_545
F7 Na3 2.560294 1_445
F8 Na7 2.379216 1_555
F8 Na6 2.431753 1_554
F8 Na8 2.565315 1_555
