# generated using pymatgen
data_Li4Ti4Mn4CrO18
_symmetry_space_group_name_H-M   'P 1'
_cell_length_a   2.95595700
_cell_length_b   9.15131000
_cell_length_c   25.22172700
_cell_angle_alpha   90.00000000
_cell_angle_beta   90.00000000
_cell_angle_gamma   90.00000000
_symmetry_Int_Tables_number   1
_chemical_formula_structural   Li4Ti4Mn4CrO18
_chemical_formula_sum   'Li8 Ti8 Mn8 Cr2 O36'
_cell_volume   682.26988156
_cell_formula_units_Z   2
loop_
 _symmetry_equiv_pos_site_id
 _symmetry_equiv_pos_as_xyz
  1  'x, y, z'
loop_
 _atom_site_type_symbol
 _atom_site_label
 _atom_site_symmetry_multiplicity
 _atom_site_fract_x
 _atom_site_fract_y
 _atom_site_fract_z
 _atom_site_occupancy
  Li  Li0  1  0.50000000  0.19103500  0.99702700  1
  Li  Li1  1  0.50000000  0.20528000  0.19468100  1
  Li  Li2  1  0.50000000  0.29472000  0.69468100  1
  Li  Li3  1  0.50000000  0.30896500  0.49702700  1
  Li  Li4  1  0.50000000  0.69103500  0.50297300  1
  Li  Li5  1  0.50000000  0.70528000  0.30531900  1
  Li  Li6  1  0.50000000  0.79472000  0.80531900  1
  Li  Li7  1  0.50000000  0.80896500  0.00297300  1
  Ti  Ti0  1  0.50000000  0.00347400  0.10297700  1
  Ti  Ti1  1  0.00000000  0.14575300  0.80506100  1
  Ti  Ti2  1  0.00000000  0.35424700  0.30506100  1
  Ti  Ti3  1  0.50000000  0.49652600  0.60297700  1
  Ti  Ti4  1  0.50000000  0.50347400  0.39702300  1
  Ti  Ti5  1  0.00000000  0.64575300  0.69493900  1
  Ti  Ti6  1  0.00000000  0.85424700  0.19493900  1
  Ti  Ti7  1  0.50000000  0.99652600  0.89702300  1
  Mn  Mn0  1  0.50000000  0.01855700  0.31367000  1
  Mn  Mn1  1  0.00000000  0.14382700  0.58629700  1
  Mn  Mn2  1  0.00000000  0.35617300  0.08629700  1
  Mn  Mn3  1  0.50000000  0.48144300  0.81367000  1
  Mn  Mn4  1  0.50000000  0.51855700  0.18633000  1
  Mn  Mn5  1  0.00000000  0.64382700  0.91370300  1
  Mn  Mn6  1  0.00000000  0.85617300  0.41370300  1
  Mn  Mn7  1  0.50000000  0.98144300  0.68633000  1
  Cr  Cr0  1  0.50000000  0.00000000  0.50000000  1
  Cr  Cr1  1  0.50000000  0.50000000  0.00000000  1
  O  O0  1  0.50000000  0.99538700  0.42077100  1
  O  O1  1  0.50000000  0.00461300  0.57922900  1
  O  O2  1  0.00000000  0.04199200  0.94163500  1
  O  O3  1  0.00000000  0.05272300  0.16009800  1
  O  O4  1  0.00000000  0.11478800  0.66196500  1
  O  O5  1  0.50000000  0.10877900  0.75767200  1
  O  O6  1  0.00000000  0.15029600  0.50773000  1
  O  O7  1  0.00000000  0.14630700  0.28971700  1
  O  O8  1  0.50000000  0.17757500  0.85764000  1
  O  O9  1  0.50000000  0.21285400  0.08602100  1
  O  O10  1  0.50000000  0.28714600  0.58602100  1
  O  O11  1  0.50000000  0.32242500  0.35764000  1
  O  O12  1  0.00000000  0.35369300  0.78971700  1
  O  O13  1  0.00000000  0.34970400  0.00773000  1
  O  O14  1  0.50000000  0.39122100  0.25767200  1
  O  O15  1  0.00000000  0.38521200  0.16196500  1
  O  O16  1  0.00000000  0.44727700  0.66009800  1
  O  O17  1  0.00000000  0.45800800  0.44163500  1
  O  O18  1  0.50000000  0.49538700  0.07922900  1
  O  O19  1  0.50000000  0.50461300  0.92077100  1
  O  O20  1  0.00000000  0.54199200  0.55836500  1
  O  O21  1  0.00000000  0.55272300  0.33990200  1
  O  O22  1  0.00000000  0.61478800  0.83803500  1
  O  O23  1  0.50000000  0.60877900  0.74232800  1
  O  O24  1  0.00000000  0.65029600  0.99227000  1
  O  O25  1  0.00000000  0.64630700  0.21028300  1
  O  O26  1  0.50000000  0.67757500  0.64236000  1
  O  O27  1  0.50000000  0.71285400  0.41397900  1
  O  O28  1  0.50000000  0.78714600  0.91397900  1
  O  O29  1  0.50000000  0.82242500  0.14236000  1
  O  O30  1  0.00000000  0.85369300  0.71028300  1
  O  O31  1  0.00000000  0.84970400  0.49227000  1
  O  O32  1  0.50000000  0.89122100  0.24232800  1
  O  O33  1  0.00000000  0.88521200  0.33803500  1
  O  O34  1  0.00000000  0.94727700  0.83990200  1
  O  O35  1  0.00000000  0.95800800  0.05836500  1
loop_
_geom_bond_atom_site_label_1
_geom_bond_atom_site_label_2
_geom_bond_distance
_geom_bond_site_symmetry_2
Li0 O13 2.089421 1_556
Li0 O13 2.089421 1_656
Li0 O9 2.253446 1_556
Li0 O2 2.448793 1_555
Li0 O2 2.448793 1_655
Li1 O3 2.212310 1_655
Li1 O3 2.212310 1_555
Li1 O14 2.327994 1_555
Li1 O15 2.361490 1_555
Li1 O15 2.361490 1_655
Li2 O16 2.212310 1_555
Li2 O16 2.212310 1_655
Li2 O5 2.327994 1_555
Li2 O4 2.361490 1_555
Li2 O4 2.361490 1_655
Li3 O6 2.089421 1_655
Li3 O6 2.089421 1_555
Li3 O10 2.253446 1_555
Li3 O17 2.448793 1_555
Li3 O17 2.448793 1_655
Li4 O31 2.089421 1_655
Li4 O31 2.089421 1_555
Li4 O27 2.253446 1_555
Li4 O20 2.448793 1_555
Li4 O20 2.448793 1_655
Li5 O21 2.212310 1_655
Li5 O21 2.212310 1_555
Li5 O32 2.327994 1_555
Li5 O33 2.361490 1_555
Li5 O33 2.361490 1_655
Li6 O34 2.212310 1_655
Li6 O34 2.212310 1_555
Li6 O23 2.327994 1_555
Li6 O22 2.361490 1_555
Li6 O22 2.361490 1_655
Li7 O24 2.089421 1_654
Li7 O24 2.089421 1_554
Li7 O28 2.253446 1_554
Li7 O35 2.448793 1_655
Li7 O35 2.448793 1_555
Mn0 O7 1.978926 1_555
Mn0 O7 1.978926 1_655
Mn0 O33 2.012747 1_645
Mn0 O33 2.012747 1_545
Mn0 O32 2.143742 1_545
Mn1 O4 1.926891 1_555
Mn1 O1 1.959401 1_555
Mn1 O1 1.959401 1_455
Mn1 O10 1.976019 1_555
Mn1 O10 1.976019 1_455
Mn1 O6 1.982480 1_555
Mn2 O15 1.926891 1_555
Mn2 O18 1.959401 1_555
Mn2 O18 1.959401 1_455
Mn2 O9 1.976019 1_455
Mn2 O9 1.976019 1_555
Mn2 O13 1.982480 1_555
Mn3 O12 1.978926 1_655
Mn3 O12 1.978926 1_555
Mn3 O22 2.012747 1_555
Mn3 O22 2.012747 1_655
Mn3 O23 2.143742 1_555
Mn4 O25 1.978926 1_555
Mn4 O25 1.978926 1_655
Mn4 O15 2.012747 1_555
Mn4 O15 2.012747 1_655
Mn4 O14 2.143742 1_555
Mn5 O22 1.926891 1_555
Mn5 O19 1.959401 1_455
Mn5 O19 1.959401 1_555
Mn5 O28 1.976019 1_455
Mn5 O28 1.976019 1_555
Mn5 O24 1.982480 1_555
Mn6 O33 1.926891 1_555
Mn6 O0 1.959401 1_555
Mn6 O0 1.959401 1_455
Mn6 O27 1.976019 1_555
Mn6 O27 1.976019 1_455
Mn6 O31 1.982480 1_555
Mn7 O30 1.978926 1_555
Mn7 O30 1.978926 1_655
Mn7 O4 2.012747 1_565
Mn7 O4 2.012747 1_665
Mn7 O5 2.143742 1_565
Cr0 O1 1.998738 1_555
Cr0 O0 1.998738 1_545
Cr0 O6 2.028342 1_655
Cr0 O6 2.028342 1_555
Cr0 O31 2.028342 1_645
Cr0 O31 2.028342 1_545
Cr1 O19 1.998738 1_554
Cr1 O18 1.998738 1_555
Cr1 O24 2.028342 1_654
Cr1 O24 2.028342 1_554
Cr1 O13 2.028342 1_555
Cr1 O13 2.028342 1_655
O2 Ti7 1.903574 1_545
O2 Ti7 1.903574 1_445
O3 Ti6 2.017722 1_545
O3 Ti0 2.112613 1_455
O3 Ti0 2.112613 1_555
O5 Ti1 1.930671 1_655
O5 Ti1 1.930671 1_555
O7 Ti2 1.941877 1_555
O8 Ti7 1.931777 1_545
O8 Ti1 2.006952 1_655
O8 Ti1 2.006952 1_555
O9 Ti0 1.963247 1_555
O10 Ti3 1.963247 1_555
O11 Ti4 1.931777 1_555
O11 Ti2 2.006952 1_555
O11 Ti2 2.006952 1_655
O12 Ti1 1.941877 1_555
O14 Ti2 1.930671 1_555
O14 Ti2 1.930671 1_655
O16 Ti5 2.017722 1_555
O16 Ti3 2.112613 1_455
O16 Ti3 2.112613 1_555
O17 Ti4 1.903574 1_555
O17 Ti4 1.903574 1_455
O20 Ti3 1.903574 1_455
O20 Ti3 1.903574 1_555
O21 Ti2 2.017722 1_555
O21 Ti4 2.112613 1_455
O21 Ti4 2.112613 1_555
O23 Ti5 1.930671 1_555
O23 Ti5 1.930671 1_655
O25 Ti6 1.941877 1_555
O26 Ti3 1.931777 1_555
O26 Ti5 2.006952 1_655
O26 Ti5 2.006952 1_555
O27 Ti4 1.963247 1_555
O28 Ti7 1.963247 1_555
O29 Ti0 1.931777 1_565
O29 Ti6 2.006952 1_555
O29 Ti6 2.006952 1_655
O30 Ti5 1.941877 1_555
O32 Ti6 1.930671 1_655
O32 Ti6 1.930671 1_555
O34 Ti1 2.017722 1_565
O34 Ti7 2.112613 1_455
O34 Ti7 2.112613 1_555
O35 Ti0 1.903574 1_565
O35 Ti0 1.903574 1_465
