# generated using pymatgen
data_Na6Mn7O10
_symmetry_space_group_name_H-M   'P 1'
_cell_length_a   11.33808000
_cell_length_b   11.33808000
_cell_length_c   8.70607308
_cell_angle_alpha   72.50442289
_cell_angle_beta   72.50442289
_cell_angle_gamma   17.88687042
_symmetry_Int_Tables_number   1
_chemical_formula_structural   Na6Mn7O10
_chemical_formula_sum   'Na6 Mn7 O10'
_cell_volume   327.43924777
_cell_formula_units_Z   1
loop_
 _symmetry_equiv_pos_site_id
 _symmetry_equiv_pos_as_xyz
  1  'x, y, z'
loop_
 _atom_site_type_symbol
 _atom_site_label
 _atom_site_symmetry_multiplicity
 _atom_site_fract_x
 _atom_site_fract_y
 _atom_site_fract_z
 _atom_site_occupancy
  Na  Na0  1  0.00046300  0.00046300  0.17435400  1
  Na  Na1  1  0.87467400  0.87467400  0.74183900  1
  Na  Na2  1  0.28354400  0.28354400  0.65065800  1
  Na  Na3  1  0.70680700  0.70680700  0.40030700  1
  Na  Na4  1  0.10807500  0.10807500  0.26111900  1
  Na  Na5  1  0.00890900  0.00890900  0.82476400  1
  Mn  Mn0  1  0.39759700  0.39759700  0.96252400  1
  Mn  Mn1  1  0.43609600  0.43609600  0.47407900  1
  Mn  Mn2  1  0.84474600  0.84474600  0.28129800  1
  Mn  Mn3  1  0.25081800  0.25081800  0.08538600  1
  Mn  Mn4  1  0.15037300  0.15037300  0.70040700  1
  Mn  Mn5  1  0.55153000  0.55153000  0.53661500  1
  Mn  Mn6  1  0.64308300  0.64308300  0.96841300  1
  O  O0  1  0.46257000  0.46257000  0.70710200  1
  O  O1  1  0.88474000  0.88474000  0.47028100  1
  O  O2  1  0.91895300  0.91895300  0.05977300  1
  O  O3  1  0.32126700  0.32126700  0.87941800  1
  O  O4  1  0.28971600  0.28971600  0.28745500  1
  O  O5  1  0.69977700  0.69977700  0.70345300  1
  O  O6  1  0.69020100  0.69020100  0.13888000  1
  O  O7  1  0.09498500  0.09498500  0.94761500  1
  O  O8  1  0.10301800  0.10301800  0.53570900  1
  O  O9  1  0.52683700  0.52683700  0.32558200  1
loop_
_geom_bond_atom_site_label_1
_geom_bond_atom_site_label_2
_geom_bond_distance
_geom_bond_site_symmetry_2
Na0 O2 2.331844 1_445
Na0 O9 2.379645 1_545
Na0 O9 2.379645 1_455
Na0 O7 2.415745 1_554
Na1 O3 2.258430 1_565
Na1 O3 2.258430 1_655
Na1 O1 2.305608 1_555
Na1 O0 2.590838 1_655
Na1 O0 2.590838 1_565
Na2 O3 2.388485 1_555
Na2 O5 2.512779 1_545
Na2 O5 2.512779 1_455
Na3 O6 2.415341 1_555
Na3 O4 2.531929 1_655
Na3 O4 2.531929 1_565
Na3 O5 2.595625 1_555
Na3 O8 2.869413 1_565
Na3 O8 2.869413 1_655
Na4 O8 2.358596 1_555
Na4 O9 2.472185 1_545
Na4 O9 2.472185 1_455
Na4 O6 2.536152 1_545
Na4 O6 2.536152 1_455
Na4 O7 2.832431 1_554
Na5 O2 2.395241 1_446
Na5 O0 2.425039 1_545
Na5 O0 2.425039 1_455
Na5 O7 2.473234 1_555
Na5 O8 2.747356 1_555
Mn0 O3 2.049387 1_555
Mn0 O2 2.073403 1_456
Mn0 O2 2.073403 1_546
Mn0 O0 2.256831 1_555
Mn1 O9 2.050256 1_555
Mn1 O1 2.110558 1_545
Mn1 O1 2.110558 1_455
Mn1 O0 2.280274 1_555
Mn2 O1 2.099236 1_555
Mn2 O2 2.128706 1_555
Mn2 O4 2.142193 1_655
Mn2 O4 2.142193 1_565
Mn3 O3 1.995857 1_554
Mn3 O6 2.186902 1_545
Mn3 O6 2.186902 1_455
Mn3 O4 2.187946 1_555
Mn4 O8 2.026579 1_555
Mn4 O5 2.085686 1_545
Mn4 O5 2.085686 1_455
Mn4 O7 2.132155 1_555
Mn5 O9 2.073662 1_555
Mn5 O0 2.091365 1_555
Mn5 O8 2.105124 1_565
Mn5 O8 2.105124 1_655
Mn6 O6 2.066392 1_556
Mn6 O7 2.102178 1_655
Mn6 O7 2.102178 1_565
Mn6 O5 2.269555 1_555
