# generated using pymatgen
data_Li3V4O7F5
_symmetry_space_group_name_H-M   'P 1'
_cell_length_a   5.13096901
_cell_length_b   5.35381553
_cell_length_c   9.15551234
_cell_angle_alpha   86.98593094
_cell_angle_beta   71.56398670
_cell_angle_gamma   116.93787459
_symmetry_Int_Tables_number   1
_chemical_formula_structural   Li3V4O7F5
_chemical_formula_sum   'Li3 V4 O7 F5'
_cell_volume   206.92661279
_cell_formula_units_Z   1
loop_
 _symmetry_equiv_pos_site_id
 _symmetry_equiv_pos_as_xyz
  1  'x, y, z'
loop_
 _atom_site_type_symbol
 _atom_site_label
 _atom_site_symmetry_multiplicity
 _atom_site_fract_x
 _atom_site_fract_y
 _atom_site_fract_z
 _atom_site_occupancy
  Li  Li0  1  0.31023200  0.76140200  0.15407300  1
  Li  Li1  1  0.27930600  0.21682200  0.65563700  1
  Li  Li2  1  0.80743900  0.49432900  0.89845100  1
  V  V0  1  0.98890600  0.51202500  0.50358500  1
  V  V1  1  0.06908300  0.04546400  0.00089300  1
  V  V2  1  0.53139500  0.32563800  0.26373700  1
  V  V3  1  0.47794500  0.73389500  0.76031100  1
  O  O0  1  0.24833700  0.92329900  0.81777600  1
  O  O1  1  0.25942900  0.44498200  0.31302400  1
  O  O2  1  0.37050000  0.18314100  0.06681600  1
  O  O3  1  0.12639800  0.36327500  0.86916200  1
  O  O4  1  0.86668200  0.62351000  0.12522700  1
  O  O5  1  0.62144700  0.32566900  0.42970000  1
  O  O6  1  0.73291900  0.57863300  0.68238700  1
  F  F0  1  0.15997900  0.89085500  0.35936800  1
  F  F1  1  0.36255600  0.68149400  0.57097700  1
  F  F2  1  0.61516300  0.79341600  0.94420600  1
  F  F3  1  0.72878100  0.06360300  0.17437100  1
  F  F4  1  0.88175400  0.13417300  0.62942500  1
loop_
_geom_bond_atom_site_label_1
_geom_bond_atom_site_label_2
_geom_bond_distance
_geom_bond_site_symmetry_2
Li0 O1 2.038703 1_555
Li0 O4 2.161618 1_455
Li0 O2 2.203053 1_565
Li1 O0 2.019316 1_545
Li1 O5 2.085641 1_555
Li1 O3 2.191016 1_555
Li1 O6 2.356879 1_555
Li2 O3 2.006284 1_655
Li2 O2 2.082775 1_556
Li2 O6 2.191795 1_555
Li2 O0 2.234980 1_655
Li2 O4 2.289378 1_556
O0 V3 1.854586 1_555
O0 V1 1.941528 1_566
O1 V2 1.731776 1_555
O1 V0 2.021136 1_455
O2 V1 1.704042 1_555
O2 V2 2.242641 1_555
O3 V1 1.882200 1_556
O3 V3 1.896362 1_555
O4 V2 1.741460 1_555
O4 V1 2.081801 1_665
O5 V2 1.722300 1_555
O5 V0 2.044777 1_555
O6 V3 1.835442 1_555
O6 V0 1.912592 1_555
F0 V0 1.999932 1_455
F0 Li0 2.076564 1_555
F0 V2 2.127872 1_565
F1 V3 1.995961 1_555
F1 V0 2.027441 1_455
F1 Li1 2.365846 1_555
F2 Li0 1.997552 1_556
F2 V3 2.008688 1_555
F2 Li2 2.225596 1_555
F2 V1 2.346351 1_666
F3 V1 1.999162 1_655
F3 Li0 2.097651 1_545
F3 V2 2.132412 1_555
F4 Li1 1.979210 1_655
F4 V0 2.017064 1_555
F4 V3 2.111384 1_545
