# generated using pymatgen
data_LiZnBO3
_symmetry_space_group_name_H-M   'P 1'
_cell_length_a   5.06329200
_cell_length_b   5.06515404
_cell_length_c   11.50326455
_cell_angle_alpha   89.97753263
_cell_angle_beta   90.57292428
_cell_angle_gamma   119.97501587
_symmetry_Int_Tables_number   1
_chemical_formula_structural   LiZnBO3
_chemical_formula_sum   'Li4 Zn4 B4 O12'
_cell_volume   255.53995031
_cell_formula_units_Z   4
loop_
 _symmetry_equiv_pos_site_id
 _symmetry_equiv_pos_as_xyz
  1  'x, y, z'
loop_
 _atom_site_type_symbol
 _atom_site_label
 _atom_site_symmetry_multiplicity
 _atom_site_fract_x
 _atom_site_fract_y
 _atom_site_fract_z
 _atom_site_occupancy
  Li  Li0  1  0.64467500  0.65187500  0.53237200  1
  Li  Li1  1  0.65049900  0.63104100  0.71694000  1
  Li  Li2  1  0.32858200  0.35952600  0.31384200  1
  Li  Li3  1  0.34341900  0.35088100  0.93565800  1
  Zn  Zn0  1  0.99805300  0.66912700  0.33967600  1
  Zn  Zn1  1  0.32009400  0.98099300  0.12291300  1
  Zn  Zn2  1  0.99526600  0.32277300  0.62547600  1
  Zn  Zn3  1  0.69561700  0.01532700  0.90917800  1
  B  B0  1  0.99175500  0.33036100  0.12580200  1
  B  B1  1  0.32767000  0.98899500  0.62522900  1
  B  B2  1  0.67151800  0.01961400  0.37051900  1
  B  B3  1  0.01483600  0.66729500  0.87938200  1
  O  O0  1  0.98321300  0.58672500  0.16517700  1
  O  O1  1  0.58634700  0.95564300  0.63436300  1
  O  O2  1  0.65687400  0.73673000  0.37455700  1
  O  O3  1  0.73316800  0.65515900  0.87479000  1
  O  O4  1  0.94652400  0.28128400  0.39896400  1
  O  O5  1  0.27329700  0.93876100  0.91062000  1
  O  O6  1  0.72867500  0.07878000  0.08346900  1
  O  O7  1  0.03648500  0.73092900  0.61711500  1
  O  O8  1  0.26540600  0.33236000  0.12705400  1
  O  O9  1  0.36076500  0.28013400  0.62452300  1
  O  O10  1  0.41155100  0.03334200  0.34149300  1
  O  O11  1  0.03070900  0.40734300  0.85088600  1
loop_
_geom_bond_atom_site_label_1
_geom_bond_atom_site_label_2
_geom_bond_distance
_geom_bond_site_symmetry_2
Li0 O2 1.859914 1_555
Li0 O9 2.014885 1_555
Li0 O7 2.052833 1_655
Li0 O1 2.072072 1_555
Li1 O3 1.849623 1_555
Li1 O9 1.950958 1_555
Li1 O1 2.058481 1_555
Li1 O7 2.109620 1_655
Li2 O10 1.922964 1_555
Li2 O2 1.924985 1_555
Li2 O4 2.032128 1_455
Li2 O8 2.163458 1_555
Li3 O3 1.935868 1_555
Li3 O5 1.955584 1_545
Li3 O11 1.990243 1_555
Li3 O8 2.234372 1_556
B0 O8 1.380475 1_655
B0 O6 1.388055 1_555
B0 O0 1.396482 1_555
B1 O9 1.398526 1_565
B1 O7 1.400951 1_555
B1 O1 1.404767 1_555
B2 O10 1.389815 1_555
B2 O4 1.396322 1_555
B2 O2 1.398060 1_545
B3 O5 1.387553 1_555
B3 O3 1.396931 1_455
B3 O11 1.397930 1_555
O0 Zn1 1.935459 1_655
O0 Zn0 2.043389 1_555
O1 Zn2 1.977908 1_565
O2 Zn0 1.966600 1_555
O3 Zn3 1.967076 1_565
O4 Zn0 1.970470 1_555
O5 Zn3 1.973621 1_565
O5 Zn1 2.450258 1_556
O6 Zn1 1.930204 1_545
O6 Zn3 2.022632 1_554
O7 Zn2 1.973814 1_455
O8 Zn1 1.933686 1_545
O9 Zn2 1.967582 1_455
O10 Zn0 1.981624 1_445
O11 Zn3 1.981495 1_455
