# generated using pymatgen
data_HgSeNO3
_symmetry_space_group_name_H-M   'P 1'
_cell_length_a   5.31123300
_cell_length_b   6.67185700
_cell_length_c   14.96425991
_cell_angle_alpha   69.00461441
_cell_angle_beta   90.00000000
_cell_angle_gamma   90.00000000
_symmetry_Int_Tables_number   1
_chemical_formula_structural   HgSeNO3
_chemical_formula_sum   'Hg4 Se4 N4 O12'
_cell_volume   495.06530179
_cell_formula_units_Z   4
loop_
 _symmetry_equiv_pos_site_id
 _symmetry_equiv_pos_as_xyz
  1  'x, y, z'
loop_
 _atom_site_type_symbol
 _atom_site_label
 _atom_site_symmetry_multiplicity
 _atom_site_fract_x
 _atom_site_fract_y
 _atom_site_fract_z
 _atom_site_occupancy
  Hg  Hg0  1  0.94601000  0.36161000  0.20178700  1
  Hg  Hg1  1  0.55399000  0.36161000  0.70178700  1
  Hg  Hg2  1  0.05399000  0.63839000  0.79821300  1
  Hg  Hg3  1  0.44601000  0.63839000  0.29821300  1
  Se  Se0  1  0.51067700  0.69474300  0.08371700  1
  Se  Se1  1  0.98932300  0.69474300  0.58371700  1
  Se  Se2  1  0.48932300  0.30525700  0.91628300  1
  Se  Se3  1  0.01067700  0.30525700  0.41628300  1
  N  N0  1  0.98538900  0.11744300  0.12385000  1
  N  N1  1  0.51461100  0.11744300  0.62385000  1
  N  N2  1  0.01461100  0.88255700  0.87615000  1
  N  N3  1  0.48538900  0.88255700  0.37615000  1
  O  O0  1  0.40763500  0.46229700  0.17196700  1
  O  O1  1  0.09236500  0.46229700  0.67196700  1
  O  O2  1  0.59236500  0.53770300  0.82803300  1
  O  O3  1  0.90763500  0.53770300  0.32803300  1
  O  O4  1  0.51619900  0.85949100  0.15218200  1
  O  O5  1  0.98380100  0.85949100  0.65218200  1
  O  O6  1  0.48380100  0.14050900  0.84781800  1
  O  O7  1  0.01619900  0.14050900  0.34781800  1
  O  O8  1  0.82291300  0.62341900  0.07504200  1
  O  O9  1  0.67708700  0.62341900  0.57504200  1
  O  O10  1  0.17708700  0.37658100  0.92495800  1
  O  O11  1  0.32291300  0.37658100  0.42495800  1
loop_
_geom_bond_atom_site_label_1
_geom_bond_atom_site_label_2
_geom_bond_distance
_geom_bond_site_symmetry_2
Hg0 O8 2.168371 1_555
Hg0 O7 2.186409 1_655
Hg0 N0 2.327911 1_555
Hg0 O0 2.539075 1_655
Hg0 O3 2.565411 1_555
Hg1 O9 2.168371 1_555
Hg1 O6 2.186409 1_555
Hg1 N1 2.327911 1_555
Hg1 O1 2.539075 1_555
Hg1 O2 2.565411 1_555
Hg2 O10 2.168371 1_555
Hg2 O5 2.186409 1_455
Hg2 N2 2.327911 1_555
Hg2 O2 2.539075 1_455
Hg2 O1 2.565411 1_555
Hg3 O11 2.168371 1_555
Hg3 O4 2.186409 1_555
Hg3 N3 2.327911 1_555
Hg3 O3 2.539075 1_555
Hg3 O0 2.565411 1_555
O0 Se0 1.726562 1_555
O1 Se1 1.726562 1_455
O2 Se2 1.726562 1_555
O3 Se3 1.726562 1_655
O4 Se0 1.750907 1_555
O5 Se1 1.750907 1_555
O6 Se2 1.750907 1_555
O7 Se3 1.750907 1_555
O8 Se0 1.742905 1_555
O9 Se1 1.742905 1_555
O10 Se2 1.742905 1_555
O11 Se3 1.742905 1_555
