# generated using pymatgen
data_Sm2TeO6
_symmetry_space_group_name_H-M   'P 1'
_cell_length_a   9.15080252
_cell_length_b   9.15122627
_cell_length_c   5.34681256
_cell_angle_alpha   90.00002202
_cell_angle_beta   89.99898617
_cell_angle_gamma   120.00150668
_symmetry_Int_Tables_number   1
_chemical_formula_structural   Sm2TeO6
_chemical_formula_sum   'Sm6 Te3 O18'
_cell_volume   387.75506050
_cell_formula_units_Z   3
loop_
 _symmetry_equiv_pos_site_id
 _symmetry_equiv_pos_as_xyz
  1  'x, y, z'
loop_
 _atom_site_type_symbol
 _atom_site_label
 _atom_site_symmetry_multiplicity
 _atom_site_fract_x
 _atom_site_fract_y
 _atom_site_fract_z
 _atom_site_occupancy
  Sm  Sm0  1  -0.00000023  0.60947524  0.49999983  1
  Sm  Sm1  1  0.00000028  0.27260852  -0.00000060  1
  Sm  Sm2  1  0.39054955  0.39053244  0.49999870  1
  Sm  Sm3  1  0.27258619  -0.00001604  -0.00005092  1
  Sm  Sm4  1  0.72741426  0.72739732  0.00005114  1
  Sm  Sm5  1  0.60945073  -0.00001750  0.50000175  1
  Te  Te0  1  0.33335851  0.66664006  0.98961526  1
  Te  Te1  1  -0.00000025  0.00004331  0.49999969  1
  Te  Te2  1  0.66664161  0.33328126  0.01038531  1
  O  O0  1  0.06646008  0.87257685  0.29053845  1
  O  O1  1  0.23266647  0.76416220  0.77850693  1
  O  O2  1  0.13701164  0.54586721  0.19752014  1
  O  O3  1  0.40884820  0.86299273  0.19749706  1
  O  O4  1  0.23584907  0.46849590  0.77855315  1
  O  O5  1  0.12743871  0.19394184  0.29057939  1
  O  O6  1  0.19390567  0.12745175  0.70947192  1
  O  O7  1  0.53153718  0.76732425  0.77854708  1
  O  O8  1  0.45415871  0.59115394  0.19751251  1
  O  O9  1  0.80609390  0.93354565  0.29052815  1
  O  O10  1  0.46846358  0.23578774  0.22145444  1
  O  O11  1  0.59115182  0.45414408  0.80250353  1
  O  O12  1  0.54584094  0.13699522  0.80248762  1
  O  O13  1  0.76733404  0.53149587  0.22149312  1
  O  O14  1  0.93353873  0.80611599  0.70946017  1
  O  O15  1  0.76415156  0.23264711  0.22144713  1
  O  O16  1  0.86298835  0.40885537  0.80247964  1
  O  O17  1  0.87256071  0.06650267  0.70942041  1
loop_
_geom_bond_atom_site_label_1
_geom_bond_atom_site_label_2
_geom_bond_distance
_geom_bond_site_symmetry_2
O0 Te1 1.922039 1_565
O0 Sm3 2.265366 1_565
O0 Sm0 2.440659 1_555
O1 Te0 1.934410 1_555
O1 Sm3 2.324689 1_566
O1 Sm0 2.395923 1_555
O2 Te0 1.923416 1_554
O2 Sm0 2.292641 1_555
O2 Sm1 2.409402 1_555
O3 Te0 1.923559 1_554
O3 Sm5 2.292624 1_565
O3 Sm3 2.409427 1_565
O4 Te0 1.933815 1_555
O4 Sm1 2.324682 1_556
O4 Sm2 2.396093 1_555
O5 Te1 1.921686 1_555
O5 Sm1 2.265330 1_555
O5 Sm2 2.440416 1_555
O6 Te1 1.921836 1_555
O6 Sm3 2.265219 1_556
O6 Sm2 2.440512 1_555
O7 Te0 1.933971 1_555
O7 Sm4 2.324652 1_556
O7 Sm5 2.396129 1_565
O8 Te0 1.923138 1_554
O8 Sm2 2.292708 1_555
O8 Sm4 2.409123 1_555
O9 Te1 1.921833 1_665
O9 Sm4 2.265219 1_555
O9 Sm5 2.440506 1_565
O10 Te2 1.933970 1_555
O10 Sm3 2.324655 1_555
O10 Sm2 2.396127 1_555
O11 Te2 1.923558 1_556
O11 Sm2 2.292625 1_555
O11 Sm4 2.409427 1_556
O12 Te2 1.923138 1_556
O12 Sm5 2.292711 1_555
O12 Sm3 2.409117 1_556
O13 Te2 1.934411 1_555
O13 Sm4 2.324685 1_555
O13 Sm0 2.395916 1_655
O14 Te1 1.922040 1_665
O14 Sm4 2.265361 1_556
O14 Sm0 2.440655 1_655
O15 Te2 1.933813 1_555
O15 Sm1 2.324685 1_655
O15 Sm5 2.396099 1_555
O16 Te2 1.923417 1_556
O16 Sm0 2.292642 1_655
O16 Sm1 2.409401 1_656
O17 Te1 1.921685 1_655
O17 Sm1 2.265331 1_656
O17 Sm5 2.440407 1_555
