# generated using pymatgen
data_Mg3P2(H22O15)2
_symmetry_space_group_name_H-M   'P 1'
_cell_length_a   6.92644900
_cell_length_b   7.02035506
_cell_length_c   15.96127692
_cell_angle_alpha   88.37409533
_cell_angle_beta   94.30459977
_cell_angle_gamma   119.38588693
_symmetry_Int_Tables_number   1
_chemical_formula_structural   Mg3P2(H22O15)2
_chemical_formula_sum   'Mg3 P2 H44 O30'
_cell_volume   674.33385260
_cell_formula_units_Z   1
loop_
 _symmetry_equiv_pos_site_id
 _symmetry_equiv_pos_as_xyz
  1  'x, y, z'
loop_
 _atom_site_type_symbol
 _atom_site_label
 _atom_site_symmetry_multiplicity
 _atom_site_fract_x
 _atom_site_fract_y
 _atom_site_fract_z
 _atom_site_occupancy
  Mg  Mg0  1  0.00000000  0.00000000  0.00000000  1
  Mg  Mg1  1  0.78447700  0.89071000  0.34393000  1
  Mg  Mg2  1  0.21552300  0.10929000  0.65607000  1
  P  P0  1  0.90544700  0.44529300  0.76019100  1
  P  P1  1  0.09455300  0.55470700  0.23980900  1
  H  H0  1  0.98421200  0.67140000  0.39394200  1
  H  H1  1  0.01578800  0.32860000  0.60605800  1
  H  H2  1  0.00600600  0.21732800  0.51698200  1
  H  H3  1  0.99399400  0.78267200  0.48301800  1
  H  H4  1  0.97056800  0.32770300  0.38320800  1
  H  H5  1  0.02943200  0.67229700  0.61679200  1
  H  H6  1  0.73283300  0.18172200  0.41772900  1
  H  H7  1  0.26716700  0.81827800  0.58227100  1
  H  H8  1  0.85851500  0.80937900  0.73914300  1
  H  H9  1  0.14148500  0.19062100  0.26085700  1
  H  H10  1  0.85958500  0.03952600  0.74160300  1
  H  H11  1  0.14041500  0.96047400  0.25839700  1
  H  H12  1  0.76609100  0.92362300  0.15144300  1
  H  H13  1  0.23390900  0.07637700  0.84855700  1
  H  H14  1  0.77800000  0.71725100  0.12278300  1
  H  H15  1  0.22200000  0.28274900  0.87721700  1
  H  H16  1  0.79839100  0.64148800  0.88719500  1
  H  H17  1  0.20160900  0.35851200  0.11280500  1
  H  H18  1  0.75186800  0.56100500  0.98238100  1
  H  H19  1  0.24813200  0.43899500  0.01761900  1
  H  H20  1  0.77739800  0.14271800  0.89349000  1
  H  H21  1  0.22260200  0.85728200  0.10651000  1
  H  H22  1  0.72775100  0.17692100  0.98809900  1
  H  H23  1  0.27224900  0.82307900  0.01190100  1
  H  H24  1  0.51225600  0.07431400  0.77397700  1
  H  H25  1  0.48774400  0.92568600  0.22602300  1
  H  H26  1  0.71564300  0.16165700  0.22707900  1
  H  H27  1  0.28435700  0.83834300  0.77292100  1
  H  H28  1  0.74504300  0.37379200  0.10583900  1
  H  H29  1  0.25495700  0.62620800  0.89416100  1
  H  H30  1  0.51120700  0.26610700  0.05182700  1
  H  H31  1  0.48879300  0.73389300  0.94817300  1
  H  H32  1  0.70758300  0.52214500  0.25052200  1
  H  H33  1  0.29241700  0.47785500  0.74947800  1
  H  H34  1  0.47800200  0.53302300  0.25152100  1
  H  H35  1  0.52199800  0.46697700  0.74847900  1
  H  H36  1  0.65339100  0.29453600  0.61528900  1
  H  H37  1  0.34660900  0.70546400  0.38471100  1
  H  H38  1  0.49830900  0.24486500  0.52914500  1
  H  H39  1  0.50169100  0.75513500  0.47085500  1
  H  H40  1  0.54306700  0.39331900  0.39331400  1
  H  H41  1  0.45693300  0.60668100  0.60668600  1
  H  H42  1  0.64490800  0.85060300  0.61119400  1
  H  H43  1  0.35509200  0.14939700  0.38880600  1
  O  O0  1  0.90682700  0.44472000  0.66235900  1
  O  O1  1  0.09317300  0.55528000  0.33764100  1
  O  O2  1  0.78645500  0.20489200  0.79059700  1
  O  O3  1  0.21354500  0.79510800  0.20940300  1
  O  O4  1  0.78369200  0.56877600  0.78596100  1
  O  O5  1  0.21630800  0.43122400  0.21403900  1
  O  O6  1  0.84739000  0.43238800  0.20248000  1
  O  O7  1  0.15261000  0.56761200  0.79752000  1
  O  O8  1  0.91750900  0.74345400  0.42608700  1
  O  O9  1  0.08249100  0.25654600  0.57391300  1
  O  O10  1  0.87545900  0.18282400  0.41225700  1
  O  O11  1  0.12454100  0.81717600  0.58774300  1
  O  O12  1  0.90083300  0.94873100  0.70721300  1
  O  O13  1  0.09916700  0.05126900  0.29278700  1
  O  O14  1  0.81065300  0.86406700  0.10554000  1
  O  O15  1  0.18934700  0.13593300  0.89446000  1
  O  O16  1  0.79705900  0.69100900  0.94518400  1
  O  O17  1  0.20294100  0.30899100  0.05481600  1
  O  O18  1  0.76617600  0.08744700  0.95256000  1
  O  O19  1  0.23382400  0.91255300  0.04744000  1
  O  O20  1  0.65545100  0.00114300  0.23677300  1
  O  O21  1  0.34454900  0.99885700  0.76322700  1
  O  O22  1  0.67296800  0.34487200  0.04687000  1
  O  O23  1  0.32703200  0.65512800  0.95313000  1
  O  O24  1  0.63094900  0.58847400  0.28008800  1
  O  O25  1  0.36905100  0.41152600  0.71991200  1
  O  O26  1  0.50357100  0.78319800  0.40963900  1
  O  O27  1  0.49642900  0.21680200  0.59036100  1
  O  O28  1  0.49482600  0.25063500  0.42048100  1
  O  O29  1  0.50517400  0.74936500  0.57951900  1
loop_
_geom_bond_atom_site_label_1
_geom_bond_atom_site_label_2
_geom_bond_distance
_geom_bond_site_symmetry_2
Mg0 O18 2.082913 1_454
Mg0 O19 2.082913 1_545
Mg0 O17 2.092271 1_555
Mg0 O16 2.092271 1_444
Mg0 O15 2.116746 1_554
Mg0 O14 2.116746 1_445
Mg1 O26 2.067740 1_555
Mg1 O8 2.076988 1_555
Mg1 O24 2.101654 1_555
Mg1 O13 2.119354 1_665
Mg1 O10 2.132493 1_565
Mg1 O20 2.168025 1_565
Mg2 O27 2.067740 1_555
Mg2 O9 2.076988 1_555
Mg2 O25 2.101654 1_555
Mg2 O12 2.119354 1_445
Mg2 O11 2.132493 1_545
Mg2 O21 2.168025 1_545
H0 O8 1.006107 1_555
H0 O1 1.669990 1_655
H1 O9 1.006107 1_555
H1 O0 1.669990 1_455
H2 O9 0.990438 1_555
H3 O8 0.990438 1_555
H4 O10 1.022245 1_555
H4 O1 1.580498 1_655
H5 O11 1.022245 1_555
H5 O0 1.580498 1_455
H6 O10 0.994501 1_555
H7 O11 0.994501 1_555
H8 O12 1.007692 1_555
H8 O4 1.675573 1_555
H9 O13 1.007692 1_555
H9 O5 1.675573 1_555
H10 O12 1.005653 1_545
H10 O2 1.704095 1_555
H11 O13 1.005653 1_565
H11 O3 1.704095 1_555
H12 O14 0.992404 1_555
H13 O15 0.992404 1_555
H14 O14 0.976584 1_555
H15 O15 0.976584 1_555
H16 O16 1.000167 1_555
H16 O4 1.689063 1_555
H17 O17 1.000167 1_555
H17 O5 1.689063 1_555
H18 O16 1.000117 1_555
H19 O17 1.000117 1_555
H20 O18 1.003084 1_555
H20 O2 1.685091 1_555
H21 O19 1.003084 1_555
H21 O3 1.685091 1_555
H22 O18 0.997052 1_555
H23 O19 0.997052 1_555
H24 O21 1.015261 1_545
H24 O2 1.657509 1_555
H25 O20 1.015261 1_565
H25 O3 1.657509 1_555
H26 O20 1.003153 1_555
H26 O6 1.705465 1_555
H27 O21 1.003153 1_555
H27 O7 1.705465 1_555
H28 O22 1.008553 1_555
H28 O6 1.623817 1_555
H29 O23 1.008553 1_555
H29 O7 1.623817 1_555
H30 O22 0.984985 1_555
H31 O23 0.984985 1_555
H32 O24 1.006937 1_555
H32 O6 1.631107 1_555
H33 O25 1.006937 1_555
H33 O7 1.631107 1_555
H34 O24 1.007259 1_555
H34 O5 1.656624 1_555
H35 O25 1.007259 1_555
H35 O4 1.656624 1_555
H36 O27 1.001615 1_555
H36 O0 1.669787 1_555
H37 O26 1.001615 1_555
H37 O1 1.669787 1_555
H38 O27 0.991034 1_555
H39 O26 0.991034 1_555
H40 O28 0.985745 1_555
H41 O29 0.985745 1_555
H42 O29 0.984556 1_555
H43 O28 0.984556 1_555
O0 P0 1.562402 1_555
O1 P1 1.562402 1_555
O2 P0 1.552945 1_555
O3 P1 1.552945 1_555
O4 P0 1.556171 1_555
O5 P1 1.556171 1_555
O6 P1 1.567292 1_655
O7 P0 1.567292 1_455
