# generated using pymatgen
data_Li8Mn3Fe5(BO3)8
_symmetry_space_group_name_H-M   'P 1'
_cell_length_a   5.23737900
_cell_length_b   6.06645409
_cell_length_c   16.14968721
_cell_angle_alpha   81.76241133
_cell_angle_beta   89.15731509
_cell_angle_gamma   88.69890099
_symmetry_Int_Tables_number   1
_chemical_formula_structural   Li8Mn3Fe5(BO3)8
_chemical_formula_sum   'Li8 Mn3 Fe5 B8 O24'
_cell_volume   507.65400020
_cell_formula_units_Z   1
loop_
 _symmetry_equiv_pos_site_id
 _symmetry_equiv_pos_as_xyz
  1  'x, y, z'
loop_
 _atom_site_type_symbol
 _atom_site_label
 _atom_site_symmetry_multiplicity
 _atom_site_fract_x
 _atom_site_fract_y
 _atom_site_fract_z
 _atom_site_occupancy
  Li  Li0  1  0.84681300  0.06421900  0.38946900  1
  Li  Li1  1  0.15204700  0.43536700  0.11120500  1
  Li  Li2  1  0.65259900  0.18815000  0.85994200  1
  Li  Li3  1  0.34831700  0.31288500  0.63924800  1
  Li  Li4  1  0.65253100  0.68829300  0.35723400  1
  Li  Li5  1  0.34749200  0.81167300  0.14286700  1
  Li  Li6  1  0.84666400  0.56254700  0.89083300  1
  Li  Li7  1  0.15168200  0.93646900  0.60809800  1
  Mn  Mn0  1  0.16706800  0.02278200  0.78970200  1
  Mn  Mn1  1  0.66777400  0.77211400  0.54116000  1
  Mn  Mn2  1  0.33296600  0.72506900  0.96066600  1
  Fe  Fe0  1  0.66295800  0.27003600  0.04222700  1
  Fe  Fe1  1  0.33706800  0.22880300  0.45820800  1
  Fe  Fe2  1  0.16265400  0.52191100  0.29338000  1
  Fe  Fe3  1  0.83863700  0.47548700  0.70999500  1
  Fe  Fe4  1  0.83736100  0.97726700  0.20700600  1
  B  B0  1  0.32875600  0.03937900  0.29702300  1
  B  B1  1  0.82830300  0.28769400  0.54727200  1
  B  B2  1  0.67070700  0.46125100  0.20301800  1
  B  B3  1  0.17194200  0.21300000  0.95363300  1
  B  B4  1  0.83030900  0.78574700  0.04847100  1
  B  B5  1  0.32907200  0.53740400  0.79659600  1
  B  B6  1  0.16963500  0.71418300  0.45155000  1
  B  B7  1  0.67043000  0.96368700  0.70260100  1
  O  O0  1  0.58889300  0.01350000  0.30745400  1
  O  O1  1  0.18306000  0.16980300  0.34595100  1
  O  O2  1  0.70327800  0.17642200  0.48997900  1
  O  O3  1  0.29630100  0.32628700  0.01063900  1
  O  O4  1  0.78568000  0.08137500  0.75944400  1
  O  O5  1  0.81546300  0.32955200  0.15422500  1
  O  O6  1  0.31816200  0.08196800  0.90554400  1
  O  O7  1  0.08899400  0.26272900  0.55727100  1
  O  O8  1  0.41002700  0.48685800  0.19270500  1
  O  O9  1  0.91193400  0.23807600  0.94268200  1
  O  O10  1  0.68399600  0.41753600  0.59663600  1
  O  O11  1  0.20722000  0.42374200  0.73901200  1
  O  O12  1  0.79675300  0.57489900  0.25897900  1
  O  O13  1  0.31812000  0.58141600  0.40396700  1
  O  O14  1  0.09024200  0.76336900  0.06184700  1
  O  O15  1  0.58902600  0.51324200  0.80813800  1
  O  O16  1  0.90930200  0.73670300  0.43889400  1
  O  O17  1  0.68058600  0.91796300  0.09574300  1
  O  O18  1  0.18133800  0.66750000  0.84443200  1
  O  O19  1  0.20325500  0.92696100  0.24035200  1
  O  O20  1  0.71447600  0.67174700  0.99085600  1
  O  O21  1  0.28760300  0.82785500  0.50866900  1
  O  O22  1  0.82144500  0.82886200  0.65685200  1
  O  O23  1  0.41105700  0.98622400  0.68832300  1
loop_
_geom_bond_atom_site_label_1
_geom_bond_atom_site_label_2
_geom_bond_distance
_geom_bond_site_symmetry_2
Li0 O0 1.965204 1_555
Li0 O1 1.972645 1_655
Li0 O2 1.980080 1_555
Li0 O16 2.053180 1_545
Li1 O8 1.960822 1_555
Li1 O5 1.972270 1_455
Li1 O3 1.973724 1_555
Li1 O14 2.055077 1_555
Li2 O4 1.946027 1_555
Li2 O6 1.975516 1_555
Li2 O9 1.977390 1_555
Li2 O15 2.050795 1_555
Li3 O11 1.961399 1_555
Li3 O10 1.964019 1_555
Li3 O7 1.969015 1_555
Li3 O23 2.047234 1_545
Li4 O16 1.953209 1_555
Li4 O12 1.953352 1_555
Li4 O13 1.982418 1_555
Li4 O0 2.042810 1_565
Li5 O14 1.947516 1_555
Li5 O19 1.948061 1_555
Li5 O17 1.977317 1_555
Li5 O8 2.040056 1_555
Li6 O20 1.944324 1_555
Li6 O15 1.969660 1_555
Li6 O18 1.978536 1_655
Li6 O9 2.048929 1_555
Li7 O21 1.941030 1_555
Li7 O23 1.948726 1_555
Li7 O22 1.975207 1_455
Li7 O7 2.052275 1_565
Mn0 O4 2.074060 1_455
Mn0 O23 2.095784 1_545
Mn0 O6 2.122263 1_555
Mn0 O18 2.209271 1_545
Mn0 O11 2.465468 1_555
Mn1 O21 2.074479 1_555
Mn1 O16 2.098057 1_555
Mn1 O22 2.120915 1_555
Mn1 O10 2.208739 1_555
Mn1 O2 2.483715 1_565
Mn2 O20 2.070969 1_555
Mn2 O14 2.091507 1_556
Mn2 O18 2.126166 1_555
Mn2 O6 2.219973 1_565
Mn2 O3 2.449032 1_556
Fe0 O3 2.003371 1_555
Fe0 O5 2.069435 1_555
Fe0 O9 2.082925 1_554
Fe0 O17 2.186710 1_545
Fe0 O20 2.478667 1_554
Fe1 O2 1.999359 1_555
Fe1 O1 2.075436 1_555
Fe1 O7 2.076288 1_555
Fe1 O13 2.192929 1_555
Fe1 O21 2.470196 1_545
Fe2 O12 2.009127 1_455
Fe2 O13 2.055177 1_555
Fe2 O8 2.095666 1_555
Fe2 O1 2.183473 1_555
Fe2 O19 2.496376 1_555
Fe3 O11 2.000388 1_655
Fe3 O15 2.074403 1_555
Fe3 O10 2.090940 1_555
Fe3 O22 2.192389 1_555
Fe3 O4 2.430507 1_555
Fe4 O19 2.003036 1_655
Fe4 O17 2.067460 1_555
Fe4 O0 2.097711 1_565
Fe4 O5 2.185578 1_565
Fe4 O12 2.477738 1_555
B0 O0 1.377939 1_555
B0 O19 1.397021 1_545
B0 O1 1.402375 1_555
B1 O7 1.379582 1_655
B1 O2 1.399076 1_555
B1 O10 1.400855 1_555
B2 O8 1.380400 1_555
B2 O12 1.394512 1_555
B2 O5 1.403335 1_555
B3 O9 1.377961 1_455
B3 O6 1.397582 1_555
B3 O3 1.401197 1_556
B4 O14 1.382125 1_655
B4 O20 1.390011 1_554
B4 O17 1.403693 1_555
B5 O15 1.378559 1_555
B5 O18 1.395620 1_555
B5 O11 1.403121 1_555
B6 O16 1.382464 1_455
B6 O21 1.388011 1_555
B6 O13 1.405466 1_555
B7 O23 1.381648 1_555
B7 O4 1.393005 1_565
B7 O22 1.402500 1_555
