# generated using pymatgen
data_Na4Co2P(CO4)4
_symmetry_space_group_name_H-M   'P 1'
_cell_length_a   9.98494030
_cell_length_b   9.80950745
_cell_length_c   9.98494015
_cell_angle_alpha   60.68070053
_cell_angle_beta   92.16943039
_cell_angle_gamma   60.68070087
_symmetry_Int_Tables_number   1
_chemical_formula_structural   Na4Co2P(CO4)4
_chemical_formula_sum   'Na8 Co4 P2 C8 O32'
_cell_volume   692.13529759
_cell_formula_units_Z   2
loop_
 _symmetry_equiv_pos_site_id
 _symmetry_equiv_pos_as_xyz
  1  'x, y, z'
loop_
 _atom_site_type_symbol
 _atom_site_label
 _atom_site_symmetry_multiplicity
 _atom_site_fract_x
 _atom_site_fract_y
 _atom_site_fract_z
 _atom_site_occupancy
  Na  Na0  1  0.08900000  0.82200100  0.83900000  1
  Na  Na1  1  0.08857100  0.25000000  0.83857100  1
  Na  Na2  1  0.33857100  0.75000000  0.58857100  1
  Na  Na3  1  0.33900000  0.32200100  0.58900000  1
  Na  Na4  1  0.66100000  0.67799900  0.41100000  1
  Na  Na5  1  0.66142900  0.25000000  0.41142900  1
  Na  Na6  1  0.91142900  0.75000000  0.16142900  1
  Na  Na7  1  0.91100000  0.17799900  0.16100000  1
  Co  Co0  1  0.00000000  0.50000000  0.00000000  1
  Co  Co1  1  0.50000000  0.00000000  0.50000000  1
  Co  Co2  1  0.50000000  0.50000000  0.00000000  1
  Co  Co3  1  0.50000000  0.00000000  0.00000000  1
  P  P0  1  0.12500000  0.75000000  0.37500000  1
  P  P1  1  0.87500000  0.25000000  0.62500000  1
  C  C0  1  0.35657000  0.93121600  0.77785100  1
  C  C1  1  0.27785100  0.43121600  0.85657000  1
  C  C2  1  0.71221400  0.93121600  0.79093300  1
  C  C3  1  0.70906700  0.56878400  0.78778600  1
  C  C4  1  0.29093300  0.43121600  0.21221400  1
  C  C5  1  0.28778600  0.06878400  0.20906700  1
  C  C6  1  0.72214900  0.56878400  0.14343000  1
  C  C7  1  0.64343000  0.06878400  0.22214900  1
  O  O0  1  0.34920000  0.79382500  0.88660800  1
  O  O1  1  0.06362700  0.88180200  0.43529300  1
  O  O2  1  0.36438100  0.95250800  0.64048900  1
  O  O3  1  0.14048900  0.45250800  0.86438100  1
  O  O4  1  0.68311100  0.95250800  0.90700400  1
  O  O5  1  0.30282100  0.55240200  0.84893400  1
  O  O6  1  0.05457200  0.88180200  0.18290600  1
  O  O7  1  0.06470700  0.61819800  0.43637300  1
  O  O8  1  0.40133600  0.94759800  0.35522300  1
  O  O9  1  0.59299600  0.54749200  0.81688900  1
  O  O10  1  0.38660800  0.29382500  0.84920000  1
  O  O11  1  0.31709400  0.61819800  0.44542800  1
  O  O12  1  0.85697500  0.79382500  0.81956700  1
  O  O13  1  0.68043300  0.70617500  0.64302500  1
  O  O14  1  0.34893400  0.05240200  0.80282100  1
  O  O15  1  0.14477700  0.55240200  0.09866400  1
  O  O16  1  0.85522300  0.44759800  0.90133600  1
  O  O17  1  0.65106600  0.94759800  0.19717900  1
  O  O18  1  0.31956700  0.29382500  0.35697500  1
  O  O19  1  0.14302500  0.20617500  0.18043300  1
  O  O20  1  0.68290600  0.38180200  0.55457200  1
  O  O21  1  0.61339200  0.70617500  0.15080000  1
  O  O22  1  0.40700400  0.45250800  0.18311100  1
  O  O23  1  0.59866400  0.05240200  0.64477700  1
  O  O24  1  0.93529300  0.38180200  0.56362700  1
  O  O25  1  0.94542800  0.11819800  0.81709400  1
  O  O26  1  0.69717900  0.44759800  0.15106600  1
  O  O27  1  0.31688900  0.04749200  0.09299600  1
  O  O28  1  0.85951100  0.54749200  0.13561900  1
  O  O29  1  0.63561900  0.04749200  0.35951100  1
  O  O30  1  0.93637300  0.11819800  0.56470700  1
  O  O31  1  0.65080000  0.20617500  0.11339200  1
loop_
_geom_bond_atom_site_label_1
_geom_bond_atom_site_label_2
_geom_bond_distance
_geom_bond_site_symmetry_2
Na0 O15 2.399891 1_556
Na0 O5 2.399893 1_555
Na0 O25 2.412409 1_465
Na0 O30 2.412420 1_465
Na0 O0 2.475267 1_555
Na0 O12 2.475278 1_455
Na1 O27 2.404395 1_556
Na1 O3 2.404401 1_555
Na1 O24 2.412153 1_455
Na1 O25 2.412165 1_455
Na1 O14 2.540842 1_555
Na1 O16 2.540842 1_455
Na2 O9 2.404395 1_555
Na2 O2 2.404401 1_555
Na2 O1 2.412153 1_555
Na2 O11 2.412165 1_555
Na2 O5 2.540842 1_555
Na2 O8 2.540842 1_555
Na3 O23 2.399891 1_555
Na3 O14 2.399893 1_555
Na3 O11 2.412409 1_555
Na3 O7 2.412420 1_555
Na3 O10 2.475267 1_555
Na3 O18 2.475278 1_555
Na4 O8 2.399891 1_555
Na4 O17 2.399893 1_555
Na4 O20 2.412409 1_555
Na4 O24 2.412420 1_555
Na4 O21 2.475267 1_555
Na4 O13 2.475278 1_555
Na5 O22 2.404395 1_555
Na5 O29 2.404401 1_555
Na5 O30 2.412153 1_555
Na5 O20 2.412165 1_555
Na5 O26 2.540842 1_555
Na5 O23 2.540842 1_555
Na6 O4 2.404395 1_554
Na6 O28 2.404401 1_555
Na6 O7 2.412153 1_655
Na6 O6 2.412165 1_655
Na6 O17 2.540842 1_555
Na6 O15 2.540842 1_655
Na7 O16 2.399891 1_554
Na7 O26 2.399893 1_555
Na7 O6 2.412409 1_645
Na7 O1 2.412420 1_645
Na7 O31 2.475267 1_555
Na7 O19 2.475278 1_655
Co0 O28 2.034738 1_455
Co0 O3 2.034738 1_554
Co0 O19 2.069128 1_555
Co0 O12 2.069128 1_454
Co0 O15 2.107218 1_555
Co0 O16 2.107218 1_454
Co1 O2 2.034738 1_545
Co1 O29 2.034738 1_555
Co1 O13 2.069129 1_545
Co1 O18 2.069129 1_555
Co1 O8 2.107218 1_545
Co1 O23 2.107218 1_555
Co2 O22 2.034732 1_555
Co2 O9 2.034732 1_554
Co2 O31 2.069129 1_555
Co2 O0 2.069129 1_554
Co2 O26 2.107218 1_555
Co2 O5 2.107218 1_554
Co3 O4 2.034732 1_544
Co3 O27 2.034732 1_555
Co3 O21 2.069129 1_545
Co3 O10 2.069129 1_554
Co3 O14 2.107218 1_554
Co3 O17 2.107218 1_545
C0 O0 1.292637 1_555
C0 O2 1.293970 1_555
C0 O14 1.297731 1_565
C1 O10 1.292637 1_555
C1 O3 1.293970 1_555
C1 O5 1.297731 1_555
C2 O12 1.292637 1_555
C2 O4 1.293980 1_555
C2 O23 1.297730 1_565
C3 O13 1.292637 1_555
C3 O9 1.293980 1_555
C3 O16 1.297730 1_555
C4 O18 1.292637 1_555
C4 O22 1.293980 1_555
C4 O15 1.297730 1_555
C5 O19 1.292637 1_555
C5 O27 1.293980 1_555
C5 O8 1.297730 1_545
C6 O21 1.292637 1_555
C6 O28 1.293970 1_555
C6 O26 1.297731 1_555
C7 O31 1.292637 1_555
C7 O29 1.293970 1_555
C7 O17 1.297731 1_545
O1 P0 1.556875 1_555
O6 P0 1.556867 1_555
O7 P0 1.556875 1_555
O11 P0 1.556867 1_555
O20 P1 1.556867 1_555
O24 P1 1.556875 1_555
O25 P1 1.556867 1_555
O30 P1 1.556875 1_555
