# generated using pymatgen
data_Na4Fe2C4SO16
_symmetry_space_group_name_H-M   'P 1'
_cell_length_a   9.95221238
_cell_length_b   9.78402019
_cell_length_c   9.95124314
_cell_angle_alpha   59.93881646
_cell_angle_beta   59.42560893
_cell_angle_gamma   60.34489308
_symmetry_Int_Tables_number   1
_chemical_formula_structural   Na4Fe2C4SO16
_chemical_formula_sum   'Na8 Fe4 C8 S2 O32'
_cell_volume   683.57685933
_cell_formula_units_Z   2
loop_
 _symmetry_equiv_pos_site_id
 _symmetry_equiv_pos_as_xyz
  1  'x, y, z'
loop_
 _atom_site_type_symbol
 _atom_site_label
 _atom_site_symmetry_multiplicity
 _atom_site_fract_x
 _atom_site_fract_y
 _atom_site_fract_z
 _atom_site_occupancy
  Na  Na0  1  0.91437000  0.33519700  0.33528400  1
  Na  Na1  1  0.08797200  0.07578700  0.65903100  1
  Na  Na2  1  0.65750300  0.68077800  0.08753200  1
  Na  Na3  1  0.35067900  0.32104100  0.91947500  1
  Na  Na4  1  0.90851000  0.91913400  0.32496300  1
  Na  Na5  1  0.90940500  0.32601400  0.91876000  1
  Na  Na6  1  0.08636500  0.67689000  0.65904100  1
  Na  Na7  1  0.33739100  0.91374000  0.91210400  1
  Fe  Fe0  1  0.49730600  0.49614400  0.00344900  1
  Fe  Fe1  1  0.50220300  0.99980900  0.49553000  1
  Fe  Fe2  1  0.50092900  0.50062500  0.50136200  1
  Fe  Fe3  1  0.00015300  0.50241900  0.49408200  1
  C  C0  1  0.64204300  0.28859700  0.28442300  1
  C  C1  1  0.28538300  0.28264200  0.29169000  1
  C  C2  1  0.28918200  0.64105900  0.28701100  1
  C  C3  1  0.28299100  0.28548300  0.64348800  1
  C  C4  1  0.71338700  0.36018700  0.71316000  1
  C  C5  1  0.71373500  0.71390400  0.36076200  1
  C  C6  1  0.35951000  0.71098000  0.71760300  1
  C  C7  1  0.71424400  0.71588100  0.71175000  1
  S  S0  1  0.12514500  0.12394600  0.12374700  1
  S  S1  1  0.87346100  0.87793600  0.87351800  1
  O  O0  1  0.30755200  0.06305100  0.05877400  1
  O  O1  1  0.06378300  0.06236000  0.06086100  1
  O  O2  1  0.06490600  0.31096200  0.06011100  1
  O  O3  1  0.05675300  0.06537700  0.30684400  1
  O  O4  1  0.64351200  0.14412600  0.31246700  1
  O  O5  1  0.39767300  0.31288700  0.14635100  1
  O  O6  1  0.64653400  0.40372100  0.13840900  1
  O  O7  1  0.31408500  0.14381900  0.40866200  1
  O  O8  1  0.13821800  0.39328600  0.31909400  1
  O  O9  1  0.64446200  0.31879300  0.39569000  1
  O  O10  1  0.31827200  0.64617300  0.14231900  1
  O  O11  1  0.39538300  0.14272200  0.64314300  1
  O  O12  1  0.69129300  0.59718400  0.35231000  1
  O  O13  1  0.86028500  0.35094900  0.59964900  1
  O  O14  1  0.40293000  0.63540300  0.31821400  1
  O  O15  1  0.13832100  0.31373200  0.64704400  1
  O  O16  1  0.59794500  0.36548400  0.68465600  1
  O  O17  1  0.85479900  0.68530200  0.36328600  1
  O  O18  1  0.30854000  0.40177700  0.64776900  1
  O  O19  1  0.14262600  0.64645000  0.39990200  1
  O  O20  1  0.68720500  0.36238000  0.85338100  1
  O  O21  1  0.59882800  0.85329600  0.36395800  1
  O  O22  1  0.35471000  0.68402500  0.60520700  1
  O  O23  1  0.85977700  0.60089900  0.68732700  1
  O  O24  1  0.68673900  0.85357500  0.59342100  1
  O  O25  1  0.36445900  0.59317700  0.85765900  1
  O  O26  1  0.35503500  0.85766300  0.69100300  1
  O  O27  1  0.60035500  0.68927200  0.85792600  1
  O  O28  1  0.93097900  0.69022000  0.93214100  1
  O  O29  1  0.94082500  0.93633000  0.68728800  1
  O  O30  1  0.93998000  0.93967700  0.92832800  1
  O  O31  1  0.69136900  0.93773200  0.93549700  1
loop_
_geom_bond_atom_site_label_1
_geom_bond_atom_site_label_2
_geom_bond_distance
_geom_bond_site_symmetry_2
Na0 O3 2.386634 1_655
Na0 O2 2.434046 1_655
Na0 O12 2.439082 1_555
Na0 O8 2.471445 1_655
Na0 O13 2.473444 1_555
Na0 O9 2.507983 1_555
Na1 O29 2.293329 1_445
Na1 O30 2.339762 1_445
Na1 O7 2.414862 1_555
Na1 O26 2.507394 1_545
Na1 O13 2.542325 1_455
Na1 O15 2.549611 1_555
Na2 O31 2.287379 1_554
Na2 O28 2.373071 1_554
Na2 O14 2.461919 1_555
Na2 O12 2.488935 1_555
Na2 O6 2.545184 1_555
Na2 O27 2.576043 1_554
Na3 O0 2.332076 1_556
Na3 O16 2.428206 1_555
Na3 O25 2.474101 1_555
Na3 O2 2.479346 1_556
Na3 O5 2.485785 1_556
Na3 O18 2.606998 1_555
Na4 O1 2.362286 1_665
Na4 O17 2.407065 1_555
Na4 O3 2.411706 1_665
Na4 O24 2.470922 1_555
Na4 O4 2.476119 1_565
Na4 O19 2.593429 1_655
Na5 O1 2.376611 1_656
Na5 O20 2.427593 1_555
Na5 O6 2.465607 1_556
Na5 O2 2.485305 1_656
Na5 O15 2.510722 1_655
Na5 O23 2.533481 1_555
Na6 O29 2.298405 1_455
Na6 O28 2.382081 1_455
Na6 O22 2.472987 1_555
Na6 O19 2.487512 1_555
Na6 O18 2.511494 1_555
Na6 O23 2.553621 1_455
Na7 O0 2.370337 1_566
Na7 O1 2.420361 1_566
Na7 O26 2.427735 1_555
Na7 O27 2.454853 1_555
Na7 O10 2.485729 1_556
Na7 O11 2.493309 1_565
Fe0 O5 1.997660 1_555
Fe0 O25 2.020761 1_554
Fe0 O20 2.038137 1_554
Fe0 O10 2.044106 1_555
Fe0 O6 2.076185 1_555
Fe0 O27 2.093969 1_554
Fe1 O21 1.982242 1_555
Fe1 O7 2.013317 1_565
Fe1 O4 2.017884 1_565
Fe1 O24 2.047530 1_555
Fe1 O11 2.059421 1_565
Fe1 O26 2.066455 1_555
Fe2 O16 2.029681 1_555
Fe2 O14 2.034616 1_555
Fe2 O9 2.035354 1_555
Fe2 O22 2.036986 1_555
Fe2 O12 2.047045 1_555
Fe2 O18 2.075319 1_555
Fe3 O17 2.002311 1_455
Fe3 O8 2.009288 1_555
Fe3 O19 2.043753 1_555
Fe3 O13 2.057067 1_455
Fe3 O23 2.090305 1_455
Fe3 O15 2.101896 1_555
C0 O4 1.290193 1_555
C0 O9 1.294503 1_555
C0 O6 1.313798 1_555
C1 O7 1.285203 1_555
C1 O5 1.297086 1_555
C1 O8 1.308379 1_555
C2 O14 1.288174 1_555
C2 O10 1.295228 1_555
C2 O19 1.307106 1_555
C3 O11 1.287245 1_555
C3 O18 1.306515 1_555
C3 O15 1.309508 1_555
C4 O16 1.288799 1_555
C4 O20 1.292285 1_555
C4 O13 1.308808 1_555
C5 O21 1.277454 1_555
C5 O17 1.299976 1_555
C5 O12 1.314852 1_555
C6 O25 1.295246 1_555
C6 O22 1.298143 1_555
C6 O26 1.303786 1_555
C7 O24 1.284574 1_555
C7 O27 1.305275 1_555
C7 O23 1.313729 1_555
O0 S0 1.479902 1_555
O1 S0 1.502771 1_555
O2 S0 1.499444 1_555
O3 S0 1.479793 1_555
O28 S1 1.505695 1_555
O29 S1 1.504869 1_555
O30 S1 1.481150 1_555
O31 S1 1.477191 1_555
