# generated using pymatgen
data_Mn2H8S3(NO6)2
_symmetry_space_group_name_H-M   'P 1'
_cell_length_a   10.31500200
_cell_length_b   10.31500200
_cell_length_c   10.31500200
_cell_angle_alpha   90.00000000
_cell_angle_beta   90.00000000
_cell_angle_gamma   90.00000000
_symmetry_Int_Tables_number   1
_chemical_formula_structural   Mn2H8S3(NO6)2
_chemical_formula_sum   'Mn8 H32 S12 N8 O48'
_cell_volume   1097.50864427
_cell_formula_units_Z   4
loop_
 _symmetry_equiv_pos_site_id
 _symmetry_equiv_pos_as_xyz
  1  'x, y, z'
loop_
 _atom_site_type_symbol
 _atom_site_label
 _atom_site_symmetry_multiplicity
 _atom_site_fract_x
 _atom_site_fract_y
 _atom_site_fract_z
 _atom_site_occupancy
  Mn  Mn0  1  0.58343100  0.41656900  0.91656900  1
  Mn  Mn1  1  0.65648000  0.84352000  0.15648000  1
  Mn  Mn2  1  0.84352000  0.15648000  0.65648000  1
  Mn  Mn3  1  0.91656900  0.58343100  0.41656900  1
  Mn  Mn4  1  0.08343100  0.08343100  0.08343100  1
  Mn  Mn5  1  0.15648000  0.65648000  0.84352000  1
  Mn  Mn6  1  0.34352000  0.34352000  0.34352000  1
  Mn  Mn7  1  0.41656900  0.91656900  0.58343100  1
  H  H0  1  0.50866600  0.50866600  0.50866600  1
  H  H1  1  0.52431600  0.57634400  0.65725400  1
  H  H2  1  0.57634400  0.65725400  0.52431600  1
  H  H3  1  0.65725400  0.52431600  0.57634400  1
  H  H4  1  0.64428600  0.14428600  0.35571400  1
  H  H5  1  0.65712100  0.21356900  0.20970800  1
  H  H6  1  0.71356900  0.29029200  0.34287900  1
  H  H7  1  0.70970800  0.84287900  0.78643100  1
  H  H8  1  0.79029200  0.15712100  0.28643100  1
  H  H9  1  0.78643100  0.70970800  0.84287900  1
  H  H10  1  0.84287900  0.78643100  0.70970800  1
  H  H11  1  0.85571400  0.85571400  0.85571400  1
  H  H12  1  0.84274600  0.47568400  0.07634400  1
  H  H13  1  0.92365600  0.34274600  0.02431600  1
  H  H14  1  0.97568400  0.42365600  0.15725400  1
  H  H15  1  0.99133400  0.49133400  0.00866600  1
  H  H16  1  0.00866600  0.99133400  0.49133400  1
  H  H17  1  0.02431600  0.92365600  0.34274600  1
  H  H18  1  0.07634400  0.84274600  0.47568400  1
  H  H19  1  0.15725400  0.97568400  0.42365600  1
  H  H20  1  0.14428600  0.35571400  0.64428600  1
  H  H21  1  0.15712100  0.28643100  0.79029200  1
  H  H22  1  0.21356900  0.20970800  0.65712100  1
  H  H23  1  0.20970800  0.65712100  0.21356900  1
  H  H24  1  0.29029200  0.34287900  0.71356900  1
  H  H25  1  0.28643100  0.79029200  0.15712100  1
  H  H26  1  0.34287900  0.71356900  0.29029200  1
  H  H27  1  0.35571400  0.64428600  0.14428600  1
  H  H28  1  0.34274600  0.02431600  0.92365600  1
  H  H29  1  0.42365600  0.15725400  0.97568400  1
  H  H30  1  0.47568400  0.07634400  0.84274600  1
  H  H31  1  0.49133400  0.00866600  0.99133400  1
  S  S0  1  0.53103900  0.23646500  0.62536300  1
  S  S1  1  0.62536300  0.53103900  0.23646500  1
  S  S2  1  0.73646500  0.87463700  0.46896100  1
  S  S3  1  0.76353500  0.12536300  0.96896100  1
  S  S4  1  0.87463700  0.46896100  0.73646500  1
  S  S5  1  0.96896100  0.76353500  0.12536300  1
  S  S6  1  0.03103900  0.26353500  0.37463700  1
  S  S7  1  0.12536300  0.96896100  0.76353500  1
  S  S8  1  0.23646500  0.62536300  0.53103900  1
  S  S9  1  0.26353500  0.37463700  0.03103900  1
  S  S10  1  0.37463700  0.03103900  0.26353500  1
  S  S11  1  0.46896100  0.73646500  0.87463700  1
  N  N0  1  0.56629800  0.56629800  0.56629800  1
  N  N1  1  0.70164200  0.20164200  0.29835800  1
  N  N2  1  0.79835800  0.79835800  0.79835800  1
  N  N3  1  0.93370200  0.43370200  0.06629800  1
  N  N4  1  0.06629800  0.93370200  0.43370200  1
  N  N5  1  0.20164200  0.29835800  0.70164200  1
  N  N6  1  0.29835800  0.70164200  0.20164200  1
  N  N7  1  0.43370200  0.06629800  0.93370200  1
  O  O0  1  0.50037400  0.59837900  0.84589700  1
  O  O1  1  0.50879700  0.31367400  0.74551900  1
  O  O2  1  0.52295100  0.44431800  0.28828100  1
  O  O3  1  0.55568200  0.78828100  0.97704900  1
  O  O4  1  0.58130900  0.66823800  0.24840900  1
  O  O5  1  0.59837900  0.84589700  0.50037400  1
  O  O6  1  0.65410300  0.49962600  0.09837900  1
  O  O7  1  0.66823800  0.24840900  0.58130900  1
  O  O8  1  0.68632600  0.24551900  0.99120300  1
  O  O9  1  0.71171900  0.02295100  0.05568200  1
  O  O10  1  0.74551900  0.50879700  0.31367400  1
  O  O11  1  0.74840900  0.91869100  0.33176200  1
  O  O12  1  0.75159100  0.08130900  0.83176200  1
  O  O13  1  0.75448100  0.49120300  0.81367400  1
  O  O14  1  0.78828100  0.97704900  0.55568200  1
  O  O15  1  0.81367400  0.75448100  0.49120300  1
  O  O16  1  0.83176200  0.75159100  0.08130900  1
  O  O17  1  0.84589700  0.50037400  0.59837900  1
  O  O18  1  0.90162100  0.15410300  0.00037400  1
  O  O19  1  0.91869100  0.33176200  0.74840900  1
  O  O20  1  0.94431800  0.21171900  0.47704900  1
  O  O21  1  0.97704900  0.55568200  0.78828100  1
  O  O22  1  0.99120300  0.68632600  0.24551900  1
  O  O23  1  0.99962600  0.40162100  0.34589700  1
  O  O24  1  0.00037400  0.90162100  0.15410300  1
  O  O25  1  0.00879700  0.18632600  0.25448100  1
  O  O26  1  0.02295100  0.05568200  0.71171900  1
  O  O27  1  0.05568200  0.71171900  0.02295100  1
  O  O28  1  0.08130900  0.83176200  0.75159100  1
  O  O29  1  0.09837900  0.65410300  0.49962600  1
  O  O30  1  0.15410300  0.00037400  0.90162100  1
  O  O31  1  0.16823800  0.25159100  0.41869100  1
  O  O32  1  0.18632600  0.25448100  0.00879700  1
  O  O33  1  0.21171900  0.47704900  0.94431800  1
  O  O34  1  0.24551900  0.99120300  0.68632600  1
  O  O35  1  0.24840900  0.58130900  0.66823800  1
  O  O36  1  0.25159100  0.41869100  0.16823800  1
  O  O37  1  0.25448100  0.00879700  0.18632600  1
  O  O38  1  0.28828100  0.52295100  0.44431800  1
  O  O39  1  0.31367400  0.74551900  0.50879700  1
  O  O40  1  0.33176200  0.74840900  0.91869100  1
  O  O41  1  0.34589700  0.99962600  0.40162100  1
  O  O42  1  0.40162100  0.34589700  0.99962600  1
  O  O43  1  0.41869100  0.16823800  0.25159100  1
  O  O44  1  0.44431800  0.28828100  0.52295100  1
  O  O45  1  0.47704900  0.94431800  0.21171900  1
  O  O46  1  0.49120300  0.81367400  0.75448100  1
  O  O47  1  0.49962600  0.09837900  0.65410300  1
loop_
_geom_bond_atom_site_label_1
_geom_bond_atom_site_label_2
_geom_bond_distance
_geom_bond_site_symmetry_2
Mn0 O0 2.186875 1_555
Mn0 O6 2.186875 1_556
Mn0 O42 2.186875 1_555
Mn0 O13 2.198226 1_555
Mn0 O1 2.198226 1_555
Mn0 O8 2.198226 1_555
Mn1 O11 2.183893 1_555
Mn1 O4 2.183893 1_555
Mn1 O16 2.183893 1_555
Mn1 O9 2.198017 1_565
Mn1 O45 2.198017 1_555
Mn1 O3 2.198017 1_554
Mn2 O19 2.183893 1_555
Mn2 O7 2.183893 1_555
Mn2 O12 2.183893 1_555
Mn2 O20 2.198017 1_555
Mn2 O26 2.198017 1_655
Mn2 O14 2.198017 1_545
Mn3 O17 2.186875 1_555
Mn3 O29 2.186875 1_655
Mn3 O23 2.186875 1_555
Mn3 O15 2.198226 1_555
Mn3 O10 2.198226 1_555
Mn3 O22 2.198226 1_555
Mn4 O18 2.186875 1_455
Mn4 O24 2.186875 1_545
Mn4 O30 2.186875 1_554
Mn4 O25 2.198226 1_555
Mn4 O37 2.198226 1_555
Mn4 O32 2.198226 1_555
Mn5 O40 2.183893 1_555
Mn5 O35 2.183893 1_555
Mn5 O28 2.183893 1_555
Mn5 O33 2.198017 1_555
Mn5 O27 2.198017 1_556
Mn5 O21 2.198017 1_455
Mn6 O36 2.183893 1_555
Mn6 O31 2.183893 1_555
Mn6 O43 2.183893 1_555
Mn6 O38 2.198017 1_555
Mn6 O2 2.198017 1_555
Mn6 O44 2.198017 1_555
Mn7 O5 2.186875 1_555
Mn7 O47 2.186875 1_565
Mn7 O41 2.186875 1_555
Mn7 O46 2.198226 1_555
Mn7 O39 2.198226 1_555
Mn7 O34 2.198226 1_555
H0 N0 1.029660 1_555
H1 N0 1.038511 1_555
H2 N0 1.038511 1_555
H3 N0 1.038511 1_555
H4 N1 1.024728 1_555
H5 N1 1.030633 1_555
H6 N1 1.030633 1_555
H7 N2 1.030633 1_555
H8 N1 1.030633 1_555
H9 N2 1.030633 1_555
H10 N2 1.030633 1_555
H11 N2 1.024728 1_555
H12 N3 1.038511 1_555
H13 N3 1.038511 1_555
H14 N3 1.038511 1_555
H15 N3 1.029660 1_555
H16 N4 1.029660 1_555
H17 N4 1.038511 1_555
H18 N4 1.038511 1_555
H19 N4 1.038511 1_555
H20 N5 1.024728 1_555
H21 N5 1.030633 1_555
H22 N5 1.030633 1_555
H23 N6 1.030633 1_555
H24 N5 1.030633 1_555
H25 N6 1.030633 1_555
H26 N6 1.030633 1_555
H27 N6 1.024728 1_555
H28 N7 1.038511 1_555
H29 N7 1.038511 1_555
H30 N7 1.038511 1_555
H31 N7 1.029660 1_555
O0 S11 1.490527 1_555
O1 S0 1.490987 1_555
O2 S1 1.483843 1_555
O3 S11 1.483843 1_555
O4 S1 1.491472 1_555
O5 S2 1.490527 1_555
O6 S1 1.490527 1_555
O7 S0 1.491472 1_555
O8 S3 1.490987 1_555
O9 S3 1.483843 1_554
O10 S1 1.490987 1_555
O11 S2 1.491472 1_555
O12 S3 1.491472 1_555
O13 S4 1.490987 1_555
O14 S2 1.483843 1_555
O15 S2 1.490987 1_555
O16 S5 1.491472 1_555
O17 S4 1.490527 1_555
O18 S3 1.490527 1_554
O19 S4 1.491472 1_555
O20 S6 1.483843 1_655
O21 S4 1.483843 1_555
O22 S5 1.490987 1_555
O23 S6 1.490527 1_655
O24 S5 1.490527 1_455
O25 S6 1.490987 1_555
O26 S7 1.483843 1_545
O27 S5 1.483843 1_455
O28 S7 1.491472 1_555
O29 S8 1.490527 1_555
O30 S7 1.490527 1_545
O31 S6 1.491472 1_555
O32 S9 1.490987 1_555
O33 S9 1.483843 1_556
O34 S7 1.490987 1_555
O35 S8 1.491472 1_555
O36 S9 1.491472 1_555
O37 S10 1.490987 1_555
O38 S8 1.483843 1_555
O39 S8 1.490987 1_555
O40 S11 1.491472 1_555
O41 S10 1.490527 1_565
O42 S9 1.490527 1_556
O43 S10 1.491472 1_555
O44 S0 1.483843 1_555
O45 S10 1.483843 1_565
O46 S11 1.490987 1_555
O47 S0 1.490527 1_555
