# generated using pymatgen
data_Li6Ti8Ni(PO5)8
_symmetry_space_group_name_H-M   'P 1'
_cell_length_a   6.45341100
_cell_length_b   10.43518007
_cell_length_c   10.45237609
_cell_angle_alpha   90.95944913
_cell_angle_beta   90.17637087
_cell_angle_gamma   90.32518469
_symmetry_Int_Tables_number   1
_chemical_formula_structural   Li6Ti8Ni(PO5)8
_chemical_formula_sum   'Li6 Ti8 Ni1 P8 O40'
_cell_volume   703.77563075
_cell_formula_units_Z   1
loop_
 _symmetry_equiv_pos_site_id
 _symmetry_equiv_pos_as_xyz
  1  'x, y, z'
loop_
 _atom_site_type_symbol
 _atom_site_label
 _atom_site_symmetry_multiplicity
 _atom_site_fract_x
 _atom_site_fract_y
 _atom_site_fract_z
 _atom_site_occupancy
  Li  Li0  1  0.00000000  0.00000000  0.00000000  1
  Li  Li1  1  0.00000000  0.50000000  0.50000000  1
  Li  Li2  1  0.50000000  0.00000000  0.50000000  1
  Li  Li3  1  0.50000000  0.00000000  0.00000000  1
  Li  Li4  1  0.50000000  0.50000000  0.50000000  1
  Li  Li5  1  0.00000000  0.00000000  0.50000000  1
  Ti  Ti0  1  0.76364400  0.28186100  0.94363100  1
  Ti  Ti1  1  0.74936900  0.77901100  0.44065800  1
  Ti  Ti2  1  0.74893400  0.55946200  0.72076400  1
  Ti  Ti3  1  0.74959800  0.05902800  0.22117400  1
  Ti  Ti4  1  0.25063100  0.22098900  0.55934200  1
  Ti  Ti5  1  0.23635600  0.71813900  0.05636900  1
  Ti  Ti6  1  0.25040200  0.94097200  0.77882600  1
  Ti  Ti7  1  0.25106600  0.44053800  0.27923600  1
  Ni  Ni0  1  0.50000000  0.50000000  0.00000000  1
  P  P0  1  0.75112800  0.25032900  0.62388000  1
  P  P1  1  0.74887400  0.75012100  0.12220500  1
  P  P2  1  0.75003100  0.87847600  0.74981500  1
  P  P3  1  0.74629400  0.37859700  0.25184800  1
  P  P4  1  0.25112600  0.24987900  0.87779500  1
  P  P5  1  0.24887200  0.74967100  0.37612000  1
  P  P6  1  0.25370600  0.62140300  0.74815200  1
  P  P7  1  0.24996900  0.12152400  0.25018500  1
  O  O0  1  0.94343500  0.18801000  0.56105200  1
  O  O1  1  0.94250600  0.69054500  0.06058200  1
  O  O2  1  0.94347400  0.94163000  0.81215500  1
  O  O3  1  0.94445800  0.44283300  0.30696300  1
  O  O4  1  0.75247800  0.39746400  0.60115700  1
  O  O5  1  0.74621400  0.89740300  0.10131200  1
  O  O6  1  0.75132600  0.63617900  0.52299300  1
  O  O7  1  0.75291700  0.13731000  0.02333800  1
  O  O8  1  0.74910900  0.73374700  0.77940500  1
  O  O9  1  0.75099700  0.22215400  0.76830000  1
  O  O10  1  0.75283200  0.23380500  0.28077200  1
  O  O11  1  0.74660500  0.71906700  0.26617200  1
  O  O12  1  0.72172400  0.47919400  0.86407700  1
  O  O13  1  0.75036900  0.97762400  0.36439800  1
  O  O14  1  0.75032900  0.89956100  0.60285400  1
  O  O15  1  0.72858500  0.39927500  0.10519300  1
  O  O16  1  0.55716000  0.18824400  0.56057000  1
  O  O17  1  0.55763500  0.68842900  0.05575500  1
  O  O18  1  0.55719800  0.94087400  0.81152300  1
  O  O19  1  0.55821000  0.43960200  0.31934900  1
  O  O20  1  0.44179000  0.56039800  0.68065100  1
  O  O21  1  0.44280200  0.05912600  0.18847700  1
  O  O22  1  0.44236500  0.31157100  0.94424500  1
  O  O23  1  0.44284000  0.81175600  0.43943000  1
  O  O24  1  0.24708300  0.86269000  0.97666200  1
  O  O25  1  0.25378600  0.10259700  0.89868800  1
  O  O26  1  0.24867400  0.36382100  0.47700700  1
  O  O27  1  0.24716800  0.76619500  0.71922800  1
  O  O28  1  0.24752200  0.60253600  0.39884300  1
  O  O29  1  0.25089100  0.26625300  0.22059500  1
  O  O30  1  0.27141500  0.60072500  0.89480700  1
  O  O31  1  0.24967100  0.10043900  0.39714600  1
  O  O32  1  0.25339500  0.28093300  0.73382800  1
  O  O33  1  0.24963100  0.02237600  0.63560200  1
  O  O34  1  0.24900300  0.77784600  0.23170000  1
  O  O35  1  0.27827600  0.52080600  0.13592300  1
  O  O36  1  0.05554200  0.55716700  0.69303700  1
  O  O37  1  0.05652600  0.05837000  0.18784500  1
  O  O38  1  0.05749400  0.30945500  0.93941800  1
  O  O39  1  0.05656500  0.81199000  0.43894800  1
loop_
_geom_bond_atom_site_label_1
_geom_bond_atom_site_label_2
_geom_bond_distance
_geom_bond_site_symmetry_2
Li0 O37 2.076568 1_555
Li0 O2 2.076568 1_444
Li0 O7 2.161416 1_455
Li0 O24 2.161416 1_544
Li0 O25 2.231296 1_554
Li0 O5 2.231296 1_445
Li1 O3 2.123264 1_455
Li1 O36 2.123264 1_555
Li1 O26 2.160866 1_555
Li1 O6 2.160866 1_455
Li1 O28 2.200740 1_555
Li1 O4 2.200740 1_455
Li2 O23 2.084295 1_545
Li2 O16 2.084295 1_555
Li2 O13 2.163639 1_545
Li2 O33 2.163639 1_555
Li2 O14 2.215922 1_545
Li2 O31 2.215922 1_555
Li3 O18 2.089094 1_544
Li3 O21 2.089094 1_555
Li3 O7 2.176207 1_555
Li3 O24 2.176207 1_544
Li3 O25 2.199815 1_554
Li3 O5 2.199815 1_545
Li4 O20 2.017664 1_555
Li4 O19 2.017664 1_555
Li4 O26 2.160496 1_555
Li4 O6 2.160496 1_555
Li4 O28 2.228148 1_555
Li4 O4 2.228148 1_555
Li5 O39 2.087398 1_545
Li5 O0 2.087398 1_455
Li5 O13 2.151571 1_445
Li5 O33 2.151571 1_555
Li5 O14 2.208976 1_445
Li5 O31 2.208976 1_555
Ni0 O35 2.029457 1_555
Ni0 O12 2.029457 1_554
Ni0 O17 2.072740 1_555
Ni0 O22 2.072740 1_554
Ni0 O30 2.129814 1_554
Ni0 O15 2.129814 1_555
O0 P0 1.547323 1_555
O0 Ti4 2.010370 1_655
O1 P1 1.537270 1_555
O1 Ti5 1.917206 1_655
O2 P2 1.545506 1_555
O2 Ti6 2.012220 1_655
O3 P3 1.545772 1_555
O3 Ti7 2.000881 1_655
O4 P0 1.557547 1_555
O4 Ti2 2.085910 1_555
O5 P1 1.556151 1_555
O5 Ti3 2.084062 1_565
O6 Ti1 1.733613 1_555
O6 Ti2 2.229311 1_555
O7 Ti0 1.736510 1_554
O7 Ti3 2.236166 1_555
O8 P2 1.546664 1_555
O8 Ti2 1.909447 1_555
O9 P0 1.542725 1_555
O9 Ti0 1.927080 1_555
O10 P3 1.546620 1_555
O10 Ti3 1.917364 1_555
O11 P1 1.544685 1_555
O11 Ti1 1.918148 1_555
O12 Ti2 1.737321 1_555
O12 Ti0 2.251052 1_555
O13 Ti3 1.733583 1_565
O13 Ti1 2.232964 1_555
O14 P2 1.555418 1_555
O14 Ti1 2.094059 1_555
O15 P3 1.555526 1_555
O15 Ti0 2.083346 1_554
O16 P0 1.547857 1_555
O16 Ti4 2.009401 1_555
O17 P1 1.546186 1_555
O17 Ti5 2.098150 1_555
O18 P2 1.545534 1_555
O18 Ti6 2.008133 1_555
O19 P3 1.541208 1_555
O19 Ti7 2.024834 1_555
O20 P6 1.541208 1_555
O20 Ti2 2.024834 1_555
O21 P7 1.545534 1_555
O21 Ti3 2.008133 1_555
O22 P4 1.546186 1_555
O22 Ti0 2.098150 1_555
O23 P5 1.547857 1_555
O23 Ti1 2.009401 1_555
O24 Ti5 1.736510 1_556
O24 Ti6 2.236166 1_555
O25 P4 1.556151 1_555
O25 Ti6 2.084062 1_545
O26 Ti4 1.733613 1_555
O26 Ti7 2.229311 1_555
O27 P6 1.546620 1_555
O27 Ti6 1.917364 1_555
O28 P5 1.557547 1_555
O28 Ti7 2.085910 1_555
O29 P7 1.546664 1_555
O29 Ti7 1.909447 1_555
O30 P6 1.555526 1_555
O30 Ti5 2.083346 1_556
O31 P7 1.555418 1_555
O31 Ti4 2.094059 1_555
O32 P4 1.544685 1_555
O32 Ti4 1.918148 1_555
O33 Ti6 1.733583 1_545
O33 Ti4 2.232964 1_555
O34 P5 1.542725 1_555
O34 Ti5 1.927080 1_555
O35 Ti7 1.737321 1_555
O35 Ti5 2.251052 1_555
O36 P6 1.545772 1_555
O36 Ti2 2.000881 1_455
O37 P7 1.545506 1_555
O37 Ti3 2.012220 1_455
O38 P4 1.537270 1_555
O38 Ti0 1.917206 1_455
O39 P5 1.547323 1_555
O39 Ti1 2.010370 1_455
