# generated using pymatgen
data_CrOF
_symmetry_space_group_name_H-M   'P 1'
_cell_length_a   3.88518238
_cell_length_b   2.99670936
_cell_length_c   5.67884431
_cell_angle_alpha   90.00000000
_cell_angle_beta   90.00000000
_cell_angle_gamma   90.00000000
_symmetry_Int_Tables_number   1
_chemical_formula_structural   CrOF
_chemical_formula_sum   'Cr2 O2 F2'
_cell_volume   66.11743503
_cell_formula_units_Z   2
loop_
 _symmetry_equiv_pos_site_id
 _symmetry_equiv_pos_as_xyz
  1  'x, y, z'
loop_
 _atom_site_type_symbol
 _atom_site_label
 _atom_site_symmetry_multiplicity
 _atom_site_fract_x
 _atom_site_fract_y
 _atom_site_fract_z
 _atom_site_occupancy
  Cr  Cr0  1  0.25000000  0.25000000  0.15141950  1
  Cr  Cr1  1  0.75000000  0.75000000  0.84858050  1
  O  O0  1  0.25000000  0.75000000  0.92000530  1
  O  O1  1  0.75000000  0.25000000  0.07999470  1
  F  F0  1  0.25000000  0.75000000  0.36973517  1
  F  F1  1  0.75000000  0.25000000  0.63026483  1
loop_
_geom_bond_atom_site_label_1
_geom_bond_atom_site_label_2
_geom_bond_distance
_geom_bond_site_symmetry_2
Cr0 F0 1.944768 1_555
Cr0 F0 1.944768 1_545
Cr0 O1 1.984485 1_455
Cr0 O1 1.984485 1_555
Cr0 O0 1.993012 1_554
Cr0 O0 1.993012 1_544
Cr1 F1 1.944768 1_555
Cr1 F1 1.944768 1_565
Cr1 O0 1.984485 1_555
Cr1 O0 1.984485 1_655
Cr1 O1 1.993012 1_566
Cr1 O1 1.993012 1_556
