# generated using pymatgen
data_Li2V3O6
_symmetry_space_group_name_H-M   'P 1'
_cell_length_a   5.13603471
_cell_length_b   5.20313147
_cell_length_c   8.97148123
_cell_angle_alpha   90.00015558
_cell_angle_beta   89.99975038
_cell_angle_gamma   72.16411379
_symmetry_Int_Tables_number   1
_chemical_formula_structural   Li2V3O6
_chemical_formula_sum   'Li4 V6 O12'
_cell_volume   228.22617241
_cell_formula_units_Z   2
loop_
 _symmetry_equiv_pos_site_id
 _symmetry_equiv_pos_as_xyz
  1  'x, y, z'
loop_
 _atom_site_type_symbol
 _atom_site_label
 _atom_site_symmetry_multiplicity
 _atom_site_fract_x
 _atom_site_fract_y
 _atom_site_fract_z
 _atom_site_occupancy
  Li  Li0  1  0.50000000  0.00000000  0.16819000  1
  Li  Li1  1  0.00000000  0.00000000  0.66832200  1
  Li  Li2  1  0.00000000  0.00000000  0.33167800  1
  Li  Li3  1  0.50000000  0.00000000  0.83181000  1
  V  V0  1  0.50000200  0.50000000  0.00000100  1
  V  V1  1  0.99999800  0.50000300  0.83340900  1
  V  V2  1  0.00000100  0.49999900  0.16659100  1
  V  V3  1  0.00000100  0.49999900  0.50000100  1
  V  V4  1  0.49999700  0.50000100  0.33327200  1
  V  V5  1  0.50000200  0.49999900  0.66672800  1
  O  O0  1  0.25816500  0.28585600  0.00000100  1
  O  O1  1  0.75821400  0.28603900  0.50000000  1
  O  O2  1  0.24178500  0.71396100  0.50000000  1
  O  O3  1  0.74183100  0.71414800  0.99999900  1
  O  O4  1  0.72597100  0.28058100  0.16807000  1
  O  O5  1  0.22599400  0.28068700  0.66819800  1
  O  O6  1  0.22599700  0.28068400  0.33180400  1
  O  O7  1  0.72597600  0.28057900  0.83193200  1
  O  O8  1  0.27402500  0.71942100  0.16806900  1
  O  O9  1  0.77400500  0.71931700  0.66819600  1
  O  O10  1  0.77400600  0.71930900  0.33180100  1
  O  O11  1  0.27402900  0.71941700  0.83192900  1
loop_
_geom_bond_atom_site_label_1
_geom_bond_atom_site_label_2
_geom_bond_distance
_geom_bond_site_symmetry_2
Li0 O4 2.125140 1_555
Li0 O8 2.125147 1_545
Li0 O3 2.213595 1_544
Li0 O0 2.213613 1_555
Li0 O6 2.238058 1_555
Li0 O10 2.238077 1_545
Li1 O9 2.125687 1_445
Li1 O5 2.125701 1_555
Li1 O2 2.214799 1_545
Li1 O1 2.214814 1_455
Li1 O7 2.237829 1_455
Li1 O11 2.237846 1_545
Li2 O6 2.125699 1_555
Li2 O10 2.125719 1_445
Li2 O1 2.214801 1_455
Li2 O2 2.214812 1_545
Li2 O8 2.237826 1_545
Li2 O4 2.237847 1_455
Li3 O11 2.125149 1_545
Li3 O7 2.125151 1_555
Li3 O3 2.213596 1_545
Li3 O0 2.213613 1_556
Li3 O9 2.238060 1_545
Li3 O5 2.238073 1_555
O0 V0 1.905792 1_555
O0 V2 2.080445 1_555
O0 V1 2.080485 1_454
O1 V3 1.904828 1_655
O1 V5 2.081127 1_555
O1 V4 2.081156 1_555
O2 V3 1.904823 1_555
O2 V4 2.081127 1_555
O2 V5 2.081156 1_555
O3 V0 1.905774 1_556
O3 V1 2.080456 1_555
O3 V2 2.080495 1_656
O4 V4 2.008818 1_555
O4 V0 2.027869 1_555
O4 V2 2.066088 1_655
O5 V1 2.008712 1_455
O5 V3 2.028557 1_555
O5 V5 2.065571 1_555
O6 V2 2.008735 1_555
O6 V3 2.028557 1_555
O6 V4 2.065556 1_555
O7 V5 2.008844 1_555
O7 V0 2.027872 1_556
O7 V1 2.066077 1_555
O8 V4 2.008833 1_555
O8 V0 2.027871 1_555
O8 V2 2.066078 1_555
O9 V1 2.008727 1_555
O9 V3 2.028550 1_655
O9 V5 2.065573 1_555
O10 V2 2.008691 1_655
O10 V3 2.028577 1_655
O10 V4 2.065560 1_555
O11 V5 2.008805 1_555
O11 V0 2.027894 1_556
O11 V1 2.066076 1_455
