# generated using pymatgen
data_Sr3Rh2O7
_symmetry_space_group_name_H-M   'P 1'
_cell_length_a   10.81120539
_cell_length_b   10.81120539
_cell_length_c   5.48665030
_cell_angle_alpha   90.00000000
_cell_angle_beta   90.00000000
_cell_angle_gamma   150.59868821
_symmetry_Int_Tables_number   1
_chemical_formula_structural   Sr3Rh2O7
_chemical_formula_sum   'Sr6 Rh4 O14'
_cell_volume   314.82522032
_cell_formula_units_Z   2
loop_
 _symmetry_equiv_pos_site_id
 _symmetry_equiv_pos_as_xyz
  1  'x, y, z'
loop_
 _atom_site_type_symbol
 _atom_site_label
 _atom_site_symmetry_multiplicity
 _atom_site_fract_x
 _atom_site_fract_y
 _atom_site_fract_z
 _atom_site_occupancy
  Sr  Sr0  1  0.18663286  0.81336714  0.50000000  1
  Sr  Sr1  1  0.81336714  0.18663286  0.50000000  1
  Sr  Sr2  1  0.00000000  0.00000000  0.50000000  1
  Sr  Sr3  1  0.68663286  0.31336714  0.00000000  1
  Sr  Sr4  1  0.31336714  0.68663286  0.00000000  1
  Sr  Sr5  1  0.50000000  0.50000000  0.00000000  1
  Rh  Rh0  1  0.09716180  0.90283820  0.00000000  1
  Rh  Rh1  1  0.59716180  0.40283820  0.50000000  1
  Rh  Rh2  1  0.90283820  0.09716180  0.00000000  1
  Rh  Rh3  1  0.40283820  0.59716180  0.50000000  1
  O  O0  1  0.19380371  0.80619629  0.00000000  1
  O  O1  1  0.59967867  0.79244265  0.19606044  1
  O  O2  1  0.29244265  0.09967867  0.69606044  1
  O  O3  1  0.70755735  0.90032133  0.69606044  1
  O  O4  1  0.40032133  0.20755735  0.19606044  1
  O  O5  1  0.00000000  0.00000000  0.00000000  1
  O  O6  1  0.69380371  0.30619629  0.50000000  1
  O  O7  1  0.80619629  0.19380371  0.00000000  1
  O  O8  1  0.09967867  0.29244265  0.30393956  1
  O  O9  1  0.79244265  0.59967867  0.80393956  1
  O  O10  1  0.20755735  0.40032133  0.80393956  1
  O  O11  1  0.90032133  0.70755735  0.30393956  1
  O  O12  1  0.30619629  0.69380371  0.50000000  1
  O  O13  1  0.50000000  0.50000000  0.50000000  1
loop_
_geom_bond_atom_site_label_1
_geom_bond_atom_site_label_2
_geom_bond_distance
_geom_bond_site_symmetry_2
O0 Rh0 2.021227 1_555
O0 Sr4 2.500621 1_555
O0 Sr0 2.747422 1_555
O0 Sr0 2.747422 1_554
O0 Sr3 2.747645 1_455
O0 Sr3 2.747645 1_565
O1 Rh3 1.984576 1_555
O1 Rh2 1.984642 1_565
O1 Sr4 2.424335 1_555
O1 Sr5 2.525456 1_555
O2 Rh0 1.984576 1_546
O2 Rh1 1.984642 1_555
O2 Sr0 2.424335 1_545
O2 Sr2 2.525456 1_555
O3 Rh2 1.984576 1_566
O3 Rh3 1.984642 1_555
O3 Sr1 2.424335 1_565
O3 Sr2 2.525456 1_665
O4 Rh1 1.984576 1_555
O4 Rh0 1.984642 1_545
O4 Sr3 2.424335 1_555
O4 Sr5 2.525456 1_555
O5 Rh0 2.032100 1_545
O5 Rh2 2.032100 1_455
O5 Sr2 2.743325 1_555
O5 Sr2 2.743325 1_554
O5 Sr5 2.743549 1_555
O5 Sr5 2.743549 1_445
O6 Rh1 2.021227 1_555
O6 Sr1 2.500621 1_555
O6 Sr3 2.747422 1_555
O6 Sr3 2.747422 1_556
O6 Sr0 2.747645 1_545
O6 Sr0 2.747645 1_655
O7 Rh2 2.021227 1_555
O7 Sr3 2.500621 1_555
O7 Sr1 2.747422 1_554
O7 Sr1 2.747422 1_555
O7 Sr4 2.747645 1_655
O7 Sr4 2.747645 1_545
O8 Rh2 1.984576 1_455
O8 Rh3 1.984642 1_555
O8 Sr1 2.424335 1_455
O8 Sr2 2.525456 1_555
O9 Rh1 1.984576 1_555
O9 Rh0 1.984642 1_656
O9 Sr3 2.424335 1_556
O9 Sr5 2.525456 1_556
O10 Rh3 1.984576 1_555
O10 Rh2 1.984642 1_456
O10 Sr4 2.424335 1_556
O10 Sr5 2.525456 1_556
O11 Rh0 1.984576 1_655
O11 Rh1 1.984642 1_555
O11 Sr0 2.424335 1_655
O11 Sr2 2.525456 1_665
O12 Rh3 2.021227 1_555
O12 Sr0 2.500621 1_555
O12 Sr4 2.747422 1_556
O12 Sr4 2.747422 1_555
O12 Sr1 2.747645 1_455
O12 Sr1 2.747645 1_565
O13 Rh3 2.032100 1_555
O13 Rh1 2.032100 1_555
O13 Sr5 2.743325 1_555
O13 Sr5 2.743325 1_556
O13 Sr2 2.743549 1_555
O13 Sr2 2.743549 1_665
