# generated using pymatgen
data_Li6TeO6
_symmetry_space_group_name_H-M   'P 1'
_cell_length_a   5.09079408
_cell_length_b   5.09079437
_cell_length_c   5.09079454
_cell_angle_alpha   101.02178451
_cell_angle_beta   101.02179022
_cell_angle_gamma   101.02180714
_symmetry_Int_Tables_number   1
_chemical_formula_structural   Li6TeO6
_chemical_formula_sum   'Li6 Te1 O6'
_cell_volume   123.50966762
_cell_formula_units_Z   1
loop_
 _symmetry_equiv_pos_site_id
 _symmetry_equiv_pos_as_xyz
  1  'x, y, z'
loop_
 _atom_site_type_symbol
 _atom_site_label
 _atom_site_symmetry_multiplicity
 _atom_site_fract_x
 _atom_site_fract_y
 _atom_site_fract_z
 _atom_site_occupancy
  Li  Li0  1  0.70107333  0.91556694  0.40647527  1
  Li  Li1  1  0.59352473  0.29892667  0.08443306  1
  Li  Li2  1  0.08443306  0.59352473  0.29892667  1
  Li  Li3  1  0.29892667  0.08443306  0.59352473  1
  Li  Li4  1  0.40647527  0.70107333  0.91556694  1
  Li  Li5  1  0.91556694  0.40647527  0.70107333  1
  Te  Te0  1  0.00000000  0.00000000  -0.00000000  1
  O  O0  1  0.77937806  0.67663667  0.06439369  1
  O  O1  1  0.93560631  0.22062194  0.32336333  1
  O  O2  1  0.32336333  0.93560631  0.22062194  1
  O  O3  1  0.22062194  0.32336333  0.93560631  1
  O  O4  1  0.06439369  0.77937806  0.67663667  1
  O  O5  1  0.67663667  0.06439369  0.77937806  1
loop_
_geom_bond_atom_site_label_1
_geom_bond_atom_site_label_2
_geom_bond_distance
_geom_bond_site_symmetry_2
Li0 O1 1.936932 1_565
Li0 O5 1.941573 1_565
Li0 O2 2.004795 1_555
Li0 O0 2.076540 1_555
Li0 O4 2.382323 1_655
Li1 O5 1.936932 1_554
Li1 O3 1.941572 1_554
Li1 O0 2.004794 1_555
Li1 O1 2.076539 1_555
Li1 O2 2.382323 1_545
Li2 O0 1.936932 1_455
Li2 O1 1.941572 1_455
Li2 O4 2.004795 1_555
Li2 O2 2.076539 1_555
Li2 O3 2.382324 1_554
Li3 O4 1.936932 1_545
Li3 O2 1.941573 1_545
Li3 O5 2.004795 1_555
Li3 O3 2.076540 1_555
Li3 O1 2.382323 1_455
Li4 O2 1.936932 1_556
Li4 O0 1.941572 1_556
Li4 O3 2.004794 1_555
Li4 O4 2.076539 1_555
Li4 O5 2.382323 1_565
Li5 O3 1.936932 1_655
Li5 O4 1.941572 1_655
Li5 O1 2.004795 1_555
Li5 O5 2.076539 1_555
Li5 O0 2.382324 1_556
O0 Te0 1.928464 1_665
O1 Te0 1.928465 1_655
O2 Te0 1.928464 1_565
O3 Te0 1.928464 1_556
O4 Te0 1.928465 1_566
O5 Te0 1.928464 1_656
