# generated using pymatgen
data_LiCo2(PO4)3
_symmetry_space_group_name_H-M   'P 1'
_cell_length_a   8.39170200
_cell_length_b   8.40822127
_cell_length_c   8.97552154
_cell_angle_alpha   90.24854102
_cell_angle_beta   117.76115098
_cell_angle_gamma   119.87769263
_symmetry_Int_Tables_number   1
_chemical_formula_structural   LiCo2(PO4)3
_chemical_formula_sum   'Li2 Co4 P6 O24'
_cell_volume   462.29512719
_cell_formula_units_Z   2
loop_
 _symmetry_equiv_pos_site_id
 _symmetry_equiv_pos_as_xyz
  1  'x, y, z'
loop_
 _atom_site_type_symbol
 _atom_site_label
 _atom_site_symmetry_multiplicity
 _atom_site_fract_x
 _atom_site_fract_y
 _atom_site_fract_z
 _atom_site_occupancy
  Li  Li0  1  0.18508600  0.26327100  0.86169600  1
  Li  Li1  1  0.81491400  0.73672900  0.13830400  1
  Co  Co0  1  0.71417800  0.85340500  0.57135300  1
  Co  Co1  1  0.29795600  0.66341800  0.94337300  1
  Co  Co2  1  0.70204400  0.33658200  0.05662700  1
  Co  Co3  1  0.28582200  0.14659500  0.42864700  1
  P  P0  1  0.50005200  0.53766800  0.75071000  1
  P  P1  1  0.78934300  0.25187700  0.74990600  1
  P  P2  1  0.21398300  0.96445800  0.74936600  1
  P  P3  1  0.78601700  0.03554200  0.25063400  1
  P  P4  1  0.21065700  0.74812300  0.25009400  1
  P  P5  1  0.49994800  0.46233200  0.24929000  1
  O  O0  1  0.31921900  0.46397700  0.08285500  1
  O  O1  1  0.62825200  0.83395400  0.10820900  1
  O  O2  1  0.26437500  0.77659800  0.10347900  1
  O  O3  1  0.32705300  0.50588000  0.79206400  1
  O  O4  1  0.61119600  0.73715600  0.72693400  1
  O  O5  1  0.38762800  0.37711300  0.58337700  1
  O  O6  1  0.86232400  0.11840100  0.73588700  1
  O  O7  1  0.97039400  0.46430200  0.79820000  1
  O  O8  1  0.29393600  0.83211100  0.80246400  1
  O  O9  1  0.81042800  0.01105600  0.42904700  1
  O  O10  1  0.01159100  0.12083100  0.27713300  1
  O  O11  1  0.42201900  0.80716900  0.42351300  1
  O  O12  1  0.57798100  0.19283100  0.57648700  1
  O  O13  1  0.98840900  0.87916900  0.72286700  1
  O  O14  1  0.18957200  0.98894400  0.57095300  1
  O  O15  1  0.70606400  0.16788900  0.19753600  1
  O  O16  1  0.02960600  0.53569800  0.20180000  1
  O  O17  1  0.13767600  0.88159900  0.26411300  1
  O  O18  1  0.61237200  0.62288700  0.41662300  1
  O  O19  1  0.38880400  0.26284400  0.27306600  1
  O  O20  1  0.67294700  0.49412000  0.20793600  1
  O  O21  1  0.73562500  0.22340200  0.89652100  1
  O  O22  1  0.37174800  0.16604600  0.89179100  1
  O  O23  1  0.68078100  0.53602300  0.91714500  1
loop_
_geom_bond_atom_site_label_1
_geom_bond_atom_site_label_2
_geom_bond_distance
_geom_bond_site_symmetry_2
Li0 O6 1.986654 1_455
Li0 O0 2.013000 1_556
Li0 O22 2.019514 1_555
Li0 O3 2.062663 1_555
Li1 O17 1.986654 1_655
Li1 O23 2.013000 1_554
Li1 O1 2.019514 1_555
Li1 O20 2.062663 1_555
Co0 O18 1.907087 1_555
Co0 O13 1.943580 1_555
Co0 O11 1.984452 1_555
Co0 O4 1.986628 1_555
Co0 O9 1.987454 1_565
Co0 O6 2.047540 1_565
Co1 O8 1.906844 1_555
Co1 O2 1.919029 1_556
Co1 O7 2.028824 1_455
Co1 O1 2.032058 1_556
Co1 O3 2.067401 1_555
Co1 O0 2.125917 1_556
Co2 O15 1.906844 1_555
Co2 O21 1.919029 1_554
Co2 O16 2.028824 1_655
Co2 O22 2.032058 1_554
Co2 O20 2.067401 1_555
Co2 O23 2.125917 1_554
Co3 O5 1.907087 1_555
Co3 O10 1.943580 1_555
Co3 O12 1.984452 1_555
Co3 O19 1.986628 1_555
Co3 O14 1.987454 1_545
Co3 O17 2.047540 1_545
O0 P5 1.562821 1_555
O1 P3 1.558454 1_565
O2 P4 1.562072 1_555
O3 P0 1.559826 1_555
O4 P0 1.535836 1_555
O5 P0 1.536797 1_555
O6 P1 1.551067 1_555
O7 P1 1.537067 1_555
O8 P2 1.538249 1_555
O9 P3 1.545303 1_555
O10 P3 1.542964 1_455
O11 P4 1.536005 1_555
O12 P1 1.536005 1_555
O13 P2 1.542964 1_655
O14 P2 1.545303 1_555
O15 P3 1.538249 1_555
O16 P4 1.537067 1_555
O17 P4 1.551067 1_555
O18 P5 1.536797 1_555
O19 P5 1.535836 1_555
O20 P5 1.559826 1_555
O21 P1 1.562072 1_555
O22 P2 1.558454 1_545
O23 P0 1.562821 1_555
