# generated using pymatgen
data_Fe21HO32
_symmetry_space_group_name_H-M   'P 1'
_cell_length_a   8.56353322
_cell_length_b   8.56353322
_cell_length_c   17.07410600
_cell_angle_alpha   90.00000000
_cell_angle_beta   90.00000000
_cell_angle_gamma   90.25429245
_symmetry_Int_Tables_number   1
_chemical_formula_structural   Fe21HO32
_chemical_formula_sum   'Fe42 H2 O64'
_cell_volume   1252.10188500
_cell_formula_units_Z   2
loop_
 _symmetry_equiv_pos_site_id
 _symmetry_equiv_pos_as_xyz
  1  'x, y, z'
loop_
 _atom_site_type_symbol
 _atom_site_label
 _atom_site_symmetry_multiplicity
 _atom_site_fract_x
 _atom_site_fract_y
 _atom_site_fract_z
 _atom_site_occupancy
  Fe  Fe0  1  0.99943300  0.00056700  0.00067600  1
  Fe  Fe1  1  0.00056700  0.99943300  0.50067600  1
  Fe  Fe2  1  0.50107400  0.99918600  0.25053200  1
  Fe  Fe3  1  0.49892600  0.00081400  0.75053200  1
  Fe  Fe4  1  0.87203200  0.12796800  0.31263400  1
  Fe  Fe5  1  0.37964600  0.13266900  0.06638100  1
  Fe  Fe6  1  0.86838000  0.13162000  0.80990000  1
  Fe  Fe7  1  0.38171500  0.13300300  0.56691200  1
  Fe  Fe8  1  0.61901600  0.13172000  0.43400700  1
  Fe  Fe9  1  0.13244900  0.13349100  0.19070300  1
  Fe  Fe10  1  0.62058900  0.13255400  0.93473800  1
  Fe  Fe11  1  0.13349100  0.13244900  0.69070300  1
  Fe  Fe12  1  0.75110800  0.24889200  0.12709200  1
  Fe  Fe13  1  0.75583100  0.24416900  0.62291300  1
  Fe  Fe14  1  0.24999400  0.24895500  0.37721900  1
  Fe  Fe15  1  0.24895500  0.24999400  0.87721900  1
  Fe  Fe16  1  0.13300300  0.38171500  0.06691200  1
  Fe  Fe17  1  0.86744600  0.37941100  0.93473800  1
  Fe  Fe18  1  0.13266900  0.37964600  0.56638100  1
  Fe  Fe19  1  0.86828000  0.38098400  0.43400700  1
  Fe  Fe20  1  0.47983400  0.52016600  0.25522400  1
  Fe  Fe21  1  0.52016600  0.47983400  0.75522400  1
  Fe  Fe22  1  0.00081400  0.49892600  0.25053200  1
  Fe  Fe23  1  0.49945700  0.50054300  0.99790500  1
  Fe  Fe24  1  0.99918600  0.50107400  0.75053200  1
  Fe  Fe25  1  0.50054300  0.49945700  0.49790500  1
  Fe  Fe26  1  0.86733100  0.62035400  0.06638100  1
  Fe  Fe27  1  0.86699700  0.61828500  0.56691200  1
  Fe  Fe28  1  0.13172000  0.61901600  0.93400700  1
  Fe  Fe29  1  0.13255400  0.62058900  0.43473800  1
  Fe  Fe30  1  0.75104500  0.75000600  0.37721900  1
  Fe  Fe31  1  0.24416900  0.75583100  0.12291300  1
  Fe  Fe32  1  0.75000600  0.75104500  0.87721900  1
  Fe  Fe33  1  0.24889200  0.75110800  0.62709200  1
  Fe  Fe34  1  0.86650900  0.86755100  0.19070300  1
  Fe  Fe35  1  0.61828500  0.86699700  0.06691200  1
  Fe  Fe36  1  0.86755100  0.86650900  0.69070300  1
  Fe  Fe37  1  0.62035400  0.86733100  0.56638100  1
  Fe  Fe38  1  0.38098400  0.86828000  0.93400700  1
  Fe  Fe39  1  0.37941100  0.86744600  0.43473800  1
  Fe  Fe40  1  0.13162000  0.86838000  0.30990000  1
  Fe  Fe41  1  0.12796800  0.87203200  0.81263400  1
  H  H0  1  0.67203300  0.32796700  0.25726900  1
  H  H1  1  0.32796700  0.67203300  0.75726900  1
  O  O0  1  0.88347300  0.11652700  0.19161400  1
  O  O1  1  0.88968300  0.11031700  0.69073100  1
  O  O2  1  0.61716400  0.11124700  0.55635100  1
  O  O3  1  0.61862000  0.11854100  0.05994800  1
  O  O4  1  0.86746200  0.13253800  0.93471900  1
  O  O5  1  0.36250400  0.11156200  0.68145300  1
  O  O6  1  0.86892200  0.13107800  0.43501900  1
  O  O7  1  0.64023900  0.11453100  0.31863800  1
  O  O8  1  0.36153500  0.11003600  0.18125900  1
  O  O9  1  0.13218600  0.13345200  0.06632500  1
  O  O10  1  0.63965800  0.11087000  0.81951500  1
  O  O11  1  0.38356000  0.11248200  0.94299500  1
  O  O12  1  0.13345200  0.13218600  0.56632500  1
  O  O13  1  0.38136200  0.11249900  0.44444900  1
  O  O14  1  0.11305500  0.11491700  0.30956700  1
  O  O15  1  0.11491700  0.11305500  0.80956700  1
  O  O16  1  0.88145900  0.38138000  0.05994800  1
  O  O17  1  0.63518200  0.36481800  0.20536000  1
  O  O18  1  0.88875300  0.38283600  0.55635100  1
  O  O19  1  0.88546900  0.35976100  0.31863800  1
  O  O20  1  0.64014300  0.35985700  0.44600500  1
  O  O21  1  0.63226800  0.36773200  0.68052500  1
  O  O22  1  0.63831200  0.36168800  0.94524900  1
  O  O23  1  0.36285300  0.36140800  0.05630900  1
  O  O24  1  0.11156200  0.36250400  0.18145300  1
  O  O25  1  0.11248200  0.38356000  0.44299500  1
  O  O26  1  0.88913000  0.36034200  0.81951500  1
  O  O27  1  0.36985700  0.37369800  0.31753300  1
  O  O28  1  0.36140800  0.36285300  0.55630900  1
  O  O29  1  0.11003600  0.36153500  0.68125900  1
  O  O30  1  0.11249900  0.38136200  0.94444900  1
  O  O31  1  0.37369800  0.36985700  0.81753300  1
  O  O32  1  0.88996400  0.63846500  0.18125900  1
  O  O33  1  0.63859200  0.63714700  0.05630900  1
  O  O34  1  0.62630200  0.63014300  0.31753300  1
  O  O35  1  0.36773200  0.63226800  0.18052500  1
  O  O36  1  0.88843800  0.63749600  0.68145300  1
  O  O37  1  0.88751800  0.61644000  0.94299500  1
  O  O38  1  0.88750100  0.61863800  0.44444900  1
  O  O39  1  0.63714700  0.63859200  0.55630900  1
  O  O40  1  0.63014300  0.62630200  0.81753300  1
  O  O41  1  0.36168800  0.63831200  0.44524900  1
  O  O42  1  0.36481800  0.63518200  0.70536000  1
  O  O43  1  0.35985700  0.64014300  0.94600500  1
  O  O44  1  0.11124700  0.61716400  0.05635100  1
  O  O45  1  0.11087000  0.63965800  0.31951500  1
  O  O46  1  0.11854100  0.61862000  0.55994800  1
  O  O47  1  0.11453100  0.64023900  0.81863800  1
  O  O48  1  0.86781400  0.86654800  0.56632500  1
  O  O49  1  0.86654800  0.86781400  0.06632500  1
  O  O50  1  0.88508300  0.88694500  0.30956700  1
  O  O51  1  0.88694500  0.88508300  0.80956700  1
  O  O52  1  0.63749600  0.88843800  0.18145300  1
  O  O53  1  0.38283600  0.88875300  0.05635100  1
  O  O54  1  0.36034200  0.88913000  0.31951500  1
  O  O55  1  0.38138000  0.88145900  0.55994800  1
  O  O56  1  0.63846500  0.88996400  0.68125900  1
  O  O57  1  0.35976100  0.88546900  0.81863800  1
  O  O58  1  0.61863800  0.88750100  0.94444900  1
  O  O59  1  0.61644000  0.88751800  0.44299500  1
  O  O60  1  0.11031700  0.88968300  0.19073100  1
  O  O61  1  0.11652700  0.88347300  0.69161400  1
  O  O62  1  0.13107800  0.86892200  0.93501900  1
  O  O63  1  0.13253800  0.86746200  0.43471900  1
loop_
_geom_bond_atom_site_label_1
_geom_bond_atom_site_label_2
_geom_bond_distance
_geom_bond_site_symmetry_2
Fe0 O62 1.951876 1_644
Fe0 O49 1.957623 1_545
Fe0 O9 1.957623 1_655
Fe0 O4 1.958058 1_554
Fe1 O6 1.951876 1_465
Fe1 O48 1.957623 1_455
Fe1 O12 1.957623 1_565
Fe1 O63 1.958058 1_555
Fe2 O52 1.914480 1_555
Fe2 O54 1.928173 1_555
Fe2 O7 1.933312 1_565
Fe2 O8 1.933399 1_565
Fe3 O5 1.914480 1_555
Fe3 O10 1.928173 1_555
Fe3 O57 1.933312 1_545
Fe3 O56 1.933399 1_545
Fe4 O7 1.990431 1_555
Fe4 O19 1.990431 1_555
Fe4 O14 2.068190 1_655
Fe4 O50 2.068190 1_545
Fe4 O0 2.070969 1_555
Fe4 O6 2.089955 1_555
Fe5 O23 1.972234 1_555
Fe5 O8 1.977017 1_555
Fe5 O3 2.053511 1_555
Fe5 O53 2.096090 1_545
Fe5 O11 2.114064 1_554
Fe5 O9 2.119173 1_555
Fe6 O26 1.972769 1_555
Fe6 O10 1.972769 1_555
Fe6 O1 2.051067 1_555
Fe6 O15 2.117916 1_655
Fe6 O51 2.117916 1_545
Fe6 O4 2.131202 1_555
Fe7 O5 1.971095 1_555
Fe7 O28 1.985036 1_555
Fe7 O2 2.033698 1_555
Fe7 O13 2.098307 1_555
Fe7 O12 2.126013 1_555
Fe7 O55 2.157374 1_545
Fe8 O20 1.971888 1_555
Fe8 O7 1.983718 1_555
Fe8 O13 2.048847 1_555
Fe8 O2 2.096313 1_555
Fe8 O59 2.096874 1_545
Fe8 O6 2.140180 1_555
Fe9 O24 1.976411 1_555
Fe9 O8 1.979506 1_555
Fe9 O14 2.042426 1_555
Fe9 O60 2.095605 1_545
Fe9 O9 2.123644 1_555
Fe9 O0 2.136471 1_455
Fe10 O22 1.975554 1_555
Fe10 O10 1.982877 1_555
Fe10 O11 2.041185 1_555
Fe10 O58 2.105052 1_545
Fe10 O4 2.114106 1_555
Fe10 O3 2.141276 1_556
Fe11 O5 1.976411 1_555
Fe11 O29 1.979506 1_555
Fe11 O15 2.042426 1_555
Fe11 O1 2.095605 1_455
Fe11 O12 2.123644 1_555
Fe11 O61 2.136471 1_545
Fe12 O17 1.940527 1_555
Fe12 O0 1.948012 1_555
Fe12 O3 1.958656 1_555
Fe12 O16 1.958656 1_555
Fe13 O21 1.793559 1_555
Fe13 O1 1.995051 1_555
Fe13 O2 1.996346 1_555
Fe13 O18 1.996346 1_555
Fe14 O27 1.795422 1_555
Fe14 O13 1.990073 1_555
Fe14 O25 1.997185 1_555
Fe14 O14 2.003751 1_555
Fe15 O31 1.795422 1_555
Fe15 O30 1.990073 1_555
Fe15 O11 1.997185 1_555
Fe15 O15 2.003751 1_555
Fe16 O24 1.971095 1_555
Fe16 O23 1.985036 1_555
Fe16 O44 2.033698 1_555
Fe16 O30 2.098307 1_554
Fe16 O9 2.126013 1_555
Fe16 O16 2.157374 1_455
Fe17 O22 1.975554 1_555
Fe17 O26 1.982877 1_555
Fe17 O37 2.041185 1_555
Fe17 O30 2.105052 1_655
Fe17 O4 2.114106 1_555
Fe17 O16 2.141276 1_556
Fe18 O28 1.972234 1_555
Fe18 O29 1.977017 1_555
Fe18 O46 2.053511 1_555
Fe18 O18 2.096090 1_455
Fe18 O25 2.114064 1_555
Fe18 O12 2.119173 1_555
Fe19 O20 1.971888 1_555
Fe19 O19 1.983718 1_555
Fe19 O38 2.048847 1_555
Fe19 O18 2.096313 1_555
Fe19 O25 2.096874 1_655
Fe19 O6 2.140180 1_555
Fe20 O35 1.864948 1_555
Fe20 O27 1.892494 1_555
Fe20 O34 1.892494 1_555
Fe20 O17 2.068842 1_555
Fe21 O21 1.864948 1_555
Fe21 O40 1.892494 1_555
Fe21 O31 1.892494 1_555
Fe21 O42 2.068842 1_555
Fe22 O24 1.914480 1_555
Fe22 O45 1.928173 1_555
Fe22 O19 1.933312 1_455
Fe22 O32 1.933399 1_455
Fe23 O22 1.910161 1_555
Fe23 O43 1.912128 1_555
Fe23 O33 1.941683 1_556
Fe23 O23 1.941683 1_556
Fe24 O36 1.914480 1_555
Fe24 O26 1.928173 1_555
Fe24 O47 1.933312 1_655
Fe24 O29 1.933399 1_655
Fe25 O41 1.910161 1_555
Fe25 O20 1.912128 1_555
Fe25 O39 1.941683 1_555
Fe25 O28 1.941683 1_555
Fe26 O33 1.972234 1_555
Fe26 O32 1.977017 1_555
Fe26 O16 2.053511 1_555
Fe26 O44 2.096090 1_655
Fe26 O37 2.114064 1_554
Fe26 O49 2.119173 1_555
Fe27 O36 1.971095 1_555
Fe27 O39 1.985036 1_555
Fe27 O18 2.033698 1_555
Fe27 O38 2.098307 1_555
Fe27 O48 2.126013 1_555
Fe27 O46 2.157374 1_655
Fe28 O43 1.971888 1_555
Fe28 O47 1.983718 1_555
Fe28 O30 2.048847 1_555
Fe28 O44 2.096313 1_556
Fe28 O37 2.096874 1_455
Fe28 O62 2.140180 1_555
Fe29 O41 1.975554 1_555
Fe29 O45 1.982877 1_555
Fe29 O25 2.041185 1_555
Fe29 O38 2.105052 1_455
Fe29 O63 2.114106 1_555
Fe29 O46 2.141276 1_555
Fe30 O34 1.795422 1_555
Fe30 O38 1.990073 1_555
Fe30 O59 1.997185 1_555
Fe30 O50 2.003751 1_555
Fe31 O35 1.793559 1_555
Fe31 O60 1.995051 1_555
Fe31 O44 1.996346 1_555
Fe31 O53 1.996346 1_555
Fe32 O40 1.795422 1_555
Fe32 O58 1.990073 1_555
Fe32 O37 1.997185 1_555
Fe32 O51 2.003751 1_555
Fe33 O42 1.940527 1_555
Fe33 O61 1.948012 1_555
Fe33 O46 1.958656 1_555
Fe33 O55 1.958656 1_555
Fe34 O52 1.976411 1_555
Fe34 O32 1.979506 1_555
Fe34 O50 2.042426 1_555
Fe34 O60 2.095605 1_655
Fe34 O49 2.123644 1_555
Fe34 O0 2.136471 1_565
Fe35 O52 1.971095 1_555
Fe35 O33 1.985036 1_555
Fe35 O53 2.033698 1_555
Fe35 O58 2.098307 1_554
Fe35 O49 2.126013 1_555
Fe35 O3 2.157374 1_565
Fe36 O36 1.976411 1_555
Fe36 O56 1.979506 1_555
Fe36 O51 2.042426 1_555
Fe36 O1 2.095605 1_565
Fe36 O48 2.123644 1_555
Fe36 O61 2.136471 1_655
Fe37 O39 1.972234 1_555
Fe37 O56 1.977017 1_555
Fe37 O55 2.053511 1_555
Fe37 O2 2.096090 1_565
Fe37 O59 2.114064 1_555
Fe37 O48 2.119173 1_555
Fe38 O43 1.971888 1_555
Fe38 O57 1.983718 1_555
Fe38 O58 2.048847 1_555
Fe38 O53 2.096313 1_556
Fe38 O11 2.096874 1_565
Fe38 O62 2.140180 1_555
Fe39 O41 1.975554 1_555
Fe39 O54 1.982877 1_555
Fe39 O59 2.041185 1_555
Fe39 O13 2.105052 1_565
Fe39 O63 2.114106 1_555
Fe39 O55 2.141276 1_555
Fe40 O54 1.972769 1_555
Fe40 O45 1.972769 1_555
Fe40 O60 2.051067 1_555
Fe40 O14 2.117916 1_565
Fe40 O50 2.117916 1_455
Fe40 O63 2.131202 1_555
Fe41 O47 1.990431 1_555
Fe41 O57 1.990431 1_555
Fe41 O51 2.068190 1_455
Fe41 O15 2.068190 1_565
Fe41 O61 2.070969 1_555
Fe41 O62 2.089955 1_555
H0 O17 0.992767 1_555
H1 O42 0.992767 1_555
