# generated using pymatgen
data_Li2Ti3NbO8
_symmetry_space_group_name_H-M   'P 1'
_cell_length_a   8.55851700
_cell_length_b   8.55851700
_cell_length_c   8.55851700
_cell_angle_alpha   90.00000000
_cell_angle_beta   90.00000000
_cell_angle_gamma   90.00000000
_symmetry_Int_Tables_number   1
_chemical_formula_structural   Li2Ti3NbO8
_chemical_formula_sum   'Li8 Ti12 Nb4 O32'
_cell_volume   626.89607823
_cell_formula_units_Z   4
loop_
 _symmetry_equiv_pos_site_id
 _symmetry_equiv_pos_as_xyz
  1  'x, y, z'
loop_
 _atom_site_type_symbol
 _atom_site_label
 _atom_site_symmetry_multiplicity
 _atom_site_fract_x
 _atom_site_fract_y
 _atom_site_fract_z
 _atom_site_occupancy
  Li  Li0  1  0.49704800  0.49704800  0.49704800  1
  Li  Li1  1  0.75295200  0.75295200  0.75295200  1
  Li  Li2  1  0.74704800  0.24704800  0.25295200  1
  Li  Li3  1  0.00295200  0.50295200  0.99704800  1
  Li  Li4  1  0.99704800  0.00295200  0.50295200  1
  Li  Li5  1  0.25295200  0.74704800  0.24704800  1
  Li  Li6  1  0.24704800  0.25295200  0.74704800  1
  Li  Li7  1  0.50295200  0.99704800  0.00295200  1
  Ti  Ti0  1  0.62346700  0.62653300  0.12500000  1
  Ti  Ti1  1  0.62500000  0.87653300  0.37346700  1
  Ti  Ti2  1  0.62653300  0.12500000  0.62346700  1
  Ti  Ti3  1  0.87346700  0.87500000  0.12346700  1
  Ti  Ti4  1  0.87500000  0.12346700  0.87346700  1
  Ti  Ti5  1  0.87653300  0.37346700  0.62500000  1
  Ti  Ti6  1  0.12346700  0.87346700  0.87500000  1
  Ti  Ti7  1  0.12500000  0.62346700  0.62653300  1
  Ti  Ti8  1  0.12653300  0.37500000  0.37653300  1
  Ti  Ti9  1  0.37346700  0.62500000  0.87653300  1
  Ti  Ti10  1  0.37500000  0.37653300  0.12653300  1
  Ti  Ti11  1  0.37653300  0.12653300  0.37500000  1
  Nb  Nb0  1  0.62500000  0.37500000  0.87500000  1
  Nb  Nb1  1  0.87500000  0.62500000  0.37500000  1
  Nb  Nb2  1  0.12500000  0.12500000  0.12500000  1
  Nb  Nb3  1  0.37500000  0.87500000  0.62500000  1
  O  O0  1  0.60933100  0.61938700  0.88795700  1
  O  O1  1  0.61204300  0.39066900  0.11938700  1
  O  O2  1  0.61195900  0.11195900  0.38804100  1
  O  O3  1  0.63061300  0.64066900  0.36204300  1
  O  O4  1  0.61938700  0.88795700  0.60933100  1
  O  O5  1  0.63804100  0.86195900  0.13804100  1
  O  O6  1  0.63795700  0.13061300  0.85933100  1
  O  O7  1  0.64066900  0.36204300  0.63061300  1
  O  O8  1  0.85933100  0.63795700  0.13061300  1
  O  O9  1  0.86204300  0.86938700  0.35933100  1
  O  O10  1  0.86195900  0.13804100  0.63804100  1
  O  O11  1  0.88061300  0.11204300  0.10933100  1
  O  O12  1  0.86938700  0.35933100  0.86204300  1
  O  O13  1  0.88804100  0.88804100  0.88804100  1
  O  O14  1  0.88795700  0.60933100  0.61938700  1
  O  O15  1  0.89066900  0.38061300  0.38795700  1
  O  O16  1  0.10933100  0.88061300  0.11204300  1
  O  O17  1  0.11204300  0.10933100  0.88061300  1
  O  O18  1  0.11195900  0.38804100  0.61195900  1
  O  O19  1  0.13061300  0.85933100  0.63795700  1
  O  O20  1  0.11938700  0.61204300  0.39066900  1
  O  O21  1  0.13804100  0.63804100  0.86195900  1
  O  O22  1  0.13795700  0.36938700  0.14066900  1
  O  O23  1  0.14066900  0.13795700  0.36938700  1
  O  O24  1  0.35933100  0.86204300  0.86938700  1
  O  O25  1  0.36204300  0.63061300  0.64066900  1
  O  O26  1  0.36195900  0.36195900  0.36195900  1
  O  O27  1  0.38061300  0.38795700  0.89066900  1
  O  O28  1  0.36938700  0.14066900  0.13795700  1
  O  O29  1  0.38804100  0.61195900  0.11195900  1
  O  O30  1  0.38795700  0.89066900  0.38061300  1
  O  O31  1  0.39066900  0.11938700  0.61204300  1
loop_
_geom_bond_atom_site_label_1
_geom_bond_atom_site_label_2
_geom_bond_distance
_geom_bond_site_symmetry_2
Li0 O26 2.002530 1_555
Li0 O3 2.037807 1_555
Li0 O7 2.037807 1_555
Li0 O25 2.037807 1_555
Li1 O13 2.002530 1_555
Li1 O0 2.037807 1_555
Li1 O14 2.037807 1_555
Li1 O4 2.037807 1_555
Li2 O2 2.002530 1_555
Li2 O1 2.037807 1_555
Li2 O15 2.037807 1_555
Li2 O11 2.037807 1_555
Li3 O21 2.002530 1_555
Li3 O8 2.037807 1_456
Li3 O12 2.037807 1_455
Li3 O22 2.037807 1_556
Li4 O10 2.002530 1_555
Li4 O19 2.037807 1_645
Li4 O9 2.037807 1_545
Li4 O23 2.037807 1_655
Li5 O29 2.002530 1_555
Li5 O20 2.037807 1_555
Li5 O30 2.037807 1_555
Li5 O16 2.037807 1_555
Li6 O18 2.002530 1_555
Li6 O31 2.037807 1_555
Li6 O27 2.037807 1_555
Li6 O17 2.037807 1_555
Li7 O5 2.002530 1_555
Li7 O24 2.037807 1_554
Li7 O6 2.037807 1_564
Li7 O28 2.037807 1_565
Nb0 O12 2.098817 1_555
Nb0 O7 2.098817 1_555
Nb0 O1 2.098817 1_556
Nb0 O27 2.098817 1_555
Nb0 O6 2.098817 1_555
Nb0 O0 2.098817 1_555
Nb1 O9 2.098817 1_555
Nb1 O20 2.098817 1_655
Nb1 O3 2.098817 1_555
Nb1 O15 2.098817 1_555
Nb1 O8 2.098817 1_555
Nb1 O14 2.098817 1_555
Nb2 O28 2.098817 1_555
Nb2 O23 2.098817 1_555
Nb2 O22 2.098817 1_555
Nb2 O16 2.098817 1_545
Nb2 O11 2.098817 1_455
Nb2 O17 2.098817 1_554
Nb3 O24 2.098817 1_555
Nb3 O31 2.098817 1_565
Nb3 O30 2.098817 1_555
Nb3 O25 2.098817 1_555
Nb3 O19 2.098817 1_555
Nb3 O4 2.098817 1_555
O0 Ti9 2.021583 1_555
O0 Ti0 2.033261 1_556
O1 Ti0 2.021583 1_555
O1 Ti10 2.033261 1_555
O2 Ti1 2.021837 1_545
O2 Ti11 2.021837 1_555
O2 Ti2 2.021837 1_555
O3 Ti1 2.021583 1_555
O3 Ti0 2.033261 1_555
O4 Ti1 2.021583 1_555
O4 Ti2 2.033261 1_565
O5 Ti0 2.021837 1_555
O5 Ti3 2.021837 1_555
O5 Ti1 2.021837 1_555
O6 Ti2 2.021583 1_555
O6 Ti4 2.033261 1_555
O7 Ti5 2.021583 1_555
O7 Ti2 2.033261 1_555
O8 Ti0 2.021583 1_555
O8 Ti3 2.033261 1_555
O9 Ti3 2.021583 1_555
O9 Ti1 2.033261 1_555
O10 Ti2 2.021837 1_555
O10 Ti5 2.021837 1_555
O10 Ti4 2.021837 1_555
O11 Ti4 2.021583 1_554
O11 Ti3 2.033261 1_545
O12 Ti4 2.021583 1_555
O12 Ti5 2.033261 1_555
O13 Ti4 2.021837 1_565
O13 Ti3 2.021837 1_556
O13 Ti6 2.021837 1_655
O14 Ti5 2.021583 1_555
O14 Ti7 2.033261 1_655
O15 Ti8 2.021583 1_655
O15 Ti5 2.033261 1_555
O16 Ti3 2.021583 1_455
O16 Ti6 2.033261 1_554
O17 Ti6 2.021583 1_545
O17 Ti4 2.033261 1_455
O18 Ti5 2.021837 1_455
O18 Ti8 2.021837 1_555
O18 Ti7 2.021837 1_555
O19 Ti7 2.021583 1_555
O19 Ti6 2.033261 1_555
O20 Ti7 2.021583 1_555
O20 Ti8 2.033261 1_555
O21 Ti7 2.021837 1_555
O21 Ti9 2.021837 1_555
O21 Ti6 2.021837 1_555
O22 Ti8 2.021583 1_555
O22 Ti10 2.033261 1_555
O23 Ti11 2.021583 1_555
O23 Ti8 2.033261 1_555
O24 Ti6 2.021583 1_555
O24 Ti9 2.033261 1_555
O25 Ti9 2.021583 1_555
O25 Ti7 2.033261 1_555
O26 Ti11 2.021837 1_555
O26 Ti8 2.021837 1_555
O26 Ti10 2.021837 1_555
O27 Ti10 2.021583 1_556
O27 Ti9 2.033261 1_555
O28 Ti10 2.021583 1_555
O28 Ti11 2.033261 1_555
O29 Ti10 2.021837 1_555
O29 Ti9 2.021837 1_554
O29 Ti0 2.021837 1_555
O30 Ti11 2.021583 1_565
O30 Ti1 2.033261 1_555
O31 Ti2 2.021583 1_555
O31 Ti11 2.033261 1_555
