# generated using pymatgen
data_Mg5Co19O32
_symmetry_space_group_name_H-M   'P 1'
_cell_length_a   19.14351953
_cell_length_b   19.14351953
_cell_length_c   19.14351956
_cell_angle_alpha   17.34359989
_cell_angle_beta   17.34359989
_cell_angle_gamma   17.34359748
_symmetry_Int_Tables_number   1
_chemical_formula_structural   Mg5Co19O32
_chemical_formula_sum   'Mg5 Co19 O32'
_cell_volume   544.03497334
_cell_formula_units_Z   1
loop_
 _symmetry_equiv_pos_site_id
 _symmetry_equiv_pos_as_xyz
  1  'x, y, z'
loop_
 _atom_site_type_symbol
 _atom_site_label
 _atom_site_symmetry_multiplicity
 _atom_site_fract_x
 _atom_site_fract_y
 _atom_site_fract_z
 _atom_site_occupancy
  Mg  Mg0  1  0.31240400  0.31240400  0.31240400  1
  Mg  Mg1  1  0.00008800  0.00008800  0.00008800  1
  Mg  Mg2  1  0.56261300  0.56261300  0.56261300  1
  Mg  Mg3  1  0.49991400  0.49991400  0.49991400  1
  Mg  Mg4  1  0.74998400  0.74998400  0.74998400  1
  Co  Co0  1  0.78088100  0.28191000  0.78088100  1
  Co  Co1  1  0.65626700  0.65626700  0.65626700  1
  Co  Co2  1  0.25002100  0.25002100  0.25002100  1
  Co  Co3  1  0.03125400  0.03125400  0.53122500  1
  Co  Co4  1  0.78088100  0.78088100  0.28191000  1
  Co  Co5  1  0.53122500  0.03125400  0.03125400  1
  Co  Co6  1  0.28191000  0.78088100  0.78088100  1
  Co  Co7  1  0.03125400  0.53122500  0.03125400  1
  Co  Co8  1  0.15636300  0.15636300  0.15636300  1
  Co  Co9  1  0.90610300  0.90610300  0.90610300  1
  Co  Co10  1  0.78041000  0.28162000  0.28162000  1
  Co  Co11  1  0.28162000  0.28162000  0.78041000  1
  Co  Co12  1  0.06252800  0.06252800  0.06252800  1
  Co  Co13  1  0.81246200  0.81246200  0.81246200  1
  Co  Co14  1  0.40634100  0.40634100  0.40634100  1
  Co  Co15  1  0.53164800  0.03057300  0.53164800  1
  Co  Co16  1  0.28162000  0.78041000  0.28162000  1
  Co  Co17  1  0.53164800  0.53164800  0.03057300  1
  Co  Co18  1  0.03057300  0.53164800  0.53164800  1
  O  O0  1  0.07681600  0.07681600  0.63085000  1
  O  O1  1  0.63085000  0.07681600  0.07681600  1
  O  O2  1  0.48645800  0.48645800  0.92991600  1
  O  O3  1  0.92991600  0.48645800  0.48645800  1
  O  O4  1  0.48645800  0.92991600  0.48645800  1
  O  O5  1  0.59733400  0.59733400  0.59733400  1
  O  O6  1  0.73629000  0.17987800  0.73629000  1
  O  O7  1  0.07681600  0.63085000  0.07681600  1
  O  O8  1  0.96518500  0.96518500  0.96518500  1
  O  O9  1  0.21547100  0.21547100  0.21547100  1
  O  O10  1  0.88268500  0.32615800  0.32615800  1
  O  O11  1  0.32615800  0.32615800  0.88268500  1
  O  O12  1  0.73629000  0.73629000  0.17987800  1
  O  O13  1  0.17987800  0.73629000  0.73629000  1
  O  O14  1  0.98571100  0.43143600  0.98571100  1
  O  O15  1  0.84702400  0.84702400  0.84702400  1
  O  O16  1  0.09714900  0.09714900  0.09714900  1
  O  O17  1  0.57600100  0.13276900  0.57600100  1
  O  O18  1  0.32615800  0.88268500  0.32615800  1
  O  O19  1  0.46517100  0.46517100  0.46517100  1
  O  O20  1  0.57600100  0.57600100  0.13276900  1
  O  O21  1  0.13276900  0.57600100  0.57600100  1
  O  O22  1  0.98571100  0.98571100  0.43143600  1
  O  O23  1  0.43143600  0.98571100  0.98571100  1
  O  O24  1  0.23565300  0.23565300  0.68170400  1
  O  O25  1  0.68170400  0.23565300  0.23565300  1
  O  O26  1  0.34731700  0.34731700  0.34731700  1
  O  O27  1  0.23565300  0.68170400  0.23565300  1
  O  O28  1  0.71520000  0.71520000  0.71520000  1
  O  O29  1  0.82608600  0.38255600  0.82608600  1
  O  O30  1  0.38255600  0.82608600  0.82608600  1
  O  O31  1  0.82608600  0.82608600  0.38255600  1
loop_
_geom_bond_atom_site_label_1
_geom_bond_atom_site_label_2
_geom_bond_distance
_geom_bond_site_symmetry_2
Mg0 O3 1.964847 1_455
Mg0 O4 1.964847 1_545
Mg0 O2 1.964848 1_554
Mg0 O26 1.974452 1_555
Mg1 O29 1.965144 1_454
Mg1 O30 1.965144 1_544
Mg1 O31 1.965144 1_445
Mg1 O8 1.973886 1_444
Mg2 O5 1.963594 1_555
Mg2 O6 1.970744 1_555
Mg2 O13 1.970744 1_555
Mg2 O12 1.970745 1_555
Mg3 O19 1.964838 1_555
Mg3 O10 1.970328 1_555
Mg3 O18 1.970328 1_555
Mg3 O11 1.970328 1_555
Mg4 O28 1.967156 1_555
Mg4 O17 1.968303 1_565
Mg4 O21 1.968303 1_655
Mg4 O20 1.968303 1_556
Co0 O5 1.927262 1_555
Co0 O2 1.932843 1_555
Co0 O3 1.932843 1_555
Co0 O8 1.935210 1_545
Co0 O0 1.939249 1_655
Co0 O1 1.939249 1_556
Co1 O30 1.931246 1_555
Co1 O29 1.931246 1_555
Co1 O31 1.931246 1_555
Co1 O4 1.931572 1_555
Co1 O3 1.931572 1_555
Co1 O2 1.931572 1_555
Co2 O9 1.953923 1_555
Co2 O1 1.957202 1_555
Co2 O7 1.957202 1_555
Co2 O0 1.957202 1_555
Co3 O18 1.929815 1_545
Co3 O10 1.929815 1_455
Co3 O6 1.929960 1_455
Co3 O13 1.929960 1_545
Co3 O15 1.939800 1_445
Co3 O9 1.939817 1_555
Co4 O5 1.927263 1_555
Co4 O3 1.932843 1_555
Co4 O4 1.932843 1_555
Co4 O8 1.935211 1_554
Co4 O7 1.939249 1_655
Co4 O1 1.939249 1_565
Co5 O11 1.929815 1_554
Co5 O18 1.929815 1_545
Co5 O12 1.929960 1_545
Co5 O6 1.929960 1_554
Co5 O15 1.939800 1_544
Co5 O9 1.939817 1_555
Co6 O5 1.927262 1_555
Co6 O2 1.932843 1_555
Co6 O4 1.932843 1_555
Co6 O8 1.935210 1_455
Co6 O0 1.939249 1_565
Co6 O7 1.939249 1_556
Co7 O11 1.929815 1_554
Co7 O10 1.929815 1_455
Co7 O12 1.929960 1_455
Co7 O13 1.929960 1_554
Co7 O15 1.939800 1_454
Co7 O9 1.939817 1_555
Co8 O10 1.930919 1_455
Co8 O18 1.930919 1_545
Co8 O11 1.930919 1_554
Co8 O23 1.940533 1_544
Co8 O14 1.940533 1_454
Co8 O22 1.940534 1_445
Co9 O6 1.930472 1_565
Co9 O13 1.930472 1_655
Co9 O12 1.930472 1_556
Co9 O1 1.940445 1_566
Co9 O7 1.940445 1_656
Co9 O0 1.940445 1_665
Co10 O19 1.928584 1_555
Co10 O20 1.929250 1_555
Co10 O17 1.929250 1_555
Co10 O16 1.938786 1_655
Co10 O22 1.939463 1_545
Co10 O14 1.939463 1_554
Co11 O19 1.928584 1_555
Co11 O17 1.929250 1_555
Co11 O21 1.929250 1_555
Co11 O16 1.938786 1_556
Co11 O14 1.939463 1_455
Co11 O23 1.939463 1_545
Co12 O27 1.957905 1_545
Co12 O25 1.957905 1_455
Co12 O24 1.957906 1_554
Co12 O16 1.957938 1_555
Co13 O15 1.954602 1_555
Co13 O23 1.958642 1_555
Co13 O14 1.958642 1_555
Co13 O22 1.958642 1_555
Co14 O21 1.928315 1_555
Co14 O17 1.928315 1_555
Co14 O20 1.928315 1_555
Co14 O27 1.938725 1_555
Co14 O25 1.938725 1_555
Co14 O24 1.938725 1_555
Co15 O28 1.927712 1_545
Co15 O31 1.932643 1_545
Co15 O30 1.932644 1_545
Co15 O26 1.935676 1_555
Co15 O24 1.938886 1_555
Co15 O25 1.938886 1_555
Co16 O19 1.928584 1_555
Co16 O20 1.929250 1_555
Co16 O21 1.929250 1_555
Co16 O16 1.938786 1_565
Co16 O22 1.939463 1_455
Co16 O23 1.939463 1_554
Co17 O28 1.927712 1_554
Co17 O29 1.932643 1_554
Co17 O30 1.932643 1_554
Co17 O26 1.935676 1_555
Co17 O27 1.938886 1_555
Co17 O25 1.938886 1_555
Co18 O28 1.927712 1_455
Co18 O31 1.932643 1_455
Co18 O29 1.932644 1_455
Co18 O26 1.935676 1_555
Co18 O24 1.938886 1_555
Co18 O27 1.938886 1_555
