# generated using pymatgen
data_VO2F
_symmetry_space_group_name_H-M   'P 1'
_cell_length_a   5.04270300
_cell_length_b   5.23480727
_cell_length_c   12.53016418
_cell_angle_alpha   88.83632027
_cell_angle_beta   88.16001034
_cell_angle_gamma   63.12623088
_symmetry_Int_Tables_number   1
_chemical_formula_structural   VO2F
_chemical_formula_sum   'V6 O12 F6'
_cell_volume   294.88641830
_cell_formula_units_Z   6
loop_
 _symmetry_equiv_pos_site_id
 _symmetry_equiv_pos_as_xyz
  1  'x, y, z'
loop_
 _atom_site_type_symbol
 _atom_site_label
 _atom_site_symmetry_multiplicity
 _atom_site_fract_x
 _atom_site_fract_y
 _atom_site_fract_z
 _atom_site_occupancy
  V  V0  1  0.37280700  0.31924900  0.33996500  1
  V  V1  1  0.27437700  0.39318400  0.84022700  1
  V  V2  1  0.72562300  0.60681600  0.15977300  1
  V  V3  1  0.62719300  0.68075100  0.66003500  1
  V  V4  1  0.00000000  0.00000000  0.50000000  1
  V  V5  1  0.00000000  0.00000000  0.00000000  1
  O  O0  1  0.48495100  0.47042800  0.72079100  1
  O  O1  1  0.60382200  0.19142300  0.44806800  1
  O  O2  1  0.25028000  0.67130600  0.91899400  1
  O  O3  1  0.86687300  0.86315000  0.60890200  1
  O  O4  1  0.05107500  0.46562000  0.21924200  1
  O  O5  1  0.20262500  0.18265500  0.94439900  1
  O  O6  1  0.79737500  0.81734500  0.05560100  1
  O  O7  1  0.94892500  0.53438000  0.78075800  1
  O  O8  1  0.13312700  0.13685000  0.39109800  1
  O  O9  1  0.74972000  0.32869400  0.08100600  1
  O  O10  1  0.39617800  0.80857700  0.55193200  1
  O  O11  1  0.51504900  0.52957200  0.27920900  1
  F  F0  1  0.73560400  0.13514700  0.88446800  1
  F  F1  1  0.06842700  0.66110000  0.41792100  1
  F  F2  1  0.59107900  0.00815500  0.25195800  1
  F  F3  1  0.93157300  0.33890000  0.58207900  1
  F  F4  1  0.40892100  0.99184500  0.74804200  1
  F  F5  1  0.26439600  0.86485300  0.11553200  1
loop_
_geom_bond_atom_site_label_1
_geom_bond_atom_site_label_2
_geom_bond_distance
_geom_bond_site_symmetry_2
O0 V3 1.717876 1_555
O0 V1 1.947376 1_555
O1 V0 1.731888 1_555
O1 V4 1.914666 1_655
O2 V1 1.731841 1_555
O2 V5 1.899786 1_566
O3 V4 1.778243 1_665
O3 V3 1.936936 1_555
O4 V2 1.659665 1_455
O4 V0 2.119941 1_555
O5 V5 1.803921 1_556
O5 V1 1.822367 1_555
O6 V5 1.803921 1_665
O6 V2 1.822367 1_555
O7 V1 1.659665 1_655
O7 V3 2.119941 1_555
O8 V4 1.778243 1_555
O8 V0 1.936936 1_555
O9 V2 1.731841 1_555
O9 V5 1.899786 1_655
O10 V3 1.731888 1_555
O10 V4 1.914666 1_565
O11 V0 1.717876 1_555
O11 V2 1.947376 1_555
F0 V5 1.898254 1_656
F0 V1 2.180258 1_555
F1 V4 1.955005 1_565
F1 V0 2.000993 1_555
F2 V0 1.858524 1_555
F2 V2 2.228917 1_545
F3 V4 1.955005 1_655
F3 V3 2.000993 1_555
F4 V3 1.858524 1_555
F4 V1 2.228917 1_565
F5 V5 1.898254 1_565
F5 V2 2.180258 1_555
