# generated using pymatgen
data_Ca2VFe4BiO12
_symmetry_space_group_name_H-M   'P 1'
_cell_length_a   10.94159315
_cell_length_b   10.96047229
_cell_length_c   10.92554340
_cell_angle_alpha   109.56931967
_cell_angle_beta   109.33630599
_cell_angle_gamma   109.41723823
_symmetry_Int_Tables_number   1
_chemical_formula_structural   Ca2VFe4BiO12
_chemical_formula_sum   'Ca8 V4 Fe16 Bi4 O48'
_cell_volume   1009.75334538
_cell_formula_units_Z   4
loop_
 _symmetry_equiv_pos_site_id
 _symmetry_equiv_pos_as_xyz
  1  'x, y, z'
loop_
 _atom_site_type_symbol
 _atom_site_label
 _atom_site_symmetry_multiplicity
 _atom_site_fract_x
 _atom_site_fract_y
 _atom_site_fract_z
 _atom_site_occupancy
  Ca  Ca0  1  0.25127700  0.87576200  0.62477000  1
  Ca  Ca1  1  0.12847700  0.37406000  0.75240000  1
  Ca  Ca2  1  0.12289500  0.24739600  0.37175100  1
  Ca  Ca3  1  0.24820900  0.37264400  0.12255000  1
  Ca  Ca4  1  0.75179100  0.62735600  0.87745000  1
  Ca  Ca5  1  0.87710500  0.75260400  0.62824900  1
  Ca  Ca6  1  0.87152300  0.62594000  0.24760000  1
  Ca  Ca7  1  0.74872300  0.12423800  0.37523000  1
  V  V0  1  0.00000000  0.00000000  0.50000000  1
  V  V1  1  0.00000000  0.50000000  0.50000000  1
  V  V2  1  0.00000000  0.50000000  0.00000000  1
  V  V3  1  0.50000000  0.50000000  0.50000000  1
  Fe  Fe0  1  0.11955200  0.74780700  0.87296900  1
  Fe  Fe1  1  0.12170500  0.87195100  0.24903600  1
  Fe  Fe2  1  0.25082600  0.62499400  0.37616000  1
  Fe  Fe3  1  0.37186600  0.62304300  0.74801800  1
  Fe  Fe4  1  0.25165300  0.12861500  0.87477700  1
  Fe  Fe5  1  0.50000000  0.00000000  0.50000000  1
  Fe  Fe6  1  0.00000000  0.00000000  0.00000000  1
  Fe  Fe7  1  0.37144100  0.24919900  0.62155300  1
  Fe  Fe8  1  0.62855900  0.75080100  0.37844700  1
  Fe  Fe9  1  0.50000000  0.50000000  0.00000000  1
  Fe  Fe10  1  0.74917400  0.37500600  0.62384000  1
  Fe  Fe11  1  0.62813400  0.37695700  0.25198200  1
  Fe  Fe12  1  0.74834700  0.87138500  0.12522300  1
  Fe  Fe13  1  0.50000000  0.00000000  0.00000000  1
  Fe  Fe14  1  0.87829500  0.12804900  0.75096400  1
  Fe  Fe15  1  0.88044800  0.25219300  0.12703100  1
  Bi  Bi0  1  0.63087400  0.88183400  0.75939300  1
  Bi  Bi1  1  0.38716500  0.75246100  0.12506500  1
  Bi  Bi2  1  0.61283500  0.24753900  0.87493500  1
  Bi  Bi3  1  0.36912600  0.11816600  0.24060700  1
  O  O0  1  0.09508300  0.98412000  0.67087900  1
  O  O1  1  0.10943000  0.59352300  0.92138300  1
  O  O2  1  0.01779000  0.33017800  0.90455100  1
  O  O3  1  0.07707300  0.68913900  0.67089800  1
  O  O4  1  0.07589000  0.88561200  0.40505400  1
  O  O5  1  0.09413400  0.61019200  0.42217600  1
  O  O6  1  0.16999300  0.48054000  0.59366000  1
  O  O7  1  0.41954100  0.82104800  0.79955700  1
  O  O8  1  0.29611400  0.32350600  0.91865600  1
  O  O9  1  0.37643100  0.58284000  0.90359200  1
  O  O10  1  0.02808900  0.20514700  0.12501500  1
  O  O11  1  0.32079600  0.92031800  0.29785200  1
  O  O12  1  0.16978100  0.18937800  0.57400200  1
  O  O13  1  0.18842300  0.57644400  0.17264400  1
  O  O14  1  0.40029300  0.82096200  0.52237800  1
  O  O15  1  0.31369800  0.48527500  0.38928400  1
  O  O16  1  0.31863300  0.90542400  0.02372000  1
  O  O17  1  0.12059900  0.02276600  0.20319600  1
  O  O18  1  0.40719900  0.08466700  0.87682900  1
  O  O19  1  0.51533200  0.60917400  0.68846600  1
  O  O20  1  0.52225200  0.40139600  0.81917700  1
  O  O21  1  0.38489000  0.31076600  0.48045700  1
  O  O22  1  0.20658200  0.12066600  0.02656600  1
  O  O23  1  0.58050700  0.90072100  0.37743100  1
  O  O24  1  0.41949300  0.09927900  0.62256900  1
  O  O25  1  0.79341800  0.87933400  0.97343400  1
  O  O26  1  0.61511000  0.68923400  0.51954300  1
  O  O27  1  0.47774800  0.59860400  0.18082300  1
  O  O28  1  0.48466700  0.39082600  0.31153400  1
  O  O29  1  0.59280100  0.91533300  0.12317100  1
  O  O30  1  0.87940100  0.97723400  0.79680400  1
  O  O31  1  0.68136700  0.09457600  0.97628000  1
  O  O32  1  0.68630200  0.51472500  0.61071600  1
  O  O33  1  0.59970700  0.17903800  0.47762200  1
  O  O34  1  0.81157700  0.42355600  0.82735600  1
  O  O35  1  0.83021900  0.81062200  0.42599800  1
  O  O36  1  0.67920400  0.07968200  0.70214800  1
  O  O37  1  0.97191100  0.79485300  0.87498500  1
  O  O38  1  0.62356900  0.41716000  0.09640800  1
  O  O39  1  0.70388600  0.67649400  0.08134400  1
  O  O40  1  0.58045900  0.17895200  0.20044300  1
  O  O41  1  0.83000700  0.51946000  0.40634000  1
  O  O42  1  0.90586600  0.38980800  0.57782400  1
  O  O43  1  0.92411000  0.11438800  0.59494600  1
  O  O44  1  0.92292700  0.31086100  0.32910200  1
  O  O45  1  0.98221000  0.66982200  0.09544900  1
  O  O46  1  0.89057000  0.40647700  0.07861700  1
  O  O47  1  0.90491700  0.01588000  0.32912100  1
loop_
_geom_bond_atom_site_label_1
_geom_bond_atom_site_label_2
_geom_bond_distance
_geom_bond_site_symmetry_2
Ca0 O14 2.383186 1_555
Ca0 O18 2.409261 1_565
Ca0 O0 2.470607 1_555
Ca0 O5 2.482809 1_555
Ca0 O24 2.541794 1_565
Ca0 O7 2.562992 1_555
Ca0 O4 2.591812 1_555
Ca0 O3 2.608733 1_555
Ca1 O9 2.386994 1_555
Ca1 O2 2.437815 1_555
Ca1 O43 2.449726 1_455
Ca1 O6 2.470103 1_555
Ca1 O8 2.472739 1_555
Ca1 O12 2.578604 1_555
Ca1 O1 2.617475 1_555
Ca1 O42 2.650284 1_455
Ca2 O10 2.355841 1_555
Ca2 O12 2.440871 1_555
Ca2 O21 2.445311 1_555
Ca2 O44 2.458072 1_455
Ca2 O17 2.518847 1_555
Ca2 O47 2.606339 1_455
Ca2 O6 2.611576 1_555
Ca2 O15 2.640922 1_555
Ca3 O8 2.384212 1_554
Ca3 O22 2.416994 1_555
Ca3 O13 2.471182 1_555
Ca3 O15 2.479732 1_555
Ca3 O10 2.511568 1_555
Ca3 O27 2.568252 1_555
Ca3 O2 2.597354 1_554
Ca3 O28 2.615457 1_555
Ca4 O39 2.384212 1_556
Ca4 O25 2.416994 1_555
Ca4 O34 2.471182 1_555
Ca4 O32 2.479732 1_555
Ca4 O37 2.511568 1_555
Ca4 O20 2.568252 1_555
Ca4 O45 2.597354 1_556
Ca4 O19 2.615465 1_555
Ca5 O37 2.355841 1_555
Ca5 O35 2.440871 1_555
Ca5 O26 2.445311 1_555
Ca5 O3 2.458072 1_655
Ca5 O30 2.518847 1_555
Ca5 O0 2.606339 1_655
Ca5 O41 2.611576 1_555
Ca5 O32 2.640922 1_555
Ca6 O38 2.386994 1_555
Ca6 O45 2.437815 1_555
Ca6 O4 2.449726 1_655
Ca6 O41 2.470103 1_555
Ca6 O39 2.472739 1_555
Ca6 O35 2.578604 1_555
Ca6 O46 2.617475 1_555
Ca6 O5 2.650284 1_655
Ca7 O33 2.383186 1_555
Ca7 O29 2.409261 1_545
Ca7 O47 2.470607 1_555
Ca7 O42 2.482809 1_555
Ca7 O23 2.541794 1_545
Ca7 O40 2.562992 1_555
Ca7 O43 2.591812 1_555
Ca7 O44 2.608733 1_555
Fe0 O37 1.856282 1_455
Fe0 O16 1.912603 1_556
Fe0 O1 1.914443 1_555
Fe0 O3 1.916861 1_555
Fe1 O17 1.883419 1_565
Fe1 O11 1.893194 1_555
Fe1 O45 1.902311 1_455
Fe1 O4 1.903707 1_555
Fe2 O14 1.864351 1_555
Fe2 O15 1.902933 1_555
Fe2 O13 1.911500 1_555
Fe2 O5 1.912839 1_555
Fe3 O7 1.879684 1_555
Fe3 O9 1.883054 1_555
Fe3 O6 1.907169 1_555
Fe3 O19 1.918149 1_555
Fe4 O8 1.870301 1_555
Fe4 O22 1.900213 1_556
Fe4 O18 1.912095 1_555
Fe4 O0 1.926397 1_545
Fe5 O33 2.043370 1_555
Fe5 O14 2.043370 1_545
Fe5 O36 2.046141 1_555
Fe5 O11 2.046141 1_545
Fe5 O24 2.048317 1_555
Fe5 O23 2.048317 1_545
Fe6 O30 2.049885 1_444
Fe6 O17 2.049885 1_555
Fe6 O10 2.054509 1_555
Fe6 O37 2.054509 1_444
Fe6 O25 2.064769 1_444
Fe6 O22 2.064769 1_555
Fe7 O24 1.886641 1_555
Fe7 O20 1.888150 1_555
Fe7 O12 1.902407 1_555
Fe7 O21 1.906422 1_555
Fe8 O23 1.886641 1_555
Fe8 O27 1.888150 1_555
Fe8 O35 1.902407 1_555
Fe8 O26 1.906422 1_555
Fe9 O39 2.043203 1_555
Fe9 O8 2.043203 1_554
Fe9 O27 2.047787 1_555
Fe9 O20 2.047787 1_554
Fe9 O38 2.067772 1_555
Fe9 O9 2.067772 1_554
Fe10 O33 1.864351 1_555
Fe10 O32 1.902933 1_555
Fe10 O34 1.911500 1_555
Fe10 O42 1.912839 1_555
Fe11 O40 1.879684 1_555
Fe11 O38 1.883054 1_555
Fe11 O41 1.907169 1_555
Fe11 O28 1.918159 1_555
Fe12 O39 1.870301 1_555
Fe12 O25 1.900213 1_554
Fe12 O29 1.912095 1_555
Fe12 O47 1.926397 1_565
Fe13 O40 2.028730 1_555
Fe13 O7 2.028730 1_544
Fe13 O31 2.057307 1_554
Fe13 O16 2.057307 1_545
Fe13 O18 2.064296 1_554
Fe13 O29 2.064296 1_545
Fe14 O30 1.883419 1_545
Fe14 O36 1.893194 1_555
Fe14 O2 1.902311 1_655
Fe14 O43 1.903707 1_555
Fe15 O10 1.856282 1_655
Fe15 O31 1.912603 1_554
Fe15 O46 1.914443 1_555
Fe15 O44 1.916861 1_555
Bi0 O36 2.395486 1_565
Bi0 O30 2.396254 1_555
Bi0 O7 2.413865 1_555
Bi0 O31 2.435666 1_565
Bi0 O25 2.439989 1_555
Bi0 O19 2.533306 1_555
Bi0 O14 2.629242 1_555
Bi0 O26 2.665679 1_555
Bi1 O23 2.359748 1_555
Bi1 O27 2.365759 1_555
Bi1 O29 2.373740 1_555
Bi1 O9 2.445041 1_554
Bi1 O16 2.475619 1_555
Bi1 O1 2.574197 1_554
Bi1 O11 2.635419 1_555
Bi1 O13 2.711432 1_555
Bi2 O24 2.359748 1_555
Bi2 O20 2.365759 1_555
Bi2 O18 2.373740 1_555
Bi2 O38 2.445041 1_556
Bi2 O31 2.475619 1_555
Bi2 O46 2.574197 1_556
Bi2 O36 2.635419 1_555
Bi2 O34 2.711432 1_555
Bi3 O11 2.395486 1_545
Bi3 O17 2.396254 1_555
Bi3 O40 2.413865 1_555
Bi3 O16 2.435666 1_545
Bi3 O22 2.439989 1_555
Bi3 O28 2.533306 1_555
Bi3 O33 2.629242 1_555
Bi3 O21 2.665679 1_555
O0 V0 1.910489 1_565
O1 V2 1.917537 1_556
O2 V2 1.914407 1_556
O3 V1 1.922736 1_555
O4 V0 1.931012 1_565
O5 V1 1.919183 1_555
O6 V1 1.923994 1_555
O12 V0 1.931437 1_555
O13 V2 1.930759 1_555
O15 V3 1.913658 1_555
O19 V3 1.920177 1_555
O21 V3 1.929280 1_555
O26 V3 1.929280 1_555
O28 V3 1.920172 1_555
O32 V3 1.913658 1_555
O34 V2 1.930759 1_656
O35 V0 1.931437 1_665
O41 V1 1.923994 1_655
O42 V1 1.919183 1_655
O43 V0 1.931012 1_655
O44 V1 1.922736 1_655
O45 V2 1.914407 1_655
O46 V2 1.917537 1_655
O47 V0 1.910489 1_655
