# generated using pymatgen
data_Ni(PO3)3
_symmetry_space_group_name_H-M   'P 1'
_cell_length_a   8.31940200
_cell_length_b   8.59955200
_cell_length_c   8.87954900
_cell_angle_alpha   90.00000000
_cell_angle_beta   90.00000000
_cell_angle_gamma   90.00000000
_symmetry_Int_Tables_number   1
_chemical_formula_structural   Ni(PO3)3
_chemical_formula_sum   'Ni4 P12 O36'
_cell_volume   635.27072941
_cell_formula_units_Z   4
loop_
 _symmetry_equiv_pos_site_id
 _symmetry_equiv_pos_as_xyz
  1  'x, y, z'
loop_
 _atom_site_type_symbol
 _atom_site_label
 _atom_site_symmetry_multiplicity
 _atom_site_fract_x
 _atom_site_fract_y
 _atom_site_fract_z
 _atom_site_occupancy
  Ni  Ni0  1  0.65187500  0.62991000  0.61394100  1
  Ni  Ni1  1  0.84812500  0.37009000  0.11394100  1
  Ni  Ni2  1  0.34812500  0.12991000  0.88605900  1
  Ni  Ni3  1  0.15187500  0.87009000  0.38605900  1
  P  P0  1  0.80023600  0.68987600  0.92357700  1
  P  P1  1  0.02542900  0.68757400  0.67073400  1
  P  P2  1  0.18381400  0.52764200  0.19298100  1
  P  P3  1  0.31618600  0.47235800  0.69298100  1
  P  P4  1  0.47457100  0.31242600  0.17073400  1
  P  P5  1  0.69976400  0.31012400  0.42357700  1
  P  P6  1  0.19976400  0.18987600  0.57642300  1
  P  P7  1  0.97457100  0.18757400  0.82926600  1
  P  P8  1  0.81618600  0.02764200  0.30701900  1
  P  P9  1  0.68381400  0.97235800  0.80701900  1
  P  P10  1  0.52542900  0.81242600  0.32926600  1
  P  P11  1  0.30023600  0.81012400  0.07642300  1
  O  O0  1  0.96393400  0.73848300  0.83564300  1
  O  O1  1  0.61893400  0.68047700  0.39822600  1
  O  O2  1  0.22203800  0.64120300  0.04942600  1
  O  O3  1  0.88577100  0.62619200  0.58047800  1
  O  O4  1  0.83621600  0.61590200  0.07156700  1
  O  O5  1  0.14412300  0.62637200  0.32653000  1
  O  O6  1  0.42160500  0.60402600  0.64203100  1
  O  O7  1  0.69244500  0.59016400  0.82365100  1
  O  O8  1  0.14196900  0.54913900  0.71930100  1
  O  O9  1  0.35803100  0.45086100  0.21930100  1
  O  O10  1  0.80755500  0.40983600  0.32365100  1
  O  O11  1  0.07839500  0.39597400  0.14203100  1
  O  O12  1  0.35587700  0.37362800  0.82653000  1
  O  O13  1  0.66378400  0.38409800  0.57156700  1
  O  O14  1  0.61422900  0.37380800  0.08047800  1
  O  O15  1  0.27796200  0.35879700  0.54942600  1
  O  O16  1  0.88106600  0.31952300  0.89822600  1
  O  O17  1  0.53606600  0.26151700  0.33564300  1
  O  O18  1  0.03606600  0.23848300  0.66435700  1
  O  O19  1  0.38106600  0.18047700  0.10177400  1
  O  O20  1  0.77796200  0.14120300  0.45057400  1
  O  O21  1  0.11422900  0.12619200  0.91952200  1
  O  O22  1  0.16378400  0.11590200  0.42843300  1
  O  O23  1  0.85587700  0.12637200  0.17347000  1
  O  O24  1  0.57839500  0.10402600  0.85796900  1
  O  O25  1  0.30755500  0.09016400  0.67634900  1
  O  O26  1  0.85803100  0.04913900  0.78069900  1
  O  O27  1  0.64196900  0.95086100  0.28069900  1
  O  O28  1  0.19244500  0.90983600  0.17634900  1
  O  O29  1  0.92160500  0.89597400  0.35796900  1
  O  O30  1  0.64412300  0.87362800  0.67347000  1
  O  O31  1  0.33621600  0.88409800  0.92843300  1
  O  O32  1  0.38577100  0.87380800  0.41952200  1
  O  O33  1  0.72203800  0.85879700  0.95057400  1
  O  O34  1  0.11893400  0.81952300  0.60177400  1
  O  O35  1  0.46393400  0.76151700  0.16435700  1
loop_
_geom_bond_atom_site_label_1
_geom_bond_atom_site_label_2
_geom_bond_distance
_geom_bond_site_symmetry_2
Ni0 O7 1.923089 1_555
Ni0 O6 1.944659 1_555
Ni0 O3 1.968690 1_555
Ni0 O1 1.983219 1_555
Ni0 O13 2.149383 1_555
Ni0 O30 2.162457 1_555
Ni1 O10 1.923089 1_555
Ni1 O11 1.944659 1_655
Ni1 O14 1.968690 1_555
Ni1 O16 1.983219 1_554
Ni1 O4 2.149383 1_555
Ni1 O23 2.162457 1_555
Ni2 O25 1.923089 1_555
Ni2 O24 1.944659 1_555
Ni2 O21 1.968690 1_555
Ni2 O19 1.983219 1_556
Ni2 O31 2.149383 1_545
Ni2 O12 2.162457 1_555
Ni3 O28 1.923089 1_555
Ni3 O29 1.944659 1_455
Ni3 O32 1.968690 1_555
Ni3 O34 1.983219 1_555
Ni3 O22 2.149383 1_565
Ni3 O5 2.162457 1_555
O0 P1 1.611715 1_655
O0 P0 1.624525 1_555
O1 P10 1.505868 1_555
O2 P11 1.609619 1_555
O2 P2 1.636976 1_555
O3 P1 1.506941 1_655
O4 P0 1.490334 1_554
O5 P2 1.495375 1_555
O6 P3 1.501971 1_555
O7 P0 1.525365 1_555
O8 P1 1.594752 1_555
O8 P3 1.609751 1_555
O9 P4 1.594752 1_555
O9 P2 1.609751 1_555
O10 P5 1.525365 1_555
O11 P2 1.501971 1_555
O12 P3 1.495375 1_555
O13 P5 1.490334 1_555
O14 P4 1.506941 1_555
O15 P6 1.609619 1_555
O15 P3 1.636976 1_555
O16 P7 1.505868 1_555
O17 P4 1.611715 1_555
O17 P5 1.624525 1_555
O18 P7 1.611715 1_455
O18 P6 1.624525 1_555
O19 P4 1.505868 1_555
O20 P5 1.609619 1_555
O20 P8 1.636976 1_555
O21 P7 1.506941 1_455
O22 P6 1.490334 1_555
O23 P8 1.495375 1_555
O24 P9 1.501971 1_545
O25 P6 1.525365 1_555
O26 P7 1.594752 1_555
O26 P9 1.609751 1_545
O27 P10 1.594752 1_555
O27 P8 1.609751 1_565
O28 P11 1.525365 1_555
O29 P8 1.501971 1_565
O30 P9 1.495375 1_555
O31 P11 1.490334 1_556
O32 P10 1.506941 1_555
O33 P0 1.609619 1_555
O33 P9 1.636976 1_555
O34 P1 1.505868 1_555
O35 P10 1.611715 1_555
O35 P11 1.624525 1_555
