# generated using pymatgen
data_Li3Cr3CoO8
_symmetry_space_group_name_H-M   'P 1'
_cell_length_a   5.09022034
_cell_length_b   5.86035050
_cell_length_c   10.56391056
_cell_angle_alpha   73.79443499
_cell_angle_beta   76.30559072
_cell_angle_gamma   73.42770201
_symmetry_Int_Tables_number   1
_chemical_formula_structural   Li3Cr3CoO8
_chemical_formula_sum   'Li6 Cr6 Co2 O16'
_cell_volume   285.77673275
_cell_formula_units_Z   2
loop_
 _symmetry_equiv_pos_site_id
 _symmetry_equiv_pos_as_xyz
  1  'x, y, z'
loop_
 _atom_site_type_symbol
 _atom_site_label
 _atom_site_symmetry_multiplicity
 _atom_site_fract_x
 _atom_site_fract_y
 _atom_site_fract_z
 _atom_site_occupancy
  Li  Li0  1  0.99997900  0.12855900  0.25001400  1
  Li  Li1  1  0.00190200  0.25779500  0.49707000  1
  Li  Li2  1  0.00131100  0.62050000  0.25153500  1
  Li  Li3  1  0.00590000  0.86391700  0.74733500  1
  Li  Li4  1  0.99635100  0.99869000  0.00071100  1
  Li  Li5  1  0.99674600  0.38484200  0.75381500  1
  Cr  Cr0  1  0.49996800  0.31497300  0.12619200  1
  Cr  Cr1  1  0.50840100  0.06156800  0.62245600  1
  Cr  Cr2  1  0.50118600  0.93470500  0.37409800  1
  Cr  Cr3  1  0.50442200  0.56216100  0.62137600  1
  Cr  Cr4  1  0.49028300  0.19011500  0.87715400  1
  Cr  Cr5  1  0.49685800  0.68628200  0.87793400  1
  Co  Co0  1  0.49158700  0.44038400  0.37420900  1
  Co  Co1  1  0.50693000  0.80952800  0.12584700  1
  O  O0  1  0.28467400  0.12854400  0.06759800  1
  O  O1  1  0.27253900  0.27679200  0.31180200  1
  O  O2  1  0.28672700  0.66128900  0.06712700  1
  O  O3  1  0.27273300  0.02789100  0.80570800  1
  O  O4  1  0.28863100  0.38572900  0.56016400  1
  O  O5  1  0.29054900  0.77218200  0.29971600  1
  O  O6  1  0.28908200  0.90665000  0.56163400  1
  O  O7  1  0.27768900  0.52944000  0.80432200  1
  O  O8  1  0.70859200  0.48309800  0.19664700  1
  O  O9  1  0.71328500  0.11433200  0.43779700  1
  O  O10  1  0.71350400  0.59122100  0.43405700  1
  O  O11  1  0.72564300  0.96935900  0.18707300  1
  O  O12  1  0.72880900  0.21893200  0.68874100  1
  O  O13  1  0.71952700  0.72972300  0.69201500  1
  O  O14  1  0.71564400  0.34637000  0.93951300  1
  O  O15  1  0.71052100  0.85442700  0.94633500  1
loop_
_geom_bond_atom_site_label_1
_geom_bond_atom_site_label_2
_geom_bond_distance
_geom_bond_site_symmetry_2
Li0 O0 2.119262 1_655
Li0 O1 2.130335 1_655
Li0 O9 2.162904 1_555
Li0 O11 2.188977 1_545
Li0 O5 2.195136 1_645
Li0 O8 2.195190 1_555
Li1 O1 2.104733 1_555
Li1 O4 2.121387 1_555
Li1 O10 2.125230 1_455
Li1 O12 2.162070 1_455
Li1 O9 2.165927 1_455
Li1 O6 2.193037 1_545
Li2 O1 2.117227 1_555
Li2 O10 2.124776 1_455
Li2 O8 2.135134 1_455
Li2 O2 2.135638 1_555
Li2 O5 2.137933 1_555
Li2 O11 2.156688 1_455
Li3 O7 2.075411 1_555
Li3 O13 2.097307 1_455
Li3 O6 2.140492 1_555
Li3 O3 2.149500 1_565
Li3 O12 2.172936 1_465
Li3 O15 2.273525 1_455
Li4 O11 2.113269 1_555
Li4 O15 2.128386 1_554
Li4 O2 2.153169 1_655
Li4 O14 2.156959 1_564
Li4 O0 2.158831 1_665
Li4 O3 2.195549 1_664
Li5 O7 2.086327 1_655
Li5 O14 2.134149 1_555
Li5 O13 2.138957 1_555
Li5 O3 2.167515 1_655
Li5 O12 2.202607 1_555
Li5 O4 2.225260 1_655
Cr0 O14 2.003927 1_554
Cr0 O8 2.008195 1_555
Cr0 O2 2.010893 1_555
Cr0 O1 2.015680 1_555
Cr0 O11 2.032491 1_545
Cr0 O0 2.039466 1_555
Cr1 O6 1.930484 1_545
Cr1 O4 1.931791 1_555
Cr1 O13 1.964921 1_545
Cr1 O9 1.967888 1_555
Cr1 O12 1.980438 1_555
Cr1 O3 2.011911 1_555
Cr2 O10 1.998145 1_555
Cr2 O6 2.006041 1_555
Cr2 O5 2.018252 1_555
Cr2 O11 2.022294 1_555
Cr2 O1 2.025324 1_565
Cr2 O9 2.028356 1_565
Cr3 O7 1.991757 1_555
Cr3 O10 1.998885 1_555
Cr3 O6 2.007360 1_555
Cr3 O4 2.012735 1_555
Cr3 O13 2.032048 1_555
Cr3 O12 2.032786 1_555
Cr4 O14 1.970314 1_555
Cr4 O15 1.997076 1_545
Cr4 O7 2.007502 1_555
Cr4 O0 2.021461 1_556
Cr4 O3 2.023990 1_555
Cr4 O12 2.061407 1_555
Cr5 O14 1.996430 1_555
Cr5 O13 2.009575 1_555
Cr5 O15 2.014163 1_555
Cr5 O2 2.018360 1_556
Cr5 O7 2.022084 1_555
Cr5 O3 2.036709 1_565
Co0 O10 1.917499 1_555
Co0 O8 1.927654 1_555
Co0 O9 1.946339 1_555
Co0 O5 1.959460 1_555
Co0 O4 1.976219 1_555
Co0 O1 1.976764 1_555
Co1 O2 1.892442 1_555
Co1 O5 1.894703 1_555
Co1 O0 1.906491 1_565
Co1 O15 1.919861 1_554
Co1 O8 1.928046 1_555
Co1 O11 1.951680 1_555
