# generated using pymatgen
data_Li6B4O9
_symmetry_space_group_name_H-M   'P 1'
_cell_length_a   6.72880000
_cell_length_b   7.16349367
_cell_length_c   8.50322466
_cell_angle_alpha   93.47085779
_cell_angle_beta   100.98339755
_cell_angle_gamma   98.61454082
_symmetry_Int_Tables_number   1
_chemical_formula_structural   Li6B4O9
_chemical_formula_sum   'Li12 B8 O18'
_cell_volume   396.14395694
_cell_formula_units_Z   2
loop_
 _symmetry_equiv_pos_site_id
 _symmetry_equiv_pos_as_xyz
  1  'x, y, z'
loop_
 _atom_site_type_symbol
 _atom_site_label
 _atom_site_symmetry_multiplicity
 _atom_site_fract_x
 _atom_site_fract_y
 _atom_site_fract_z
 _atom_site_occupancy
  Li  Li0  1  0.06435200  0.04339800  0.87295500  1
  Li  Li1  1  0.09212700  0.66451200  0.21089900  1
  Li  Li2  1  0.06141400  0.19677400  0.52074700  1
  Li  Li3  1  0.25356400  0.68024400  0.94757000  1
  Li  Li4  1  0.37443300  0.45919100  0.35704000  1
  Li  Li5  1  0.39671600  0.29162900  0.76898400  1
  Li  Li6  1  0.60328400  0.70837100  0.23101600  1
  Li  Li7  1  0.62556700  0.54080900  0.64296000  1
  Li  Li8  1  0.74643600  0.31975600  0.05243000  1
  Li  Li9  1  0.93858600  0.80322600  0.47925300  1
  Li  Li10  1  0.90787300  0.33548800  0.78910100  1
  Li  Li11  1  0.93564800  0.95660200  0.12704500  1
  B  B0  1  0.23476600  0.58309800  0.56979300  1
  B  B1  1  0.26437000  0.36202800  0.06828800  1
  B  B2  1  0.28581800  0.90294200  0.70526300  1
  B  B3  1  0.33520800  0.03922800  0.15504000  1
  B  B4  1  0.66479200  0.96077200  0.84496000  1
  B  B5  1  0.71418200  0.09705800  0.29473700  1
  B  B6  1  0.73563000  0.63797200  0.93171200  1
  B  B7  1  0.76523400  0.41690200  0.43020700  1
  O  O0  1  0.14910500  0.65030800  0.43241900  1
  O  O1  1  0.12529900  0.98895900  0.65742300  1
  O  O2  1  0.19152700  0.30928800  0.90908500  1
  O  O3  1  0.30451300  0.22716500  0.18495700  1
  O  O4  1  0.19322000  0.91138300  0.05476200  1
  O  O5  1  0.26772200  0.70506200  0.72038300  1
  O  O6  1  0.31730900  0.41825500  0.57600800  1
  O  O7  1  0.30734000  0.54614400  0.13463900  1
  O  O8  1  0.51805500  0.98481900  0.23558600  1
  O  O9  1  0.48194500  0.01518100  0.76441400  1
  O  O10  1  0.69266000  0.45385600  0.86536100  1
  O  O11  1  0.68269100  0.58174500  0.42399200  1
  O  O12  1  0.73227800  0.29493800  0.27961700  1
  O  O13  1  0.80678000  0.08861700  0.94523800  1
  O  O14  1  0.69548700  0.77283500  0.81504300  1
  O  O15  1  0.80847300  0.69071200  0.09091500  1
  O  O16  1  0.87470100  0.01104100  0.34257700  1
  O  O17  1  0.85089500  0.34969200  0.56758100  1
loop_
_geom_bond_atom_site_label_1
_geom_bond_atom_site_label_2
_geom_bond_distance
_geom_bond_site_symmetry_2
Li0 O2 1.948139 1_555
Li0 O1 1.981636 1_545
Li0 O4 1.986971 1_546
Li0 O13 2.009107 1_455
Li1 O0 1.861486 1_555
Li1 O7 1.973737 1_555
Li1 O15 2.026713 1_455
Li1 O4 2.370848 1_555
Li2 O1 1.990594 1_545
Li2 O17 1.998032 1_455
Li2 O16 2.042992 1_455
Li2 O6 2.117991 1_555
Li3 O7 1.911505 1_556
Li3 O5 1.969583 1_555
Li3 O4 1.974059 1_556
Li4 O6 2.001397 1_555
Li4 O7 2.017351 1_555
Li4 O3 2.081836 1_555
Li4 O11 2.083550 1_555
Li4 O0 2.338782 1_555
Li5 O6 1.947366 1_555
Li5 O2 2.000579 1_555
Li5 O10 2.134749 1_555
Li5 O9 2.142783 1_555
Li6 O11 1.947366 1_555
Li6 O15 2.000579 1_555
Li6 O7 2.134749 1_555
Li6 O8 2.142783 1_555
Li7 O11 2.001397 1_555
Li7 O10 2.017351 1_555
Li7 O14 2.081836 1_555
Li7 O6 2.083550 1_555
Li7 O17 2.338782 1_555
Li8 O10 1.911505 1_554
Li8 O12 1.969583 1_555
Li8 O13 1.974059 1_554
Li9 O16 1.990594 1_565
Li9 O0 1.998032 1_655
Li9 O1 2.042992 1_655
Li9 O11 2.117991 1_555
Li10 O17 1.861486 1_555
Li10 O10 1.973737 1_555
Li10 O2 2.026713 1_655
Li10 O13 2.370848 1_555
Li11 O15 1.948139 1_555
Li11 O16 1.981636 1_565
Li11 O13 1.986971 1_564
Li11 O4 2.009107 1_655
B0 O0 1.350264 1_555
B0 O6 1.377875 1_555
B0 O5 1.466453 1_555
B1 O2 1.358436 1_554
B1 O7 1.369288 1_555
B1 O3 1.443119 1_555
B2 O1 1.331946 1_555
B2 O5 1.420219 1_555
B2 O9 1.421717 1_565
B3 O4 1.345920 1_545
B3 O3 1.407733 1_555
B3 O8 1.410540 1_545
B4 O13 1.345920 1_565
B4 O14 1.407733 1_555
B4 O9 1.410540 1_565
B5 O16 1.331946 1_555
B5 O12 1.420219 1_555
B5 O8 1.421717 1_545
B6 O15 1.358436 1_556
B6 O10 1.369288 1_555
B6 O14 1.443119 1_555
B7 O17 1.350264 1_555
B7 O11 1.377875 1_555
B7 O12 1.466453 1_555
