# generated using pymatgen
data_Li2CrO2
_symmetry_space_group_name_H-M   'P 1'
_cell_length_a   5.14098773
_cell_length_b   5.14098773
_cell_length_c   7.20649800
_cell_angle_alpha   90.00000000
_cell_angle_beta   90.00000000
_cell_angle_gamma   146.63036572
_symmetry_Int_Tables_number   1
_chemical_formula_structural   Li2CrO2
_chemical_formula_sum   'Li4 Cr2 O4'
_cell_volume   104.76356407
_cell_formula_units_Z   2
loop_
 _symmetry_equiv_pos_site_id
 _symmetry_equiv_pos_as_xyz
  1  'x, y, z'
loop_
 _atom_site_type_symbol
 _atom_site_label
 _atom_site_symmetry_multiplicity
 _atom_site_fract_x
 _atom_site_fract_y
 _atom_site_fract_z
 _atom_site_occupancy
  Li  Li0  1  0.88635300  0.11364700  0.63435900  1
  Li  Li1  1  0.60499300  0.39500700  0.85273400  1
  Li  Li2  1  0.11364700  0.88635300  0.13435900  1
  Li  Li3  1  0.39500700  0.60499300  0.35273400  1
  Cr  Cr0  1  0.85743200  0.14256800  0.01115700  1
  Cr  Cr1  1  0.14256800  0.85743200  0.51115700  1
  O  O0  1  0.76707800  0.23292200  0.41587600  1
  O  O1  1  0.51380800  0.48619200  0.60076500  1
  O  O2  1  0.23292200  0.76707800  0.91587600  1
  O  O3  1  0.48619200  0.51380800  0.10076500  1
loop_
_geom_bond_atom_site_label_1
_geom_bond_atom_site_label_2
_geom_bond_distance
_geom_bond_site_symmetry_2
Li0 O1 1.952700 1_655
Li0 O1 1.952700 1_545
Li0 O0 1.964454 1_555
Li1 O2 1.993295 1_545
Li1 O2 1.993295 1_655
Li1 O1 2.025770 1_555
Li1 O3 2.136355 1_556
Li2 O3 1.952700 1_565
Li2 O3 1.952700 1_455
Li2 O2 1.964454 1_554
Li3 O0 1.993295 1_455
Li3 O0 1.993295 1_565
Li3 O3 2.025770 1_555
Li3 O1 2.136355 1_555
Cr0 O2 2.038118 1_654
Cr0 O2 2.038118 1_544
Cr0 O3 2.050334 1_545
Cr0 O3 2.050334 1_655
Cr1 O0 2.038118 1_565
Cr1 O0 2.038118 1_455
Cr1 O1 2.050334 1_565
Cr1 O1 2.050334 1_455
