# generated using pymatgen
data_PH5NO3F
_symmetry_space_group_name_H-M   'P 1'
_cell_length_a   7.33380478
_cell_length_b   15.44120240
_cell_length_c   7.50828306
_cell_angle_alpha   90.00000000
_cell_angle_beta   109.00430804
_cell_angle_gamma   90.00000000
_symmetry_Int_Tables_number   1
_chemical_formula_structural   PH5NO3F
_chemical_formula_sum   'P8 H40 N8 O24 F8'
_cell_volume   803.91460424
_cell_formula_units_Z   8
loop_
 _symmetry_equiv_pos_site_id
 _symmetry_equiv_pos_as_xyz
  1  'x, y, z'
loop_
 _atom_site_type_symbol
 _atom_site_label
 _atom_site_symmetry_multiplicity
 _atom_site_fract_x
 _atom_site_fract_y
 _atom_site_fract_z
 _atom_site_occupancy
  P  P0  1  0.23963933  0.03613199  0.77692577  1
  P  P1  1  0.26036067  0.53613199  0.72307423  1
  P  P2  1  0.12246692  0.20465482  0.22617665  1
  P  P3  1  0.37753308  0.70465482  0.27382335  1
  P  P4  1  0.62246692  0.29534518  0.72617665  1
  P  P5  1  0.87753308  0.79534518  0.77382335  1
  P  P6  1  0.73963833  0.46386801  0.27692577  1
  P  P7  1  0.76036167  0.96386801  0.22307423  1
  H  H0  1  0.08194172  0.90059532  0.89506803  1
  H  H1  1  0.09841799  0.36724322  0.75100163  1
  H  H2  1  0.15833522  0.27943614  0.89034243  1
  H  H3  1  0.03227007  0.72530113  0.30822404  1
  H  H4  1  0.19187578  0.28081591  0.67760050  1
  H  H5  1  0.17603550  0.12048920  0.52724983  1
  H  H6  1  0.32396450  0.62048920  0.97275017  1
  H  H7  1  0.11167438  0.47229707  0.22558149  1
  H  H8  1  0.30812422  0.78081591  0.82239950  1
  H  H9  1  0.14452326  0.97250475  0.22521447  1
  H  H10  1  0.29491597  0.96433745  0.44800672  1
  H  H11  1  0.34166478  0.77943614  0.60965757  1
  H  H12  1  0.22943406  0.38052682  0.19862849  1
  H  H13  1  0.40158201  0.86724322  0.74899837  1
  H  H14  1  0.27056594  0.88052682  0.30137151  1
  H  H15  1  0.20508403  0.46433745  0.05199328  1
  H  H16  1  0.41805828  0.40059532  0.60493197  1
  H  H17  1  0.35547674  0.47250475  0.27478453  1
  H  H18  1  0.53227007  0.77469887  0.80822404  1
  H  H19  1  0.38832562  0.97229707  0.27441851  1
  H  H20  1  0.61167438  0.02770293  0.72558149  1
  H  H21  1  0.46772993  0.22530113  0.19177596  1
  H  H22  1  0.64452326  0.52749525  0.72521547  1
  H  H23  1  0.58194172  0.59940468  0.39506803  1
  H  H24  1  0.79491697  0.53566255  0.94800672  1
  H  H25  1  0.72943406  0.11947318  0.69862849  1
  H  H26  1  0.59841799  0.13275678  0.25100163  1
  H  H27  1  0.77056594  0.61947318  0.80137151  1
  H  H28  1  0.65833522  0.22056386  0.39034243  1
  H  H29  1  0.70508303  0.03566255  0.55199328  1
  H  H30  1  0.85547674  0.02749525  0.77478453  1
  H  H31  1  0.69187578  0.21918409  0.17760050  1
  H  H32  1  0.88832562  0.52770293  0.77441851  1
  H  H33  1  0.67603550  0.37951080  0.02724983  1
  H  H34  1  0.82396450  0.87951080  0.47275017  1
  H  H35  1  0.80812422  0.71918409  0.32239950  1
  H  H36  1  0.96772993  0.27469887  0.69177596  1
  H  H37  1  0.84166478  0.72056386  0.10965757  1
  H  H38  1  0.90158201  0.63275678  0.24899837  1
  H  H39  1  0.91805828  0.09940468  0.10493197  1
  N  N0  1  0.10478532  0.30031293  0.75141984  1
  N  N1  1  0.39521468  0.80031293  0.74858016  1
  N  N2  1  0.22570649  0.44720956  0.19064226  1
  N  N3  1  0.27429451  0.94720956  0.30935774  1
  N  N4  1  0.72570649  0.05279044  0.69064226  1
  N  N5  1  0.77429351  0.55279044  0.80935774  1
  N  N6  1  0.60478532  0.19968707  0.25141984  1
  N  N7  1  0.89521468  0.69968707  0.24858016  1
  O  O0  1  0.05858331  0.83635703  0.91937349  1
  O  O1  1  0.10872549  0.99149475  0.86345694  1
  O  O2  1  0.13697290  0.48241216  0.80407509  1
  O  O3  1  0.12595111  0.10661603  0.63828728  1
  O  O4  1  0.37404889  0.60661603  0.86171272  1
  O  O5  1  0.23996245  0.14147070  0.36730490  1
  O  O6  1  0.36302710  0.98241216  0.69592491  1
  O  O7  1  0.27366759  0.76244179  0.36818385  1
  O  O8  1  0.39127451  0.49149475  0.63654306  1
  O  O9  1  0.22633241  0.26244179  0.13181615  1
  O  O10  1  0.26003755  0.64147070  0.13269510  1
  O  O11  1  0.44141669  0.33635703  0.58062651  1
  O  O12  1  0.55858331  0.66364297  0.41937349  1
  O  O13  1  0.73996245  0.35852930  0.86730490  1
  O  O14  1  0.77366759  0.73755821  0.86818385  1
  O  O15  1  0.60872549  0.50850525  0.36345694  1
  O  O16  1  0.72633241  0.23755821  0.63181615  1
  O  O17  1  0.63697290  0.01758784  0.30407509  1
  O  O18  1  0.76003755  0.85852930  0.63269510  1
  O  O19  1  0.62595111  0.39338397  0.13828728  1
  O  O20  1  0.87404889  0.89338397  0.36171272  1
  O  O21  1  0.86302710  0.51758784  0.19592491  1
  O  O22  1  0.89127451  0.00850525  0.13654306  1
  O  O23  1  0.94141669  0.16364297  0.08062651  1
  F  F0  1  0.02548017  0.26744748  0.33647190  1
  F  F1  1  0.11723739  0.58998597  0.55828046  1
  F  F2  1  0.38276261  0.08998597  0.94171954  1
  F  F3  1  0.52548017  0.23255252  0.83647190  1
  F  F4  1  0.47451983  0.76744748  0.16352810  1
  F  F5  1  0.61723739  0.91001403  0.05828046  1
  F  F6  1  0.88276261  0.41001403  0.44171954  1
  F  F7  1  0.97451983  0.73255252  0.66352810  1
loop_
_geom_bond_atom_site_label_1
_geom_bond_atom_site_label_2
_geom_bond_distance
_geom_bond_site_symmetry_2
H0 O0 1.032912 1_555
H0 O1 1.447537 1_555
H1 N0 1.034497 1_555
H2 N0 1.038921 1_555
H3 N7 1.036398 1_455
H4 N0 1.018006 1_555
H5 O3 1.036967 1_555
H5 O5 1.460697 1_555
H6 O4 1.036967 1_555
H6 O10 1.460697 1_556
H7 N2 1.030119 1_555
H8 N1 1.018006 1_555
H9 N3 1.032408 1_555
H10 N3 1.036339 1_555
H11 N1 1.038921 1_555
H12 N2 1.031251 1_555
H13 N1 1.034497 1_555
H14 N3 1.031251 1_555
H15 N2 1.036337 1_555
H16 O11 1.032912 1_555
H16 O8 1.447537 1_555
H17 N2 1.032401 1_555
H18 N1 1.036398 1_555
H19 N3 1.030112 1_555
H20 N4 1.030119 1_555
H21 N6 1.036398 1_555
H22 N5 1.032401 1_555
H23 O12 1.032912 1_555
H23 O15 1.447537 1_555
H24 N5 1.036336 1_555
H25 N4 1.031251 1_555
H26 N6 1.034497 1_555
H27 N5 1.031251 1_555
H28 N6 1.038921 1_555
H29 N4 1.036336 1_555
H30 N4 1.032401 1_555
H31 N6 1.018006 1_555
H32 N5 1.030119 1_555
H33 O19 1.036967 1_555
H33 O13 1.460697 1_554
H34 O20 1.036967 1_555
H34 O18 1.460697 1_555
H35 N7 1.018006 1_555
H36 N0 1.036398 1_655
H37 N7 1.038921 1_555
H38 N7 1.034497 1_555
H39 O23 1.032912 1_555
H39 O22 1.447537 1_555
O0 P5 1.553479 1_455
O1 P0 1.491716 1_565
O2 P1 1.495065 1_555
O3 P0 1.548547 1_555
O4 P1 1.548547 1_555
O5 P2 1.490816 1_555
O6 P0 1.495065 1_565
O7 P3 1.493272 1_555
O8 P1 1.491716 1_555
O9 P2 1.493272 1_555
O10 P3 1.490816 1_555
O11 P4 1.553479 1_555
O12 P3 1.553479 1_555
O13 P4 1.490816 1_555
O14 P5 1.493272 1_555
O15 P6 1.491710 1_555
O16 P4 1.493272 1_555
O17 P7 1.495071 1_545
O18 P5 1.490816 1_555
O19 P6 1.548545 1_555
O20 P7 1.548545 1_555
O21 P6 1.495071 1_555
O22 P7 1.491710 1_545
O23 P2 1.553479 1_655
F0 P2 1.586019 1_555
F1 P1 1.574283 1_555
F2 P0 1.574283 1_555
F3 P4 1.586019 1_555
F4 P3 1.586019 1_555
F5 P7 1.574286 1_555
F6 P6 1.574286 1_555
F7 P5 1.586019 1_555
