# generated using pymatgen
data_Sr2LaCl7
_symmetry_space_group_name_H-M   'P 1'
_cell_length_a   13.81154900
_cell_length_b   7.19391700
_cell_length_c   12.44947316
_cell_angle_alpha   89.55460208
_cell_angle_beta   90.00000000
_cell_angle_gamma   90.00000000
_symmetry_Int_Tables_number   1
_chemical_formula_structural   Sr2LaCl7
_chemical_formula_sum   'Sr8 La4 Cl28'
_cell_volume   1236.93153618
_cell_formula_units_Z   4
loop_
 _symmetry_equiv_pos_site_id
 _symmetry_equiv_pos_as_xyz
  1  'x, y, z'
loop_
 _atom_site_type_symbol
 _atom_site_label
 _atom_site_symmetry_multiplicity
 _atom_site_fract_x
 _atom_site_fract_y
 _atom_site_fract_z
 _atom_site_occupancy
  Sr  Sr0  1  0.52003000  0.80134200  0.71439600  1
  Sr  Sr1  1  0.13873800  0.73457500  0.64388400  1
  Sr  Sr2  1  0.78839500  0.73255800  0.14668400  1
  Sr  Sr3  1  0.39457300  0.73439400  0.19180400  1
  Sr  Sr4  1  0.89457300  0.26560600  0.80819600  1
  Sr  Sr5  1  0.28839500  0.26744200  0.85331600  1
  Sr  Sr6  1  0.63873800  0.26542500  0.35611600  1
  Sr  Sr7  1  0.02003000  0.19865800  0.28560400  1
  La  La0  1  0.84698000  0.81466900  0.55958200  1
  La  La1  1  0.06911600  0.79142600  0.02660700  1
  La  La2  1  0.56911600  0.20857400  0.97339300  1
  La  La3  1  0.34698000  0.18533100  0.44041800  1
  Cl  Cl0  1  0.66081100  0.90417200  0.87946200  1
  Cl  Cl1  1  0.40685200  0.96449600  0.98768700  1
  Cl  Cl2  1  0.52195400  0.00279600  0.50305500  1
  Cl  Cl3  1  0.17959800  0.91078400  0.85445600  1
  Cl  Cl4  1  0.27392500  0.84498900  0.37871400  1
  Cl  Cl5  1  0.75778200  0.90427900  0.36632300  1
  Cl  Cl6  1  0.94310800  0.86118100  0.76011700  1
  Cl  Cl7  1  0.98531600  0.80360300  0.23860000  1
  Cl  Cl8  1  0.33423200  0.59326200  0.69715200  1
  Cl  Cl9  1  0.59706100  0.56829000  0.18421000  1
  Cl  Cl10  1  0.68191800  0.61631100  0.61279800  1
  Cl  Cl11  1  0.71496900  0.42743700  0.89133900  1
  Cl  Cl12  1  0.96898100  0.50448200  0.57357500  1
  Cl  Cl13  1  0.42871600  0.48838800  0.97682900  1
  Cl  Cl14  1  0.92871600  0.51161200  0.02317100  1
  Cl  Cl15  1  0.46898100  0.49551800  0.42642500  1
  Cl  Cl16  1  0.21496900  0.57256300  0.10866100  1
  Cl  Cl17  1  0.18191800  0.38368900  0.38720200  1
  Cl  Cl18  1  0.09706100  0.43171000  0.81579000  1
  Cl  Cl19  1  0.83423200  0.40673800  0.30284800  1
  Cl  Cl20  1  0.48531600  0.19639700  0.76140000  1
  Cl  Cl21  1  0.44310800  0.13881900  0.23988300  1
  Cl  Cl22  1  0.25778200  0.09572100  0.63367700  1
  Cl  Cl23  1  0.77392500  0.15501100  0.62128600  1
  Cl  Cl24  1  0.67959800  0.08921600  0.14554400  1
  Cl  Cl25  1  0.02195400  0.99720400  0.49694500  1
  Cl  Cl26  1  0.90685200  0.03550400  0.01231300  1
  Cl  Cl27  1  0.16081100  0.09582800  0.12053800  1
loop_
_geom_bond_atom_site_label_1
_geom_bond_atom_site_label_2
_geom_bond_distance
_geom_bond_site_symmetry_2
Cl0 La2 2.794029 1_565
Cl0 Sr0 2.928230 1_555
Cl1 La2 2.851757 1_565
Cl1 Sr3 3.026704 1_556
Cl1 Sr5 3.188750 1_565
Cl2 La3 2.856004 1_555
Cl2 Sr0 2.994050 1_545
Cl2 Sr6 3.076344 1_555
Cl3 La1 2.762315 1_556
Cl3 Sr5 2.973344 1_565
Cl3 Sr1 2.974787 1_555
Cl4 La3 2.762618 1_565
Cl4 Sr3 2.975410 1_555
Cl5 La0 2.774508 1_555
Cl5 Sr2 3.038792 1_555
Cl5 Sr6 3.076400 1_565
Cl6 La0 2.849642 1_555
Cl6 Sr4 3.049478 1_565
Cl6 Sr1 3.200705 1_655
Cl7 La1 2.883790 1_655
Cl7 Sr7 2.945350 1_665
Cl7 Sr2 2.996159 1_555
Cl8 Sr1 2.958575 1_555
Cl8 Sr0 2.979428 1_555
Cl8 Sr5 3.098979 1_555
Cl9 Sr2 2.930801 1_555
Cl9 Sr3 3.043017 1_555
Cl9 Sr6 3.096151 1_555
Cl10 La0 2.767270 1_555
Cl10 Sr0 2.897788 1_555
Cl11 La2 2.748735 1_555
Cl11 Sr4 2.932392 1_555
Cl12 La0 2.800539 1_555
Cl12 Sr1 3.004296 1_655
Cl12 Sr4 3.530283 1_555
Cl13 La2 2.795611 1_555
Cl13 Sr5 2.947012 1_555
Cl13 Sr3 3.254341 1_556
Cl14 La1 2.795611 1_655
Cl14 Sr2 2.947012 1_555
Cl14 Sr4 3.254341 1_554
Cl15 La3 2.800539 1_555
Cl15 Sr6 3.004296 1_555
Cl15 Sr3 3.530283 1_555
Cl16 La1 2.748735 1_555
Cl16 Sr3 2.932392 1_555
Cl17 La3 2.767270 1_555
Cl17 Sr7 2.897788 1_555
Cl18 Sr5 2.930801 1_555
Cl18 Sr4 3.043017 1_455
Cl18 Sr1 3.096151 1_555
Cl19 Sr6 2.958575 1_555
Cl19 Sr7 2.979428 1_655
Cl19 Sr2 3.098979 1_555
Cl20 La2 2.883790 1_555
Cl20 Sr0 2.945350 1_545
Cl20 Sr5 2.996159 1_555
Cl21 La3 2.849642 1_555
Cl21 Sr3 3.049478 1_545
Cl21 Sr6 3.200705 1_555
Cl22 La3 2.774508 1_555
Cl22 Sr5 3.038792 1_555
Cl22 Sr1 3.076400 1_545
Cl23 La0 2.762618 1_545
Cl23 Sr4 2.975410 1_555
Cl24 La2 2.762315 1_554
Cl24 Sr2 2.973344 1_545
Cl24 Sr6 2.974787 1_555
Cl25 La0 2.856004 1_455
Cl25 Sr7 2.994050 1_565
Cl25 Sr1 3.076344 1_555
Cl26 La1 2.851757 1_645
Cl26 Sr4 3.026704 1_554
Cl26 Sr2 3.188750 1_545
Cl27 La1 2.794029 1_545
Cl27 Sr7 2.928230 1_555
